data_PCOD9557867
_publ_section_title
;
Structure prediction by ZEFSAII (Michael W. Deem and Ramdas Pophale) SiO2 
 PCOD9557867
Probable space group: P -4 C 2
;
_chemical_formula_sum "Si O2"
_cell_formula_units_Z 38
_cell_length_a 14.327590
_cell_length_b 14.327590
_cell_length_c 8.452107
_cell_angle_alpha 90.000000
_cell_angle_beta 90.000000
_cell_angle_gamma 90.000000
_cell_volume 1735.047132
_symmetry_space_group_name_H-M "P -4 C 2"
_symmetry_group_IT_number 116
_symmetry_cell_setting 'tetragonal'
loop_
_space_group_symop_operation_xyz
x,y,z
y,-x,-z
-x,-y,z
-y,x,-z
y,x,1/2-z
-y,-x,1/2-z
-x,y,1/2+z
x,-y,1/2+z
loop_
_atom_site_type_symbol
_atom_site_label
_atom_site_fract_x
_atom_site_fract_y
_atom_site_fract_z
Si Si1 0.419848 0.809051 0.426972
Si Si2 0.669654 0.873048 0.237141
Si Si3 0.319918 0.319918 0.750000
Si Si4 0.698897 0.390598 0.596533
Si Si5 0.000000 0.000000 0.500000
Si Si6 0.000000 0.500000 0.678625
Si Si7 0.113707 0.113707 0.250000
O O1 0.366148 0.809648 0.591341
O O2 0.346603 0.786058 0.289564
O O3 0.502676 0.734682 0.403428
O O4 0.465092 0.909865 0.413511
O O5 0.663615 0.798064 0.380051
O O6 0.594800 0.957299 0.244326
O O7 0.776198 0.902344 0.221016
O O8 0.369994 0.339774 0.580306
O O9 0.633752 0.366249 0.750000
O O10 0.076427 0.053084 0.395380
#
# Coordination Sequence:
#
# PCOD9557867 Si02
#       7
#     8   8   4   8   2   4   4
#     4  11  24  44  70 110 148 193 244 314 380 462
#     4  11  22  46  71 107 153 192 242 326 399 459
#     4  12  24  40  73 100 134 197 244 284 372 442
#     4  11  22  44  68 100 152 191 246 302 364 458
#     4  10  28  50  68 106 144 206 292 322 384 506
#     4  10  24  40  74 114 150 186 248 310 396 468
#     4  11  24  50  76 100 154 209 262 342 402 479
#
# _framework density 21.901423000000001
#
# number of rings (size 3 to 8) (size 9 to 14) (size 15 to 20)
#    0.000    1.053    3.158    3.158    2.947    1.684 
#    3.789    0.526    0.000    0.000    0.000    0.000 
#    0.000    0.000    0.000    0.000    0.000    0.000 
#
# Total GULP energy -211730.723935 kJ/mol
# GULP energy per Si atom -5571.861156 kJ/mol
# Density = 2.185157 g / cm^3
# Si number density = 21.901423 Si / 1000 Ang^3
#
#
#
# Elastic Constant Matrix: (Units=GPa)
#
#
# Indices 1 2 3 4 5 6 
#
# 1 126.8503 62.2477 56.1446 0.0000 0.0000 0.0000
# 2 62.2477 126.8503 56.1447 0.0000 0.0000 0.0000
# 3 56.1446 56.1447 142.3290 0.0000 0.0000 0.0000
# 4 0.0000 0.0000 0.0000 13.9250 0.0000 0.0000
# 5 0.0000 0.0000 0.0000 0.0000 13.9249 0.0000
# 6 0.0000 0.0000 0.0000 0.0000 0.0000 53.5448
#
#
#
# Elastic Compliance Matrix: (Units=1/GPa)
#
#
# Indices 1 2 3 4 5 6 
#
# 1 0.011193 -0.004287 -0.002724 0.000000 0.000000 0.000000
# 2 -0.004287 0.011193 -0.002724 0.000000 0.000000 0.000000
# 3 -0.002724 -0.002724 0.009175 0.000000 0.000000 0.000000
# 4 0.000000 0.000000 0.000000 0.071813 0.000000 0.000000
# 5 0.000000 0.000000 0.000000 0.000000 0.071814 0.000000
# 6 0.000000 0.000000 0.000000 0.000000 0.000000 0.018676
#
#
# Mechanical properties :
#
#
# Convention : Reuss Voigt Hill
#
# Bulk Modulus (GPa) = 82.71089 82.78929 82.75009
# Shear Modulus (GPa) = 23.00296 31.04512 27.02404
#
# Velocity S-wave (km/s) = 3.24434 3.76905 3.51649
# Velocity P-wave (km/s) = 7.20287 7.53816 7.37242
#
# Compressibility (1/GPa) = 0.01209031
#
# Stress axis : x y z
#
# Youngs Moduli (GPa) = 89.34482 89.34483 108.98944
#
# Poissons Ratio (x) = 0.38299 0.29691
# Poissons Ratio (y) = 0.38299 0.29691
# Poissons Ratio (z) = 0.24339 0.24339
#
# Static dielectric constant tensor:
#      x y z
#    x 1.816990 0.000000 0.000000 
#    y 0.000000 1.816990 0.000000 
#    z 0.000000 0.000000 1.873820 
# 
# From -- ./inp_files/758.got.cif
#   From: 2010.05.17/outbox.cif.g08.bks.cpg/sg116_1_cif.got.tgz:758.got - 2010.05.20 11:11:43.
