data_PCOD9557238
_publ_section_title
;
Structure prediction by ZEFSAII (Michael W. Deem and Ramdas Pophale) SiO2 
 PCOD9557238
Probable space group: P -4 M 2
;
_chemical_formula_sum "Si O2"
_cell_formula_units_Z 48
_cell_length_a 9.177121
_cell_length_b 9.177121
_cell_length_c 31.858279
_cell_angle_alpha 90.000000
_cell_angle_beta 90.000000
_cell_angle_gamma 90.000000
_cell_volume 2683.089916
_symmetry_space_group_name_H-M "P -4 M 2"
_symmetry_group_IT_number 115
_symmetry_cell_setting 'tetragonal'
loop_
_space_group_symop_operation_xyz
x,y,z
y,-x,-z
-x,-y,z
-y,x,-z
y,x,-z
-y,-x,-z
-x,y,z
x,-y,z
loop_
_atom_site_type_symbol
_atom_site_label
_atom_site_fract_x
_atom_site_fract_y
_atom_site_fract_z
Si Si1 0.327510 0.826132 0.961062
Si Si2 0.329252 0.325517 0.295948
Si Si3 0.826225 0.673484 0.539502
Si Si4 0.825570 0.171759 0.124745
Si Si5 0.674589 0.172617 0.617725
Si Si6 0.326638 0.826859 0.210218
O O1 0.500000 0.801705 0.960523
O O2 0.257398 0.779071 0.916820
O O3 0.301115 0.000000 0.965304
O O4 0.254549 0.745452 0.000000
O O5 0.500000 0.286856 0.302637
O O6 0.321140 0.500000 0.291240
O O7 0.236617 0.284651 0.336757
O O8 0.278722 0.251597 0.252856
O O9 0.749098 0.749098 0.500000
O O10 0.799570 0.500000 0.538810
O O11 0.759898 0.743481 0.581456
O O12 0.000000 0.697045 0.537570
O O13 0.751780 0.223320 0.167772
O O14 0.000000 0.185683 0.128787
O O15 0.791329 0.000000 0.119365
O O16 0.500000 0.195246 0.612242
O O17 0.702215 0.000000 0.615541
O O18 0.500000 0.803384 0.205865
O O19 0.300918 0.000000 0.214411
#
# Coordination Sequence:
#
# PCOD9557238 Si02
#       6
#     8   8   8   8   8   8
#     4  10  21  36  54  77 104 135 172 214 261 313
#     4   9  18  33  52  74 103 140 178 215 260 314
#     4  11  24  40  59  84 112 143 180 221 266 317
#     4   9  18  33  52  73  99 133 171 210 256 312
#     4  10  21  37  57  82 111 143 181 223 267 316
#     4   9  18  32  50  73 101 133 171 215 260 307
#
# _framework density 17.889823
#
# number of rings (size 3 to 8) (size 9 to 14) (size 15 to 20)
#    0.000    2.333    0.000    2.000    0.000    8.000 
#    0.000    3.333    0.000    0.000    0.000    0.000 
#    0.000    0.000    0.000    0.000    0.000    0.000 
#
# Total GULP energy -267950.519656 kJ/mol
# GULP energy per Si atom -5582.302493 kJ/mol
# Density = 1.784910 g / cm^3
# Si number density = 17.889823 Si / 1000 Ang^3
#
#
#
# Elastic Constant Matrix: (Units=GPa)
#
#
# Indices 1 2 3 4 5 6 
#
# 1 66.3113 65.1158 91.5185 0.0000 0.0000 0.0000
# 2 65.1158 66.3116 91.5193 0.0000 0.0000 0.0000
# 3 91.5185 91.5193 221.7306 0.0000 0.0000 0.0000
# 4 0.0000 0.0000 0.0000 39.4534 0.0000 0.0000
# 5 0.0000 0.0000 0.0000 0.0000 39.4535 0.0000
# 6 0.0000 0.0000 0.0000 0.0000 0.0000 22.6732
#
#
#
# Elastic Compliance Matrix: (Units=1/GPa)
#
#
# Indices 1 2 3 4 5 6 
#
# 1 0.427136 -0.409242 -0.007384 0.000000 0.000000 0.000000
# 2 -0.409242 0.427140 -0.007389 0.000000 0.000000 0.000000
# 3 -0.007384 -0.007389 0.010607 0.000000 0.000000 0.000000
# 4 0.000000 0.000000 0.000000 0.025346 0.000000 0.000000
# 5 0.000000 0.000000 0.000000 0.000000 0.025346 0.000000
# 6 0.000000 0.000000 0.000000 0.000000 0.000000 0.044105
#
#
# Mechanical properties :
#
#
# Convention : Reuss Voigt Hill
#
# Bulk Modulus (GPa) = 59.33557 94.51784 76.92671
# Shear Modulus (GPa) = 2.75736 27.39600 15.07668
#
# Velocity S-wave (km/s) = 1.24284 3.91752 2.90617
# Velocity P-wave (km/s) = 5.94128 8.56800 7.37256
#
# Compressibility (1/GPa) = 0.01685330
#
# Stress axis : x y z
#
# Youngs Moduli (GPa) = 2.34118 2.34115 94.27293
#
# Poissons Ratio (x) = 0.95810 0.69611
# Poissons Ratio (y) = 0.95811 0.69658
# Poissons Ratio (z) = 0.01729 0.01730
#
# Static dielectric constant tensor:
#      x y z
#    x 1.599410 0.000000 0.000000 
#    y 0.000000 1.599410 0.000000 
#    z 0.000000 0.000000 1.584420 
# 
# From -- ./inp_files/5939.got.cif
#   From: 2010.05.17/outbox.cif.g08.bks.cpg/sg115_3_cif.got.tgz:5939.got - 2010.05.20 11:07:42.
