data_PCOD9557768
_publ_section_title
;
Structure prediction by ZEFSAII (Michael W. Deem and Ramdas Pophale) SiO2 
 PCOD9557768
Probable space group: P -4 C 2
;
_chemical_formula_sum "Si O2"
_cell_formula_units_Z 40
_cell_length_a 9.008954
_cell_length_b 9.008954
_cell_length_c 20.331173
_cell_angle_alpha 90.000000
_cell_angle_beta 90.000000
_cell_angle_gamma 90.000000
_cell_volume 1650.103459
_symmetry_space_group_name_H-M "P -4 C 2"
_symmetry_group_IT_number 116
_symmetry_cell_setting 'tetragonal'
loop_
_space_group_symop_operation_xyz
x,y,z
y,-x,-z
-x,-y,z
-y,x,-z
y,x,1/2-z
-y,-x,1/2-z
-x,y,1/2+z
x,-y,1/2+z
loop_
_atom_site_type_symbol
_atom_site_label
_atom_site_fract_x
_atom_site_fract_y
_atom_site_fract_z
Si Si1 0.173307 0.014651 0.157516
Si Si2 0.560436 0.167088 0.408468
Si Si3 0.161280 0.140642 0.973910
Si Si4 0.752454 0.668616 0.815058
Si Si5 0.342024 0.686555 0.670188
O O1 0.228443 0.180044 0.159960
O O2 0.202467 0.936828 0.086641
O O3 0.284607 0.918796 0.202714
O O4 0.000000 0.000000 0.173011
O O5 0.669832 0.198623 0.471351
O O6 0.684084 0.189364 0.352204
O O7 0.440122 0.282822 0.380061
O O8 0.500000 0.000000 0.412862
O O9 0.039821 0.171926 0.030890
O O10 0.657189 0.657189 0.750000
O O11 0.735475 0.509687 0.849016
O O12 0.340544 0.659457 0.750000
#
# Coordination Sequence:
#
# PCOD9557768 Si02
#       5
#     8   8   8   8   8
#     4  11  24  42  71 109 138 185 266 312 368 460
#     4  11  25  42  72 106 140 197 255 305 376 476
#     4  10  21  46  79  95 134 182 249 324 387 417
#     4  11  24  42  65 100 155 201 242 298 376 467
#     4  12  25  41  70 104 158 203 235 303 395 464
#
# _framework density 24.240902999999999
#
# number of rings (size 3 to 8) (size 9 to 14) (size 15 to 20)
#    0.000    1.000    4.000    3.600    5.600    0.000 
#    0.000    4.000    4.400    0.000    0.000    0.000 
#    0.000    0.000    0.000    0.000    0.000    0.000 
#
# Total GULP energy -222697.326131 kJ/mol
# GULP energy per Si atom -5567.433153 kJ/mol
# Density = 2.418573 g / cm^3
# Si number density = 24.240903 Si / 1000 Ang^3
#
#
#
# Elastic Constant Matrix: (Units=GPa)
#
#
# Indices 1 2 3 4 5 6 
#
# 1 114.1888 29.3049 3.3130 0.0000 0.0000 0.0000
# 2 29.3049 114.1886 3.3129 0.0000 0.0000 0.0000
# 3 3.3130 3.3129 30.8637 0.0000 0.0000 0.0000
# 4 0.0000 0.0000 0.0000 27.7295 0.0000 0.0000
# 5 0.0000 0.0000 0.0000 0.0000 27.7295 0.0000
# 6 0.0000 0.0000 0.0000 0.0000 0.0000 40.7708
#
#
#
# Elastic Compliance Matrix: (Units=1/GPa)
#
#
# Indices 1 2 3 4 5 6 
#
# 1 0.009392 -0.002389 -0.000752 0.000000 0.000000 0.000000
# 2 -0.002389 0.009392 -0.000752 0.000000 0.000000 0.000000
# 3 -0.000752 -0.000752 0.032562 0.000000 0.000000 0.000000
# 4 0.000000 0.000000 0.000000 0.036063 0.000000 0.000000
# 5 0.000000 0.000000 0.000000 0.000000 0.036063 0.000000
# 6 0.000000 0.000000 0.000000 0.000000 0.000000 0.024527
#
#
# Mechanical properties :
#
#
# Convention : Reuss Voigt Hill
#
# Bulk Modulus (GPa) = 22.95572 36.78918 29.87245
# Shear Modulus (GPa) = 29.35926 34.13333 31.74630
#
# Velocity S-wave (km/s) = 3.48393 3.75652 3.62279
# Velocity P-wave (km/s) = 5.06696 5.83307 5.46346
#
# Compressibility (1/GPa) = 0.04356213
#
# Stress axis : x y z
#
# Youngs Moduli (GPa) = 106.47103 106.47082 30.71070
#
# Poissons Ratio (x) = 0.25431 0.02309
# Poissons Ratio (y) = 0.25431 0.02309
# Poissons Ratio (z) = 0.08004 0.08004
#
# Static dielectric constant tensor:
#      x y z
#    x 2.026440 0.000000 0.000000 
#    y 0.000000 2.026440 0.000000 
#    z 0.000000 0.000000 2.223950 
# 
# From -- ./inp_files/4444.got.cif
#   From: 2010.05.17/outbox.cif.g08.bks.cpg/sg116_3_cif.got.tgz:4444.got - 2010.05.20 11:11:43.
