data_PCOD9557409
_publ_section_title
;
Structure prediction by ZEFSAII (Michael W. Deem and Ramdas Pophale) SiO2 
 PCOD9557409
Probable space group: P -4 M 2
;
_chemical_formula_sum "Si O2"
_cell_formula_units_Z 33
_cell_length_a 11.419096
_cell_length_b 11.419096
_cell_length_c 12.183181
_cell_angle_alpha 90.000000
_cell_angle_beta 90.000000
_cell_angle_gamma 90.000000
_cell_volume 1588.635066
_symmetry_space_group_name_H-M "P -4 M 2"
_symmetry_group_IT_number 115
_symmetry_cell_setting 'tetragonal'
loop_
_space_group_symop_operation_xyz
x,y,z
y,-x,-z
-x,-y,z
-y,x,-z
y,x,-z
-y,-x,-z
-x,y,z
x,-y,z
loop_
_atom_site_type_symbol
_atom_site_label
_atom_site_fract_x
_atom_site_fract_y
_atom_site_fract_z
Si Si1 0.135154 0.861661 0.632416
Si Si2 0.500000 0.137501 0.163496
Si Si3 0.628641 0.238485 0.746938
Si Si4 0.668770 0.500000 0.691835
Si Si5 0.685360 0.137706 0.981819
Si Si6 0.500000 0.500000 0.500000
O O1 0.146689 0.853312 0.500000
O O2 0.250420 0.802117 0.686587
O O3 0.000000 0.820771 0.661089
O O4 0.139455 0.000000 0.661128
O O5 0.500000 0.194462 0.282423
O O6 0.500000 0.000000 0.173574
O O7 0.610170 0.172655 0.088318
O O8 0.500000 0.199005 0.700978
O O9 0.626479 0.379027 0.743828
O O10 0.636247 0.192797 0.870881
O O11 0.616983 0.500000 0.571288
O O12 0.678738 0.000000 0.971250
O O13 0.815132 0.184869 0.000000
#
# Coordination Sequence:
#
# PCOD9557409 Si02
#       6
#     8   4   8   4   8   1
#     4   9  21  43  67  92 130 183 238 293 360 435
#     4  10  22  43  69  98 132 179 232 277 339 426
#     4  12  24  40  68 102 137 182 229 293 357 417
#     4  12  26  44  69  91 141 185 220 283 356 425
#     4  11  23  40  66 100 138 176 228 285 340 414
#     4  12  28  48  68 106 136 168 228 300 334 404
#
# _framework density 20.772549000000001
#
# number of rings (size 3 to 8) (size 9 to 14) (size 15 to 20)
#    0.000    1.212    4.848    1.455    1.697    3.636 
#    0.000    1.212    0.000    0.000    0.000    0.000 
#    0.000    0.000    0.000    0.000    0.000    0.000 
#
# Total GULP energy -183978.952636 kJ/mol
# GULP energy per Si atom -5575.119777 kJ/mol
# Density = 2.072527 g / cm^3
# Si number density = 20.772549 Si / 1000 Ang^3
#
#
#
# Elastic Constant Matrix: (Units=GPa)
#
#
# Indices 1 2 3 4 5 6 
#
# 1 143.9445 52.3661 51.4916 0.0000 0.0000 0.0000
# 2 52.3661 143.9475 51.4917 0.0000 0.0000 0.0000
# 3 51.4916 51.4917 91.4791 0.0000 0.0000 0.0000
# 4 0.0000 0.0000 0.0000 39.5048 0.0000 0.0000
# 5 0.0000 0.0000 0.0000 0.0000 39.5045 0.0000
# 6 0.0000 0.0000 0.0000 0.0000 0.0000 21.6621
#
#
#
# Elastic Compliance Matrix: (Units=1/GPa)
#
#
# Indices 1 2 3 4 5 6 
#
# 1 0.009074 -0.001846 -0.004069 0.000000 0.000000 0.000000
# 2 -0.001846 0.009074 -0.004069 0.000000 0.000000 0.000000
# 3 -0.004069 -0.004069 0.015512 0.000000 0.000000 0.000000
# 4 0.000000 0.000000 0.000000 0.025313 0.000000 0.000000
# 5 0.000000 0.000000 0.000000 0.000000 0.025314 0.000000
# 6 0.000000 0.000000 0.000000 0.000000 0.000000 0.046164
#
#
# Mechanical properties :
#
#
# Convention : Reuss Voigt Hill
#
# Bulk Modulus (GPa) = 73.02598 76.67442 74.85020
# Shear Modulus (GPa) = 32.26216 35.06908 33.66562
#
# Velocity S-wave (km/s) = 3.94523 4.11328 4.03013
# Velocity P-wave (km/s) = 7.48228 7.71688 7.60049
#
# Compressibility (1/GPa) = 0.01369376
#
# Stress axis : x y z
#
# Youngs Moduli (GPa) = 110.20521 110.20801 64.46716
#
# Poissons Ratio (x) = 0.20340 0.26230
# Poissons Ratio (y) = 0.20339 0.26229
# Poissons Ratio (z) = 0.44839 0.44839
#
# Static dielectric constant tensor:
#      x y z
#    x 1.765600 0.000000 0.000000 
#    y 0.000000 1.765600 0.000000 
#    z 0.000000 0.000000 1.726370 
# 
# From -- ./inp_files/2660.got.cif
#   From: 2010.05.17/outbox.cif.g08.bks.cpg/sg115_2_cif.got.tgz:2660.got - 2010.05.20 11:07:42.
