data_PCOD9557275
_publ_section_title
;
Structure prediction by ZEFSAII (Michael W. Deem and Ramdas Pophale) SiO2 
 PCOD9557275
Probable space group: P -4 M 2
;
_chemical_formula_sum "Si O2"
_cell_formula_units_Z 36
_cell_length_a 9.218068
_cell_length_b 9.218068
_cell_length_c 23.757335
_cell_angle_alpha 90.000000
_cell_angle_beta 90.000000
_cell_angle_gamma 90.000000
_cell_volume 2018.726745
_symmetry_space_group_name_H-M "P -4 M 2"
_symmetry_group_IT_number 115
_symmetry_cell_setting 'tetragonal'
loop_
_space_group_symop_operation_xyz
x,y,z
y,-x,-z
-x,-y,z
-y,x,-z
y,x,-z
-y,-x,-z
-x,y,z
x,-y,z
loop_
_atom_site_type_symbol
_atom_site_label
_atom_site_fract_x
_atom_site_fract_y
_atom_site_fract_z
Si Si1 0.329461 0.825120 0.176997
Si Si2 0.326427 0.328054 0.604140
Si Si3 0.326237 0.169542 0.720586
Si Si4 0.674399 0.169168 0.050713
Si Si5 0.827337 0.827337 0.500000
O O1 0.500000 0.788071 0.184076
O O2 0.236525 0.752283 0.225533
O O3 0.283072 0.781203 0.113707
O O4 0.318623 0.000000 0.179823
O O5 0.500000 0.307750 0.595631
O O6 0.297633 0.500000 0.604205
O O7 0.287843 0.257791 0.664196
O O8 0.240704 0.249277 0.554546
O O9 0.500000 0.181838 0.727984
O O10 0.290469 0.000000 0.713571
O O11 0.500000 0.177453 0.048526
O O12 0.715093 0.000000 0.045182
O O13 0.742484 0.257517 0.000000
O O14 0.000000 0.802065 0.497526
#
# Coordination Sequence:
#
# PCOD9557275 Si02
#       5
#     8   8   8   8   4
#     4   9  19  36  55  75 103 140 179 218 263 316
#     4  10  21  38  60  83 107 140 181 220 262 314
#     4  10  21  36  55  81 111 141 175 218 266 314
#     4   9  19  35  53  75 104 137 175 219 265 316
#     4  11  24  39  56  82 114 145 178 217 262 312
#
# _framework density 17.833020999999999
#
# number of rings (size 3 to 8) (size 9 to 14) (size 15 to 20)
#    0.000    2.333    0.000    3.333    0.000    8.444 
#    0.000    6.667    0.000    0.000    0.000    0.000 
#    0.000    0.000    0.000    0.000    0.000    0.000 
#
# Total GULP energy -200969.314221 kJ/mol
# GULP energy per Si atom -5582.480951 kJ/mol
# Density = 1.779243 g / cm^3
# Si number density = 17.833021 Si / 1000 Ang^3
#
#
#
# Elastic Constant Matrix: (Units=GPa)
#
#
# Indices 1 2 3 4 5 6 
#
# 1 69.1943 57.8476 84.4408 0.0000 0.0000 0.0000
# 2 57.8476 69.1916 84.4391 0.0000 0.0000 0.0000
# 3 84.4408 84.4391 191.9573 0.0000 0.0000 0.0000
# 4 0.0000 0.0000 0.0000 56.5955 0.0000 0.0000
# 5 0.0000 0.0000 0.0000 0.0000 56.5946 0.0000
# 6 0.0000 0.0000 0.0000 0.0000 0.0000 31.8176
#
#
#
# Elastic Compliance Matrix: (Units=1/GPa)
#
#
# Indices 1 2 3 4 5 6 
#
# 1 0.053548 -0.034593 -0.008339 0.000000 0.000000 0.000000
# 2 -0.034593 0.053550 -0.008339 0.000000 0.000000 0.000000
# 3 -0.008339 -0.008339 0.012546 0.000000 0.000000 0.000000
# 4 0.000000 0.000000 0.000000 0.017669 0.000000 0.000000
# 5 0.000000 0.000000 0.000000 0.000000 0.017670 0.000000
# 6 0.000000 0.000000 0.000000 0.000000 0.000000 0.031429
#
#
# Mechanical properties :
#
#
# Convention : Reuss Voigt Hill
#
# Bulk Modulus (GPa) = 58.46661 87.08871 72.77766
# Shear Modulus (GPa) = 16.96907 35.90927 26.43917
#
# Velocity S-wave (km/s) = 3.08807 4.49223 3.85463
# Velocity P-wave (km/s) = 6.75068 8.70910 7.79167
#
# Compressibility (1/GPa) = 0.01710378
#
# Stress axis : x y z
#
# Youngs Moduli (GPa) = 18.67476 18.67407 79.70794
#
# Poissons Ratio (x) = 0.64598 0.66467
# Poissons Ratio (y) = 0.64601 0.66467
# Poissons Ratio (z) = 0.15572 0.15572
#
# Static dielectric constant tensor:
#      x y z
#    x 1.591980 0.000000 0.000000 
#    y 0.000000 1.591980 0.000000 
#    z 0.000000 0.000000 1.584930 
# 
# From -- ./inp_files/5128.got.cif
#   From: 2010.05.17/outbox.cif.g08.bks.cpg/sg115_3_cif.got.tgz:5128.got - 2010.05.20 11:07:42.
