data_PCOD9557028
_publ_section_title
;
Structure prediction by ZEFSAII (Michael W. Deem and Ramdas Pophale) SiO2 
 PCOD9557028
Probable space group: P -4 M 2
;
_chemical_formula_sum "Si O2"
_cell_formula_units_Z 32
_cell_length_a 11.156879
_cell_length_b 11.156879
_cell_length_c 12.680680
_cell_angle_alpha 90.000000
_cell_angle_beta 90.000000
_cell_angle_gamma 90.000000
_cell_volume 1578.439677
_symmetry_space_group_name_H-M "P -4 M 2"
_symmetry_group_IT_number 115
_symmetry_cell_setting 'tetragonal'
loop_
_space_group_symop_operation_xyz
x,y,z
y,-x,-z
-x,-y,z
-y,x,-z
y,x,-z
-y,-x,-z
-x,y,z
x,-y,z
loop_
_atom_site_type_symbol
_atom_site_label
_atom_site_fract_x
_atom_site_fract_y
_atom_site_fract_z
Si Si1 0.638665 0.370295 0.842888
Si Si2 0.867088 0.216828 0.108501
Si Si3 0.861335 0.870295 0.342888
Si Si4 0.716828 0.367088 0.391499
O O1 0.500000 0.370403 0.874641
O O2 0.692494 0.500000 0.873318
O O3 0.698103 0.249077 0.884810
O O4 0.641743 0.360216 0.715428
O O5 0.858257 0.139784 0.215428
O O6 0.000000 0.275228 0.111323
O O7 0.855123 0.144878 0.000000
O O8 0.801896 0.749077 0.384810
O O9 0.000000 0.870403 0.374640
O O10 0.807506 0.000000 0.373319
O O11 0.644878 0.355123 0.500000
O O12 0.775228 0.500000 0.388678
#
# Coordination Sequence:
#
# PCOD9557028 Si02
#       4
#     8   8   8   8
#     4   9  19  36  56  79 111 150 187 226 278 337
#     4  10  20  34  56  84 110 142 187 235 279 327
#     4   9  19  36  56  79 111 150 187 226 278 337
#     4  10  20  34  56  84 110 142 187 235 279 327
#
# _framework density 20.273187
#
# number of rings (size 3 to 8) (size 9 to 14) (size 15 to 20)
#    0.000    2.500    0.000    1.500    0.000    5.500 
#    0.000    7.500    0.000   24.000    0.000    0.000 
#    0.000    0.000    0.000    0.000    0.000    0.000 
#
# Total GULP energy -178256.163668 kJ/mol
# GULP energy per Si atom -5570.505115 kJ/mol
# Density = 2.022704 g / cm^3
# Si number density = 20.273187 Si / 1000 Ang^3
#
#
#
# Elastic Constant Matrix: (Units=GPa)
#
#
# Indices 1 2 3 4 5 6 
#
# 1 141.6073 80.1366 14.9698 0.0000 0.0000 0.0000
# 2 80.1366 141.6073 14.9698 0.0000 0.0000 0.0000
# 3 14.9698 14.9698 126.1085 0.0000 0.0000 0.0000
# 4 0.0000 0.0000 0.0000 3.9363 0.0000 0.0000
# 5 0.0000 0.0000 0.0000 0.0000 3.9363 0.0000
# 6 0.0000 0.0000 0.0000 0.0000 0.0000 20.2721
#
#
#
# Elastic Compliance Matrix: (Units=1/GPa)
#
#
# Indices 1 2 3 4 5 6 
#
# 1 0.010426 -0.005842 -0.000544 0.000000 0.000000 0.000000
# 2 -0.005842 0.010426 -0.000544 0.000000 0.000000 0.000000
# 3 -0.000544 -0.000544 0.008059 0.000000 0.000000 0.000000
# 4 0.000000 0.000000 0.000000 0.254046 0.000000 0.000000
# 5 0.000000 0.000000 0.000000 0.000000 0.254046 0.000000
# 6 0.000000 0.000000 0.000000 0.000000 0.000000 0.049329
#
#
# Mechanical properties :
#
#
# Convention : Reuss Voigt Hill
#
# Bulk Modulus (GPa) = 66.44972 69.94176 68.19574
# Shear Modulus (GPa) = 8.26162 25.57872 16.92017
#
# Velocity S-wave (km/s) = 2.02089 3.55590 2.89209
# Velocity P-wave (km/s) = 6.18818 7.17173 6.69804
#
# Compressibility (1/GPa) = 0.01504897
#
# Stress axis : x y z
#
# Youngs Moduli (GPa) = 95.91826 95.91826 124.08728
#
# Poissons Ratio (x) = 0.56039 0.06751
# Poissons Ratio (y) = 0.56039 0.06751
# Poissons Ratio (z) = 0.05218 0.05218
#
# Static dielectric constant tensor:
#      x y z
#    x 1.721360 0.000000 0.000000 
#    y 0.000000 1.721360 0.000000 
#    z 0.000000 0.000000 1.768870 
# 
# From -- ./inp_files/2528.got.cif
#   From: 2010.05.17/outbox.cif.g08.bks.cpg/sg115_2_cif.got.tgz:2528.got - 2010.05.20 11:07:42.
