data_PCOD9557550
_publ_section_title
;
Structure prediction by ZEFSAII (Michael W. Deem and Ramdas Pophale) SiO2 
 PCOD9557550
Probable space group: P -4 C 2
;
_chemical_formula_sum "Si O2"
_cell_formula_units_Z 44
_cell_length_a 16.115255
_cell_length_b 16.115255
_cell_length_c 9.637398
_cell_angle_alpha 90.000000
_cell_angle_beta 90.000000
_cell_angle_gamma 90.000000
_cell_volume 2502.846174
_symmetry_space_group_name_H-M "P -4 C 2"
_symmetry_group_IT_number 116
_symmetry_cell_setting 'tetragonal'
loop_
_space_group_symop_operation_xyz
x,y,z
y,-x,-z
-x,-y,z
-y,x,-z
y,x,1/2-z
-y,-x,1/2-z
-x,y,1/2+z
x,-y,1/2+z
loop_
_atom_site_type_symbol
_atom_site_label
_atom_site_fract_x
_atom_site_fract_y
_atom_site_fract_z
Si Si1 0.320261 0.606933 0.435382
Si Si2 0.187717 0.463920 0.151461
Si Si3 0.643478 0.893309 0.814935
Si Si4 0.435510 0.677576 0.652228
Si Si5 0.406912 0.967823 0.021020
Si Si6 0.251119 0.251119 0.750000
O O1 0.261078 0.558478 0.544273
O O2 0.396532 0.654390 0.504837
O O3 0.347530 0.531513 0.337809
O O4 0.266025 0.676468 0.361954
O O5 0.163799 0.560525 0.166313
O O6 0.226599 0.432657 0.297373
O O7 0.107179 0.419090 0.089085
O O8 0.632551 0.937306 0.664862
O O9 0.725732 0.837194 0.813939
O O10 0.639913 0.959565 0.938917
O O11 0.377927 0.622074 0.750000
O O12 0.500000 0.000000 0.054889
#
# Coordination Sequence:
#
# PCOD9557550 Si02
#       6
#     8   8   8   8   8   4
#     4  11  22  36  51  72 108 149 201 242 285 328
#     4  10  18  38  57  76 108 142 197 234 296 344
#     4  11  22  36  60  83 117 147 189 235 298 347
#     4  10  22  35  49  71 101 154 199 249 281 331
#     4  10  20  35  60  89 109 145 188 243 288 358
#     4  12  22  36  57  78 114 157 180 240 296 344
#
# _framework density 17.579986000000002
#
# number of rings (size 3 to 8) (size 9 to 14) (size 15 to 20)
#    0.000    1.455    3.636    2.727    2.545    4.727 
#    0.000    0.000    0.000    0.000    0.000    0.000 
#    0.000    2.182    0.000    0.000    0.000    0.000 
#
# Total GULP energy -245479.497828 kJ/mol
# GULP energy per Si atom -5579.079496 kJ/mol
# Density = 1.753997 g / cm^3
# Si number density = 17.579986 Si / 1000 Ang^3
#
#
#
# Elastic Constant Matrix: (Units=GPa)
#
#
# Indices 1 2 3 4 5 6 
#
# 1 74.2004 34.7166 25.1825 0.0000 0.0000 0.0000
# 2 34.7166 74.1988 25.1812 0.0000 0.0000 0.0000
# 3 25.1825 25.1812 60.5017 0.0000 0.0000 0.0000
# 4 0.0000 0.0000 0.0000 14.3724 0.0000 0.0000
# 5 0.0000 0.0000 0.0000 0.0000 14.3734 0.0000
# 6 0.0000 0.0000 0.0000 0.0000 0.0000 23.7836
#
#
#
# Elastic Compliance Matrix: (Units=1/GPa)
#
#
# Indices 1 2 3 4 5 6 
#
# 1 0.018348 -0.006979 -0.004732 0.000000 0.000000 0.000000
# 2 -0.006979 0.018349 -0.004732 0.000000 0.000000 0.000000
# 3 -0.004732 -0.004732 0.020468 0.000000 0.000000 0.000000
# 4 0.000000 0.000000 0.000000 0.069578 0.000000 0.000000
# 5 0.000000 0.000000 0.000000 0.000000 0.069573 0.000000
# 6 0.000000 0.000000 0.000000 0.000000 0.000000 0.042046
#
#
# Mechanical properties :
#
#
# Convention : Reuss Voigt Hill
#
# Bulk Modulus (GPa) = 41.18951 42.11794 41.65373
# Shear Modulus (GPa) = 17.89930 18.76059 18.32995
#
# Velocity S-wave (km/s) = 3.19433 3.27028 3.23253
# Velocity P-wave (km/s) = 6.08980 6.18624 6.13821
#
# Compressibility (1/GPa) = 0.02427803
#
# Stress axis : x y z
#
# Youngs Moduli (GPa) = 54.50066 54.50025 48.85747
#
# Poissons Ratio (x) = 0.38035 0.23122
# Poissons Ratio (y) = 0.38035 0.23119
# Poissons Ratio (z) = 0.25792 0.25789
#
# Static dielectric constant tensor:
#      x y z
#    x 1.605650 0.000000 0.000000 
#    y 0.000000 1.605650 0.000000 
#    z 0.000000 0.000000 1.726710 
# 
# From -- ./inp_files/1855.got.cif
#   From: 2010.05.17/outbox.cif.g08.bks.cpg/sg116_1_cif.got.tgz:1855.got - 2010.05.20 11:11:43.
