data_PCOD9557940
_publ_section_title
;
Structure prediction by ZEFSAII (Michael W. Deem and Ramdas Pophale) SiO2 
 PCOD9557940
Probable space group: P -4 C 2
;
_chemical_formula_sum "Si O2"
_cell_formula_units_Z 40
_cell_length_a 9.007788
_cell_length_b 9.007788
_cell_length_c 23.689990
_cell_angle_alpha 90.000000
_cell_angle_beta 90.000000
_cell_angle_gamma 90.000000
_cell_volume 1922.211584
_symmetry_space_group_name_H-M "P -4 C 2"
_symmetry_group_IT_number 116
_symmetry_cell_setting 'tetragonal'
loop_
_space_group_symop_operation_xyz
x,y,z
y,-x,-z
-x,-y,z
-y,x,-z
y,x,1/2-z
-y,-x,1/2-z
-x,y,1/2+z
x,-y,1/2+z
loop_
_atom_site_type_symbol
_atom_site_label
_atom_site_fract_x
_atom_site_fract_y
_atom_site_fract_z
Si Si1 0.780590 0.114289 0.914120
Si Si2 0.668501 0.973976 0.530170
Si Si3 0.796308 0.849111 0.632364
Si Si4 0.169668 0.719555 0.811135
Si Si5 0.648661 0.428034 0.313576
O O1 0.899282 0.214871 0.949476
O O2 0.728858 0.211805 0.861422
O O3 0.842418 0.969239 0.882046
O O4 0.676766 0.058142 0.964110
O O5 0.500000 0.000000 0.546546
O O6 0.720504 0.843121 0.570772
O O7 0.726585 0.708934 0.663008
O O8 0.753149 0.000481 0.667239
O O9 0.209208 0.790793 0.750000
O O10 0.216851 0.547551 0.812126
O O11 0.500000 0.500000 0.340738
O O12 0.605005 0.394996 0.250000
#
# Coordination Sequence:
#
# PCOD9557940 Si02
#       5
#     8   8   8   8   8
#     4  11  24  42  73 102 139 178 237 290 355 420
#     4  11  22  43  69 101 140 181 224 297 358 411
#     4  11  24  41  75  99 135 182 238 295 352 419
#     4  11  23  42  66 101 136 178 232 294 349 423
#     4  11  24  47  66  93 145 193 221 284 361 427
#
# _framework density 20.809366000000001
#
# number of rings (size 3 to 8) (size 9 to 14) (size 15 to 20)
#    0.000    1.000    4.000    5.400    2.800    2.400 
#    0.000    0.000    0.000    0.000    0.000    0.000 
#    0.000    0.000    0.000    0.000    0.000    0.000 
#
# Total GULP energy -222746.837114 kJ/mol
# GULP energy per Si atom -5568.670928 kJ/mol
# Density = 2.076200 g / cm^3
# Si number density = 20.809366 Si / 1000 Ang^3
#
#
#
# Elastic Constant Matrix: (Units=GPa)
#
#
# Indices 1 2 3 4 5 6 
#
# 1 88.5111 32.5556 16.3300 0.0000 0.0000 0.0000
# 2 32.5556 88.5114 16.3303 0.0000 0.0000 0.0000
# 3 16.3300 16.3303 118.2881 0.0000 0.0000 0.0000
# 4 0.0000 0.0000 0.0000 12.7716 0.0000 0.0000
# 5 0.0000 0.0000 0.0000 0.0000 12.7721 0.0000
# 6 0.0000 0.0000 0.0000 0.0000 0.0000 30.4765
#
#
#
# Elastic Compliance Matrix: (Units=1/GPa)
#
#
# Indices 1 2 3 4 5 6 
#
# 1 0.013225 -0.004646 -0.001184 0.000000 0.000000 0.000000
# 2 -0.004646 0.013225 -0.001184 0.000000 0.000000 0.000000
# 3 -0.001184 -0.001184 0.008781 0.000000 0.000000 0.000000
# 4 0.000000 0.000000 0.000000 0.078299 0.000000 0.000000
# 5 0.000000 0.000000 0.000000 0.000000 0.078295 0.000000
# 6 0.000000 0.000000 0.000000 0.000000 0.000000 0.032812
#
#
# Mechanical properties :
#
#
# Convention : Reuss Voigt Hill
#
# Bulk Modulus (GPa) = 47.16509 47.30469 47.23489
# Shear Modulus (GPa) = 20.34712 26.54370 23.44541
#
# Velocity S-wave (km/s) = 3.13035 3.57538 3.36024
# Velocity P-wave (km/s) = 5.98164 6.31080 6.14842
#
# Compressibility (1/GPa) = 0.02120212
#
# Stress axis : x y z
#
# Youngs Moduli (GPa) = 75.61220 75.61244 113.88265
#
# Poissons Ratio (x) = 0.35129 0.13488
# Poissons Ratio (y) = 0.35129 0.13489
# Poissons Ratio (z) = 0.08956 0.08956
#
# Static dielectric constant tensor:
#      x y z
#    x 1.883840 0.000000 0.000000 
#    y 0.000000 1.883850 0.000000 
#    z 0.000000 0.000000 1.762850 
# 
# From -- ./inp_files/4401.got.cif
#   From: 2010.05.17/outbox.cif.g08.bks.cpg/sg116_3_cif.got.tgz:4401.got - 2010.05.20 11:11:43.
