data_PCOD9557984
_publ_section_title
;
Structure prediction by ZEFSAII (Michael W. Deem and Ramdas Pophale) SiO2 
 PCOD9557984
Probable space group: P -4 C 2
;
_chemical_formula_sum "Si O2"
_cell_formula_units_Z 18
_cell_length_a 7.086398
_cell_length_b 7.086398
_cell_length_c 12.876876
_cell_angle_alpha 90.000000
_cell_angle_beta 90.000000
_cell_angle_gamma 90.000000
_cell_volume 646.638554
_symmetry_space_group_name_H-M "P -4 C 2"
_symmetry_group_IT_number 116
_symmetry_cell_setting 'tetragonal'
loop_
_space_group_symop_operation_xyz
x,y,z
y,-x,-z
-x,-y,z
-y,x,-z
y,x,1/2-z
-y,-x,1/2-z
-x,y,1/2+z
x,-y,1/2+z
loop_
_atom_site_type_symbol
_atom_site_label
_atom_site_fract_x
_atom_site_fract_y
_atom_site_fract_z
Si Si1 0.000000 0.000000 0.000000
Si Si2 0.456002 0.775413 0.666633
Si Si3 0.826798 0.642555 0.571607
O O1 0.091372 0.850300 0.075581
O O2 0.309475 0.690525 0.750000
O O3 0.372936 0.765923 0.549165
O O4 0.500000 0.000000 0.684514
O O5 0.653067 0.647852 0.853440
O O6 0.000000 0.500000 0.588180
#
# Coordination Sequence:
#
# PCOD9557984 Si02
#       3
#     2   8   8
#     4  12  20  52 102 120 172 238 292 364 446 544
#     4  11  26  54  94 133 177 234 309 372 446 538
#     4  11  24  52  98 127 180 234 297 370 455 531
#
# _framework density 27.836265000000001
#
# number of rings (size 3 to 8) (size 9 to 14) (size 15 to 20)
#    0.000    0.889    8.889    0.000    0.000    2.667 
#    0.000    7.778   19.556    2.667    0.000    0.000 
#    0.000    0.000    0.000    0.000    0.000    0.000 
#
# Total GULP energy -100955.261715 kJ/mol
# GULP energy per Si atom -5608.625651 kJ/mol
# Density = 2.777291 g / cm^3
# Si number density = 27.836265 Si / 1000 Ang^3
#
#
#
# Elastic Constant Matrix: (Units=GPa)
#
#
# Indices 1 2 3 4 5 6 
#
# 1 182.0235 87.0267 92.3912 0.0000 0.0000 0.0000
# 2 87.0267 182.0215 92.3908 0.0000 0.0000 0.0000
# 3 92.3912 92.3908 268.5543 0.0000 0.0000 0.0000
# 4 0.0000 0.0000 0.0000 6.4977 0.0000 0.0000
# 5 0.0000 0.0000 0.0000 0.0000 6.4981 0.0000
# 6 0.0000 0.0000 0.0000 0.0000 0.0000 67.9978
#
#
#
# Elastic Compliance Matrix: (Units=1/GPa)
#
#
# Indices 1 2 3 4 5 6 
#
# 1 0.007697 -0.002830 -0.001674 0.000000 0.000000 0.000000
# 2 -0.002830 0.007697 -0.001674 0.000000 0.000000 0.000000
# 3 -0.001674 -0.001674 0.004876 0.000000 0.000000 0.000000
# 4 0.000000 0.000000 0.000000 0.153902 0.000000 0.000000
# 5 0.000000 0.000000 0.000000 0.000000 0.153892 0.000000
# 6 0.000000 0.000000 0.000000 0.000000 0.000000 0.014706
#
#
# Mechanical properties :
#
#
# Convention : Reuss Voigt Hill
#
# Bulk Modulus (GPa) = 126.39234 130.69072 128.54153
# Shear Modulus (GPa) = 13.97572 40.25141 27.11357
#
# Velocity S-wave (km/s) = 2.24312 3.80676 3.12434
# Velocity P-wave (km/s) = 7.22586 8.14700 7.70022
#
# Compressibility (1/GPa) = 0.00791187
#
# Stress axis : x y z
#
# Youngs Moduli (GPa) = 129.92595 129.92446 205.10055
#
# Poissons Ratio (x) = 0.36769 0.34340
# Poissons Ratio (y) = 0.36770 0.34340
# Poissons Ratio (z) = 0.21753 0.21753
#
# Static dielectric constant tensor:
#      x y z
#    x 2.297010 0.000000 0.000000 
#    y 0.000000 2.297020 0.000000 
#    z 0.000000 0.000000 2.165410 
# 
# From -- ./inp_files/1194.got.cif
#   From: 2010.05.17/outbox.cif.g08.bks.cpg/sg116_1_cif.got.tgz:1194.got - 2010.05.20 11:11:43.
