data_PCOD9557438
_publ_section_title
;
Structure prediction by ZEFSAII (Michael W. Deem and Ramdas Pophale) SiO2 
 PCOD9557438
Probable space group: P -4 M 2
;
_chemical_formula_sum "Si O2"
_cell_formula_units_Z 40
_cell_length_a 13.783308
_cell_length_b 13.783308
_cell_length_c 10.578278
_cell_angle_alpha 90.000000
_cell_angle_beta 90.000000
_cell_angle_gamma 90.000000
_cell_volume 2009.656805
_symmetry_space_group_name_H-M "P -4 M 2"
_symmetry_group_IT_number 115
_symmetry_cell_setting 'tetragonal'
loop_
_space_group_symop_operation_xyz
x,y,z
y,-x,-z
-x,-y,z
-y,x,-z
y,x,-z
-y,-x,-z
-x,y,z
x,-y,z
loop_
_atom_site_type_symbol
_atom_site_label
_atom_site_fract_x
_atom_site_fract_y
_atom_site_fract_z
Si Si1 0.883032 0.691031 0.243879
Si Si2 0.615692 0.226749 0.002315
Si Si3 0.615650 0.223700 0.507029
Si Si4 0.882842 0.110054 0.357619
Si Si5 0.617236 0.889320 0.253560
O O1 0.837733 0.648290 0.116882
O O2 0.835178 0.639134 0.365228
O O3 0.858101 0.805415 0.260240
O O4 0.000000 0.680096 0.246099
O O5 0.500000 0.238815 0.999816
O O6 0.671896 0.328105 0.000000
O O7 0.644708 0.172318 0.131374
O O8 0.678049 0.321952 0.500000
O O9 0.500000 0.241764 0.500329
O O10 0.645945 0.159360 0.385551
O O11 0.857051 0.142950 0.500000
O O12 0.000000 0.105682 0.360001
O O13 0.849404 0.000000 0.334076
O O14 0.500000 0.890749 0.254709
O O15 0.649546 0.000000 0.243261
#
# Coordination Sequence:
#
# PCOD9557438 Si02
#       5
#     8   8   8   8   8
#     4  11  22  37  63  96 125 154 195 254 314 359
#     4  11  24  42  62  86 118 155 199 247 299 362
#     4  11  23  39  60  88 121 157 203 252 299 357
#     4   8  15  30  53  83 122 165 202 236 283 351
#     4   9  19  38  62  84 111 151 192 233 289 355
#
# _framework density 19.903896
#
# number of rings (size 3 to 8) (size 9 to 14) (size 15 to 20)
#    0.000    2.000    0.000    4.200    0.000    3.600 
#    0.000    7.000    0.000    6.000    0.000    0.000 
#    0.000    8.000    0.000    0.000    0.000    0.000 
#
# Total GULP energy -223593.754569 kJ/mol
# GULP energy per Si atom -5589.843864 kJ/mol
# Density = 1.985859 g / cm^3
# Si number density = 19.903896 Si / 1000 Ang^3
#
#
#
# Elastic Constant Matrix: (Units=GPa)
#
#
# Indices 1 2 3 4 5 6 
#
# 1 140.5195 50.4268 52.7399 0.0000 0.0000 0.0000
# 2 50.4268 140.5172 52.7385 0.0000 0.0000 0.0000
# 3 52.7399 52.7385 138.3342 0.0000 0.0000 0.0000
# 4 0.0000 0.0000 0.0000 32.2546 0.0000 0.0000
# 5 0.0000 0.0000 0.0000 0.0000 32.2560 0.0000
# 6 0.0000 0.0000 0.0000 0.0000 0.0000 32.5362
#
#
#
# Elastic Compliance Matrix: (Units=1/GPa)
#
#
# Indices 1 2 3 4 5 6 
#
# 1 0.008867 -0.002233 -0.002529 0.000000 0.000000 0.000000
# 2 -0.002233 0.008867 -0.002529 0.000000 0.000000 0.000000
# 3 -0.002529 -0.002529 0.009157 0.000000 0.000000 0.000000
# 4 0.000000 0.000000 0.000000 0.031003 0.000000 0.000000
# 5 0.000000 0.000000 0.000000 0.000000 0.031002 0.000000
# 6 0.000000 0.000000 0.000000 0.000000 0.000000 0.030735
#
#
# Mechanical properties :
#
#
# Convention : Reuss Voigt Hill
#
# Bulk Modulus (GPa) = 81.24237 81.24239 81.24238
# Shear Modulus (GPa) = 36.14872 36.97374 36.56123
#
# Velocity S-wave (km/s) = 4.26627 4.31468 4.29054
# Velocity P-wave (km/s) = 8.07304 8.10727 8.09018
#
# Compressibility (1/GPa) = 0.01230885
#
# Stress axis : x y z
#
# Youngs Moduli (GPa) = 112.77756 112.77639 109.20094
#
# Poissons Ratio (x) = 0.25180 0.27621
# Poissons Ratio (y) = 0.25181 0.27620
# Poissons Ratio (z) = 0.28525 0.28524
#
# Static dielectric constant tensor:
#      x y z
#    x 1.710220 0.000000 0.000000 
#    y 0.000000 1.710220 0.000000 
#    z 0.000000 0.000000 1.684630 
# 
# From -- ./inp_files/1630.got.cif
#   From: 2010.05.17/outbox.cif.g08.bks.cpg/sg115_1_cif.got.tgz:1630.got - 2010.05.20 11:07:42.
