data_PCOD9557883
_publ_section_title
;
Structure prediction by ZEFSAII (Michael W. Deem and Ramdas Pophale) SiO2 
 PCOD9557883
Probable space group: P -4 C 2
;
_chemical_formula_sum "Si O2"
_cell_formula_units_Z 18
_cell_length_a 8.692431
_cell_length_b 8.692431
_cell_length_c 9.118974
_cell_angle_alpha 90.000000
_cell_angle_beta 90.000000
_cell_angle_gamma 90.000000
_cell_volume 689.014690
_symmetry_space_group_name_H-M "P -4 C 2"
_symmetry_group_IT_number 116
_symmetry_cell_setting 'tetragonal'
loop_
_space_group_symop_operation_xyz
x,y,z
y,-x,-z
-x,-y,z
-y,x,-z
y,x,1/2-z
-y,-x,1/2-z
-x,y,1/2+z
x,-y,1/2+z
loop_
_atom_site_type_symbol
_atom_site_label
_atom_site_fract_x
_atom_site_fract_y
_atom_site_fract_z
Si Si1 0.500000 0.500000 0.500000
Si Si2 0.500000 0.000000 0.500000
Si Si3 0.297278 0.945815 0.750000
Si Si4 0.684792 0.684792 0.750000
O O1 0.604249 0.604248 0.610270
O O2 0.387379 0.900763 0.603157
O O3 0.612621 0.900763 0.396843
O O4 0.130690 0.869311 0.750000
O O5 0.321326 0.128942 0.750000
#
# Coordination Sequence:
#
# PCOD9557883 Si02
#       4
#     2   4   8   4
#     4  10  24  46  84 118 180 202 272 330 444 474
#     4  10  26  50  74 116 162 208 264 344 422 478
#     4  11  25  48  81 112 163 212 279 343 400 499
#     4  11  23  46  76 126 149 225 262 346 402 509
#
# _framework density 26.124262000000002
#
# number of rings (size 3 to 8) (size 9 to 14) (size 15 to 20)
#    0.000    1.333    0.000    3.333    6.222    0.000 
#   32.000    0.000    0.000    4.000    0.000    0.000 
#    0.000    0.000    0.000    0.000    0.000    0.000 
#
# Total GULP energy -100626.175058 kJ/mol
# GULP energy per Si atom -5590.343059 kJ/mol
# Density = 2.606480 g / cm^3
# Si number density = 26.124262 Si / 1000 Ang^3
#
#
#
# Elastic Constant Matrix: (Units=GPa)
#
#
# Indices 1 2 3 4 5 6 
#
# 1 202.0843 114.2278 85.2551 0.0000 0.0000 0.0000
# 2 114.2278 202.0801 85.2539 0.0000 0.0000 0.0000
# 3 85.2551 85.2539 223.3297 0.0000 0.0000 0.0000
# 4 0.0000 0.0000 0.0000 27.4622 0.0000 0.0000
# 5 0.0000 0.0000 0.0000 0.0000 27.4640 0.0000
# 6 0.0000 0.0000 0.0000 0.0000 0.0000 67.0598
#
#
#
# Elastic Compliance Matrix: (Units=1/GPa)
#
#
# Indices 1 2 3 4 5 6 
#
# 1 0.007681 -0.003701 -0.001520 0.000000 0.000000 0.000000
# 2 -0.003701 0.007682 -0.001520 0.000000 0.000000 0.000000
# 3 -0.001520 -0.001520 0.005638 0.000000 0.000000 0.000000
# 4 0.000000 0.000000 0.000000 0.036414 0.000000 0.000000
# 5 0.000000 0.000000 0.000000 0.000000 0.036411 0.000000
# 6 0.000000 0.000000 0.000000 0.000000 0.000000 0.014912
#
#
# Mechanical properties :
#
#
# Convention : Reuss Voigt Hill
#
# Bulk Modulus (GPa) = 132.96498 132.99642 132.98070
# Shear Modulus (GPa) = 40.08819 47.24769 43.66794
#
# Velocity S-wave (km/s) = 3.92154 4.25735 4.09289
# Velocity P-wave (km/s) = 8.45649 8.67101 8.56442
#
# Compressibility (1/GPa) = 0.00752078
#
# Stress axis : x y z
#
# Youngs Moduli (GPa) = 130.18367 130.18121 177.37265
#
# Poissons Ratio (x) = 0.48179 0.26953
# Poissons Ratio (y) = 0.48180 0.26953
# Poissons Ratio (z) = 0.19782 0.19782
#
# Static dielectric constant tensor:
#      x y z
#    x 2.132060 0.000000 0.000000 
#    y 0.000000 2.132070 0.000000 
#    z 0.000000 0.000000 2.151330 
# 
# From -- ./inp_files/1249.got.cif
#   From: 2010.05.17/outbox.cif.g08.bks.cpg/sg116_1_cif.got.tgz:1249.got - 2010.05.20 11:11:43.
