data_PCOD9557801
_publ_section_title
;
Structure prediction by ZEFSAII (Michael W. Deem and Ramdas Pophale) SiO2 
 PCOD9557801
Probable space group: P -4 C 2
;
_chemical_formula_sum "Si O2"
_cell_formula_units_Z 40
_cell_length_a 13.526570
_cell_length_b 13.526570
_cell_length_c 9.160483
_cell_angle_alpha 90.000000
_cell_angle_beta 90.000000
_cell_angle_gamma 90.000000
_cell_volume 1676.076133
_symmetry_space_group_name_H-M "P -4 C 2"
_symmetry_group_IT_number 116
_symmetry_cell_setting 'tetragonal'
loop_
_space_group_symop_operation_xyz
x,y,z
y,-x,-z
-x,-y,z
-y,x,-z
y,x,1/2-z
-y,-x,1/2-z
-x,y,1/2+z
x,-y,1/2+z
loop_
_atom_site_type_symbol
_atom_site_label
_atom_site_fract_x
_atom_site_fract_y
_atom_site_fract_z
Si Si1 0.379743 0.379743 0.250000
Si Si2 0.000000 0.500000 0.665342
Si Si3 0.600573 0.600573 0.750000
Si Si4 0.290359 0.704453 0.007798
Si Si5 0.840728 0.977614 0.974162
Si Si6 0.184879 0.184879 0.750000
Si Si7 0.079619 0.637790 0.917118
O O1 0.491339 0.378750 0.188843
O O2 0.368377 0.298279 0.376896
O O3 0.055038 0.576334 0.772910
O O4 0.065434 0.434446 0.555769
O O5 0.620407 0.675790 0.880194
O O6 0.263208 0.792615 0.119827
O O7 0.190604 0.676633 0.924790
O O8 0.811731 0.921823 0.825213
O O9 0.737234 0.984320 0.058183
O O10 0.920616 0.900737 0.044634
#
# Coordination Sequence:
#
# PCOD9557801 Si02
#       7
#     4   4   4   8   8   4   8
#     4  11  22  40  64 106 138 195 244 300 370 443
#     4  10  24  50  72  98 146 184 248 308 352 428
#     4  10  22  41  64  97 154 182 240 314 368 424
#     4  10  22  41  67  98 136 191 239 293 362 442
#     4  10  23  44  73 110 149 187 233 302 386 457
#     4   9  22  46  62 104 144 181 230 302 358 443
#     4  10  24  47  71 108 136 198 238 307 360 443
#
# _framework density 23.865262999999999
#
# number of rings (size 3 to 8) (size 9 to 14) (size 15 to 20)
#    0.000    2.000    0.000    1.200    8.400    3.200 
#   10.800    0.000    0.000    0.000    0.000    0.000 
#    0.000    0.000    0.000    0.000    0.000    0.000 
#
# Total GULP energy -223276.894661 kJ/mol
# GULP energy per Si atom -5581.922367 kJ/mol
# Density = 2.381094 g / cm^3
# Si number density = 23.865263 Si / 1000 Ang^3
#
#
#
# Elastic Constant Matrix: (Units=GPa)
#
#
# Indices 1 2 3 4 5 6 
#
# 1 97.1568 35.6236 33.2281 0.0000 0.0000 0.0000
# 2 35.6236 97.1568 33.2281 0.0000 0.0000 0.0000
# 3 33.2281 33.2281 121.2810 0.0000 0.0000 0.0000
# 4 0.0000 0.0000 0.0000 34.8603 0.0000 0.0000
# 5 0.0000 0.0000 0.0000 0.0000 34.8603 0.0000
# 6 0.0000 0.0000 0.0000 0.0000 0.0000 31.1628
#
#
#
# Elastic Compliance Matrix: (Units=1/GPa)
#
#
# Indices 1 2 3 4 5 6 
#
# 1 0.012490 -0.003762 -0.002391 0.000000 0.000000 0.000000
# 2 -0.003762 0.012490 -0.002391 0.000000 0.000000 0.000000
# 3 -0.002391 -0.002391 0.009556 0.000000 0.000000 0.000000
# 4 0.000000 0.000000 0.000000 0.028686 0.000000 0.000000
# 5 0.000000 0.000000 0.000000 0.000000 0.028686 0.000000
# 6 0.000000 0.000000 0.000000 0.000000 0.000000 0.032090
#
#
# Mechanical properties :
#
#
# Convention : Reuss Voigt Hill
#
# Bulk Modulus (GPa) = 57.31767 57.75045 57.53406
# Shear Modulus (GPa) = 34.03666 34.41101 34.22384
#
# Velocity S-wave (km/s) = 3.78060 3.80134 3.79099
# Velocity P-wave (km/s) = 6.56709 6.59681 6.58197
#
# Compressibility (1/GPa) = 0.01744663
#
# Stress axis : x y z
#
# Youngs Moduli (GPa) = 80.06583 80.06583 104.65044
#
# Poissons Ratio (x) = 0.30118 0.25025
# Poissons Ratio (y) = 0.30118 0.25025
# Poissons Ratio (z) = 0.19146 0.19146
#
# Static dielectric constant tensor:
#      x y z
#    x 1.943400 0.000000 0.000000 
#    y 0.000000 1.943400 0.000000 
#    z 0.000000 0.000000 1.925210 
# 
# From -- ./inp_files/868.got.cif
#   From: 2010.05.17/outbox.cif.g08.bks.cpg/sg116_1_cif.got.tgz:868.got - 2010.05.20 11:11:43.
