data_PCOD9557087
_publ_section_title
;
Structure prediction by ZEFSAII (Michael W. Deem and Ramdas Pophale) SiO2 
 PCOD9557087
Probable space group: P -4 M 2
;
_chemical_formula_sum "Si O2"
_cell_formula_units_Z 56
_cell_length_a 14.924367
_cell_length_b 14.924367
_cell_length_c 12.902296
_cell_angle_alpha 90.000000
_cell_angle_beta 90.000000
_cell_angle_gamma 90.000000
_cell_volume 2873.815225
_symmetry_space_group_name_H-M "P -4 M 2"
_symmetry_group_IT_number 115
_symmetry_cell_setting 'tetragonal'
loop_
_space_group_symop_operation_xyz
x,y,z
y,-x,-z
-x,-y,z
-y,x,-z
y,x,-z
-y,-x,-z
-x,y,z
x,-y,z
loop_
_atom_site_type_symbol
_atom_site_label
_atom_site_fract_x
_atom_site_fract_y
_atom_site_fract_z
Si Si1 0.280426 0.171109 0.798437
Si Si2 0.904157 0.245881 0.997533
Si Si3 0.893842 0.605925 0.395676
Si Si4 0.792217 0.607444 0.608307
Si Si5 0.277327 0.894960 0.225483
Si Si6 0.596732 0.397235 0.663109
Si Si7 0.602079 0.669110 0.888794
O O1 0.288779 0.099112 0.890012
O O2 0.334925 0.141552 0.698584
O O3 0.177039 0.195380 0.770952
O O4 0.327145 0.256837 0.852292
O O5 0.000000 0.200397 0.981802
O O6 0.825541 0.174460 0.000000
O O7 0.891404 0.306607 0.895874
O O8 0.882154 0.500000 0.372902
O O9 0.837681 0.627316 0.498719
O O10 0.000000 0.621252 0.412969
O O11 0.790135 0.500000 0.621497
O O12 0.853455 0.650511 0.697333
O O13 0.689608 0.641382 0.620388
O O14 0.258231 0.000000 0.249271
O O15 0.500000 0.354063 0.634675
O O16 0.593229 0.500000 0.627663
O O17 0.602034 0.395730 0.788432
O O18 0.500000 0.704314 0.896750
O O19 0.628285 0.628285 0.000000
#
# Coordination Sequence:
#
# PCOD9557087 Si02
#       7
#     8   8   8   8   8   8   8
#     4  11  21  37  58  84 118 157 199 246 307 368
#     4   9  19  35  56  82 112 144 180 228 288 355
#     4  10  22  40  62  87 116 157 211 263 310 369
#     4  10  20  37  60  84 114 154 200 252 307 360
#     4  10  20  36  57  85 118 150 192 245 304 368
#     4   9  18  33  54  82 115 152 196 245 298 357
#     4  11  21  34  54  82 117 163 210 252 299 364
#
# _framework density 19.486291000000001
#
# number of rings (size 3 to 8) (size 9 to 14) (size 15 to 20)
#    0.000    2.000    1.429    3.000    0.000    2.286 
#    0.000    0.714    0.000    4.714    0.000    6.000 
#    0.000   11.429    0.000    0.000    0.000    0.000 
#
# Total GULP energy -312174.296428 kJ/mol
# GULP energy per Si atom -5574.541008 kJ/mol
# Density = 1.944194 g / cm^3
# Si number density = 19.486291 Si / 1000 Ang^3
#
#
#
# Elastic Constant Matrix: (Units=GPa)
#
#
# Indices 1 2 3 4 5 6 
#
# 1 106.2404 42.9295 60.8458 0.0000 0.0000 0.0000
# 2 42.9295 106.2402 60.8456 0.0000 0.0000 0.0000
# 3 60.8458 60.8456 163.2768 0.0000 0.0000 0.0000
# 4 0.0000 0.0000 0.0000 23.6087 0.0000 0.0000
# 5 0.0000 0.0000 0.0000 0.0000 23.6086 0.0000
# 6 0.0000 0.0000 0.0000 0.0000 0.0000 -90.8904
#
#
#
# Elastic Compliance Matrix: (Units=1/GPa)
#
#
# Indices 1 2 3 4 5 6 
#
# 1 0.012714 -0.003082 -0.003589 0.000000 0.000000 0.000000
# 2 -0.003082 0.012714 -0.003589 0.000000 0.000000 0.000000
# 3 -0.003589 -0.003589 0.008800 0.000000 0.000000 0.000000
# 4 0.000000 0.000000 0.000000 0.042357 0.000000 0.000000
# 5 0.000000 0.000000 0.000000 0.000000 0.042357 0.000000
# 6 0.000000 0.000000 0.000000 0.000000 0.000000 -0.011002
#
#
# Mechanical properties :
#
#
# Convention : Reuss Voigt Hill
#
# Bulk Modulus (GPa) = 72.95997 78.33323 75.64660
# Shear Modulus (GPa) = 37.58587 5.34115 21.46351
#
# Velocity S-wave (km/s) = 4.39662 1.65739 3.32244
# Velocity P-wave (km/s) = 7.95592 6.62940 7.32276
#
# Compressibility (1/GPa) = 0.01370615
#
# Stress axis : x y z
#
# Youngs Moduli (GPa) = 78.65641 78.65632 113.63941
#
# Poissons Ratio (x) = 0.24238 0.40790
# Poissons Ratio (y) = 0.24238 0.40790
# Poissons Ratio (z) = 0.28233 0.28233
#
# Static dielectric constant tensor:
#      x y z
#    x 1.709680 0.000000 0.000000 
#    y 0.000000 1.709680 0.000000 
#    z 0.000000 0.000000 1.714320 
# 
# From -- ./inp_files/3101.got.cif
#   From: 2010.05.17/outbox.cif.g08.bks.cpg/sg115_2_cif.got.tgz:3101.got - 2010.05.20 11:07:42.
