data_PCOD9557229
_publ_section_title
;
Structure prediction by ZEFSAII (Michael W. Deem and Ramdas Pophale) SiO2 
 PCOD9557229
Probable space group: P -4 M 2
;
_chemical_formula_sum "Si O2"
_cell_formula_units_Z 48
_cell_length_a 9.383164
_cell_length_b 9.383164
_cell_length_c 32.027285
_cell_angle_alpha 90.000000
_cell_angle_beta 90.000000
_cell_angle_gamma 90.000000
_cell_volume 2819.802807
_symmetry_space_group_name_H-M "P -4 M 2"
_symmetry_group_IT_number 115
_symmetry_cell_setting 'tetragonal'
loop_
_space_group_symop_operation_xyz
x,y,z
y,-x,-z
-x,-y,z
-y,x,-z
y,x,-z
-y,-x,-z
-x,y,z
x,-y,z
loop_
_atom_site_type_symbol
_atom_site_label
_atom_site_fract_x
_atom_site_fract_y
_atom_site_fract_z
Si Si1 0.830809 0.669319 0.705682
Si Si2 0.170171 0.832487 0.378470
Si Si3 0.669080 0.829915 0.536954
Si Si4 0.335260 0.673823 0.046157
Si Si5 0.326131 0.163789 0.872420
Si Si6 0.329744 0.331266 0.789574
O O1 0.807346 0.500000 0.700210
O O2 0.787008 0.750813 0.663742
O O3 0.747958 0.715053 0.747230
O O4 0.000000 0.692456 0.711476
O O5 0.209678 0.740508 0.418841
O O6 0.000000 0.820761 0.372531
O O7 0.203273 0.000000 0.386011
O O8 0.744128 0.744128 0.500000
O O9 0.500000 0.804758 0.537701
O O10 0.692759 0.000000 0.530898
O O11 0.500000 0.717518 0.051652
O O12 0.334807 0.500000 0.045508
O O13 0.242010 0.721223 0.085284
O O14 0.283017 0.716984 0.000000
O O15 0.500000 0.166971 0.872861
O O16 0.282186 0.246551 0.830627
O O17 0.281274 0.000000 0.871500
O O18 0.500000 0.312841 0.784866
O O19 0.302731 0.500000 0.795633
#
# Coordination Sequence:
#
# PCOD9557229 Si02
#       6
#     8   8   8   8   8   8
#     4   9  18  32  49  69  93 121 154 192 232 274
#     4   9  18  33  52  72  95 126 162 197 235 281
#     4  10  21  36  54  77 104 134 168 205 245 289
#     4   8  13  22  38  59  81 108 144 182 218 260
#     4   9  16  25  39  62  90 116 144 182 225 265
#     4   9  17  29  45  65  90 120 151 183 224 273
#
# _framework density 17.022466999999999
#
# number of rings (size 3 to 8) (size 9 to 14) (size 15 to 20)
#    0.000    3.000    0.000    1.500    0.000    5.000 
#    0.000    1.667    0.000    1.000    0.000    4.667 
#    0.000    0.000    0.000    0.000    0.000    0.000 
#
# Total GULP energy -267500.949397 kJ/mol
# GULP energy per Si atom -5572.936446 kJ/mol
# Density = 1.698372 g / cm^3
# Si number density = 17.022467 Si / 1000 Ang^3
#
#
#
# Elastic Constant Matrix: (Units=GPa)
#
#
# Indices 1 2 3 4 5 6 
#
# 1 46.4823 38.5116 80.2953 0.0000 0.0000 0.0000
# 2 38.5116 46.4821 80.2952 0.0000 0.0000 0.0000
# 3 80.2953 80.2952 222.6630 0.0000 0.0000 0.0000
# 4 0.0000 0.0000 0.0000 -244.3931 0.0000 0.0000
# 5 0.0000 0.0000 0.0000 0.0000 -244.4369 0.0000
# 6 0.0000 0.0000 0.0000 0.0000 0.0000 13.6867
#
#
#
# Elastic Compliance Matrix: (Units=1/GPa)
#
#
# Indices 1 2 3 4 5 6 
#
# 1 0.081193 -0.044269 -0.013315 0.000000 0.000000 0.000000
# 2 -0.044269 0.081193 -0.013315 0.000000 0.000000 0.000000
# 3 -0.013315 -0.013315 0.014094 0.000000 0.000000 0.000000
# 4 0.000000 0.000000 0.000000 -0.004092 0.000000 0.000000
# 5 0.000000 0.000000 0.000000 0.000000 -0.004091 0.000000
# 6 0.000000 0.000000 0.000000 0.000000 0.000000 0.073064
#
#
# Mechanical properties :
#
#
# Convention : Reuss Voigt Hill
#
# Bulk Modulus (GPa) = 28.83414 79.31461 54.07437
# Shear Modulus (GPa) = 12.66719 -87.26031 -37.29656
#
# Velocity S-wave (km/s) = 2.73086 -7.16751 -4.68591
# Velocity P-wave (km/s) = 5.18836 4.66929 1.59951
#
# Compressibility (1/GPa) = 0.03468112
#
# Stress axis : x y z
#
# Youngs Moduli (GPa) = 12.31639 12.31631 70.95035
#
# Poissons Ratio (x) = 0.54523 0.94471
# Poissons Ratio (y) = 0.54524 0.94472
# Poissons Ratio (z) = 0.16399 0.16400
#
# Static dielectric constant tensor:
#      x y z
#    x 1.566870 0.000000 0.000000 
#    y 0.000000 1.566870 0.000000 
#    z 0.000000 0.000000 1.562090 
# 
# From -- ./inp_files/6096.got.cif
#   From: 2010.05.17/outbox.cif.g08.bks.cpg/sg115_4_cif.got.tgz:6096.got - 2010.05.20 11:07:42.
