data_PCOD9557479
_publ_section_title
;
Structure prediction by ZEFSAII (Michael W. Deem and Ramdas Pophale) SiO2 
 PCOD9557479
Probable space group: P -4 M 2
;
_chemical_formula_sum "Si O2"
_cell_formula_units_Z 56
_cell_length_a 15.000000
_cell_length_b 15.000000
_cell_length_c 15.000000
_cell_angle_alpha 90.000000
_cell_angle_beta 90.000000
_cell_angle_gamma 90.000000
_cell_volume 3375.000000
_symmetry_space_group_name_H-M "P -4 M 2"
_symmetry_group_IT_number 115
_symmetry_cell_setting 'tetragonal'
loop_
_space_group_symop_operation_xyz
x,y,z
y,-x,-z
-x,-y,z
-y,x,-z
y,x,-z
-y,-x,-z
-x,y,z
x,-y,z
loop_
_atom_site_type_symbol
_atom_site_label
_atom_site_fract_x
_atom_site_fract_y
_atom_site_fract_z
Si Si1 0.103661 0.601297 0.003642
Si Si2 0.107079 0.603415 0.498215
Si Si3 0.895084 0.243519 0.638219
Si Si4 0.394996 0.606050 0.107573
Si Si5 0.108730 0.266782 0.332275
Si Si6 0.214665 0.292353 0.148934
Si Si7 0.729796 0.901063 0.153423
O O1 0.134302 0.500000 0.004791
O O2 0.106099 0.640101 0.903952
O O3 0.000000 0.605549 0.032362
O O4 0.163540 0.657059 0.070644
O O5 0.140586 0.500000 0.502380
O O6 0.134865 0.675033 0.574318
O O7 0.123783 0.655399 0.405383
O O8 0.000000 0.597152 0.507439
O O9 0.824794 0.160523 0.636911
O O10 0.895377 0.278831 0.740078
O O11 0.000000 0.219925 0.616906
O O12 0.500000 0.628431 0.128565
O O13 0.382745 0.500000 0.128412
O O14 0.315669 0.665887 0.151274
O O15 0.385025 0.614976 0.000000
O O16 0.158071 0.296954 0.240870
O O17 0.000000 0.254270 0.322824
O O18 0.216928 0.187073 0.126806
O O19 0.768267 0.000000 0.133408
#
# Coordination Sequence:
#
# PCOD9557479 Si02
#       7
#     8   8   8   8   8   8   8
#     4  10  20  32  48  73 103 133 168 212 261 313
#     4   9  18  33  53  76 103 133 163 201 250 303
#     4   9  18  34  56  79 102 131 170 215 264 315
#     4   9  18  32  50  73 100 131 172 223 274 319
#     4  10  21  35  51  76 108 139 174 213 254 305
#     4  11  20  32  51  72 100 141 178 211 254 311
#     4   9  19  33  48  70  99 131 169 214 260 303
#
# _framework density 16.592593000000001
#
# number of rings (size 3 to 8) (size 9 to 14) (size 15 to 20)
#    0.000    2.429    0.000    3.000    0.000    3.714 
#    0.000    6.429    0.000    3.857    0.000   10.000 
#    0.000    1.143    0.000    0.286    0.000    0.143 
#
# Total GULP energy -311755.652002 kJ/mol
# GULP energy per Si atom -5567.065214 kJ/mol
# Density = 1.655483 g / cm^3
# Si number density = 16.592593 Si / 1000 Ang^3
#
#
#
# Elastic Constant Matrix: (Units=GPa)
#
#
# Indices 1 2 3 4 5 6 
#
# 1 112.8365 57.1242 45.9754 0.0000 0.0000 0.0000
# 2 57.1242 112.8365 45.9754 0.0000 0.0000 0.0000
# 3 45.9754 45.9754 61.1345 0.0000 0.0000 0.0000
# 4 0.0000 0.0000 0.0000 24.7829 0.0000 0.0000
# 5 0.0000 0.0000 0.0000 0.0000 24.7829 0.0000
# 6 0.0000 0.0000 0.0000 0.0000 0.0000 27.4233
#
#
#
# Elastic Compliance Matrix: (Units=1/GPa)
#
#
# Indices 1 2 3 4 5 6 
#
# 1 0.013934 -0.004015 -0.007460 0.000000 0.000000 0.000000
# 2 -0.004015 0.013934 -0.007460 0.000000 0.000000 0.000000
# 3 -0.007460 -0.007460 0.027578 0.000000 0.000000 0.000000
# 4 0.000000 0.000000 0.000000 0.040350 0.000000 0.000000
# 5 0.000000 0.000000 0.000000 0.000000 0.040350 0.000000
# 6 0.000000 0.000000 0.000000 0.000000 0.000000 0.036465
#
#
# Mechanical properties :
#
#
# Convention : Reuss Voigt Hill
#
# Bulk Modulus (GPa) = 56.89187 64.99530 60.94359
# Shear Modulus (GPa) = 23.11162 24.57997 23.84580
#
# Velocity S-wave (km/s) = 3.73619 3.85305 3.79507
# Velocity P-wave (km/s) = 7.27833 7.68446 7.48415
#
# Compressibility (1/GPa) = 0.01757720
#
# Stress axis : x y z
#
# Youngs Moduli (GPa) = 71.76438 71.76435 36.26124
#
# Poissons Ratio (x) = 0.28812 0.27051
# Poissons Ratio (y) = 0.28812 0.27051
# Poissons Ratio (z) = 0.53536 0.53536
#
# Static dielectric constant tensor:
#      x y z
#    x 1.576430 0.000000 0.000000 
#    y 0.000000 1.576430 0.000000 
#    z 0.000000 0.000000 1.566550 
# 
# From -- ./inp_files/3820.got.cif
#   From: 2010.05.17/outbox.ucp.g08.bks.cvg/sg115_2_cif.got.tgz:3820.got - 2010.06.11 11:33:38.
