data_PCOD9557848
_publ_section_title
;
Structure prediction by ZEFSAII (Michael W. Deem and Ramdas Pophale) SiO2 
 PCOD9557848
Probable space group: P -4 C 2
;
_chemical_formula_sum "Si O2"
_cell_formula_units_Z 42
_cell_length_a 14.650736
_cell_length_b 14.650736
_cell_length_c 9.438108
_cell_angle_alpha 90.000000
_cell_angle_beta 90.000000
_cell_angle_gamma 90.000000
_cell_volume 2025.833870
_symmetry_space_group_name_H-M "P -4 C 2"
_symmetry_group_IT_number 116
_symmetry_cell_setting 'tetragonal'
loop_
_space_group_symop_operation_xyz
x,y,z
y,-x,-z
-x,-y,z
-y,x,-z
y,x,1/2-z
-y,-x,1/2-z
-x,y,1/2+z
x,-y,1/2+z
loop_
_atom_site_type_symbol
_atom_site_label
_atom_site_fract_x
_atom_site_fract_y
_atom_site_fract_z
Si Si1 0.494786 0.767398 0.957800
Si Si2 0.645095 0.496292 0.291842
Si Si3 0.146238 0.852923 0.086198
Si Si4 0.000000 0.000000 0.500000
Si Si5 0.906633 0.347590 0.425141
Si Si6 0.347803 0.908994 0.418550
O O1 0.501469 0.673786 0.045727
O O2 0.411839 0.824899 0.022600
O O3 0.585668 0.827688 0.963829
O O4 0.483568 0.736671 0.796162
O O5 0.571549 0.571549 0.250000
O O6 0.601140 0.398861 0.250000
O O7 0.165490 0.834510 0.250000
O O8 0.113899 0.756873 0.472868
O O9 0.111921 0.755659 0.030156
O O10 0.069023 0.930520 0.077315
O O11 0.998273 0.377695 0.504974
O O12 0.917707 0.351049 0.253714
#
# Coordination Sequence:
#
# PCOD9557848 Si02
#       6
#     8   8   8   2   8   8
#     4  12  25  43  72  98 136 178 222 281 339 412
#     4  11  26  46  69 100 134 174 227 282 338 401
#     4  10  23  41  67  96 134 176 227 278 339 396
#     4  12  18  44  68 102 124 184 226 292 326 388
#     4  11  25  44  66  98 137 180 223 280 341 408
#     4  11  25  44  66  98 137 180 223 280 341 408
#
# _framework density 20.732202000000001
#
# number of rings (size 3 to 8) (size 9 to 14) (size 15 to 20)
#    0.000    0.952    3.810    2.000    8.000    3.048 
#    0.000    0.952    0.000    0.000    0.000    0.000 
#    0.000    0.000    0.000    0.000    0.000    0.000 
#
# Total GULP energy -234599.934449 kJ/mol
# GULP energy per Si atom -5585.712725 kJ/mol
# Density = 2.068501 g / cm^3
# Si number density = 20.732202 Si / 1000 Ang^3
#
#
#
# Elastic Constant Matrix: (Units=GPa)
#
#
# Indices 1 2 3 4 5 6 
#
# 1 98.4028 33.1233 12.5561 0.0000 0.0000 0.0000
# 2 33.1233 98.4049 12.5563 0.0000 0.0000 0.0000
# 3 12.5561 12.5563 53.9625 0.0000 0.0000 0.0000
# 4 0.0000 0.0000 0.0000 30.5773 0.0000 0.0000
# 5 0.0000 0.0000 0.0000 0.0000 30.5775 0.0000
# 6 0.0000 0.0000 0.0000 0.0000 0.0000 35.7625
#
#
#
# Elastic Compliance Matrix: (Units=1/GPa)
#
#
# Indices 1 2 3 4 5 6 
#
# 1 0.011638 -0.003681 -0.001851 0.000000 0.000000 0.000000
# 2 -0.003681 0.011637 -0.001851 0.000000 0.000000 0.000000
# 3 -0.001851 -0.001851 0.019393 0.000000 0.000000 0.000000
# 4 0.000000 0.000000 0.000000 0.032704 0.000000 0.000000
# 5 0.000000 0.000000 0.000000 0.000000 0.032704 0.000000
# 6 0.000000 0.000000 0.000000 0.000000 0.000000 0.027962
#
#
# Mechanical properties :
#
#
# Convention : Reuss Voigt Hill
#
# Bulk Modulus (GPa) = 35.84166 40.80464 38.32315
# Shear Modulus (GPa) = 31.22942 32.21910 31.72426
#
# Velocity S-wave (km/s) = 3.88535 3.94643 3.91601
# Velocity P-wave (km/s) = 6.11992 6.36320 6.24274
#
# Compressibility (1/GPa) = 0.02790050
#
# Stress axis : x y z
#
# Youngs Moduli (GPa) = 85.92834 85.93009 51.56519
#
# Poissons Ratio (x) = 0.31631 0.09546
# Poissons Ratio (y) = 0.31630 0.09546
# Poissons Ratio (z) = 0.15908 0.15909
#
# Static dielectric constant tensor:
#      x y z
#    x 1.748770 0.000000 0.000000 
#    y 0.000000 1.748770 0.000000 
#    z 0.000000 0.000000 1.698120 
# 
# From -- ./inp_files/866.got.cif
#   From: 2010.05.17/outbox.cif.g08.bks.cpg/sg116_1_cif.got.tgz:866.got - 2010.05.20 11:11:43.
