data_PCOD9557743
_publ_section_title
;
Structure prediction by ZEFSAII (Michael W. Deem and Ramdas Pophale) SiO2 
 PCOD9557743
Probable space group: P -4 C 2
;
_chemical_formula_sum "Si O2"
_cell_formula_units_Z 40
_cell_length_a 8.058631
_cell_length_b 8.058631
_cell_length_c 28.464830
_cell_angle_alpha 90.000000
_cell_angle_beta 90.000000
_cell_angle_gamma 90.000000
_cell_volume 1848.549714
_symmetry_space_group_name_H-M "P -4 C 2"
_symmetry_group_IT_number 116
_symmetry_cell_setting 'tetragonal'
loop_
_space_group_symop_operation_xyz
x,y,z
y,-x,-z
-x,-y,z
-y,x,-z
y,x,1/2-z
-y,-x,1/2-z
-x,y,1/2+z
x,-y,1/2+z
loop_
_atom_site_type_symbol
_atom_site_label
_atom_site_fract_x
_atom_site_fract_y
_atom_site_fract_z
Si Si1 0.118311 0.159677 0.303312
Si Si2 0.756263 0.604585 0.006810
Si Si3 0.500000 0.500000 0.165243
Si Si4 0.256852 0.276635 0.107981
Si Si5 0.500000 0.000000 0.067263
Si Si6 0.675662 0.675662 0.750000
Si Si7 0.500000 0.000000 0.724686
O O1 0.186196 0.186196 0.250000
O O2 0.225764 0.133861 0.349944
O O3 0.048266 0.345675 0.308530
O O4 0.000000 0.000000 0.300423
O O5 0.813724 0.662227 0.058268
O O6 0.703332 0.410768 0.006795
O O7 0.893603 0.619248 0.966924
O O8 0.365429 0.419647 0.131846
O O9 0.582134 0.373467 0.202190
O O10 0.384659 0.128815 0.094779
O O11 0.600884 0.862081 0.755921
#
# Coordination Sequence:
#
# PCOD9557743 Si02
#       7
#     8   8   4   8   4   4   4
#     4  11  24  45  66  98 148 185 231 293 350 429
#     4   9  19  40  65  93 126 165 215 286 350 411
#     4  11  22  38  65  92 136 178 233 274 335 434
#     4  11  21  39  67  97 126 179 227 277 353 423
#     4  10  21  40  65  94 126 164 223 282 351 424
#     4  11  24  40  65 102 142 192 239 292 349 430
#     4  12  23  44  69  98 138 206 239 296 367 420
#
# _framework density 21.638584999999999
#
# number of rings (size 3 to 8) (size 9 to 14) (size 15 to 20)
#    0.000    1.400    2.000    5.400    0.000    0.000 
#    7.200    4.000    0.000    0.000    0.000    0.000 
#    0.000    0.000    0.000    0.000    0.000    0.000 
#
# Total GULP energy -222748.905925 kJ/mol
# GULP energy per Si atom -5568.722648 kJ/mol
# Density = 2.158933 g / cm^3
# Si number density = 21.638585 Si / 1000 Ang^3
#
#
#
# Elastic Constant Matrix: (Units=GPa)
#
#
# Indices 1 2 3 4 5 6 
#
# 1 59.0362 1.0686 9.4419 0.0000 0.0000 0.0000
# 2 1.0686 59.0362 9.4419 0.0000 0.0000 0.0000
# 3 9.4419 9.4419 145.9904 0.0000 0.0000 0.0000
# 4 0.0000 0.0000 0.0000 72.2815 0.0000 0.0000
# 5 0.0000 0.0000 0.0000 0.0000 72.2815 0.0000
# 6 0.0000 0.0000 0.0000 0.0000 0.0000 29.2583
#
#
#
# Elastic Compliance Matrix: (Units=1/GPa)
#
#
# Indices 1 2 3 4 5 6 
#
# 1 0.017117 -0.000134 -0.001098 0.000000 0.000000 0.000000
# 2 -0.000134 0.017117 -0.001098 0.000000 0.000000 0.000000
# 3 -0.001098 -0.001098 0.006992 0.000000 0.000000 0.000000
# 4 0.000000 0.000000 0.000000 0.013835 0.000000 0.000000
# 5 0.000000 0.000000 0.000000 0.000000 0.013835 0.000000
# 6 0.000000 0.000000 0.000000 0.000000 0.000000 0.034178
#
#
# Mechanical properties :
#
#
# Convention : Reuss Voigt Hill
#
# Bulk Modulus (GPa) = 27.34950 33.77422 30.56186
# Shear Modulus (GPa) = 41.69339 51.03830 46.36584
#
# Velocity S-wave (km/s) = 4.39430 4.86188 4.63399
# Velocity P-wave (km/s) = 6.19784 6.86727 6.54113
#
# Compressibility (1/GPa) = 0.03656374
#
# Stress axis : x y z
#
# Youngs Moduli (GPa) = 58.42200 58.42200 143.02391
#
# Poissons Ratio (x) = 0.00784 0.15709
# Poissons Ratio (y) = 0.00784 0.15709
# Poissons Ratio (z) = 0.06417 0.06417
#
# Static dielectric constant tensor:
#      x y z
#    x 1.899300 0.000000 0.000000 
#    y 0.000000 1.899300 0.000000 
#    z 0.000000 0.000000 1.800960 
# 
# From -- ./inp_files/4920.got.cif
#   From: 2010.05.17/outbox.cif.g08.bks.cpg/sg116_3_cif.got.tgz:4920.got - 2010.05.20 11:11:43.
