data_PCOD9557280
_publ_section_title
;
Structure prediction by ZEFSAII (Michael W. Deem and Ramdas Pophale) SiO2 
 PCOD9557280
Probable space group: P -4 M 2
;
_chemical_formula_sum "Si O2"
_cell_formula_units_Z 48
_cell_length_a 9.036074
_cell_length_b 9.036074
_cell_length_c 31.603104
_cell_angle_alpha 90.000000
_cell_angle_beta 90.000000
_cell_angle_gamma 90.000000
_cell_volume 2580.413457
_symmetry_space_group_name_H-M "P -4 M 2"
_symmetry_group_IT_number 115
_symmetry_cell_setting 'tetragonal'
loop_
_space_group_symop_operation_xyz
x,y,z
y,-x,-z
-x,-y,z
-y,x,-z
y,x,-z
-y,-x,-z
-x,y,z
x,-y,z
loop_
_atom_site_type_symbol
_atom_site_label
_atom_site_fract_x
_atom_site_fract_y
_atom_site_fract_z
Si Si1 0.676398 0.176396 0.040977
Si Si2 0.322562 0.327773 0.627105
Si Si3 0.824994 0.677293 0.285155
Si Si4 0.821602 0.172921 0.547406
Si Si5 0.176293 0.323719 0.122836
Si Si6 0.675791 0.823934 0.204360
O O1 0.500000 0.201733 0.040579
O O2 0.747089 0.247054 0.082793
O O3 0.701740 0.000000 0.040560
O O4 0.749979 0.250022 0.000000
O O5 0.500000 0.314246 0.622731
O O6 0.286391 0.500000 0.633335
O O7 0.278676 0.236433 0.668828
O O8 0.247729 0.265792 0.585025
O O9 0.801501 0.500000 0.280452
O O10 0.740190 0.760945 0.248011
O O11 0.000000 0.705461 0.282429
O O12 0.777654 0.222347 0.500000
O O13 0.000000 0.180672 0.549029
O O14 0.780052 0.000000 0.552374
O O15 0.201745 0.500000 0.121546
O O16 0.243670 0.256360 0.165532
O O17 0.000000 0.298303 0.121566
O O18 0.500000 0.796706 0.202100
O O19 0.700482 0.000000 0.201693
#
# Coordination Sequence:
#
# PCOD9557280 Si02
#       6
#     8   8   8   8   8   8
#     4  11  24  41  62  90 122 156 197 242 288 341
#     4  10  21  36  55  81 112 145 182 226 277 332
#     4  10  21  38  60  84 110 145 189 232 277 333
#     4   9  19  36  56  78 106 142 184 228 275 329
#     4  11  24  41  62  89 119 153 195 239 285 340
#     4  11  24  40  59  86 118 151 189 233 282 337
#
# _framework density 18.601671
#
# number of rings (size 3 to 8) (size 9 to 14) (size 15 to 20)
#    0.000    1.667    0.000    4.500    0.000   13.667 
#    0.000    2.500    0.000    0.000    0.000    0.000 
#    0.000    0.000    0.000    0.000    0.000    0.000 
#
# Total GULP energy -268352.174234 kJ/mol
# GULP energy per Si atom -5590.670297 kJ/mol
# Density = 1.855933 g / cm^3
# Si number density = 18.601671 Si / 1000 Ang^3
#
#
#
# Elastic Constant Matrix: (Units=GPa)
#
#
# Indices 1 2 3 4 5 6 
#
# 1 97.1560 87.4380 80.5902 0.0000 0.0000 0.0000
# 2 87.4380 97.1561 80.5901 0.0000 0.0000 0.0000
# 3 80.5902 80.5901 174.8997 0.0000 0.0000 0.0000
# 4 0.0000 0.0000 0.0000 42.6253 0.0000 0.0000
# 5 0.0000 0.0000 0.0000 0.0000 42.6255 0.0000
# 6 0.0000 0.0000 0.0000 0.0000 0.0000 32.0806
#
#
#
# Elastic Compliance Matrix: (Units=1/GPa)
#
#
# Indices 1 2 3 4 5 6 
#
# 1 0.055983 -0.046918 -0.004177 0.000000 0.000000 0.000000
# 2 -0.046918 0.055982 -0.004176 0.000000 0.000000 0.000000
# 3 -0.004177 -0.004176 0.009566 0.000000 0.000000 0.000000
# 4 0.000000 0.000000 0.000000 0.023460 0.000000 0.000000
# 5 0.000000 0.000000 0.000000 0.000000 0.023460 0.000000
# 6 0.000000 0.000000 0.000000 0.000000 0.000000 0.031172
#
#
# Mechanical properties :
#
#
# Convention : Reuss Voigt Hill
#
# Bulk Modulus (GPa) = 91.00430 96.27204 93.63817
# Shear Modulus (GPa) = 15.93222 31.50584 23.71903
#
# Velocity S-wave (km/s) = 2.92977 4.11994 3.57473
# Velocity P-wave (km/s) = 7.77648 8.63126 8.21499
#
# Compressibility (1/GPa) = 0.01098849
#
# Stress axis : x y z
#
# Youngs Moduli (GPa) = 17.86269 17.86274 104.53153
#
# Poissons Ratio (x) = 0.83809 0.43659
# Poissons Ratio (y) = 0.83809 0.43657
# Poissons Ratio (z) = 0.07461 0.07460
#
# Static dielectric constant tensor:
#      x y z
#    x 1.621530 0.000000 0.000000 
#    y 0.000000 1.621530 0.000000 
#    z 0.000000 0.000000 1.605010 
# 
# From -- ./inp_files/5902.got.cif
#   From: 2010.05.17/outbox.cif.g08.bks.cpg/sg115_3_cif.got.tgz:5902.got - 2010.05.20 11:07:42.
