data_PCOD9557970
_publ_section_title
;
Structure prediction by ZEFSAII (Michael W. Deem and Ramdas Pophale) SiO2 
 PCOD9557970
Probable space group: P -4 C 2
;
_chemical_formula_sum "Si O2"
_cell_formula_units_Z 30
_cell_length_a 8.336002
_cell_length_b 8.336002
_cell_length_c 18.716064
_cell_angle_alpha 90.000000
_cell_angle_beta 90.000000
_cell_angle_gamma 90.000000
_cell_volume 1300.559249
_symmetry_space_group_name_H-M "P -4 C 2"
_symmetry_group_IT_number 116
_symmetry_cell_setting 'tetragonal'
loop_
_space_group_symop_operation_xyz
x,y,z
y,-x,-z
-x,-y,z
-y,x,-z
y,x,1/2-z
-y,-x,1/2-z
-x,y,1/2+z
x,-y,1/2+z
loop_
_atom_site_type_symbol
_atom_site_label
_atom_site_fract_x
_atom_site_fract_y
_atom_site_fract_z
Si Si1 0.234749 0.401861 0.344279
Si Si2 0.000000 0.000000 0.000000
Si Si3 0.116165 0.651190 0.003375
Si Si4 0.000000 0.500000 0.731253
Si Si5 0.721195 0.405455 0.140110
O O1 0.162741 0.347524 0.420118
O O2 0.105648 0.384197 0.282043
O O3 0.274528 0.591624 0.338435
O O4 0.413496 0.330745 0.340152
O O5 0.820094 0.959871 0.970830
O O6 0.263686 0.614363 0.055226
O O7 0.000000 0.500000 0.013333
O O8 0.889569 0.607897 0.679798
#
# Coordination Sequence:
#
# PCOD9557970 Si02
#       5
#     8   2   8   4   8
#     4  11  24  45  71 102 143 198 251 314 391 461
#     4  12  28  44  84 122 152 204 256 322 392 472
#     4  12  24  47  74 112 150 188 250 322 379 459
#     4  12  24  40  68 102 144 196 258 316 376 482
#     4  11  24  45  71 102 143 198 251 314 391 461
#
# _framework density 23.066998999999999
#
# number of rings (size 3 to 8) (size 9 to 14) (size 15 to 20)
#    0.000    0.533    2.667    6.400    0.000    4.267 
#    0.000    0.000    0.000    3.200    0.000    0.000 
#    0.000    0.000    0.000    0.000    0.000    0.000 
#
# Total GULP energy -167489.397626 kJ/mol
# GULP energy per Si atom -5582.979921 kJ/mol
# Density = 2.301450 g / cm^3
# Si number density = 23.066999 Si / 1000 Ang^3
#
#
#
# Elastic Constant Matrix: (Units=GPa)
#
#
# Indices 1 2 3 4 5 6 
#
# 1 100.3740 9.5909 17.0247 0.0000 0.0000 0.0000
# 2 9.5909 100.3740 17.0247 0.0000 0.0000 0.0000
# 3 17.0247 17.0247 112.6945 0.0000 0.0000 0.0000
# 4 0.0000 0.0000 0.0000 13.9698 0.0000 0.0000
# 5 0.0000 0.0000 0.0000 0.0000 13.9698 0.0000
# 6 0.0000 0.0000 0.0000 0.0000 0.0000 22.7372
#
#
#
# Elastic Compliance Matrix: (Units=1/GPa)
#
#
# Indices 1 2 3 4 5 6 
#
# 1 0.010278 -0.000738 -0.001441 0.000000 0.000000 0.000000
# 2 -0.000738 0.010278 -0.001441 0.000000 0.000000 0.000000
# 3 -0.001441 -0.001441 0.009309 0.000000 0.000000 0.000000
# 4 0.000000 0.000000 0.000000 0.071583 0.000000 0.000000
# 5 0.000000 0.000000 0.000000 0.000000 0.071583 0.000000
# 6 0.000000 0.000000 0.000000 0.000000 0.000000 0.043981
#
#
# Mechanical properties :
#
#
# Convention : Reuss Voigt Hill
#
# Bulk Modulus (GPa) = 44.20031 44.52478 44.36254
# Shear Modulus (GPa) = 21.57099 28.12217 24.84658
#
# Velocity S-wave (km/s) = 3.06133 3.49542 3.28555
# Velocity P-wave (km/s) = 5.63018 5.96950 5.80232
#
# Compressibility (1/GPa) = 0.02262428
#
# Stress axis : x y z
#
# Youngs Moduli (GPa) = 97.29834 97.29834 107.42294
#
# Poissons Ratio (x) = 0.07177 0.15482
# Poissons Ratio (y) = 0.07177 0.15482
# Poissons Ratio (z) = 0.14023 0.14023
#
# Static dielectric constant tensor:
#      x y z
#    x 1.997440 0.000000 0.000000 
#    y 0.000000 1.997440 0.000000 
#    z 0.000000 0.000000 1.854910 
# 
# From -- ./inp_files/3677.got.cif
#   From: 2010.05.17/outbox.cif.g08.bks.cpg/sg116_2_cif.got.tgz:3677.got - 2010.05.20 11:11:43.
