data_PCOD9557523
_publ_section_title
;
Structure prediction by ZEFSAII (Michael W. Deem and Ramdas Pophale) SiO2 
 PCOD9557523
Probable space group: P -4 C 2
;
_chemical_formula_sum "Si O2"
_cell_formula_units_Z 40
_cell_length_a 8.214983
_cell_length_b 8.214983
_cell_length_c 28.026874
_cell_angle_alpha 90.000000
_cell_angle_beta 90.000000
_cell_angle_gamma 90.000000
_cell_volume 1891.420097
_symmetry_space_group_name_H-M "P -4 C 2"
_symmetry_group_IT_number 116
_symmetry_cell_setting 'tetragonal'
loop_
_space_group_symop_operation_xyz
x,y,z
y,-x,-z
-x,-y,z
-y,x,-z
y,x,1/2-z
-y,-x,1/2-z
-x,y,1/2+z
x,-y,1/2+z
loop_
_atom_site_type_symbol
_atom_site_label
_atom_site_fract_x
_atom_site_fract_y
_atom_site_fract_z
Si Si1 0.113727 0.247987 0.005406
Si Si2 0.251033 0.253182 0.102694
Si Si3 0.000000 0.500000 0.931402
Si Si4 0.000000 0.000000 0.133294
Si Si5 0.115411 0.268373 0.796844
Si Si6 0.386036 0.741564 0.700795
O O1 0.209298 0.327854 0.050890
O O2 0.105112 0.378485 0.963540
O O3 0.920675 0.201594 0.009936
O O4 0.288286 0.331231 0.154620
O O5 0.400754 0.128859 0.098789
O O6 0.097780 0.132659 0.104724
O O7 0.129983 0.898674 0.163620
O O8 0.184650 0.184650 0.750000
O O9 0.229231 0.422566 0.808450
O O10 0.926512 0.321200 0.790496
O O11 0.353835 0.646166 0.750000
#
# Coordination Sequence:
#
# PCOD9557523 Si02
#       6
#     8   8   4   4   8   8
#     4   9  18  32  54  81 106 140 185 232 278 327
#     4  10  18  32  55  81 113 143 181 234 279 329
#     4  10  18  32  54  82 110 142 186 234 286 328
#     4  10  17  30  55  86 104 132 190 238 282 326
#     4  10  19  33  55  78 107 149 191 235 274 325
#     4  10  21  35  53  82 116 150 189 230 282 340
#
# _framework density 21.148129000000001
#
# number of rings (size 3 to 8) (size 9 to 14) (size 15 to 20)
#    0.000    2.200    0.000    7.500    0.000    0.400 
#    0.000    4.000    0.000   14.400    0.000    0.000 
#    0.000    0.000    0.000    0.000    0.000    0.000 
#
# Total GULP energy -222891.089339 kJ/mol
# GULP energy per Si atom -5572.277233 kJ/mol
# Density = 2.109999 g / cm^3
# Si number density = 21.148129 Si / 1000 Ang^3
#
#
#
# Elastic Constant Matrix: (Units=GPa)
#
#
# Indices 1 2 3 4 5 6 
#
# 1 47.1519 10.0563 12.1442 0.0000 0.0000 0.0000
# 2 10.0563 47.1516 12.1446 0.0000 0.0000 0.0000
# 3 12.1442 12.1446 107.4288 0.0000 0.0000 0.0000
# 4 0.0000 0.0000 0.0000 61.4417 0.0000 0.0000
# 5 0.0000 0.0000 0.0000 0.0000 61.4424 0.0000
# 6 0.0000 0.0000 0.0000 0.0000 0.0000 14.8966
#
#
#
# Elastic Compliance Matrix: (Units=1/GPa)
#
#
# Indices 1 2 3 4 5 6 
#
# 1 0.022659 -0.004298 -0.002076 0.000000 0.000000 0.000000
# 2 -0.004298 0.022660 -0.002076 0.000000 0.000000 0.000000
# 3 -0.002076 -0.002076 0.009778 0.000000 0.000000 0.000000
# 4 0.000000 0.000000 0.000000 0.016276 0.000000 0.000000
# 5 0.000000 0.000000 0.000000 0.000000 0.016275 0.000000
# 6 0.000000 0.000000 0.000000 0.000000 0.000000 0.067130
#
#
# Mechanical properties :
#
#
# Convention : Reuss Voigt Hill
#
# Bulk Modulus (GPa) = 26.17956 30.04694 28.11325
# Shear Modulus (GPa) = 27.11369 38.71528 32.91449
#
# Velocity S-wave (km/s) = 3.58451 4.28328 3.94938
# Velocity P-wave (km/s) = 5.43485 6.22098 5.84116
#
# Compressibility (1/GPa) = 0.03819774
#
# Stress axis : x y z
#
# Youngs Moduli (GPa) = 44.13193 44.13156 102.27265
#
# Poissons Ratio (x) = 0.18968 0.21228
# Poissons Ratio (y) = 0.18968 0.21229
# Poissons Ratio (z) = 0.09160 0.09161
#
# Static dielectric constant tensor:
#      x y z
#    x 1.781360 0.000000 0.000000 
#    y 0.000000 1.781360 0.000000 
#    z 0.000000 0.000000 1.907720 
# 
# From -- ./inp_files/4902.got.cif
#   From: 2010.05.17/outbox.cif.g08.bks.cpg/sg116_3_cif.got.tgz:4902.got - 2010.05.20 11:11:43.
