data_PCOD9557031
_publ_section_title
;
Structure prediction by ZEFSAII (Michael W. Deem and Ramdas Pophale) SiO2 
 PCOD9557031
Probable space group: P -4 M 2
;
_chemical_formula_sum "Si O2"
_cell_formula_units_Z 40
_cell_length_a 8.203679
_cell_length_b 8.203679
_cell_length_c 29.251538
_cell_angle_alpha 90.000000
_cell_angle_beta 90.000000
_cell_angle_gamma 90.000000
_cell_volume 1968.638720
_symmetry_space_group_name_H-M "P -4 M 2"
_symmetry_group_IT_number 115
_symmetry_cell_setting 'tetragonal'
loop_
_space_group_symop_operation_xyz
x,y,z
y,-x,-z
-x,-y,z
-y,x,-z
y,x,-z
-y,-x,-z
-x,y,z
x,-y,z
loop_
_atom_site_type_symbol
_atom_site_label
_atom_site_fract_x
_atom_site_fract_y
_atom_site_fract_z
Si Si1 0.675930 0.193515 0.765063
Si Si2 0.197495 0.000000 0.285168
Si Si3 0.305982 0.189437 0.950640
Si Si4 0.183537 0.308011 0.855120
Si Si5 0.302843 0.685505 0.446809
Si Si6 0.302087 0.000000 0.389965
O O1 0.500000 0.261983 0.750672
O O2 0.835741 0.259795 0.739583
O O3 0.700079 0.221175 0.819091
O O4 0.672884 0.000000 0.756670
O O5 0.246390 0.000000 0.337811
O O6 0.000000 0.000000 0.281469
O O7 0.500000 0.203921 0.946540
O O8 0.227117 0.279521 0.907761
O O9 0.259789 0.000000 0.947685
O O10 0.254530 0.254530 0.000000
O O11 0.190088 0.500000 0.845775
O O12 0.000000 0.247315 0.846948
O O13 0.272678 0.727323 0.500000
O O14 0.500000 0.678378 0.442400
O O15 0.242238 0.500000 0.437349
O O16 0.244900 0.833907 0.415153
O O17 0.500000 0.000000 0.391835
#
# Coordination Sequence:
#
# PCOD9557031 Si02
#       6
#     8   4   8   8   8   4
#     4  10  21  39  63  85 109 152 201 241 293 358
#     4  10  22  40  56  80 122 154 186 246 302 345
#     4  11  24  40  58  83 115 151 192 236 288 351
#     4  11  23  38  59  88 118 147 187 239 294 353
#     4   8  15  31  54  79 112 152 193 241 295 350
#     4  10  20  34  56  84 114 152 200 244 292 357
#
# _framework density 20.318608000000001
#
# number of rings (size 3 to 8) (size 9 to 14) (size 15 to 20)
#    0.000    2.000    1.000    3.000    0.000    9.600 
#    1.800    0.000    0.000    0.000    0.000    0.000 
#    0.000    0.000    0.000    0.000    0.000    0.000 
#
# Total GULP energy -223337.920850 kJ/mol
# GULP energy per Si atom -5583.448021 kJ/mol
# Density = 2.027236 g / cm^3
# Si number density = 20.318608 Si / 1000 Ang^3
#
#
#
# Elastic Constant Matrix: (Units=GPa)
#
#
# Indices 1 2 3 4 5 6 
#
# 1 63.9536 35.2777 35.1825 0.0000 0.0000 0.0000
# 2 35.2777 63.9534 35.1824 0.0000 0.0000 0.0000
# 3 35.1825 35.1824 112.0228 0.0000 0.0000 0.0000
# 4 0.0000 0.0000 0.0000 27.3502 0.0000 0.0000
# 5 0.0000 0.0000 0.0000 0.0000 27.3502 0.0000
# 6 0.0000 0.0000 0.0000 0.0000 0.0000 5.3715
#
#
#
# Elastic Compliance Matrix: (Units=1/GPa)
#
#
# Indices 1 2 3 4 5 6 
#
# 1 0.023919 -0.010954 -0.004072 0.000000 0.000000 0.000000
# 2 -0.010954 0.023919 -0.004072 0.000000 0.000000 0.000000
# 3 -0.004072 -0.004072 0.011484 0.000000 0.000000 0.000000
# 4 0.000000 0.000000 0.000000 0.036563 0.000000 0.000000
# 5 0.000000 0.000000 0.000000 0.000000 0.036563 0.000000
# 6 0.000000 0.000000 0.000000 0.000000 0.000000 0.186168
#
#
# Mechanical properties :
#
#
# Convention : Reuss Voigt Hill
#
# Bulk Modulus (GPa) = 47.33329 50.13501 48.73415
# Shear Modulus (GPa) = 13.74183 20.96686 17.35434
#
# Velocity S-wave (km/s) = 2.60343 3.21581 2.92569
# Velocity P-wave (km/s) = 5.69063 6.20617 5.95398
#
# Compressibility (1/GPa) = 0.02112678
#
# Stress axis : x y z
#
# Youngs Moduli (GPa) = 41.80844 41.80827 87.07496
#
# Poissons Ratio (x) = 0.45796 0.35455
# Poissons Ratio (y) = 0.45797 0.35455
# Poissons Ratio (z) = 0.17023 0.17023
#
# Static dielectric constant tensor:
#      x y z
#    x 1.732580 0.000000 0.000000 
#    y 0.000000 1.732580 0.000000 
#    z 0.000000 0.000000 1.695570 
# 
# From -- ./inp_files/5493.got.cif
#   From: 2010.05.17/outbox.cif.g08.bks.cpg/sg115_3_cif.got.tgz:5493.got - 2010.05.20 11:07:42.
