data_PCOD9557194
_publ_section_title
;
Structure prediction by ZEFSAII (Michael W. Deem and Ramdas Pophale) SiO2 
 PCOD9557194
Probable space group: P -4 M 2
;
_chemical_formula_sum "Si O2"
_cell_formula_units_Z 44
_cell_length_a 9.031390
_cell_length_b 9.031390
_cell_length_c 29.946291
_cell_angle_alpha 90.000000
_cell_angle_beta 90.000000
_cell_angle_gamma 90.000000
_cell_volume 2442.599331
_symmetry_space_group_name_H-M "P -4 M 2"
_symmetry_group_IT_number 115
_symmetry_cell_setting 'tetragonal'
loop_
_space_group_symop_operation_xyz
x,y,z
y,-x,-z
-x,-y,z
-y,x,-z
y,x,-z
-y,-x,-z
-x,y,z
x,-y,z
loop_
_atom_site_type_symbol
_atom_site_label
_atom_site_fract_x
_atom_site_fract_y
_atom_site_fract_z
Si Si1 0.679506 0.324035 0.903885
Si Si2 0.324951 0.321350 0.806299
Si Si3 0.324939 0.822673 0.628560
Si Si4 0.824582 0.676071 0.542979
Si Si5 0.822484 0.173193 0.278750
Si Si6 0.321582 0.321582 0.000000
O O1 0.500000 0.311682 0.903798
O O2 0.711981 0.500000 0.904114
O O3 0.728672 0.267168 0.855414
O O4 0.733038 0.263226 0.951868
O O5 0.500000 0.286643 0.802217
O O6 0.311775 0.500000 0.805547
O O7 0.238652 0.252479 0.765197
O O8 0.500000 0.794459 0.627349
O O9 0.245564 0.741933 0.587844
O O10 0.258749 0.776451 0.676350
O O11 0.301827 0.000000 0.624053
O O12 0.750559 0.750559 0.500000
O O13 0.801053 0.500000 0.541280
O O14 0.000000 0.704822 0.542518
O O15 0.000000 0.189647 0.274561
O O16 0.788274 0.000000 0.283611
O O17 0.299687 0.500000 0.999491
#
# Coordination Sequence:
#
# PCOD9557194 Si02
#       6
#     8   8   8   8   8   4
#     4   7  10  17  31  55  87 119 150 187 235 291
#     4   9  17  29  46  70  99 128 159 199 249 302
#     4  10  21  38  60  83 105 132 169 212 258 305
#     4  11  24  40  59  85 115 146 179 212 248 292
#     4  10  21  36  53  73  98 131 171 211 251 298
#     4   7   8  12  26  50  82 117 148 182 230 287
#
# _framework density 18.013598000000002
#
# number of rings (size 3 to 8) (size 9 to 14) (size 15 to 20)
#    0.000    2.818    0.000    4.364    0.000    6.909 
#    0.000    0.000    0.000    0.000    0.000    1.273 
#    0.000    8.727    0.000    0.000    0.000    0.000 
#
# Total GULP energy -245160.167541 kJ/mol
# GULP energy per Si atom -5571.821990 kJ/mol
# Density = 1.797260 g / cm^3
# Si number density = 18.013598 Si / 1000 Ang^3
#
#
#
# Elastic Constant Matrix: (Units=GPa)
#
#
# Indices 1 2 3 4 5 6 
#
# 1 43.8374 50.9647 69.7781 0.0000 0.0000 0.0000
# 2 50.9647 43.8374 69.7781 0.0000 0.0000 0.0000
# 3 69.7781 69.7781 230.3458 0.0000 0.0000 0.0000
# 4 0.0000 0.0000 0.0000 -316.1629 0.0000 0.0000
# 5 0.0000 0.0000 0.0000 0.0000 -316.1629 0.0000
# 6 0.0000 0.0000 0.0000 0.0000 0.0000 21.8503
#
#
#
# Elastic Compliance Matrix: (Units=1/GPa)
#
#
# Indices 1 2 3 4 5 6 
#
# 1 -0.060633 0.079671 -0.005767 0.000000 0.000000 0.000000
# 2 0.079671 -0.060633 -0.005767 0.000000 0.000000 0.000000
# 3 -0.005767 -0.005767 0.007835 0.000000 0.000000 0.000000
# 4 0.000000 0.000000 0.000000 -0.003163 0.000000 0.000000
# 5 0.000000 0.000000 0.000000 0.000000 -0.003163 0.000000
# 6 0.000000 0.000000 0.000000 0.000000 0.000000 0.045766
#
#
# Mechanical properties :
#
#
# Convention : Reuss Voigt Hill
#
# Bulk Modulus (GPa) = 43.77753 77.67359 60.72556
# Shear Modulus (GPa) = -24.67292 -113.59512 -69.13402
#
# Velocity S-wave (km/s) = -3.70494 -7.94970 -6.20178
# Velocity P-wave (km/s) = 2.46032 6.40707 4.18314
#
# Compressibility (1/GPa) = 0.02284277
#
# Stress axis : x y z
#
# Youngs Moduli (GPa) = -16.49256 -16.49256 127.62687
#
# Poissons Ratio (x) = 1.31398 0.73604
# Poissons Ratio (y) = 1.31398 0.73604
# Poissons Ratio (z) = -0.09511 -0.09511
#
# Static dielectric constant tensor:
#      x y z
#    x 1.601610 0.000000 0.000000 
#    y 0.000000 1.601610 0.000000 
#    z 0.000000 0.000000 1.643390 
# 
# From -- ./inp_files/5685.got.cif
#   From: 2010.05.17/outbox.cif.g08.bks.cpg/sg115_3_cif.got.tgz:5685.got - 2010.05.20 11:07:42.
