data_PCOD9557886
_publ_section_title
;
Structure prediction by ZEFSAII (Michael W. Deem and Ramdas Pophale) SiO2 
 PCOD9557886
Probable space group: P -4 C 2
;
_chemical_formula_sum "Si O2"
_cell_formula_units_Z 40
_cell_length_a 14.104271
_cell_length_b 14.104271
_cell_length_c 8.627458
_cell_angle_alpha 90.000000
_cell_angle_beta 90.000000
_cell_angle_gamma 90.000000
_cell_volume 1716.264192
_symmetry_space_group_name_H-M "P -4 C 2"
_symmetry_group_IT_number 116
_symmetry_cell_setting 'tetragonal'
loop_
_space_group_symop_operation_xyz
x,y,z
y,-x,-z
-x,-y,z
-y,x,-z
y,x,1/2-z
-y,-x,1/2-z
-x,y,1/2+z
x,-y,1/2+z
loop_
_atom_site_type_symbol
_atom_site_label
_atom_site_fract_x
_atom_site_fract_y
_atom_site_fract_z
Si Si1 0.395052 0.395052 0.250000
Si Si2 0.190670 0.809331 0.750000
Si Si3 0.000000 0.000000 0.500000
Si Si4 0.500000 0.500000 0.000000
Si Si5 0.392156 0.812197 0.890866
Si Si6 0.059839 0.197119 0.544399
Si Si7 0.000000 0.500000 0.699414
Si Si8 0.088770 0.683885 0.343897
O O1 0.468403 0.415425 0.112135
O O2 0.291907 0.416061 0.174258
O O3 0.299876 0.832029 0.786029
O O4 0.175657 0.868133 0.594503
O O5 0.023917 0.094267 0.595673
O O6 0.466818 0.899797 0.880300
O O7 0.351957 0.817955 0.066277
O O8 0.101248 0.254663 0.688885
O O9 0.976205 0.257682 0.464523
O O10 0.970136 0.591293 0.796491
#
# Coordination Sequence:
#
# PCOD9557886 Si02
#       8
#     4   4   2   2   8   8   4   8
#     4  10  26  51  86 115 162 204 274 342 424 504
#     4  11  24  48  68 104 164 201 266 338 394 489
#     4  12  28  42  76  98 156 202 288 322 376 458
#     4  10  24  58  80 110 152 214 268 346 416 502
#     4  11  25  47  74 116 157 203 259 338 410 498
#     4  12  25  46  69 107 154 219 265 331 392 477
#     4  12  24  46  76 112 164 202 258 328 414 502
#     4  12  25  44  72 111 157 209 263 324 411 485
#
# _framework density 23.306432999999998
#
# number of rings (size 3 to 8) (size 9 to 14) (size 15 to 20)
#    0.000    0.600    4.000    3.000    2.800    6.000 
#    3.600    0.000    0.000    0.000    0.000    0.000 
#    0.000    0.000    0.000    0.000    0.000    0.000 
#
# Total GULP energy -223397.054284 kJ/mol
# GULP energy per Si atom -5584.926357 kJ/mol
# Density = 2.325339 g / cm^3
# Si number density = 23.306433 Si / 1000 Ang^3
#
#
#
# Elastic Constant Matrix: (Units=GPa)
#
#
# Indices 1 2 3 4 5 6 
#
# 1 117.8176 47.8817 61.0176 0.0000 0.0000 0.0000
# 2 47.8817 117.8176 61.0178 0.0000 0.0000 0.0000
# 3 61.0176 61.0178 159.9193 0.0000 0.0000 0.0000
# 4 0.0000 0.0000 0.0000 25.7787 0.0000 0.0000
# 5 0.0000 0.0000 0.0000 0.0000 25.7788 0.0000
# 6 0.0000 0.0000 0.0000 0.0000 0.0000 32.7370
#
#
#
# Elastic Compliance Matrix: (Units=1/GPa)
#
#
# Indices 1 2 3 4 5 6 
#
# 1 0.011346 -0.002953 -0.003203 0.000000 0.000000 0.000000
# 2 -0.002953 0.011346 -0.003203 0.000000 0.000000 0.000000
# 3 -0.003203 -0.003203 0.008697 0.000000 0.000000 0.000000
# 4 0.000000 0.000000 0.000000 0.038792 0.000000 0.000000
# 5 0.000000 0.000000 0.000000 0.000000 0.038792 0.000000
# 6 0.000000 0.000000 0.000000 0.000000 0.000000 0.030546
#
#
# Mechanical properties :
#
#
# Convention : Reuss Voigt Hill
#
# Bulk Modulus (GPa) = 78.90183 81.70986 80.30584
# Shear Modulus (GPa) = 30.77684 31.90139 31.33911
#
# Velocity S-wave (km/s) = 3.63785 3.70372 3.67093
# Velocity P-wave (km/s) = 7.18143 7.30924 7.24562
#
# Compressibility (1/GPa) = 0.01267398
#
# Stress axis : x y z
#
# Youngs Moduli (GPa) = 88.13473 88.13454 114.98047
#
# Poissons Ratio (x) = 0.26022 0.36824
# Poissons Ratio (y) = 0.26022 0.36825
# Poissons Ratio (z) = 0.28226 0.28227
#
# Static dielectric constant tensor:
#      x y z
#    x 1.920850 0.000000 0.000000 
#    y 0.000000 1.920850 0.000000 
#    z 0.000000 0.000000 1.880490 
# 
# From -- ./inp_files/885.got.cif
#   From: 2010.05.17/outbox.cif.g08.bks.cpg/sg116_1_cif.got.tgz:885.got - 2010.05.20 11:11:43.
