data_PCOD9557236
_publ_section_title
;
Structure prediction by ZEFSAII (Michael W. Deem and Ramdas Pophale) SiO2 
 PCOD9557236
Probable space group: P -4 M 2
;
_chemical_formula_sum "Si O2"
_cell_formula_units_Z 40
_cell_length_a 9.328695
_cell_length_b 9.328695
_cell_length_c 26.465204
_cell_angle_alpha 90.000000
_cell_angle_beta 90.000000
_cell_angle_gamma 90.000000
_cell_volume 2303.122479
_symmetry_space_group_name_H-M "P -4 M 2"
_symmetry_group_IT_number 115
_symmetry_cell_setting 'tetragonal'
loop_
_space_group_symop_operation_xyz
x,y,z
y,-x,-z
-x,-y,z
-y,x,-z
y,x,-z
-y,-x,-z
-x,y,z
x,-y,z
loop_
_atom_site_type_symbol
_atom_site_label
_atom_site_fract_x
_atom_site_fract_y
_atom_site_fract_z
Si Si1 0.828648 0.168605 0.147925
Si Si2 0.328648 0.331395 0.647925
Si Si3 0.170275 0.329725 0.750000
Si Si4 0.171142 0.330065 0.045326
Si Si5 0.328857 0.830066 0.545326
O O1 0.751434 0.215951 0.199267
O O2 0.787189 0.258949 0.098752
O O3 0.000000 0.180643 0.154363
O O4 0.794849 0.000000 0.139578
O O5 0.500000 0.319357 0.654363
O O6 0.294849 0.500000 0.639578
O O7 0.251434 0.284049 0.699268
O O8 0.287188 0.241051 0.598752
O O9 0.193947 0.500000 0.756408
O O10 0.000000 0.306051 0.743592
O O11 0.196304 0.500000 0.046128
O O12 0.000000 0.305866 0.038653
O O13 0.255402 0.255402 0.000000
O O14 0.244600 0.755401 0.500000
O O15 0.500000 0.805869 0.538654
O O16 0.303693 0.000000 0.546128
#
# Coordination Sequence:
#
# PCOD9557236 Si02
#       5
#     8   8   8   8   8
#     4   9  18  33  52  73  99 133 170 206 249 303
#     4   9  18  33  52  73  99 133 170 206 249 303
#     4   9  18  32  50  73 100 130 166 207 250 297
#     4  10  21  36  54  77 104 135 172 213 258 307
#     4  10  21  36  54  77 104 135 172 213 258 307
#
# _framework density 17.367726999999999
#
# number of rings (size 3 to 8) (size 9 to 14) (size 15 to 20)
#    0.000    2.600    0.000    1.200    0.000    5.600 
#    0.000    4.000    0.000    0.000    0.000    0.000 
#    0.000    0.000    0.000    0.000    0.000    0.000 
#
# Total GULP energy -223170.915723 kJ/mol
# GULP energy per Si atom -5579.272893 kJ/mol
# Density = 1.732820 g / cm^3
# Si number density = 17.367727 Si / 1000 Ang^3
#
#
#
# Elastic Constant Matrix: (Units=GPa)
#
#
# Indices 1 2 3 4 5 6 
#
# 1 55.5986 54.7261 92.3849 0.0000 0.0000 0.0000
# 2 54.7261 55.5991 92.3842 0.0000 0.0000 0.0000
# 3 92.3849 92.3842 224.6003 0.0000 0.0000 0.0000
# 4 0.0000 0.0000 0.0000 38.5114 0.0000 0.0000
# 5 0.0000 0.0000 0.0000 0.0000 38.5113 0.0000
# 6 0.0000 0.0000 0.0000 0.0000 0.0000 20.6999
#
#
#
# Elastic Compliance Matrix: (Units=1/GPa)
#
#
# Indices 1 2 3 4 5 6 
#
# 1 0.587501 -0.558349 -0.011993 0.000000 0.000000 0.000000
# 2 -0.558349 0.587466 -0.011975 0.000000 0.000000 0.000000
# 3 -0.011993 -0.011975 0.014311 0.000000 0.000000 0.000000
# 4 0.000000 0.000000 0.000000 0.025966 0.000000 0.000000
# 5 0.000000 0.000000 0.000000 0.000000 0.025966 0.000000
# 6 0.000000 0.000000 0.000000 0.000000 0.000000 0.048309
#
#
# Mechanical properties :
#
#
# Convention : Reuss Voigt Hill
#
# Bulk Modulus (GPa) = 40.57749 90.53205 65.55477
# Shear Modulus (GPa) = 2.03057 25.96471 13.99764
#
# Velocity S-wave (km/s) = 1.08245 3.87071 2.84202
# Velocity P-wave (km/s) = 4.99767 8.49802 6.97112
#
# Compressibility (1/GPa) = 0.02464420
#
# Stress axis : x y z
#
# Youngs Moduli (GPa) = 1.70212 1.70223 69.87725
#
# Poissons Ratio (x) = 0.95044 0.83801
# Poissons Ratio (y) = 0.95038 0.83676
# Poissons Ratio (z) = 0.02041 0.02038
#
# Static dielectric constant tensor:
#      x y z
#    x 1.580160 0.000000 0.000000 
#    y 0.000000 1.580160 0.000000 
#    z 0.000000 0.000000 1.558960 
# 
# From -- ./inp_files/5077.got.cif
#   From: 2010.05.17/outbox.cif.g08.bks.cpg/sg115_3_cif.got.tgz:5077.got - 2010.05.20 11:07:42.
