data_PCOD9557180
_publ_section_title
;
Structure prediction by ZEFSAII (Michael W. Deem and Ramdas Pophale) SiO2 
 PCOD9557180
Probable space group: P -4 M 2
;
_chemical_formula_sum "Si O2"
_cell_formula_units_Z 40
_cell_length_a 7.989154
_cell_length_b 7.989154
_cell_length_c 30.588019
_cell_angle_alpha 90.000000
_cell_angle_beta 90.000000
_cell_angle_gamma 90.000000
_cell_volume 1952.328692
_symmetry_space_group_name_H-M "P -4 M 2"
_symmetry_group_IT_number 115
_symmetry_cell_setting 'tetragonal'
loop_
_space_group_symop_operation_xyz
x,y,z
y,-x,-z
-x,-y,z
-y,x,-z
y,x,-z
-y,-x,-z
-x,y,z
x,-y,z
loop_
_atom_site_type_symbol
_atom_site_label
_atom_site_fract_x
_atom_site_fract_y
_atom_site_fract_z
Si Si1 0.702263 0.192880 0.859160
Si Si2 0.793788 0.500000 0.698037
Si Si3 0.500000 0.199782 0.201608
Si Si4 0.687317 0.199309 0.953422
Si Si5 0.808355 0.197293 0.359881
Si Si6 0.695994 0.190832 0.546273
O O1 0.500000 0.186758 0.862832
O O2 0.745693 0.331855 0.823623
O O3 0.766564 0.252513 0.907197
O O4 0.758107 0.000000 0.850045
O O5 0.740091 0.500000 0.748343
O O6 0.735612 0.667747 0.672928
O O7 0.000000 0.500000 0.696724
O O8 0.500000 0.000000 0.202577
O O9 0.500000 0.271240 0.956203
O O10 0.675996 0.000000 0.948318
O O11 0.769230 0.230771 0.000000
O O12 0.744842 0.217960 0.409786
O O13 0.000000 0.266618 0.357059
O O14 0.821897 0.000000 0.351139
O O15 0.722354 0.277647 0.500000
O O16 0.500000 0.190448 0.555981
O O17 0.755696 0.000000 0.540303
#
# Coordination Sequence:
#
# PCOD9557180 Si02
#       6
#     8   4   4   8   8   8
#     4   9  20  40  60  80 114 157 198 241 291 355
#     4   9  20  37  57  83 111 143 189 239 293 348
#     4  11  23  37  59  91 119 149 193 249 305 358
#     4   9  19  34  52  77 108 143 184 228 277 337
#     4   9  18  35  58  79 105 145 189 234 281 338
#     4  10  21  35  52  78 111 145 181 223 272 330
#
# _framework density 20.488351000000002
#
# number of rings (size 3 to 8) (size 9 to 14) (size 15 to 20)
#    0.000    2.600    0.000    2.100    2.800    3.600 
#    0.000    6.000    0.000    2.400    0.000    0.000 
#    0.000    0.000    0.000    0.000    0.000    0.000 
#
# Total GULP energy -222913.975150 kJ/mol
# GULP energy per Si atom -5572.849379 kJ/mol
# Density = 2.044172 g / cm^3
# Si number density = 20.488351 Si / 1000 Ang^3
#
#
#
# Elastic Constant Matrix: (Units=GPa)
#
#
# Indices 1 2 3 4 5 6 
#
# 1 52.8014 21.0875 52.6147 0.0000 0.0000 0.0000
# 2 21.0875 52.8017 52.6143 0.0000 0.0000 0.0000
# 3 52.6147 52.6143 176.6646 0.0000 0.0000 0.0000
# 4 0.0000 0.0000 0.0000 30.6523 0.0000 0.0000
# 5 0.0000 0.0000 0.0000 0.0000 30.6524 0.0000
# 6 0.0000 0.0000 0.0000 0.0000 0.0000 19.6901
#
#
#
# Elastic Compliance Matrix: (Units=1/GPa)
#
#
# Indices 1 2 3 4 5 6 
#
# 1 0.027517 -0.004015 -0.007000 0.000000 0.000000 0.000000
# 2 -0.004015 0.027517 -0.006999 0.000000 0.000000 0.000000
# 3 -0.007000 -0.006999 0.009830 0.000000 0.000000 0.000000
# 4 0.000000 0.000000 0.000000 0.032624 0.000000 0.000000
# 5 0.000000 0.000000 0.000000 0.000000 0.032624 0.000000
# 6 0.000000 0.000000 0.000000 0.000000 0.000000 0.050787
#
#
# Mechanical properties :
#
#
# Convention : Reuss Voigt Hill
#
# Bulk Modulus (GPa) = 34.67887 59.43341 47.05614
# Shear Modulus (GPa) = 22.07140 26.59570 24.33355
#
# Velocity S-wave (km/s) = 3.28573 3.60681 3.45001
# Velocity P-wave (km/s) = 5.59979 6.81299 6.23596
#
# Compressibility (1/GPa) = 0.02883600
#
# Stress axis : x y z
#
# Youngs Moduli (GPa) = 36.34107 36.34161 101.73365
#
# Poissons Ratio (x) = 0.14591 0.71208
# Poissons Ratio (y) = 0.14590 0.71207
# Poissons Ratio (z) = 0.25437 0.25437
#
# Static dielectric constant tensor:
#      x y z
#    x 1.744540 0.000000 0.000000 
#    y 0.000000 1.744540 0.000000 
#    z 0.000000 0.000000 1.746270 
# 
# From -- ./inp_files/5500.got.cif
#   From: 2010.05.17/outbox.cif.g08.bks.cpg/sg115_3_cif.got.tgz:5500.got - 2010.05.20 11:07:42.
