data_PCOD9557245
_publ_section_title
;
Structure prediction by ZEFSAII (Michael W. Deem and Ramdas Pophale) SiO2 
 PCOD9557245
Probable space group: P -4 M 2
;
_chemical_formula_sum "Si O2"
_cell_formula_units_Z 48
_cell_length_a 9.241441
_cell_length_b 9.241441
_cell_length_c 31.663765
_cell_angle_alpha 90.000000
_cell_angle_beta 90.000000
_cell_angle_gamma 90.000000
_cell_volume 2704.219524
_symmetry_space_group_name_H-M "P -4 M 2"
_symmetry_group_IT_number 115
_symmetry_cell_setting 'tetragonal'
loop_
_space_group_symop_operation_xyz
x,y,z
y,-x,-z
-x,-y,z
-y,x,-z
y,x,-z
-y,-x,-z
-x,y,z
x,-y,z
loop_
_atom_site_type_symbol
_atom_site_label
_atom_site_fract_x
_atom_site_fract_y
_atom_site_fract_z
Si Si1 0.327888 0.327888 0.000000
Si Si2 0.174031 0.169753 0.328318
Si Si3 0.171747 0.328970 0.835375
Si Si4 0.173246 0.329656 0.414167
Si Si5 0.327979 0.672022 0.500000
Si Si6 0.326358 0.330059 0.251113
Si Si7 0.827157 0.171419 0.922512
O O1 0.252287 0.259525 0.040968
O O2 0.302613 0.500000 0.998386
O O3 0.218155 0.241155 0.372836
O O4 0.248736 0.249998 0.289479
O O5 0.000000 0.185435 0.324822
O O6 0.208840 0.000000 0.327784
O O7 0.197636 0.500000 0.843464
O O8 0.259401 0.285671 0.793757
O O9 0.209647 0.238019 0.876846
O O10 0.000000 0.311044 0.827317
O O11 0.207594 0.500000 0.407949
O O12 0.248118 0.280305 0.457403
O O13 0.000000 0.316998 0.418665
O O14 0.500000 0.696157 0.495211
O O15 0.500000 0.313426 0.255429
O O16 0.292203 0.500000 0.251541
O O17 0.000000 0.193459 0.929006
O O18 0.799427 0.000000 0.923596
#
# Coordination Sequence:
#
# PCOD9557245 Si02
#       7
#     4   8   8   8   4   8   8
#     4  11  24  39  56  80 110 145 184 225 268 314
#     4  10  21  36  54  77 105 138 177 220 265 313
#     4   9  18  34  55  78 108 145 180 216 261 312
#     4   9  18  33  51  71  99 134 169 208 258 313
#     4   9  18  32  50  73 100 130 166 209 256 307
#     4  10  21  36  55  80 109 141 177 218 264 314
#     4  10  21  37  58  84 112 142 178 220 266 317
#
# _framework density 17.750039000000001
#
# number of rings (size 3 to 8) (size 9 to 14) (size 15 to 20)
#    0.000    2.333    0.000    2.000    0.000    7.333 
#    0.000    5.000    0.000    0.000    0.000    0.000 
#    0.000    0.000    0.000    0.000    0.000    0.000 
#
# Total GULP energy -267978.197440 kJ/mol
# GULP energy per Si atom -5582.879113 kJ/mol
# Density = 1.770964 g / cm^3
# Si number density = 17.750039 Si / 1000 Ang^3
#
#
#
# Elastic Constant Matrix: (Units=GPa)
#
#
# Indices 1 2 3 4 5 6 
#
# 1 75.8966 67.4846 102.9153 0.0000 0.0000 0.0000
# 2 67.4846 75.8963 102.9154 0.0000 0.0000 0.0000
# 3 102.9153 102.9154 218.5801 0.0000 0.0000 0.0000
# 4 0.0000 0.0000 0.0000 41.2934 0.0000 0.0000
# 5 0.0000 0.0000 0.0000 0.0000 41.2933 0.0000
# 6 0.0000 0.0000 0.0000 0.0000 0.0000 24.8644
#
#
#
# Elastic Compliance Matrix: (Units=1/GPa)
#
#
# Indices 1 2 3 4 5 6 
#
# 1 0.070200 -0.048680 -0.010132 0.000000 0.000000 0.000000
# 2 -0.048680 0.070201 -0.010133 0.000000 0.000000 0.000000
# 3 -0.010132 -0.010133 0.014116 0.000000 0.000000 0.000000
# 4 0.000000 0.000000 0.000000 0.024217 0.000000 0.000000
# 5 0.000000 0.000000 0.000000 0.000000 0.024217 0.000000
# 6 0.000000 0.000000 0.000000 0.000000 0.000000 0.040218
#
#
# Mechanical properties :
#
#
# Convention : Reuss Voigt Hill
#
# Bulk Modulus (GPa) = 60.14403 101.88929 81.01666
# Shear Modulus (GPa) = 12.93322 27.96073 20.44698
#
# Velocity S-wave (km/s) = 2.70224 3.97325 3.39771
# Velocity P-wave (km/s) = 6.61011 8.86430 7.81887
#
# Compressibility (1/GPa) = 0.01662675
#
# Stress axis : x y z
#
# Youngs Moduli (GPa) = 14.24503 14.24488 70.84002
#
# Poissons Ratio (x) = 0.69345 0.71776
# Poissons Ratio (y) = 0.69345 0.71779
# Poissons Ratio (z) = 0.14433 0.14434
#
# Static dielectric constant tensor:
#      x y z
#    x 1.593370 0.000000 0.000000 
#    y 0.000000 1.593370 0.000000 
#    z 0.000000 0.000000 1.571350 
# 
# From -- ./inp_files/6142.got.cif
#   From: 2010.05.17/outbox.cif.g08.bks.cpg/sg115_4_cif.got.tgz:6142.got - 2010.05.20 11:07:42.
