data_PCOD9557569
_publ_section_title
;
Structure prediction by ZEFSAII (Michael W. Deem and Ramdas Pophale) SiO2 
 PCOD9557569
Probable space group: P -4 C 2
;
_chemical_formula_sum "Si O2"
_cell_formula_units_Z 38
_cell_length_a 15.022774
_cell_length_b 15.022774
_cell_length_c 9.392447
_cell_angle_alpha 90.000000
_cell_angle_beta 90.000000
_cell_angle_gamma 90.000000
_cell_volume 2119.722554
_symmetry_space_group_name_H-M "P -4 C 2"
_symmetry_group_IT_number 116
_symmetry_cell_setting 'tetragonal'
loop_
_space_group_symop_operation_xyz
x,y,z
y,-x,-z
-x,-y,z
-y,x,-z
y,x,1/2-z
-y,-x,1/2-z
-x,y,1/2+z
x,-y,1/2+z
loop_
_atom_site_type_symbol
_atom_site_label
_atom_site_fract_x
_atom_site_fract_y
_atom_site_fract_z
Si Si1 0.819094 0.957609 0.916672
Si Si2 0.384985 0.851269 0.112900
Si Si3 0.036664 0.289059 0.312084
Si Si4 0.222703 0.777298 0.250000
Si Si5 0.000000 0.000000 0.250000
Si Si6 0.101717 0.460302 0.191186
O O1 0.789745 0.863218 0.851134
O O2 0.915037 0.986878 0.856380
O O3 0.751376 0.027190 0.844817
O O4 0.794404 0.950399 0.082174
O O5 0.309107 0.780743 0.150822
O O6 0.461518 0.846250 0.231202
O O7 0.333813 0.944623 0.139018
O O8 0.429185 0.858131 0.958437
O O9 0.099699 0.374224 0.295865
O O10 0.000000 0.500000 0.170245
#
# Coordination Sequence:
#
# PCOD9557569 Si02
#       6
#     8   8   8   4   2   8
#     4  10  21  36  54  72 111 160 211 250 280 327
#     4  10  20  34  56  82 111 146 178 241 300 363
#     4  10  19  34  54  81 106 145 200 253 299 338
#     4   9  22  37  52  76 122 151 183 240 302 348
#     4  10  24  38  52  74 108 174 230 240 274 338
#     4  10  19  32  59  87 109 138 193 246 311 361
#
# _framework density 17.926874999999999
#
# number of rings (size 3 to 8) (size 9 to 14) (size 15 to 20)
#    0.000    2.105    2.105    1.895    5.895    5.895 
#    0.000    0.000    0.000    0.000    0.000    0.000 
#    0.000    2.526    0.000    0.000    0.000    0.000 
#
# Total GULP energy -211676.322303 kJ/mol
# GULP energy per Si atom -5570.429534 kJ/mol
# Density = 1.788607 g / cm^3
# Si number density = 17.926875 Si / 1000 Ang^3
#
#
#
# Elastic Constant Matrix: (Units=GPa)
#
#
# Indices 1 2 3 4 5 6 
#
# 1 71.7613 32.0304 31.3459 0.0000 0.0000 0.0000
# 2 32.0304 71.7624 31.3458 0.0000 0.0000 0.0000
# 3 31.3459 31.3458 106.9477 0.0000 0.0000 0.0000
# 4 0.0000 0.0000 0.0000 26.0164 0.0000 0.0000
# 5 0.0000 0.0000 0.0000 0.0000 26.0163 0.0000
# 6 0.0000 0.0000 0.0000 0.0000 0.0000 14.9791
#
#
#
# Elastic Compliance Matrix: (Units=1/GPa)
#
#
# Indices 1 2 3 4 5 6 
#
# 1 0.018438 -0.006731 -0.003431 0.000000 0.000000 0.000000
# 2 -0.006731 0.018438 -0.003431 0.000000 0.000000 0.000000
# 3 -0.003431 -0.003431 0.011362 0.000000 0.000000 0.000000
# 4 0.000000 0.000000 0.000000 0.038437 0.000000 0.000000
# 5 0.000000 0.000000 0.000000 0.000000 0.038437 0.000000
# 6 0.000000 0.000000 0.000000 0.000000 0.000000 0.066760
#
#
# Mechanical properties :
#
#
# Convention : Reuss Voigt Hill
#
# Bulk Modulus (GPa) = 47.50399 48.87952 48.19176
# Shear Modulus (GPa) = 22.11639 23.78563 22.95101
#
# Velocity S-wave (km/s) = 3.51622 3.64650 3.58195
# Velocity P-wave (km/s) = 6.56059 6.71227 6.63686
#
# Compressibility (1/GPa) = 0.02105086
#
# Stress axis : x y z
#
# Youngs Moduli (GPa) = 54.23504 54.23603 88.01448
#
# Poissons Ratio (x) = 0.36506 0.30201
# Poissons Ratio (y) = 0.36505 0.30200
# Poissons Ratio (z) = 0.18610 0.18610
#
# Static dielectric constant tensor:
#      x y z
#    x 1.630650 0.000000 0.000000 
#    y 0.000000 1.630650 0.000000 
#    z 0.000000 0.000000 1.661400 
# 
# From -- ./inp_files/713.got.cif
#   From: 2010.05.17/outbox.cif.g08.bks.cpg/sg116_1_cif.got.tgz:713.got - 2010.05.20 11:11:43.
