data_PCOD9557009
_publ_section_title
;
Structure prediction by ZEFSAII (Michael W. Deem and Ramdas Pophale) SiO2 
 PCOD9557009
Probable space group: P -4 M 2
;
_chemical_formula_sum "Si O2"
_cell_formula_units_Z 48
_cell_length_a 9.155179
_cell_length_b 9.155179
_cell_length_c 31.834275
_cell_angle_alpha 90.000000
_cell_angle_beta 90.000000
_cell_angle_gamma 90.000000
_cell_volume 2668.263058
_symmetry_space_group_name_H-M "P -4 M 2"
_symmetry_group_IT_number 115
_symmetry_cell_setting 'tetragonal'
loop_
_space_group_symop_operation_xyz
x,y,z
y,-x,-z
-x,-y,z
-y,x,-z
y,x,-z
-y,-x,-z
-x,y,z
x,-y,z
loop_
_atom_site_type_symbol
_atom_site_label
_atom_site_fract_x
_atom_site_fract_y
_atom_site_fract_z
Si Si1 0.827296 0.174755 0.126661
Si Si2 0.327259 0.825975 0.038995
Si Si3 0.323965 0.170111 0.461570
Si Si4 0.331352 0.822249 0.368672
Si Si5 0.171907 0.175676 0.283723
Si Si6 0.674221 0.327350 0.794745
O O1 0.753512 0.213807 0.082298
O O2 0.751348 0.258250 0.164721
O O3 0.000000 0.205065 0.125567
O O4 0.808300 0.000000 0.132719
O O5 0.500000 0.799371 0.042897
O O6 0.305193 0.000000 0.032356
O O7 0.260247 0.739753 0.000000
O O8 0.258521 0.258521 0.500000
O O9 0.500000 0.175986 0.462269
O O10 0.279605 0.224866 0.414999
O O11 0.280813 0.000000 0.465512
O O12 0.500000 0.776504 0.362396
O O13 0.234147 0.778721 0.329175
O O14 0.331877 0.000000 0.370120
O O15 0.258242 0.254261 0.246662
O O16 0.000000 0.206346 0.280568
O O17 0.191677 0.000000 0.279921
O O18 0.500000 0.307392 0.793860
O O19 0.705852 0.500000 0.796503
#
# Coordination Sequence:
#
# PCOD9557009 Si02
#       6
#     8   8   8   8   8   8
#     4  10  21  38  61  86 110 140 181 226 270 317
#     4  10  21  37  58  84 113 146 183 222 266 315
#     4   9  18  32  50  74 103 134 171 213 257 309
#     4   8  15  30  51  73  99 133 172 214 258 305
#     4  10  20  34  55  82 107 133 171 217 264 316
#     4  11  24  39  55  78 109 144 180 217 261 315
#
# _framework density 17.989229000000002
#
# number of rings (size 3 to 8) (size 9 to 14) (size 15 to 20)
#    0.000    2.333    0.000    3.500    0.000    8.000 
#    0.000    2.500    0.000    1.000    0.000    0.000 
#    0.000    0.000    0.000    0.000    0.000    0.000 
#
# Total GULP energy -267937.281853 kJ/mol
# GULP energy per Si atom -5582.026705 kJ/mol
# Density = 1.794828 g / cm^3
# Si number density = 17.989229 Si / 1000 Ang^3
#
#
#
# Elastic Constant Matrix: (Units=GPa)
#
#
# Indices 1 2 3 4 5 6 
#
# 1 72.2405 61.9263 86.8957 0.0000 0.0000 0.0000
# 2 61.9263 72.2405 86.8957 0.0000 0.0000 0.0000
# 3 86.8957 86.8957 202.8920 0.0000 0.0000 0.0000
# 4 0.0000 0.0000 0.0000 83.0918 0.0000 0.0000
# 5 0.0000 0.0000 0.0000 0.0000 83.0918 0.0000
# 6 0.0000 0.0000 0.0000 0.0000 0.0000 26.5533
#
#
#
# Elastic Compliance Matrix: (Units=1/GPa)
#
#
# Indices 1 2 3 4 5 6 
#
# 1 0.056847 -0.040107 -0.007170 0.000000 0.000000 0.000000
# 2 -0.040107 0.056847 -0.007170 0.000000 0.000000 0.000000
# 3 -0.007170 -0.007170 0.011070 0.000000 0.000000 0.000000
# 4 0.000000 0.000000 0.000000 0.012035 0.000000 0.000000
# 5 0.000000 0.000000 0.000000 0.000000 0.012035 0.000000
# 6 0.000000 0.000000 0.000000 0.000000 0.000000 0.037660
#
#
# Mechanical properties :
#
#
# Convention : Reuss Voigt Hill
#
# Bulk Modulus (GPa) = 63.00238 90.97871 76.99055
# Shear Modulus (GPa) = 16.62905 45.99106 31.31005
#
# Velocity S-wave (km/s) = 3.04368 5.06176 4.17644
# Velocity P-wave (km/s) = 6.88841 9.21117 8.13314
#
# Compressibility (1/GPa) = 0.01587242
#
# Stress axis : x y z
#
# Youngs Moduli (GPa) = 17.59093 17.59093 90.33265
#
# Poissons Ratio (x) = 0.70551 0.64767
# Poissons Ratio (y) = 0.70551 0.64767
# Poissons Ratio (z) = 0.12612 0.12612
#
# Static dielectric constant tensor:
#      x y z
#    x 1.598650 0.000000 0.000000 
#    y 0.000000 1.598650 0.000000 
#    z 0.000000 0.000000 1.596890 
# 
# From -- ./inp_files/6122.got.cif
#   From: 2010.05.17/outbox.cif.g08.bks.cpg/sg115_4_cif.got.tgz:6122.got - 2010.05.20 11:07:42.
