data_PCOD9557717
_publ_section_title
;
Structure prediction by ZEFSAII (Michael W. Deem and Ramdas Pophale) SiO2 
 PCOD9557717
Probable space group: P -4 C 2
;
_chemical_formula_sum "Si O2"
_cell_formula_units_Z 40
_cell_length_a 15.071594
_cell_length_b 15.071594
_cell_length_c 9.053402
_cell_angle_alpha 90.000000
_cell_angle_beta 90.000000
_cell_angle_gamma 90.000000
_cell_volume 2056.506933
_symmetry_space_group_name_H-M "P -4 C 2"
_symmetry_group_IT_number 116
_symmetry_cell_setting 'tetragonal'
loop_
_space_group_symop_operation_xyz
x,y,z
y,-x,-z
-x,-y,z
-y,x,-z
y,x,1/2-z
-y,-x,1/2-z
-x,y,1/2+z
x,-y,1/2+z
loop_
_atom_site_type_symbol
_atom_site_label
_atom_site_fract_x
_atom_site_fract_y
_atom_site_fract_z
Si Si1 0.402320 0.417820 0.420969
Si Si2 0.123429 0.546494 0.480761
Si Si3 0.875841 0.332536 0.000661
Si Si4 0.693245 0.275411 0.080409
Si Si5 0.014443 0.375005 0.244042
O O1 0.383199 0.512981 0.488763
O O2 0.423214 0.423214 0.250000
O O3 0.326814 0.350448 0.459345
O O4 0.146705 0.440808 0.485249
O O5 0.201194 0.618063 0.446524
O O6 0.079510 0.567599 0.639375
O O7 0.049330 0.573639 0.359817
O O8 0.922931 0.313979 0.845083
O O9 0.797555 0.265804 0.047027
O O10 0.948257 0.328532 0.130404
O O11 0.689184 0.310817 0.250000
#
# Coordination Sequence:
#
# PCOD9557717 Si02
#       5
#     8   8   8   8   8
#     4  11  23  40  59  76 110 160 207 243 280 335
#     4  11  21  37  60  84 120 155 200 243 301 353
#     4  11  21  37  60  84 120 155 200 243 301 353
#     4  12  25  37  54  88 125 153 196 251 300 350
#     4  10  21  38  60  84 110 159 200 245 298 366
#
# _framework density 19.450458999999999
#
# number of rings (size 3 to 8) (size 9 to 14) (size 15 to 20)
#    0.000    1.000    2.000    8.400    2.800    0.000 
#    0.000    0.000    0.000    0.000    0.000    0.000 
#    0.000   56.000    0.000    0.000    0.000    0.000 
#
# Total GULP energy -222930.468125 kJ/mol
# GULP energy per Si atom -5573.261703 kJ/mol
# Density = 1.940619 g / cm^3
# Si number density = 19.450459 Si / 1000 Ang^3
#
#
#
# Elastic Constant Matrix: (Units=GPa)
#
#
# Indices 1 2 3 4 5 6 
#
# 1 95.5904 -22.0637 11.2382 0.0000 0.0000 0.0000
# 2 -22.0637 95.5909 11.2386 0.0000 0.0000 0.0000
# 3 11.2382 11.2386 146.2480 0.0000 0.0000 0.0000
# 4 0.0000 0.0000 0.0000 36.1346 0.0000 0.0000
# 5 0.0000 0.0000 0.0000 0.0000 36.1470 0.0000
# 6 0.0000 0.0000 0.0000 0.0000 0.0000 22.4418
#
#
#
# Elastic Compliance Matrix: (Units=1/GPa)
#
#
# Indices 1 2 3 4 5 6 
#
# 1 0.011214 0.002714 -0.001070 0.000000 0.000000 0.000000
# 2 0.002714 0.011214 -0.001070 0.000000 0.000000 0.000000
# 3 -0.001070 -0.001070 0.007002 0.000000 0.000000 0.000000
# 4 0.000000 0.000000 0.000000 0.027674 0.000000 0.000000
# 5 0.000000 0.000000 0.000000 0.000000 0.027665 0.000000
# 6 0.000000 0.000000 0.000000 0.000000 0.000000 0.044560
#
#
# Mechanical properties :
#
#
# Convention : Reuss Voigt Hill
#
# Bulk Modulus (GPa) = 32.70499 37.58395 35.14447
# Shear Modulus (GPa) = 36.13421 41.41244 38.77332
#
# Velocity S-wave (km/s) = 4.31485 4.61925 4.46964
# Velocity P-wave (km/s) = 6.45561 6.91483 6.68916
#
# Compressibility (1/GPa) = 0.03057638
#
# Stress axis : x y z
#
# Youngs Moduli (GPa) = 89.17759 89.17807 142.81254
#
# Poissons Ratio (x) = -0.24204 0.15285
# Poissons Ratio (y) = -0.24203 0.15285
# Poissons Ratio (z) = 0.09544 0.09545
#
# Static dielectric constant tensor:
#      x y z
#    x 1.755570 0.000000 0.000000 
#    y 0.000000 1.755570 0.000000 
#    z 0.000000 0.000000 1.707730 
# 
# From -- ./inp_files/789.got.cif
#   From: 2010.05.17/outbox.cif.g08.bks.cpg/sg116_1_cif.got.tgz:789.got - 2010.05.20 11:11:43.
