data_PCOD9557593
_publ_section_title
;
Structure prediction by ZEFSAII (Michael W. Deem and Ramdas Pophale) SiO2 
 PCOD9557593
Probable space group: P -4 C 2
;
_chemical_formula_sum "Si O2"
_cell_formula_units_Z 42
_cell_length_a 10.350448
_cell_length_b 10.350448
_cell_length_c 16.106418
_cell_angle_alpha 90.000000
_cell_angle_beta 90.000000
_cell_angle_gamma 90.000000
_cell_volume 1725.509130
_symmetry_space_group_name_H-M "P -4 C 2"
_symmetry_group_IT_number 116
_symmetry_cell_setting 'tetragonal'
loop_
_space_group_symop_operation_xyz
x,y,z
y,-x,-z
-x,-y,z
-y,x,-z
y,x,1/2-z
-y,-x,1/2-z
-x,y,1/2+z
x,-y,1/2+z
loop_
_atom_site_type_symbol
_atom_site_label
_atom_site_fract_x
_atom_site_fract_y
_atom_site_fract_z
Si Si1 0.654868 0.026440 0.266545
Si Si2 0.300249 0.749568 0.832526
Si Si3 0.000000 0.000000 0.500000
Si Si4 0.967720 0.349230 0.912821
Si Si5 0.394483 0.677925 0.989875
Si Si6 0.142285 0.231774 0.575975
O O1 0.719326 0.893599 0.299535
O O2 0.690653 0.050542 0.170227
O O3 0.500000 0.000000 0.269470
O O4 0.705656 0.126657 0.334146
O O5 0.330946 0.669055 0.750000
O O6 0.173255 0.693650 0.876843
O O7 0.409359 0.747731 0.901937
O O8 0.910112 0.913314 0.559777
O O9 0.000000 0.500000 0.919023
O O10 0.951179 0.305205 0.008665
O O11 0.534056 0.658877 0.028450
O O12 0.288624 0.752214 0.043413
#
# Coordination Sequence:
#
# PCOD9557593 Si02
#       6
#     8   8   2   8   8   8
#     4  10  19  35  62  90 116 156 202 240 296 362
#     4   9  18  34  56  83 115 150 191 239 289 345
#     4  12  28  40  58  92 120 162 224 236 282 384
#     4   9  19  34  59  91 115 152 205 243 291 359
#     4  10  21  38  62  90 115 147 195 245 302 364
#     4  11  22  40  59  82 124 161 194 254 299 338
#
# _framework density 24.340641000000002
#
# number of rings (size 3 to 8) (size 9 to 14) (size 15 to 20)
#    0.000    2.095    0.000    4.000    0.000    4.571 
#    0.000    3.810    0.000    4.571    0.000    0.000 
#    0.000    0.000    0.000    0.000    0.000    0.000 
#
# Total GULP energy -234414.861572 kJ/mol
# GULP energy per Si atom -5581.306228 kJ/mol
# Density = 2.428524 g / cm^3
# Si number density = 24.340641 Si / 1000 Ang^3
#
#
#
# Elastic Constant Matrix: (Units=GPa)
#
#
# Indices 1 2 3 4 5 6 
#
# 1 84.3652 21.0634 10.6619 0.0000 0.0000 0.0000
# 2 21.0634 84.3653 10.6618 0.0000 0.0000 0.0000
# 3 10.6619 10.6618 146.3935 0.0000 0.0000 0.0000
# 4 0.0000 0.0000 0.0000 25.3952 0.0000 0.0000
# 5 0.0000 0.0000 0.0000 0.0000 25.3952 0.0000
# 6 0.0000 0.0000 0.0000 0.0000 0.0000 44.2076
#
#
#
# Elastic Compliance Matrix: (Units=1/GPa)
#
#
# Indices 1 2 3 4 5 6 
#
# 1 0.012712 -0.003085 -0.000701 0.000000 0.000000 0.000000
# 2 -0.003085 0.012712 -0.000701 0.000000 0.000000 0.000000
# 3 -0.000701 -0.000701 0.006933 0.000000 0.000000 0.000000
# 4 0.000000 0.000000 0.000000 0.039378 0.000000 0.000000
# 5 0.000000 0.000000 0.000000 0.000000 0.039378 0.000000
# 6 0.000000 0.000000 0.000000 0.000000 0.000000 0.022621
#
#
# Mechanical properties :
#
#
# Convention : Reuss Voigt Hill
#
# Bulk Modulus (GPa) = 42.76736 44.43312 43.60024
# Shear Modulus (GPa) = 33.22218 37.18207 35.20213
#
# Velocity S-wave (km/s) = 3.69844 3.91266 3.80706
# Velocity P-wave (km/s) = 5.98719 6.22143 6.10543
#
# Compressibility (1/GPa) = 0.02338232
#
# Stress axis : x y z
#
# Youngs Moduli (GPa) = 78.66509 78.66521 144.23709
#
# Poissons Ratio (x) = 0.24270 0.10113
# Poissons Ratio (y) = 0.24270 0.10113
# Poissons Ratio (z) = 0.05515 0.05515
#
# Static dielectric constant tensor:
#      x y z
#    x 2.006810 0.000000 0.000000 
#    y 0.000000 2.006810 0.000000 
#    z 0.000000 0.000000 1.974040 
# 
# From -- ./inp_files/3316.got.cif
#   From: 2010.05.17/outbox.cif.g08.bks.cpg/sg116_2_cif.got.tgz:3316.got - 2010.05.20 11:11:43.
