data_PCOD9557144
_publ_section_title
;
Structure prediction by ZEFSAII (Michael W. Deem and Ramdas Pophale) SiO2 
 PCOD9557144
Probable space group: P -4 M 2
;
_chemical_formula_sum "Si O2"
_cell_formula_units_Z 44
_cell_length_a 7.989476
_cell_length_b 7.989476
_cell_length_c 33.449555
_cell_angle_alpha 90.000000
_cell_angle_beta 90.000000
_cell_angle_gamma 90.000000
_cell_volume 2135.142855
_symmetry_space_group_name_H-M "P -4 M 2"
_symmetry_group_IT_number 115
_symmetry_cell_setting 'tetragonal'
loop_
_space_group_symop_operation_xyz
x,y,z
y,-x,-z
-x,-y,z
-y,x,-z
y,x,-z
-y,-x,-z
-x,y,z
x,-y,z
loop_
_atom_site_type_symbol
_atom_site_label
_atom_site_fract_x
_atom_site_fract_y
_atom_site_fract_z
Si Si1 0.294535 0.500000 0.732838
Si Si2 0.198367 0.198367 0.500000
Si Si3 0.190710 0.698008 0.412357
Si Si4 0.799861 0.190933 0.126767
Si Si5 0.705601 0.500000 0.640269
Si Si6 0.812347 0.697633 0.957078
Si Si7 0.809038 0.698874 0.214213
O O1 0.500000 0.500000 0.734351
O O2 0.245997 0.500000 0.686559
O O3 0.236194 0.667543 0.755744
O O4 0.278816 0.249829 0.541837
O O5 0.000000 0.228073 0.504028
O O6 0.177983 0.500000 0.404842
O O7 0.332483 0.764408 0.382593
O O8 0.000000 0.767874 0.408746
O O9 0.755452 0.272248 0.084180
O O10 0.749901 0.273044 0.168506
O O11 0.000000 0.184836 0.127853
O O12 0.733047 0.000000 0.126549
O O13 0.500000 0.500000 0.638678
O O14 0.823525 0.500000 0.953912
O O15 0.000000 0.772898 0.957385
O O16 0.736213 0.736213 0.000000
O O17 0.820388 0.500000 0.220506
O O18 0.000000 0.766710 0.218900
#
# Coordination Sequence:
#
# PCOD9557144 Si02
#       7
#     4   4   8   8   4   8   8
#     4   9  18  32  51  75 105 135 171 215 267 319
#     4   9  18  32  49  70  98 134 171 210 258 309
#     4   9  18  31  48  73 101 132 174 218 263 316
#     4   9  18  33  53  75  99 129 164 206 256 306
#     4   9  18  32  49  75 105 137 173 217 269 317
#     4  10  21  35  51  73 100 132 169 205 248 305
#     4   9  18  32  51  76 101 130 171 215 262 316
#
# _framework density 20.607521999999999
#
# number of rings (size 3 to 8) (size 9 to 14) (size 15 to 20)
#    0.000    2.818    0.000    0.545    2.545    2.545 
#    0.000    5.455    0.000    2.182    0.000    5.091 
#    0.000    0.000    0.000    0.000    0.000    0.000 
#
# Total GULP energy -245191.799122 kJ/mol
# GULP energy per Si atom -5572.540889 kJ/mol
# Density = 2.056062 g / cm^3
# Si number density = 20.607522 Si / 1000 Ang^3
#
#
#
# Elastic Constant Matrix: (Units=GPa)
#
#
# Indices 1 2 3 4 5 6 
#
# 1 46.4866 20.6215 54.0212 0.0000 0.0000 0.0000
# 2 20.6215 46.4866 54.0212 0.0000 0.0000 0.0000
# 3 54.0212 54.0212 195.4425 0.0000 0.0000 0.0000
# 4 0.0000 0.0000 0.0000 31.9055 0.0000 0.0000
# 5 0.0000 0.0000 0.0000 0.0000 31.9055 0.0000
# 6 0.0000 0.0000 0.0000 0.0000 0.0000 7.5378
#
#
#
# Elastic Compliance Matrix: (Units=1/GPa)
#
#
# Indices 1 2 3 4 5 6 
#
# 1 0.032756 -0.005906 -0.007421 0.000000 0.000000 0.000000
# 2 -0.005906 0.032756 -0.007421 0.000000 0.000000 0.000000
# 3 -0.007421 -0.007421 0.009219 0.000000 0.000000 0.000000
# 4 0.000000 0.000000 0.000000 0.031343 0.000000 0.000000
# 5 0.000000 0.000000 0.000000 0.000000 0.031343 0.000000
# 6 0.000000 0.000000 0.000000 0.000000 0.000000 0.132665
#
#
# Mechanical properties :
#
#
# Convention : Reuss Voigt Hill
#
# Bulk Modulus (GPa) = 30.09074 60.63816 45.36445
# Shear Modulus (GPa) = 15.49637 24.91990 20.20814
#
# Velocity S-wave (km/s) = 2.74519 3.48122 3.13488
# Velocity P-wave (km/s) = 4.96806 6.75630 5.92998
#
# Compressibility (1/GPa) = 0.03323281
#
# Stress axis : x y z
#
# Youngs Moduli (GPa) = 30.52898 30.52898 108.46983
#
# Poissons Ratio (x) = 0.18031 0.80499
# Poissons Ratio (y) = 0.18031 0.80499
# Poissons Ratio (z) = 0.22656 0.22656
#
# Static dielectric constant tensor:
#      x y z
#    x 1.758340 0.000000 0.000000 
#    y 0.000000 1.758340 0.000000 
#    z 0.000000 0.000000 1.736240 
# 
# From -- ./inp_files/5866.got.cif
#   From: 2010.05.17/outbox.cif.g08.bks.cpg/sg115_3_cif.got.tgz:5866.got - 2010.05.20 11:07:42.
