data_PCOD9557963
_publ_section_title
;
Structure prediction by ZEFSAII (Michael W. Deem and Ramdas Pophale) SiO2 
 PCOD9557963
Probable space group: P -4 C 2
;
_chemical_formula_sum "Si O2"
_cell_formula_units_Z 32
_cell_length_a 7.485432
_cell_length_b 7.485432
_cell_length_c 22.532251
_cell_angle_alpha 90.000000
_cell_angle_beta 90.000000
_cell_angle_gamma 90.000000
_cell_volume 1262.520153
_symmetry_space_group_name_H-M "P -4 C 2"
_symmetry_group_IT_number 116
_symmetry_cell_setting 'tetragonal'
loop_
_space_group_symop_operation_xyz
x,y,z
y,-x,-z
-x,-y,z
-y,x,-z
y,x,1/2-z
-y,-x,1/2-z
-x,y,1/2+z
x,-y,1/2+z
loop_
_atom_site_type_symbol
_atom_site_label
_atom_site_fract_x
_atom_site_fract_y
_atom_site_fract_z
Si Si1 0.249944 0.382303 0.687021
Si Si2 0.311197 0.910978 0.106171
Si Si3 0.748610 0.333336 0.510046
Si Si4 0.144909 0.260135 0.144893
O O1 0.312032 0.312032 0.750000
O O2 0.354429 0.277774 0.636365
O O3 0.261592 0.594436 0.680517
O O4 0.050808 0.309456 0.669797
O O5 0.239488 0.866966 0.040967
O O6 0.500000 0.000000 0.099006
O O7 0.199900 0.052404 0.145831
O O8 0.545713 0.262657 0.503941
O O9 0.829195 0.308085 0.575382
#
# Coordination Sequence:
#
# PCOD9557963 Si02
#       4
#     8   8   8   8
#     4  11  28  53  74 107 159 212 278 340 400 483
#     4  12  26  44  75 116 154 204 264 327 416 480
#     4  11  23  45  74 116 170 208 262 331 410 501
#     4  11  26  48  79 114 155 214 268 336 408 486
#
# _framework density 25.346126999999999
#
# number of rings (size 3 to 8) (size 9 to 14) (size 15 to 20)
#    0.000    0.750    5.000    0.750   10.500    3.000 
#    0.000    1.250    0.000    0.000    0.000    0.000 
#    0.000    0.000    0.000    0.000    0.000    0.000 
#
# Total GULP energy -179087.985510 kJ/mol
# GULP energy per Si atom -5596.499547 kJ/mol
# Density = 2.528844 g / cm^3
# Si number density = 25.346127 Si / 1000 Ang^3
#
#
#
# Elastic Constant Matrix: (Units=GPa)
#
#
# Indices 1 2 3 4 5 6 
#
# 1 98.0017 41.6728 17.8018 0.0000 0.0000 0.0000
# 2 41.6728 98.0017 17.8018 0.0000 0.0000 0.0000
# 3 17.8018 17.8018 131.5403 0.0000 0.0000 0.0000
# 4 0.0000 0.0000 0.0000 43.3193 0.0000 0.0000
# 5 0.0000 0.0000 0.0000 0.0000 43.3193 0.0000
# 6 0.0000 0.0000 0.0000 0.0000 0.0000 43.3472
#
#
#
# Elastic Compliance Matrix: (Units=1/GPa)
#
#
# Indices 1 2 3 4 5 6 
#
# 1 0.012584 -0.005169 -0.001004 0.000000 0.000000 0.000000
# 2 -0.005169 0.012584 -0.001004 0.000000 0.000000 0.000000
# 3 -0.001004 -0.001004 0.007874 0.000000 0.000000 0.000000
# 4 0.000000 0.000000 0.000000 0.023084 0.000000 0.000000
# 5 0.000000 0.000000 0.000000 0.000000 0.023084 0.000000
# 6 0.000000 0.000000 0.000000 0.000000 0.000000 0.023070
#
#
# Mechanical properties :
#
#
# Convention : Reuss Voigt Hill
#
# Bulk Modulus (GPa) = 53.50365 53.56629 53.53497
# Shear Modulus (GPa) = 40.69600 42.68165 41.68883
#
# Velocity S-wave (km/s) = 4.01135 4.10805 4.05999
# Velocity P-wave (km/s) = 6.52761 6.60918 6.56852
#
# Compressibility (1/GPa) = 0.01869031
#
# Stress axis : x y z
#
# Youngs Moduli (GPa) = 79.46542 79.46542 127.00253
#
# Poissons Ratio (x) = 0.41074 0.12745
# Poissons Ratio (y) = 0.41074 0.12745
# Poissons Ratio (z) = 0.07975 0.07975
#
# Static dielectric constant tensor:
#      x y z
#    x 1.961370 0.000000 0.000000 
#    y 0.000000 1.961370 0.000000 
#    z 0.000000 0.000000 1.962500 
# 
# From -- ./inp_files/3778.got.cif
#   From: 2010.05.17/outbox.cif.g08.bks.cpg/sg116_2_cif.got.tgz:3778.got - 2010.05.20 11:11:43.
