data_PCOD9557093
_publ_section_title
;
Structure prediction by ZEFSAII (Michael W. Deem and Ramdas Pophale) SiO2 
 PCOD9557093
Probable space group: P -4 M 2
;
_chemical_formula_sum "Si O2"
_cell_formula_units_Z 33
_cell_length_a 11.292213
_cell_length_b 11.292213
_cell_length_c 13.720089
_cell_angle_alpha 90.000000
_cell_angle_beta 90.000000
_cell_angle_gamma 90.000000
_cell_volume 1749.504450
_symmetry_space_group_name_H-M "P -4 M 2"
_symmetry_group_IT_number 115
_symmetry_cell_setting 'tetragonal'
loop_
_space_group_symop_operation_xyz
x,y,z
y,-x,-z
-x,-y,z
-y,x,-z
y,x,-z
-y,-x,-z
-x,y,z
x,-y,z
loop_
_atom_site_type_symbol
_atom_site_label
_atom_site_fract_x
_atom_site_fract_y
_atom_site_fract_z
Si Si1 0.265739 0.862147 0.414777
Si Si2 0.500000 0.500000 0.000000
Si Si3 0.859799 0.129913 0.218010
Si Si4 0.500000 0.242700 0.070885
Si Si5 0.136705 0.713932 0.055312
Si Si6 0.141974 0.500000 0.709562
O O1 0.225010 0.774991 0.500000
O O2 0.165305 0.859848 0.331675
O O3 0.384588 0.829196 0.355313
O O4 0.277747 0.000000 0.448182
O O5 0.500000 0.383760 0.066266
O O6 0.815272 0.246734 0.161263
O O7 0.000000 0.126159 0.199553
O O8 0.807609 0.000000 0.188775
O O9 0.500000 0.196427 0.181753
O O10 0.387044 0.198361 0.008038
O O11 0.000000 0.682261 0.061267
O O12 0.162337 0.837664 0.000000
O O13 0.000000 0.500000 0.723857
#
# Coordination Sequence:
#
# PCOD9557093 Si02
#       6
#     8   1   8   4   8   4
#     4  10  20  36  59  87 118 155 198 248 305 364
#     4  12  28  44  64  84 114 164 220 260 284 352
#     4   9  18  32  53  86 122 152 188 240 307 379
#     4  12  24  44  61  85 120 166 217 258 308 361
#     4  11  21  34  56  85 119 156 198 248 309 376
#     4  10  22  40  64  91 120 156 201 252 308 372
#
# _framework density 18.862483000000001
#
# number of rings (size 3 to 8) (size 9 to 14) (size 15 to 20)
#    0.000    1.697    1.212    4.000    0.000    4.364 
#    0.000    2.424    0.000    2.909    0.000    0.000 
#    0.000    0.000    0.000    0.000    0.000    0.000 
#
# Total GULP energy -183820.788603 kJ/mol
# GULP energy per Si atom -5570.326927 kJ/mol
# Density = 1.881955 g / cm^3
# Si number density = 18.862483 Si / 1000 Ang^3
#
#
#
# Elastic Constant Matrix: (Units=GPa)
#
#
# Indices 1 2 3 4 5 6 
#
# 1 95.1083 42.1428 64.3195 0.0000 0.0000 0.0000
# 2 42.1428 95.1073 64.3208 0.0000 0.0000 0.0000
# 3 64.3195 64.3208 130.6154 0.0000 0.0000 0.0000
# 4 0.0000 0.0000 0.0000 29.4011 0.0000 0.0000
# 5 0.0000 0.0000 0.0000 0.0000 29.4011 0.0000
# 6 0.0000 0.0000 0.0000 0.0000 0.0000 23.1172
#
#
#
# Elastic Compliance Matrix: (Units=1/GPa)
#
#
# Indices 1 2 3 4 5 6 
#
# 1 0.016206 -0.002675 -0.006663 0.000000 0.000000 0.000000
# 2 -0.002675 0.016206 -0.006664 0.000000 0.000000 0.000000
# 3 -0.006663 -0.006664 0.014219 0.000000 0.000000 0.000000
# 4 0.000000 0.000000 0.000000 0.034012 0.000000 0.000000
# 5 0.000000 0.000000 0.000000 0.000000 0.034012 0.000000
# 6 0.000000 0.000000 0.000000 0.000000 0.000000 0.043258
#
#
# Mechanical properties :
#
#
# Convention : Reuss Voigt Hill
#
# Bulk Modulus (GPa) = 68.36279 73.59969 70.98124
# Shear Modulus (GPa) = 25.66852 26.38707 26.02780
#
# Velocity S-wave (km/s) = 3.69294 3.74427 3.71869
# Velocity P-wave (km/s) = 7.38276 7.60240 7.49339
#
# Compressibility (1/GPa) = 0.01462784
#
# Stress axis : x y z
#
# Youngs Moduli (GPa) = 61.70736 61.70510 70.33036
#
# Poissons Ratio (x) = 0.16504 0.46862
# Poissons Ratio (y) = 0.16504 0.46865
# Poissons Ratio (z) = 0.41116 0.41117
#
# Static dielectric constant tensor:
#      x y z
#    x 1.701140 0.000000 0.000000 
#    y 0.000000 1.701140 0.000000 
#    z 0.000000 0.000000 1.693390 
# 
# From -- ./inp_files/2588.got.cif
#   From: 2010.05.17/outbox.cif.g08.bks.cpg/sg115_2_cif.got.tgz:2588.got - 2010.05.20 11:07:42.
