data_PCOD9557967
_publ_section_title
;
Structure prediction by ZEFSAII (Michael W. Deem and Ramdas Pophale) SiO2 
 PCOD9557967
Probable space group: P -4 C 2
;
_chemical_formula_sum "Si O2"
_cell_formula_units_Z 34
_cell_length_a 9.302372
_cell_length_b 9.302372
_cell_length_c 17.306753
_cell_angle_alpha 90.000000
_cell_angle_beta 90.000000
_cell_angle_gamma 90.000000
_cell_volume 1497.624724
_symmetry_space_group_name_H-M "P -4 C 2"
_symmetry_group_IT_number 116
_symmetry_cell_setting 'tetragonal'
loop_
_space_group_symop_operation_xyz
x,y,z
y,-x,-z
-x,-y,z
-y,x,-z
y,x,1/2-z
-y,-x,1/2-z
-x,y,1/2+z
x,-y,1/2+z
loop_
_atom_site_type_symbol
_atom_site_label
_atom_site_fract_x
_atom_site_fract_y
_atom_site_fract_z
Si Si1 0.000000 0.000000 0.500000
Si Si2 0.645686 0.063212 0.806460
Si Si3 0.305254 0.133986 0.140240
Si Si4 0.844516 0.825515 0.618314
Si Si5 0.608150 0.295548 0.494579
O O1 0.036232 0.134925 0.553210
O O2 0.738397 0.190331 0.844508
O O3 0.608683 0.118370 0.720420
O O4 0.500000 0.000000 0.843700
O O5 0.756572 0.929515 0.810524
O O6 0.386199 0.177133 0.062307
O O7 0.230405 0.978411 0.131283
O O8 0.746308 0.706319 0.578020
O O9 0.444716 0.327900 0.472695
#
# Coordination Sequence:
#
# PCOD9557967 Si02
#       5
#     2   8   8   8   8
#     4  12  20  36  66 104 128 168 226 288 344 392
#     4  11  24  41  66  99 143 184 226 287 364 421
#     4  11  24  43  66 102 139 177 239 291 345 434
#     4  12  21  41  68  99 135 178 228 294 351 413
#     4  11  26  45  70 101 141 186 237 295 360 431
#
# _framework density 22.702615999999999
#
# number of rings (size 3 to 8) (size 9 to 14) (size 15 to 20)
#    0.000    0.706    4.706    2.118    3.294    1.882 
#    0.000    0.000    0.000    2.824    0.000    0.000 
#    0.000    0.000    0.000    0.000    0.000    0.000 
#
# Total GULP energy -189866.631192 kJ/mol
# GULP energy per Si atom -5584.312682 kJ/mol
# Density = 2.265094 g / cm^3
# Si number density = 22.702616 Si / 1000 Ang^3
#
#
#
# Elastic Constant Matrix: (Units=GPa)
#
#
# Indices 1 2 3 4 5 6 
#
# 1 82.2036 25.0371 8.8698 0.0000 0.0000 0.0000
# 2 25.0371 82.2036 8.8698 0.0000 0.0000 0.0000
# 3 8.8698 8.8698 55.1526 0.0000 0.0000 0.0000
# 4 0.0000 0.0000 0.0000 23.3720 0.0000 0.0000
# 5 0.0000 0.0000 0.0000 0.0000 23.3720 0.0000
# 6 0.0000 0.0000 0.0000 0.0000 0.0000 41.3204
#
#
#
# Elastic Compliance Matrix: (Units=1/GPa)
#
#
# Indices 1 2 3 4 5 6 
#
# 1 0.013536 -0.003957 -0.001541 0.000000 0.000000 0.000000
# 2 -0.003957 0.013536 -0.001541 0.000000 0.000000 0.000000
# 3 -0.001541 -0.001541 0.018627 0.000000 0.000000 0.000000
# 4 0.000000 0.000000 0.000000 0.042786 0.000000 0.000000
# 5 0.000000 0.000000 0.000000 0.000000 0.042786 0.000000
# 6 0.000000 0.000000 0.000000 0.000000 0.000000 0.024201
#
#
# Mechanical properties :
#
#
# Convention : Reuss Voigt Hill
#
# Bulk Modulus (GPa) = 31.62172 33.90150 32.76161
# Shear Modulus (GPa) = 27.76388 29.39841 28.58115
#
# Velocity S-wave (km/s) = 3.50085 3.60242 3.55200
# Velocity P-wave (km/s) = 5.50456 5.68054 5.59324
#
# Compressibility (1/GPa) = 0.03162383
#
# Stress axis : x y z
#
# Youngs Moduli (GPa) = 73.87589 73.87589 53.68539
#
# Poissons Ratio (x) = 0.29229 0.08271
# Poissons Ratio (y) = 0.29229 0.08271
# Poissons Ratio (z) = 0.11382 0.11382
#
# Static dielectric constant tensor:
#      x y z
#    x 1.845180 0.000000 0.000000 
#    y 0.000000 1.845180 0.000000 
#    z 0.000000 0.000000 1.916000 
# 
# From -- ./inp_files/3880.got.cif
#   From: 2010.05.17/outbox.cif.g08.bks.cpg/sg116_2_cif.got.tgz:3880.got - 2010.05.20 11:11:43.
