data_PCOD9557587
_publ_section_title
;
Structure prediction by ZEFSAII (Michael W. Deem and Ramdas Pophale) SiO2 
 PCOD9557587
Probable space group: P -4 C 2
;
_chemical_formula_sum "Si O2"
_cell_formula_units_Z 36
_cell_length_a 11.067297
_cell_length_b 11.067297
_cell_length_c 17.599705
_cell_angle_alpha 90.000000
_cell_angle_beta 90.000000
_cell_angle_gamma 90.000000
_cell_volume 2155.700974
_symmetry_space_group_name_H-M "P -4 C 2"
_symmetry_group_IT_number 116
_symmetry_cell_setting 'tetragonal'
loop_
_space_group_symop_operation_xyz
x,y,z
y,-x,-z
-x,-y,z
-y,x,-z
y,x,1/2-z
-y,-x,1/2-z
-x,y,1/2+z
x,-y,1/2+z
loop_
_atom_site_type_symbol
_atom_site_label
_atom_site_fract_x
_atom_site_fract_y
_atom_site_fract_z
Si Si1 0.237511 0.153014 0.333615
Si Si2 0.703265 0.481624 0.626836
Si Si3 0.628412 0.066022 0.400953
Si Si4 0.500000 0.500000 0.500000
Si Si5 0.175540 0.065244 0.024970
Si Si6 0.500000 0.500000 0.250000
O O1 0.192983 0.192983 0.250000
O O2 0.352027 0.232539 0.361443
O O3 0.129748 0.172562 0.393948
O O4 0.288297 0.015597 0.344752
O O5 0.801514 0.588441 0.624916
O O6 0.617977 0.483964 0.552753
O O7 0.616362 0.499904 0.697555
O O8 0.699394 0.072744 0.480336
O O9 0.500000 0.000000 0.410943
O O10 0.073737 0.133496 0.974313
#
# Coordination Sequence:
#
# PCOD9557587 Si02
#       6
#     8   8   8   2   8   2
#     4  10  19  35  57  76 109 145 178 228 288 332
#     4  10  19  35  52  79 108 142 184 225 273 331
#     4   9  19  35  55  76 106 144 184 227 269 328
#     4  10  20  30  60  82 104 150 192 222 276 342
#     4   9  18  35  55  78 105 139 180 229 274 328
#     4  10  20  34  52  74 110 144 164 226 284 314
#
# _framework density 16.699902999999999
#
# number of rings (size 3 to 8) (size 9 to 14) (size 15 to 20)
#    0.000    2.444    1.111    1.333    0.000    0.000 
#    4.000   11.111    0.000    0.000    0.000    0.000 
#    0.000    0.000    0.000    0.000    0.000    0.000 
#
# Total GULP energy -200540.826875 kJ/mol
# GULP energy per Si atom -5570.578524 kJ/mol
# Density = 1.666189 g / cm^3
# Si number density = 16.699903 Si / 1000 Ang^3
#
#
#
# Elastic Constant Matrix: (Units=GPa)
#
#
# Indices 1 2 3 4 5 6 
#
# 1 81.2265 26.8627 53.8947 0.0000 0.0000 0.0000
# 2 26.8627 81.2265 53.8947 0.0000 0.0000 0.0000
# 3 53.8947 53.8947 118.0866 0.0000 0.0000 0.0000
# 4 0.0000 0.0000 0.0000 -27.3788 0.0000 0.0000
# 5 0.0000 0.0000 0.0000 0.0000 -27.3788 0.0000
# 6 0.0000 0.0000 0.0000 0.0000 0.0000 11.6770
#
#
#
# Elastic Compliance Matrix: (Units=1/GPa)
#
#
# Indices 1 2 3 4 5 6 
#
# 1 0.017687 -0.000707 -0.007750 0.000000 0.000000 0.000000
# 2 -0.000707 0.017687 -0.007750 0.000000 0.000000 0.000000
# 3 -0.007750 -0.007750 0.015542 0.000000 0.000000 0.000000
# 4 0.000000 0.000000 0.000000 -0.036525 0.000000 0.000000
# 5 0.000000 0.000000 0.000000 0.000000 -0.036525 0.000000
# 6 0.000000 0.000000 0.000000 0.000000 0.000000 0.085638
#
#
# Mechanical properties :
#
#
# Convention : Reuss Voigt Hill
#
# Bulk Modulus (GPa) = 54.04426 61.09377 57.56901
# Shear Modulus (GPa) = 48.97823 1.10972 25.04397
#
# Velocity S-wave (km/s) = 5.42145 0.81606 3.87673
# Velocity P-wave (km/s) = 8.46296 6.12786 7.38825
#
# Compressibility (1/GPa) = 0.01850335
#
# Stress axis : x y z
#
# Youngs Moduli (GPa) = 56.53837 56.53837 64.34133
#
# Poissons Ratio (x) = 0.04000 0.49861
# Poissons Ratio (y) = 0.04000 0.49861
# Poissons Ratio (z) = 0.43814 0.43814
#
# Static dielectric constant tensor:
#      x y z
#    x 1.624250 0.000000 0.000000 
#    y 0.000000 1.624250 0.000000 
#    z 0.000000 0.000000 1.526390 
# 
# From -- ./inp_files/3259.got.cif
#   From: 2010.05.17/outbox.cif.g08.bks.cpg/sg116_2_cif.got.tgz:3259.got - 2010.05.20 11:11:43.
