data_PCOD9557626
_publ_section_title
;
Structure prediction by ZEFSAII (Michael W. Deem and Ramdas Pophale) SiO2 
 PCOD9557626
Probable space group: P -4 C 2
;
_chemical_formula_sum "Si O2"
_cell_formula_units_Z 48
_cell_length_a 10.114372
_cell_length_b 10.114372
_cell_length_c 23.608276
_cell_angle_alpha 90.000000
_cell_angle_beta 90.000000
_cell_angle_gamma 90.000000
_cell_volume 2415.138934
_symmetry_space_group_name_H-M "P -4 C 2"
_symmetry_group_IT_number 116
_symmetry_cell_setting 'tetragonal'
loop_
_space_group_symop_operation_xyz
x,y,z
y,-x,-z
-x,-y,z
-y,x,-z
y,x,1/2-z
-y,-x,1/2-z
-x,y,1/2+z
x,-y,1/2+z
loop_
_atom_site_type_symbol
_atom_site_label
_atom_site_fract_x
_atom_site_fract_y
_atom_site_fract_z
Si Si1 0.881516 0.201146 0.912833
Si Si2 0.803681 0.418504 0.753230
Si Si3 0.757288 0.178850 0.134883
Si Si4 0.000000 0.000000 0.250000
Si Si5 0.978062 0.739829 0.172939
Si Si6 0.299353 0.299353 0.750000
Si Si7 0.000000 0.000000 0.500000
Si Si8 0.154122 0.476558 0.386678
O O1 0.778502 0.136289 0.870130
O O2 0.822158 0.346530 0.924101
O O3 0.028120 0.212433 0.883324
O O4 0.911419 0.100653 0.963431
O O5 0.702758 0.297243 0.750000
O O6 0.928828 0.374254 0.715212
O O7 0.729929 0.550875 0.730865
O O8 0.832010 0.438143 0.820105
O O9 0.720849 0.192754 0.200920
O O10 0.620046 0.221111 0.104440
O O11 0.888682 0.268967 0.134840
O O12 0.002678 0.129322 0.211112
O O13 0.000000 0.500000 0.395863
#
# Coordination Sequence:
#
# PCOD9557626 Si02
#       8
#     8   8   8   2   8   4   2   8
#     4  11  20  37  54  83 111 142 186 257 324 366
#     4  11  21  33  52  78 122 167 212 232 274 351
#     4  10  20  34  52  79 120 153 194 231 298 359
#     4  12  16  24  44  78 116 140 184 224 302 336
#     4  12  20  29  54  82 113 153 193 247 293 359
#     4  10  24  34  49  79 124 178 206 232 268 360
#     4  12  22  36  64  86 100 132 198 272 328 382
#     4   9  20  34  50  78 117 160 184 221 301 371
#
# _framework density 19.874631000000001
#
# number of rings (size 3 to 8) (size 9 to 14) (size 15 to 20)
#    0.000    1.333    5.833    0.750    9.333    0.000 
#    0.000    0.000    0.000    6.000    0.000    0.000 
#    0.000    0.000    0.000    0.000    0.000    0.000 
#
# Total GULP energy -267328.244893 kJ/mol
# GULP energy per Si atom -5569.338435 kJ/mol
# Density = 1.982940 g / cm^3
# Si number density = 19.874631 Si / 1000 Ang^3
#
#
#
# Elastic Constant Matrix: (Units=GPa)
#
#
# Indices 1 2 3 4 5 6 
#
# 1 90.7218 28.0847 5.9403 0.0000 0.0000 0.0000
# 2 28.0847 90.7199 5.9398 0.0000 0.0000 0.0000
# 3 5.9403 5.9398 23.0692 0.0000 0.0000 0.0000
# 4 0.0000 0.0000 0.0000 10.4899 0.0000 0.0000
# 5 0.0000 0.0000 0.0000 0.0000 10.4899 0.0000
# 6 0.0000 0.0000 0.0000 0.0000 0.0000 31.4502
#
#
#
# Elastic Compliance Matrix: (Units=1/GPa)
#
#
# Indices 1 2 3 4 5 6 
#
# 1 0.012302 -0.003663 -0.002225 0.000000 0.000000 0.000000
# 2 -0.003663 0.012303 -0.002224 0.000000 0.000000 0.000000
# 3 -0.002225 -0.002224 0.044493 0.000000 0.000000 0.000000
# 4 0.000000 0.000000 0.000000 0.095330 0.000000 0.000000
# 5 0.000000 0.000000 0.000000 0.000000 0.095330 0.000000
# 6 0.000000 0.000000 0.000000 0.000000 0.000000 0.031796
#
#
# Mechanical properties :
#
#
# Convention : Reuss Voigt Hill
#
# Bulk Modulus (GPa) = 18.91280 31.60448 25.25864
# Shear Modulus (GPa) = 15.36556 21.45574 18.41065
#
# Velocity S-wave (km/s) = 2.78353 3.28922 3.04688
# Velocity P-wave (km/s) = 4.45729 5.51015 5.01144
#
# Compressibility (1/GPa) = 0.05287424
#
# Stress axis : x y z
#
# Youngs Moduli (GPa) = 81.28573 81.28428 22.47525
#
# Poissons Ratio (x) = 0.29773 0.05000
# Poissons Ratio (y) = 0.29774 0.04999
# Poissons Ratio (z) = 0.18084 0.18081
#
# Static dielectric constant tensor:
#      x y z
#    x 1.790700 0.000000 0.000000 
#    y 0.000000 1.790700 0.000000 
#    z 0.000000 0.000000 1.705840 
# 
# From -- ./inp_files/4106.got.cif
#   From: 2010.05.17/outbox.cif.g08.bks.cpg/sg116_3_cif.got.tgz:4106.got - 2010.05.20 11:11:43.
