data_PCOD9557869
_publ_section_title
;
Structure prediction by ZEFSAII (Michael W. Deem and Ramdas Pophale) SiO2 
 PCOD9557869
Probable space group: P -4 C 2
;
_chemical_formula_sum "Si O2"
_cell_formula_units_Z 26
_cell_length_a 10.098090
_cell_length_b 10.098090
_cell_length_c 9.249363
_cell_angle_alpha 90.000000
_cell_angle_beta 90.000000
_cell_angle_gamma 90.000000
_cell_volume 943.170694
_symmetry_space_group_name_H-M "P -4 C 2"
_symmetry_group_IT_number 116
_symmetry_cell_setting 'tetragonal'
loop_
_space_group_symop_operation_xyz
x,y,z
y,-x,-z
-x,-y,z
-y,x,-z
y,x,1/2-z
-y,-x,1/2-z
-x,y,1/2+z
x,-y,1/2+z
loop_
_atom_site_type_symbol
_atom_site_label
_atom_site_fract_x
_atom_site_fract_y
_atom_site_fract_z
Si Si1 0.675665 0.080774 0.894063
Si Si2 0.000000 0.000000 0.000000
Si Si3 0.876977 0.123024 0.250000
Si Si4 0.000000 0.500000 0.843440
Si Si5 0.370248 0.639976 0.916704
O O1 0.564974 0.102023 0.768792
O O2 0.726216 0.231483 0.918209
O O3 0.755099 0.951547 0.834367
O O4 0.609250 0.050084 0.046249
O O5 0.885391 0.021712 0.114451
O O6 0.394903 0.605098 0.750000
O O7 0.510224 0.676650 0.995425
#
# Coordination Sequence:
#
# PCOD9557869 Si02
#       5
#     8   2   4   4   8
#     4  11  24  48  76 116 163 217 275 343 420 509
#     4  10  24  42  68 114 136 202 276 310 420 470
#     4  11  24  46  76 114 160 209 270 337 420 498
#     4  10  24  48  74 118 156 214 274 330 436 472
#     4  11  24  45  78 118 164 216 279 342 426 498
#
# _framework density 27.566590999999999
#
# number of rings (size 3 to 8) (size 9 to 14) (size 15 to 20)
#    0.000    1.231    0.000    5.538    4.308    0.000 
#   27.692    0.000    6.769    0.000    0.000    0.000 
#    0.000    0.000    0.000    0.154    0.000    0.000 
#
# Total GULP energy -144814.913187 kJ/mol
# GULP energy per Si atom -5569.804353 kJ/mol
# Density = 2.750385 g / cm^3
# Si number density = 27.566591 Si / 1000 Ang^3
#
#
#
# Elastic Constant Matrix: (Units=GPa)
#
#
# Indices 1 2 3 4 5 6 
#
# 1 130.2270 63.7833 49.0139 0.0000 0.0000 0.0000
# 2 63.7833 130.2278 49.0134 0.0000 0.0000 0.0000
# 3 49.0139 49.0134 275.9372 0.0000 0.0000 0.0000
# 4 0.0000 0.0000 0.0000 31.8612 0.0000 0.0000
# 5 0.0000 0.0000 0.0000 0.0000 31.8610 0.0000
# 6 0.0000 0.0000 0.0000 0.0000 0.0000 32.2977
#
#
#
# Elastic Compliance Matrix: (Units=1/GPa)
#
#
# Indices 1 2 3 4 5 6 
#
# 1 0.010356 -0.004694 -0.001006 0.000000 0.000000 0.000000
# 2 -0.004694 0.010356 -0.001006 0.000000 0.000000 0.000000
# 3 -0.001006 -0.001006 0.003981 0.000000 0.000000 0.000000
# 4 0.000000 0.000000 0.000000 0.031386 0.000000 0.000000
# 5 0.000000 0.000000 0.000000 0.000000 0.031386 0.000000
# 6 0.000000 0.000000 0.000000 0.000000 0.000000 0.030962
#
#
# Mechanical properties :
#
#
# Convention : Reuss Voigt Hill
#
# Bulk Modulus (GPa) = 88.62747 95.55701 92.09224
# Shear Modulus (GPa) = 36.87296 44.17605 40.52450
#
# Velocity S-wave (km/s) = 3.66128 4.00749 3.83829
# Velocity P-wave (km/s) = 7.07767 7.49351 7.28856
#
# Compressibility (1/GPa) = 0.01128318
#
# Stress axis : x y z
#
# Youngs Moduli (GPa) = 96.55817 96.55894 251.17216
#
# Poissons Ratio (x) = 0.45323 0.25264
# Poissons Ratio (y) = 0.45323 0.25263
# Poissons Ratio (z) = 0.09712 0.09712
#
# Static dielectric constant tensor:
#      x y z
#    x 2.591830 0.000000 0.000000 
#    y 0.000000 2.591840 0.000000 
#    z 0.000000 0.000000 2.018370 
# 
# From -- ./inp_files/540.got.cif
#   From: 2010.05.17/outbox.cif.g08.bks.cpg/sg116_1_cif.got.tgz:540.got - 2010.05.20 11:11:43.
