data_PCOD9557920
_publ_section_title
;
Structure prediction by ZEFSAII (Michael W. Deem and Ramdas Pophale) SiO2 
 PCOD9557920
Probable space group: P -4 C 2
;
_chemical_formula_sum "Si O2"
_cell_formula_units_Z 34
_cell_length_a 13.629653
_cell_length_b 13.629653
_cell_length_c 9.408432
_cell_angle_alpha 90.000000
_cell_angle_beta 90.000000
_cell_angle_gamma 90.000000
_cell_volume 1747.780336
_symmetry_space_group_name_H-M "P -4 C 2"
_symmetry_group_IT_number 116
_symmetry_cell_setting 'tetragonal'
loop_
_space_group_symop_operation_xyz
x,y,z
y,-x,-z
-x,-y,z
-y,x,-z
y,x,1/2-z
-y,-x,1/2-z
-x,y,1/2+z
x,-y,1/2+z
loop_
_atom_site_type_symbol
_atom_site_label
_atom_site_fract_x
_atom_site_fract_y
_atom_site_fract_z
Si Si1 0.000000 0.000000 0.500000
Si Si2 0.586001 0.752031 0.230270
Si Si3 0.805562 0.918967 0.645684
Si Si4 0.105283 0.259714 0.178071
Si Si5 0.528116 0.340978 0.466477
O O1 0.088163 0.040026 0.595870
O O2 0.671650 0.671650 0.250000
O O3 0.633546 0.850480 0.287725
O O4 0.496282 0.705168 0.315897
O O5 0.559602 0.748130 0.066468
O O6 0.827327 0.827327 0.750000
O O7 0.755592 0.898548 0.492590
O O8 0.754897 0.001984 0.742320
O O9 0.177937 0.177937 0.250000
O O10 0.427971 0.392391 0.524707
#
# Coordination Sequence:
#
# PCOD9557920 Si02
#       5
#     2   8   8   8   8
#     4  12  18  28  54  80  98 140 178 220 262 308
#     4   9  19  32  53  81 110 136 168 224 272 314
#     4  12  20  32  54  78 108 145 183 224 268 315
#     4  11  20  34  50  79 112 138 181 228 270 315
#     4   9  16  32  57  84 106 132 170 213 269 332
#
# _framework density 19.453244999999999
#
# number of rings (size 3 to 8) (size 9 to 14) (size 15 to 20)
#    0.000    1.647    4.706    1.059    0.000    2.824 
#    0.000    9.412    0.000    4.235    0.000    0.000 
#    0.000    0.000    0.000    0.000    0.000    0.000 
#
# Total GULP energy -189484.797780 kJ/mol
# GULP energy per Si atom -5573.082288 kJ/mol
# Density = 1.940897 g / cm^3
# Si number density = 19.453245 Si / 1000 Ang^3
#
#
#
# Elastic Constant Matrix: (Units=GPa)
#
#
# Indices 1 2 3 4 5 6 
#
# 1 25.3097 18.7551 28.0084 0.0000 0.0000 0.0000
# 2 18.7551 25.3097 28.0084 0.0000 0.0000 0.0000
# 3 28.0084 28.0084 133.6384 0.0000 0.0000 0.0000
# 4 0.0000 0.0000 0.0000 4.2969 0.0000 0.0000
# 5 0.0000 0.0000 0.0000 0.0000 4.2969 0.0000
# 6 0.0000 0.0000 0.0000 0.0000 0.0000 23.0292
#
#
#
# Elastic Compliance Matrix: (Units=1/GPa)
#
#
# Indices 1 2 3 4 5 6 
#
# 1 0.091751 -0.060814 -0.006484 0.000000 0.000000 0.000000
# 2 -0.060814 0.091751 -0.006484 0.000000 0.000000 0.000000
# 3 -0.006484 -0.006484 0.010201 0.000000 0.000000 0.000000
# 4 0.000000 0.000000 0.000000 0.232726 0.000000 0.000000
# 5 0.000000 0.000000 0.000000 0.000000 0.232726 0.000000
# 6 0.000000 0.000000 0.000000 0.000000 0.000000 0.043423
#
#
# Mechanical properties :
#
#
# Convention : Reuss Voigt Hill
#
# Bulk Modulus (GPa) = 21.67404 37.08908 29.38156
# Shear Modulus (GPa) = 5.77686 13.62365 9.70026
#
# Velocity S-wave (km/s) = 1.72513 2.64924 2.23546
# Velocity P-wave (km/s) = 3.89023 5.33527 4.66899
#
# Compressibility (1/GPa) = 0.04613816
#
# Stress axis : x y z
#
# Youngs Moduli (GPa) = 10.89910 10.89910 98.03305
#
# Poissons Ratio (x) = 0.66282 0.63562
# Poissons Ratio (y) = 0.66282 0.63562
# Poissons Ratio (z) = 0.07067 0.07067
#
# Static dielectric constant tensor:
#      x y z
#    x 1.702440 0.000000 0.000000 
#    y 0.000000 1.702440 0.000000 
#    z 0.000000 0.000000 1.695780 
# 
# From -- ./inp_files/658.got.cif
#   From: 2010.05.17/outbox.cif.g08.bks.cpg/sg116_1_cif.got.tgz:658.got - 2010.05.20 11:11:43.
