data_PCOD9557715
_publ_section_title
;
Structure prediction by ZEFSAII (Michael W. Deem and Ramdas Pophale) SiO2 
 PCOD9557715
Probable space group: P -4 C 2
;
_chemical_formula_sum "Si O2"
_cell_formula_units_Z 32
_cell_length_a 13.533299
_cell_length_b 13.533299
_cell_length_c 8.191158
_cell_angle_alpha 90.000000
_cell_angle_beta 90.000000
_cell_angle_gamma 90.000000
_cell_volume 1500.212077
_symmetry_space_group_name_H-M "P -4 C 2"
_symmetry_group_IT_number 116
_symmetry_cell_setting 'tetragonal'
loop_
_space_group_symop_operation_xyz
x,y,z
y,-x,-z
-x,-y,z
-y,x,-z
y,x,1/2-z
-y,-x,1/2-z
-x,y,1/2+z
x,-y,1/2+z
loop_
_atom_site_type_symbol
_atom_site_label
_atom_site_fract_x
_atom_site_fract_y
_atom_site_fract_z
Si Si1 0.615196 0.973090 0.524492
Si Si2 0.438001 0.694175 0.829535
Si Si3 0.371243 0.230654 0.685352
Si Si4 0.142524 0.699786 0.783270
O O1 0.617260 0.886413 0.661708
O O2 0.664462 0.920477 0.371244
O O3 0.500000 0.000000 0.498673
O O4 0.680037 0.068348 0.569714
O O5 0.411073 0.588928 0.750000
O O6 0.550642 0.724902 0.812552
O O7 0.378763 0.768629 0.709317
O O8 0.398769 0.718721 0.010601
O O9 0.264959 0.264959 0.750000
O O10 0.195405 0.804596 0.750000
#
# Coordination Sequence:
#
# PCOD9557715 Si02
#       4
#     8   8   8   8
#     4  11  22  40  69  97 130 173 226 275 332 400
#     4  10  21  38  57  89 130 167 214 265 329 400
#     4  11  23  37  61  93 128 175 218 275 327 392
#     4  10  23  40  64  97 131 167 215 284 334 394
#
# _framework density 21.330317999999998
#
# number of rings (size 3 to 8) (size 9 to 14) (size 15 to 20)
#    0.000    1.500    2.500    2.250    3.500    6.500 
#    0.000    2.500    0.000    6.000    0.000    0.000 
#    0.000    0.000    0.000    0.000    0.000    0.000 
#
# Total GULP energy -178774.772535 kJ/mol
# GULP energy per Si atom -5586.711642 kJ/mol
# Density = 2.128177 g / cm^3
# Si number density = 21.330318 Si / 1000 Ang^3
#
#
#
# Elastic Constant Matrix: (Units=GPa)
#
#
# Indices 1 2 3 4 5 6 
#
# 1 93.9236 65.4272 26.7432 0.0000 0.0000 0.0000
# 2 65.4272 93.9259 26.7444 0.0000 0.0000 0.0000
# 3 26.7432 26.7444 69.9067 0.0000 0.0000 0.0000
# 4 0.0000 0.0000 0.0000 34.9334 0.0000 0.0000
# 5 0.0000 0.0000 0.0000 0.0000 34.9341 0.0000
# 6 0.0000 0.0000 0.0000 0.0000 0.0000 45.4187
#
#
#
# Elastic Compliance Matrix: (Units=1/GPa)
#
#
# Indices 1 2 3 4 5 6 
#
# 1 0.021146 -0.013945 -0.002754 0.000000 0.000000 0.000000
# 2 -0.013945 0.021145 -0.002755 0.000000 0.000000 0.000000
# 3 -0.002754 -0.002755 0.016412 0.000000 0.000000 0.000000
# 4 0.000000 0.000000 0.000000 0.028626 0.000000 0.000000
# 5 0.000000 0.000000 0.000000 0.000000 0.028625 0.000000
# 6 0.000000 0.000000 0.000000 0.000000 0.000000 0.022017
#
#
# Mechanical properties :
#
#
# Convention : Reuss Voigt Hill
#
# Bulk Modulus (GPa) = 50.51927 55.06509 52.79218
# Shear Modulus (GPa) = 27.25117 32.31333 29.78225
#
# Velocity S-wave (km/s) = 3.57820 3.89640 3.74068
# Velocity P-wave (km/s) = 6.38804 6.79073 6.59246
#
# Compressibility (1/GPa) = 0.01979443
#
# Stress axis : x y z
#
# Youngs Moduli (GPa) = 47.29130 47.29209 60.92992
#
# Poissons Ratio (x) = 0.65951 0.16781
# Poissons Ratio (y) = 0.65950 0.16784
# Poissons Ratio (z) = 0.13025 0.13028
#
# Static dielectric constant tensor:
#      x y z
#    x 1.824460 0.000000 0.000000 
#    y 0.000000 1.824460 0.000000 
#    z 0.000000 0.000000 1.906230 
# 
# From -- ./inp_files/620.got.cif
#   From: 2010.05.17/outbox.cif.g08.bks.cpg/sg116_1_cif.got.tgz:620.got - 2010.05.20 11:11:43.
