data_PCOD9557548
_publ_section_title
;
Structure prediction by ZEFSAII (Michael W. Deem and Ramdas Pophale) SiO2 
 PCOD9557548
Probable space group: P -4 C 2
;
_chemical_formula_sum "Si O2"
_cell_formula_units_Z 40
_cell_length_a 8.566531
_cell_length_b 8.566531
_cell_length_c 25.264363
_cell_angle_alpha 90.000000
_cell_angle_beta 90.000000
_cell_angle_gamma 90.000000
_cell_volume 1854.036733
_symmetry_space_group_name_H-M "P -4 C 2"
_symmetry_group_IT_number 116
_symmetry_cell_setting 'tetragonal'
loop_
_space_group_symop_operation_xyz
x,y,z
y,-x,-z
-x,-y,z
-y,x,-z
y,x,1/2-z
-y,-x,1/2-z
-x,y,1/2+z
x,-y,1/2+z
loop_
_atom_site_type_symbol
_atom_site_label
_atom_site_fract_x
_atom_site_fract_y
_atom_site_fract_z
Si Si1 0.759171 0.962453 0.515038
Si Si2 0.327335 0.654110 0.649976
Si Si3 0.313028 0.004056 0.136832
Si Si4 0.705897 0.575272 0.028270
Si Si5 0.313233 0.679650 0.187636
O O1 0.714345 0.009307 0.573959
O O2 0.620289 0.880699 0.484152
O O3 0.896685 0.834827 0.516710
O O4 0.339222 0.626944 0.586822
O O5 0.502478 0.666302 0.673073
O O6 0.250458 0.493728 0.671826
O O7 0.254613 0.827297 0.658825
O O8 0.252145 0.837570 0.158995
O O9 0.500000 0.000000 0.145946
O O10 0.663707 0.398422 0.015855
O O11 0.297732 0.702269 0.250000
#
# Coordination Sequence:
#
# PCOD9557548 Si02
#       5
#     8   8   8   8   8
#     4  11  23  37  56  83 127 174 204 242 318 397
#     4  10  18  34  58  91 122 166 205 269 333 376
#     4  10  20  38  62  90 127 167 210 271 327 379
#     4  11  20  33  58  93 121 158 213 258 312 396
#     4  10  20  36  64  92 121 160 220 276 323 393
#
# _framework density 21.574546000000002
#
# number of rings (size 3 to 8) (size 9 to 14) (size 15 to 20)
#    0.000    1.600    2.000    7.200    0.000    0.000 
#    0.000    0.000   17.600    0.000    0.000    0.000 
#    0.000    0.000    0.000    0.000    0.000    0.000 
#
# Total GULP energy -223067.885920 kJ/mol
# GULP energy per Si atom -5576.697148 kJ/mol
# Density = 2.152544 g / cm^3
# Si number density = 21.574546 Si / 1000 Ang^3
#
#
#
# Elastic Constant Matrix: (Units=GPa)
#
#
# Indices 1 2 3 4 5 6 
#
# 1 73.0536 45.0042 0.8303 0.0000 0.0000 0.0000
# 2 45.0042 73.0533 0.8300 0.0000 0.0000 0.0000
# 3 0.8303 0.8300 72.7125 0.0000 0.0000 0.0000
# 4 0.0000 0.0000 0.0000 -3.5264 0.0000 0.0000
# 5 0.0000 0.0000 0.0000 0.0000 -3.5264 0.0000
# 6 0.0000 0.0000 0.0000 0.0000 0.0000 31.5069
#
#
#
# Elastic Compliance Matrix: (Units=1/GPa)
#
#
# Indices 1 2 3 4 5 6 
#
# 1 0.022062 -0.013590 -0.000097 0.000000 0.000000 0.000000
# 2 -0.013590 0.022062 -0.000097 0.000000 0.000000 0.000000
# 3 -0.000097 -0.000097 0.013755 0.000000 0.000000 0.000000
# 4 0.000000 0.000000 0.000000 -0.283579 0.000000 0.000000
# 5 0.000000 0.000000 0.000000 0.000000 -0.283575 0.000000
# 6 0.000000 0.000000 0.000000 0.000000 0.000000 0.031739
#
#
# Mechanical properties :
#
#
# Convention : Reuss Voigt Hill
#
# Bulk Modulus (GPa) = 32.99054 34.68315 33.83684
# Shear Modulus (GPa) = -11.36712 16.36782 2.50035
#
# Velocity S-wave (km/s) = -2.29787 2.75737 1.07771
# Velocity P-wave (km/s) = 2.87825 5.12331 4.15528
#
# Compressibility (1/GPa) = 0.03031172
#
# Stress axis : x y z
#
# Youngs Moduli (GPa) = 45.32755 45.32731 72.70080
#
# Poissons Ratio (x) = 0.61599 0.00704
# Poissons Ratio (y) = 0.61600 0.00703
# Poissons Ratio (z) = 0.00439 0.00438
#
# Static dielectric constant tensor:
#      x y z
#    x 1.834730 0.000000 0.000000 
#    y 0.000000 1.834730 0.000000 
#    z 0.000000 0.000000 1.701380 
# 
# From -- ./inp_files/4405.got.cif
#   From: 2010.05.17/outbox.cif.g08.bks.cpg/sg116_3_cif.got.tgz:4405.got - 2010.05.20 11:11:43.
