data_PCOD9557615
_publ_section_title
;
Structure prediction by ZEFSAII (Michael W. Deem and Ramdas Pophale) SiO2 
 PCOD9557615
Probable space group: P -4 C 2
;
_chemical_formula_sum "Si O2"
_cell_formula_units_Z 64
_cell_length_a 11.078871
_cell_length_b 11.078871
_cell_length_c 24.459311
_cell_angle_alpha 90.000000
_cell_angle_beta 90.000000
_cell_angle_gamma 90.000000
_cell_volume 3002.169650
_symmetry_space_group_name_H-M "P -4 C 2"
_symmetry_group_IT_number 116
_symmetry_cell_setting 'tetragonal'
loop_
_space_group_symop_operation_xyz
x,y,z
y,-x,-z
-x,-y,z
-y,x,-z
y,x,1/2-z
-y,-x,1/2-z
-x,y,1/2+z
x,-y,1/2+z
loop_
_atom_site_type_symbol
_atom_site_label
_atom_site_fract_x
_atom_site_fract_y
_atom_site_fract_z
Si Si1 0.694206 0.450821 0.000542
Si Si2 0.884395 0.083351 0.691023
Si Si3 0.146904 0.499308 0.806739
Si Si4 0.358033 0.841970 0.590018
Si Si5 0.090420 0.715445 0.376784
Si Si6 0.509528 0.144711 0.317115
Si Si7 0.853960 0.313355 0.089369
Si Si8 0.124110 0.290812 0.105727
O O1 0.773800 0.392916 0.048545
O O2 0.580589 0.363633 0.987683
O O3 0.782136 0.456574 0.948542
O O4 0.859715 0.140286 0.750000
O O5 0.912634 0.190427 0.650023
O O6 0.784564 0.993689 0.667212
O O7 0.000000 0.000000 0.695035
O O8 0.185989 0.608064 0.846632
O O9 0.169485 0.379568 0.842507
O O10 0.193762 0.499584 0.744679
O O11 0.000000 0.500000 0.804276
O O12 0.231624 0.777647 0.574414
O O13 0.346936 0.986571 0.586277
O O14 0.176643 0.805737 0.409367
O O15 0.633128 0.165906 0.349598
O O16 0.403109 0.176255 0.359730
O O17 0.500000 0.000000 0.311746
O O18 0.997695 0.323868 0.076809
#
# Coordination Sequence:
#
# PCOD9557615 Si02
#       8
#     8   8   8   8   8   8   8   8
#     4  11  25  46  70  89 113 157 212 267 316 373
#     4  10  20  30  53  87 128 169 203 241 303 385
#     4   9  19  35  55  84 124 163 204 249 296 368
#     4  10  22  39  61  90 121 159 209 252 318 375
#     4  10  21  36  58  88 124 162 202 257 310 376
#     4   9  20  33  53  85 121 165 203 243 301 363
#     4  11  22  39  61  89 126 158 206 261 318 374
#     4  10  21  36  57  88 126 162 203 255 309 378
#
# _framework density 21.317913999999998
#
# number of rings (size 3 to 8) (size 9 to 14) (size 15 to 20)
#    0.000    2.000    1.250    1.500    8.750    1.500 
#    0.000    6.875    0.000    1.500    0.000    1.750 
#    0.000    0.000    0.000    0.000    0.000    0.000 
#
# Total GULP energy -356935.101945 kJ/mol
# GULP energy per Si atom -5577.110968 kJ/mol
# Density = 2.126939 g / cm^3
# Si number density = 21.317914 Si / 1000 Ang^3
#
#
#
# Elastic Constant Matrix: (Units=GPa)
#
#
# Indices 1 2 3 4 5 6 
#
# 1 81.0862 26.0282 19.2539 0.0000 0.0000 0.0000
# 2 26.0282 81.0861 19.2539 0.0000 0.0000 0.0000
# 3 19.2539 19.2539 69.0887 0.0000 0.0000 0.0000
# 4 0.0000 0.0000 0.0000 11.9505 0.0000 0.0000
# 5 0.0000 0.0000 0.0000 0.0000 11.9512 0.0000
# 6 0.0000 0.0000 0.0000 0.0000 0.0000 28.6643
#
#
#
# Elastic Compliance Matrix: (Units=1/GPa)
#
#
# Indices 1 2 3 4 5 6 
#
# 1 0.014269 -0.003894 -0.002891 0.000000 0.000000 0.000000
# 2 -0.003894 0.014269 -0.002891 0.000000 0.000000 0.000000
# 3 -0.002891 -0.002891 0.016086 0.000000 0.000000 0.000000
# 4 0.000000 0.000000 0.000000 0.083679 0.000000 0.000000
# 5 0.000000 0.000000 0.000000 0.000000 0.083674 0.000000
# 6 0.000000 0.000000 0.000000 0.000000 0.000000 0.034887
#
#
# Mechanical properties :
#
#
# Convention : Reuss Voigt Hill
#
# Bulk Modulus (GPa) = 39.57166 40.03701 39.80434
# Shear Modulus (GPa) = 18.20569 21.62819 19.91694
#
# Velocity S-wave (km/s) = 2.92551 3.18866 3.05992
# Velocity P-wave (km/s) = 5.47854 5.69021 5.58538
#
# Compressibility (1/GPa) = 0.02527061
#
# Stress axis : x y z
#
# Youngs Moduli (GPa) = 70.08214 70.08196 62.16683
#
# Poissons Ratio (x) = 0.27288 0.17975
# Poissons Ratio (y) = 0.27288 0.17975
# Poissons Ratio (z) = 0.20264 0.20264
#
# Static dielectric constant tensor:
#      x y z
#    x 1.815610 0.000000 0.000000 
#    y 0.000000 1.815620 0.000000 
#    z 0.000000 0.000000 1.810600 
# 
# From -- ./inp_files/4661.got.cif
#   From: 2010.05.17/outbox.cif.g08.bks.cpg/sg116_3_cif.got.tgz:4661.got - 2010.05.20 11:11:43.
