data_PCOD9557495
_publ_section_title
;
Structure prediction by ZEFSAII (Michael W. Deem and Ramdas Pophale) SiO2 
 PCOD9557495
Probable space group: P -4 M 2
;
_chemical_formula_sum "Si O2"
_cell_formula_units_Z 48
_cell_length_a 15.000000
_cell_length_b 15.000000
_cell_length_c 12.000000
_cell_angle_alpha 90.000000
_cell_angle_beta 90.000000
_cell_angle_gamma 90.000000
_cell_volume 2700.000000
_symmetry_space_group_name_H-M "P -4 M 2"
_symmetry_group_IT_number 115
_symmetry_cell_setting 'tetragonal'
loop_
_space_group_symop_operation_xyz
x,y,z
y,-x,-z
-x,-y,z
-y,x,-z
y,x,-z
-y,-x,-z
-x,y,z
x,-y,z
loop_
_atom_site_type_symbol
_atom_site_label
_atom_site_fract_x
_atom_site_fract_y
_atom_site_fract_z
Si Si1 0.396443 0.104502 0.689184
Si Si2 0.102304 0.759050 0.138819
Si Si3 0.896985 0.745938 0.873545
Si Si4 0.751958 0.602651 0.501916
Si Si5 0.220665 0.396363 0.757813
Si Si6 0.607832 0.600125 0.129164
O O1 0.500000 0.116307 0.722054
O O2 0.328682 0.121973 0.789595
O O3 0.377138 0.172589 0.589127
O O4 0.386117 0.000000 0.656051
O O5 0.170277 0.838020 0.164764
O O6 0.000000 0.785510 0.161111
O O7 0.109731 0.739753 0.007411
O O8 0.853006 0.659502 0.820594
O O9 0.000000 0.756137 0.843787
O O10 0.669538 0.669538 0.500000
O O11 0.722482 0.500000 0.485130
O O12 0.791308 0.609283 0.625985
O O13 0.217018 0.500000 0.790825
O O14 0.319711 0.361964 0.792136
O O15 0.500000 0.594502 0.138789
O O16 0.642746 0.500000 0.152330
O O17 0.624964 0.624964 0.000000
#
# Coordination Sequence:
#
# PCOD9557495 Si02
#       6
#     8   8   8   8   8   8
#     4   9  18  35  59  82 102 131 174 222 269 312
#     4   9  19  36  57  80 105 132 170 219 262 310
#     4  10  21  35  53  78 108 140 171 208 260 320
#     4  10  21  36  52  73 104 141 180 219 257 304
#     4  10  21  34  50  76 109 142 176 214 257 313
#     4   8  15  29  48  71 100 135 175 215 255 301
#
# _framework density 17.777778000000001
#
# number of rings (size 3 to 8) (size 9 to 14) (size 15 to 20)
#    0.000    2.667    0.000    1.500    2.333    2.833 
#    0.000    7.500    0.000    0.000    0.000    0.000 
#    0.000    4.000    0.000    0.000    0.000    0.000 
#
# Total GULP energy -267721.177619 kJ/mol
# GULP energy per Si atom -5577.524534 kJ/mol
# Density = 1.773731 g / cm^3
# Si number density = 17.777778 Si / 1000 Ang^3
#
#
#
# Elastic Constant Matrix: (Units=GPa)
#
#
# Indices 1 2 3 4 5 6 
#
# 1 105.4144 79.4620 52.5744 0.0000 0.0000 0.0000
# 2 79.4620 105.4144 52.5744 0.0000 0.0000 0.0000
# 3 52.5744 52.5744 44.7329 0.0000 0.0000 0.0000
# 4 0.0000 0.0000 0.0000 24.9487 0.0000 0.0000
# 5 0.0000 0.0000 0.0000 0.0000 24.9487 0.0000
# 6 0.0000 0.0000 0.0000 0.0000 0.0000 28.8587
#
#
#
# Elastic Compliance Matrix: (Units=1/GPa)
#
#
# Indices 1 2 3 4 5 6 
#
# 1 0.027423 -0.011109 -0.019174 0.000000 0.000000 0.000000
# 2 -0.011109 0.027423 -0.019174 0.000000 0.000000 0.000000
# 3 -0.019174 -0.019174 0.067426 0.000000 0.000000 0.000000
# 4 0.000000 0.000000 0.000000 0.040082 0.000000 0.000000
# 5 0.000000 0.000000 0.000000 0.000000 0.040082 0.000000
# 6 0.000000 0.000000 0.000000 0.000000 0.000000 0.034652
#
#
# Mechanical properties :
#
#
# Convention : Reuss Voigt Hill
#
# Bulk Modulus (GPa) = 42.81262 69.42037 56.11649
# Shear Modulus (GPa) = 14.54377 20.48127 17.51252
#
# Velocity S-wave (km/s) = 2.86333 3.39790 3.14200
# Velocity P-wave (km/s) = 5.92165 7.38431 6.69305
#
# Compressibility (1/GPa) = 0.02335760
#
# Stress axis : x y z
#
# Youngs Moduli (GPa) = 36.46538 36.46538 14.83104
#
# Poissons Ratio (x) = 0.40509 0.28438
# Poissons Ratio (y) = 0.40509 0.28438
# Poissons Ratio (z) = 0.69920 0.69920
#
# Static dielectric constant tensor:
#      x y z
#    x 1.608390 0.000000 0.000000 
#    y 0.000000 1.608390 0.000000 
#    z 0.000000 0.000000 1.596690 
# 
# From -- ./inp_files/2949.got.cif
#   From: 2010.05.17/outbox.ucp.g08.bks.cvg/sg115_2_cif.got.tgz:2949.got - 2010.06.11 11:33:38.
