data_PCOD9557986
_publ_section_title
;
Structure prediction by ZEFSAII (Michael W. Deem and Ramdas Pophale) SiO2 
 PCOD9557986
Probable space group: P -4 C 2
;
_chemical_formula_sum "Si O2"
_cell_formula_units_Z 40
_cell_length_a 10.470316
_cell_length_b 10.470316
_cell_length_c 16.016640
_cell_angle_alpha 90.000000
_cell_angle_beta 90.000000
_cell_angle_gamma 90.000000
_cell_volume 1755.864476
_symmetry_space_group_name_H-M "P -4 C 2"
_symmetry_group_IT_number 116
_symmetry_cell_setting 'tetragonal'
loop_
_space_group_symop_operation_xyz
x,y,z
y,-x,-z
-x,-y,z
-y,x,-z
y,x,1/2-z
-y,-x,1/2-z
-x,y,1/2+z
x,-y,1/2+z
loop_
_atom_site_type_symbol
_atom_site_label
_atom_site_fract_x
_atom_site_fract_y
_atom_site_fract_z
Si Si1 0.461912 0.148206 0.838888
Si Si2 0.148206 0.538088 0.838888
Si Si3 0.814513 0.900845 0.100803
Si Si4 0.710119 0.465998 0.500000
Si Si5 0.099155 0.185487 0.600803
O O1 0.500000 0.206159 0.750000
O O2 0.310348 0.153922 0.855459
O O3 0.500000 0.000000 0.838045
O O4 0.536877 0.208597 0.916247
O O5 0.153922 0.689652 0.855459
O O6 0.208597 0.463123 0.916247
O O7 0.000000 0.500000 0.838045
O O8 0.948715 0.833130 0.121723
O O9 0.833130 0.051285 0.121723
O O10 0.798272 0.893076 1.000000
O O11 0.602145 0.360285 0.500000
#
# Coordination Sequence:
#
# PCOD9557986 Si02
#       5
#     8   8   8   8   8
#     4  11  25  43  68 103 136 180 232 276 344 405
#     4  11  25  43  68 103 136 180 232 276 344 405
#     4   9  19  38  71 108 138 173 219 284 359 415
#     4  11  27  48  72  97 132 188 232 283 339 390
#     4   9  19  38  71 108 138 173 219 284 359 415
#
# _framework density 22.780799999999999
#
# number of rings (size 3 to 8) (size 9 to 14) (size 15 to 20)
#    0.000    1.800    2.000    1.800    5.600    1.600 
#    7.200    2.000    0.000    9.600    0.000    0.000 
#    0.000    0.000    0.000    0.000    0.000    0.000 
#
# Total GULP energy -224109.874375 kJ/mol
# GULP energy per Si atom -5602.746859 kJ/mol
# Density = 2.272895 g / cm^3
# Si number density = 22.780800 Si / 1000 Ang^3
#
#
#
# Elastic Constant Matrix: (Units=GPa)
#
#
# Indices 1 2 3 4 5 6 
#
# 1 75.8915 4.7619 33.9524 0.0000 0.0000 0.0000
# 2 4.7619 75.8915 33.9524 0.0000 0.0000 0.0000
# 3 33.9524 33.9524 149.3542 0.0000 0.0000 0.0000
# 4 0.0000 0.0000 0.0000 11.1037 0.0000 0.0000
# 5 0.0000 0.0000 0.0000 0.0000 11.1037 0.0000
# 6 0.0000 0.0000 0.0000 0.0000 0.0000 26.4603
#
#
#
# Elastic Compliance Matrix: (Units=1/GPa)
#
#
# Indices 1 2 3 4 5 6 
#
# 1 0.014696 0.000637 -0.003486 0.000000 0.000000 0.000000
# 2 0.000637 0.014696 -0.003486 0.000000 0.000000 0.000000
# 3 -0.003486 -0.003486 0.008280 0.000000 0.000000 0.000000
# 4 0.000000 0.000000 0.000000 0.090060 0.000000 0.000000
# 5 0.000000 0.000000 0.000000 0.000000 0.090060 0.000000
# 6 0.000000 0.000000 0.000000 0.000000 0.000000 0.037792
#
#
# Mechanical properties :
#
#
# Convention : Reuss Voigt Hill
#
# Bulk Modulus (GPa) = 39.99307 49.60784 44.80045
# Shear Modulus (GPa) = 18.07741 24.96491 21.52116
#
# Velocity S-wave (km/s) = 2.82004 3.31399 3.07694
# Velocity P-wave (km/s) = 5.31010 6.03878 5.68612
#
# Compressibility (1/GPa) = 0.02500433
#
# Stress axis : x y z
#
# Youngs Moduli (GPa) = 68.04502 68.04502 120.76861
#
# Poissons Ratio (x) = -0.04337 0.42097
# Poissons Ratio (y) = -0.04337 0.42097
# Poissons Ratio (z) = 0.23719 0.23719
#
# Static dielectric constant tensor:
#      x y z
#    x 1.839000 0.000000 0.000000 
#    y 0.000000 1.839000 0.000000 
#    z 0.000000 0.000000 1.880070 
# 
# From -- ./inp_files/2561.got.cif
#   From: 2010.05.17/outbox.cif.g08.bks.cpg/sg116_2_cif.got.tgz:2561.got - 2010.05.20 11:11:43.
