data_PCOD9557050
_publ_section_title
;
Structure prediction by ZEFSAII (Michael W. Deem and Ramdas Pophale) SiO2 
 PCOD9557050
Probable space group: P -4 M 2
;
_chemical_formula_sum "Si O2"
_cell_formula_units_Z 48
_cell_length_a 14.093675
_cell_length_b 14.093675
_cell_length_c 13.165066
_cell_angle_alpha 90.000000
_cell_angle_beta 90.000000
_cell_angle_gamma 90.000000
_cell_volume 2614.999111
_symmetry_space_group_name_H-M "P -4 M 2"
_symmetry_group_IT_number 115
_symmetry_cell_setting 'tetragonal'
loop_
_space_group_symop_operation_xyz
x,y,z
y,-x,-z
-x,-y,z
-y,x,-z
y,x,-z
-y,-x,-z
-x,y,z
x,-y,z
loop_
_atom_site_type_symbol
_atom_site_label
_atom_site_fract_x
_atom_site_fract_y
_atom_site_fract_z
Si Si1 0.384514 0.109544 0.388556
Si Si2 0.390211 0.886498 0.795836
Si Si3 0.614381 0.783952 0.587515
Si Si4 0.205628 0.386727 0.825074
Si Si5 0.389291 0.390326 0.712677
Si Si6 0.733068 0.113773 0.994464
O O1 0.500000 0.110928 0.391137
O O2 0.348105 0.168595 0.485322
O O3 0.358810 0.155047 0.280789
O O4 0.354963 0.000000 0.395125
O O5 0.500000 0.856726 0.816599
O O6 0.358847 0.840888 0.689649
O O7 0.391325 0.000000 0.784131
O O8 0.320706 0.864160 0.888613
O O9 0.500000 0.791064 0.580644
O O10 0.634508 0.675655 0.617231
O O11 0.192822 0.500000 0.840214
O O12 0.317325 0.368868 0.804262
O O13 0.159298 0.330288 0.916451
O O14 0.500000 0.376680 0.739128
O O15 0.374250 0.500000 0.684938
O O16 0.738697 0.000000 0.005085
O O17 0.834076 0.165925 0.000000
#
# Coordination Sequence:
#
# PCOD9557050 Si02
#       6
#     8   8   8   8   8   8
#     4   9  17  29  47  73 103 135 174 223 277 322
#     4   9  17  30  51  78 104 131 166 211 263 317
#     4   9  16  28  47  71 103 141 177 214 257 305
#     4  10  20  35  56  81 109 141 178 222 273 327
#     4   9  18  32  49  72 107 149 188 221 256 314
#     4  11  23  38  56  77 102 133 173 221 273 330
#
# _framework density 18.355646
#
# number of rings (size 3 to 8) (size 9 to 14) (size 15 to 20)
#    0.000    2.500    0.000    2.500    0.000    4.500 
#    0.000    3.333    0.000    8.000    0.000    4.667 
#    0.000    0.000    0.000    5.500    0.000    0.000 
#
# Total GULP energy -267850.500404 kJ/mol
# GULP energy per Si atom -5580.218758 kJ/mol
# Density = 1.831387 g / cm^3
# Si number density = 18.355646 Si / 1000 Ang^3
#
#
#
# Elastic Constant Matrix: (Units=GPa)
#
#
# Indices 1 2 3 4 5 6 
#
# 1 83.2520 29.6524 40.9439 0.0000 0.0000 0.0000
# 2 29.6524 83.2548 40.9450 0.0000 0.0000 0.0000
# 3 40.9439 40.9450 96.7748 0.0000 0.0000 0.0000
# 4 0.0000 0.0000 0.0000 20.2882 0.0000 0.0000
# 5 0.0000 0.0000 0.0000 0.0000 20.2879 0.0000
# 6 0.0000 0.0000 0.0000 0.0000 0.0000 20.9883
#
#
#
# Elastic Compliance Matrix: (Units=1/GPa)
#
#
# Indices 1 2 3 4 5 6 
#
# 1 0.015717 -0.002939 -0.005406 0.000000 0.000000 0.000000
# 2 -0.002939 0.015717 -0.005406 0.000000 0.000000 0.000000
# 3 -0.005406 -0.005406 0.014908 0.000000 0.000000 0.000000
# 4 0.000000 0.000000 0.000000 0.049290 0.000000 0.000000
# 5 0.000000 0.000000 0.000000 0.000000 0.049291 0.000000
# 6 0.000000 0.000000 0.000000 0.000000 0.000000 0.047645
#
#
# Mechanical properties :
#
#
# Convention : Reuss Voigt Hill
#
# Bulk Modulus (GPa) = 53.08150 54.04047 53.56098
# Shear Modulus (GPa) = 22.08957 22.42890 22.25924
#
# Velocity S-wave (km/s) = 3.47280 3.49937 3.48611
# Velocity P-wave (km/s) = 6.71279 6.76995 6.74143
#
# Compressibility (1/GPa) = 0.01883896
#
# Stress axis : x y z
#
# Youngs Moduli (GPa) = 63.62374 63.62555 67.07835
#
# Poissons Ratio (x) = 0.18701 0.36264
# Poissons Ratio (y) = 0.18700 0.36264
# Poissons Ratio (z) = 0.34397 0.34398
#
# Static dielectric constant tensor:
#      x y z
#    x 1.649940 0.000000 0.000000 
#    y 0.000000 1.649940 0.000000 
#    z 0.000000 0.000000 1.619570 
# 
# From -- ./inp_files/2950.got.cif
#   From: 2010.05.17/outbox.cif.g08.bks.cpg/sg115_2_cif.got.tgz:2950.got - 2010.05.20 11:07:42.
