data_PCOD9557270
_publ_section_title
;
Structure prediction by ZEFSAII (Michael W. Deem and Ramdas Pophale) SiO2 
 PCOD9557270
Probable space group: P -4 M 2
;
_chemical_formula_sum "Si O2"
_cell_formula_units_Z 32
_cell_length_a 9.147272
_cell_length_b 9.147272
_cell_length_c 21.065228
_cell_angle_alpha 90.000000
_cell_angle_beta 90.000000
_cell_angle_gamma 90.000000
_cell_volume 1762.582081
_symmetry_space_group_name_H-M "P -4 M 2"
_symmetry_group_IT_number 115
_symmetry_cell_setting 'tetragonal'
loop_
_space_group_symop_operation_xyz
x,y,z
y,-x,-z
-x,-y,z
-y,x,-z
y,x,-z
-y,-x,-z
-x,y,z
x,-y,z
loop_
_atom_site_type_symbol
_atom_site_label
_atom_site_fract_x
_atom_site_fract_y
_atom_site_fract_z
Si Si1 0.674354 0.327565 0.189859
Si Si2 0.326210 0.825851 0.559959
Si Si3 0.826684 0.673778 0.059076
Si Si4 0.674892 0.173110 0.321252
O O1 0.500000 0.312475 0.180093
O O2 0.705196 0.500000 0.200708
O O3 0.756132 0.280309 0.126048
O O4 0.714868 0.237086 0.252316
O O5 0.251107 0.748894 0.500000
O O6 0.500000 0.798656 0.559107
O O7 0.256154 0.760371 0.623606
O O8 0.302686 0.000000 0.556840
O O9 0.797713 0.500000 0.052042
O O10 0.000000 0.695940 0.060699
O O11 0.756506 0.756506 0.000000
O O12 0.500000 0.196262 0.329683
O O13 0.702444 0.000000 0.324302
#
# Coordination Sequence:
#
# PCOD9557270 Si02
#       4
#     8   8   8   8
#     4   9  18  34  56  80 108 145 187 228 270 320
#     4  11  24  40  59  84 113 146 185 228 273 323
#     4  10  21  36  55  80 110 144 183 228 276 327
#     4  10  21  37  58  85 115 146 182 224 271 325
#
# _framework density 18.155183000000001
#
# number of rings (size 3 to 8) (size 9 to 14) (size 15 to 20)
#    0.000    2.000    0.000    3.000    0.000   10.000 
#    0.000    5.000    0.000    0.000    0.000    0.000 
#    0.000    0.000    0.000    0.000    0.000    0.000 
#
# Total GULP energy -178789.486673 kJ/mol
# GULP energy per Si atom -5587.171459 kJ/mol
# Density = 1.811386 g / cm^3
# Si number density = 18.155183 Si / 1000 Ang^3
#
#
#
# Elastic Constant Matrix: (Units=GPa)
#
#
# Indices 1 2 3 4 5 6 
#
# 1 85.5799 82.2192 103.0852 0.0000 0.0000 0.0000
# 2 82.2192 85.5792 103.0854 0.0000 0.0000 0.0000
# 3 103.0852 103.0854 210.4642 0.0000 0.0000 0.0000
# 4 0.0000 0.0000 0.0000 -79.6002 0.0000 0.0000
# 5 0.0000 0.0000 0.0000 0.0000 -79.5863 0.0000
# 6 0.0000 0.0000 0.0000 0.0000 0.0000 25.5069
#
#
#
# Elastic Compliance Matrix: (Units=1/GPa)
#
#
# Indices 1 2 3 4 5 6 
#
# 1 0.156276 -0.141312 -0.007329 0.000000 0.000000 0.000000
# 2 -0.141312 0.156280 -0.007332 0.000000 0.000000 0.000000
# 3 -0.007329 -0.007332 0.011932 0.000000 0.000000 0.000000
# 4 0.000000 0.000000 0.000000 -0.012563 0.000000 0.000000
# 5 0.000000 0.000000 0.000000 0.000000 -0.012565 0.000000
# 6 0.000000 0.000000 0.000000 0.000000 0.000000 0.039205
#
#
# Mechanical properties :
#
#
# Convention : Reuss Voigt Hill
#
# Bulk Modulus (GPa) = 79.72560 106.48921 93.10740
# Shear Modulus (GPa) = 7.63718 -20.52035 -6.44158
#
# Velocity S-wave (km/s) = 2.05323 -3.36560 -1.88568
# Velocity P-wave (km/s) = 7.04484 6.60903 6.83041
#
# Compressibility (1/GPa) = 0.01254302
#
# Stress axis : x y z
#
# Youngs Moduli (GPa) = 6.39894 6.39878 83.80559
#
# Poissons Ratio (x) = 0.90422 0.61425
# Poissons Ratio (y) = 0.90424 0.61443
# Poissons Ratio (z) = 0.04690 0.04691
#
# Static dielectric constant tensor:
#      x y z
#    x 1.604740 0.000000 0.000000 
#    y 0.000000 1.604740 0.000000 
#    z 0.000000 0.000000 1.586580 
# 
# From -- ./inp_files/4571.got.cif
#   From: 2010.05.17/outbox.cif.g08.bks.cpg/sg115_3_cif.got.tgz:4571.got - 2010.05.20 11:07:42.
