data_PCOD9557793
_publ_section_title
;
Structure prediction by ZEFSAII (Michael W. Deem and Ramdas Pophale) SiO2 
 PCOD9557793
Probable space group: P -4 C 2
;
_chemical_formula_sum "Si O2"
_cell_formula_units_Z 48
_cell_length_a 9.007077
_cell_length_b 9.007077
_cell_length_c 27.373787
_cell_angle_alpha 90.000000
_cell_angle_beta 90.000000
_cell_angle_gamma 90.000000
_cell_volume 2220.765155
_symmetry_space_group_name_H-M "P -4 C 2"
_symmetry_group_IT_number 116
_symmetry_cell_setting 'tetragonal'
loop_
_space_group_symop_operation_xyz
x,y,z
y,-x,-z
-x,-y,z
-y,x,-z
y,x,1/2-z
-y,-x,1/2-z
-x,y,1/2+z
x,-y,1/2+z
loop_
_atom_site_type_symbol
_atom_site_label
_atom_site_fract_x
_atom_site_fract_y
_atom_site_fract_z
Si Si1 0.880639 0.783890 0.434419
Si Si2 0.641189 0.889167 0.163608
Si Si3 0.387959 0.718040 0.485674
Si Si4 0.895175 0.213236 0.087867
Si Si5 0.454021 0.351259 0.696929
Si Si6 0.822927 0.153978 0.191298
O O1 0.826886 0.686943 0.388475
O O2 0.843463 0.686227 0.480720
O O3 0.055633 0.816445 0.425939
O O4 0.797409 0.941942 0.436104
O O5 0.591981 0.758747 0.199007
O O6 0.500000 0.000000 0.158979
O O7 0.777951 0.984617 0.182442
O O8 0.560725 0.690950 0.499565
O O9 0.342565 0.785738 0.432340
O O10 0.927947 0.204962 0.146726
O O11 0.500000 0.500000 0.669184
O O12 0.399429 0.399429 0.750000
O O13 0.318214 0.256658 0.677334
O O14 0.840888 0.159113 0.250000
#
# Coordination Sequence:
#
# PCOD9557793 Si02
#       6
#     8   8   8   8   8   8
#     4  10  22  40  64  93 125 162 206 259 317 381
#     4   9  19  36  62  89 116 167 209 249 313 378
#     4  11  26  42  64  95 126 164 209 260 317 380
#     4  10  22  42  63  95 127 164 209 258 317 378
#     4   9  18  34  54  83 116 158 208 263 303 360
#     4   9  19  38  63  87 125 169 207 258 310 370
#
# _framework density 21.614170999999999
#
# number of rings (size 3 to 8) (size 9 to 14) (size 15 to 20)
#    0.000    2.333    0.000    1.000    7.000    4.667 
#    6.000    5.833    7.333    0.000    0.000    0.000 
#    0.000    0.000    0.000    0.000    0.000    0.000 
#
# Total GULP energy -267216.930275 kJ/mol
# GULP energy per Si atom -5567.019381 kJ/mol
# Density = 2.156498 g / cm^3
# Si number density = 21.614171 Si / 1000 Ang^3
#
#
#
# Elastic Constant Matrix: (Units=GPa)
#
#
# Indices 1 2 3 4 5 6 
#
# 1 43.5481 16.0888 12.2812 0.0000 0.0000 0.0000
# 2 16.0888 43.5479 12.2811 0.0000 0.0000 0.0000
# 3 12.2812 12.2811 112.5341 0.0000 0.0000 0.0000
# 4 0.0000 0.0000 0.0000 23.7178 0.0000 0.0000
# 5 0.0000 0.0000 0.0000 0.0000 23.7179 0.0000
# 6 0.0000 0.0000 0.0000 0.0000 0.0000 25.4480
#
#
#
# Elastic Compliance Matrix: (Units=1/GPa)
#
#
# Indices 1 2 3 4 5 6 
#
# 1 0.026987 -0.009430 -0.001916 0.000000 0.000000 0.000000
# 2 -0.009430 0.026988 -0.001916 0.000000 0.000000 0.000000
# 3 -0.001916 -0.001916 0.009304 0.000000 0.000000 0.000000
# 4 0.000000 0.000000 0.000000 0.042162 0.000000 0.000000
# 5 0.000000 0.000000 0.000000 0.000000 0.042162 0.000000
# 6 0.000000 0.000000 0.000000 0.000000 0.000000 0.039296
#
#
# Mechanical properties :
#
#
# Convention : Reuss Voigt Hill
#
# Bulk Modulus (GPa) = 27.20737 31.21470 29.21103
# Shear Modulus (GPa) = 22.15563 25.17533 23.66548
#
# Velocity S-wave (km/s) = 3.20512 3.41656 3.31253
# Velocity P-wave (km/s) = 5.12953 5.48060 5.30797
#
# Compressibility (1/GPa) = 0.03675475
#
# Stress axis : x y z
#
# Youngs Moduli (GPa) = 37.05429 37.05411 107.47592
#
# Poissons Ratio (x) = 0.34943 0.20593
# Poissons Ratio (y) = 0.34943 0.20593
# Poissons Ratio (z) = 0.07100 0.07100
#
# Static dielectric constant tensor:
#      x y z
#    x 1.842920 0.000000 0.000000 
#    y 0.000000 1.842920 0.000000 
#    z 0.000000 0.000000 1.840910 
# 
# From -- ./inp_files/5224.got.cif
#   From: 2010.05.17/outbox.cif.g08.bks.cpg/sg116_3_cif.got.tgz:5224.got - 2010.05.20 11:11:43.
