data_PCOD9557489
_publ_section_title
;
Structure prediction by ZEFSAII (Michael W. Deem and Ramdas Pophale) SiO2 
 PCOD9557489
Probable space group: P -4 M 2
;
_chemical_formula_sum "Si O2"
_cell_formula_units_Z 48
_cell_length_a 9.000000
_cell_length_b 9.000000
_cell_length_c 30.000000
_cell_angle_alpha 90.000000
_cell_angle_beta 90.000000
_cell_angle_gamma 90.000000
_cell_volume 2430.000000
_symmetry_space_group_name_H-M "P -4 M 2"
_symmetry_group_IT_number 115
_symmetry_cell_setting 'tetragonal'
loop_
_space_group_symop_operation_xyz
x,y,z
y,-x,-z
-x,-y,z
-y,x,-z
y,x,-z
-y,-x,-z
-x,y,z
x,-y,z
loop_
_atom_site_type_symbol
_atom_site_label
_atom_site_fract_x
_atom_site_fract_y
_atom_site_fract_z
Si Si1 0.823965 0.823965 0.000000
Si Si2 0.834364 0.678158 0.335352
Si Si3 0.164170 0.321530 0.165930
Si Si4 0.681201 0.664900 0.749111
Si Si5 0.825660 0.666346 0.589930
Si Si6 0.325597 0.829328 0.088487
Si Si7 0.332351 0.332351 0.500000
O O1 0.751376 0.765233 0.044729
O O2 0.000000 0.797567 0.002059
O O3 0.828635 0.500000 0.336966
O O4 0.715549 0.731377 0.299260
O O5 0.790354 0.743007 0.382355
O O6 0.000000 0.720903 0.321532
O O7 0.162169 0.500000 0.165505
O O8 0.215151 0.272605 0.214640
O O9 0.281485 0.263643 0.130973
O O10 0.000000 0.266929 0.154359
O O11 0.500000 0.663609 0.748880
O O12 0.731618 0.500000 0.760880
O O13 0.771973 0.500000 0.602779
O O14 0.786538 0.683640 0.538410
O O15 0.000000 0.673946 0.597654
O O16 0.500000 0.831324 0.081608
O O17 0.273988 0.000000 0.094697
O O18 0.320624 0.500000 0.480810
#
# Coordination Sequence:
#
# PCOD9557489 Si02
#       7
#     4   8   8   8   8   8   4
#     4   9  18  34  54  73  98 136 178 217 258 307
#     4  10  20  34  54  79 106 138 177 218 260 311
#     4  10  20  34  54  80 109 140 175 216 262 313
#     4   9  17  31  53  79 106 137 174 218 266 313
#     4  10  21  36  54  78 108 139 172 214 263 312
#     4  10  21  36  54  78 108 140 175 216 262 313
#     4   9  18  34  56  79 104 138 180 221 260 309
#
# _framework density 19.753086
#
# number of rings (size 3 to 8) (size 9 to 14) (size 15 to 20)
#    0.000    2.333    0.000    2.500    0.000    7.333 
#    0.000    4.167    0.000    5.000    0.000    0.000 
#    0.000    0.000    0.000    0.000    0.000    0.000 
#
# Total GULP energy -267513.513805 kJ/mol
# GULP energy per Si atom -5573.198204 kJ/mol
# Density = 1.970813 g / cm^3
# Si number density = 19.753086 Si / 1000 Ang^3
#
#
#
# Elastic Constant Matrix: (Units=GPa)
#
#
# Indices 1 2 3 4 5 6 
#
# 1 -92.2886 120.7737 12.3677 0.0000 0.0000 0.0000
# 2 120.7737 -92.2886 12.3677 0.0000 0.0000 0.0000
# 3 12.3677 12.3677 50.3017 0.0000 0.0000 0.0000
# 4 0.0000 0.0000 0.0000 11.9495 0.0000 0.0000
# 5 0.0000 0.0000 0.0000 0.0000 11.9495 0.0000
# 6 0.0000 0.0000 0.0000 0.0000 0.0000 15.7430
#
#
#
# Elastic Compliance Matrix: (Units=1/GPa)
#
#
# Indices 1 2 3 4 5 6 
#
# 1 0.019971 0.024665 -0.010975 0.000000 0.000000 0.000000
# 2 0.024665 0.019971 -0.010975 0.000000 0.000000 0.000000
# 3 -0.010975 -0.010975 0.025277 0.000000 0.000000 0.000000
# 4 0.000000 0.000000 0.000000 0.083685 0.000000 0.000000
# 5 0.000000 0.000000 0.000000 0.000000 0.083685 0.000000
# 6 0.000000 0.000000 0.000000 0.000000 0.000000 0.063520
#
#
# Mechanical properties :
#
#
# Convention : Reuss Voigt Hill
#
# Bulk Modulus (GPa) = 14.15427 17.41586 15.78506
# Shear Modulus (GPa) = 15.91194 -10.72390 2.59402
#
# Velocity S-wave (km/s) = 2.84129 -2.33254 1.14720
# Velocity P-wave (km/s) = 4.23616 1.25761 3.12463
#
# Compressibility (1/GPa) = 0.07065008
#
# Stress axis : x y z
#
# Youngs Moduli (GPa) = 50.07194 50.07194 39.56211
#
# Poissons Ratio (x) = -1.23501 0.43418
# Poissons Ratio (y) = -1.23501 0.43418
# Poissons Ratio (z) = 0.54952 0.54952
#
# Static dielectric constant tensor:
#      x y z
#    x 1.692070 0.000000 0.000000 
#    y 0.000000 1.692070 0.000000 
#    z 0.000000 0.000000 1.935040 
# 
# From -- ./inp_files/6217.got.cif
#   From: 2010.05.17/outbox.ucp.g08.bks.cvg/sg115_4_cif.got.tgz:6217.got - 2010.06.11 11:33:38.
