data_PCOD9557160
_publ_section_title
;
Structure prediction by ZEFSAII (Michael W. Deem and Ramdas Pophale) SiO2 
 PCOD9557160
Probable space group: P -4 M 2
;
_chemical_formula_sum "Si O2"
_cell_formula_units_Z 48
_cell_length_a 9.497171
_cell_length_b 9.497171
_cell_length_c 31.763630
_cell_angle_alpha 90.000000
_cell_angle_beta 90.000000
_cell_angle_gamma 90.000000
_cell_volume 2864.960535
_symmetry_space_group_name_H-M "P -4 M 2"
_symmetry_group_IT_number 115
_symmetry_cell_setting 'tetragonal'
loop_
_space_group_symop_operation_xyz
x,y,z
y,-x,-z
-x,-y,z
-y,x,-z
y,x,-z
-y,-x,-z
-x,y,z
x,-y,z
loop_
_atom_site_type_symbol
_atom_site_label
_atom_site_fract_x
_atom_site_fract_y
_atom_site_fract_z
Si Si1 0.334133 0.167922 0.296182
Si Si2 0.667234 0.332918 0.211973
Si Si3 0.837372 0.828417 0.953691
Si Si4 0.165687 0.831261 0.380237
Si Si5 0.665534 0.331817 0.451186
Si Si6 0.332463 0.167217 0.871530
O O1 0.500000 0.197156 0.304159
O O2 0.291717 0.249308 0.253935
O O3 0.242922 0.208468 0.336703
O O4 0.319515 0.000000 0.289774
O O5 0.500000 0.312154 0.205509
O O6 0.691630 0.500000 0.218081
O O7 0.751003 0.287500 0.170414
O O8 0.746581 0.784407 0.913681
O O9 0.000000 0.784871 0.948563
O O10 0.836039 0.000000 0.954908
O O11 0.784162 0.784162 0.000000
O O12 0.239487 0.752299 0.418714
O O13 0.000000 0.799758 0.378265
O O14 0.182316 0.000000 0.385303
O O15 0.699853 0.300147 0.500000
O O16 0.500000 0.298915 0.444514
O O17 0.682131 0.500000 0.445540
O O18 0.500000 0.187464 0.876670
O O19 0.306913 0.000000 0.866256
#
# Coordination Sequence:
#
# PCOD9557160 Si02
#       6
#     8   8   8   8   8   8
#     4   9  18  33  51  69  92 125 162 197 235 280
#     4   9  18  32  48  66  90 120 152 187 230 279
#     4   8  14  26  44  64  86 114 148 183 219 263
#     4  10  21  35  51  75 106 135 163 199 245 294
#     4   9  19  36  56  77 101 131 169 209 245 285
#     4   9  17  29  45  65  89 116 146 182 225 271
#
# _framework density 16.754159000000001
#
# number of rings (size 3 to 8) (size 9 to 14) (size 15 to 20)
#    0.000    3.000    0.000    1.500    0.000    4.000 
#    0.000    5.000    0.000    1.000    0.000    0.000 
#    0.000    0.000    0.000    0.000    0.000    0.000 
#
# Total GULP energy -267513.537865 kJ/mol
# GULP energy per Si atom -5573.198706 kJ/mol
# Density = 1.671603 g / cm^3
# Si number density = 16.754159 Si / 1000 Ang^3
#
#
#
# Elastic Constant Matrix: (Units=GPa)
#
#
# Indices 1 2 3 4 5 6 
#
# 1 48.5394 44.2959 85.1836 0.0000 0.0000 0.0000
# 2 44.2959 48.5395 85.1838 0.0000 0.0000 0.0000
# 3 85.1836 85.1838 203.3065 0.0000 0.0000 0.0000
# 4 0.0000 0.0000 0.0000 36.3064 0.0000 0.0000
# 5 0.0000 0.0000 0.0000 0.0000 36.3063 0.0000
# 6 0.0000 0.0000 0.0000 0.0000 0.0000 20.4539
#
#
#
# Elastic Compliance Matrix: (Units=1/GPa)
#
#
# Indices 1 2 3 4 5 6 
#
# 1 0.141132 -0.094518 -0.019531 0.000000 0.000000 0.000000
# 2 -0.094518 0.141132 -0.019531 0.000000 0.000000 0.000000
# 3 -0.019531 -0.019531 0.021285 0.000000 0.000000 0.000000
# 4 0.000000 0.000000 0.000000 0.027543 0.000000 0.000000
# 5 0.000000 0.000000 0.000000 0.000000 0.027543 0.000000
# 6 0.000000 0.000000 0.000000 0.000000 0.000000 0.048890
#
#
# Mechanical properties :
#
#
# Convention : Reuss Voigt Hill
#
# Bulk Modulus (GPa) = 27.48031 81.07911 54.27971
# Shear Modulus (GPa) = 7.27997 24.32813 15.80405
#
# Velocity S-wave (km/s) = 2.08677 3.81473 3.07464
# Velocity P-wave (km/s) = 4.71634 8.24023 6.71361
#
# Compressibility (1/GPa) = 0.03638969
#
# Stress axis : x y z
#
# Youngs Moduli (GPa) = 7.08556 7.08556 46.98098
#
# Poissons Ratio (x) = 0.66971 0.91757
# Poissons Ratio (y) = 0.66971 0.91758
# Poissons Ratio (z) = 0.13839 0.13839
#
# Static dielectric constant tensor:
#      x y z
#    x 1.556120 0.000000 0.000000 
#    y 0.000000 1.556120 0.000000 
#    z 0.000000 0.000000 1.548940 
# 
# From -- ./inp_files/5982.got.cif
#   From: 2010.05.17/outbox.cif.g08.bks.cpg/sg115_3_cif.got.tgz:5982.got - 2010.05.20 11:07:42.
