data_PCOD9557463
_publ_section_title
;
Structure prediction by ZEFSAII (Michael W. Deem and Ramdas Pophale) SiO2 
 PCOD9557463
Probable space group: P -4 M 2
;
_chemical_formula_sum "Si O2"
_cell_formula_units_Z 29
_cell_length_a 7.583054
_cell_length_b 7.583054
_cell_length_c 22.996610
_cell_angle_alpha 90.000000
_cell_angle_beta 90.000000
_cell_angle_gamma 90.000000
_cell_volume 1322.367349
_symmetry_space_group_name_H-M "P -4 M 2"
_symmetry_group_IT_number 115
_symmetry_cell_setting 'tetragonal'
loop_
_space_group_symop_operation_xyz
x,y,z
y,-x,-z
-x,-y,z
-y,x,-z
y,x,-z
-y,-x,-z
-x,y,z
x,-y,z
loop_
_atom_site_type_symbol
_atom_site_label
_atom_site_fract_x
_atom_site_fract_y
_atom_site_fract_z
Si Si1 0.288706 0.798219 0.813150
Si Si2 0.000000 0.303955 0.594439
Si Si3 0.214547 0.704387 0.313154
Si Si4 0.797057 0.211851 0.061778
Si Si5 0.000000 0.000000 0.500000
O O1 0.500000 0.807479 0.808843
O O2 0.232412 0.722677 0.750935
O O3 0.249087 0.713487 0.875546
O O4 0.218086 0.000000 0.815773
O O5 0.831412 0.276129 0.636102
O O6 0.000000 0.500000 0.570643
O O7 0.000000 0.166168 0.542587
O O8 0.266308 0.500000 0.321807
O O9 0.000000 0.709286 0.311431
O O10 0.000000 0.278949 0.065528
O O11 0.803037 0.000000 0.056217
O O12 0.722294 0.277706 0.000000
#
# Coordination Sequence:
#
# PCOD9557463 Si02
#       5
#     8   4   8   8   1
#     4   8  14  24  43  73 105 143 192 244 299 358
#     4  12  26  44  72 102 132 171 207 250 303 359
#     4   9  18  36  63  95 130 165 209 263 314 368
#     4   8  13  20  32  58  95 136 187 243 297 356
#     4  12  28  52  68 104 140 168 210 244 292 360
#
# _framework density 21.930365999999999
#
# number of rings (size 3 to 8) (size 9 to 14) (size 15 to 20)
#    0.000    3.034    1.379    2.483    1.931    1.655 
#    0.000    0.000    0.000    1.655    0.000    0.000 
#    0.000    0.000    0.000    0.000    0.000    0.000 
#
# Total GULP energy -161707.219819 kJ/mol
# GULP energy per Si atom -5576.111028 kJ/mol
# Density = 2.188045 g / cm^3
# Si number density = 21.930366 Si / 1000 Ang^3
#
#
#
# Elastic Constant Matrix: (Units=GPa)
#
#
# Indices 1 2 3 4 5 6 
#
# 1 84.4608 15.7722 58.7821 0.0000 0.0000 0.0000
# 2 15.7722 84.4610 58.7821 0.0000 0.0000 0.0000
# 3 58.7821 58.7821 225.8986 0.0000 0.0000 0.0000
# 4 0.0000 0.0000 0.0000 1407.8004 0.0000 0.0000
# 5 0.0000 0.0000 0.0000 0.0000 1407.6906 0.0000
# 6 0.0000 0.0000 0.0000 0.0000 0.0000 -2.7572
#
#
#
# Elastic Compliance Matrix: (Units=1/GPa)
#
#
# Indices 1 2 3 4 5 6 
#
# 1 0.014459 -0.000100 -0.003737 0.000000 0.000000 0.000000
# 2 -0.000100 0.014459 -0.003736 0.000000 0.000000 0.000000
# 3 -0.003737 -0.003736 0.006371 0.000000 0.000000 0.000000
# 4 0.000000 0.000000 0.000000 0.000710 0.000000 0.000000
# 5 0.000000 0.000000 0.000000 0.000000 0.000710 0.000000
# 6 0.000000 0.000000 0.000000 0.000000 0.000000 -0.362693
#
#
# Mechanical properties :
#
#
# Convention : Reuss Voigt Hill
#
# Bulk Modulus (GPa) = 49.64265 73.49923 61.57094
# Shear Modulus (GPa) = -16.44068 579.97903 281.76917
#
# Velocity S-wave (km/s) = -2.74099 16.27999 11.34736
# Velocity P-wave (km/s) = 3.55925 19.67159 14.13577
#
# Compressibility (1/GPa) = 0.02014397
#
# Stress axis : x y z
#
# Youngs Moduli (GPa) = 69.16164 69.16176 156.95270
#
# Poissons Ratio (x) = 0.00689 0.58645
# Poissons Ratio (y) = 0.00689 0.58645
# Poissons Ratio (z) = 0.25842 0.25842
#
# Static dielectric constant tensor:
#      x y z
#    x 1.604450 0.000000 0.000000 
#    y 0.000000 1.604430 0.000000 
#    z 0.000000 0.000000 1.831140 
# 
# From -- ./inp_files/4605.got.cif
#   From: 2010.05.17/outbox.cif.g08.bks.cpg/sg115_3_cif.got.tgz:4605.got - 2010.05.20 11:07:42.
