data_PCOD9557636
_publ_section_title
;
Structure prediction by ZEFSAII (Michael W. Deem and Ramdas Pophale) SiO2 
 PCOD9557636
Probable space group: P -4 C 2
;
_chemical_formula_sum "Si O2"
_cell_formula_units_Z 42
_cell_length_a 17.685097
_cell_length_b 17.685097
_cell_length_c 8.924392
_cell_angle_alpha 90.000000
_cell_angle_beta 90.000000
_cell_angle_gamma 90.000000
_cell_volume 2791.216544
_symmetry_space_group_name_H-M "P -4 C 2"
_symmetry_group_IT_number 116
_symmetry_cell_setting 'tetragonal'
loop_
_space_group_symop_operation_xyz
x,y,z
y,-x,-z
-x,-y,z
-y,x,-z
y,x,1/2-z
-y,-x,1/2-z
-x,y,1/2+z
x,-y,1/2+z
loop_
_atom_site_type_symbol
_atom_site_label
_atom_site_fract_x
_atom_site_fract_y
_atom_site_fract_z
Si Si1 0.500000 0.000000 0.632657
Si Si2 0.654613 0.444695 0.042641
Si Si3 0.554057 0.107758 0.383853
Si Si4 0.227571 0.578334 0.556199
Si Si5 0.500000 0.500000 0.500000
Si Si6 0.347384 0.231018 0.764695
Si Si7 0.341249 0.658751 0.750000
O O1 0.449839 0.946314 0.527119
O O2 0.547696 0.945624 0.739824
O O3 0.703315 0.520570 0.027128
O O4 0.699791 0.392772 0.158072
O O5 0.570445 0.465991 0.088900
O O6 0.650853 0.402074 0.883294
O O7 0.477804 0.160468 0.390846
O O8 0.627098 0.161053 0.368604
O O9 0.212602 0.619379 0.399138
O O10 0.260156 0.639118 0.675029
O O11 0.262139 0.262139 0.750000
#
# Coordination Sequence:
#
# PCOD9557636 Si02
#       7
#     4   8   8   8   2   8   4
#     4  10  20  36  56  80  88 120 168 222 280 282
#     4  11  22  32  43  55  84 118 171 213 258 292
#     4  10  21  35  55  72  98 121 164 223 259 311
#     4  11  22  35  45  64  91 125 161 215 261 305
#     4  12  20  34  40  54  80 118 172 226 244 282
#     4  11  20  36  48  67  94 129 155 199 264 324
#     4  12  22  33  44  60  80 124 166 196 259 320
#
# _framework density 15.047204000000001
#
# number of rings (size 3 to 8) (size 9 to 14) (size 15 to 20)
#    0.000    1.143    5.714    2.286    2.667    0.381 
#    0.000    0.000    0.000    0.000    0.000    0.000 
#    0.000    0.000    0.000    0.000    0.000    2.857 
#
# Total GULP energy -234236.918239 kJ/mol
# GULP energy per Si atom -5577.069482 kJ/mol
# Density = 1.501296 g / cm^3
# Si number density = 15.047204 Si / 1000 Ang^3
#
#
#
# Elastic Constant Matrix: (Units=GPa)
#
#
# Indices 1 2 3 4 5 6 
#
# 1 70.7361 16.7965 20.6708 0.0000 0.0000 0.0000
# 2 16.7965 70.7362 20.6710 0.0000 0.0000 0.0000
# 3 20.6708 20.6710 65.4986 0.0000 0.0000 0.0000
# 4 0.0000 0.0000 0.0000 17.5595 0.0000 0.0000
# 5 0.0000 0.0000 0.0000 0.0000 17.5593 0.0000
# 6 0.0000 0.0000 0.0000 0.0000 0.0000 15.1885
#
#
#
# Elastic Compliance Matrix: (Units=1/GPa)
#
#
# Indices 1 2 3 4 5 6 
#
# 1 0.015982 -0.002557 -0.004237 0.000000 0.000000 0.000000
# 2 -0.002557 0.015982 -0.004237 0.000000 0.000000 0.000000
# 3 -0.004237 -0.004237 0.017942 0.000000 0.000000 0.000000
# 4 0.000000 0.000000 0.000000 0.056949 0.000000 0.000000
# 5 0.000000 0.000000 0.000000 0.000000 0.056950 0.000000
# 6 0.000000 0.000000 0.000000 0.000000 0.000000 0.065839
#
#
# Mechanical properties :
#
#
# Convention : Reuss Voigt Hill
#
# Bulk Modulus (GPa) = 35.91333 35.91637 35.91485
# Shear Modulus (GPa) = 19.15794 19.98362 19.57078
#
# Velocity S-wave (km/s) = 3.57205 3.64821 3.61033
# Velocity P-wave (km/s) = 6.39778 6.45499 6.42645
#
# Compressibility (1/GPa) = 0.02784481
#
# Stress axis : x y z
#
# Youngs Moduli (GPa) = 62.56906 62.56905 55.73567
#
# Poissons Ratio (x) = 0.15998 0.23615
# Poissons Ratio (y) = 0.15998 0.23615
# Poissons Ratio (z) = 0.26510 0.26510
#
# Static dielectric constant tensor:
#      x y z
#    x 1.517790 0.000000 0.000000 
#    y 0.000000 1.517790 0.000000 
#    z 0.000000 0.000000 1.555230 
# 
# From -- ./inp_files/937.got.cif
#   From: 2010.05.17/outbox.cif.g08.bks.cpg/sg116_1_cif.got.tgz:937.got - 2010.05.20 11:11:43.
