data_PCOD9557797
_publ_section_title
;
Structure prediction by ZEFSAII (Michael W. Deem and Ramdas Pophale) SiO2 
 PCOD9557797
Probable space group: P -4 C 2
;
_chemical_formula_sum "Si O2"
_cell_formula_units_Z 26
_cell_length_a 11.316604
_cell_length_b 11.316604
_cell_length_c 8.706915
_cell_angle_alpha 90.000000
_cell_angle_beta 90.000000
_cell_angle_gamma 90.000000
_cell_volume 1115.055650
_symmetry_space_group_name_H-M "P -4 C 2"
_symmetry_group_IT_number 116
_symmetry_cell_setting 'tetragonal'
loop_
_space_group_symop_operation_xyz
x,y,z
y,-x,-z
-x,-y,z
-y,x,-z
y,x,1/2-z
-y,-x,1/2-z
-x,y,1/2+z
x,-y,1/2+z
loop_
_atom_site_type_symbol
_atom_site_label
_atom_site_fract_x
_atom_site_fract_y
_atom_site_fract_z
Si Si1 0.500000 0.500000 0.500000
Si Si2 0.400036 0.895006 0.185156
Si Si3 0.037197 0.752147 0.029952
Si Si4 0.113218 0.886783 0.750000
Si Si5 0.373918 0.373918 0.750000
O O1 0.395223 0.464149 0.611859
O O2 0.308078 0.924373 0.049134
O O3 0.410743 0.754000 0.182417
O O4 0.500000 0.000000 0.173315
O O5 0.340516 0.910253 0.352464
O O6 0.111681 0.785943 0.879655
O O7 0.999613 0.862113 0.139423
#
# Coordination Sequence:
#
# PCOD9557797 Si02
#       5
#     2   8   8   4   4
#     4  10  28  50  72 102 140 218 240 334 376 474
#     4  11  24  43  75 108 146 191 256 328 389 472
#     4  10  23  41  64 106 136 198 238 316 388 468
#     4  10  22  41  60  90 142 181 242 296 388 461
#     4  11  26  50  72 107 156 190 268 315 402 470
#
# _framework density 23.317222999999998
#
# number of rings (size 3 to 8) (size 9 to 14) (size 15 to 20)
#    0.000    1.538    0.000    2.769    8.615    5.538 
#    0.000    0.000    0.000    0.000    0.000    0.000 
#    0.000    0.000    0.000    0.000    0.000    0.000 
#
# Total GULP energy -144737.860148 kJ/mol
# GULP energy per Si atom -5566.840775 kJ/mol
# Density = 2.326415 g / cm^3
# Si number density = 23.317223 Si / 1000 Ang^3
#
#
#
# Elastic Constant Matrix: (Units=GPa)
#
#
# Indices 1 2 3 4 5 6 
#
# 1 83.5111 23.2794 29.1042 0.0000 0.0000 0.0000
# 2 23.2794 83.5109 29.1042 0.0000 0.0000 0.0000
# 3 29.1042 29.1042 159.6014 0.0000 0.0000 0.0000
# 4 0.0000 0.0000 0.0000 27.8919 0.0000 0.0000
# 5 0.0000 0.0000 0.0000 0.0000 27.8922 0.0000
# 6 0.0000 0.0000 0.0000 0.0000 0.0000 21.3733
#
#
#
# Elastic Compliance Matrix: (Units=1/GPa)
#
#
# Indices 1 2 3 4 5 6 
#
# 1 0.013500 -0.003102 -0.001896 0.000000 0.000000 0.000000
# 2 -0.003102 0.013500 -0.001896 0.000000 0.000000 0.000000
# 3 -0.001896 -0.001896 0.006957 0.000000 0.000000 0.000000
# 4 0.000000 0.000000 0.000000 0.035853 0.000000 0.000000
# 5 0.000000 0.000000 0.000000 0.000000 0.035852 0.000000
# 6 0.000000 0.000000 0.000000 0.000000 0.000000 0.046787
#
#
# Mechanical properties :
#
#
# Convention : Reuss Voigt Hill
#
# Bulk Modulus (GPa) = 49.58321 54.39989 51.99155
# Shear Modulus (GPa) = 28.90815 31.77386 30.34101
#
# Velocity S-wave (km/s) = 3.52487 3.69545 3.61117
# Velocity P-wave (km/s) = 6.15443 6.44899 6.30343
#
# Compressibility (1/GPa) = 0.02016812
#
# Stress axis : x y z
#
# Youngs Moduli (GPa) = 74.07358 74.07346 143.73755
#
# Poissons Ratio (x) = 0.22981 0.27254
# Poissons Ratio (y) = 0.22981 0.27254
# Poissons Ratio (z) = 0.14045 0.14045
#
# Static dielectric constant tensor:
#      x y z
#    x 2.022950 0.000000 0.000000 
#    y 0.000000 2.022950 0.000000 
#    z 0.000000 0.000000 1.825000 
# 
# From -- ./inp_files/548.got.cif
#   From: 2010.05.17/outbox.cif.g08.bks.cpg/sg116_1_cif.got.tgz:548.got - 2010.05.20 11:11:43.
