data_PCOD9557195
_publ_section_title
;
Structure prediction by ZEFSAII (Michael W. Deem and Ramdas Pophale) SiO2 
 PCOD9557195
Probable space group: P -4 M 2
;
_chemical_formula_sum "Si O2"
_cell_formula_units_Z 44
_cell_length_a 9.296209
_cell_length_b 9.296209
_cell_length_c 29.373268
_cell_angle_alpha 90.000000
_cell_angle_beta 90.000000
_cell_angle_gamma 90.000000
_cell_volume 2538.423186
_symmetry_space_group_name_H-M "P -4 M 2"
_symmetry_group_IT_number 115
_symmetry_cell_setting 'tetragonal'
loop_
_space_group_symop_operation_xyz
x,y,z
y,-x,-z
-x,-y,z
-y,x,-z
y,x,-z
-y,-x,-z
-x,y,z
x,-y,z
loop_
_atom_site_type_symbol
_atom_site_label
_atom_site_fract_x
_atom_site_fract_y
_atom_site_fract_z
Si Si1 0.169135 0.826997 0.267011
Si Si2 0.827761 0.331123 0.640841
Si Si3 0.333673 0.675289 0.549859
Si Si4 0.829110 0.829110 0.000000
Si Si5 0.672893 0.330822 0.815382
Si Si6 0.672144 0.830853 0.907743
O O1 0.240453 0.783982 0.315066
O O2 0.249952 0.750327 0.225735
O O3 0.000000 0.793206 0.266383
O O4 0.185232 0.000000 0.262757
O O5 0.790832 0.500000 0.647841
O O6 0.755592 0.280830 0.593941
O O7 0.000000 0.321856 0.636323
O O8 0.278287 0.721714 0.500000
O O9 0.500000 0.719140 0.555013
O O10 0.331445 0.500000 0.548278
O O11 0.748070 0.783089 0.954238
O O12 0.000000 0.805313 0.994319
O O13 0.500000 0.314514 0.810875
O O14 0.706562 0.500000 0.814753
O O15 0.714981 0.259874 0.863560
O O16 0.500000 0.819252 0.913097
O O17 0.706659 0.000000 0.900341
#
# Coordination Sequence:
#
# PCOD9557195 Si02
#       6
#     8   8   8   4   8   8
#     4  10  21  36  53  73  99 132 168 206 250 300
#     4   9  17  30  48  69  94 124 158 198 244 292
#     4   8  14  26  45  68  93 122 157 196 238 286
#     4   9  18  32  50  73 100 130 166 205 242 285
#     4  10  21  36  54  77 103 131 166 208 253 300
#     4   9  18  33  51  71  99 133 164 198 245 296
#
# _framework density 17.333597000000001
#
# number of rings (size 3 to 8) (size 9 to 14) (size 15 to 20)
#    0.000    2.818    0.000    1.636    0.000    4.364 
#    0.000    4.545    0.000    1.091    0.000    0.000 
#    0.000    0.000    0.000    0.000    0.000    0.000 
#
# Total GULP energy -245316.443451 kJ/mol
# GULP energy per Si atom -5575.373715 kJ/mol
# Density = 1.729414 g / cm^3
# Si number density = 17.333597 Si / 1000 Ang^3
#
#
#
# Elastic Constant Matrix: (Units=GPa)
#
#
# Indices 1 2 3 4 5 6 
#
# 1 51.7672 42.3057 80.9726 0.0000 0.0000 0.0000
# 2 42.3057 51.7670 80.9726 0.0000 0.0000 0.0000
# 3 80.9726 80.9726 224.0778 0.0000 0.0000 0.0000
# 4 0.0000 0.0000 0.0000 51.7568 0.0000 0.0000
# 5 0.0000 0.0000 0.0000 0.0000 51.7564 0.0000
# 6 0.0000 0.0000 0.0000 0.0000 0.0000 19.2225
#
#
#
# Elastic Compliance Matrix: (Units=1/GPa)
#
#
# Indices 1 2 3 4 5 6 
#
# 1 0.066910 -0.038782 -0.010164 0.000000 0.000000 0.000000
# 2 -0.038782 0.066910 -0.010164 0.000000 0.000000 0.000000
# 3 -0.010164 -0.010164 0.011809 0.000000 0.000000 0.000000
# 4 0.000000 0.000000 0.000000 0.019321 0.000000 0.000000
# 5 0.000000 0.000000 0.000000 0.000000 0.019321 0.000000
# 6 0.000000 0.000000 0.000000 0.000000 0.000000 0.052022
#
#
# Mechanical properties :
#
#
# Convention : Reuss Voigt Hill
#
# Bulk Modulus (GPa) = 36.48695 81.79042 59.13869
# Shear Modulus (GPa) = 13.74947 32.77123 23.26035
#
# Velocity S-wave (km/s) = 2.81948 4.35284 3.66720
# Velocity P-wave (km/s) = 5.62982 8.51772 7.21964
#
# Compressibility (1/GPa) = 0.02740706
#
# Stress axis : x y z
#
# Youngs Moduli (GPa) = 14.94550 14.94541 84.68427
#
# Poissons Ratio (x) = 0.57962 0.86074
# Poissons Ratio (y) = 0.57962 0.86075
# Poissons Ratio (z) = 0.15191 0.15191
#
# Static dielectric constant tensor:
#      x y z
#    x 1.580460 0.000000 0.000000 
#    y 0.000000 1.580460 0.000000 
#    z 0.000000 0.000000 1.572560 
# 
# From -- ./inp_files/5755.got.cif
#   From: 2010.05.17/outbox.cif.g08.bks.cpg/sg115_3_cif.got.tgz:5755.got - 2010.05.20 11:07:42.
