data_PCOD9557774
_publ_section_title
;
Structure prediction by ZEFSAII (Michael W. Deem and Ramdas Pophale) SiO2 
 PCOD9557774
Probable space group: P -4 C 2
;
_chemical_formula_sum "Si O2"
_cell_formula_units_Z 26
_cell_length_a 10.477591
_cell_length_b 10.477591
_cell_length_c 10.576934
_cell_angle_alpha 90.000000
_cell_angle_beta 90.000000
_cell_angle_gamma 90.000000
_cell_volume 1161.134896
_symmetry_space_group_name_H-M "P -4 C 2"
_symmetry_group_IT_number 116
_symmetry_cell_setting 'tetragonal'
loop_
_space_group_symop_operation_xyz
x,y,z
y,-x,-z
-x,-y,z
-y,x,-z
y,x,1/2-z
-y,-x,1/2-z
-x,y,1/2+z
x,-y,1/2+z
loop_
_atom_site_type_symbol
_atom_site_label
_atom_site_fract_x
_atom_site_fract_y
_atom_site_fract_z
Si Si1 0.908145 0.254039 0.336238
Si Si2 0.535401 0.851825 0.482863
Si Si3 0.000000 0.000000 0.750000
Si Si4 0.623148 0.829531 0.223609
O O1 0.789231 0.210769 0.250000
O O2 0.855589 0.320879 0.460864
O O3 0.985997 0.121497 0.341645
O O4 0.017910 0.346511 0.279172
O O5 0.533635 0.797100 0.342884
O O6 0.443717 0.796308 0.591031
O O7 0.500000 0.000000 0.472519
O O8 0.750935 0.750935 0.250000
#
# Coordination Sequence:
#
# PCOD9557774 Si02
#       4
#     8   8   2   8
#     4   9  18  36  58  92 133 155 190 239 308 370
#     4  10  22  37  61  89 125 165 199 246 313 370
#     4   8  16  36  54 100 132 152 188 244 302 360
#     4  11  22  41  62  88 120 159 210 256 304 369
#
# _framework density 22.391886
#
# number of rings (size 3 to 8) (size 9 to 14) (size 15 to 20)
#    0.923    1.231    1.538    2.769    0.000    7.385 
#    0.000    1.538    0.000    7.385    0.000    0.000 
#    0.000    0.000    0.000    0.000    0.000    0.000 
#
# Total GULP energy -144855.800533 kJ/mol
# GULP energy per Si atom -5571.376944 kJ/mol
# Density = 2.234092 g / cm^3
# Si number density = 22.391886 Si / 1000 Ang^3
#
#
#
# Elastic Constant Matrix: (Units=GPa)
#
#
# Indices 1 2 3 4 5 6 
#
# 1 68.9396 -5.2153 21.6422 0.0000 0.0000 0.0000
# 2 -5.2153 68.9396 21.6422 0.0000 0.0000 0.0000
# 3 21.6422 21.6422 123.6185 0.0000 0.0000 0.0000
# 4 0.0000 0.0000 0.0000 12.9269 0.0000 0.0000
# 5 0.0000 0.0000 0.0000 0.0000 12.9269 0.0000
# 6 0.0000 0.0000 0.0000 0.0000 0.0000 13.5965
#
#
#
# Elastic Compliance Matrix: (Units=1/GPa)
#
#
# Indices 1 2 3 4 5 6 
#
# 1 0.015648 0.002163 -0.003118 0.000000 0.000000 0.000000
# 2 0.002163 0.015648 -0.003118 0.000000 0.000000 0.000000
# 3 -0.003118 -0.003118 0.009181 0.000000 0.000000 0.000000
# 4 0.000000 0.000000 0.000000 0.077358 0.000000 0.000000
# 5 0.000000 0.000000 0.000000 0.000000 0.077358 0.000000
# 6 0.000000 0.000000 0.000000 0.000000 0.000000 0.073548
#
#
# Mechanical properties :
#
#
# Convention : Reuss Voigt Hill
#
# Bulk Modulus (GPa) = 30.93120 37.51510 34.22315
# Shear Modulus (GPa) = 17.38129 22.78529 20.08329
#
# Velocity S-wave (km/s) = 2.78912 3.19340 2.99808
# Velocity P-wave (km/s) = 4.92095 5.51247 5.22509
#
# Compressibility (1/GPa) = 0.03232982
#
# Stress axis : x y z
#
# Youngs Moduli (GPa) = 63.90615 63.90615 108.91809
#
# Poissons Ratio (x) = -0.13821 0.33962
# Poissons Ratio (y) = -0.13821 0.33962
# Poissons Ratio (z) = 0.19927 0.19927
#
# Static dielectric constant tensor:
#      x y z
#    x 1.871200 0.000000 0.000000 
#    y 0.000000 1.871200 0.000000 
#    z 0.000000 0.000000 1.871500 
# 
# From -- ./inp_files/518.got.cif
#   From: 2010.05.17/outbox.cif.g08.bks.cpg/sg116_1_cif.got.tgz:518.got - 2010.05.20 11:11:43.
