data_PCOD9557618
_publ_section_title
;
Structure prediction by ZEFSAII (Michael W. Deem and Ramdas Pophale) SiO2 
 PCOD9557618
Probable space group: P -4 C 2
;
_chemical_formula_sum "Si O2"
_cell_formula_units_Z 56
_cell_length_a 20.906594
_cell_length_b 20.906594
_cell_length_c 8.770736
_cell_angle_alpha 90.000000
_cell_angle_beta 90.000000
_cell_angle_gamma 90.000000
_cell_volume 3833.563044
_symmetry_space_group_name_H-M "P -4 C 2"
_symmetry_group_IT_number 116
_symmetry_cell_setting 'tetragonal'
loop_
_space_group_symop_operation_xyz
x,y,z
y,-x,-z
-x,-y,z
-y,x,-z
y,x,1/2-z
-y,-x,1/2-z
-x,y,1/2+z
x,-y,1/2+z
loop_
_atom_site_type_symbol
_atom_site_label
_atom_site_fract_x
_atom_site_fract_y
_atom_site_fract_z
Si Si1 0.310067 0.881526 0.547158
Si Si2 0.010665 0.780866 0.077175
Si Si3 0.434181 0.067363 0.549289
Si Si4 0.311117 0.112329 0.392763
Si Si5 0.184866 0.191570 0.070273
Si Si6 0.435317 0.925987 0.407136
Si Si7 0.068878 0.146384 0.856425
O O1 0.264892 0.943071 0.518387
O O2 0.334687 0.882384 0.720044
O O3 0.257360 0.826117 0.530555
O O4 0.372011 0.885241 0.441775
O O5 0.047193 0.800550 0.231499
O O6 0.947591 0.738301 0.105041
O O7 0.986896 0.843716 0.983034
O O8 0.369501 0.102674 0.504366
O O9 0.497605 0.097735 0.475417
O O10 0.442532 0.064113 0.728623
O O11 0.426071 0.995618 0.483971
O O12 0.266700 0.171729 0.434833
O O13 0.172371 0.172371 0.250000
O O14 0.134387 0.159831 0.951898
O O15 0.084878 0.084878 0.750000
#
# Coordination Sequence:
#
# PCOD9557618 Si02
#       7
#     8   8   8   8   8   8   8
#     4  11  19  33  49  72  94 117 152 189 235 276
#     4  11  21  32  49  74  86 118 143 186 237 284
#     4  11  21  33  45  68  93 128 155 185 230 275
#     4  10  20  33  50  69  96 117 154 188 233 280
#     4   9  21  34  51  74  95 118 149 195 237 281
#     4  11  22  31  47  65  96 123 155 188 225 283
#     4  11  22  35  53  71  90 111 147 188 239 297
#
# _framework density 14.60782
#
# number of rings (size 3 to 8) (size 9 to 14) (size 15 to 20)
#    0.000    1.429    4.286    3.429    4.000    0.000 
#    0.000    0.000    0.000    1.286    0.000    0.000 
#    0.000    0.000    0.000    0.000    0.000    0.714 
#
# Total GULP energy -312033.581305 kJ/mol
# GULP energy per Si atom -5572.028238 kJ/mol
# Density = 1.457457 g / cm^3
# Si number density = 14.607820 Si / 1000 Ang^3
#
#
#
# Elastic Constant Matrix: (Units=GPa)
#
#
# Indices 1 2 3 4 5 6 
#
# 1 54.8944 33.8504 31.1013 0.0000 0.0000 0.0000
# 2 33.8504 54.8944 31.1013 0.0000 0.0000 0.0000
# 3 31.1013 31.1013 103.8820 0.0000 0.0000 0.0000
# 4 0.0000 0.0000 0.0000 20.7080 0.0000 0.0000
# 5 0.0000 0.0000 0.0000 0.0000 20.7080 0.0000
# 6 0.0000 0.0000 0.0000 0.0000 0.0000 10.2025
#
#
#
# Elastic Compliance Matrix: (Units=1/GPa)
#
#
# Indices 1 2 3 4 5 6 
#
# 1 0.030890 -0.016629 -0.004270 0.000000 0.000000 0.000000
# 2 -0.016629 0.030890 -0.004270 0.000000 0.000000 0.000000
# 3 -0.004270 -0.004270 0.012183 0.000000 0.000000 0.000000
# 4 0.000000 0.000000 0.000000 0.048290 0.000000 0.000000
# 5 0.000000 0.000000 0.000000 0.000000 0.048290 0.000000
# 6 0.000000 0.000000 0.000000 0.000000 0.000000 0.098016
#
#
# Mechanical properties :
#
#
# Convention : Reuss Voigt Hill
#
# Bulk Modulus (GPa) = 42.32569 45.08630 43.70599
# Shear Modulus (GPa) = 15.30118 18.16489 16.73304
#
# Velocity S-wave (km/s) = 3.23997 3.53016 3.38817
# Velocity P-wave (km/s) = 6.56004 6.89547 6.72985
#
# Compressibility (1/GPa) = 0.02362631
#
# Stress axis : x y z
#
# Youngs Moduli (GPa) = 32.37266 32.37266 82.08267
#
# Poissons Ratio (x) = 0.53834 0.35046
# Poissons Ratio (y) = 0.53834 0.35046
# Poissons Ratio (z) = 0.13822 0.13822
#
# Static dielectric constant tensor:
#      x y z
#    x 1.500150 0.000000 0.000000 
#    y 0.000000 1.500150 0.000000 
#    z 0.000000 0.000000 1.531400 
# 
# From -- ./inp_files/1116.got.cif
#   From: 2010.05.17/outbox.cif.g08.bks.cpg/sg116_1_cif.got.tgz:1116.got - 2010.05.20 11:11:43.
