data_PCOD9557301
_publ_section_title
;
Structure prediction by ZEFSAII (Michael W. Deem and Ramdas Pophale) SiO2 
 PCOD9557301
Probable space group: P -4 M 2
;
_chemical_formula_sum "Si O2"
_cell_formula_units_Z 40
_cell_length_a 9.261057
_cell_length_b 9.261057
_cell_length_c 26.607780
_cell_angle_alpha 90.000000
_cell_angle_beta 90.000000
_cell_angle_gamma 90.000000
_cell_volume 2282.074170
_symmetry_space_group_name_H-M "P -4 M 2"
_symmetry_group_IT_number 115
_symmetry_cell_setting 'tetragonal'
loop_
_space_group_symop_operation_xyz
x,y,z
y,-x,-z
-x,-y,z
-y,x,-z
y,x,-z
-y,-x,-z
-x,y,z
x,-y,z
loop_
_atom_site_type_symbol
_atom_site_label
_atom_site_fract_x
_atom_site_fract_y
_atom_site_fract_z
Si Si1 0.669325 0.172685 0.694974
Si Si2 0.328135 0.328569 0.797081
Si Si3 0.171156 0.827122 0.592105
Si Si4 0.828203 0.171798 0.000000
Si Si5 0.671961 0.328040 0.500000
Si Si6 0.671674 0.828086 0.101481
O O1 0.500000 0.209552 0.686349
O O2 0.717871 0.248972 0.746207
O O3 0.762471 0.211997 0.646297
O O4 0.678193 0.000000 0.701414
O O5 0.500000 0.306748 0.802712
O O6 0.301681 0.500000 0.791668
O O7 0.249388 0.278241 0.847660
O O8 0.252866 0.741436 0.548627
O O9 0.000000 0.799611 0.590446
O O10 0.193059 0.000000 0.584954
O O11 0.750108 0.221661 0.050767
O O12 0.000000 0.195941 0.005063
O O13 0.500000 0.302917 0.501556
O O14 0.500000 0.803081 0.096413
O O15 0.695074 0.000000 0.106434
#
# Coordination Sequence:
#
# PCOD9557301 Si02
#       6
#     8   8   8   4   4   8
#     4   9  18  33  52  74 102 135 168 204 248 296
#     4   9  18  32  49  70  97 128 162 201 244 290
#     4  10  21  37  57  81 108 138 173 213 257 305
#     4   9  18  32  48  67  92 122 156 195 240 288
#     4  11  24  39  56  80 108 139 176 215 256 304
#     4   9  18  32  48  67  93 124 157 195 241 291
#
# _framework density 17.527913999999999
#
# number of rings (size 3 to 8) (size 9 to 14) (size 15 to 20)
#    0.000    2.600    0.000    1.200    0.000    6.400 
#    0.000    2.000    0.000    0.000    0.000    0.000 
#    0.000    0.000    0.000    0.000    0.000    0.000 
#
# Total GULP energy -223145.461985 kJ/mol
# GULP energy per Si atom -5578.636550 kJ/mol
# Density = 1.748802 g / cm^3
# Si number density = 17.527914 Si / 1000 Ang^3
#
#
#
# Elastic Constant Matrix: (Units=GPa)
#
#
# Indices 1 2 3 4 5 6 
#
# 1 52.5655 53.4182 86.5511 0.0000 0.0000 0.0000
# 2 53.4182 52.5656 86.5512 0.0000 0.0000 0.0000
# 3 86.5511 86.5512 223.1804 0.0000 0.0000 0.0000
# 4 0.0000 0.0000 0.0000 40.5455 0.0000 0.0000
# 5 0.0000 0.0000 0.0000 0.0000 40.5456 0.0000
# 6 0.0000 0.0000 0.0000 0.0000 0.0000 20.6617
#
#
#
# Elastic Compliance Matrix: (Units=1/GPa)
#
#
# Indices 1 2 3 4 5 6 
#
# 1 -0.573540 0.599278 -0.009982 0.000000 0.000000 0.000000
# 2 0.599278 -0.573540 -0.009981 0.000000 0.000000 0.000000
# 3 -0.009982 -0.009981 0.012222 0.000000 0.000000 0.000000
# 4 0.000000 0.000000 0.000000 0.024664 0.000000 0.000000
# 5 0.000000 0.000000 0.000000 0.000000 0.024664 0.000000
# 6 0.000000 0.000000 0.000000 0.000000 0.000000 0.048399
#
#
# Mechanical properties :
#
#
# Convention : Reuss Voigt Hill
#
# Bulk Modulus (GPa) = 42.06509 86.81693 64.44101
# Shear Modulus (GPa) = -2.28536 27.13663 12.42563
#
# Velocity S-wave (km/s) = -1.14310 3.93898 2.66542
# Velocity P-wave (km/s) = 4.72322 8.38604 6.80567
#
# Compressibility (1/GPa) = 0.02377268
#
# Stress axis : x y z
#
# Youngs Moduli (GPa) = -1.74356 -1.74356 81.81725
#
# Poissons Ratio (x) = 1.04488 0.81666
# Poissons Ratio (y) = 1.04488 0.81663
# Poissons Ratio (z) = -0.01740 -0.01740
#
# Static dielectric constant tensor:
#      x y z
#    x 1.586020 0.000000 0.000000 
#    y 0.000000 1.586020 0.000000 
#    z 0.000000 0.000000 1.573160 
# 
# From -- ./inp_files/5509.got.cif
#   From: 2010.05.17/outbox.cif.g08.bks.cpg/sg115_3_cif.got.tgz:5509.got - 2010.05.20 11:07:42.
