data_PCOD9557383
_publ_section_title
;
Structure prediction by ZEFSAII (Michael W. Deem and Ramdas Pophale) SiO2 
 PCOD9557383
Probable space group: P -4 M 2
;
_chemical_formula_sum "Si O2"
_cell_formula_units_Z 40
_cell_length_a 13.677846
_cell_length_b 13.677846
_cell_length_c 10.878790
_cell_angle_alpha 90.000000
_cell_angle_beta 90.000000
_cell_angle_gamma 90.000000
_cell_volume 2035.241796
_symmetry_space_group_name_H-M "P -4 M 2"
_symmetry_group_IT_number 115
_symmetry_cell_setting 'tetragonal'
loop_
_space_group_symop_operation_xyz
x,y,z
y,-x,-z
-x,-y,z
-y,x,-z
y,x,-z
-y,-x,-z
-x,y,z
x,-y,z
loop_
_atom_site_type_symbol
_atom_site_label
_atom_site_fract_x
_atom_site_fract_y
_atom_site_fract_z
Si Si1 0.388367 0.882013 0.250000
Si Si2 0.884053 0.727718 0.000795
Si Si3 0.282430 0.383876 0.114655
Si Si4 0.717571 0.383876 0.385345
Si Si5 0.272282 0.115947 0.500795
O O1 0.500000 0.843188 0.250000
O O2 0.327025 0.859195 0.127844
O O3 0.327025 0.859195 0.372157
O O4 0.396506 0.000000 0.250001
O O5 0.000000 0.729592 0.017656
O O6 0.834361 0.834361 0.000000
O O7 0.823862 0.665590 0.100187
O O8 0.273486 0.500000 0.105967
O O9 0.323727 0.359683 0.250000
O O10 0.344877 0.344877 0.000000
O O11 0.655124 0.344877 0.500000
O O12 0.726515 0.500000 0.394033
O O13 0.823862 0.334410 0.399813
O O14 0.165639 0.165639 0.500000
O O15 0.270408 0.000000 0.517656
#
# Coordination Sequence:
#
# PCOD9557383 Si02
#       5
#     8   8   8   8   8
#     4   9  18  36  61  87 116 157 207 253 301 361
#     4  10  22  38  60  91 125 162 206 254 305 364
#     4  10  23  41  62  92 126 162 205 253 309 368
#     4  10  23  41  62  92 126 162 205 253 309 368
#     4  10  22  38  60  91 125 162 206 254 305 364
#
# _framework density 19.653686
#
# number of rings (size 3 to 8) (size 9 to 14) (size 15 to 20)
#    0.000    2.200    0.000    1.200   11.200    4.800 
#    0.000    4.000    0.000    3.600    0.000    0.000 
#    0.000    0.000    0.000    0.000    0.000    0.000 
#
# Total GULP energy -223227.337862 kJ/mol
# GULP energy per Si atom -5580.683447 kJ/mol
# Density = 1.960895 g / cm^3
# Si number density = 19.653686 Si / 1000 Ang^3
#
#
#
# Elastic Constant Matrix: (Units=GPa)
#
#
# Indices 1 2 3 4 5 6 
#
# 1 273.5563 -114.3192 48.5373 0.0000 0.0000 0.0000
# 2 -114.3192 273.5804 48.5571 0.0000 0.0000 0.0000
# 3 48.5373 48.5571 134.7781 0.0000 0.0000 0.0000
# 4 0.0000 0.0000 0.0000 24.0115 0.0000 0.0000
# 5 0.0000 0.0000 0.0000 0.0000 24.0114 0.0000
# 6 0.0000 0.0000 0.0000 0.0000 0.0000 21.8188
#
#
#
# Elastic Compliance Matrix: (Units=1/GPa)
#
#
# Indices 1 2 3 4 5 6 
#
# 1 0.005312 0.002734 -0.002898 0.000000 0.000000 0.000000
# 2 0.002734 0.005312 -0.002899 0.000000 0.000000 0.000000
# 3 -0.002898 -0.002899 0.009508 0.000000 0.000000 0.000000
# 4 0.000000 0.000000 0.000000 0.041647 0.000000 0.000000
# 5 0.000000 0.000000 0.000000 0.000000 0.041647 0.000000
# 6 0.000000 0.000000 0.000000 0.000000 0.000000 0.045832
#
#
# Mechanical properties :
#
#
# Convention : Reuss Voigt Hill
#
# Bulk Modulus (GPa) = 71.39155 71.94058 71.66607
# Shear Modulus (GPa) = 31.23987 60.57767 45.90877
#
# Velocity S-wave (km/s) = 3.99120 5.55783 4.83834
# Velocity P-wave (km/s) = 7.59231 8.82437 8.23143
#
# Compressibility (1/GPa) = 0.01400726
#
# Stress axis : x y z
#
# Youngs Moduli (GPa) = 188.23718 188.24438 105.17879
#
# Poissons Ratio (x) = -0.51471 0.30483
# Poissons Ratio (y) = -0.51469 0.30487
# Poissons Ratio (z) = 0.54556 0.54564
#
# Static dielectric constant tensor:
#      x y z
#    x 1.688040 0.000000 0.000000 
#    y 0.000000 1.688040 0.000000 
#    z 0.000000 0.000000 1.720330 
# 
# From -- ./inp_files/1617.got.cif
#   From: 2010.05.17/outbox.cif.g08.bks.cpg/sg115_1_cif.got.tgz:1617.got - 2010.05.20 11:07:42.
