data_PCOD9557608
_publ_section_title
;
Structure prediction by ZEFSAII (Michael W. Deem and Ramdas Pophale) SiO2 
 PCOD9557608
Probable space group: P -4 C 2
;
_chemical_formula_sum "Si O2"
_cell_formula_units_Z 48
_cell_length_a 14.005721
_cell_length_b 14.005721
_cell_length_c 12.579827
_cell_angle_alpha 90.000000
_cell_angle_beta 90.000000
_cell_angle_gamma 90.000000
_cell_volume 2467.661641
_symmetry_space_group_name_H-M "P -4 C 2"
_symmetry_group_IT_number 116
_symmetry_cell_setting 'tetragonal'
loop_
_space_group_symop_operation_xyz
x,y,z
y,-x,-z
-x,-y,z
-y,x,-z
y,x,1/2-z
-y,-x,1/2-z
-x,y,1/2+z
x,-y,1/2+z
loop_
_atom_site_type_symbol
_atom_site_label
_atom_site_fract_x
_atom_site_fract_y
_atom_site_fract_z
Si Si1 0.429008 0.665941 0.646968
Si Si2 0.707901 0.103829 0.342701
Si Si3 0.207386 0.494455 0.691106
Si Si4 0.626856 0.637850 0.914821
Si Si5 0.826742 0.273066 0.379107
Si Si6 0.401186 0.939679 0.955529
O O1 0.379151 0.620850 0.750000
O O2 0.463052 0.768709 0.693275
O O3 0.526754 0.615399 0.609929
O O4 0.367676 0.664936 0.539441
O O5 0.604653 0.151217 0.317464
O O6 0.778700 0.171199 0.411756
O O7 0.749043 0.108508 0.223841
O O8 0.676154 0.007844 0.398916
O O9 0.305813 0.462467 0.634191
O O10 0.144654 0.566901 0.623440
O O11 0.726244 0.670253 0.861140
O O12 0.888947 0.343549 0.450450
O O13 0.500000 0.000000 0.981434
#
# Coordination Sequence:
#
# PCOD9557608 Si02
#       6
#     8   8   8   8   8   8
#     4  12  23  34  51  76 115 167 222 256 284 352
#     4   9  20  38  62  84 114 163 191 244 318 368
#     4  10  21  37  54  81 120 155 207 255 299 351
#     4  11  23  37  53  79 117 175 208 251 306 354
#     4  10  19  40  61  81 122 157 193 248 317 379
#     4  10  21  37  61  96 118 150 210 257 302 368
#
# _framework density 19.451613999999999
#
# number of rings (size 3 to 8) (size 9 to 14) (size 15 to 20)
#    0.000    1.667    1.667    3.500    0.000    6.333 
#    6.000    0.000    0.000    0.500    0.000    2.333 
#    0.000    0.000    0.000    0.000    0.000    0.000 
#
# Total GULP energy -267255.009244 kJ/mol
# GULP energy per Si atom -5567.812693 kJ/mol
# Density = 1.940734 g / cm^3
# Si number density = 19.451614 Si / 1000 Ang^3
#
#
#
# Elastic Constant Matrix: (Units=GPa)
#
#
# Indices 1 2 3 4 5 6 
#
# 1 70.1771 38.8717 28.4773 0.0000 0.0000 0.0000
# 2 38.8717 70.1757 28.4761 0.0000 0.0000 0.0000
# 3 28.4773 28.4761 95.2533 0.0000 0.0000 0.0000
# 4 0.0000 0.0000 0.0000 26.4040 0.0000 0.0000
# 5 0.0000 0.0000 0.0000 0.0000 26.4040 0.0000
# 6 0.0000 0.0000 0.0000 0.0000 0.0000 27.2313
#
#
#
# Elastic Compliance Matrix: (Units=1/GPa)
#
#
# Indices 1 2 3 4 5 6 
#
# 1 0.021405 -0.010539 -0.003249 0.000000 0.000000 0.000000
# 2 -0.010539 0.021406 -0.003249 0.000000 0.000000 0.000000
# 3 -0.003249 -0.003249 0.012441 0.000000 0.000000 0.000000
# 4 0.000000 0.000000 0.000000 0.037873 0.000000 0.000000
# 5 0.000000 0.000000 0.000000 0.000000 0.037873 0.000000
# 6 0.000000 0.000000 0.000000 0.000000 0.000000 0.036722
#
#
# Mechanical properties :
#
#
# Convention : Reuss Voigt Hill
#
# Bulk Modulus (GPa) = 47.21488 47.47290 47.34389
# Shear Modulus (GPa) = 23.94033 25.32659 24.63346
#
# Velocity S-wave (km/s) = 3.51203 3.61228 3.56251
# Velocity P-wave (km/s) = 6.38526 6.46968 6.42760
#
# Compressibility (1/GPa) = 0.02117977
#
# Stress axis : x y z
#
# Youngs Moduli (GPa) = 46.71713 46.71660 80.38054
#
# Poissons Ratio (x) = 0.49232 0.26115
# Poissons Ratio (y) = 0.49233 0.26113
# Poissons Ratio (z) = 0.15178 0.15176
#
# Static dielectric constant tensor:
#      x y z
#    x 1.739870 0.000000 0.000000 
#    y 0.000000 1.739870 0.000000 
#    z 0.000000 0.000000 1.772070 
# 
# From -- ./inp_files/1915.got.cif
#   From: 2010.05.17/outbox.cif.g08.bks.cpg/sg116_1_cif.got.tgz:1915.got - 2010.05.20 11:11:43.
