data_PCOD9557159
_publ_section_title
;
Structure prediction by ZEFSAII (Michael W. Deem and Ramdas Pophale) SiO2 
 PCOD9557159
Probable space group: P -4 M 2
;
_chemical_formula_sum "Si O2"
_cell_formula_units_Z 44
_cell_length_a 9.554050
_cell_length_b 9.554050
_cell_length_c 28.737720
_cell_angle_alpha 90.000000
_cell_angle_beta 90.000000
_cell_angle_gamma 90.000000
_cell_volume 2623.175386
_symmetry_space_group_name_H-M "P -4 M 2"
_symmetry_group_IT_number 115
_symmetry_cell_setting 'tetragonal'
loop_
_space_group_symop_operation_xyz
x,y,z
y,-x,-z
-x,-y,z
-y,x,-z
y,x,-z
-y,-x,-z
-x,y,z
x,-y,z
loop_
_atom_site_type_symbol
_atom_site_label
_atom_site_fract_x
_atom_site_fract_y
_atom_site_fract_z
Si Si1 0.164419 0.666886 0.407402
Si Si2 0.333610 0.333297 0.052716
Si Si3 0.334892 0.332324 0.314783
Si Si4 0.834674 0.167578 0.237081
Si Si5 0.834380 0.833746 0.870108
Si Si6 0.834275 0.834275 0.500000
O O1 0.176792 0.500000 0.414863
O O2 0.258521 0.705151 0.363193
O O3 0.205385 0.748291 0.454115
O O4 0.000000 0.697394 0.397765
O O5 0.500000 0.308708 0.057178
O O6 0.310931 0.500000 0.056984
O O7 0.250932 0.251947 0.092144
O O8 0.292001 0.292001 0.000000
O O9 0.500000 0.301414 0.316623
O O10 0.318280 0.500000 0.308468
O O11 0.259331 0.251110 0.273195
O O12 0.799479 0.203062 0.183435
O O13 0.000000 0.197990 0.244310
O O14 0.817060 0.000000 0.242521
O O15 0.000000 0.806710 0.875597
O O16 0.812450 0.000000 0.876018
O O17 0.000000 0.812279 0.508123
#
# Coordination Sequence:
#
# PCOD9557159 Si02
#       6
#     8   8   8   8   8   4
#     4   9  18  33  51  70  96 131 166 200 243 295
#     4   9  19  35  52  72 101 135 169 205 246 294
#     4  10  21  35  51  75 105 134 167 207 250 297
#     4   9  19  36  55  74  99 132 168 206 250 299
#     4   9  19  35  53  75 102 130 164 207 252 298
#     4   9  18  32  50  73  98 124 160 205 248 291
#
# _framework density 16.773565000000001
#
# number of rings (size 3 to 8) (size 9 to 14) (size 15 to 20)
#    0.000    2.818    0.000    2.182    0.000    5.818 
#    0.000   10.000    0.000    0.000    0.000    0.000 
#    0.000    0.000    0.000    0.000    0.000    0.000 
#
# Total GULP energy -245372.900821 kJ/mol
# GULP energy per Si atom -5576.656837 kJ/mol
# Density = 1.673539 g / cm^3
# Si number density = 16.773565 Si / 1000 Ang^3
#
#
#
# Elastic Constant Matrix: (Units=GPa)
#
#
# Indices 1 2 3 4 5 6 
#
# 1 65.3971 60.4662 101.2881 0.0000 0.0000 0.0000
# 2 60.4662 65.3971 101.2881 0.0000 0.0000 0.0000
# 3 101.2881 101.2881 200.6802 0.0000 0.0000 0.0000
# 4 0.0000 0.0000 0.0000 49.3885 0.0000 0.0000
# 5 0.0000 0.0000 0.0000 0.0000 49.3885 0.0000
# 6 0.0000 0.0000 0.0000 0.0000 0.0000 30.6747
#
#
#
# Elastic Compliance Matrix: (Units=1/GPa)
#
#
# Indices 1 2 3 4 5 6 
#
# 1 0.122572 -0.080231 -0.021370 0.000000 0.000000 0.000000
# 2 -0.080231 0.122572 -0.021370 0.000000 0.000000 0.000000
# 3 -0.021370 -0.021370 0.026555 0.000000 0.000000 0.000000
# 4 0.000000 0.000000 0.000000 0.020248 0.000000 0.000000
# 5 0.000000 0.000000 0.000000 0.000000 0.020248 0.000000
# 6 0.000000 0.000000 0.000000 0.000000 0.000000 0.032600
#
#
# Mechanical properties :
#
#
# Convention : Reuss Voigt Hill
#
# Bulk Modulus (GPa) = 38.82731 95.28436 67.05583
# Shear Modulus (GPa) = 8.34275 30.45247 19.39761
#
# Velocity S-wave (km/s) = 2.23261 4.26550 3.40434
# Velocity P-wave (km/s) = 5.46299 9.01049 7.45094
#
# Compressibility (1/GPa) = 0.02575507
#
# Stress axis : x y z
#
# Youngs Moduli (GPa) = 8.15849 8.15849 37.65750
#
# Poissons Ratio (x) = 0.65457 0.80475
# Poissons Ratio (y) = 0.65457 0.80475
# Poissons Ratio (z) = 0.17435 0.17435
#
# Static dielectric constant tensor:
#      x y z
#    x 1.551220 0.000000 0.000000 
#    y 0.000000 1.551220 0.000000 
#    z 0.000000 0.000000 1.542580 
# 
# From -- ./inp_files/5779.got.cif
#   From: 2010.05.17/outbox.cif.g08.bks.cpg/sg115_3_cif.got.tgz:5779.got - 2010.05.20 11:07:42.
