data_PCOD9557907
_publ_section_title
;
Structure prediction by ZEFSAII (Michael W. Deem and Ramdas Pophale) SiO2 
 PCOD9557907
Probable space group: P -4 C 2
;
_chemical_formula_sum "Si O2"
_cell_formula_units_Z 50
_cell_length_a 14.465278
_cell_length_b 14.465278
_cell_length_c 12.119175
_cell_angle_alpha 90.000000
_cell_angle_beta 90.000000
_cell_angle_gamma 90.000000
_cell_volume 2535.867897
_symmetry_space_group_name_H-M "P -4 C 2"
_symmetry_group_IT_number 116
_symmetry_cell_setting 'tetragonal'
loop_
_space_group_symop_operation_xyz
x,y,z
y,-x,-z
-x,-y,z
-y,x,-z
y,x,1/2-z
-y,-x,1/2-z
-x,y,1/2+z
x,-y,1/2+z
loop_
_atom_site_type_symbol
_atom_site_label
_atom_site_fract_x
_atom_site_fract_y
_atom_site_fract_z
Si Si1 0.841391 0.512866 0.966705
Si Si2 0.147456 0.852544 0.250000
Si Si3 0.803831 0.064815 0.811647
Si Si4 0.949932 0.632675 0.322831
Si Si5 0.885833 0.719960 0.951618
Si Si6 0.365841 0.517610 0.944266
Si Si7 0.500000 0.500000 0.750000
Si Si8 0.500000 0.000000 0.354520
O O1 0.894363 0.453283 0.872925
O O2 0.829588 0.623577 0.955439
O O3 0.740758 0.468697 0.965895
O O4 0.908615 0.504429 0.071549
O O5 0.216414 0.845721 0.145777
O O6 0.044913 0.826868 0.201272
O O7 0.889354 0.110647 0.750000
O O8 0.716976 0.099422 0.737349
O O9 0.777671 0.097391 0.935704
O O10 0.008234 0.589199 0.222728
O O11 0.013960 0.679205 0.414941
O O12 0.406826 0.501157 0.822643
O O13 0.427456 0.601407 0.988849
#
# Coordination Sequence:
#
# PCOD9557907 Si02
#       8
#     8   4   8   8   8   8   2   4
#     4  12  22  40  68  99 132 176 214 280 340 397
#     4  10  27  43  68  96 135 179 218 282 338 392
#     4  11  25  46  67  98 133 179 228 279 337 402
#     4  11  22  42  66  96 132 176 218 272 342 399
#     4  11  23  44  65 100 134 172 231 277 331 414
#     4   9  22  43  61  92 125 167 216 264 332 391
#     4   8  18  46  64  78 130 168 210 282 306 414
#     4  12  20  42  66  94 138 174 208 274 344 402
#
# _framework density 19.717115
#
# number of rings (size 3 to 8) (size 9 to 14) (size 15 to 20)
#    0.000    1.440    4.800    0.240    4.480    4.480 
#    7.200    0.000    0.000    0.000    0.000    0.000 
#    0.000    0.000    0.000    0.000    0.000    0.000 
#
# Total GULP energy -278383.527257 kJ/mol
# GULP energy per Si atom -5567.670545 kJ/mol
# Density = 1.967224 g / cm^3
# Si number density = 19.717115 Si / 1000 Ang^3
#
#
#
# Elastic Constant Matrix: (Units=GPa)
#
#
# Indices 1 2 3 4 5 6 
#
# 1 83.0823 13.0592 28.7175 0.0000 0.0000 0.0000
# 2 13.0592 83.0856 28.7182 0.0000 0.0000 0.0000
# 3 28.7175 28.7182 96.8198 0.0000 0.0000 0.0000
# 4 0.0000 0.0000 0.0000 38.1076 0.0000 0.0000
# 5 0.0000 0.0000 0.0000 0.0000 38.1046 0.0000
# 6 0.0000 0.0000 0.0000 0.0000 0.0000 7.1055
#
#
#
# Elastic Compliance Matrix: (Units=1/GPa)
#
#
# Indices 1 2 3 4 5 6 
#
# 1 0.013461 -0.000820 -0.003750 0.000000 0.000000 0.000000
# 2 -0.000820 0.013461 -0.003749 0.000000 0.000000 0.000000
# 3 -0.003750 -0.003749 0.012553 0.000000 0.000000 0.000000
# 4 0.000000 0.000000 0.000000 0.026241 0.000000 0.000000
# 5 0.000000 0.000000 0.000000 0.000000 0.026244 0.000000
# 6 0.000000 0.000000 0.000000 0.000000 0.000000 0.140737
#
#
# Mechanical properties :
#
#
# Convention : Reuss Voigt Hill
#
# Bulk Modulus (GPa) = 43.78865 44.88640 44.33752
# Shear Modulus (GPa) = 19.45933 29.49640 24.47787
#
# Velocity S-wave (km/s) = 3.14495 3.87199 3.52725
# Velocity P-wave (km/s) = 5.95351 6.54250 6.25494
#
# Compressibility (1/GPa) = 0.02283697
#
# Stress axis : x y z
#
# Youngs Moduli (GPa) = 74.28790 74.29083 79.66383
#
# Poissons Ratio (x) = 0.06090 0.29870
# Poissons Ratio (y) = 0.06090 0.29870
# Poissons Ratio (z) = 0.27854 0.27855
#
# Static dielectric constant tensor:
#      x y z
#    x 1.644790 0.000000 0.000000 
#    y 0.000000 1.644790 0.000000 
#    z 0.000000 0.000000 1.735050 
# 
# From -- ./inp_files/1970.got.cif
#   From: 2010.05.17/outbox.cif.g08.bks.cpg/sg116_1_cif.got.tgz:1970.got - 2010.05.20 11:11:43.
