data_PCOD9557437
_publ_section_title
;
Structure prediction by ZEFSAII (Michael W. Deem and Ramdas Pophale) SiO2 
 PCOD9557437
Probable space group: P -4 M 2
;
_chemical_formula_sum "Si O2"
_cell_formula_units_Z 48
_cell_length_a 9.638798
_cell_length_b 9.638798
_cell_length_c 27.606699
_cell_angle_alpha 90.000000
_cell_angle_beta 90.000000
_cell_angle_gamma 90.000000
_cell_volume 2564.839762
_symmetry_space_group_name_H-M "P -4 M 2"
_symmetry_group_IT_number 115
_symmetry_cell_setting 'tetragonal'
loop_
_space_group_symop_operation_xyz
x,y,z
y,-x,-z
-x,-y,z
-y,x,-z
y,x,-z
-y,-x,-z
-x,y,z
x,-y,z
loop_
_atom_site_type_symbol
_atom_site_label
_atom_site_fract_x
_atom_site_fract_y
_atom_site_fract_z
Si Si1 0.000000 0.834955 0.811826
Si Si2 0.000000 0.164157 0.928637
Si Si3 0.661809 0.271896 0.053892
Si Si4 0.659705 0.330329 0.553003
Si Si5 0.668302 0.227393 0.247565
Si Si6 0.847389 0.332327 0.640650
Si Si7 0.161761 0.500000 0.108550
Si Si8 0.162123 0.500000 0.224626
O O1 0.127831 0.749159 0.789563
O O2 0.000000 0.830303 0.869952
O O3 0.000000 0.000000 0.798254
O O4 0.130757 0.251035 0.947151
O O5 0.000000 0.000000 0.941832
O O6 0.500000 0.255261 0.068623
O O7 0.750625 0.370165 0.089073
O O8 0.665240 0.334761 0.000000
O O9 0.713961 0.286040 0.500000
O O10 0.500000 0.288622 0.557325
O O11 0.662361 0.500000 0.551977
O O12 0.741208 0.281509 0.600192
O O13 0.500000 0.230103 0.239601
O O14 0.693924 0.181504 0.303010
O O15 0.746789 0.371183 0.241599
O O16 0.847022 0.500000 0.636781
O O17 0.000000 0.280225 0.628645
O O18 0.158030 0.500000 0.166298
O O19 0.000000 0.500000 0.091258
O O20 0.000000 0.500000 0.240901
#
# Coordination Sequence:
#
# PCOD9557437 Si02
#       8
#     4   4   8   8   8   8   4   4
#     4  11  23  43  65  89 127 167 203 249 308 365
#     4  11  27  45  67  97 125 163 213 255 296 367
#     4  12  26  43  68  97 129 162 202 251 314 369
#     4   8  14  25  45  75 109 146 192 245 299 352
#     4  11  22  37  62  93 123 159 206 260 303 361
#     4   9  17  30  49  80 115 150 192 243 300 350
#     4  11  25  45  69  91 125 167 205 249 304 373
#     4  11  25  43  61  89 125 165 203 245 312 375
#
# _framework density 18.714621000000001
#
# number of rings (size 3 to 8) (size 9 to 14) (size 15 to 20)
#    0.000    1.667    1.667    3.500    3.500    6.667 
#    0.000    0.000    0.000    2.000    0.000    0.000 
#    0.000    0.000    0.000    0.000    0.000    0.000 
#
# Total GULP energy -267680.158050 kJ/mol
# GULP energy per Si atom -5576.669959 kJ/mol
# Density = 1.867203 g / cm^3
# Si number density = 18.714621 Si / 1000 Ang^3
#
#
#
# Elastic Constant Matrix: (Units=GPa)
#
#
# Indices 1 2 3 4 5 6 
#
# 1 122.5893 40.4649 22.3957 0.0000 0.0000 0.0000
# 2 40.4649 122.5893 22.3956 0.0000 0.0000 0.0000
# 3 22.3957 22.3956 84.6466 0.0000 0.0000 0.0000
# 4 0.0000 0.0000 0.0000 28.3542 0.0000 0.0000
# 5 0.0000 0.0000 0.0000 0.0000 28.3521 0.0000
# 6 0.0000 0.0000 0.0000 0.0000 0.0000 23.6706
#
#
#
# Elastic Compliance Matrix: (Units=1/GPa)
#
#
# Indices 1 2 3 4 5 6 
#
# 1 0.009395 -0.002782 -0.001750 0.000000 0.000000 0.000000
# 2 -0.002782 0.009395 -0.001750 0.000000 0.000000 0.000000
# 3 -0.001750 -0.001750 0.012740 0.000000 0.000000 0.000000
# 4 0.000000 0.000000 0.000000 0.035268 0.000000 0.000000
# 5 0.000000 0.000000 0.000000 0.000000 0.035271 0.000000
# 6 0.000000 0.000000 0.000000 0.000000 0.000000 0.042247
#
#
# Mechanical properties :
#
#
# Convention : Reuss Voigt Hill
#
# Bulk Modulus (GPa) = 52.72120 55.59306 54.15713
# Shear Modulus (GPa) = 30.63719 32.37997 31.50858
#
# Velocity S-wave (km/s) = 4.05046 4.16408 4.10766
# Velocity P-wave (km/s) = 7.07865 7.27252 7.17624
#
# Compressibility (1/GPa) = 0.01896770
#
# Stress axis : x y z
#
# Youngs Moduli (GPa) = 106.43810 106.43820 78.49445
#
# Poissons Ratio (x) = 0.29606 0.13735
# Poissons Ratio (y) = 0.29606 0.13735
# Poissons Ratio (z) = 0.18625 0.18625
#
# Static dielectric constant tensor:
#      x y z
#    x 1.696820 0.000000 0.000000 
#    y 0.000000 1.696810 0.000000 
#    z 0.000000 0.000000 1.642340 
# 
# From -- ./inp_files/6285.got.cif
#   From: 2010.05.17/outbox.cif.g08.bks.cpg/sg115_4_cif.got.tgz:6285.got - 2010.05.20 11:07:42.
