data_PCOD9557478
_publ_section_title
;
Structure prediction by ZEFSAII (Michael W. Deem and Ramdas Pophale) SiO2 
 PCOD9557478
Probable space group: P -4 M 2
;
_chemical_formula_sum "Si O2"
_cell_formula_units_Z 44
_cell_length_a 9.000000
_cell_length_b 9.000000
_cell_length_c 30.000000
_cell_angle_alpha 90.000000
_cell_angle_beta 90.000000
_cell_angle_gamma 90.000000
_cell_volume 2430.000000
_symmetry_space_group_name_H-M "P -4 M 2"
_symmetry_group_IT_number 115
_symmetry_cell_setting 'tetragonal'
loop_
_space_group_symop_operation_xyz
x,y,z
y,-x,-z
-x,-y,z
-y,x,-z
y,x,-z
-y,-x,-z
-x,y,z
x,-y,z
loop_
_atom_site_type_symbol
_atom_site_label
_atom_site_fract_x
_atom_site_fract_y
_atom_site_fract_z
Si Si1 0.674163 0.321155 0.585756
Si Si2 0.824163 0.824163 0.500000
Si Si3 0.826572 0.179137 0.950588
Si Si4 0.826117 0.319251 0.676973
Si Si5 0.679706 0.824453 0.224991
Si Si6 0.323487 0.324971 0.865831
O O1 0.500000 0.288382 0.582893
O O2 0.692939 0.500000 0.583532
O O3 0.757441 0.249594 0.544208
O O4 0.737778 0.269400 0.633483
O O5 0.000000 0.797258 0.498653
O O6 0.738285 0.244396 0.909303
O O7 0.000000 0.221245 0.946072
O O8 0.819367 0.000000 0.950080
O O9 0.773348 0.226653 0.000000
O O10 0.818775 0.500000 0.677543
O O11 0.772627 0.268140 0.725973
O O12 0.000000 0.280049 0.672544
O O13 0.500000 0.807185 0.225167
O O14 0.734630 0.743941 0.180634
O O15 0.710665 0.000000 0.221780
O O16 0.500000 0.312641 0.863927
O O17 0.284054 0.500000 0.869236
#
# Coordination Sequence:
#
# PCOD9557478 Si02
#       6
#     8   4   8   8   8   8
#     4  10  20  33  52  79 106 131 162 202 250 301
#     4  11  24  39  54  72  96 131 172 209 248 296
#     4   9  19  36  55  72  91 121 164 209 251 299
#     4   8  14  26  46  72 101 133 168 205 244 287
#     4   8  14  26  45  69  98 134 173 206 238 283
#     4  10  20  31  46  73 106 135 163 200 247 296
#
# _framework density 18.106995999999999
#
# number of rings (size 3 to 8) (size 9 to 14) (size 15 to 20)
#    0.000    2.818    0.000    3.273    0.000    5.818 
#    0.000    6.364    0.000    1.091    0.000    7.636 
#    0.000    0.000    0.000    0.000    0.000    0.000 
#
# Total GULP energy -245233.855029 kJ/mol
# GULP energy per Si atom -5573.496705 kJ/mol
# Density = 1.806578 g / cm^3
# Si number density = 18.106996 Si / 1000 Ang^3
#
#
#
# Elastic Constant Matrix: (Units=GPa)
#
#
# Indices 1 2 3 4 5 6 
#
# 1 15.4273 31.0254 47.3477 0.0000 0.0000 0.0000
# 2 31.0254 15.4272 47.3477 0.0000 0.0000 0.0000
# 3 47.3477 47.3477 193.4919 0.0000 0.0000 0.0000
# 4 0.0000 0.0000 0.0000 35.7586 0.0000 0.0000
# 5 0.0000 0.0000 0.0000 0.0000 35.7587 0.0000
# 6 0.0000 0.0000 0.0000 0.0000 0.0000 19.0628
#
#
#
# Elastic Compliance Matrix: (Units=1/GPa)
#
#
# Indices 1 2 3 4 5 6 
#
# 1 -0.010578 0.053532 -0.010511 0.000000 0.000000 0.000000
# 2 0.053532 -0.010578 -0.010511 0.000000 0.000000 0.000000
# 3 -0.010511 -0.010511 0.010312 0.000000 0.000000 0.000000
# 4 0.000000 0.000000 0.000000 0.027965 0.000000 0.000000
# 5 0.000000 0.000000 0.000000 0.000000 0.027965 0.000000
# 6 0.000000 0.000000 0.000000 0.000000 0.000000 0.052458
#
#
# Mechanical properties :
#
#
# Convention : Reuss Voigt Hill
#
# Bulk Modulus (GPa) = 18.45803 52.86532 35.66168
# Shear Modulus (GPa) = 98.84700 24.69108 61.76904
#
# Velocity S-wave (km/s) = 7.39655 3.69673 5.84700
# Velocity P-wave (km/s) = 9.11928 6.89061 8.08214
#
# Compressibility (1/GPa) = 0.05417696
#
# Stress axis : x y z
#
# Youngs Moduli (GPa) = -94.53679 -94.53518 96.97195
#
# Poissons Ratio (x) = 5.06068 1.01927
# Poissons Ratio (y) = 5.06077 1.01927
# Poissons Ratio (z) = -0.99367 -0.99365
#
# Static dielectric constant tensor:
#      x y z
#    x 1.611210 0.000000 0.000000 
#    y 0.000000 1.611210 0.000000 
#    z 0.000000 0.000000 1.628130 
# 
# From -- ./inp_files/5806.got.cif
#   From: 2010.05.17/outbox.ucp.g08.bks.cvg/sg115_3_cif.got.tgz:5806.got - 2010.06.11 11:33:38.
