data_PCOD9557505
_publ_section_title
;
Structure prediction by ZEFSAII (Michael W. Deem and Ramdas Pophale) SiO2 
 PCOD9557505
Probable space group: P -4 M 2
;
_chemical_formula_sum "Si O2"
_cell_formula_units_Z 48
_cell_length_a 9.000000
_cell_length_b 9.000000
_cell_length_c 30.000000
_cell_angle_alpha 90.000000
_cell_angle_beta 90.000000
_cell_angle_gamma 90.000000
_cell_volume 2430.000000
_symmetry_space_group_name_H-M "P -4 M 2"
_symmetry_group_IT_number 115
_symmetry_cell_setting 'tetragonal'
loop_
_space_group_symop_operation_xyz
x,y,z
y,-x,-z
-x,-y,z
-y,x,-z
y,x,-z
-y,-x,-z
-x,y,z
x,-y,z
loop_
_atom_site_type_symbol
_atom_site_label
_atom_site_fract_x
_atom_site_fract_y
_atom_site_fract_z
Si Si1 0.830562 0.322237 0.749108
Si Si2 0.171453 0.171453 0.000000
Si Si3 0.823141 0.332143 0.170637
Si Si4 0.672348 0.672348 0.500000
Si Si5 0.321145 0.668972 0.339995
Si Si6 0.823620 0.168425 0.420361
Si Si7 0.827677 0.325116 0.908167
O O1 0.822072 0.500000 0.755057
O O2 0.780628 0.244358 0.793903
O O3 0.720192 0.279682 0.709422
O O4 0.000000 0.285286 0.737033
O O5 0.196247 0.280841 0.959224
O O6 0.000000 0.187698 0.015467
O O7 0.773559 0.500000 0.181077
O O8 0.765239 0.282426 0.122777
O O9 0.000000 0.327110 0.172064
O O10 0.694523 0.500000 0.511213
O O11 0.720878 0.769381 0.541690
O O12 0.500000 0.675266 0.343528
O O13 0.273971 0.500000 0.349101
O O14 0.251188 0.781192 0.374833
O O15 0.000000 0.173700 0.416124
O O16 0.779947 0.000000 0.432454
O O17 0.808916 0.500000 0.901020
O O18 0.000000 0.286642 0.897526
#
# Coordination Sequence:
#
# PCOD9557505 Si02
#       7
#     8   4   8   4   8   8   8
#     4  10  21  38  61  87 114 147 188 233 283 338
#     4   9  18  34  56  81 112 150 188 227 274 329
#     4  11  24  39  56  81 113 149 189 233 281 333
#     4  11  24  41  62  88 116 149 192 239 288 342
#     4  10  21  38  61  88 117 151 191 233 280 336
#     4  11  24  40  59  86 119 154 193 236 283 336
#     4  10  21  37  58  84 113 146 185 229 278 333
#
# _framework density 19.753086
#
# number of rings (size 3 to 8) (size 9 to 14) (size 15 to 20)
#    0.000    1.667    0.000    4.000    0.000   12.667 
#    0.000    1.667    0.000    0.000    0.000    0.000 
#    0.000    0.000    0.000    0.000    0.000    0.000 
#
# Total GULP energy -268168.873379 kJ/mol
# GULP energy per Si atom -5586.851529 kJ/mol
# Density = 1.970813 g / cm^3
# Si number density = 19.753086 Si / 1000 Ang^3
#
#
#
# Elastic Constant Matrix: (Units=GPa)
#
#
# Indices 1 2 3 4 5 6 
#
# 1 7.0361 26.6819 5.8042 0.0000 0.0000 0.0000
# 2 26.6819 7.0361 5.8042 0.0000 0.0000 0.0000
# 3 5.8042 5.8042 39.3067 0.0000 0.0000 0.0000
# 4 0.0000 0.0000 0.0000 33.7858 0.0000 0.0000
# 5 0.0000 0.0000 0.0000 0.0000 33.7858 0.0000
# 6 0.0000 0.0000 0.0000 0.0000 0.0000 26.6329
#
#
#
# Elastic Compliance Matrix: (Units=1/GPa)
#
#
# Indices 1 2 3 4 5 6 
#
# 1 -0.009828 0.041074 -0.004614 0.000000 0.000000 0.000000
# 2 0.041074 -0.009828 -0.004614 0.000000 0.000000 0.000000
# 3 -0.004614 -0.004614 0.026804 0.000000 0.000000 0.000000
# 4 0.000000 0.000000 0.000000 0.029598 0.000000 0.000000
# 5 0.000000 0.000000 0.000000 0.000000 0.029598 0.000000
# 6 0.000000 0.000000 0.000000 0.000000 0.000000 0.037548
#
#
# Mechanical properties :
#
#
# Convention : Reuss Voigt Hill
#
# Bulk Modulus (GPa) = 14.11625 14.43992 14.27808
# Shear Modulus (GPa) = 78.35261 19.84679 49.09970
#
# Velocity S-wave (km/s) = 6.30493 3.17321 4.99106
# Velocity P-wave (km/s) = 7.75659 4.55541 6.36068
#
# Compressibility (1/GPa) = 0.07084036
#
# Stress axis : x y z
#
# Youngs Moduli (GPa) = -101.75484 -101.75484 37.30850
#
# Poissons Ratio (x) = 4.17946 0.17214
# Poissons Ratio (y) = 4.17946 0.17214
# Poissons Ratio (z) = -0.46949 -0.46949
#
# Static dielectric constant tensor:
#      x y z
#    x 1.673540 0.000000 0.000000 
#    y 0.000000 1.673540 0.000000 
#    z 0.000000 0.000000 1.686430 
# 
# From -- ./inp_files/6247.got.cif
#   From: 2010.05.17/outbox.ucp.g08.bks.cvg/sg115_4_cif.got.tgz:6247.got - 2010.06.11 11:33:38.
