data_PCOD9557392
_publ_section_title
;
Structure prediction by ZEFSAII (Michael W. Deem and Ramdas Pophale) SiO2 
 PCOD9557392
Probable space group: P -4 M 2
;
_chemical_formula_sum "Si O2"
_cell_formula_units_Z 29
_cell_length_a 7.280426
_cell_length_b 7.280426
_cell_length_c 23.625412
_cell_angle_alpha 90.000000
_cell_angle_beta 90.000000
_cell_angle_gamma 90.000000
_cell_volume 1252.255578
_symmetry_space_group_name_H-M "P -4 M 2"
_symmetry_group_IT_number 115
_symmetry_cell_setting 'tetragonal'
loop_
_space_group_symop_operation_xyz
x,y,z
y,-x,-z
-x,-y,z
-y,x,-z
y,x,-z
-y,-x,-z
-x,y,z
x,-y,z
loop_
_atom_site_type_symbol
_atom_site_label
_atom_site_fract_x
_atom_site_fract_y
_atom_site_fract_z
Si Si1 0.500000 0.500000 0.500000
Si Si2 0.223652 0.789020 0.305967
Si Si3 0.778819 0.779335 0.061021
Si Si4 0.500000 0.779229 0.600259
Si Si5 0.782423 0.777144 0.183004
O O1 0.500000 0.674474 0.541470
O O2 0.274640 0.671608 0.360127
O O3 0.287369 0.717206 0.244397
O O4 0.000000 0.784669 0.303472
O O5 0.279455 0.000000 0.311798
O O6 0.709433 0.713194 0.122097
O O7 0.000000 0.751036 0.061176
O O8 0.750043 0.000000 0.060826
O O9 0.711082 0.711082 0.000000
O O10 0.500000 0.000000 0.592780
O O11 0.000000 0.735293 0.182175
O O12 0.765753 0.000000 0.183651
#
# Coordination Sequence:
#
# PCOD9557392 Si02
#       5
#     1   8   8   4   8
#     4  12  28  44  60  88 116 136 170 208 240 304
#     4   8  14  27  49  75 102 135 175 215 255 300
#     4   7   8   9  15  33  68 114 157 196 242 291
#     4  10  22  40  60  82 110 141 169 205 253 300
#     4   7   9  14  27  50  81 118 161 206 247 289
#
# _framework density 23.158208999999999
#
# number of rings (size 3 to 8) (size 9 to 14) (size 15 to 20)
#    0.000    4.138    0.000    4.138    0.000    1.103 
#    0.000    0.000    0.000    0.000    0.000    0.000 
#    0.000    2.207    0.000   19.586    0.000   40.276 
#
# Total GULP energy -161691.679671 kJ/mol
# GULP energy per Si atom -5575.575161 kJ/mol
# Density = 2.310550 g / cm^3
# Si number density = 23.158209 Si / 1000 Ang^3
#
#
#
# Elastic Constant Matrix: (Units=GPa)
#
#
# Indices 1 2 3 4 5 6 
#
# 1 103.9830 11.1951 59.2181 0.0000 0.0000 0.0000
# 2 11.1951 103.9830 59.2181 0.0000 0.0000 0.0000
# 3 59.2181 59.2181 295.9571 0.0000 0.0000 0.0000
# 4 0.0000 0.0000 0.0000 138.2329 0.0000 0.0000
# 5 0.0000 0.0000 0.0000 0.0000 138.2329 0.0000
# 6 0.0000 0.0000 0.0000 0.0000 0.0000 -9.3236
#
#
#
# Elastic Compliance Matrix: (Units=1/GPa)
#
#
# Indices 1 2 3 4 5 6 
#
# 1 0.010854 0.000077 -0.002187 0.000000 0.000000 0.000000
# 2 0.000077 0.010854 -0.002187 0.000000 0.000000 0.000000
# 3 -0.002187 -0.002187 0.004254 0.000000 0.000000 0.000000
# 4 0.000000 0.000000 0.000000 0.007234 0.000000 0.000000
# 5 0.000000 0.000000 0.000000 0.000000 0.007234 0.000000
# 6 0.000000 0.000000 0.000000 0.000000 0.000000 -0.107255
#
#
# Mechanical properties :
#
#
# Convention : Reuss Voigt Hill
#
# Bulk Modulus (GPa) = 57.57777 84.79843 71.18810
# Shear Modulus (GPa) = -95.34723 78.38123 -8.48300
#
# Velocity S-wave (km/s) = -6.42351 5.82404 -1.91599
# Velocity P-wave (km/s) = 5.48622 9.05110 5.09038
#
# Compressibility (1/GPa) = 0.01736782
#
# Stress axis : x y z
#
# Youngs Moduli (GPa) = 92.12938 92.12938 235.06379
#
# Poissons Ratio (x) = -0.00710 0.51414
# Poissons Ratio (y) = -0.00710 0.51414
# Poissons Ratio (z) = 0.20151 0.20151
#
# Static dielectric constant tensor:
#      x y z
#    x 2.003510 0.000000 0.000000 
#    y 0.000000 2.003510 0.000000 
#    z 0.000000 0.000000 1.856140 
# 
# From -- ./inp_files/4595.got.cif
#   From: 2010.05.17/outbox.cif.g08.bks.cpg/sg115_3_cif.got.tgz:4595.got - 2010.05.20 11:07:42.
