data_PCOD9557187
_publ_section_title
;
Structure prediction by ZEFSAII (Michael W. Deem and Ramdas Pophale) SiO2 
 PCOD9557187
Probable space group: P -4 M 2
;
_chemical_formula_sum "Si O2"
_cell_formula_units_Z 40
_cell_length_a 9.178871
_cell_length_b 9.178871
_cell_length_c 26.776309
_cell_angle_alpha 90.000000
_cell_angle_beta 90.000000
_cell_angle_gamma 90.000000
_cell_volume 2255.948826
_symmetry_space_group_name_H-M "P -4 M 2"
_symmetry_group_IT_number 115
_symmetry_cell_setting 'tetragonal'
loop_
_space_group_symop_operation_xyz
x,y,z
y,-x,-z
-x,-y,z
-y,x,-z
y,x,-z
-y,-x,-z
-x,y,z
x,-y,z
loop_
_atom_site_type_symbol
_atom_site_label
_atom_site_fract_x
_atom_site_fract_y
_atom_site_fract_z
Si Si1 0.675419 0.326468 0.390700
Si Si2 0.325443 0.674558 0.500000
Si Si3 0.170841 0.825072 0.702035
Si Si4 0.673065 0.326936 0.000000
Si Si5 0.824796 0.329256 0.195294
Si Si6 0.170851 0.675108 0.897308
O O1 0.500000 0.309763 0.388518
O O2 0.705495 0.500000 0.386777
O O3 0.726946 0.272979 0.445811
O O4 0.749608 0.242390 0.345685
O O5 0.500000 0.696860 0.500413
O O6 0.251974 0.780842 0.753009
O O7 0.000000 0.790238 0.705552
O O8 0.185853 0.000000 0.697239
O O9 0.717544 0.240863 0.049593
O O10 0.500000 0.304196 0.991889
O O11 0.788103 0.500000 0.196946
O O12 0.750575 0.253122 0.148250
O O13 0.000000 0.315824 0.190855
O O14 0.186410 0.500000 0.892936
O O15 0.000000 0.710776 0.896129
#
# Coordination Sequence:
#
# PCOD9557187 Si02
#       6
#     8   4   8   4   8   8
#     4   9  17  31  53  78 101 129 168 212 256 303
#     4   7  12  26  48  73 100 128 162 207 254 299
#     4  10  21  36  52  72 102 138 172 209 256 308
#     4   9  18  34  54  75 104 142 178 211 248 293
#     4  10  21  37  57  78 100 132 175 218 259 306
#     4  10  21  36  55  81 111 140 171 210 256 304
#
# _framework density 17.730900999999999
#
# number of rings (size 3 to 8) (size 9 to 14) (size 15 to 20)
#    0.000    2.600    0.000    3.000    0.000    5.600 
#    0.000    3.000    0.000    4.800    0.000    0.000 
#    0.000    0.000    0.000    0.000    0.000    0.000 
#
# Total GULP energy -223097.516389 kJ/mol
# GULP energy per Si atom -5577.437910 kJ/mol
# Density = 1.769054 g / cm^3
# Si number density = 17.730901 Si / 1000 Ang^3
#
#
#
# Elastic Constant Matrix: (Units=GPa)
#
#
# Indices 1 2 3 4 5 6 
#
# 1 66.2891 50.7741 89.1526 0.0000 0.0000 0.0000
# 2 50.7741 66.2892 89.1525 0.0000 0.0000 0.0000
# 3 89.1526 89.1525 237.0779 0.0000 0.0000 0.0000
# 4 0.0000 0.0000 0.0000 -887.7090 0.0000 0.0000
# 5 0.0000 0.0000 0.0000 0.0000 -887.4780 0.0000
# 6 0.0000 0.0000 0.0000 0.0000 0.0000 25.8226
#
#
#
# Elastic Compliance Matrix: (Units=1/GPa)
#
#
# Indices 1 2 3 4 5 6 
#
# 1 0.042224 -0.022229 -0.007519 0.000000 0.000000 0.000000
# 2 -0.022229 0.042224 -0.007519 0.000000 0.000000 0.000000
# 3 -0.007519 -0.007519 0.009873 0.000000 0.000000 0.000000
# 4 0.000000 0.000000 0.000000 -0.001126 0.000000 0.000000
# 5 0.000000 0.000000 0.000000 0.000000 -0.001127 0.000000
# 6 0.000000 0.000000 0.000000 0.000000 0.000000 0.038726
#
#
# Mechanical properties :
#
#
# Convention : Reuss Voigt Hill
#
# Bulk Modulus (GPa) = 50.53842 91.97940 71.25891
# Shear Modulus (GPa) = 23.59327 -340.50108 -158.45391
#
# Velocity S-wave (km/s) = 3.65174 -13.87282 -9.46361
# Velocity P-wave (km/s) = 6.80773 14.30451 8.89589
#
# Compressibility (1/GPa) = 0.01978693
#
# Stress axis : x y z
#
# Youngs Moduli (GPa) = 23.68295 23.68307 101.28514
#
# Poissons Ratio (x) = 0.52646 0.76158
# Poissons Ratio (y) = 0.52645 0.76157
# Poissons Ratio (z) = 0.17808 0.17807
#
# Static dielectric constant tensor:
#      x y z
#    x 1.592070 0.000000 0.000000 
#    y 0.000000 1.592070 0.000000 
#    z 0.000000 0.000000 1.593930 
# 
# From -- ./inp_files/5532.got.cif
#   From: 2010.05.17/outbox.cif.g08.bks.cpg/sg115_3_cif.got.tgz:5532.got - 2010.05.20 11:07:42.
