data_PCOD9557114
_publ_section_title
;
Structure prediction by ZEFSAII (Michael W. Deem and Ramdas Pophale) SiO2 
 PCOD9557114
Probable space group: P -4 M 2
;
_chemical_formula_sum "Si O2"
_cell_formula_units_Z 34
_cell_length_a 9.523225
_cell_length_b 9.523225
_cell_length_c 20.243281
_cell_angle_alpha 90.000000
_cell_angle_beta 90.000000
_cell_angle_gamma 90.000000
_cell_volume 1835.899883
_symmetry_space_group_name_H-M "P -4 M 2"
_symmetry_group_IT_number 115
_symmetry_cell_setting 'tetragonal'
loop_
_space_group_symop_operation_xyz
x,y,z
y,-x,-z
-x,-y,z
-y,x,-z
y,x,-z
-y,-x,-z
-x,y,z
x,-y,z
loop_
_atom_site_type_symbol
_atom_site_label
_atom_site_fract_x
_atom_site_fract_y
_atom_site_fract_z
Si Si1 0.331739 0.668262 0.000000
Si Si2 0.000000 0.500000 0.473269
Si Si3 0.796042 0.000000 0.464516
Si Si4 0.500000 0.837365 0.656651
Si Si5 0.271701 0.329199 0.736790
Si Si6 0.000000 0.834565 0.691729
Si Si7 0.332402 0.839080 0.869967
O O1 0.239630 0.713008 0.063116
O O2 0.500000 0.687850 0.011755
O O3 0.000000 0.634215 0.518973
O O4 0.130513 0.500000 0.421386
O O5 0.831091 0.000000 0.387768
O O6 0.867574 0.867574 0.500000
O O7 0.627194 0.745264 0.683426
O O8 0.500000 0.000000 0.685093
O O9 0.276417 0.500000 0.735525
O O10 0.307108 0.264898 0.808540
O O11 0.127327 0.256596 0.718239
O O12 0.000000 0.000000 0.711532
O O13 0.500000 0.851771 0.874838
O O14 0.277117 0.000000 0.861635
#
# Coordination Sequence:
#
# PCOD9557114 Si02
#       7
#     4   2   4   4   8   4   8
#     4   9  18  34  58  85 118 156 212 271 318 374
#     4  10  24  40  66  94 122 166 218 266 318 388
#     4  11  22  43  68  91 120 169 215 259 316 395
#     4  10  21  39  64  94 127 172 215 258 320 396
#     4  12  24  39  64  98 131 168 213 276 327 387
#     4  12  25  43  66  92 126 167 219 268 331 392
#     4  10  20  37  62  91 123 171 217 260 320 393
#
# _framework density 18.519527
#
# number of rings (size 3 to 8) (size 9 to 14) (size 15 to 20)
#    0.353    0.941    2.353    4.941    1.647    0.941 
#    2.118    0.000    0.000    0.000    0.000    0.000 
#    0.000    0.000    0.000    0.000    0.000    0.000 
#
# Total GULP energy -189445.641735 kJ/mol
# GULP energy per Si atom -5571.930639 kJ/mol
# Density = 1.847738 g / cm^3
# Si number density = 18.519527 Si / 1000 Ang^3
#
#
#
# Elastic Constant Matrix: (Units=GPa)
#
#
# Indices 1 2 3 4 5 6 
#
# 1 122.2540 21.4552 -4.0629 0.0000 0.0000 0.0000
# 2 21.4552 122.2537 -4.0627 0.0000 0.0000 0.0000
# 3 -4.0629 -4.0627 40.2951 0.0000 0.0000 0.0000
# 4 0.0000 0.0000 0.0000 28.8387 0.0000 0.0000
# 5 0.0000 0.0000 0.0000 0.0000 28.8387 0.0000
# 6 0.0000 0.0000 0.0000 0.0000 0.0000 30.7952
#
#
#
# Elastic Compliance Matrix: (Units=1/GPa)
#
#
# Indices 1 2 3 4 5 6 
#
# 1 0.008460 -0.001461 0.000706 0.000000 0.000000 0.000000
# 2 -0.001461 0.008460 0.000706 0.000000 0.000000 0.000000
# 3 0.000706 0.000706 0.024959 0.000000 0.000000 0.000000
# 4 0.000000 0.000000 0.000000 0.034676 0.000000 0.000000
# 5 0.000000 0.000000 0.000000 0.000000 0.034676 0.000000
# 6 0.000000 0.000000 0.000000 0.000000 0.000000 0.032473
#
#
# Mechanical properties :
#
#
# Convention : Reuss Voigt Hill
#
# Bulk Modulus (GPa) = 23.93579 34.60691 29.27135
# Shear Modulus (GPa) = 31.70011 35.79275 33.74643
#
# Velocity S-wave (km/s) = 4.14177 4.40102 4.27336
# Velocity P-wave (km/s) = 5.98540 6.67477 6.33947
#
# Compressibility (1/GPa) = 0.04177844
#
# Stress axis : x y z
#
# Youngs Moduli (GPa) = 118.20927 118.20899 40.06543
#
# Poissons Ratio (x) = 0.17273 -0.02827
# Poissons Ratio (y) = 0.17273 -0.02827
# Poissons Ratio (z) = -0.08341 -0.08341
#
# Static dielectric constant tensor:
#      x y z
#    x 1.519810 0.000000 0.000000 
#    y 0.000000 1.519810 0.000000 
#    z 0.000000 0.000000 1.639280 
# 
# From -- ./inp_files/4745.got.cif
#   From: 2010.05.17/outbox.cif.g08.bks.cpg/sg115_3_cif.got.tgz:4745.got - 2010.05.20 11:07:42.
