data_PCOD9557728
_publ_section_title
;
Structure prediction by ZEFSAII (Michael W. Deem and Ramdas Pophale) SiO2 
 PCOD9557728
Probable space group: P -4 C 2
;
_chemical_formula_sum "Si O2"
_cell_formula_units_Z 40
_cell_length_a 14.927906
_cell_length_b 14.927906
_cell_length_c 9.183090
_cell_angle_alpha 90.000000
_cell_angle_beta 90.000000
_cell_angle_gamma 90.000000
_cell_volume 2046.381609
_symmetry_space_group_name_H-M "P -4 C 2"
_symmetry_group_IT_number 116
_symmetry_cell_setting 'tetragonal'
loop_
_space_group_symop_operation_xyz
x,y,z
y,-x,-z
-x,-y,z
-y,x,-z
y,x,1/2-z
-y,-x,1/2-z
-x,y,1/2+z
x,-y,1/2+z
loop_
_atom_site_type_symbol
_atom_site_label
_atom_site_fract_x
_atom_site_fract_y
_atom_site_fract_z
Si Si1 0.658834 0.226629 0.368236
Si Si2 0.390347 0.456666 0.592882
Si Si3 0.836634 0.197190 0.921033
Si Si4 0.602604 0.032958 0.252089
Si Si5 0.727014 0.972330 0.490031
O O1 0.723365 0.276636 0.250000
O O2 0.575442 0.290230 0.396796
O O3 0.715486 0.212701 0.514982
O O4 0.620703 0.132438 0.312848
O O5 0.401672 0.556552 0.532669
O O6 0.433725 0.433725 0.750000
O O7 0.821611 0.178390 0.750000
O O8 0.939270 0.215799 0.969061
O O9 0.791679 0.112571 0.002317
O O10 0.637836 0.032145 0.088106
O O11 0.500000 0.000000 0.267345
O O12 0.680561 0.976010 0.332287
#
# Coordination Sequence:
#
# PCOD9557728 Si02
#       5
#     8   8   8   8   8
#     4  10  22  41  65  93 129 174 211 270 332 386
#     4  10  21  39  61  88 124 168 218 272 322 382
#     4  11  23  42  65  93 128 168 213 267 325 388
#     4  11  23  42  66  95 134 172 213 270 328 393
#     4  11  23  42  66  95 131 170 218 268 326 393
#
# _framework density 19.546696000000001
#
# number of rings (size 3 to 8) (size 9 to 14) (size 15 to 20)
#    0.000    1.400    4.000    1.800    0.000    3.600 
#   14.400    1.000    0.000    0.000    0.000    0.000 
#    0.000    0.000    0.000    0.000    0.000    0.000 
#
# Total GULP energy -222928.236620 kJ/mol
# GULP energy per Si atom -5573.205915 kJ/mol
# Density = 1.950221 g / cm^3
# Si number density = 19.546696 Si / 1000 Ang^3
#
#
#
# Elastic Constant Matrix: (Units=GPa)
#
#
# Indices 1 2 3 4 5 6 
#
# 1 49.4059 74.7872 -10.0175 0.0000 0.0000 0.0000
# 2 74.7872 49.4070 -10.0172 0.0000 0.0000 0.0000
# 3 -10.0175 -10.0172 51.2174 0.0000 0.0000 0.0000
# 4 0.0000 0.0000 0.0000 19.6728 0.0000 0.0000
# 5 0.0000 0.0000 0.0000 0.0000 19.6726 0.0000
# 6 0.0000 0.0000 0.0000 0.0000 0.0000 42.8208
#
#
#
# Elastic Compliance Matrix: (Units=1/GPa)
#
#
# Indices 1 2 3 4 5 6 
#
# 1 -0.015543 0.023857 0.001626 0.000000 0.000000 0.000000
# 2 0.023857 -0.015543 0.001626 0.000000 0.000000 0.000000
# 3 0.001626 0.001626 0.020161 0.000000 0.000000 0.000000
# 4 0.000000 0.000000 0.000000 0.050832 0.000000 0.000000
# 5 0.000000 0.000000 0.000000 0.000000 0.050832 0.000000
# 6 0.000000 0.000000 0.000000 0.000000 0.000000 0.023353
#
#
# Mechanical properties :
#
#
# Convention : Reuss Voigt Hill
#
# Bulk Modulus (GPa) = 23.09797 28.83725 25.96761
# Shear Modulus (GPa) = 67.29074 22.78509 45.03792
#
# Velocity S-wave (km/s) = 5.87370 3.41790 4.80533
# Velocity P-wave (km/s) = 7.60546 5.51009 6.64094
#
# Compressibility (1/GPa) = 0.04329385
#
# Stress axis : x y z
#
# Youngs Moduli (GPa) = -64.33748 -64.33910 49.60139
#
# Poissons Ratio (x) = 1.53495 -0.08065
# Poissons Ratio (y) = 1.53491 -0.08067
# Poissons Ratio (z) = 0.10461 0.10464
#
# Static dielectric constant tensor:
#      x y z
#    x 1.673930 0.000000 0.000000 
#    y 0.000000 1.673930 0.000000 
#    z 0.000000 0.000000 1.728620 
# 
# From -- ./inp_files/804.got.cif
#   From: 2010.05.17/outbox.cif.g08.bks.cpg/sg116_1_cif.got.tgz:804.got - 2010.05.20 11:11:43.
