data_PCOD9557135
_publ_section_title
;
Structure prediction by ZEFSAII (Michael W. Deem and Ramdas Pophale) SiO2 
 PCOD9557135
Probable space group: P -4 M 2
;
_chemical_formula_sum "Si O2"
_cell_formula_units_Z 48
_cell_length_a 9.526961
_cell_length_b 9.526961
_cell_length_c 31.661679
_cell_angle_alpha 90.000000
_cell_angle_beta 90.000000
_cell_angle_gamma 90.000000
_cell_volume 2873.708525
_symmetry_space_group_name_H-M "P -4 M 2"
_symmetry_group_IT_number 115
_symmetry_cell_setting 'tetragonal'
loop_
_space_group_symop_operation_xyz
x,y,z
y,-x,-z
-x,-y,z
-y,x,-z
y,x,-z
-y,-x,-z
-x,y,z
x,-y,z
loop_
_atom_site_type_symbol
_atom_site_label
_atom_site_fract_x
_atom_site_fract_y
_atom_site_fract_z
Si Si1 0.333133 0.333942 0.118438
Si Si2 0.166816 0.167281 0.047754
Si Si3 0.670867 0.338212 0.453577
Si Si4 0.334137 0.331861 0.215533
Si Si5 0.665196 0.167568 0.371007
Si Si6 0.165549 0.168265 0.286702
O O1 0.500000 0.312502 0.113316
O O2 0.305647 0.500000 0.113604
O O3 0.249308 0.247846 0.083831
O O4 0.298085 0.295610 0.166935
O O5 0.000000 0.192335 0.051686
O O6 0.189060 0.000000 0.051427
O O7 0.209232 0.209232 0.000000
O O8 0.715076 0.284925 0.500000
O O9 0.500000 0.338405 0.455095
O O10 0.715676 0.500000 0.448115
O O11 0.711792 0.245944 0.413537
O O12 0.500000 0.301358 0.221946
O O13 0.316702 0.500000 0.220286
O O14 0.240466 0.248785 0.248620
O O15 0.500000 0.200532 0.363411
O O16 0.757077 0.206860 0.330440
O O17 0.675743 0.000000 0.376970
O O18 0.000000 0.199258 0.288552
O O19 0.182101 0.000000 0.281226
#
# Coordination Sequence:
#
# PCOD9557135 Si02
#       6
#     8   8   8   8   8   8
#     4   9  19  35  53  75 102 129 160 201 247 293
#     4   9  19  35  52  72 101 135 169 204 241 284
#     4   8  14  26  45  68  92 118 151 192 236 282
#     4   9  19  36  55  74  98 128 162 201 245 293
#     4   9  17  30  48  68  91 122 159 196 235 282
#     4  10  21  35  50  71 100 131 163 201 244 290
#
# _framework density 16.703156
#
# number of rings (size 3 to 8) (size 9 to 14) (size 15 to 20)
#    0.000    3.000    0.000    2.500    0.000    4.667 
#    0.000   10.000    0.000    1.000    0.000    0.000 
#    0.000    0.000    0.000    0.000    0.000    0.000 
#
# Total GULP energy -267518.902899 kJ/mol
# GULP energy per Si atom -5573.310477 kJ/mol
# Density = 1.666514 g / cm^3
# Si number density = 16.703156 Si / 1000 Ang^3
#
#
#
# Elastic Constant Matrix: (Units=GPa)
#
#
# Indices 1 2 3 4 5 6 
#
# 1 54.0895 48.7177 89.9424 0.0000 0.0000 0.0000
# 2 48.7177 54.0897 89.9424 0.0000 0.0000 0.0000
# 3 89.9424 89.9424 204.4384 0.0000 0.0000 0.0000
# 4 0.0000 0.0000 0.0000 135.5056 0.0000 0.0000
# 5 0.0000 0.0000 0.0000 0.0000 135.5124 0.0000
# 6 0.0000 0.0000 0.0000 0.0000 0.0000 26.9799
#
#
#
# Elastic Compliance Matrix: (Units=1/GPa)
#
#
# Indices 1 2 3 4 5 6 
#
# 1 0.114204 -0.071951 -0.018589 0.000000 0.000000 0.000000
# 2 -0.071951 0.114203 -0.018589 0.000000 0.000000 0.000000
# 3 -0.018589 -0.018589 0.021248 0.000000 0.000000 0.000000
# 4 0.000000 0.000000 0.000000 0.007380 0.000000 0.000000
# 5 0.000000 0.000000 0.000000 0.000000 0.007379 0.000000
# 6 0.000000 0.000000 0.000000 0.000000 0.000000 0.037065
#
#
# Mechanical properties :
#
#
# Convention : Reuss Voigt Hill
#
# Bulk Modulus (GPa) = 31.85012 85.53584 58.69298
# Shear Modulus (GPa) = 9.43036 65.20059 37.31548
#
# Velocity S-wave (km/s) = 2.37868 6.25457 4.73169
# Velocity P-wave (km/s) = 5.16274 10.17252 8.06641
#
# Compressibility (1/GPa) = 0.03139706
#
# Stress axis : x y z
#
# Youngs Moduli (GPa) = 8.75626 8.75633 47.06374
#
# Poissons Ratio (x) = 0.63003 0.87487
# Poissons Ratio (y) = 0.63002 0.87486
# Poissons Ratio (z) = 0.16277 0.16277
#
# Static dielectric constant tensor:
#      x y z
#    x 1.549110 0.000000 0.000000 
#    y 0.000000 1.549110 0.000000 
#    z 0.000000 0.000000 1.553850 
# 
# From -- ./inp_files/5946.got.cif
#   From: 2010.05.17/outbox.cif.g08.bks.cpg/sg115_3_cif.got.tgz:5946.got - 2010.05.20 11:07:42.
