data_PCOD9557708
_publ_section_title
;
Structure prediction by ZEFSAII (Michael W. Deem and Ramdas Pophale) SiO2 
 PCOD9557708
Probable space group: P -4 C 2
;
_chemical_formula_sum "Si O2"
_cell_formula_units_Z 52
_cell_length_a 20.836922
_cell_length_b 20.836922
_cell_length_c 5.350530
_cell_angle_alpha 90.000000
_cell_angle_beta 90.000000
_cell_angle_gamma 90.000000
_cell_volume 2323.078768
_symmetry_space_group_name_H-M "P -4 C 2"
_symmetry_group_IT_number 116
_symmetry_cell_setting 'tetragonal'
loop_
_space_group_symop_operation_xyz
x,y,z
y,-x,-z
-x,-y,z
-y,x,-z
y,x,1/2-z
-y,-x,1/2-z
-x,y,1/2+z
x,-y,1/2+z
loop_
_atom_site_type_symbol
_atom_site_label
_atom_site_fract_x
_atom_site_fract_y
_atom_site_fract_z
Si Si1 0.460456 0.645335 0.817536
Si Si2 0.395151 0.029569 0.893802
Si Si3 0.749912 0.977066 0.391542
Si Si4 0.620332 0.247388 0.591598
Si Si5 0.725453 0.173777 0.871619
Si Si6 0.275657 0.275657 0.750000
Si Si7 0.839569 0.540928 0.729961
O O1 0.409992 0.590009 0.750000
O O2 0.514301 0.640190 0.599693
O O3 0.425983 0.713311 0.768795
O O4 0.412151 0.100226 0.807363
O O5 0.421210 0.984268 0.670927
O O6 0.319096 0.014464 0.906264
O O7 0.738202 0.901294 0.372133
O O8 0.783707 0.995784 0.647516
O O9 0.659461 0.190895 0.728230
O O10 0.676843 0.290354 0.474915
O O11 0.580428 0.222679 0.353949
O O12 0.783542 0.216459 0.750000
O O13 0.717665 0.203687 0.147661
O O14 0.842714 0.488058 0.506487
#
# Coordination Sequence:
#
# PCOD9557708 Si02
#       7
#     8   8   8   8   8   4   8
#     4  12  28  48  74  97 126 160 207 269 342 425
#     4  10  21  37  58  84 120 175 221 265 303 368
#     4  10  22  38  64  95 131 184 223 267 323 392
#     4  11  25  44  68 101 127 171 215 274 343 410
#     4  10  23  41  67 103 138 178 227 284 341 397
#     4  10  24  38  74  92 135 170 221 278 350 398
#     4  12  27  42  63  92 131 175 222 277 322 381
#
# _framework density 22.384088999999999
#
# number of rings (size 3 to 8) (size 9 to 14) (size 15 to 20)
#    0.000    1.231    0.000    5.538   15.077    2.769 
#    0.000    0.000    0.000    0.000    0.000    0.000 
#    0.000    1.846    0.000    0.000    0.000    0.000 
#
# Total GULP energy -290983.632071 kJ/mol
# GULP energy per Si atom -5595.839078 kJ/mol
# Density = 2.233314 g / cm^3
# Si number density = 22.384089 Si / 1000 Ang^3
#
#
#
# Elastic Constant Matrix: (Units=GPa)
#
#
# Indices 1 2 3 4 5 6 
#
# 1 69.9641 16.0544 7.5838 0.0000 0.0000 0.0000
# 2 16.0544 69.9644 7.5845 0.0000 0.0000 0.0000
# 3 7.5838 7.5845 115.7143 0.0000 0.0000 0.0000
# 4 0.0000 0.0000 0.0000 29.7642 0.0000 0.0000
# 5 0.0000 0.0000 0.0000 0.0000 29.7644 0.0000
# 6 0.0000 0.0000 0.0000 0.0000 0.0000 22.3871
#
#
#
# Elastic Compliance Matrix: (Units=1/GPa)
#
#
# Indices 1 2 3 4 5 6 
#
# 1 0.015155 -0.003394 -0.000771 0.000000 0.000000 0.000000
# 2 -0.003394 0.015155 -0.000771 0.000000 0.000000 0.000000
# 3 -0.000771 -0.000771 0.008743 0.000000 0.000000 0.000000
# 4 0.000000 0.000000 0.000000 0.033597 0.000000 0.000000
# 5 0.000000 0.000000 0.000000 0.000000 0.033597 0.000000
# 6 0.000000 0.000000 0.000000 0.000000 0.000000 0.044669
#
#
# Mechanical properties :
#
#
# Convention : Reuss Voigt Hill
#
# Bulk Modulus (GPa) = 34.26744 35.34312 34.80528
# Shear Modulus (GPa) = 29.32277 31.34449 30.33363
#
# Velocity S-wave (km/s) = 3.62329 3.74612 3.68522
# Velocity P-wave (km/s) = 5.73118 5.87664 5.80437
#
# Compressibility (1/GPa) = 0.02918222
#
# Stress axis : x y z
#
# Youngs Moduli (GPa) = 65.98301 65.98323 114.37690
#
# Poissons Ratio (x) = 0.22395 0.08816
# Poissons Ratio (y) = 0.22395 0.08818
# Poissons Ratio (z) = 0.05086 0.05087
#
# Static dielectric constant tensor:
#      x y z
#    x 1.854060 0.000000 0.000000 
#    y 0.000000 1.854060 0.000000 
#    z 0.000000 0.000000 1.924280 
# 
# From -- ./inp_files/211.got.cif
#   From: 2010.05.17/outbox.cif.g08.bks.cpg/sg116_1_cif.got.tgz:211.got - 2010.05.20 11:11:43.
