data_PCOD9557744
_publ_section_title
;
Structure prediction by ZEFSAII (Michael W. Deem and Ramdas Pophale) SiO2 
 PCOD9557744
Probable space group: P -4 C 2
;
_chemical_formula_sum "Si O2"
_cell_formula_units_Z 48
_cell_length_a 11.471453
_cell_length_b 11.471453
_cell_length_c 15.487790
_cell_angle_alpha 90.000000
_cell_angle_beta 90.000000
_cell_angle_gamma 90.000000
_cell_volume 2038.103860
_symmetry_space_group_name_H-M "P -4 C 2"
_symmetry_group_IT_number 116
_symmetry_cell_setting 'tetragonal'
loop_
_space_group_symop_operation_xyz
x,y,z
y,-x,-z
-x,-y,z
-y,x,-z
y,x,1/2-z
-y,-x,1/2-z
-x,y,1/2+z
x,-y,1/2+z
loop_
_atom_site_type_symbol
_atom_site_label
_atom_site_fract_x
_atom_site_fract_y
_atom_site_fract_z
Si Si1 0.740859 0.395615 0.185739
Si Si2 0.172795 0.639382 0.717174
Si Si3 0.441817 0.354766 0.550059
Si Si4 0.994063 0.818597 0.718476
Si Si5 0.733169 0.902158 0.949948
Si Si6 0.140626 0.324706 0.013414
O O1 0.707073 0.292928 0.250000
O O2 0.788676 0.507915 0.235397
O O3 0.619144 0.410827 0.133382
O O4 0.834097 0.355254 0.113768
O O5 0.273180 0.726821 0.750000
O O6 0.047820 0.693537 0.746609
O O7 0.162238 0.642197 0.612953
O O8 0.378394 0.423766 0.470153
O O9 0.409551 0.220151 0.543881
O O10 0.091537 0.908464 0.750000
O O11 0.976564 0.813572 0.615674
O O12 0.874059 0.874059 0.750000
O O13 0.673420 0.003056 0.005580
O O14 0.806126 0.803691 0.997340
#
# Coordination Sequence:
#
# PCOD9557744 Si02
#       6
#     8   8   8   8   8   8
#     4  11  24  41  66 101 139 183 230 293 367 441
#     4  10  22  39  63  98 130 173 232 287 356 428
#     4  10  21  40  66  99 137 176 226 286 349 423
#     4   9  19  37  62  91 129 176 223 287 348 412
#     4  10  23  41  66  94 136 175 238 283 356 429
#     4  10  22  41  62  98 129 179 229 285 351 426
#
# _framework density 23.551303000000001
#
# number of rings (size 3 to 8) (size 9 to 14) (size 15 to 20)
#    0.000    2.000    1.667    0.500    2.333   10.000 
#    0.000    1.667    0.000    0.000    0.000    0.000 
#    0.000    0.000    0.000    0.000    0.000    0.000 
#
# Total GULP energy -267778.881019 kJ/mol
# GULP energy per Si atom -5578.726688 kJ/mol
# Density = 2.349770 g / cm^3
# Si number density = 23.551303 Si / 1000 Ang^3
#
#
#
# Elastic Constant Matrix: (Units=GPa)
#
#
# Indices 1 2 3 4 5 6 
#
# 1 98.0039 84.0525 13.1390 0.0000 0.0000 0.0000
# 2 84.0525 98.0026 13.1392 0.0000 0.0000 0.0000
# 3 13.1390 13.1392 20.7063 0.0000 0.0000 0.0000
# 4 0.0000 0.0000 0.0000 28.8732 0.0000 0.0000
# 5 0.0000 0.0000 0.0000 0.0000 28.8734 0.0000
# 6 0.0000 0.0000 0.0000 0.0000 0.0000 39.1857
#
#
#
# Elastic Compliance Matrix: (Units=1/GPa)
#
#
# Indices 1 2 3 4 5 6 
#
# 1 0.038863 -0.032817 -0.003836 0.000000 0.000000 0.000000
# 2 -0.032817 0.038864 -0.003837 0.000000 0.000000 0.000000
# 3 -0.003836 -0.003837 0.053164 0.000000 0.000000 0.000000
# 4 0.000000 0.000000 0.000000 0.034634 0.000000 0.000000
# 5 0.000000 0.000000 0.000000 0.000000 0.034634 0.000000
# 6 0.000000 0.000000 0.000000 0.000000 0.000000 0.025520
#
#
# Mechanical properties :
#
#
# Convention : Reuss Voigt Hill
#
# Bulk Modulus (GPa) = 20.03622 48.59713 34.31668
# Shear Modulus (GPa) = 15.46565 26.47860 20.97213
#
# Velocity S-wave (km/s) = 2.56536 3.35669 2.98734
# Velocity P-wave (km/s) = 4.15941 5.97516 5.14797
#
# Compressibility (1/GPa) = 0.04990960
#
# Stress axis : x y z
#
# Youngs Moduli (GPa) = 25.73116 25.73073 18.80978
#
# Poissons Ratio (x) = 0.84441 0.07216
# Poissons Ratio (y) = 0.84442 0.07218
# Poissons Ratio (z) = 0.09872 0.09874
#
# Static dielectric constant tensor:
#      x y z
#    x 1.957280 0.000000 0.000000 
#    y 0.000000 1.957280 0.000000 
#    z 0.000000 0.000000 1.953380 
# 
# From -- ./inp_files/3382.got.cif
#   From: 2010.05.17/outbox.cif.g08.bks.cpg/sg116_2_cif.got.tgz:3382.got - 2010.05.20 11:11:43.
