data_PCOD9557734
_publ_section_title
;
Structure prediction by ZEFSAII (Michael W. Deem and Ramdas Pophale) SiO2 
 PCOD9557734
Probable space group: P -4 C 2
;
_chemical_formula_sum "Si O2"
_cell_formula_units_Z 36
_cell_length_a 9.236285
_cell_length_b 9.236285
_cell_length_c 20.570520
_cell_angle_alpha 90.000000
_cell_angle_beta 90.000000
_cell_angle_gamma 90.000000
_cell_volume 1754.849680
_symmetry_space_group_name_H-M "P -4 C 2"
_symmetry_group_IT_number 116
_symmetry_cell_setting 'tetragonal'
loop_
_space_group_symop_operation_xyz
x,y,z
y,-x,-z
-x,-y,z
-y,x,-z
y,x,1/2-z
-y,-x,1/2-z
-x,y,1/2+z
x,-y,1/2+z
loop_
_atom_site_type_symbol
_atom_site_label
_atom_site_fract_x
_atom_site_fract_y
_atom_site_fract_z
Si Si1 0.677402 0.727432 0.446069
Si Si2 0.834488 0.049442 0.869967
Si Si3 0.226281 0.347030 0.588867
Si Si4 0.669714 0.497833 0.335938
Si Si5 0.753855 0.753855 0.250000
O O1 0.810829 0.824866 0.422716
O O2 0.520848 0.789555 0.422534
O O3 0.697847 0.703693 0.522036
O O4 0.685256 0.580244 0.404776
O O5 0.774881 0.122564 0.803817
O O6 0.733710 0.921168 0.895831
O O7 0.000000 0.000000 0.862916
O O8 0.331243 0.302871 0.648708
O O9 0.500000 0.500000 0.319284
O O10 0.756857 0.596083 0.284993
#
# Coordination Sequence:
#
# PCOD9557734 Si02
#       5
#     8   8   8   8   4
#     4  10  21  39  66 103 139 162 215 275 339 408
#     4  11  26  44  64  92 136 187 221 270 327 392
#     4  11  21  40  68 106 131 171 214 279 344 398
#     4   9  19  38  70 100 129 173 215 283 337 384
#     4  10  22  48  64  92 136 180 234 272 318 400
#
# _framework density 20.514578
#
# number of rings (size 3 to 8) (size 9 to 14) (size 15 to 20)
#    0.000    1.778    2.222    1.333    3.111    0.000 
#    0.000   26.667    0.000    0.000    0.000    0.000 
#    0.000    0.000    0.000    0.000    0.000    0.000 
#
# Total GULP energy -200750.225774 kJ/mol
# GULP energy per Si atom -5576.395160 kJ/mol
# Density = 2.046789 g / cm^3
# Si number density = 20.514578 Si / 1000 Ang^3
#
#
#
# Elastic Constant Matrix: (Units=GPa)
#
#
# Indices 1 2 3 4 5 6 
#
# 1 69.7730 42.0385 30.3949 0.0000 0.0000 0.0000
# 2 42.0385 69.7730 30.3949 0.0000 0.0000 0.0000
# 3 30.3949 30.3949 88.5492 0.0000 0.0000 0.0000
# 4 0.0000 0.0000 0.0000 6.6400 0.0000 0.0000
# 5 0.0000 0.0000 0.0000 0.0000 6.6400 0.0000
# 6 0.0000 0.0000 0.0000 0.0000 0.0000 24.9762
#
#
#
# Elastic Compliance Matrix: (Units=1/GPa)
#
#
# Indices 1 2 3 4 5 6 
#
# 1 0.023526 -0.012530 -0.003774 0.000000 0.000000 0.000000
# 2 -0.012530 0.023526 -0.003774 0.000000 0.000000 0.000000
# 3 -0.003774 -0.003774 0.013884 0.000000 0.000000 0.000000
# 4 0.000000 0.000000 0.000000 0.150603 0.000000 0.000000
# 5 0.000000 0.000000 0.000000 0.000000 0.150603 0.000000
# 6 0.000000 0.000000 0.000000 0.000000 0.000000 0.040038
#
#
# Mechanical properties :
#
#
# Convention : Reuss Voigt Hill
#
# Bulk Modulus (GPa) = 48.12707 48.19463 48.16085
# Shear Modulus (GPa) = 11.12930 16.00235 13.56583
#
# Velocity S-wave (km/s) = 2.33170 2.79596 2.57432
# Velocity P-wave (km/s) = 5.54617 5.82813 5.68890
#
# Compressibility (1/GPa) = 0.02077833
#
# Stress axis : x y z
#
# Youngs Moduli (GPa) = 42.50631 42.50631 72.02399
#
# Poissons Ratio (x) = 0.53262 0.27184
# Poissons Ratio (y) = 0.53262 0.27184
# Poissons Ratio (z) = 0.16043 0.16043
#
# Static dielectric constant tensor:
#      x y z
#    x 1.733120 0.000000 0.000000 
#    y 0.000000 1.733120 0.000000 
#    z 0.000000 0.000000 1.782950 
# 
# From -- ./inp_files/3870.got.cif
#   From: 2010.05.17/outbox.cif.g08.bks.cpg/sg116_2_cif.got.tgz:3870.got - 2010.05.20 11:11:43.
