data_PCOD9557316
_publ_section_title
;
Structure prediction by ZEFSAII (Michael W. Deem and Ramdas Pophale) SiO2 
 PCOD9557316
Probable space group: P -4 M 2
;
_chemical_formula_sum "Si O2"
_cell_formula_units_Z 40
_cell_length_a 9.110460
_cell_length_b 9.110460
_cell_length_c 26.277022
_cell_angle_alpha 90.000000
_cell_angle_beta 90.000000
_cell_angle_gamma 90.000000
_cell_volume 2181.005476
_symmetry_space_group_name_H-M "P -4 M 2"
_symmetry_group_IT_number 115
_symmetry_cell_setting 'tetragonal'
loop_
_space_group_symop_operation_xyz
x,y,z
y,-x,-z
-x,-y,z
-y,x,-z
y,x,-z
-y,-x,-z
-x,y,z
x,-y,z
loop_
_atom_site_type_symbol
_atom_site_label
_atom_site_fract_x
_atom_site_fract_y
_atom_site_fract_z
Si Si1 0.174826 0.326187 0.047763
Si Si2 0.325590 0.825143 0.451583
Si Si3 0.672983 0.675212 0.249054
Si Si4 0.324391 0.173876 0.644554
Si Si5 0.825559 0.174253 0.153651
O O1 0.199511 0.500000 0.051338
O O2 0.219144 0.249242 0.100556
O O3 0.000000 0.300817 0.041066
O O4 0.258797 0.258797 0.000000
O O5 0.252179 0.747822 0.500000
O O6 0.500000 0.797255 0.451356
O O7 0.253137 0.760624 0.400740
O O8 0.302551 0.000000 0.454488
O O9 0.500000 0.704511 0.254540
O O10 0.692468 0.500000 0.241528
O O11 0.756747 0.715490 0.300985
O O12 0.739172 0.758683 0.200962
O O13 0.500000 0.194980 0.637407
O O14 0.295363 0.000000 0.644265
O O15 0.000000 0.202412 0.160663
O O16 0.803662 0.000000 0.150472
#
# Coordination Sequence:
#
# PCOD9557316 Si02
#       5
#     8   8   8   8   8
#     4  10  21  37  58  83 111 145 185 229 278 332
#     4  11  24  40  59  85 116 150 189 232 279 332
#     4  10  21  37  58  84 114 149 188 230 278 331
#     4  10  21  38  61  87 114 147 188 232 279 332
#     4  10  21  37  58  83 111 146 187 230 278 331
#
# _framework density 18.340164999999999
#
# number of rings (size 3 to 8) (size 9 to 14) (size 15 to 20)
#    0.000    1.800    0.000    3.600    0.000   10.400 
#    0.000    0.000    0.000    0.000    0.000    0.000 
#    0.000    0.000    0.000    0.000    0.000    0.000 
#
# Total GULP energy -223594.162647 kJ/mol
# GULP energy per Si atom -5589.854066 kJ/mol
# Density = 1.829842 g / cm^3
# Si number density = 18.340165 Si / 1000 Ang^3
#
#
#
# Elastic Constant Matrix: (Units=GPa)
#
#
# Indices 1 2 3 4 5 6 
#
# 1 93.0028 88.1849 102.9734 0.0000 0.0000 0.0000
# 2 88.1849 93.0024 102.9738 0.0000 0.0000 0.0000
# 3 102.9734 102.9738 204.1155 0.0000 0.0000 0.0000
# 4 0.0000 0.0000 0.0000 41.9023 0.0000 0.0000
# 5 0.0000 0.0000 0.0000 0.0000 41.9022 0.0000
# 6 0.0000 0.0000 0.0000 0.0000 0.0000 31.1811
#
#
#
# Elastic Compliance Matrix: (Units=1/GPa)
#
#
# Indices 1 2 3 4 5 6 
#
# 1 0.110252 -0.097315 -0.006526 0.000000 0.000000 0.000000
# 2 -0.097315 0.110254 -0.006528 0.000000 0.000000 0.000000
# 3 -0.006526 -0.006528 0.011485 0.000000 0.000000 0.000000
# 4 0.000000 0.000000 0.000000 0.023865 0.000000 0.000000
# 5 0.000000 0.000000 0.000000 0.000000 0.023865 0.000000
# 6 0.000000 0.000000 0.000000 0.000000 0.000000 0.032071
#
#
# Mechanical properties :
#
#
# Convention : Reuss Voigt Hill
#
# Bulk Modulus (GPa) = 88.86711 108.70945 98.78828
# Shear Modulus (GPa) = 9.32345 29.39636 19.35990
#
# Velocity S-wave (km/s) = 2.25714 4.00789 3.25253
# Velocity P-wave (km/s) = 7.43996 8.99001 8.25146
#
# Compressibility (1/GPa) = 0.01125276
#
# Stress axis : x y z
#
# Youngs Moduli (GPa) = 9.07012 9.06993 87.07026
#
# Poissons Ratio (x) = 0.88264 0.56826
# Poissons Ratio (y) = 0.88266 0.56839
# Poissons Ratio (z) = 0.05920 0.05921
#
# Static dielectric constant tensor:
#      x y z
#    x 1.612710 0.000000 0.000000 
#    y 0.000000 1.612710 0.000000 
#    z 0.000000 0.000000 1.586070 
# 
# From -- ./inp_files/5053.got.cif
#   From: 2010.05.17/outbox.cif.g08.bks.cpg/sg115_3_cif.got.tgz:5053.got - 2010.05.20 11:07:42.
