data_PCOD9557152
_publ_section_title
;
Structure prediction by ZEFSAII (Michael W. Deem and Ramdas Pophale) SiO2 
 PCOD9557152
Probable space group: P -4 M 2
;
_chemical_formula_sum "Si O2"
_cell_formula_units_Z 44
_cell_length_a 7.972767
_cell_length_b 7.972767
_cell_length_c 33.367737
_cell_angle_alpha 90.000000
_cell_angle_beta 90.000000
_cell_angle_gamma 90.000000
_cell_volume 2121.020657
_symmetry_space_group_name_H-M "P -4 M 2"
_symmetry_group_IT_number 115
_symmetry_cell_setting 'tetragonal'
loop_
_space_group_symop_operation_xyz
x,y,z
y,-x,-z
-x,-y,z
-y,x,-z
y,x,-z
-y,-x,-z
-x,y,z
x,-y,z
loop_
_atom_site_type_symbol
_atom_site_label
_atom_site_fract_x
_atom_site_fract_y
_atom_site_fract_z
Si Si1 0.293905 0.500000 0.733693
Si Si2 0.198824 0.198824 0.500000
Si Si3 0.191048 0.698411 0.412131
Si Si4 0.809401 0.196358 0.127504
Si Si5 0.705979 0.500000 0.640852
Si Si6 0.689852 0.700316 0.957744
Si Si7 0.807653 0.697707 0.213088
O O1 0.500000 0.500000 0.735449
O O2 0.245939 0.500000 0.687268
O O3 0.234615 0.668140 0.756521
O O4 0.278596 0.250965 0.541992
O O5 0.000000 0.228728 0.503821
O O6 0.178184 0.500000 0.404611
O O7 0.332361 0.765056 0.382124
O O8 0.000000 0.768518 0.408634
O O9 0.729178 0.221467 0.084253
O O10 0.741080 0.281750 0.167521
O O11 0.000000 0.258595 0.123319
O O12 0.809714 0.000000 0.136371
O O13 0.500000 0.500000 0.639220
O O14 0.500000 0.765637 0.952867
O O15 0.682379 0.500000 0.963645
O O16 0.765075 0.765075 0.000000
O O17 0.821564 0.500000 0.221085
O O18 0.000000 0.766818 0.215326
#
# Coordination Sequence:
#
# PCOD9557152 Si02
#       7
#     4   4   8   8   4   8   8
#     4   9  18  32  53  79 105 133 175 221 269 325
#     4   9  18  32  49  70  98 134 175 218 260 305
#     4   9  18  31  48  73 103 137 176 217 267 322
#     4  10  21  35  51  74 104 135 167 210 263 315
#     4   9  18  32  49  77 109 137 171 221 275 323
#     4   9  19  35  53  74 101 134 171 210 253 304
#     4   9  18  33  53  77 102 133 175 221 270 321
#
# _framework density 20.744731999999999
#
# number of rings (size 3 to 8) (size 9 to 14) (size 15 to 20)
#    0.000    2.818    0.000    1.091    2.545    2.909 
#    0.000    6.364    0.000    2.182    0.000    5.091 
#    0.000    0.000    0.000    0.000    0.000    0.000 
#
# Total GULP energy -245164.636543 kJ/mol
# GULP energy per Si atom -5571.923558 kJ/mol
# Density = 2.069752 g / cm^3
# Si number density = 20.744732 Si / 1000 Ang^3
#
#
#
# Elastic Constant Matrix: (Units=GPa)
#
#
# Indices 1 2 3 4 5 6 
#
# 1 43.5163 19.0884 48.2388 0.0000 0.0000 0.0000
# 2 19.0884 43.5163 48.2388 0.0000 0.0000 0.0000
# 3 48.2388 48.2388 173.0919 0.0000 0.0000 0.0000
# 4 0.0000 0.0000 0.0000 -419.6495 0.0000 0.0000
# 5 0.0000 0.0000 0.0000 0.0000 -419.6495 0.0000
# 6 0.0000 0.0000 0.0000 0.0000 0.0000 8.3737
#
#
#
# Elastic Compliance Matrix: (Units=1/GPa)
#
#
# Indices 1 2 3 4 5 6 
#
# 1 0.034467 -0.006470 -0.007803 0.000000 0.000000 0.000000
# 2 -0.006470 0.034467 -0.007803 0.000000 0.000000 0.000000
# 3 -0.007803 -0.007803 0.010126 0.000000 0.000000 0.000000
# 4 0.000000 0.000000 0.000000 -0.002383 0.000000 0.000000
# 5 0.000000 0.000000 0.000000 0.000000 -0.002383 0.000000
# 6 0.000000 0.000000 0.000000 0.000000 0.000000 0.119421
#
#
# Mechanical properties :
#
#
# Convention : Reuss Voigt Hill
#
# Bulk Modulus (GPa) = 28.64437 54.58409 41.61423
# Shear Modulus (GPa) = 20.03991 -156.54782 -68.25395
#
# Velocity S-wave (km/s) = 3.11146 -8.69642 -5.74223
# Velocity P-wave (km/s) = 5.17168 8.62946 4.88474
#
# Compressibility (1/GPa) = 0.03491087
#
# Stress axis : x y z
#
# Youngs Moduli (GPa) = 29.01315 29.01315 98.75291
#
# Poissons Ratio (x) = 0.18770 0.77053
# Poissons Ratio (y) = 0.18770 0.77053
# Poissons Ratio (z) = 0.22638 0.22638
#
# Static dielectric constant tensor:
#      x y z
#    x 1.776730 0.000000 0.000000 
#    y 0.000000 1.776730 0.000000 
#    z 0.000000 0.000000 1.743080 
# 
# From -- ./inp_files/5865.got.cif
#   From: 2010.05.17/outbox.cif.g08.bks.cpg/sg115_3_cif.got.tgz:5865.got - 2010.05.20 11:07:42.
