data_PCOD9557723
_publ_section_title
;
Structure prediction by ZEFSAII (Michael W. Deem and Ramdas Pophale) SiO2 
 PCOD9557723
Probable space group: P -4 C 2
;
_chemical_formula_sum "Si O2"
_cell_formula_units_Z 48
_cell_length_a 10.900210
_cell_length_b 10.900210
_cell_length_c 19.977480
_cell_angle_alpha 90.000000
_cell_angle_beta 90.000000
_cell_angle_gamma 90.000000
_cell_volume 2373.615857
_symmetry_space_group_name_H-M "P -4 C 2"
_symmetry_group_IT_number 116
_symmetry_cell_setting 'tetragonal'
loop_
_space_group_symop_operation_xyz
x,y,z
y,-x,-z
-x,-y,z
-y,x,-z
y,x,1/2-z
-y,-x,1/2-z
-x,y,1/2+z
x,-y,1/2+z
loop_
_atom_site_type_symbol
_atom_site_label
_atom_site_fract_x
_atom_site_fract_y
_atom_site_fract_z
Si Si1 0.699282 0.431772 0.808226
Si Si2 0.211383 0.107189 0.188447
Si Si3 0.649461 0.399850 0.964999
Si Si4 0.023197 0.145371 0.075036
Si Si5 0.192225 0.228247 0.959828
Si Si6 0.391764 0.102128 0.654369
O O1 0.600535 0.399466 0.750000
O O2 0.799734 0.323889 0.802860
O O3 0.650558 0.425814 0.885361
O O4 0.783971 0.554010 0.802833
O O5 0.119316 0.119316 0.250000
O O6 0.131841 0.157808 0.127346
O O7 0.274557 0.974867 0.180383
O O8 0.520950 0.341806 0.989286
O O9 0.751476 0.305368 0.990432
O O10 0.892421 0.209613 0.086031
O O11 0.074966 0.197075 0.005543
O O12 0.000000 0.000000 0.075370
O O13 0.161448 0.345335 0.914861
O O14 0.500000 0.000000 0.645067
#
# Coordination Sequence:
#
# PCOD9557723 Si02
#       6
#     8   8   8   8   8   8
#     4  10  21  42  69  91 127 173 221 275 327 388
#     4  10  21  39  62  90 131 175 214 265 329 399
#     4  11  24  43  67  93 122 166 221 278 322 379
#     4  12  21  34  59  95 132 164 197 260 329 386
#     4  12  21  37  62  94 128 161 211 263 330 386
#     4  10  21  38  65  92 121 173 221 262 331 408
#
# _framework density 20.222311999999999
#
# number of rings (size 3 to 8) (size 9 to 14) (size 15 to 20)
#    0.000    1.167    6.667    0.000    2.333    0.333 
#    3.000    1.667    0.000    0.000    0.000    0.000 
#    0.000    0.000    0.000    0.000    0.000    0.000 
#
# Total GULP energy -267404.023378 kJ/mol
# GULP energy per Si atom -5570.917154 kJ/mol
# Density = 2.017628 g / cm^3
# Si number density = 20.222312 Si / 1000 Ang^3
#
#
#
# Elastic Constant Matrix: (Units=GPa)
#
#
# Indices 1 2 3 4 5 6 
#
# 1 61.8711 32.4184 29.2622 0.0000 0.0000 0.0000
# 2 32.4184 61.8708 29.2622 0.0000 0.0000 0.0000
# 3 29.2622 29.2622 92.5739 0.0000 0.0000 0.0000
# 4 0.0000 0.0000 0.0000 12.8180 0.0000 0.0000
# 5 0.0000 0.0000 0.0000 0.0000 12.8181 0.0000
# 6 0.0000 0.0000 0.0000 0.0000 0.0000 35.5451
#
#
#
# Elastic Compliance Matrix: (Units=1/GPa)
#
#
# Indices 1 2 3 4 5 6 
#
# 1 0.023574 -0.010379 -0.004171 0.000000 0.000000 0.000000
# 2 -0.010379 0.023574 -0.004171 0.000000 0.000000 0.000000
# 3 -0.004171 -0.004171 0.013439 0.000000 0.000000 0.000000
# 4 0.000000 0.000000 0.000000 0.078015 0.000000 0.000000
# 5 0.000000 0.000000 0.000000 0.000000 0.078015 0.000000
# 6 0.000000 0.000000 0.000000 0.000000 0.000000 0.028133
#
#
# Mechanical properties :
#
#
# Convention : Reuss Voigt Hill
#
# Bulk Modulus (GPa) = 43.20617 44.24459 43.72538
# Shear Modulus (GPa) = 17.24701 20.59444 18.92072
#
# Velocity S-wave (km/s) = 2.92356 3.19470 3.06214
# Velocity P-wave (km/s) = 5.72785 5.96110 5.84564
#
# Compressibility (1/GPa) = 0.02314484
#
# Stress axis : x y z
#
# Youngs Moduli (GPa) = 42.42048 42.42017 74.41116
#
# Poissons Ratio (x) = 0.44029 0.31034
# Poissons Ratio (y) = 0.44029 0.31035
# Poissons Ratio (z) = 0.17692 0.17692
#
# Static dielectric constant tensor:
#      x y z
#    x 1.766710 0.000000 0.000000 
#    y 0.000000 1.766710 0.000000 
#    z 0.000000 0.000000 1.769730 
# 
# From -- ./inp_files/3399.got.cif
#   From: 2010.05.17/outbox.cif.g08.bks.cpg/sg116_2_cif.got.tgz:3399.got - 2010.05.20 11:11:43.
