data_PCOD9557282
_publ_section_title
;
Structure prediction by ZEFSAII (Michael W. Deem and Ramdas Pophale) SiO2 
 PCOD9557282
Probable space group: P -4 M 2
;
_chemical_formula_sum "Si O2"
_cell_formula_units_Z 37
_cell_length_a 8.326074
_cell_length_b 8.326074
_cell_length_c 26.577733
_cell_angle_alpha 90.000000
_cell_angle_beta 90.000000
_cell_angle_gamma 90.000000
_cell_volume 1842.461693
_symmetry_space_group_name_H-M "P -4 M 2"
_symmetry_group_IT_number 115
_symmetry_cell_setting 'tetragonal'
loop_
_space_group_symop_operation_xyz
x,y,z
y,-x,-z
-x,-y,z
-y,x,-z
y,x,-z
-y,-x,-z
-x,y,z
x,-y,z
loop_
_atom_site_type_symbol
_atom_site_label
_atom_site_fract_x
_atom_site_fract_y
_atom_site_fract_z
Si Si1 0.186614 0.500000 0.929165
Si Si2 0.807728 0.680522 0.653973
Si Si3 0.808822 0.815003 0.240128
Si Si4 0.189651 0.689639 0.130003
Si Si5 0.500000 0.500000 0.000000
Si Si6 0.189541 0.322336 0.447918
O O1 0.216552 0.332893 0.898356
O O2 0.000000 0.500000 0.946996
O O3 0.332732 0.500000 0.969051
O O4 0.751680 0.500000 0.645618
O O5 0.745803 0.740889 0.707860
O O6 0.768894 0.775933 0.603683
O O7 0.000000 0.682410 0.659255
O O8 0.778677 0.717417 0.189367
O O9 0.000000 0.821936 0.246724
O O10 0.751274 0.000000 0.232576
O O11 0.202203 0.500000 0.117985
O O12 0.000000 0.737768 0.120596
O O13 0.253153 0.253153 0.500000
O O14 0.258303 0.500000 0.441507
O O15 0.000000 0.330215 0.453701
#
# Coordination Sequence:
#
# PCOD9557282 Si02
#       6
#     4   8   8   8   1   8
#     4  12  26  46  76 104 142 190 232 289 347 400
#     4  10  21  36  55  83 118 154 197 248 302 367
#     4   9  18  33  55  87 126 167 212 260 314 381
#     4  10  21  40  67 101 142 183 230 285 340 406
#     4  12  28  52  68 112 148 180 244 288 342 404
#     4  11  24  40  58  79 104 139 188 244 304 372
#
# _framework density 20.081827000000001
#
# number of rings (size 3 to 8) (size 9 to 14) (size 15 to 20)
#    0.000    1.730    1.081    2.595    1.514    8.649 
#    0.000    2.162    0.000    0.000    0.000    0.000 
#    0.000    0.000    0.000    0.000    0.000    0.000 
#
# Total GULP energy -206320.558039 kJ/mol
# GULP energy per Si atom -5576.231298 kJ/mol
# Density = 2.003612 g / cm^3
# Si number density = 20.081827 Si / 1000 Ang^3
#
#
#
# Elastic Constant Matrix: (Units=GPa)
#
#
# Indices 1 2 3 4 5 6 
#
# 1 67.5208 38.4936 37.9154 0.0000 0.0000 0.0000
# 2 38.4936 67.5208 37.9154 0.0000 0.0000 0.0000
# 3 37.9154 37.9154 87.1075 0.0000 0.0000 0.0000
# 4 0.0000 0.0000 0.0000 29.3109 0.0000 0.0000
# 5 0.0000 0.0000 0.0000 0.0000 29.3109 0.0000
# 6 0.0000 0.0000 0.0000 0.0000 0.0000 39.9411
#
#
#
# Elastic Compliance Matrix: (Units=1/GPa)
#
#
# Indices 1 2 3 4 5 6 
#
# 1 0.024074 -0.010377 -0.005962 0.000000 0.000000 0.000000
# 2 -0.010377 0.024074 -0.005962 0.000000 0.000000 0.000000
# 3 -0.005962 -0.005962 0.016670 0.000000 0.000000 0.000000
# 4 0.000000 0.000000 0.000000 0.034117 0.000000 0.000000
# 5 0.000000 0.000000 0.000000 0.000000 0.034117 0.000000
# 6 0.000000 0.000000 0.000000 0.000000 0.000000 0.025037
#
#
# Mechanical properties :
#
#
# Convention : Reuss Voigt Hill
#
# Bulk Modulus (GPa) = 49.46415 50.08868 49.77641
# Shear Modulus (GPa) = 23.87442 26.90088 25.38765
#
# Velocity S-wave (km/s) = 3.45172 3.66398 3.55943
# Velocity P-wave (km/s) = 6.36951 6.54951 6.46013
#
# Compressibility (1/GPa) = 0.02021666
#
# Stress axis : x y z
#
# Youngs Moduli (GPa) = 41.53877 41.53877 59.98703
#
# Poissons Ratio (x) = 0.43103 0.35764
# Poissons Ratio (y) = 0.43103 0.35764
# Poissons Ratio (z) = 0.24766 0.24766
#
# Static dielectric constant tensor:
#      x y z
#    x 1.727410 0.000000 0.000000 
#    y 0.000000 1.727410 0.000000 
#    z 0.000000 0.000000 1.844230 
# 
# From -- ./inp_files/5187.got.cif
#   From: 2010.05.17/outbox.cif.g08.bks.cpg/sg115_3_cif.got.tgz:5187.got - 2010.05.20 11:07:42.
