data_PCOD9557606
_publ_section_title
;
Structure prediction by ZEFSAII (Michael W. Deem and Ramdas Pophale) SiO2 
 PCOD9557606
Probable space group: P -4 C 2
;
_chemical_formula_sum "Si O2"
_cell_formula_units_Z 38
_cell_length_a 11.247430
_cell_length_b 11.247430
_cell_length_c 15.214408
_cell_angle_alpha 90.000000
_cell_angle_beta 90.000000
_cell_angle_gamma 90.000000
_cell_volume 1924.693840
_symmetry_space_group_name_H-M "P -4 C 2"
_symmetry_group_IT_number 116
_symmetry_cell_setting 'tetragonal'
loop_
_space_group_symop_operation_xyz
x,y,z
y,-x,-z
-x,-y,z
-y,x,-z
y,x,1/2-z
-y,-x,1/2-z
-x,y,1/2+z
x,-y,1/2+z
loop_
_atom_site_type_symbol
_atom_site_label
_atom_site_fract_x
_atom_site_fract_y
_atom_site_fract_z
Si Si1 0.042727 0.841394 0.446401
Si Si2 0.565259 0.266190 0.427853
Si Si3 0.500000 0.500000 0.000000
Si Si4 0.582378 0.116108 0.259318
Si Si5 0.610557 0.179247 0.064197
Si Si6 0.866064 0.866064 0.750000
O O1 0.072339 0.702434 0.451335
O O2 0.068010 0.883513 0.345052
O O3 0.913966 0.872947 0.485545
O O4 0.491996 0.387455 0.437983
O O5 0.549022 0.207145 0.334815
O O6 0.701747 0.306873 0.441577
O O7 0.501879 0.184570 0.500456
O O8 0.564645 0.169724 0.163073
O O9 0.726478 0.104808 0.268444
O O10 0.500000 0.000000 0.267929
#
# Coordination Sequence:
#
# PCOD9557606 Si02
#       6
#     8   8   2   8   8   4
#     4  10  22  39  64  89 123 178 212 269 340 384
#     4  10  19  39  64  87 126 167 207 258 336 388
#     4   8  20  36  58  92 124 174 192 264 334 384
#     4  11  22  38  64  95 124 177 211 274 342 383
#     4  10  22  40  62  91 130 162 217 277 322 400
#     4  10  22  45  62  93 144 162 222 286 332 391
#
# _framework density 19.743399
#
# number of rings (size 3 to 8) (size 9 to 14) (size 15 to 20)
#    0.000    1.895    4.211    0.000    2.947    5.895 
#    0.000   15.789    4.632    0.000    0.000    0.000 
#    0.000    0.000    0.000    0.000    0.000    0.000 
#
# Total GULP energy -211641.631919 kJ/mol
# GULP energy per Si atom -5569.516629 kJ/mol
# Density = 1.969846 g / cm^3
# Si number density = 19.743399 Si / 1000 Ang^3
#
#
#
# Elastic Constant Matrix: (Units=GPa)
#
#
# Indices 1 2 3 4 5 6 
#
# 1 71.8154 31.8273 42.1007 0.0000 0.0000 0.0000
# 2 31.8273 71.8154 42.1007 0.0000 0.0000 0.0000
# 3 42.1007 42.1007 156.3702 0.0000 0.0000 0.0000
# 4 0.0000 0.0000 0.0000 35.9684 0.0000 0.0000
# 5 0.0000 0.0000 0.0000 0.0000 35.9684 0.0000
# 6 0.0000 0.0000 0.0000 0.0000 0.0000 31.4382
#
#
#
# Elastic Compliance Matrix: (Units=1/GPa)
#
#
# Indices 1 2 3 4 5 6 
#
# 1 0.018679 -0.006329 -0.003325 0.000000 0.000000 0.000000
# 2 -0.006329 0.018679 -0.003325 0.000000 0.000000 0.000000
# 3 -0.003325 -0.003325 0.008186 0.000000 0.000000 0.000000
# 4 0.000000 0.000000 0.000000 0.027802 0.000000 0.000000
# 5 0.000000 0.000000 0.000000 0.000000 0.027802 0.000000
# 6 0.000000 0.000000 0.000000 0.000000 0.000000 0.031808
#
#
# Mechanical properties :
#
#
# Convention : Reuss Voigt Hill
#
# Bulk Modulus (GPa) = 51.05926 59.11762 55.08844
# Shear Modulus (GPa) = 30.22213 32.93984 31.58098
#
# Velocity S-wave (km/s) = 3.91672 4.08903 4.00380
# Velocity P-wave (km/s) = 6.80969 7.23198 7.02401
#
# Compressibility (1/GPa) = 0.01958508
#
# Stress axis : x y z
#
# Youngs Moduli (GPa) = 53.53702 53.53702 122.16671
#
# Poissons Ratio (x) = 0.33882 0.40621
# Poissons Ratio (y) = 0.33882 0.40621
# Poissons Ratio (z) = 0.17801 0.17801
#
# Static dielectric constant tensor:
#      x y z
#    x 1.746430 0.000000 0.000000 
#    y 0.000000 1.746430 0.000000 
#    z 0.000000 0.000000 1.689470 
# 
# From -- ./inp_files/2593.got.cif
#   From: 2010.05.17/outbox.cif.g08.bks.cpg/sg116_2_cif.got.tgz:2593.got - 2010.05.20 11:11:43.
