data_PCOD9557224
_publ_section_title
;
Structure prediction by ZEFSAII (Michael W. Deem and Ramdas Pophale) SiO2 
 PCOD9557224
Probable space group: P -4 M 2
;
_chemical_formula_sum "Si O2"
_cell_formula_units_Z 44
_cell_length_a 9.294058
_cell_length_b 9.294058
_cell_length_c 29.328649
_cell_angle_alpha 90.000000
_cell_angle_beta 90.000000
_cell_angle_gamma 90.000000
_cell_volume 2533.394450
_symmetry_space_group_name_H-M "P -4 M 2"
_symmetry_group_IT_number 115
_symmetry_cell_setting 'tetragonal'
loop_
_space_group_symop_operation_xyz
x,y,z
y,-x,-z
-x,-y,z
-y,x,-z
y,x,-z
-y,-x,-z
-x,y,z
x,-y,z
loop_
_atom_site_type_symbol
_atom_site_label
_atom_site_fract_x
_atom_site_fract_y
_atom_site_fract_z
Si Si1 0.331000 0.827263 0.906812
Si Si2 0.831065 0.672961 0.824422
Si Si3 0.666480 0.675547 0.449715
Si Si4 0.669927 0.328190 0.731616
Si Si5 0.829404 0.829404 0.000000
Si Si6 0.834782 0.675437 0.360015
O O1 0.500000 0.792263 0.906446
O O2 0.249872 0.749298 0.865795
O O3 0.259475 0.788259 0.955210
O O4 0.315886 0.000000 0.901751
O O5 0.816248 0.500000 0.828926
O O6 0.758821 0.714023 0.776287
O O7 0.000000 0.708108 0.824799
O O8 0.719839 0.719839 0.500000
O O9 0.500000 0.718979 0.444041
O O10 0.667769 0.500000 0.450535
O O11 0.758297 0.723847 0.406532
O O12 0.500000 0.297455 0.739026
O O13 0.683799 0.500000 0.725134
O O14 0.718394 0.248903 0.685692
O O15 0.000000 0.807597 0.991434
O O16 0.831160 0.500000 0.360722
O O17 0.000000 0.720685 0.358458
#
# Coordination Sequence:
#
# PCOD9557224 Si02
#       6
#     8   8   8   8   4   8
#     4  10  21  36  55  80 108 137 170 208 249 295
#     4  10  21  36  54  76 102 133 169 209 252 298
#     4   8  13  22  38  60  85 115 152 190 228 276
#     4   9  17  30  48  69  95 127 160 196 242 293
#     4   9  18  34  54  75 104 142 178 209 244 289
#     4   9  16  25  40  65  94 120 150 193 240 282
#
# _framework density 17.368003000000002
#
# number of rings (size 3 to 8) (size 9 to 14) (size 15 to 20)
#    0.000    2.818    0.000    2.182    0.000    5.818 
#    0.000    3.636    0.000    1.091    0.000    5.091 
#    0.000    0.000    0.000    0.000    0.000    0.000 
#
# Total GULP energy -245323.342798 kJ/mol
# GULP energy per Si atom -5575.530518 kJ/mol
# Density = 1.732847 g / cm^3
# Si number density = 17.368003 Si / 1000 Ang^3
#
#
#
# Elastic Constant Matrix: (Units=GPa)
#
#
# Indices 1 2 3 4 5 6 
#
# 1 59.2969 43.9314 86.2129 0.0000 0.0000 0.0000
# 2 43.9314 59.2969 86.2129 0.0000 0.0000 0.0000
# 3 86.2129 86.2129 223.2216 0.0000 0.0000 0.0000
# 4 0.0000 0.0000 0.0000 -24.7513 0.0000 0.0000
# 5 0.0000 0.0000 0.0000 0.0000 -24.7513 0.0000
# 6 0.0000 0.0000 0.0000 0.0000 0.0000 15.9798
#
#
#
# Elastic Compliance Matrix: (Units=1/GPa)
#
#
# Indices 1 2 3 4 5 6 
#
# 1 0.046189 -0.018892 -0.010543 0.000000 0.000000 0.000000
# 2 -0.018892 0.046189 -0.010543 0.000000 0.000000 0.000000
# 3 -0.010543 -0.010543 0.012624 0.000000 0.000000 0.000000
# 4 0.000000 0.000000 0.000000 -0.040402 0.000000 0.000000
# 5 0.000000 0.000000 0.000000 0.000000 -0.040402 0.000000
# 6 0.000000 0.000000 0.000000 0.000000 0.000000 0.062579
#
#
# Mechanical properties :
#
#
# Convention : Reuss Voigt Hill
#
# Bulk Modulus (GPa) = 39.92512 86.05889 62.99200
# Shear Modulus (GPa) = 28.55834 1.65933 15.10883
#
# Velocity S-wave (km/s) = 4.05941 0.97850 2.95265
# Velocity P-wave (km/s) = 6.70890 7.13684 6.92617
#
# Compressibility (1/GPa) = 0.02504689
#
# Stress axis : x y z
#
# Youngs Moduli (GPa) = 21.65017 21.65017 79.21718
#
# Poissons Ratio (x) = 0.40901 0.83517
# Poissons Ratio (y) = 0.40901 0.83517
# Poissons Ratio (z) = 0.22825 0.22825
#
# Static dielectric constant tensor:
#      x y z
#    x 1.578770 0.000000 0.000000 
#    y 0.000000 1.578770 0.000000 
#    z 0.000000 0.000000 1.573370 
# 
# From -- ./inp_files/5836.got.cif
#   From: 2010.05.17/outbox.cif.g08.bks.cpg/sg115_3_cif.got.tgz:5836.got - 2010.05.20 11:07:42.
