data_PCOD9557467
_publ_section_title
;
Structure prediction by ZEFSAII (Michael W. Deem and Ramdas Pophale) SiO2 
 PCOD9557467
Probable space group: P -4 M 2
;
_chemical_formula_sum "Si O2"
_cell_formula_units_Z 40
_cell_length_a 9.592572
_cell_length_b 9.592572
_cell_length_c 26.638982
_cell_angle_alpha 90.000000
_cell_angle_beta 90.000000
_cell_angle_gamma 90.000000
_cell_volume 2451.250863
_symmetry_space_group_name_H-M "P -4 M 2"
_symmetry_group_IT_number 115
_symmetry_cell_setting 'tetragonal'
loop_
_space_group_symop_operation_xyz
x,y,z
y,-x,-z
-x,-y,z
-y,x,-z
y,x,-z
-y,-x,-z
-x,y,z
x,-y,z
loop_
_atom_site_type_symbol
_atom_site_label
_atom_site_fract_x
_atom_site_fract_y
_atom_site_fract_z
Si Si1 0.339237 0.330142 0.444197
Si Si2 0.166205 0.165167 0.942493
Si Si3 0.667124 0.335236 0.140097
Si Si4 0.330286 0.339635 0.746655
Si Si5 0.160278 0.670302 0.348550
O O1 0.289560 0.289560 0.500000
O O2 0.500000 0.285958 0.436824
O O3 0.340484 0.500000 0.444621
O O4 0.242976 0.284780 0.398342
O O5 0.249370 0.252991 0.901861
O O6 0.000000 0.185856 0.937007
O O7 0.193456 0.000000 0.936344
O O8 0.203277 0.203277 0.000000
O O9 0.500000 0.319731 0.135244
O O10 0.698713 0.500000 0.135380
O O11 0.703857 0.289419 0.197027
O O12 0.500000 0.340146 0.746616
O O13 0.286974 0.500000 0.737937
O O14 0.284081 0.240326 0.701741
O O15 0.162045 0.500000 0.348508
O O16 0.000000 0.714498 0.349022
#
# Coordination Sequence:
#
# PCOD9557467 Si02
#       5
#     8   8   8   8   8
#     4   8  13  21  33  49  71 102 137 168 203 253
#     4   9  19  35  51  67  90 121 156 191 227 270
#     4   9  18  31  47  70  97 122 151 188 229 273
#     4   8  14  25  39  56  84 119 146 171 212 264
#     4   9  15  21  32  54  82 108 136 174 217 256
#
# _framework density 16.318200000000001
#
# number of rings (size 3 to 8) (size 9 to 14) (size 15 to 20)
#    0.000    3.400    0.000    3.000    0.000    4.800 
#    0.000    5.000    0.000    0.000    0.000    1.400 
#    0.000    8.400    0.000    0.000    0.000    0.000 
#
# Total GULP energy -222675.291045 kJ/mol
# GULP energy per Si atom -5566.882276 kJ/mol
# Density = 1.628106 g / cm^3
# Si number density = 16.318200 Si / 1000 Ang^3
#
#
#
# Elastic Constant Matrix: (Units=GPa)
#
#
# Indices 1 2 3 4 5 6 
#
# 1 44.5201 29.8657 74.7756 0.0000 0.0000 0.0000
# 2 29.8657 44.5201 74.7756 0.0000 0.0000 0.0000
# 3 74.7756 74.7756 202.5852 0.0000 0.0000 0.0000
# 4 0.0000 0.0000 0.0000 -7.0894 0.0000 0.0000
# 5 0.0000 0.0000 0.0000 0.0000 -7.0894 0.0000
# 6 0.0000 0.0000 0.0000 0.0000 0.0000 17.0067
#
#
#
# Elastic Compliance Matrix: (Units=1/GPa)
#
#
# Indices 1 2 3 4 5 6 
#
# 1 0.060181 -0.008058 -0.019239 0.000000 0.000000 0.000000
# 2 -0.008058 0.060181 -0.019239 0.000000 0.000000 0.000000
# 3 -0.019239 -0.019239 0.019139 0.000000 0.000000 0.000000
# 4 0.000000 0.000000 0.000000 -0.141055 0.000000 0.000000
# 5 0.000000 0.000000 0.000000 0.000000 -0.141055 0.000000
# 6 0.000000 0.000000 0.000000 0.000000 0.000000 0.058800
#
#
# Mechanical properties :
#
#
# Convention : Reuss Voigt Hill
#
# Bulk Modulus (GPa) = 21.53835 72.27326 46.90580
# Shear Modulus (GPa) = 202.10658 8.04612 105.07635
#
# Velocity S-wave (km/s) = 11.14102 2.22294 8.03318
# Velocity P-wave (km/s) = 13.36877 7.13966 10.71678
#
# Compressibility (1/GPa) = 0.04642882
#
# Stress axis : x y z
#
# Youngs Moduli (GPa) = 16.61650 16.61650 52.25021
#
# Poissons Ratio (x) = 0.13390 1.00524
# Poissons Ratio (y) = 0.13390 1.00524
# Poissons Ratio (z) = 0.31968 0.31968
#
# Static dielectric constant tensor:
#      x y z
#    x 1.530810 0.000000 0.000000 
#    y 0.000000 1.530810 0.000000 
#    z 0.000000 0.000000 1.556120 
# 
# From -- ./inp_files/5430.got.cif
#   From: 2010.05.17/outbox.cif.g08.bks.cpg/sg115_3_cif.got.tgz:5430.got - 2010.05.20 11:07:42.
