data_PCOD9557667
_publ_section_title
;
Structure prediction by ZEFSAII (Michael W. Deem and Ramdas Pophale) SiO2 
 PCOD9557667
Probable space group: P -4 C 2
;
_chemical_formula_sum "Si O2"
_cell_formula_units_Z 40
_cell_length_a 14.718408
_cell_length_b 14.718408
_cell_length_c 9.927460
_cell_angle_alpha 90.000000
_cell_angle_beta 90.000000
_cell_angle_gamma 90.000000
_cell_volume 2150.600889
_symmetry_space_group_name_H-M "P -4 C 2"
_symmetry_group_IT_number 116
_symmetry_cell_setting 'tetragonal'
loop_
_space_group_symop_operation_xyz
x,y,z
y,-x,-z
-x,-y,z
-y,x,-z
y,x,1/2-z
-y,-x,1/2-z
-x,y,1/2+z
x,-y,1/2+z
loop_
_atom_site_type_symbol
_atom_site_label
_atom_site_fract_x
_atom_site_fract_y
_atom_site_fract_z
Si Si1 0.989861 0.275689 0.253535
Si Si2 0.574783 0.403035 0.590622
Si Si3 0.686294 0.229266 0.523200
Si Si4 0.171126 0.171126 0.250000
Si Si5 0.397788 0.963953 0.495097
Si Si6 0.217730 0.217730 0.750000
O O1 0.998496 0.356232 0.144823
O O2 0.889603 0.235144 0.246985
O O3 0.066392 0.199140 0.228818
O O4 0.001471 0.326765 0.394117
O O5 0.480598 0.384614 0.509465
O O6 0.568941 0.431060 0.750000
O O7 0.634523 0.313597 0.585491
O O8 0.767011 0.199458 0.622972
O O9 0.616348 0.145323 0.500889
O O10 0.732423 0.254865 0.382042
O O11 0.500000 0.000000 0.515445
#
# Coordination Sequence:
#
# PCOD9557667 Si02
#       6
#     8   8   8   4   8   4
#     4  10  21  37  60  84 120 153 196 247 297 359
#     4  11  24  42  63  90 121 160 204 253 300 360
#     4  10  22  39  61  86 121 158 199 248 306 356
#     4  10  20  39  60  85 118 158 196 246 308 362
#     4  10  21  39  58  88 116 157 195 247 299 358
#     4  10  22  37  58  91 118 158 200 248 296 362
#
# _framework density 18.599454000000001
#
# number of rings (size 3 to 8) (size 9 to 14) (size 15 to 20)
#    0.000    1.800    1.000    3.000    2.800    3.600 
#    3.600    0.000    0.000    7.200    0.000    0.000 
#    0.000    0.000    0.000    0.000    0.000    0.000 
#
# Total GULP energy -222974.619105 kJ/mol
# GULP energy per Si atom -5574.365478 kJ/mol
# Density = 1.855712 g / cm^3
# Si number density = 18.599454 Si / 1000 Ang^3
#
#
#
# Elastic Constant Matrix: (Units=GPa)
#
#
# Indices 1 2 3 4 5 6 
#
# 1 61.7544 28.4745 -3.8931 0.0000 0.0000 0.0000
# 2 28.4745 61.7539 -3.8930 0.0000 0.0000 0.0000
# 3 -3.8931 -3.8930 89.4258 0.0000 0.0000 0.0000
# 4 0.0000 0.0000 0.0000 24.6516 0.0000 0.0000
# 5 0.0000 0.0000 0.0000 0.0000 24.6515 0.0000
# 6 0.0000 0.0000 0.0000 0.0000 0.0000 30.2361
#
#
#
# Elastic Compliance Matrix: (Units=1/GPa)
#
#
# Indices 1 2 3 4 5 6 
#
# 1 0.020586 -0.009462 0.000484 0.000000 0.000000 0.000000
# 2 -0.009462 0.020587 0.000484 0.000000 0.000000 0.000000
# 3 0.000484 0.000484 0.011225 0.000000 0.000000 0.000000
# 4 0.000000 0.000000 0.000000 0.040565 0.000000 0.000000
# 5 0.000000 0.000000 0.000000 0.000000 0.040566 0.000000
# 6 0.000000 0.000000 0.000000 0.000000 0.000000 0.033073
#
#
# Mechanical properties :
#
#
# Convention : Reuss Voigt Hill
#
# Bulk Modulus (GPa) = 28.23957 28.25678 28.24818
# Shear Modulus (GPa) = 25.58961 28.72423 27.15692
#
# Velocity S-wave (km/s) = 3.71324 3.93410 3.82526
# Velocity P-wave (km/s) = 5.79656 5.98844 5.89328
#
# Compressibility (1/GPa) = 0.03541131
#
# Stress axis : x y z
#
# Youngs Moduli (GPa) = 48.57556 48.57515 89.08986
#
# Poissons Ratio (x) = 0.45961 -0.04315
# Poissons Ratio (y) = 0.45961 -0.04315
# Poissons Ratio (z) = -0.02353 -0.02352
#
# Static dielectric constant tensor:
#      x y z
#    x 1.620890 0.000000 0.000000 
#    y 0.000000 1.620890 0.000000 
#    z 0.000000 0.000000 1.647550 
# 
# From -- ./inp_files/837.got.cif
#   From: 2010.05.17/outbox.cif.g08.bks.cpg/sg116_1_cif.got.tgz:837.got - 2010.05.20 11:11:43.
