data_PCOD9557434
_publ_section_title
;
Structure prediction by ZEFSAII (Michael W. Deem and Ramdas Pophale) SiO2 
 PCOD9557434
Probable space group: P -4 M 2
;
_chemical_formula_sum "Si O2"
_cell_formula_units_Z 48
_cell_length_a 13.835289
_cell_length_b 13.835289
_cell_length_c 13.901037
_cell_angle_alpha 90.000000
_cell_angle_beta 90.000000
_cell_angle_gamma 90.000000
_cell_volume 2660.870079
_symmetry_space_group_name_H-M "P -4 M 2"
_symmetry_group_IT_number 115
_symmetry_cell_setting 'tetragonal'
loop_
_space_group_symop_operation_xyz
x,y,z
y,-x,-z
-x,-y,z
-y,x,-z
y,x,-z
-y,-x,-z
-x,y,z
x,-y,z
loop_
_atom_site_type_symbol
_atom_site_label
_atom_site_fract_x
_atom_site_fract_y
_atom_site_fract_z
Si Si1 0.885429 0.384441 0.815402
Si Si2 0.382814 0.111737 0.403376
Si Si3 0.383683 0.111844 0.801472
Si Si4 0.382937 0.795235 0.598123
Si Si5 0.699444 0.298704 0.107702
Si Si6 0.605953 0.616530 0.296282
O O1 0.868627 0.500000 0.828232
O O2 0.858777 0.357163 0.705108
O O3 0.815094 0.322749 0.881789
O O4 0.000000 0.368740 0.828749
O O5 0.500000 0.113595 0.404983
O O6 0.346032 0.168349 0.496114
O O7 0.354062 0.000000 0.414409
O O8 0.500000 0.126362 0.812645
O O9 0.360058 0.136730 0.689789
O O10 0.329223 0.191210 0.865766
O O11 0.362300 0.000000 0.822891
O O12 0.500000 0.794913 0.592192
O O13 0.352982 0.688029 0.629256
O O14 0.634886 0.348699 0.190282
O O15 0.672388 0.327613 0.000000
O O16 0.500000 0.652532 0.323786
O O17 0.605052 0.500000 0.295482
#
# Coordination Sequence:
#
# PCOD9557434 Si02
#       6
#     8   8   8   8   8   8
#     4   9  19  35  54  77 104 133 168 214 265 315
#     4   8  13  24  46  74 100 128 163 202 247 299
#     4   9  18  33  52  75 102 129 164 215 267 314
#     4   8  13  24  46  73  98 128 166 203 242 293
#     4  11  22  34  50  71  95 128 173 221 269 319
#     4   9  18  31  45  66 100 138 174 211 252 303
#
# _framework density 18.039213
#
# number of rings (size 3 to 8) (size 9 to 14) (size 15 to 20)
#    0.000    3.000    0.000    3.500    0.000    5.333 
#    0.000    5.833    0.000    6.500    0.000   10.500 
#    0.000    0.000    0.000    9.333    0.000    0.833 
#
# Total GULP energy -267728.353186 kJ/mol
# GULP energy per Si atom -5577.674025 kJ/mol
# Density = 1.799815 g / cm^3
# Si number density = 18.039213 Si / 1000 Ang^3
#
#
#
# Elastic Constant Matrix: (Units=GPa)
#
#
# Indices 1 2 3 4 5 6 
#
# 1 65.7213 24.3532 12.3861 0.0000 0.0000 0.0000
# 2 24.3532 65.7209 12.3858 0.0000 0.0000 0.0000
# 3 12.3861 12.3858 68.6011 0.0000 0.0000 0.0000
# 4 0.0000 0.0000 0.0000 8.5856 0.0000 0.0000
# 5 0.0000 0.0000 0.0000 0.0000 8.5860 0.0000
# 6 0.0000 0.0000 0.0000 0.0000 0.0000 17.9733
#
#
#
# Elastic Compliance Matrix: (Units=1/GPa)
#
#
# Indices 1 2 3 4 5 6 
#
# 1 0.017928 -0.006246 -0.002109 0.000000 0.000000 0.000000
# 2 -0.006246 0.017928 -0.002109 0.000000 0.000000 0.000000
# 3 -0.002109 -0.002109 0.015339 0.000000 0.000000 0.000000
# 4 0.000000 0.000000 0.000000 0.116474 0.000000 0.000000
# 5 0.000000 0.000000 0.000000 0.000000 0.116469 0.000000
# 6 0.000000 0.000000 0.000000 0.000000 0.000000 0.055638
#
#
# Mechanical properties :
#
#
# Convention : Reuss Voigt Hill
#
# Bulk Modulus (GPa) = 33.04049 33.14374 33.09212
# Shear Modulus (GPa) = 13.48464 17.09019 15.28741
#
# Velocity S-wave (km/s) = 2.73704 3.08131 2.91427
# Velocity P-wave (km/s) = 5.32393 5.57426 5.45053
#
# Compressibility (1/GPa) = 0.03026589
#
# Stress axis : x y z
#
# Youngs Moduli (GPa) = 55.77985 55.77957 65.19478
#
# Poissons Ratio (x) = 0.34838 0.13751
# Poissons Ratio (y) = 0.34838 0.13751
# Poissons Ratio (z) = 0.11765 0.11765
#
# Static dielectric constant tensor:
#      x y z
#    x 1.627620 0.000000 0.000000 
#    y 0.000000 1.627620 0.000000 
#    z 0.000000 0.000000 1.625370 
# 
# From -- ./inp_files/2906.got.cif
#   From: 2010.05.17/outbox.cif.g08.bks.cpg/sg115_2_cif.got.tgz:2906.got - 2010.05.20 11:07:42.
