data_PCOD9557227
_publ_section_title
;
Structure prediction by ZEFSAII (Michael W. Deem and Ramdas Pophale) SiO2 
 PCOD9557227
Probable space group: P -4 M 2
;
_chemical_formula_sum "Si O2"
_cell_formula_units_Z 48
_cell_length_a 9.358154
_cell_length_b 9.358154
_cell_length_c 32.068898
_cell_angle_alpha 90.000000
_cell_angle_beta 90.000000
_cell_angle_gamma 90.000000
_cell_volume 2808.435227
_symmetry_space_group_name_H-M "P -4 M 2"
_symmetry_group_IT_number 115
_symmetry_cell_setting 'tetragonal'
loop_
_space_group_symop_operation_xyz
x,y,z
y,-x,-z
-x,-y,z
-y,x,-z
y,x,-z
-y,-x,-z
-x,y,z
x,-y,z
loop_
_atom_site_type_symbol
_atom_site_label
_atom_site_fract_x
_atom_site_fract_y
_atom_site_fract_z
Si Si1 0.826091 0.334967 0.129393
Si Si2 0.831210 0.828844 0.211926
Si Si3 0.825895 0.335595 0.705492
Si Si4 0.672138 0.168097 0.963281
Si Si5 0.170247 0.330546 0.462970
Si Si6 0.830877 0.170001 0.622259
O O1 0.782618 0.500000 0.134561
O O2 0.780762 0.243221 0.169053
O O3 0.781799 0.283968 0.083302
O O4 0.000000 0.332794 0.128591
O O5 0.745456 0.779497 0.252631
O O6 0.000000 0.797482 0.217509
O O7 0.816968 0.000000 0.208389
O O8 0.780396 0.500000 0.705332
O O9 0.783036 0.254618 0.663312
O O10 0.000000 0.332576 0.705839
O O11 0.500000 0.179702 0.965020
O O12 0.708016 0.000000 0.967420
O O13 0.744358 0.255643 0.000000
O O14 0.257040 0.257040 0.500000
O O15 0.195546 0.500000 0.461623
O O16 0.207990 0.257486 0.418904
O O17 0.000000 0.307073 0.469513
O O18 0.000000 0.198205 0.615195
O O19 0.815813 0.000000 0.629667
#
# Coordination Sequence:
#
# PCOD9557227 Si02
#       6
#     8   8   8   8   8   8
#     4   8  15  29  47  66  90 120 153 190 232 278
#     4   9  16  27  46  70  92 116 151 192 231 275
#     4   9  17  29  46  69  96 124 154 191 236 282
#     4   9  18  32  49  70  96 125 159 199 242 290
#     4  10  21  36  54  77 104 133 166 204 246 292
#     4   9  17  31  52  74  95 123 161 201 237 278
#
# _framework density 17.091369
#
# number of rings (size 3 to 8) (size 9 to 14) (size 15 to 20)
#    0.000    3.000    0.000    2.000    0.000    4.667 
#    0.000    5.000    0.000    8.500    0.000    0.000 
#    0.000    0.000    0.000    0.000    0.000    0.000 
#
# Total GULP energy -267483.857189 kJ/mol
# GULP energy per Si atom -5572.580358 kJ/mol
# Density = 1.705247 g / cm^3
# Si number density = 17.091369 Si / 1000 Ang^3
#
#
#
# Elastic Constant Matrix: (Units=GPa)
#
#
# Indices 1 2 3 4 5 6 
#
# 1 43.5182 38.8360 76.8370 0.0000 0.0000 0.0000
# 2 38.8360 43.5167 76.8361 0.0000 0.0000 0.0000
# 3 76.8370 76.8361 215.7465 0.0000 0.0000 0.0000
# 4 0.0000 0.0000 0.0000 -12.7345 0.0000 0.0000
# 5 0.0000 0.0000 0.0000 0.0000 -12.7334 0.0000
# 6 0.0000 0.0000 0.0000 0.0000 0.0000 15.6321
#
#
#
# Elastic Compliance Matrix: (Units=1/GPa)
#
#
# Indices 1 2 3 4 5 6 
#
# 1 0.124902 -0.088704 -0.012892 0.000000 0.000000 0.000000
# 2 -0.088704 0.124908 -0.012893 0.000000 0.000000 0.000000
# 3 -0.012892 -0.012893 0.013818 0.000000 0.000000 0.000000
# 4 0.000000 0.000000 0.000000 -0.078527 0.000000 0.000000
# 5 0.000000 0.000000 0.000000 0.000000 -0.078533 0.000000
# 6 0.000000 0.000000 0.000000 0.000000 0.000000 0.063971
#
#
# Mechanical properties :
#
#
# Convention : Reuss Voigt Hill
#
# Bulk Modulus (GPa) = 28.86075 76.42217 52.64146
# Shear Modulus (GPa) = 12.16345 5.38432 8.77389
#
# Velocity S-wave (km/s) = 2.67061 1.77684 2.26818
# Velocity P-wave (km/s) = 5.14124 7.00146 6.14219
#
# Compressibility (1/GPa) = 0.03464913
#
# Stress axis : x y z
#
# Youngs Moduli (GPa) = 8.00630 8.00588 72.36802
#
# Poissons Ratio (x) = 0.71016 0.93296
# Poissons Ratio (y) = 0.71019 0.93306
# Poissons Ratio (z) = 0.10322 0.10322
#
# Static dielectric constant tensor:
#      x y z
#    x 1.566830 0.000000 0.000000 
#    y 0.000000 1.566830 0.000000 
#    z 0.000000 0.000000 1.569670 
# 
# From -- ./inp_files/6025.got.cif
#   From: 2010.05.17/outbox.cif.g08.bks.cpg/sg115_4_cif.got.tgz:6025.got - 2010.05.20 11:07:42.
