data_PCOD9557309
_publ_section_title
;
Structure prediction by ZEFSAII (Michael W. Deem and Ramdas Pophale) SiO2 
 PCOD9557309
Probable space group: P -4 M 2
;
_chemical_formula_sum "Si O2"
_cell_formula_units_Z 48
_cell_length_a 9.052540
_cell_length_b 9.052540
_cell_length_c 31.616943
_cell_angle_alpha 90.000000
_cell_angle_beta 90.000000
_cell_angle_gamma 90.000000
_cell_volume 2590.960435
_symmetry_space_group_name_H-M "P -4 M 2"
_symmetry_group_IT_number 115
_symmetry_cell_setting 'tetragonal'
loop_
_space_group_symop_operation_xyz
x,y,z
y,-x,-z
-x,-y,z
-y,x,-z
y,x,-z
-y,-x,-z
-x,y,z
x,-y,z
loop_
_atom_site_type_symbol
_atom_site_label
_atom_site_fract_x
_atom_site_fract_y
_atom_site_fract_z
Si Si1 0.677029 0.825065 0.296896
Si Si2 0.324452 0.824039 0.622253
Si Si3 0.822119 0.827452 0.128136
Si Si4 0.323954 0.823980 0.459195
Si Si5 0.823695 0.325274 0.040233
Si Si6 0.677565 0.672510 0.208545
O O1 0.500000 0.803878 0.302202
O O2 0.760663 0.744419 0.334748
O O3 0.719488 0.756736 0.251611
O O4 0.706371 0.000000 0.297645
O O5 0.500000 0.795894 0.621256
O O6 0.247042 0.745145 0.582731
O O7 0.301133 0.000000 0.619637
O O8 0.777323 0.753897 0.083715
O O9 0.751126 0.745264 0.167783
O O10 0.000000 0.815859 0.131054
O O11 0.782057 0.000000 0.128501
O O12 0.249294 0.750706 0.500000
O O13 0.500000 0.798932 0.460078
O O14 0.298390 0.000000 0.459382
O O15 0.797951 0.500000 0.043673
O O16 0.000000 0.301073 0.035029
O O17 0.741267 0.258734 0.000000
O O18 0.500000 0.683191 0.204505
O O19 0.717089 0.500000 0.211712
#
# Coordination Sequence:
#
# PCOD9557309 Si02
#       6
#     8   8   8   8   8   8
#     4  10  21  38  60  85 113 148 191 236 283 337
#     4  11  24  40  59  86 118 152 192 236 283 337
#     4  10  21  37  58  83 111 146 187 230 278 332
#     4  11  24  41  62  89 119 152 192 236 283 337
#     4  10  21  37  57  81 109 143 183 227 276 330
#     4  10  21  37  58  84 114 149 188 231 281 335
#
# _framework density 18.525949000000001
#
# number of rings (size 3 to 8) (size 9 to 14) (size 15 to 20)
#    0.000    1.667    0.000    4.000    0.000   12.000 
#    0.000    0.000    0.000    0.000    0.000    0.000 
#    0.000    0.000    0.000    0.000    0.000    0.000 
#
# Total GULP energy -268371.160311 kJ/mol
# GULP energy per Si atom -5591.065840 kJ/mol
# Density = 1.848378 g / cm^3
# Si number density = 18.525949 Si / 1000 Ang^3
#
#
#
# Elastic Constant Matrix: (Units=GPa)
#
#
# Indices 1 2 3 4 5 6 
#
# 1 104.9387 92.9218 99.0437 0.0000 0.0000 0.0000
# 2 92.9218 104.9377 99.0421 0.0000 0.0000 0.0000
# 3 99.0437 99.0421 208.9501 0.0000 0.0000 0.0000
# 4 0.0000 0.0000 0.0000 43.9977 0.0000 0.0000
# 5 0.0000 0.0000 0.0000 0.0000 43.9977 0.0000
# 6 0.0000 0.0000 0.0000 0.0000 0.0000 31.8236
#
#
#
# Elastic Compliance Matrix: (Units=1/GPa)
#
#
# Indices 1 2 3 4 5 6 
#
# 1 0.046419 -0.036801 -0.004560 0.000000 0.000000 0.000000
# 2 -0.036801 0.046419 -0.004559 0.000000 0.000000 0.000000
# 3 -0.004560 -0.004559 0.009108 0.000000 0.000000 0.000000
# 4 0.000000 0.000000 0.000000 0.022728 0.000000 0.000000
# 5 0.000000 0.000000 0.000000 0.000000 0.022728 0.000000
# 6 0.000000 0.000000 0.000000 0.000000 0.000000 0.031423
#
#
# Mechanical properties :
#
#
# Convention : Reuss Voigt Hill
#
# Bulk Modulus (GPa) = 98.92988 111.20463 105.06726
# Shear Modulus (GPa) = 18.24591 32.48504 25.36548
#
# Velocity S-wave (km/s) = 3.14169 4.19201 3.70427
# Velocity P-wave (km/s) = 8.16559 9.14261 8.66788
#
# Compressibility (1/GPa) = 0.01010817
#
# Stress axis : x y z
#
# Youngs Moduli (GPa) = 21.54271 21.54294 109.79415
#
# Poissons Ratio (x) = 0.79280 0.50062
# Poissons Ratio (y) = 0.79279 0.50052
# Poissons Ratio (z) = 0.09823 0.09821
#
# Static dielectric constant tensor:
#      x y z
#    x 1.619940 0.000000 0.000000 
#    y 0.000000 1.619940 0.000000 
#    z 0.000000 0.000000 1.592510 
# 
# From -- ./inp_files/5905.got.cif
#   From: 2010.05.17/outbox.cif.g08.bks.cpg/sg115_3_cif.got.tgz:5905.got - 2010.05.20 11:07:42.
