data_PCOD9557714
_publ_section_title
;
Structure prediction by ZEFSAII (Michael W. Deem and Ramdas Pophale) SiO2 
 PCOD9557714
Probable space group: P -4 C 2
;
_chemical_formula_sum "Si O2"
_cell_formula_units_Z 38
_cell_length_a 14.297147
_cell_length_b 14.297147
_cell_length_c 8.863369
_cell_angle_alpha 90.000000
_cell_angle_beta 90.000000
_cell_angle_gamma 90.000000
_cell_volume 1811.747185
_symmetry_space_group_name_H-M "P -4 C 2"
_symmetry_group_IT_number 116
_symmetry_cell_setting 'tetragonal'
loop_
_space_group_symop_operation_xyz
x,y,z
y,-x,-z
-x,-y,z
-y,x,-z
y,x,1/2-z
-y,-x,1/2-z
-x,y,1/2+z
x,-y,1/2+z
loop_
_atom_site_type_symbol
_atom_site_label
_atom_site_fract_x
_atom_site_fract_y
_atom_site_fract_z
Si Si1 0.150597 0.289452 0.391448
Si Si2 0.892351 0.107650 0.750000
Si Si3 0.149702 0.430413 0.157470
Si Si4 0.000000 0.000000 0.500000
Si Si5 0.066536 0.370119 0.673917
Si Si6 0.789464 0.306514 0.386869
O O1 0.098983 0.216620 0.284108
O O2 0.196767 0.371884 0.292900
O O3 0.077881 0.329643 0.508629
O O4 0.225607 0.233738 0.492783
O O5 0.924828 0.048310 0.892302
O O6 0.139119 0.541291 0.175941
O O7 0.040398 0.400992 0.181941
O O8 0.194659 0.396260 0.999162
O O9 0.111894 0.301840 0.797780
O O10 0.712941 0.287060 0.250000
#
# Coordination Sequence:
#
# PCOD9557714 Si02
#       6
#     8   4   8   2   8   8
#     4  11  22  38  60  85 119 162 198 251 308 374
#     4  11  24  46  60  84 112 170 217 282 304 352
#     4  11  20  39  60  92 120 158 197 257 322 382
#     4  10  28  46  60  82 112 158 256 270 308 322
#     4  10  23  36  62  89 124 155 201 255 322 380
#     4  10  21  38  53  85 118 157 201 236 298 377
#
# _framework density 20.974229000000001
#
# number of rings (size 3 to 8) (size 9 to 14) (size 15 to 20)
#    0.000    1.474    2.105    2.526    2.947    5.053 
#    7.579    0.000    0.000    0.000    0.000    0.000 
#    0.000  240.000    0.000    0.000    0.000    0.000 
#
# Total GULP energy -211726.279249 kJ/mol
# GULP energy per Si atom -5571.744191 kJ/mol
# Density = 2.092649 g / cm^3
# Si number density = 20.974229 Si / 1000 Ang^3
#
#
#
# Elastic Constant Matrix: (Units=GPa)
#
#
# Indices 1 2 3 4 5 6 
#
# 1 63.8313 30.1281 27.8985 0.0000 0.0000 0.0000
# 2 30.1281 63.8318 27.8992 0.0000 0.0000 0.0000
# 3 27.8985 27.8992 119.1558 0.0000 0.0000 0.0000
# 4 0.0000 0.0000 0.0000 26.6563 0.0000 0.0000
# 5 0.0000 0.0000 0.0000 0.0000 26.6562 0.0000
# 6 0.0000 0.0000 0.0000 0.0000 0.0000 22.9504
#
#
#
# Elastic Compliance Matrix: (Units=1/GPa)
#
#
# Indices 1 2 3 4 5 6 
#
# 1 0.021016 -0.008654 -0.002894 0.000000 0.000000 0.000000
# 2 -0.008654 0.021016 -0.002894 0.000000 0.000000 0.000000
# 3 -0.002894 -0.002894 0.009748 0.000000 0.000000 0.000000
# 4 0.000000 0.000000 0.000000 0.037515 0.000000 0.000000
# 5 0.000000 0.000000 0.000000 0.000000 0.037515 0.000000
# 6 0.000000 0.000000 0.000000 0.000000 0.000000 0.043572
#
#
# Mechanical properties :
#
#
# Convention : Reuss Voigt Hill
#
# Bulk Modulus (GPa) = 43.68010 46.51894 45.09952
# Shear Modulus (GPa) = 24.16640 25.97879 25.07260
#
# Velocity S-wave (km/s) = 3.39808 3.52320 3.46121
# Velocity P-wave (km/s) = 6.02219 6.22719 6.12554
#
# Compressibility (1/GPa) = 0.02289372
#
# Stress axis : x y z
#
# Youngs Moduli (GPa) = 47.58252 47.58265 102.58816
#
# Poissons Ratio (x) = 0.41180 0.29692
# Poissons Ratio (y) = 0.41180 0.29693
# Poissons Ratio (z) = 0.13772 0.13772
#
# Static dielectric constant tensor:
#      x y z
#    x 1.811120 0.000000 0.000000 
#    y 0.000000 1.811110 0.000000 
#    z 0.000000 0.000000 1.819260 
# 
# From -- ./inp_files/730.got.cif
#   From: 2010.05.17/outbox.cif.g08.bks.cpg/sg116_1_cif.got.tgz:730.got - 2010.05.20 11:11:43.
