data_PCOD9557267
_publ_section_title
;
Structure prediction by ZEFSAII (Michael W. Deem and Ramdas Pophale) SiO2 
 PCOD9557267
Probable space group: P -4 M 2
;
_chemical_formula_sum "Si O2"
_cell_formula_units_Z 36
_cell_length_a 9.328418
_cell_length_b 9.328418
_cell_length_c 23.469163
_cell_angle_alpha 90.000000
_cell_angle_beta 90.000000
_cell_angle_gamma 90.000000
_cell_volume 2042.272069
_symmetry_space_group_name_H-M "P -4 M 2"
_symmetry_group_IT_number 115
_symmetry_cell_setting 'tetragonal'
loop_
_space_group_symop_operation_xyz
x,y,z
y,-x,-z
-x,-y,z
-y,x,-z
y,x,-z
-y,-x,-z
-x,y,z
x,-y,z
loop_
_atom_site_type_symbol
_atom_site_label
_atom_site_fract_x
_atom_site_fract_y
_atom_site_fract_z
Si Si1 0.671094 0.830017 0.551098
Si Si2 0.171854 0.832007 0.767840
Si Si3 0.667443 0.671785 0.332263
Si Si4 0.829914 0.170622 0.899117
Si Si5 0.669935 0.330066 0.000000
O O1 0.757546 0.757546 0.500000
O O2 0.500000 0.808035 0.542272
O O3 0.710328 0.754680 0.610713
O O4 0.697480 0.000000 0.553968
O O5 0.251025 0.735274 0.722068
O O6 0.207725 0.795617 0.833458
O O7 0.000000 0.818245 0.762030
O O8 0.207720 0.000000 0.758805
O O9 0.500000 0.707922 0.338979
O O10 0.679015 0.500000 0.325102
O O11 0.000000 0.197569 0.906655
O O12 0.807975 0.000000 0.907377
O O13 0.740609 0.258617 0.944594
O O14 0.500000 0.304418 0.000222
#
# Coordination Sequence:
#
# PCOD9557267 Si02
#       5
#     8   8   8   8   4
#     4  10  21  37  57  80 106 139 179 220 264 315
#     4   9  19  36  57  81 108 138 175 220 266 312
#     4  10  21  36  55  80 110 144 179 216 261 313
#     4   9  19  37  59  80 103 136 179 222 264 314
#     4  11  24  37  50  76 112 143 174 217 266 316
#
# _framework density 17.627424999999999
#
# number of rings (size 3 to 8) (size 9 to 14) (size 15 to 20)
#    0.000    2.333    0.000    3.333    0.000    8.444 
#    0.000    6.667    0.000    0.000    0.000    0.000 
#    0.000    0.000    0.000    0.000    0.000    0.000 
#
# Total GULP energy -201006.224357 kJ/mol
# GULP energy per Si atom -5583.506232 kJ/mol
# Density = 1.758730 g / cm^3
# Si number density = 17.627425 Si / 1000 Ang^3
#
#
#
# Elastic Constant Matrix: (Units=GPa)
#
#
# Indices 1 2 3 4 5 6 
#
# 1 87.0087 79.4575 106.0960 0.0000 0.0000 0.0000
# 2 79.4575 87.0092 106.0961 0.0000 0.0000 0.0000
# 3 106.0960 106.0961 181.3737 0.0000 0.0000 0.0000
# 4 0.0000 0.0000 0.0000 52.0344 0.0000 0.0000
# 5 0.0000 0.0000 0.0000 0.0000 52.0343 0.0000
# 6 0.0000 0.0000 0.0000 0.0000 0.0000 33.4809
#
#
#
# Elastic Compliance Matrix: (Units=1/GPa)
#
#
# Indices 1 2 3 4 5 6 
#
# 1 0.078021 -0.054404 -0.013815 0.000000 0.000000 0.000000
# 2 -0.054404 0.078020 -0.013814 0.000000 0.000000 0.000000
# 3 -0.013815 -0.013814 0.021676 0.000000 0.000000 0.000000
# 4 0.000000 0.000000 0.000000 0.019218 0.000000 0.000000
# 5 0.000000 0.000000 0.000000 0.000000 0.019218 0.000000
# 6 0.000000 0.000000 0.000000 0.000000 0.000000 0.029868
#
#
# Mechanical properties :
#
#
# Convention : Reuss Voigt Hill
#
# Bulk Modulus (GPa) = 73.26073 104.29895 88.77984
# Shear Modulus (GPa) = 12.05877 31.75941 21.90909
#
# Velocity S-wave (km/s) = 2.61835 4.24925 3.52930
# Velocity P-wave (km/s) = 7.12684 9.13082 8.19035
#
# Compressibility (1/GPa) = 0.01364988
#
# Stress axis : x y z
#
# Youngs Moduli (GPa) = 12.81710 12.81730 46.13483
#
# Poissons Ratio (x) = 0.69731 0.63736
# Poissons Ratio (y) = 0.69729 0.63733
# Poissons Ratio (z) = 0.17707 0.17706
#
# Static dielectric constant tensor:
#      x y z
#    x 1.582200 0.000000 0.000000 
#    y 0.000000 1.582190 0.000000 
#    z 0.000000 0.000000 1.572710 
# 
# From -- ./inp_files/5086.got.cif
#   From: 2010.05.17/outbox.cif.g08.bks.cpg/sg115_3_cif.got.tgz:5086.got - 2010.05.20 11:07:42.
