data_PCOD9557526
_publ_section_title
;
Structure prediction by ZEFSAII (Michael W. Deem and Ramdas Pophale) SiO2 
 PCOD9557526
Probable space group: P -4 C 2
;
_chemical_formula_sum "Si O2"
_cell_formula_units_Z 52
_cell_length_a 16.756790
_cell_length_b 16.756790
_cell_length_c 9.860750
_cell_angle_alpha 90.000000
_cell_angle_beta 90.000000
_cell_angle_gamma 90.000000
_cell_volume 2768.800102
_symmetry_space_group_name_H-M "P -4 C 2"
_symmetry_group_IT_number 116
_symmetry_cell_setting 'tetragonal'
loop_
_space_group_symop_operation_xyz
x,y,z
y,-x,-z
-x,-y,z
-y,x,-z
y,x,1/2-z
-y,-x,1/2-z
-x,y,1/2+z
x,-y,1/2+z
loop_
_atom_site_type_symbol
_atom_site_label
_atom_site_fract_x
_atom_site_fract_y
_atom_site_fract_z
Si Si1 0.581209 0.702670 0.197646
Si Si2 0.658308 0.045341 0.841579
Si Si3 0.617150 0.864900 0.590116
Si Si4 0.171355 0.276483 0.340129
Si Si5 0.140835 0.669033 0.121288
Si Si6 0.000000 0.500000 0.283654
Si Si7 0.236130 0.513754 0.056533
O O1 0.623670 0.623670 0.250000
O O2 0.648159 0.772608 0.199668
O O3 0.512187 0.730308 0.299267
O O4 0.551500 0.698871 0.043939
O O5 0.702068 0.083140 0.712608
O O6 0.563837 0.047823 0.806228
O O7 0.677870 0.954284 0.872496
O O8 0.672300 0.098460 0.973606
O O9 0.666320 0.834902 0.720590
O O10 0.563290 0.798112 0.520182
O O11 0.555540 0.936297 0.636575
O O12 0.204460 0.204460 0.250000
O O13 0.173693 0.272961 0.503747
O O14 0.167127 0.580356 0.072110
#
# Coordination Sequence:
#
# PCOD9557526 Si02
#       7
#     8   8   8   8   8   4   8
#     4  10  21  36  56  74 103 139 180 218 275 340
#     4  11  19  29  48  77 109 141 176 216 261 310
#     4  11  17  26  44  72 103 134 168 215 250 300
#     4  10  21  37  51  71 113 156 179 205 269 341
#     4  10  20  30  49  79 105 136 176 220 257 318
#     4  10  18  26  42  78 112 140 172 214 270 308
#     4  11  18  34  51  76 101 135 175 221 269 313
#
# _framework density 18.780698000000001
#
# number of rings (size 3 to 8) (size 9 to 14) (size 15 to 20)
#    0.000    1.538    3.077    6.923    0.000    0.000 
#    0.000    1.538    0.000    1.385    0.000    0.000 
#    0.000    1.846    0.000    0.000    0.000    0.000 
#
# Total GULP energy -290037.731794 kJ/mol
# GULP energy per Si atom -5577.648688 kJ/mol
# Density = 1.873795 g / cm^3
# Si number density = 18.780698 Si / 1000 Ang^3
#
#
#
# Elastic Constant Matrix: (Units=GPa)
#
#
# Indices 1 2 3 4 5 6 
#
# 1 14.6732 5.7528 -5.5221 0.0000 0.0000 0.0000
# 2 5.7528 14.6732 -5.5221 0.0000 0.0000 0.0000
# 3 -5.5221 -5.5221 84.6434 0.0000 0.0000 0.0000
# 4 0.0000 0.0000 0.0000 13.3884 0.0000 0.0000
# 5 0.0000 0.0000 0.0000 0.0000 13.3884 0.0000
# 6 0.0000 0.0000 0.0000 0.0000 0.0000 10.8930
#
#
#
# Elastic Compliance Matrix: (Units=1/GPa)
#
#
# Indices 1 2 3 4 5 6 
#
# 1 0.081425 -0.030678 0.003311 0.000000 0.000000 0.000000
# 2 -0.030678 0.081425 0.003311 0.000000 0.000000 0.000000
# 3 0.003311 0.003311 0.012246 0.000000 0.000000 0.000000
# 4 0.000000 0.000000 0.000000 0.074691 0.000000 0.000000
# 5 0.000000 0.000000 0.000000 0.000000 0.074691 0.000000
# 6 0.000000 0.000000 0.000000 0.000000 0.000000 0.091802
#
#
# Mechanical properties :
#
#
# Convention : Reuss Voigt Hill
#
# Bulk Modulus (GPa) = 7.87506 11.48970 9.68238
# Shear Modulus (GPa) = 9.86736 15.48605 12.67670
#
# Velocity S-wave (km/s) = 2.29465 2.87465 2.60087
# Velocity P-wave (km/s) = 3.35004 4.14117 3.76644
#
# Compressibility (1/GPa) = 0.12698317
#
# Stress axis : x y z
#
# Youngs Moduli (GPa) = 12.28128 12.28128 81.65772
#
# Poissons Ratio (x) = 0.37676 -0.27034
# Poissons Ratio (y) = 0.37676 -0.27034
# Poissons Ratio (z) = -0.04066 -0.04066
#
# Static dielectric constant tensor:
#      x y z
#    x 1.653390 0.000000 0.000000 
#    y 0.000000 1.653390 0.000000 
#    z 0.000000 0.000000 1.720060 
# 
# From -- ./inp_files/1014.got.cif
#   From: 2010.05.17/outbox.cif.g08.bks.cpg/sg116_1_cif.got.tgz:1014.got - 2010.05.20 11:11:43.
