data_PCOD9557186
_publ_section_title
;
Structure prediction by ZEFSAII (Michael W. Deem and Ramdas Pophale) SiO2 
 PCOD9557186
Probable space group: P -4 M 2
;
_chemical_formula_sum "Si O2"
_cell_formula_units_Z 48
_cell_length_a 9.242967
_cell_length_b 9.242967
_cell_length_c 32.364002
_cell_angle_alpha 90.000000
_cell_angle_beta 90.000000
_cell_angle_gamma 90.000000
_cell_volume 2764.935625
_symmetry_space_group_name_H-M "P -4 M 2"
_symmetry_group_IT_number 115
_symmetry_cell_setting 'tetragonal'
loop_
_space_group_symop_operation_xyz
x,y,z
y,-x,-z
-x,-y,z
-y,x,-z
y,x,-z
-y,-x,-z
-x,y,z
x,-y,z
loop_
_atom_site_type_symbol
_atom_site_label
_atom_site_fract_x
_atom_site_fract_y
_atom_site_fract_z
Si Si1 0.330522 0.673499 0.621619
Si Si2 0.829581 0.673251 0.706076
Si Si3 0.174394 0.328891 0.037629
Si Si4 0.170067 0.826185 0.546917
Si Si5 0.675750 0.169149 0.872165
Si Si6 0.328473 0.825327 0.781578
O O1 0.500000 0.707235 0.625346
O O2 0.314900 0.500000 0.617405
O O3 0.247973 0.717464 0.663460
O O4 0.262172 0.749429 0.581922
O O5 0.810118 0.500000 0.710619
O O6 0.758789 0.752680 0.744881
O O7 0.000000 0.703473 0.703566
O O8 0.206068 0.500000 0.033708
O O9 0.228684 0.278515 0.083191
O O10 0.000000 0.313635 0.037073
O O11 0.243996 0.243996 0.000000
O O12 0.213510 0.786491 0.500000
O O13 0.000000 0.790307 0.552086
O O14 0.183090 0.000000 0.550173
O O15 0.500000 0.172493 0.872327
O O16 0.719922 0.228078 0.827374
O O17 0.717466 0.000000 0.872092
O O18 0.500000 0.794542 0.777073
O O19 0.312830 0.000000 0.780507
#
# Coordination Sequence:
#
# PCOD9557186 Si02
#       6
#     8   8   8   8   8   8
#     4  10  21  36  54  76 101 131 169 209 245 285
#     4  10  21  36  52  71  99 135 168 198 241 295
#     4   9  17  30  48  69  94 125 160 198 240 286
#     4   9  19  36  56  78 105 136 168 202 243 291
#     4   7  12  26  47  68  91 121 157 196 238 285
#     4   9  17  31  53  77  96 119 158 205 247 289
#
# _framework density 17.360258999999999
#
# number of rings (size 3 to 8) (size 9 to 14) (size 15 to 20)
#    0.000    3.000    0.000    3.500    0.000    4.333 
#    0.000    4.167    0.000    8.000    0.000    0.000 
#    0.000    0.000    0.000    0.000    0.000    0.000 
#
# Total GULP energy -267394.856962 kJ/mol
# GULP energy per Si atom -5570.726187 kJ/mol
# Density = 1.732075 g / cm^3
# Si number density = 17.360259 Si / 1000 Ang^3
#
#
#
# Elastic Constant Matrix: (Units=GPa)
#
#
# Indices 1 2 3 4 5 6 
#
# 1 42.0053 39.3611 71.7175 0.0000 0.0000 0.0000
# 2 39.3611 42.0054 71.7176 0.0000 0.0000 0.0000
# 3 71.7175 71.7176 216.3025 0.0000 0.0000 0.0000
# 4 0.0000 0.0000 0.0000 34.2299 0.0000 0.0000
# 5 0.0000 0.0000 0.0000 0.0000 34.2298 0.0000
# 6 0.0000 0.0000 0.0000 0.0000 0.0000 26.7870
#
#
#
# Elastic Compliance Matrix: (Units=1/GPa)
#
#
# Indices 1 2 3 4 5 6 
#
# 1 0.203881 -0.174302 -0.009807 0.000000 0.000000 0.000000
# 2 -0.174302 0.203880 -0.009807 0.000000 0.000000 0.000000
# 3 -0.009807 -0.009807 0.011126 0.000000 0.000000 0.000000
# 4 0.000000 0.000000 0.000000 0.029214 0.000000 0.000000
# 5 0.000000 0.000000 0.000000 0.000000 0.029214 0.000000
# 6 0.000000 0.000000 0.000000 0.000000 0.000000 0.037332
#
#
# Mechanical properties :
#
#
# Convention : Reuss Voigt Hill
#
# Bulk Modulus (GPa) = 32.20130 73.98953 53.09541
# Shear Modulus (GPa) = 5.47746 26.88381 16.18063
#
# Velocity S-wave (km/s) = 1.77821 3.93947 3.05626
# Velocity P-wave (km/s) = 4.77547 7.96274 6.56545
#
# Compressibility (1/GPa) = 0.03105465
#
# Stress axis : x y z
#
# Youngs Moduli (GPa) = 4.90483 4.90484 89.87675
#
# Poissons Ratio (x) = 0.85493 0.88141
# Poissons Ratio (y) = 0.85492 0.88141
# Poissons Ratio (z) = 0.04810 0.04810
#
# Static dielectric constant tensor:
#      x y z
#    x 1.576070 0.000000 0.000000 
#    y 0.000000 1.576070 0.000000 
#    z 0.000000 0.000000 1.603240 
# 
# From -- ./inp_files/5951.got.cif
#   From: 2010.05.17/outbox.cif.g08.bks.cpg/sg115_3_cif.got.tgz:5951.got - 2010.05.20 11:07:42.
