data_PCOD9557880
_publ_section_title
;
Structure prediction by ZEFSAII (Michael W. Deem and Ramdas Pophale) SiO2 
 PCOD9557880
Probable space group: P -4 C 2
;
_chemical_formula_sum "Si O2"
_cell_formula_units_Z 34
_cell_length_a 11.175722
_cell_length_b 11.175722
_cell_length_c 11.288519
_cell_angle_alpha 90.000000
_cell_angle_beta 90.000000
_cell_angle_gamma 90.000000
_cell_volume 1409.899473
_symmetry_space_group_name_H-M "P -4 C 2"
_symmetry_group_IT_number 116
_symmetry_cell_setting 'tetragonal'
loop_
_space_group_symop_operation_xyz
x,y,z
y,-x,-z
-x,-y,z
-y,x,-z
y,x,1/2-z
-y,-x,1/2-z
-x,y,1/2+z
x,-y,1/2+z
loop_
_atom_site_type_symbol
_atom_site_label
_atom_site_fract_x
_atom_site_fract_y
_atom_site_fract_z
Si Si1 0.048732 0.197526 0.331009
Si Si2 0.704086 0.546231 0.840155
Si Si3 0.313701 0.738581 0.529332
Si Si4 0.000000 0.000000 0.500000
Si Si5 0.400021 0.087360 0.822255
O O1 0.089017 0.089017 0.250000
O O2 0.175507 0.245354 0.380786
O O3 0.976853 0.127017 0.433219
O O4 0.976609 0.295857 0.255005
O O5 0.609079 0.609079 0.750000
O O6 0.740252 0.634292 0.948308
O O7 0.823299 0.530571 0.764773
O O8 0.672913 0.420818 0.899550
O O9 0.353243 0.833855 0.429649
O O10 0.500000 0.000000 0.871110
#
# Coordination Sequence:
#
# PCOD9557880 Si02
#       5
#     8   8   8   2   8
#     4  12  26  43  72 106 144 191 245 300 368 450
#     4  10  24  46  68 103 141 185 243 303 366 453
#     4  11  25  43  72 102 143 188 244 300 382 431
#     4  12  26  48  72 106 160 200 238 300 388 442
#     4  11  24  44  72 104 143 188 244 303 363 446
#
# _framework density 24.115195
#
# number of rings (size 3 to 8) (size 9 to 14) (size 15 to 20)
#    0.000    0.941    2.353    3.176    6.588    4.235 
#    0.000    3.529    0.000    0.000    0.000    0.000 
#    0.000    0.000    0.000    0.000    0.000    0.000 
#
# Total GULP energy -190019.049034 kJ/mol
# GULP energy per Si atom -5588.795560 kJ/mol
# Density = 2.406031 g / cm^3
# Si number density = 24.115195 Si / 1000 Ang^3
#
#
#
# Elastic Constant Matrix: (Units=GPa)
#
#
# Indices 1 2 3 4 5 6 
#
# 1 45.9791 -0.6256 9.4398 0.0000 0.0000 0.0000
# 2 -0.6256 45.9791 9.4398 0.0000 0.0000 0.0000
# 3 9.4398 9.4398 74.0745 0.0000 0.0000 0.0000
# 4 0.0000 0.0000 0.0000 -3.2442 0.0000 0.0000
# 5 0.0000 0.0000 0.0000 0.0000 -3.2442 0.0000
# 6 0.0000 0.0000 0.0000 0.0000 0.0000 35.0591
#
#
#
# Elastic Compliance Matrix: (Units=1/GPa)
#
#
# Indices 1 2 3 4 5 6 
#
# 1 0.022371 0.000914 -0.002967 0.000000 0.000000 0.000000
# 2 0.000914 0.022371 -0.002967 0.000000 0.000000 0.000000
# 3 -0.002967 -0.002967 0.014256 0.000000 0.000000 0.000000
# 4 0.000000 0.000000 0.000000 -0.308240 0.000000 0.000000
# 5 0.000000 0.000000 0.000000 0.000000 -0.308240 0.000000
# 6 0.000000 0.000000 0.000000 0.000000 0.000000 0.028523
#
#
# Mechanical properties :
#
#
# Convention : Reuss Voigt Hill
#
# Bulk Modulus (GPa) = 20.42667 22.50452 21.46560
# Shear Modulus (GPa) = -9.94828 15.56604 2.80888
#
# Velocity S-wave (km/s) = -2.03329 2.54340 1.08042
# Velocity P-wave (km/s) = 1.72525 4.23999 3.23682
#
# Compressibility (1/GPa) = 0.04895560
#
# Stress axis : x y z
#
# Youngs Moduli (GPa) = 44.70142 44.70142 70.14494
#
# Poissons Ratio (x) = -0.04084 0.20814
# Poissons Ratio (y) = -0.04084 0.20814
# Poissons Ratio (z) = 0.13264 0.13264
#
# Static dielectric constant tensor:
#      x y z
#    x 1.928240 0.000000 0.000000 
#    y 0.000000 1.928240 0.000000 
#    z 0.000000 0.000000 2.208300 
# 
# From -- ./inp_files/1608.got.cif
#   From: 2010.05.17/outbox.cif.g08.bks.cpg/sg116_1_cif.got.tgz:1608.got - 2010.05.20 11:11:43.
