data_PCOD9557068
_publ_section_title
;
Structure prediction by ZEFSAII (Michael W. Deem and Ramdas Pophale) SiO2 
 PCOD9557068
Probable space group: P -4 M 2
;
_chemical_formula_sum "Si O2"
_cell_formula_units_Z 40
_cell_length_a 8.045857
_cell_length_b 8.045857
_cell_length_c 30.237491
_cell_angle_alpha 90.000000
_cell_angle_beta 90.000000
_cell_angle_gamma 90.000000
_cell_volume 1957.448619
_symmetry_space_group_name_H-M "P -4 M 2"
_symmetry_group_IT_number 115
_symmetry_cell_setting 'tetragonal'
loop_
_space_group_symop_operation_xyz
x,y,z
y,-x,-z
-x,-y,z
-y,x,-z
y,x,-z
-y,-x,-z
-x,y,z
x,-y,z
loop_
_atom_site_type_symbol
_atom_site_label
_atom_site_fract_x
_atom_site_fract_y
_atom_site_fract_z
Si Si1 0.688764 0.194642 0.355524
Si Si2 0.000000 0.704797 0.197018
Si Si3 0.000000 0.695931 0.297338
Si Si4 0.192816 0.798892 0.048502
Si Si5 0.308560 0.297876 0.547449
Si Si6 0.699264 0.319467 0.857545
O O1 0.500000 0.266685 0.350113
O O2 0.741206 0.220713 0.406697
O O3 0.833097 0.260091 0.324017
O O4 0.676473 0.000000 0.347397
O O5 0.164015 0.761674 0.170854
O O6 0.000000 0.500000 0.196392
O O7 0.000000 0.764812 0.247490
O O8 0.000000 0.500000 0.292505
O O9 0.290906 0.738678 0.090979
O O10 0.000000 0.745545 0.053614
O O11 0.194332 0.000000 0.047734
O O12 0.254919 0.745082 0.000000
O O13 0.239173 0.239173 0.500000
O O14 0.500000 0.243161 0.551781
O O15 0.308199 0.500000 0.543944
O O16 0.500000 0.320722 0.852752
O O17 0.763884 0.500000 0.843369
#
# Coordination Sequence:
#
# PCOD9557068 Si02
#       6
#     8   4   4   8   8   8
#     4  10  21  38  58  83 120 157 188 236 302 363
#     4   9  20  39  59  81 111 145 187 245 305 340
#     4  11  23  39  63  89 109 147 205 255 297 354
#     4   9  18  33  53  78 111 152 192 229 274 330
#     4   8  14  28  52  80 111 150 194 235 278 333
#     4  10  20  35  57  83 111 145 186 234 290 351
#
# _framework density 20.434764000000001
#
# number of rings (size 3 to 8) (size 9 to 14) (size 15 to 20)
#    0.000    2.600    1.000    2.100    0.000    3.200 
#    1.800    7.000    0.000    0.000    0.000    0.000 
#    0.000    0.000    0.000    0.000    0.000    0.000 
#
# Total GULP energy -223088.805454 kJ/mol
# GULP energy per Si atom -5577.220136 kJ/mol
# Density = 2.038825 g / cm^3
# Si number density = 20.434764 Si / 1000 Ang^3
#
#
#
# Elastic Constant Matrix: (Units=GPa)
#
#
# Indices 1 2 3 4 5 6 
#
# 1 68.0336 27.2043 52.9890 0.0000 0.0000 0.0000
# 2 27.2043 68.0337 52.9891 0.0000 0.0000 0.0000
# 3 52.9890 52.9891 163.3074 0.0000 0.0000 0.0000
# 4 0.0000 0.0000 0.0000 12.8707 0.0000 0.0000
# 5 0.0000 0.0000 0.0000 0.0000 12.8706 0.0000
# 6 0.0000 0.0000 0.0000 0.0000 0.0000 14.9285
#
#
#
# Elastic Compliance Matrix: (Units=1/GPa)
#
#
# Indices 1 2 3 4 5 6 
#
# 1 0.020463 -0.004029 -0.005332 0.000000 0.000000 0.000000
# 2 -0.004029 0.020463 -0.005332 0.000000 0.000000 0.000000
# 3 -0.005332 -0.005332 0.009584 0.000000 0.000000 0.000000
# 4 0.000000 0.000000 0.000000 0.077696 0.000000 0.000000
# 5 0.000000 0.000000 0.000000 0.000000 0.077697 0.000000
# 6 0.000000 0.000000 0.000000 0.000000 0.000000 0.066986
#
#
# Mechanical properties :
#
#
# Convention : Reuss Voigt Hill
#
# Bulk Modulus (GPa) = 47.34422 62.85994 55.10208
# Shear Modulus (GPa) = 16.16467 19.21344 17.68906
#
# Velocity S-wave (km/s) = 2.81559 3.06965 2.94536
# Velocity P-wave (km/s) = 5.81282 6.58724 6.21211
#
# Compressibility (1/GPa) = 0.02112190
#
# Stress axis : x y z
#
# Youngs Moduli (GPa) = 48.86891 48.86898 104.34275
#
# Poissons Ratio (x) = 0.19691 0.55639
# Poissons Ratio (y) = 0.19691 0.55639
# Poissons Ratio (z) = 0.26058 0.26058
#
# Static dielectric constant tensor:
#      x y z
#    x 1.756280 0.000000 0.000000 
#    y 0.000000 1.756280 0.000000 
#    z 0.000000 0.000000 1.720340 
# 
# From -- ./inp_files/5541.got.cif
#   From: 2010.05.17/outbox.cif.g08.bks.cpg/sg115_3_cif.got.tgz:5541.got - 2010.05.20 11:07:42.
