data_PCOD9557815
_publ_section_title
;
Structure prediction by ZEFSAII (Michael W. Deem and Ramdas Pophale) SiO2 
 PCOD9557815
Probable space group: P -4 C 2
;
_chemical_formula_sum "Si O2"
_cell_formula_units_Z 44
_cell_length_a 8.236805
_cell_length_b 8.236805
_cell_length_c 26.183890
_cell_angle_alpha 90.000000
_cell_angle_beta 90.000000
_cell_angle_gamma 90.000000
_cell_volume 1776.444881
_symmetry_space_group_name_H-M "P -4 C 2"
_symmetry_group_IT_number 116
_symmetry_cell_setting 'tetragonal'
loop_
_space_group_symop_operation_xyz
x,y,z
y,-x,-z
-x,-y,z
-y,x,-z
y,x,1/2-z
-y,-x,1/2-z
-x,y,1/2+z
x,-y,1/2+z
loop_
_atom_site_type_symbol
_atom_site_label
_atom_site_fract_x
_atom_site_fract_y
_atom_site_fract_z
Si Si1 0.727756 0.825467 0.155035
Si Si2 0.448942 0.657038 0.357855
Si Si3 0.000000 0.500000 0.764577
Si Si4 0.680760 0.319241 0.250000
Si Si5 0.681650 0.981173 0.877990
Si Si6 0.000000 0.500000 0.927787
Si Si7 0.925640 0.259531 0.508060
O O1 0.716467 0.630597 0.154587
O O2 0.636810 0.902714 0.202955
O O3 0.924452 0.828835 0.149479
O O4 0.627393 0.905221 0.108310
O O5 0.500000 0.500000 0.390806
O O6 0.367523 0.603908 0.304165
O O7 0.319591 0.785053 0.380368
O O8 0.136839 0.383346 0.740023
O O9 0.678910 0.061396 0.934128
O O10 0.500000 0.000000 0.855788
O O11 0.111267 0.397628 0.966930
O O12 0.106034 0.191943 0.495631
#
# Coordination Sequence:
#
# PCOD9557815 Si02
#       7
#     8   8   4   4   8   4   8
#     4  10  23  44  70 103 143 190 245 297 374 443
#     4  11  24  45  74 101 138 195 238 306 368 456
#     4  11  26  46  77 112 142 196 233 312 376 459
#     4  12  27  50  79 108 146 187 247 304 384 458
#     4  10  22  42  68 101 141 186 244 299 362 429
#     4  11  22  42  69  98 144 188 247 306 364 443
#     4  11  23  39  64  98 138 190 235 294 361 434
#
# _framework density 24.768568999999999
#
# number of rings (size 3 to 8) (size 9 to 14) (size 15 to 20)
#    0.000    1.273    4.545    0.273    6.364    0.000 
#    0.000    0.909    0.000    0.000    0.000    0.000 
#    0.000    0.000    0.000    0.000    0.000    0.000 
#
# Total GULP energy -245072.752809 kJ/mol
# GULP energy per Si atom -5569.835291 kJ/mol
# Density = 2.471219 g / cm^3
# Si number density = 24.768569 Si / 1000 Ang^3
#
#
#
# Elastic Constant Matrix: (Units=GPa)
#
#
# Indices 1 2 3 4 5 6 
#
# 1 137.9324 55.3602 29.1945 0.0000 0.0000 0.0000
# 2 55.3602 137.9320 29.1943 0.0000 0.0000 0.0000
# 3 29.1945 29.1943 53.5167 0.0000 0.0000 0.0000
# 4 0.0000 0.0000 0.0000 26.5645 0.0000 0.0000
# 5 0.0000 0.0000 0.0000 0.0000 26.5645 0.0000
# 6 0.0000 0.0000 0.0000 0.0000 0.0000 60.5207
#
#
#
# Elastic Compliance Matrix: (Units=1/GPa)
#
#
# Indices 1 2 3 4 5 6 
#
# 1 0.009152 -0.002958 -0.003379 0.000000 0.000000 0.000000
# 2 -0.002958 0.009152 -0.003379 0.000000 0.000000 0.000000
# 3 -0.003379 -0.003379 0.022372 0.000000 0.000000 0.000000
# 4 0.000000 0.000000 0.000000 0.037644 0.000000 0.000000
# 5 0.000000 0.000000 0.000000 0.000000 0.037644 0.000000
# 6 0.000000 0.000000 0.000000 0.000000 0.000000 0.016523
#
#
# Mechanical properties :
#
#
# Convention : Reuss Voigt Hill
#
# Bulk Modulus (GPa) = 47.07072 61.87547 54.47309
# Shear Modulus (GPa) = 31.44588 37.10541 34.27565
#
# Velocity S-wave (km/s) = 3.56699 3.87471 3.72403
# Velocity P-wave (km/s) = 6.00084 6.71219 6.36646
#
# Compressibility (1/GPa) = 0.02124463
#
# Stress axis : x y z
#
# Youngs Moduli (GPa) = 109.26054 109.26034 44.69778
#
# Poissons Ratio (x) = 0.32321 0.15104
# Poissons Ratio (y) = 0.32321 0.15104
# Poissons Ratio (z) = 0.36920 0.36920
#
# Static dielectric constant tensor:
#      x y z
#    x 2.189890 0.000000 0.000000 
#    y 0.000000 2.189890 0.000000 
#    z 0.000000 0.000000 2.006290 
# 
# From -- ./inp_files/5187.got.cif
#   From: 2010.05.17/outbox.cif.g08.bks.cpg/sg116_3_cif.got.tgz:5187.got - 2010.05.20 11:11:43.
