data_PCOD9557806
_publ_section_title
;
Structure prediction by ZEFSAII (Michael W. Deem and Ramdas Pophale) SiO2 
 PCOD9557806
Probable space group: P -4 C 2
;
_chemical_formula_sum "Si O2"
_cell_formula_units_Z 38
_cell_length_a 7.881633
_cell_length_b 7.881633
_cell_length_c 28.010060
_cell_angle_alpha 90.000000
_cell_angle_beta 90.000000
_cell_angle_gamma 90.000000
_cell_volume 1739.988814
_symmetry_space_group_name_H-M "P -4 C 2"
_symmetry_group_IT_number 116
_symmetry_cell_setting 'tetragonal'
loop_
_space_group_symop_operation_xyz
x,y,z
y,-x,-z
-x,-y,z
-y,x,-z
y,x,1/2-z
-y,-x,1/2-z
-x,y,1/2+z
x,-y,1/2+z
loop_
_atom_site_type_symbol
_atom_site_label
_atom_site_fract_x
_atom_site_fract_y
_atom_site_fract_z
Si Si1 0.000000 0.000000 0.000000
Si Si2 0.005975 0.701095 0.572031
Si Si3 0.798941 0.798941 0.750000
Si Si4 0.329991 0.709795 0.353150
Si Si5 0.273443 0.667353 0.870595
Si Si6 0.663499 0.119962 0.727152
O O1 0.164142 0.044065 0.967979
O O2 0.876518 0.719251 0.616911
O O3 0.000000 0.500000 0.558632
O O4 0.198192 0.748224 0.587483
O O5 0.710900 0.734731 0.701403
O O6 0.996187 0.774732 0.740586
O O7 0.534342 0.702968 0.352672
O O8 0.267376 0.535632 0.378400
O O9 0.142034 0.703805 0.828218
O O10 0.694240 0.305761 0.750000
O O11 0.500000 0.000000 0.730287
#
# Coordination Sequence:
#
# PCOD9557806 Si02
#       6
#     2   8   4   8   8   8
#     4  12  28  44  84  98 132 180 224 296 384 458
#     4  10  25  48  69 107 141 173 230 301 362 437
#     4  12  23  37  62  98 137 188 241 278 325 404
#     4  10  22  42  67  98 140 186 236 282 340 418
#     4  10  22  41  68  92 138 189 224 291 346 407
#     4  12  24  38  57  90 130 186 237 288 334 395
#
# _framework density 21.839223
#
# number of rings (size 3 to 8) (size 9 to 14) (size 15 to 20)
#    0.000    1.263    2.105    2.842    2.947    4.211 
#    0.000    0.000    0.000    0.000    0.000    0.000 
#    0.000    0.000    0.000    0.000    0.000    0.000 
#
# Total GULP energy -211709.637469 kJ/mol
# GULP energy per Si atom -5571.306249 kJ/mol
# Density = 2.178952 g / cm^3
# Si number density = 21.839223 Si / 1000 Ang^3
#
#
#
# Elastic Constant Matrix: (Units=GPa)
#
#
# Indices 1 2 3 4 5 6 
#
# 1 85.1405 20.0653 34.0943 0.0000 0.0000 0.0000
# 2 20.0653 85.1402 34.0944 0.0000 0.0000 0.0000
# 3 34.0943 34.0944 69.5158 0.0000 0.0000 0.0000
# 4 0.0000 0.0000 0.0000 25.8065 0.0000 0.0000
# 5 0.0000 0.0000 0.0000 0.0000 25.8065 0.0000
# 6 0.0000 0.0000 0.0000 0.0000 0.0000 29.8154
#
#
#
# Elastic Compliance Matrix: (Units=1/GPa)
#
#
# Indices 1 2 3 4 5 6 
#
# 1 0.014651 -0.000716 -0.006834 0.000000 0.000000 0.000000
# 2 -0.000716 0.014651 -0.006834 0.000000 0.000000 0.000000
# 3 -0.006834 -0.006834 0.021089 0.000000 0.000000 0.000000
# 4 0.000000 0.000000 0.000000 0.038750 0.000000 0.000000
# 5 0.000000 0.000000 0.000000 0.000000 0.038750 0.000000
# 6 0.000000 0.000000 0.000000 0.000000 0.000000 0.033540
#
#
# Mechanical properties :
#
#
# Convention : Reuss Voigt Hill
#
# Bulk Modulus (GPa) = 46.25082 46.25607 46.25344
# Shear Modulus (GPa) = 25.32834 26.38851 25.85843
#
# Velocity S-wave (km/s) = 3.40922 3.47984 3.44472
# Velocity P-wave (km/s) = 6.05978 6.11326 6.08658
#
# Compressibility (1/GPa) = 0.02162124
#
# Stress axis : x y z
#
# Youngs Moduli (GPa) = 68.25542 68.25501 47.41770
#
# Poissons Ratio (x) = 0.04887 0.32407
# Poissons Ratio (y) = 0.04887 0.32407
# Poissons Ratio (z) = 0.46649 0.46649
#
# Static dielectric constant tensor:
#      x y z
#    x 3.606830 0.000000 0.000000 
#    y 0.000000 3.606820 0.000000 
#    z 0.000000 0.000000 1.729780 
# 
# From -- ./inp_files/4480.got.cif
#   From: 2010.05.17/outbox.cif.g08.bks.cpg/sg116_3_cif.got.tgz:4480.got - 2010.05.20 11:11:43.
