data_PCOD9557850
_publ_section_title
;
Structure prediction by ZEFSAII (Michael W. Deem and Ramdas Pophale) SiO2 
 PCOD9557850
Probable space group: P -4 C 2
;
_chemical_formula_sum "Si O2"
_cell_formula_units_Z 40
_cell_length_a 9.107726
_cell_length_b 9.107726
_cell_length_c 21.887067
_cell_angle_alpha 90.000000
_cell_angle_beta 90.000000
_cell_angle_gamma 90.000000
_cell_volume 1815.546935
_symmetry_space_group_name_H-M "P -4 C 2"
_symmetry_group_IT_number 116
_symmetry_cell_setting 'tetragonal'
loop_
_space_group_symop_operation_xyz
x,y,z
y,-x,-z
-x,-y,z
-y,x,-z
y,x,1/2-z
-y,-x,1/2-z
-x,y,1/2+z
x,-y,1/2+z
loop_
_atom_site_type_symbol
_atom_site_label
_atom_site_fract_x
_atom_site_fract_y
_atom_site_fract_z
Si Si1 0.258255 0.455039 0.996895
Si Si2 0.850098 0.067579 0.679980
Si Si3 0.646468 0.681973 0.177960
Si Si4 0.457831 0.156338 0.876046
Si Si5 0.658492 0.186001 0.133022
O O1 0.157732 0.485516 0.054741
O O2 0.342013 0.610244 0.985317
O O3 0.173857 0.394015 0.937660
O O4 0.891407 0.108594 0.750000
O O5 0.777543 0.213536 0.652902
O O6 0.717013 0.952788 0.670707
O O7 0.000000 0.000000 0.653084
O O8 0.665500 0.665500 0.250000
O O9 0.693884 0.527859 0.150569
O O10 0.486872 0.745198 0.163723
O O11 0.288463 0.196883 0.869928
O O12 0.500000 0.000000 0.846854
#
# Coordination Sequence:
#
# PCOD9557850 Si02
#       5
#     8   8   8   8   8
#     4   9  18  38  65  91 126 169 228 292 349 415
#     4  10  23  42  63  90 133 179 223 278 353 429
#     4  11  24  40  63  97 130 172 231 281 339 427
#     4  11  23  39  63  97 134 168 225 292 352 411
#     4  11  22  41  67  92 127 183 228 285 352 421
#
# _framework density 22.031925999999999
#
# number of rings (size 3 to 8) (size 9 to 14) (size 15 to 20)
#    0.000    1.600    2.000    2.400    0.000    9.600 
#    0.000    0.000    0.000    0.000    0.000    0.000 
#    0.000    0.000    0.000    0.000    0.000    0.000 
#
# Total GULP energy -223025.963757 kJ/mol
# GULP energy per Si atom -5575.649094 kJ/mol
# Density = 2.198178 g / cm^3
# Si number density = 22.031926 Si / 1000 Ang^3
#
#
#
# Elastic Constant Matrix: (Units=GPa)
#
#
# Indices 1 2 3 4 5 6 
#
# 1 79.4933 33.5114 16.3398 0.0000 0.0000 0.0000
# 2 33.5114 79.4928 16.3397 0.0000 0.0000 0.0000
# 3 16.3398 16.3397 54.8839 0.0000 0.0000 0.0000
# 4 0.0000 0.0000 0.0000 -20.8229 0.0000 0.0000
# 5 0.0000 0.0000 0.0000 0.0000 -20.8143 0.0000
# 6 0.0000 0.0000 0.0000 0.0000 0.0000 40.4122
#
#
#
# Elastic Compliance Matrix: (Units=1/GPa)
#
#
# Indices 1 2 3 4 5 6 
#
# 1 0.015715 -0.006032 -0.002883 0.000000 0.000000 0.000000
# 2 -0.006032 0.015715 -0.002883 0.000000 0.000000 0.000000
# 3 -0.002883 -0.002883 0.019937 0.000000 0.000000 0.000000
# 4 0.000000 0.000000 0.000000 -0.048024 0.000000 0.000000
# 5 0.000000 0.000000 0.000000 0.000000 -0.048044 0.000000
# 6 0.000000 0.000000 0.000000 0.000000 0.000000 0.024745
#
#
# Mechanical properties :
#
#
# Convention : Reuss Voigt Hill
#
# Bulk Modulus (GPa) = 36.00807 38.47241 37.24024
# Shear Modulus (GPa) = 387.66976 9.60027 198.63501
#
# Velocity S-wave (km/s) = 13.27931 2.08971 9.50545
# Velocity P-wave (km/s) = 15.85873 4.82934 11.72224
#
# Compressibility (1/GPa) = 0.02777155
#
# Stress axis : x y z
#
# Youngs Moduli (GPa) = 63.63232 63.63198 50.15861
#
# Poissons Ratio (x) = 0.38386 0.14459
# Poissons Ratio (y) = 0.38386 0.14459
# Poissons Ratio (z) = 0.18344 0.18343
#
# Static dielectric constant tensor:
#      x y z
#    x 1.864590 0.000000 0.000000 
#    y 0.000000 1.864590 0.000000 
#    z 0.000000 0.000000 1.812560 
# 
# From -- ./inp_files/4400.got.cif
#   From: 2010.05.17/outbox.cif.g08.bks.cpg/sg116_3_cif.got.tgz:4400.got - 2010.05.20 11:11:43.
