data_PCOD9557104
_publ_section_title
;
Structure prediction by ZEFSAII (Michael W. Deem and Ramdas Pophale) SiO2 
 PCOD9557104
Probable space group: P -4 M 2
;
_chemical_formula_sum "Si O2"
_cell_formula_units_Z 40
_cell_length_a 7.833693
_cell_length_b 7.833693
_cell_length_c 31.013084
_cell_angle_alpha 90.000000
_cell_angle_beta 90.000000
_cell_angle_gamma 90.000000
_cell_volume 1903.172049
_symmetry_space_group_name_H-M "P -4 M 2"
_symmetry_group_IT_number 115
_symmetry_cell_setting 'tetragonal'
loop_
_space_group_symop_operation_xyz
x,y,z
y,-x,-z
-x,-y,z
-y,x,-z
y,x,-z
-y,-x,-z
-x,y,z
x,-y,z
loop_
_atom_site_type_symbol
_atom_site_label
_atom_site_fract_x
_atom_site_fract_y
_atom_site_fract_z
Si Si1 0.794945 0.305728 0.768794
Si Si2 0.000000 0.701178 0.293216
Si Si3 0.197422 0.794354 0.954009
Si Si4 0.804268 0.705047 0.862071
Si Si5 0.207036 0.690450 0.548057
Si Si6 0.000000 0.795074 0.393071
O O1 0.734112 0.500000 0.759851
O O2 0.727878 0.244480 0.815809
O O3 0.000000 0.316162 0.773683
O O4 0.760716 0.168856 0.732055
O O5 0.000000 0.756244 0.342795
O O6 0.000000 0.500000 0.291958
O O7 0.278045 0.751027 0.907885
O O8 0.000000 0.731426 0.951849
O O9 0.193340 0.000000 0.957116
O O10 0.268926 0.731075 0.000000
O O11 0.812495 0.500000 0.860219
O O12 0.000000 0.774017 0.863461
O O13 0.270982 0.729019 0.500000
O O14 0.257831 0.500000 0.561048
O O15 0.000000 0.697243 0.546412
O O16 0.268112 0.833262 0.581445
O O17 0.000000 0.000000 0.397159
#
# Coordination Sequence:
#
# PCOD9557104 Si02
#       6
#     8   4   8   8   8   4
#     4   9  19  37  61  86 110 143 196 254 302 357
#     4  12  26  40  58  86 122 162 198 246 306 365
#     4   8  13  20  33  60  95 127 159 202 265 336
#     4   8  14  25  44  71  97 125 169 225 280 333
#     4  10  20  36  63  94 125 162 202 247 299 355
#     4  10  22  40  62  88 126 164 204 252 298 345
#
# _framework density 21.01754
#
# number of rings (size 3 to 8) (size 9 to 14) (size 15 to 20)
#    0.000    2.800    1.000    2.700    1.400    2.200 
#    0.000    2.000    0.000    1.200    0.000    0.000 
#    0.000    0.000    0.000    0.000    0.000    0.000 
#
# Total GULP energy -223007.821090 kJ/mol
# GULP energy per Si atom -5575.195527 kJ/mol
# Density = 2.096970 g / cm^3
# Si number density = 21.017540 Si / 1000 Ang^3
#
#
#
# Elastic Constant Matrix: (Units=GPa)
#
#
# Indices 1 2 3 4 5 6 
#
# 1 56.7395 30.8773 57.1574 0.0000 0.0000 0.0000
# 2 30.8773 56.7384 57.1584 0.0000 0.0000 0.0000
# 3 57.1574 57.1584 228.7137 0.0000 0.0000 0.0000
# 4 0.0000 0.0000 0.0000 -107.8600 0.0000 0.0000
# 5 0.0000 0.0000 0.0000 0.0000 -107.8604 0.0000
# 6 0.0000 0.0000 0.0000 0.0000 0.0000 -14.2768
#
#
#
# Elastic Compliance Matrix: (Units=1/GPa)
#
#
# Indices 1 2 3 4 5 6 
#
# 1 0.027801 -0.010866 -0.004232 0.000000 0.000000 0.000000
# 2 -0.010866 0.027802 -0.004233 0.000000 0.000000 0.000000
# 3 -0.004232 -0.004233 0.006488 0.000000 0.000000 0.000000
# 4 0.000000 0.000000 0.000000 -0.009271 0.000000 0.000000
# 5 0.000000 0.000000 0.000000 0.000000 -0.009271 0.000000
# 6 0.000000 0.000000 0.000000 0.000000 0.000000 -0.070044
#
#
# Mechanical properties :
#
#
# Convention : Reuss Voigt Hill
#
# Bulk Modulus (GPa) = 42.68165 70.28642 56.48404
# Shear Modulus (GPa) = 250.30860 -32.86622 108.72119
#
# Velocity S-wave (km/s) = 10.92491 -3.95872 7.20008
# Velocity P-wave (km/s) = 13.39738 3.55234 9.80074
#
# Compressibility (1/GPa) = 0.02342927
#
# Stress axis : x y z
#
# Youngs Moduli (GPa) = 35.97008 35.96877 154.13796
#
# Poissons Ratio (x) = 0.39083 0.65233
# Poissons Ratio (y) = 0.39085 0.65240
# Poissons Ratio (z) = 0.15223 0.15224
#
# Static dielectric constant tensor:
#      x y z
#    x 1.825230 0.000000 0.000000 
#    y 0.000000 1.825230 0.000000 
#    z 0.000000 0.000000 1.835760 
# 
# From -- ./inp_files/5491.got.cif
#   From: 2010.05.17/outbox.cif.g08.bks.cpg/sg115_3_cif.got.tgz:5491.got - 2010.05.20 11:07:42.
