data_PCOD9557684
_publ_section_title
;
Structure prediction by ZEFSAII (Michael W. Deem and Ramdas Pophale) SiO2 
 PCOD9557684
Probable space group: P -4 C 2
;
_chemical_formula_sum "Si O2"
_cell_formula_units_Z 40
_cell_length_a 9.247527
_cell_length_b 9.247527
_cell_length_c 23.096433
_cell_angle_alpha 90.000000
_cell_angle_beta 90.000000
_cell_angle_gamma 90.000000
_cell_volume 1975.132016
_symmetry_space_group_name_H-M "P -4 C 2"
_symmetry_group_IT_number 116
_symmetry_cell_setting 'tetragonal'
loop_
_space_group_symop_operation_xyz
x,y,z
y,-x,-z
-x,-y,z
-y,x,-z
y,x,1/2-z
-y,-x,1/2-z
-x,y,1/2+z
x,-y,1/2+z
loop_
_atom_site_type_symbol
_atom_site_label
_atom_site_fract_x
_atom_site_fract_y
_atom_site_fract_z
Si Si1 0.500000 0.500000 0.616216
Si Si2 0.500000 0.000000 0.145113
Si Si3 0.133796 0.262621 0.503456
Si Si4 0.306457 0.735427 0.682245
Si Si5 0.429939 0.210474 0.550133
Si Si6 0.856877 0.064605 0.900284
O O1 0.389070 0.594873 0.655336
O O2 0.438565 0.373709 0.574650
O O3 0.598073 0.882147 0.176606
O O4 0.406001 0.895676 0.104013
O O5 0.297502 0.205362 0.507667
O O6 0.154769 0.425663 0.481258
O O7 0.075114 0.164654 0.451384
O O8 0.053608 0.237689 0.564314
O O9 0.282940 0.717061 0.750000
O O10 0.164685 0.765719 0.643079
O O11 0.000000 0.000000 0.870248
#
# Coordination Sequence:
#
# PCOD9557684 Si02
#       6
#     4   4   8   8   8   8
#     4  10  21  45  70  98 134 180 228 292 356 408
#     4  10  20  42  66  88 132 180 216 274 354 400
#     4  12  21  38  64  99 141 177 220 282 340 428
#     4  11  25  47  71  98 133 178 241 295 347 416
#     4  11  22  37  64 102 139 176 223 277 354 417
#     4  12  23  42  66  97 138 185 225 279 352 423
#
# _framework density 20.251809999999999
#
# number of rings (size 3 to 8) (size 9 to 14) (size 15 to 20)
#    0.000    0.800    6.000    3.900    0.000    0.400 
#    3.600    0.000    4.400    0.000    0.000    0.000 
#    0.000    0.000    0.000    0.000    0.000    0.000 
#
# Total GULP energy -223242.196200 kJ/mol
# GULP energy per Si atom -5581.054905 kJ/mol
# Density = 2.020572 g / cm^3
# Si number density = 20.251810 Si / 1000 Ang^3
#
#
#
# Elastic Constant Matrix: (Units=GPa)
#
#
# Indices 1 2 3 4 5 6 
#
# 1 119.8020 48.1621 33.2921 0.0000 0.0000 0.0000
# 2 48.1621 119.8025 33.2924 0.0000 0.0000 0.0000
# 3 33.2921 33.2924 69.2537 0.0000 0.0000 0.0000
# 4 0.0000 0.0000 0.0000 8.6031 0.0000 0.0000
# 5 0.0000 0.0000 0.0000 0.0000 8.6016 0.0000
# 6 0.0000 0.0000 0.0000 0.0000 0.0000 41.4535
#
#
#
# Elastic Compliance Matrix: (Units=1/GPa)
#
#
# Indices 1 2 3 4 5 6 
#
# 1 0.010657 -0.003302 -0.003536 0.000000 0.000000 0.000000
# 2 -0.003302 0.010657 -0.003536 0.000000 0.000000 0.000000
# 3 -0.003536 -0.003536 0.017839 0.000000 0.000000 0.000000
# 4 0.000000 0.000000 0.000000 0.116237 0.000000 0.000000
# 5 0.000000 0.000000 0.000000 0.000000 0.116257 0.000000
# 6 0.000000 0.000000 0.000000 0.000000 0.000000 0.024123
#
#
# Mechanical properties :
#
#
# Convention : Reuss Voigt Hill
#
# Bulk Modulus (GPa) = 54.32924 59.81683 57.07304
# Shear Modulus (GPa) = 15.49649 24.67243 20.08446
#
# Velocity S-wave (km/s) = 2.76921 3.49418 3.15260
# Velocity P-wave (km/s) = 6.09178 6.77345 6.44164
#
# Compressibility (1/GPa) = 0.01840629
#
# Stress axis : x y z
#
# Youngs Moduli (GPa) = 93.83491 93.83515 56.05599
#
# Poissons Ratio (x) = 0.30981 0.19821
# Poissons Ratio (y) = 0.30981 0.19821
# Poissons Ratio (z) = 0.33179 0.33180
#
# Static dielectric constant tensor:
#      x y z
#    x 1.791380 0.000000 0.000000 
#    y 0.000000 1.791380 0.000000 
#    z 0.000000 0.000000 1.672840 
# 
# From -- ./inp_files/4878.got.cif
#   From: 2010.05.17/outbox.cif.g08.bks.cpg/sg116_3_cif.got.tgz:4878.got - 2010.05.20 11:11:43.
