data_PCOD9557384
_publ_section_title
;
Structure prediction by ZEFSAII (Michael W. Deem and Ramdas Pophale) SiO2 
 PCOD9557384
Probable space group: P -4 M 2
;
_chemical_formula_sum "Si O2"
_cell_formula_units_Z 56
_cell_length_a 14.084299
_cell_length_b 14.084299
_cell_length_c 13.773919
_cell_angle_alpha 90.000000
_cell_angle_beta 90.000000
_cell_angle_gamma 90.000000
_cell_volume 2732.297579
_symmetry_space_group_name_H-M "P -4 M 2"
_symmetry_group_IT_number 115
_symmetry_cell_setting 'tetragonal'
loop_
_space_group_symop_operation_xyz
x,y,z
y,-x,-z
-x,-y,z
-y,x,-z
y,x,-z
-y,-x,-z
-x,y,z
x,-y,z
loop_
_atom_site_type_symbol
_atom_site_label
_atom_site_fract_x
_atom_site_fract_y
_atom_site_fract_z
Si Si1 0.611104 0.758016 0.727780
Si Si2 0.136979 0.103851 0.112090
Si Si3 0.891816 0.636930 0.874003
Si Si4 0.895123 0.778709 0.284806
Si Si5 0.229678 0.391240 0.679035
Si Si6 0.248356 0.603084 0.039767
Si Si7 0.232615 0.887045 0.420706
O O1 0.500000 0.759403 0.698184
O O2 0.678431 0.845085 0.694615
O O3 0.671615 0.666133 0.693722
O O4 0.613245 0.763475 0.845174
O O5 0.249851 0.107541 0.120403
O O6 0.100562 0.193977 0.171828
O O7 0.104905 0.000000 0.148422
O O8 0.110950 0.110950 0.000000
O O9 0.825376 0.610141 0.782883
O O10 0.846753 0.604590 0.975668
O O11 0.000000 0.605329 0.859304
O O12 0.830341 0.863384 0.326044
O O13 0.000000 0.780905 0.326732
O O14 0.244515 0.500000 0.650218
O O15 0.163574 0.332766 0.603476
O O16 0.294357 0.500000 0.022324
O O17 0.313788 0.686212 0.000000
O O18 0.173153 0.826848 0.500000
O O19 0.239647 0.000000 0.437258
#
# Coordination Sequence:
#
# PCOD9557384 Si02
#       7
#     8   8   8   8   8   8   8
#     4  10  22  39  60  86 124 169 215 266 318 376
#     4  11  21  33  52  83 127 174 215 260 317 380
#     4  11  21  35  56  84 122 168 216 269 326 381
#     4  11  22  38  60  87 123 167 215 262 309 372
#     4  11  23  42  68  96 127 162 209 268 326 384
#     4  11  21  34  52  79 118 163 213 266 316 368
#     4  11  24  44  68  99 133 166 206 255 314 377
#
# _framework density 20.495571999999999
#
# number of rings (size 3 to 8) (size 9 to 14) (size 15 to 20)
#    0.000    1.143    4.286    3.429    0.000    7.000 
#    0.000    5.714    0.000    3.429    0.000    0.000 
#    0.000    0.000    0.000    0.000    0.000    0.000 
#
# Total GULP energy -312610.577516 kJ/mol
# GULP energy per Si atom -5582.331741 kJ/mol
# Density = 2.044892 g / cm^3
# Si number density = 20.495572 Si / 1000 Ang^3
#
#
#
# Elastic Constant Matrix: (Units=GPa)
#
#
# Indices 1 2 3 4 5 6 
#
# 1 156.9177 37.4273 13.9069 0.0000 0.0000 0.0000
# 2 37.4273 156.9172 13.9063 0.0000 0.0000 0.0000
# 3 13.9069 13.9063 51.5136 0.0000 0.0000 0.0000
# 4 0.0000 0.0000 0.0000 11.4266 0.0000 0.0000
# 5 0.0000 0.0000 0.0000 0.0000 11.4254 0.0000
# 6 0.0000 0.0000 0.0000 0.0000 0.0000 -270.0927
#
#
#
# Elastic Compliance Matrix: (Units=1/GPa)
#
#
# Indices 1 2 3 4 5 6 
#
# 1 0.006861 -0.001508 -0.001445 0.000000 0.000000 0.000000
# 2 -0.001508 0.006861 -0.001445 0.000000 0.000000 0.000000
# 3 -0.001445 -0.001445 0.020192 0.000000 0.000000 0.000000
# 4 0.000000 0.000000 0.000000 0.087515 0.000000 0.000000
# 5 0.000000 0.000000 0.000000 0.000000 0.087525 0.000000
# 6 0.000000 0.000000 0.000000 0.000000 0.000000 -0.003702
#
#
# Mechanical properties :
#
#
# Convention : Reuss Voigt Hill
#
# Bulk Modulus (GPa) = 39.81299 55.09216 47.45257
# Shear Modulus (GPa) = 22.48001 -29.44095 -3.48047
#
# Velocity S-wave (km/s) = 3.31542 -3.79417 -1.30455
# Velocity P-wave (km/s) = 5.84152 2.78282 4.57534
#
# Compressibility (1/GPa) = 0.02511743
#
# Stress axis : x y z
#
# Youngs Moduli (GPa) = 145.76029 145.76005 49.52339
#
# Poissons Ratio (x) = 0.21985 0.07156
# Poissons Ratio (y) = 0.21985 0.07155
# Poissons Ratio (z) = 0.21062 0.21060
#
# Static dielectric constant tensor:
#      x y z
#    x 1.744690 0.000000 0.000000 
#    y 0.000000 1.744690 0.000000 
#    z 0.000000 0.000000 1.815860 
# 
# From -- ./inp_files/3788.got.cif
#   From: 2010.05.17/outbox.cif.g08.bks.cpg/sg115_2_cif.got.tgz:3788.got - 2010.05.20 11:07:42.
