data_PCOD9557759
_publ_section_title
;
Structure prediction by ZEFSAII (Michael W. Deem and Ramdas Pophale) SiO2 
 PCOD9557759
Probable space group: P -4 C 2
;
_chemical_formula_sum "Si O2"
_cell_formula_units_Z 22
_cell_length_a 5.277848
_cell_length_b 5.277848
_cell_length_c 31.947149
_cell_angle_alpha 90.000000
_cell_angle_beta 90.000000
_cell_angle_gamma 90.000000
_cell_volume 889.909544
_symmetry_space_group_name_H-M "P -4 C 2"
_symmetry_group_IT_number 116
_symmetry_cell_setting 'tetragonal'
loop_
_space_group_symop_operation_xyz
x,y,z
y,-x,-z
-x,-y,z
-y,x,-z
y,x,1/2-z
-y,-x,1/2-z
-x,y,1/2+z
x,-y,1/2+z
loop_
_atom_site_type_symbol
_atom_site_label
_atom_site_fract_x
_atom_site_fract_y
_atom_site_fract_z
Si Si1 0.331209 0.244359 0.796086
Si Si2 0.000000 0.000000 0.500000
Si Si3 0.500000 0.000000 0.952797
Si Si4 0.760463 0.348254 0.385005
O O1 0.500000 0.500000 0.793630
O O2 0.212525 0.212525 0.750000
O O3 0.164082 0.259036 0.838067
O O4 0.500000 0.000000 0.803276
O O5 0.890069 0.266230 0.519920
O O6 0.674295 0.844165 0.920174
O O7 0.500000 0.500000 0.378562
O O8 0.000000 0.500000 0.401244
#
# Coordination Sequence:
#
# PCOD9557759 Si02
#       4
#     8   2   4   8
#     4  10  21  42  67 107 151 202 256 313 373 454
#     4  12  32  48  84 104 158 188 264 328 400 484
#     4  12  28  52  74 116 142 206 250 330 402 478
#     4  11  24  45  75 108 151 202 252 315 387 468
#
# _framework density 24.721609999999998
#
# number of rings (size 3 to 8) (size 9 to 14) (size 15 to 20)
#    0.000    1.091    1.818    3.273    7.636    0.000 
#    0.000   14.545    0.000    0.000    0.000    0.000 
#    0.000    0.000    0.000    0.000    0.000    0.000 
#
# Total GULP energy -122618.879151 kJ/mol
# GULP energy per Si atom -5573.585416 kJ/mol
# Density = 2.466534 g / cm^3
# Si number density = 24.721610 Si / 1000 Ang^3
#
#
#
# Elastic Constant Matrix: (Units=GPa)
#
#
# Indices 1 2 3 4 5 6 
#
# 1 137.5170 44.6538 24.5040 0.0000 0.0000 0.0000
# 2 44.6538 137.5170 24.5040 0.0000 0.0000 0.0000
# 3 24.5040 24.5040 68.6224 0.0000 0.0000 0.0000
# 4 0.0000 0.0000 0.0000 84.9908 0.0000 0.0000
# 5 0.0000 0.0000 0.0000 0.0000 84.9908 0.0000
# 6 0.0000 0.0000 0.0000 0.0000 0.0000 68.4189
#
#
#
# Elastic Compliance Matrix: (Units=1/GPa)
#
#
# Indices 1 2 3 4 5 6 
#
# 1 0.008421 -0.002348 -0.002168 0.000000 0.000000 0.000000
# 2 -0.002348 0.008421 -0.002168 0.000000 0.000000 0.000000
# 3 -0.002168 -0.002168 0.016121 0.000000 0.000000 0.000000
# 4 0.000000 0.000000 0.000000 0.011766 0.000000 0.000000
# 5 0.000000 0.000000 0.000000 0.000000 0.011766 0.000000
# 6 0.000000 0.000000 0.000000 0.000000 0.000000 0.014616
#
#
# Mechanical properties :
#
#
# Convention : Reuss Voigt Hill
#
# Bulk Modulus (GPa) = 51.03941 58.99779 55.01860
# Shear Modulus (GPa) = 54.93851 64.34640 59.64245
#
# Velocity S-wave (km/s) = 4.71923 5.10734 4.91711
# Velocity P-wave (km/s) = 7.09826 7.66137 7.38518
#
# Compressibility (1/GPa) = 0.01959270
#
# Stress axis : x y z
#
# Youngs Moduli (GPa) = 118.75604 118.75604 62.03022
#
# Poissons Ratio (x) = 0.27883 0.13451
# Poissons Ratio (y) = 0.27883 0.13451
# Poissons Ratio (z) = 0.25752 0.25752
#
# Static dielectric constant tensor:
#      x y z
#    x 1.656530 0.000000 0.000000 
#    y 0.000000 1.656530 0.000000 
#    z 0.000000 0.000000 2.241470 
# 
# From -- ./inp_files/5046.got.cif
#   From: 2010.05.17/outbox.cif.g08.bks.cpg/sg116_3_cif.got.tgz:5046.got - 2010.05.20 11:11:43.
