data_PCOD9557091
_publ_section_title
;
Structure prediction by ZEFSAII (Michael W. Deem and Ramdas Pophale) SiO2 
 PCOD9557091
Probable space group: P -4 M 2
;
_chemical_formula_sum "Si O2"
_cell_formula_units_Z 56
_cell_length_a 15.649295
_cell_length_b 15.649295
_cell_length_c 12.038316
_cell_angle_alpha 90.000000
_cell_angle_beta 90.000000
_cell_angle_gamma 90.000000
_cell_volume 2948.188813
_symmetry_space_group_name_H-M "P -4 M 2"
_symmetry_group_IT_number 115
_symmetry_cell_setting 'tetragonal'
loop_
_space_group_symop_operation_xyz
x,y,z
y,-x,-z
-x,-y,z
-y,x,-z
y,x,-z
-y,-x,-z
-x,y,z
x,-y,z
loop_
_atom_site_type_symbol
_atom_site_label
_atom_site_fract_x
_atom_site_fract_y
_atom_site_fract_z
Si Si1 0.788008 0.337147 0.435455
Si Si2 0.602227 0.774360 0.177311
Si Si3 0.326730 0.593122 0.249811
Si Si4 0.899663 0.731265 0.233036
Si Si5 0.902866 0.397928 0.635848
Si Si6 0.175048 0.402064 0.069858
Si Si7 0.905021 0.896947 0.870085
O O1 0.735026 0.264974 0.500000
O O2 0.720675 0.395733 0.368176
O O3 0.847453 0.300156 0.338548
O O4 0.848971 0.381834 0.524602
O O5 0.500000 0.780191 0.175002
O O6 0.623384 0.680265 0.223553
O O7 0.636289 0.846403 0.261522
O O8 0.629367 0.794037 0.050977
O O9 0.371047 0.500000 0.246592
O O10 0.255573 0.592193 0.152754
O O11 0.886020 0.665258 0.131087
O O12 0.865711 0.824708 0.199172
O O13 0.000000 0.735884 0.257846
O O14 0.908842 0.500000 0.650288
O O15 0.000000 0.364161 0.630983
O O16 0.140368 0.500000 0.060567
O O17 0.000000 0.862873 0.844956
O O18 0.908597 0.000000 0.854911
O O19 0.885225 0.885225 0.000000
#
# Coordination Sequence:
#
# PCOD9557091 Si02
#       7
#     8   8   8   8   8   8   8
#     4  11  21  38  57  79 114 155 200 256 304 356
#     4  10  20  36  58  87 121 155 192 242 298 359
#     4  10  20  36  59  84 114 156 198 242 301 359
#     4  10  21  35  57  85 112 148 201 251 298 359
#     4  10  21  38  60  84 114 157 203 247 302 365
#     4   9  20  36  56  83 119 156 188 233 297 357
#     4   8  15  31  53  77 109 145 181 231 292 351
#
# _framework density 18.994713000000001
#
# number of rings (size 3 to 8) (size 9 to 14) (size 15 to 20)
#    0.000    2.286    1.429    1.714    0.000    4.000 
#    0.000    2.857    0.000    2.571    0.000    0.000 
#    0.000    0.000    0.000    0.000    0.000    0.000 
#
# Total GULP energy -312138.997018 kJ/mol
# GULP energy per Si atom -5573.910661 kJ/mol
# Density = 1.895148 g / cm^3
# Si number density = 18.994713 Si / 1000 Ang^3
#
#
#
# Elastic Constant Matrix: (Units=GPa)
#
#
# Indices 1 2 3 4 5 6 
#
# 1 62.5998 10.4101 38.6595 0.0000 0.0000 0.0000
# 2 10.4101 62.5994 38.6614 0.0000 0.0000 0.0000
# 3 38.6595 38.6614 118.8873 0.0000 0.0000 0.0000
# 4 0.0000 0.0000 0.0000 21.2846 0.0000 0.0000
# 5 0.0000 0.0000 0.0000 0.0000 21.2851 0.0000
# 6 0.0000 0.0000 0.0000 0.0000 0.0000 5114.3460
#
#
#
# Elastic Compliance Matrix: (Units=1/GPa)
#
#
# Indices 1 2 3 4 5 6 
#
# 1 0.020026 0.000865 -0.006793 0.000000 0.000000 0.000000
# 2 0.000865 0.020027 -0.006794 0.000000 0.000000 0.000000
# 3 -0.006793 -0.006794 0.012830 0.000000 0.000000 0.000000
# 4 0.000000 0.000000 0.000000 0.046982 0.000000 0.000000
# 5 0.000000 0.000000 0.000000 0.000000 0.046981 0.000000
# 6 0.000000 0.000000 0.000000 0.000000 0.000000 0.000196
#
#
# Mechanical properties :
#
#
# Convention : Reuss Voigt Hill
#
# Bulk Modulus (GPa) = 36.44530 46.61649 41.53089
# Shear Modulus (GPa) = 27.52825 1041.80682 534.66754
#
# Velocity S-wave (km/s) = 3.81104 23.44489 16.79564
# Velocity P-wave (km/s) = 6.21242 27.52233 19.95085
#
# Compressibility (1/GPa) = 0.02743838
#
# Stress axis : x y z
#
# Youngs Moduli (GPa) = 49.93511 49.93350 77.94386
#
# Poissons Ratio (x) = -0.04321 0.52951
# Poissons Ratio (y) = -0.04321 0.52955
# Poissons Ratio (z) = 0.33923 0.33924
#
# Static dielectric constant tensor:
#      x y z
#    x 1.693790 0.000000 0.000000 
#    y 0.000000 1.693790 0.000000 
#    z 0.000000 0.000000 1.642760 
# 
# From -- ./inp_files/3056.got.cif
#   From: 2010.05.17/outbox.cif.g08.bks.cpg/sg115_2_cif.got.tgz:3056.got - 2010.05.20 11:07:42.
