data_PCOD9557319
_publ_section_title
;
Structure prediction by ZEFSAII (Michael W. Deem and Ramdas Pophale) SiO2 
 PCOD9557319
Probable space group: P -4 M 2
;
_chemical_formula_sum "Si O2"
_cell_formula_units_Z 40
_cell_length_a 9.084667
_cell_length_b 9.084667
_cell_length_c 26.985775
_cell_angle_alpha 90.000000
_cell_angle_beta 90.000000
_cell_angle_gamma 90.000000
_cell_volume 2227.167706
_symmetry_space_group_name_H-M "P -4 M 2"
_symmetry_group_IT_number 115
_symmetry_cell_setting 'tetragonal'
loop_
_space_group_symop_operation_xyz
x,y,z
y,-x,-z
-x,-y,z
-y,x,-z
y,x,-z
-y,-x,-z
-x,y,z
x,-y,z
loop_
_atom_site_type_symbol
_atom_site_label
_atom_site_fract_x
_atom_site_fract_y
_atom_site_fract_z
Si Si1 0.823916 0.823069 0.838075
Si Si2 0.177832 0.824215 0.946764
Si Si3 0.324747 0.673672 0.256012
Si Si4 0.823753 0.826133 0.350012
Si Si5 0.175415 0.674184 0.453241
O O1 0.772610 0.769798 0.892842
O O2 0.741883 0.745372 0.793389
O O3 0.000000 0.797817 0.834156
O O4 0.802528 0.000000 0.835339
O O5 0.000000 0.807469 0.947101
O O6 0.205480 0.000000 0.946644
O O7 0.233896 0.766105 0.000000
O O8 0.500000 0.694631 0.255313
O O9 0.292971 0.500000 0.258358
O O10 0.256566 0.752317 0.303872
O O11 0.780001 0.752380 0.402028
O O12 0.000000 0.805594 0.344229
O O13 0.794112 0.000000 0.351394
O O14 0.259015 0.740986 0.500000
O O15 0.200623 0.500000 0.449401
O O16 0.000000 0.698978 0.459733
#
# Coordination Sequence:
#
# PCOD9557319 Si02
#       5
#     8   8   8   8   8
#     4   9  17  30  51  78 103 129 166 210 256 308
#     4   7  10  19  39  69 101 127 154 197 252 303
#     4  11  24  38  51  71 102 139 176 213 256 308
#     4  10  21  38  61  85 106 132 171 218 264 309
#     4  10  21  37  58  84 113 145 178 211 251 299
#
# _framework density 17.960032000000002
#
# number of rings (size 3 to 8) (size 9 to 14) (size 15 to 20)
#    0.000    2.600    0.000    4.200    0.000    7.600 
#    0.000    0.000    0.000    1.200    0.000    7.000 
#    0.000    0.000    0.000    0.000    0.000    0.000 
#
# Total GULP energy -223035.957338 kJ/mol
# GULP energy per Si atom -5575.898933 kJ/mol
# Density = 1.791915 g / cm^3
# Si number density = 17.960032 Si / 1000 Ang^3
#
#
#
# Elastic Constant Matrix: (Units=GPa)
#
#
# Indices 1 2 3 4 5 6 
#
# 1 53.7359 57.4909 82.7174 0.0000 0.0000 0.0000
# 2 57.4909 53.7371 82.7197 0.0000 0.0000 0.0000
# 3 82.7174 82.7197 236.6992 0.0000 0.0000 0.0000
# 4 0.0000 0.0000 0.0000 -18.7222 0.0000 0.0000
# 5 0.0000 0.0000 0.0000 0.0000 -18.7232 0.0000
# 6 0.0000 0.0000 0.0000 0.0000 0.0000 24.5715
#
#
#
# Elastic Compliance Matrix: (Units=1/GPa)
#
#
# Indices 1 2 3 4 5 6 
#
# 1 -0.123813 0.142536 -0.006545 0.000000 0.000000 0.000000
# 2 0.142536 -0.123815 -0.006541 0.000000 0.000000 0.000000
# 3 -0.006545 -0.006541 0.008798 0.000000 0.000000 0.000000
# 4 0.000000 0.000000 0.000000 -0.053412 0.000000 0.000000
# 5 0.000000 0.000000 0.000000 0.000000 -0.053410 0.000000
# 6 0.000000 0.000000 0.000000 0.000000 0.000000 0.040697
#
#
# Mechanical properties :
#
#
# Convention : Reuss Voigt Hill
#
# Bulk Modulus (GPa) = 49.82322 87.78092 68.80207
# Shear Modulus (GPa) = -8.97398 5.50815 -1.73292
#
# Velocity S-wave (km/s) = -2.23774 1.75315 -0.98335
# Velocity P-wave (km/s) = 4.59617 7.28559 6.09117
#
# Compressibility (1/GPa) = 0.02007096
#
# Stress axis : x y z
#
# Youngs Moduli (GPa) = -8.07669 -8.07655 113.66549
#
# Poissons Ratio (x) = 1.15120 0.74388
# Poissons Ratio (y) = 1.15122 0.74349
# Poissons Ratio (z) = -0.05286 -0.05283
#
# Static dielectric constant tensor:
#      x y z
#    x 1.592170 0.000000 0.000000 
#    y 0.000000 1.592170 0.000000 
#    z 0.000000 0.000000 1.625430 
# 
# From -- ./inp_files/5102.got.cif
#   From: 2010.05.17/outbox.cif.g08.bks.cpg/sg115_3_cif.got.tgz:5102.got - 2010.05.20 11:07:42.
