data_PCOD9557205
_publ_section_title
;
Structure prediction by ZEFSAII (Michael W. Deem and Ramdas Pophale) SiO2 
 PCOD9557205
Probable space group: P -4 M 2
;
_chemical_formula_sum "Si O2"
_cell_formula_units_Z 44
_cell_length_a 9.307455
_cell_length_b 9.307455
_cell_length_c 29.325601
_cell_angle_alpha 90.000000
_cell_angle_beta 90.000000
_cell_angle_gamma 90.000000
_cell_volume 2540.439236
_symmetry_space_group_name_H-M "P -4 M 2"
_symmetry_group_IT_number 115
_symmetry_cell_setting 'tetragonal'
loop_
_space_group_symop_operation_xyz
x,y,z
y,-x,-z
-x,-y,z
-y,x,-z
y,x,-z
-y,-x,-z
-x,y,z
x,-y,z
loop_
_atom_site_type_symbol
_atom_site_label
_atom_site_fract_x
_atom_site_fract_y
_atom_site_fract_z
Si Si1 0.674852 0.834042 0.858338
Si Si2 0.831242 0.672908 0.675383
Si Si3 0.827621 0.668922 0.406815
Si Si4 0.327937 0.668664 0.232459
Si Si5 0.829749 0.170252 0.500000
Si Si6 0.331260 0.826834 0.959391
O O1 0.500000 0.831719 0.859389
O O2 0.719646 0.743481 0.814553
O O3 0.719888 0.781822 0.908604
O O4 0.718558 0.000000 0.852927
O O5 0.816275 0.500000 0.671290
O O6 0.749972 0.748392 0.633941
O O7 0.759350 0.715939 0.723413
O O8 0.000000 0.707665 0.674769
O O9 0.793266 0.500000 0.406467
O O10 0.789392 0.740158 0.455308
O O11 0.000000 0.684581 0.401428
O O12 0.500000 0.677509 0.228061
O O13 0.290688 0.500000 0.239404
O O14 0.000000 0.191861 0.508852
O O15 0.500000 0.789744 0.963914
O O16 0.320680 0.000000 0.960838
O O17 0.243588 0.756413 0.000000
#
# Coordination Sequence:
#
# PCOD9557205 Si02
#       6
#     8   8   8   8   4   8
#     4   8  15  29  48  69  94 124 159 201 247 294
#     4  10  21  36  53  74 103 138 171 205 249 298
#     4  10  21  36  55  80 107 135 170 210 250 295
#     4   9  17  30  49  72  97 126 162 204 249 296
#     4   9  18  34  54  75 104 140 172 205 248 295
#     4   9  18  32  49  71  99 130 165 204 247 296
#
# _framework density 17.319839999999999
#
# number of rings (size 3 to 8) (size 9 to 14) (size 15 to 20)
#    0.000    2.818    0.000    2.182    0.000    4.727 
#    0.000    6.364    0.000    3.273    0.000    0.000 
#    0.000    0.000    0.000    0.000    0.000    0.000 
#
# Total GULP energy -245312.137878 kJ/mol
# GULP energy per Si atom -5575.275861 kJ/mol
# Density = 1.728042 g / cm^3
# Si number density = 17.319840 Si / 1000 Ang^3
#
#
#
# Elastic Constant Matrix: (Units=GPa)
#
#
# Indices 1 2 3 4 5 6 
#
# 1 51.5642 41.7207 79.7262 0.0000 0.0000 0.0000
# 2 41.7207 51.5621 79.7252 0.0000 0.0000 0.0000
# 3 79.7262 79.7252 214.0427 0.0000 0.0000 0.0000
# 4 0.0000 0.0000 0.0000 50.0122 0.0000 0.0000
# 5 0.0000 0.0000 0.0000 0.0000 50.0118 0.0000
# 6 0.0000 0.0000 0.0000 0.0000 0.0000 22.3991
#
#
#
# Elastic Compliance Matrix: (Units=1/GPa)
#
#
# Indices 1 2 3 4 5 6 
#
# 1 0.065551 -0.036047 -0.010990 0.000000 0.000000 0.000000
# 2 -0.036047 0.065555 -0.010991 0.000000 0.000000 0.000000
# 3 -0.010990 -0.010991 0.012859 0.000000 0.000000 0.000000
# 4 0.000000 0.000000 0.000000 0.019995 0.000000 0.000000
# 5 0.000000 0.000000 0.000000 0.000000 0.019995 0.000000
# 6 0.000000 0.000000 0.000000 0.000000 0.000000 0.044645
#
#
# Mechanical properties :
#
#
# Convention : Reuss Voigt Hill
#
# Bulk Modulus (GPa) = 35.82991 79.94590 57.88790
# Shear Modulus (GPa) = 14.12599 32.21773 23.17186
#
# Velocity S-wave (km/s) = 2.85896 4.31764 3.66167
# Velocity P-wave (km/s) = 5.62408 8.43296 7.16747
#
# Compressibility (1/GPa) = 0.02790965
#
# Stress axis : x y z
#
# Youngs Moduli (GPa) = 15.25538 15.25442 77.76649
#
# Poissons Ratio (x) = 0.54988 0.85462
# Poissons Ratio (y) = 0.54992 0.85470
# Poissons Ratio (z) = 0.16765 0.16765
#
# Static dielectric constant tensor:
#      x y z
#    x 1.577550 0.000000 0.000000 
#    y 0.000000 1.577550 0.000000 
#    z 0.000000 0.000000 1.574560 
# 
# From -- ./inp_files/5726.got.cif
#   From: 2010.05.17/outbox.cif.g08.bks.cpg/sg115_3_cif.got.tgz:5726.got - 2010.05.20 11:07:42.
