data_PCOD9557105
_publ_section_title
;
Structure prediction by ZEFSAII (Michael W. Deem and Ramdas Pophale) SiO2 
 PCOD9557105
Probable space group: P -4 M 2
;
_chemical_formula_sum "Si O2"
_cell_formula_units_Z 40
_cell_length_a 8.191056
_cell_length_b 8.191056
_cell_length_c 30.081749
_cell_angle_alpha 90.000000
_cell_angle_beta 90.000000
_cell_angle_gamma 90.000000
_cell_volume 2018.286770
_symmetry_space_group_name_H-M "P -4 M 2"
_symmetry_group_IT_number 115
_symmetry_cell_setting 'tetragonal'
loop_
_space_group_symop_operation_xyz
x,y,z
y,-x,-z
-x,-y,z
-y,x,-z
y,x,-z
-y,-x,-z
-x,y,z
x,-y,z
loop_
_atom_site_type_symbol
_atom_site_label
_atom_site_fract_x
_atom_site_fract_y
_atom_site_fract_z
Si Si1 0.197592 0.685933 0.547523
Si Si2 0.306750 0.180304 0.953157
Si Si3 0.310644 0.802432 0.235842
Si Si4 0.197282 0.000000 0.606127
Si Si5 0.000000 0.692756 0.292258
Si Si6 0.305392 0.182690 0.139217
O O1 0.278954 0.721047 0.500000
O O2 0.235343 0.500000 0.562429
O O3 0.000000 0.696133 0.542130
O O4 0.246656 0.834196 0.580152
O O5 0.500000 0.170936 0.955222
O O6 0.264592 0.269862 0.907567
O O7 0.233986 0.000000 0.949644
O O8 0.252842 0.252842 0.000000
O O9 0.500000 0.749762 0.245733
O O10 0.257265 0.740338 0.186552
O O11 0.167371 0.758160 0.269840
O O12 0.316803 0.000000 0.232900
O O13 0.262015 0.000000 0.655942
O O14 0.000000 0.000000 0.607570
O O15 0.000000 0.500000 0.286675
O O16 0.500000 0.170917 0.143109
O O17 0.234805 0.000000 0.136904
#
# Coordination Sequence:
#
# PCOD9557105 Si02
#       6
#     8   8   8   4   4   8
#     4  10  20  36  63  94 125 164 210 262 317 376
#     4  11  24  38  53  78 112 147 186 231 283 350
#     4   9  20  41  67  91 118 158 211 264 313 375
#     4  10  22  40  62  88 128 172 216 262 310 369
#     4  12  26  40  60  92 132 170 208 264 322 377
#     4   9  19  37  61  87 111 140 185 241 296 354
#
# _framework density 19.818788999999999
#
# number of rings (size 3 to 8) (size 9 to 14) (size 15 to 20)
#    0.000    2.000    1.000    3.300    1.400    7.400 
#    0.000    4.000    0.000    0.000    0.000    0.000 
#    0.000    0.000    0.000    0.000    0.000    0.000 
#
# Total GULP energy -223026.657709 kJ/mol
# GULP energy per Si atom -5575.666443 kJ/mol
# Density = 1.977368 g / cm^3
# Si number density = 19.818789 Si / 1000 Ang^3
#
#
#
# Elastic Constant Matrix: (Units=GPa)
#
#
# Indices 1 2 3 4 5 6 
#
# 1 70.9502 35.8003 56.6178 0.0000 0.0000 0.0000
# 2 35.8003 70.9499 56.6188 0.0000 0.0000 0.0000
# 3 56.6178 56.6188 157.8229 0.0000 0.0000 0.0000
# 4 0.0000 0.0000 0.0000 -53.5881 0.0000 0.0000
# 5 0.0000 0.0000 0.0000 0.0000 -53.5884 0.0000
# 6 0.0000 0.0000 0.0000 0.0000 0.0000 19.7068
#
#
#
# Elastic Compliance Matrix: (Units=1/GPa)
#
#
# Indices 1 2 3 4 5 6 
#
# 1 0.021786 -0.006664 -0.005425 0.000000 0.000000 0.000000
# 2 -0.006664 0.021786 -0.005425 0.000000 0.000000 0.000000
# 3 -0.005425 -0.005425 0.010229 0.000000 0.000000 0.000000
# 4 0.000000 0.000000 0.000000 -0.018661 0.000000 0.000000
# 5 0.000000 0.000000 0.000000 0.000000 -0.018661 0.000000
# 6 0.000000 0.000000 0.000000 0.000000 0.000000 0.050744
#
#
# Mechanical properties :
#
#
# Convention : Reuss Voigt Hill
#
# Bulk Modulus (GPa) = 53.26781 66.42188 59.84485
# Shear Modulus (GPa) = 46.07936 -7.44819 19.31558
#
# Velocity S-wave (km/s) = 4.82709 -1.94070 3.12526
# Velocity P-wave (km/s) = 7.61601 5.34468 6.57910
#
# Compressibility (1/GPa) = 0.01877306
#
# Stress axis : x y z
#
# Youngs Moduli (GPa) = 45.90135 45.90048 97.76437
#
# Poissons Ratio (x) = 0.30587 0.53036
# Poissons Ratio (y) = 0.30587 0.53040
# Poissons Ratio (z) = 0.24901 0.24902
#
# Static dielectric constant tensor:
#      x y z
#    x 1.702000 0.000000 0.000000 
#    y 0.000000 1.701990 0.000000 
#    z 0.000000 0.000000 1.918100 
# 
# From -- ./inp_files/5574.got.cif
#   From: 2010.05.17/outbox.cif.g08.bks.cpg/sg115_3_cif.got.tgz:5574.got - 2010.05.20 11:07:42.
