data_PCOD9557015
_publ_section_title
;
Structure prediction by ZEFSAII (Michael W. Deem and Ramdas Pophale) SiO2 
 PCOD9557015
Probable space group: P -4 M 2
;
_chemical_formula_sum "Si O2"
_cell_formula_units_Z 48
_cell_length_a 9.176149
_cell_length_b 9.176149
_cell_length_c 31.697927
_cell_angle_alpha 90.000000
_cell_angle_beta 90.000000
_cell_angle_gamma 90.000000
_cell_volume 2669.019672
_symmetry_space_group_name_H-M "P -4 M 2"
_symmetry_group_IT_number 115
_symmetry_cell_setting 'tetragonal'
loop_
_space_group_symop_operation_xyz
x,y,z
y,-x,-z
-x,-y,z
-y,x,-z
y,x,-z
-y,-x,-z
-x,y,z
x,-y,z
loop_
_atom_site_type_symbol
_atom_site_label
_atom_site_fract_x
_atom_site_fract_y
_atom_site_fract_z
Si Si1 0.171928 0.824940 0.717057
Si Si2 0.668166 0.177294 0.631814
Si Si3 0.327024 0.673022 0.048944
Si Si4 0.830163 0.675623 0.461557
Si Si5 0.673183 0.673412 0.795617
Si Si6 0.172836 0.827002 0.125570
O O1 0.234191 0.779794 0.671391
O O2 0.256889 0.744090 0.754081
O O3 0.000000 0.796283 0.719954
O O4 0.193506 0.000000 0.721280
O O5 0.500000 0.223215 0.638238
O O6 0.719497 0.224304 0.585264
O O7 0.667324 0.000000 0.630315
O O8 0.500000 0.698474 0.055426
O O9 0.301860 0.500000 0.055413
O O10 0.234936 0.764884 0.081846
O O11 0.293707 0.706294 0.000000
O O12 0.741805 0.741805 0.500000
O O13 0.823934 0.500000 0.462433
O O14 0.000000 0.718326 0.465501
O O15 0.500000 0.699602 0.796242
O O16 0.697837 0.500000 0.796091
O O17 0.746588 0.745868 0.836338
O O18 0.000000 0.800773 0.128528
O O19 0.198052 0.000000 0.128377
#
# Coordination Sequence:
#
# PCOD9557015 Si02
#       6
#     8   8   8   8   8   8
#     4  10  20  34  55  83 110 135 169 214 263 316
#     4   8  15  30  51  73 100 136 175 214 257 307
#     4   9  19  37  60  85 113 146 185 226 267 315
#     4   9  18  32  50  74 103 135 174 217 260 310
#     4  11  24  40  58  80 106 139 180 221 262 314
#     4  11  24  39  56  82 114 145 180 223 269 317
#
# _framework density 17.98413
#
# number of rings (size 3 to 8) (size 9 to 14) (size 15 to 20)
#    0.000    2.333    0.000    4.000    0.000    9.667 
#    0.000    5.000    0.000    1.000    0.000    0.000 
#    0.000    0.000    0.000    0.000    0.000    0.000 
#
# Total GULP energy -267938.606874 kJ/mol
# GULP energy per Si atom -5582.054310 kJ/mol
# Density = 1.794320 g / cm^3
# Si number density = 17.984130 Si / 1000 Ang^3
#
#
#
# Elastic Constant Matrix: (Units=GPa)
#
#
# Indices 1 2 3 4 5 6 
#
# 1 79.9569 74.7246 89.6221 0.0000 0.0000 0.0000
# 2 74.7246 79.9568 89.6218 0.0000 0.0000 0.0000
# 3 89.6221 89.6218 172.9093 0.0000 0.0000 0.0000
# 4 0.0000 0.0000 0.0000 35.4585 0.0000 0.0000
# 5 0.0000 0.0000 0.0000 0.0000 35.4586 0.0000
# 6 0.0000 0.0000 0.0000 0.0000 0.0000 28.8613
#
#
#
# Elastic Compliance Matrix: (Units=1/GPa)
#
#
# Indices 1 2 3 4 5 6 
#
# 1 0.103655 -0.087467 -0.008390 0.000000 0.000000 0.000000
# 2 -0.087467 0.103655 -0.008390 0.000000 0.000000 0.000000
# 3 -0.008390 -0.008390 0.014481 0.000000 0.000000 0.000000
# 4 0.000000 0.000000 0.000000 0.028202 0.000000 0.000000
# 5 0.000000 0.000000 0.000000 0.000000 0.028202 0.000000
# 6 0.000000 0.000000 0.000000 0.000000 0.000000 0.034648
#
#
# Mechanical properties :
#
#
# Convention : Reuss Voigt Hill
#
# Bulk Modulus (GPa) = 75.21653 93.41777 84.31715
# Shear Modulus (GPa) = 9.50986 25.21267 17.36126
#
# Velocity S-wave (km/s) = 2.30204 3.74831 3.11040
# Velocity P-wave (km/s) = 6.99861 8.41371 7.73857
#
# Compressibility (1/GPa) = 0.01329495
#
# Stress axis : x y z
#
# Youngs Moduli (GPa) = 9.64739 9.64743 69.05593
#
# Poissons Ratio (x) = 0.84383 0.57941
# Poissons Ratio (y) = 0.84383 0.57938
# Poissons Ratio (z) = 0.08095 0.08094
#
# Static dielectric constant tensor:
#      x y z
#    x 1.597560 0.000000 0.000000 
#    y 0.000000 1.597560 0.000000 
#    z 0.000000 0.000000 1.605360 
# 
# From -- ./inp_files/6091.got.cif
#   From: 2010.05.17/outbox.cif.g08.bks.cpg/sg115_4_cif.got.tgz:6091.got - 2010.05.20 11:07:42.
