data_PCOD9557225
_publ_section_title
;
Structure prediction by ZEFSAII (Michael W. Deem and Ramdas Pophale) SiO2 
 PCOD9557225
Probable space group: P -4 M 2
;
_chemical_formula_sum "Si O2"
_cell_formula_units_Z 44
_cell_length_a 9.315075
_cell_length_b 9.315075
_cell_length_c 29.335839
_cell_angle_alpha 90.000000
_cell_angle_beta 90.000000
_cell_angle_gamma 90.000000
_cell_volume 2545.489004
_symmetry_space_group_name_H-M "P -4 M 2"
_symmetry_group_IT_number 115
_symmetry_cell_setting 'tetragonal'
loop_
_space_group_symop_operation_xyz
x,y,z
y,-x,-z
-x,-y,z
-y,x,-z
y,x,-z
-y,-x,-z
-x,y,z
x,-y,z
loop_
_atom_site_type_symbol
_atom_site_label
_atom_site_fract_x
_atom_site_fract_y
_atom_site_fract_z
Si Si1 0.331274 0.827736 0.906901
Si Si2 0.831374 0.672660 0.824909
Si Si3 0.824960 0.833742 0.450042
Si Si4 0.668970 0.328240 0.732543
Si Si5 0.829903 0.829903 0.000000
Si Si6 0.830084 0.671199 0.359490
O O1 0.500000 0.793017 0.906558
O O2 0.249978 0.748787 0.866176
O O3 0.259874 0.789728 0.955362
O O4 0.316047 0.000000 0.901514
O O5 0.816573 0.500000 0.829305
O O6 0.759487 0.714418 0.776807
O O7 0.000000 0.707603 0.825437
O O8 0.778685 0.778685 0.500000
O O9 0.778712 0.745950 0.405875
O O10 0.000000 0.830239 0.451376
O O11 0.782422 0.000000 0.445149
O O12 0.500000 0.294168 0.739926
O O13 0.680678 0.500000 0.727068
O O14 0.717204 0.251739 0.686147
O O15 0.000000 0.808366 0.991080
O O16 0.812210 0.500000 0.363983
O O17 0.000000 0.700939 0.354333
#
# Coordination Sequence:
#
# PCOD9557225 Si02
#       6
#     8   8   8   8   4   8
#     4  10  21  36  55  80 108 137 170 208 249 295
#     4  10  21  36  54  76 102 133 169 209 252 298
#     4   8  14  26  44  64  87 117 151 186 228 280
#     4   9  18  33  50  67  93 129 162 194 240 295
#     4   9  18  34  54  75 104 140 172 205 248 293
#     4   9  17  29  46  68  92 118 152 195 238 280
#
# _framework density 17.285481999999998
#
# number of rings (size 3 to 8) (size 9 to 14) (size 15 to 20)
#    0.000    2.818    0.000    1.636    0.000    4.364 
#    0.000    4.545    0.000    1.091    0.000    0.000 
#    0.000    0.000    0.000    0.000    0.000    0.000 
#
# Total GULP energy -245315.516980 kJ/mol
# GULP energy per Si atom -5575.352659 kJ/mol
# Density = 1.724614 g / cm^3
# Si number density = 17.285482 Si / 1000 Ang^3
#
#
#
# Elastic Constant Matrix: (Units=GPa)
#
#
# Indices 1 2 3 4 5 6 
#
# 1 52.0353 43.5375 84.1858 0.0000 0.0000 0.0000
# 2 43.5375 52.0353 84.1858 0.0000 0.0000 0.0000
# 3 84.1858 84.1858 222.8831 0.0000 0.0000 0.0000
# 4 0.0000 0.0000 0.0000 53.6182 0.0000 0.0000
# 5 0.0000 0.0000 0.0000 0.0000 53.6182 0.0000
# 6 0.0000 0.0000 0.0000 0.0000 0.0000 19.4024
#
#
#
# Elastic Compliance Matrix: (Units=1/GPa)
#
#
# Indices 1 2 3 4 5 6 
#
# 1 0.074475 -0.043202 -0.011812 0.000000 0.000000 0.000000
# 2 -0.043202 0.074475 -0.011812 0.000000 0.000000 0.000000
# 3 -0.011812 -0.011812 0.013410 0.000000 0.000000 0.000000
# 4 0.000000 0.000000 0.000000 0.018650 0.000000 0.000000
# 5 0.000000 0.000000 0.000000 0.000000 0.018650 0.000000
# 6 0.000000 0.000000 0.000000 0.000000 0.000000 0.051540
#
#
# Mechanical properties :
#
#
# Convention : Reuss Voigt Hill
#
# Bulk Modulus (GPa) = 34.83481 83.41907 59.12694
# Shear Modulus (GPa) = 12.67675 32.99741 22.83708
#
# Velocity S-wave (km/s) = 2.71103 4.37391 3.63874
# Velocity P-wave (km/s) = 5.47686 8.59491 7.20654
#
# Compressibility (1/GPa) = 0.02870692
#
# Stress axis : x y z
#
# Youngs Moduli (GPa) = 13.42731 13.42731 74.57209
#
# Poissons Ratio (x) = 0.58009 0.88086
# Poissons Ratio (y) = 0.58009 0.88086
# Poissons Ratio (z) = 0.15861 0.15861
#
# Static dielectric constant tensor:
#      x y z
#    x 1.578380 0.000000 0.000000 
#    y 0.000000 1.578380 0.000000 
#    z 0.000000 0.000000 1.570260 
# 
# From -- ./inp_files/5733.got.cif
#   From: 2010.05.17/outbox.cif.g08.bks.cpg/sg115_3_cif.got.tgz:5733.got - 2010.05.20 11:07:42.
