data_PCOD9557900
_publ_section_title
;
Structure prediction by ZEFSAII (Michael W. Deem and Ramdas Pophale) SiO2 
 PCOD9557900
Probable space group: P -4 C 2
;
_chemical_formula_sum "Si O2"
_cell_formula_units_Z 24
_cell_length_a 9.692782
_cell_length_b 9.692782
_cell_length_c 10.109883
_cell_angle_alpha 90.000000
_cell_angle_beta 90.000000
_cell_angle_gamma 90.000000
_cell_volume 949.823739
_symmetry_space_group_name_H-M "P -4 C 2"
_symmetry_group_IT_number 116
_symmetry_cell_setting 'tetragonal'
loop_
_space_group_symop_operation_xyz
x,y,z
y,-x,-z
-x,-y,z
-y,x,-z
y,x,1/2-z
-y,-x,1/2-z
-x,y,1/2+z
x,-y,1/2+z
loop_
_atom_site_type_symbol
_atom_site_label
_atom_site_fract_x
_atom_site_fract_y
_atom_site_fract_z
Si Si1 0.252418 0.761551 0.079795
Si Si2 0.066113 0.247651 0.338249
Si Si3 0.470214 0.841602 0.862648
O O1 0.243225 0.611026 0.144022
O O2 0.260799 0.902549 0.162388
O O3 0.115586 0.771550 0.987810
O O4 0.374915 0.772070 0.972997
O O5 0.122248 0.122248 0.250000
O O6 0.138000 0.382281 0.271972
O O7 0.500000 0.000000 0.904892
#
# Coordination Sequence:
#
# PCOD9557900 Si02
#       3
#     8   8   8
#     4  11  24  52  79 110 164 203 264 330 390 475
#     4  10  25  50  76 117 155 206 265 324 402 465
#     4  11  25  48  79 114 157 209 255 326 399 464
#
# _framework density 25.267845000000001
#
# number of rings (size 3 to 8) (size 9 to 14) (size 15 to 20)
#    0.000    1.333    3.333    0.000    4.667    2.667 
#    6.000    0.000    7.333    0.000    0.000    0.000 
#    0.000    0.000    0.000    0.000    0.000    0.000 
#
# Total GULP energy -134528.893501 kJ/mol
# GULP energy per Si atom -5605.370563 kJ/mol
# Density = 2.521033 g / cm^3
# Si number density = 25.267845 Si / 1000 Ang^3
#
#
#
# Elastic Constant Matrix: (Units=GPa)
#
#
# Indices 1 2 3 4 5 6 
#
# 1 133.4023 50.5830 40.5875 0.0000 0.0000 0.0000
# 2 50.5830 133.4023 40.5875 0.0000 0.0000 0.0000
# 3 40.5875 40.5875 77.4650 0.0000 0.0000 0.0000
# 4 0.0000 0.0000 0.0000 43.2223 0.0000 0.0000
# 5 0.0000 0.0000 0.0000 0.0000 43.2223 0.0000
# 6 0.0000 0.0000 0.0000 0.0000 0.0000 51.8636
#
#
#
# Elastic Compliance Matrix: (Units=1/GPa)
#
#
# Indices 1 2 3 4 5 6 
#
# 1 0.009572 -0.002503 -0.003704 0.000000 0.000000 0.000000
# 2 -0.002503 0.009572 -0.003704 0.000000 0.000000 0.000000
# 3 -0.003704 -0.003704 0.016790 0.000000 0.000000 0.000000
# 4 0.000000 0.000000 0.000000 0.023136 0.000000 0.000000
# 5 0.000000 0.000000 0.000000 0.000000 0.023136 0.000000
# 6 0.000000 0.000000 0.000000 0.000000 0.000000 0.019281
#
#
# Mechanical properties :
#
#
# Convention : Reuss Voigt Hill
#
# Bulk Modulus (GPa) = 62.06047 67.53171 64.79609
# Shear Modulus (GPa) = 39.46943 41.82908 40.64925
#
# Velocity S-wave (km/s) = 3.95656 4.07311 4.01525
# Velocity P-wave (km/s) = 6.74439 6.99319 6.86991
#
# Compressibility (1/GPa) = 0.01611332
#
# Stress axis : x y z
#
# Youngs Moduli (GPa) = 104.47181 104.47181 59.55762
#
# Poissons Ratio (x) = 0.26144 0.22060
# Poissons Ratio (y) = 0.26144 0.22060
# Poissons Ratio (z) = 0.38696 0.38696
#
# Static dielectric constant tensor:
#      x y z
#    x 1.977450 0.000000 0.000000 
#    y 0.000000 1.977450 0.000000 
#    z 0.000000 0.000000 2.084490 
# 
# From -- ./inp_files/2283.got.cif
#   From: 2010.05.17/outbox.cif.g08.bks.cpg/sg116_2_cif.got.tgz:2283.got - 2010.05.20 11:11:43.
