data_PCOD9557642
_publ_section_title
;
Structure prediction by ZEFSAII (Michael W. Deem and Ramdas Pophale) SiO2 
 PCOD9557642
Probable space group: P -4 C 2
;
_chemical_formula_sum "Si O2"
_cell_formula_units_Z 40
_cell_length_a 8.126972
_cell_length_b 8.126972
_cell_length_c 26.741277
_cell_angle_alpha 90.000000
_cell_angle_beta 90.000000
_cell_angle_gamma 90.000000
_cell_volume 1766.199143
_symmetry_space_group_name_H-M "P -4 C 2"
_symmetry_group_IT_number 116
_symmetry_cell_setting 'tetragonal'
loop_
_space_group_symop_operation_xyz
x,y,z
y,-x,-z
-x,-y,z
-y,x,-z
y,x,1/2-z
-y,-x,1/2-z
-x,y,1/2+z
x,-y,1/2+z
loop_
_atom_site_type_symbol
_atom_site_label
_atom_site_fract_x
_atom_site_fract_y
_atom_site_fract_z
Si Si1 0.199688 0.694810 0.050939
Si Si2 0.697509 0.816925 0.442386
Si Si3 0.825008 0.966916 0.801971
Si Si4 0.201014 0.341111 0.849571
Si Si5 0.693056 0.189167 0.663810
O O1 0.208520 0.498818 0.057880
O O2 0.321984 0.779428 0.090841
O O3 0.010020 0.740754 0.060581
O O4 0.239710 0.744031 0.994449
O O5 0.771623 0.734527 0.393502
O O6 0.885148 0.885148 0.750000
O O7 0.719940 0.827040 0.828477
O O8 0.752820 0.150444 0.803197
O O9 0.000000 0.000000 0.830136
O O10 0.264448 0.512447 0.827757
O O11 0.009002 0.329532 0.833507
#
# Coordination Sequence:
#
# PCOD9557642 Si02
#       5
#     8   8   8   8   8
#     4  11  23  37  56  87 127 172 218 266 322 397
#     4  11  23  37  56  87 127 172 221 262 326 396
#     4   9  18  36  65  87 121 160 204 262 331 386
#     4  10  20  36  62  91 121 159 211 263 321 384
#     4  10  20  36  62  91 121 159 214 262 319 395
#
# _framework density 22.647504999999999
#
# number of rings (size 3 to 8) (size 9 to 14) (size 15 to 20)
#    0.000    1.800    2.000    2.400    0.000    8.000 
#    0.000    0.000   35.200    0.000    0.000    0.000 
#    0.000    0.000    0.000    0.000    0.000    0.000 
#
# Total GULP energy -223095.180786 kJ/mol
# GULP energy per Si atom -5577.379520 kJ/mol
# Density = 2.259596 g / cm^3
# Si number density = 22.647505 Si / 1000 Ang^3
#
#
#
# Elastic Constant Matrix: (Units=GPa)
#
#
# Indices 1 2 3 4 5 6 
#
# 1 94.5547 24.7190 26.6173 0.0000 0.0000 0.0000
# 2 24.7190 94.5547 26.6173 0.0000 0.0000 0.0000
# 3 26.6173 26.6173 95.7928 0.0000 0.0000 0.0000
# 4 0.0000 0.0000 0.0000 -2.4829 0.0000 0.0000
# 5 0.0000 0.0000 0.0000 0.0000 -2.4829 0.0000
# 6 0.0000 0.0000 0.0000 0.0000 0.0000 13.9655
#
#
#
# Elastic Compliance Matrix: (Units=1/GPa)
#
#
# Indices 1 2 3 4 5 6 
#
# 1 0.011945 -0.002374 -0.002659 0.000000 0.000000 0.000000
# 2 -0.002374 0.011945 -0.002659 0.000000 0.000000 0.000000
# 3 -0.002659 -0.002659 0.011917 0.000000 0.000000 0.000000
# 4 0.000000 0.000000 0.000000 -0.402748 0.000000 0.000000
# 5 0.000000 0.000000 0.000000 0.000000 -0.402748 0.000000
# 6 0.000000 0.000000 0.000000 0.000000 0.000000 0.071605
#
#
# Mechanical properties :
#
#
# Convention : Reuss Voigt Hill
#
# Bulk Modulus (GPa) = 48.96814 48.97883 48.97349
# Shear Modulus (GPa) = -7.39766 15.59649 4.09942
#
# Velocity S-wave (km/s) = -1.80929 2.62709 1.34686
# Velocity P-wave (km/s) = 4.15982 5.55659 4.90814
#
# Compressibility (1/GPa) = 0.02042144
#
# Stress axis : x y z
#
# Youngs Moduli (GPa) = 83.71577 83.71577 83.91286
#
# Poissons Ratio (x) = 0.19875 0.22316
# Poissons Ratio (y) = 0.19875 0.22316
# Poissons Ratio (z) = 0.22264 0.22264
#
# Static dielectric constant tensor:
#      x y z
#    x 1.901630 0.000000 0.000000 
#    y 0.000000 1.901630 0.000000 
#    z 0.000000 0.000000 1.856180 
# 
# From -- ./inp_files/4839.got.cif
#   From: 2010.05.17/outbox.cif.g08.bks.cpg/sg116_3_cif.got.tgz:4839.got - 2010.05.20 11:11:43.
