data_PCOD9557852
_publ_section_title
;
Structure prediction by ZEFSAII (Michael W. Deem and Ramdas Pophale) SiO2 
 PCOD9557852
Probable space group: P -4 C 2
;
_chemical_formula_sum "Si O2"
_cell_formula_units_Z 34
_cell_length_a 11.415820
_cell_length_b 11.415820
_cell_length_c 12.326837
_cell_angle_alpha 90.000000
_cell_angle_beta 90.000000
_cell_angle_gamma 90.000000
_cell_volume 1606.445062
_symmetry_space_group_name_H-M "P -4 C 2"
_symmetry_group_IT_number 116
_symmetry_cell_setting 'tetragonal'
loop_
_space_group_symop_operation_xyz
x,y,z
y,-x,-z
-x,-y,z
-y,x,-z
y,x,1/2-z
-y,-x,1/2-z
-x,y,1/2+z
x,-y,1/2+z
loop_
_atom_site_type_symbol
_atom_site_label
_atom_site_fract_x
_atom_site_fract_y
_atom_site_fract_z
Si Si1 0.368795 0.034838 0.841477
Si Si2 0.354686 0.308983 0.875432
Si Si3 0.179019 0.964593 0.665981
Si Si4 0.500000 0.500000 0.500000
Si Si5 0.235003 0.141147 0.497384
O O1 0.374200 0.169599 0.876662
O O2 0.500000 0.000000 0.815031
O O3 0.286611 0.010409 0.737922
O O4 0.313450 0.954542 0.935861
O O5 0.341755 0.341755 0.750000
O O6 0.233322 0.317517 0.941990
O O7 0.451029 0.392072 0.929148
O O8 0.082859 0.917142 0.750000
O O9 0.200884 0.851264 0.589997
O O10 0.153885 0.072947 0.585499
#
# Coordination Sequence:
#
# PCOD9557852 Si02
#       5
#     8   8   8   2   8
#     4  11  24  44  72 102 140 189 237 292 351 426
#     4  12  25  48  72 102 140 185 244 294 356 417
#     4  10  23  42  67 107 141 184 227 279 359 432
#     4  12  30  48  72  98 136 196 246 308 344 406
#     4  11  22  45  68 106 148 179 227 291 358 427
#
# _framework density 21.164745
#
# number of rings (size 3 to 8) (size 9 to 14) (size 15 to 20)
#    0.000    0.941    4.706    1.765    0.000    3.294 
#    4.235    4.706    0.000    0.000    0.000    0.000 
#    0.000    0.000    0.000    0.000    0.000    0.000 
#
# Total GULP energy -190076.913583 kJ/mol
# GULP energy per Si atom -5590.497458 kJ/mol
# Density = 2.111657 g / cm^3
# Si number density = 21.164745 Si / 1000 Ang^3
#
#
#
# Elastic Constant Matrix: (Units=GPa)
#
#
# Indices 1 2 3 4 5 6 
#
# 1 114.5800 75.9180 60.6546 0.0000 0.0000 0.0000
# 2 75.9180 114.5798 60.6549 0.0000 0.0000 0.0000
# 3 60.6546 60.6549 134.1573 0.0000 0.0000 0.0000
# 4 0.0000 0.0000 0.0000 16.0913 0.0000 0.0000
# 5 0.0000 0.0000 0.0000 0.0000 16.0919 0.0000
# 6 0.0000 0.0000 0.0000 0.0000 0.0000 39.1488
#
#
#
# Elastic Compliance Matrix: (Units=1/GPa)
#
#
# Indices 1 2 3 4 5 6 
#
# 1 0.016618 -0.009247 -0.003333 0.000000 0.000000 0.000000
# 2 -0.009247 0.016619 -0.003333 0.000000 0.000000 0.000000
# 3 -0.003333 -0.003333 0.010468 0.000000 0.000000 0.000000
# 4 0.000000 0.000000 0.000000 0.062145 0.000000 0.000000
# 5 0.000000 0.000000 0.000000 0.000000 0.062143 0.000000
# 6 0.000000 0.000000 0.000000 0.000000 0.000000 0.025544
#
#
# Mechanical properties :
#
#
# Convention : Reuss Voigt Hill
#
# Bulk Modulus (GPa) = 84.17778 84.19691 84.18734
# Shear Modulus (GPa) = 21.80341 25.33903 23.57122
#
# Velocity S-wave (km/s) = 3.21312 3.46385 3.34084
# Velocity P-wave (km/s) = 7.32287 7.47434 7.39899
#
# Compressibility (1/GPa) = 0.01187962
#
# Stress axis : x y z
#
# Youngs Moduli (GPa) = 60.17397 60.17361 95.53217
#
# Poissons Ratio (x) = 0.55641 0.31840
# Poissons Ratio (y) = 0.55641 0.31841
# Poissons Ratio (z) = 0.20055 0.20056
#
# Static dielectric constant tensor:
#      x y z
#    x 1.795150 0.000000 0.000000 
#    y 0.000000 1.795150 0.000000 
#    z 0.000000 0.000000 1.808690 
# 
# From -- ./inp_files/1609.got.cif
#   From: 2010.05.17/outbox.cif.g08.bks.cpg/sg116_1_cif.got.tgz:1609.got - 2010.05.20 11:11:43.
