data_PCOD9557153
_publ_section_title
;
Structure prediction by ZEFSAII (Michael W. Deem and Ramdas Pophale) SiO2 
 PCOD9557153
Probable space group: P -4 M 2
;
_chemical_formula_sum "Si O2"
_cell_formula_units_Z 44
_cell_length_a 8.111763
_cell_length_b 8.111763
_cell_length_c 32.840088
_cell_angle_alpha 90.000000
_cell_angle_beta 90.000000
_cell_angle_gamma 90.000000
_cell_volume 2160.900745
_symmetry_space_group_name_H-M "P -4 M 2"
_symmetry_group_IT_number 115
_symmetry_cell_setting 'tetragonal'
loop_
_space_group_symop_operation_xyz
x,y,z
y,-x,-z
-x,-y,z
-y,x,-z
y,x,-z
-y,-x,-z
-x,y,z
x,-y,z
loop_
_atom_site_type_symbol
_atom_site_label
_atom_site_fract_x
_atom_site_fract_y
_atom_site_fract_z
Si Si1 0.500000 0.300520 0.269005
Si Si2 0.197215 0.188365 0.128466
Si Si3 0.199705 0.500000 0.637342
Si Si4 0.814284 0.694970 0.956792
Si Si5 0.305487 0.305487 0.500000
Si Si6 0.818280 0.198965 0.412952
Si Si7 0.303817 0.188596 0.782512
O O1 0.500000 0.500000 0.265494
O O2 0.500000 0.253463 0.316082
O O3 0.667386 0.239127 0.246905
O O4 0.246549 0.267074 0.085338
O O5 0.242827 0.273027 0.170776
O O6 0.000000 0.182123 0.128439
O O7 0.262668 0.000000 0.129245
O O8 0.258818 0.335238 0.614076
O O9 0.000000 0.500000 0.635713
O O10 0.823916 0.500000 0.953926
O O11 0.000000 0.766979 0.957332
O O12 0.736599 0.736599 0.000000
O O13 0.277672 0.500000 0.506750
O O14 0.250235 0.211842 0.540463
O O15 0.000000 0.255998 0.399477
O O16 0.816846 0.000000 0.411286
O O17 0.500000 0.178257 0.776392
O O18 0.237770 0.000000 0.776864
#
# Coordination Sequence:
#
# PCOD9557153 Si02
#       7
#     4   8   4   8   4   8   8
#     4  10  22  38  58  82 112 148 188 236 290 348
#     4   9  18  33  54  79 105 134 172 221 272 327
#     4  10  22  40  58  84 120 154 196 250 300 354
#     4  10  21  35  51  74 104 139 178 218 265 324
#     4  11  22  35  56  88 124 159 202 251 296 354
#     4  10  21  38  60  85 117 159 203 247 302 361
#     4   9  19  36  56  80 109 142 182 228 284 347
#
# _framework density 20.361878000000001
#
# number of rings (size 3 to 8) (size 9 to 14) (size 15 to 20)
#    0.000    2.273    0.909    1.091    1.273    5.818 
#    0.000    1.818    0.000    0.000    0.000    0.000 
#    0.000    0.000    0.000    0.000    0.000    0.000 
#
# Total GULP energy -245449.835846 kJ/mol
# GULP energy per Si atom -5578.405360 kJ/mol
# Density = 2.031553 g / cm^3
# Si number density = 20.361878 Si / 1000 Ang^3
#
#
#
# Elastic Constant Matrix: (Units=GPa)
#
#
# Indices 1 2 3 4 5 6 
#
# 1 54.7466 35.5106 47.9763 0.0000 0.0000 0.0000
# 2 35.5106 54.7466 47.9763 0.0000 0.0000 0.0000
# 3 47.9763 47.9763 167.8520 0.0000 0.0000 0.0000
# 4 0.0000 0.0000 0.0000 28.0446 0.0000 0.0000
# 5 0.0000 0.0000 0.0000 0.0000 28.0446 0.0000
# 6 0.0000 0.0000 0.0000 0.0000 0.0000 12.1488
#
#
#
# Elastic Compliance Matrix: (Units=1/GPa)
#
#
# Indices 1 2 3 4 5 6 
#
# 1 0.033951 -0.018035 -0.004549 0.000000 0.000000 0.000000
# 2 -0.018035 0.033951 -0.004549 0.000000 0.000000 0.000000
# 3 -0.004549 -0.004549 0.008558 0.000000 0.000000 0.000000
# 4 0.000000 0.000000 0.000000 0.035658 0.000000 0.000000
# 5 0.000000 0.000000 0.000000 0.000000 0.035658 0.000000
# 6 0.000000 0.000000 0.000000 0.000000 0.000000 0.082313
#
#
# Mechanical properties :
#
#
# Convention : Reuss Voigt Hill
#
# Bulk Modulus (GPa) = 45.05932 60.03020 52.54476
# Shear Modulus (GPa) = 17.13788 23.37305 20.25546
#
# Velocity S-wave (km/s) = 2.90429 3.39172 3.15743
# Velocity P-wave (km/s) = 5.78134 6.69955 6.25731
#
# Compressibility (1/GPa) = 0.02219297
#
# Stress axis : x y z
#
# Youngs Moduli (GPa) = 29.45450 29.45450 116.84829
#
# Poissons Ratio (x) = 0.53121 0.53155
# Poissons Ratio (y) = 0.53121 0.53155
# Poissons Ratio (z) = 0.13399 0.13399
#
# Static dielectric constant tensor:
#      x y z
#    x 1.740040 0.000000 0.000000 
#    y 0.000000 1.740040 0.000000 
#    z 0.000000 0.000000 1.703800 
# 
# From -- ./inp_files/5885.got.cif
#   From: 2010.05.17/outbox.cif.g08.bks.cpg/sg115_3_cif.got.tgz:5885.got - 2010.05.20 11:07:42.
