data_PCOD9557740
_publ_section_title
;
Structure prediction by ZEFSAII (Michael W. Deem and Ramdas Pophale) SiO2 
 PCOD9557740
Probable space group: P -4 C 2
;
_chemical_formula_sum "Si O2"
_cell_formula_units_Z 48
_cell_length_a 8.452089
_cell_length_b 8.452089
_cell_length_c 28.339015
_cell_angle_alpha 90.000000
_cell_angle_beta 90.000000
_cell_angle_gamma 90.000000
_cell_volume 2024.477126
_symmetry_space_group_name_H-M "P -4 C 2"
_symmetry_group_IT_number 116
_symmetry_cell_setting 'tetragonal'
loop_
_space_group_symop_operation_xyz
x,y,z
y,-x,-z
-x,-y,z
-y,x,-z
y,x,1/2-z
-y,-x,1/2-z
-x,y,1/2+z
x,-y,1/2+z
loop_
_atom_site_type_symbol
_atom_site_label
_atom_site_fract_x
_atom_site_fract_y
_atom_site_fract_z
Si Si1 0.000000 0.500000 0.574168
Si Si2 0.498773 0.662298 0.649002
Si Si3 0.193735 0.763891 0.803892
Si Si4 0.000000 0.000000 0.352445
Si Si5 0.223269 0.788244 0.092856
Si Si6 0.327418 0.327418 0.750000
Si Si7 0.000000 0.500000 0.765549
Si Si8 0.613430 0.732749 0.497344
O O1 0.104830 0.363566 0.599949
O O2 0.132778 0.588461 0.541983
O O3 0.500000 0.500000 0.621068
O O4 0.315458 0.695619 0.658138
O O5 0.613363 0.774618 0.621138
O O6 0.579523 0.642420 0.701076
O O7 0.249138 0.750863 0.750000
O O8 0.053870 0.638432 0.800429
O O9 0.135725 0.934291 0.818135
O O10 0.937964 0.135810 0.385926
O O11 0.272560 0.795419 0.038546
O O12 0.147279 0.404306 0.739903
O O13 0.689305 0.563088 0.483177
#
# Coordination Sequence:
#
# PCOD9557740 Si02
#       8
#     4   8   8   4   8   4   4   8
#     4  10  24  45  71 108 134 182 232 286 357 429
#     4  11  24  42  67 100 135 180 238 294 339 409
#     4  11  25  43  66  91 137 194 237 283 353 418
#     4  12  27  44  63 104 144 180 228 300 357 411
#     4  11  27  42  71 106 139 184 230 296 349 418
#     4  10  21  40  63  94 136 187 230 280 355 408
#     4  10  22  39  65  88 126 180 246 282 337 421
#     4   9  21  44  73 100 140 183 227 281 359 440
#
# _framework density 23.709823
#
# number of rings (size 3 to 8) (size 9 to 14) (size 15 to 20)
#    0.000    1.500    0.000    4.500   11.667    4.667 
#    0.000    0.000    0.000    0.000    0.000    0.000 
#    0.000    0.000    0.000    0.000    0.000    0.000 
#
# Total GULP energy -267429.852540 kJ/mol
# GULP energy per Si atom -5571.455261 kJ/mol
# Density = 2.365586 g / cm^3
# Si number density = 23.709823 Si / 1000 Ang^3
#
#
#
# Elastic Constant Matrix: (Units=GPa)
#
#
# Indices 1 2 3 4 5 6 
#
# 1 70.0876 21.4319 11.6340 0.0000 0.0000 0.0000
# 2 21.4319 70.0877 11.6340 0.0000 0.0000 0.0000
# 3 11.6340 11.6340 46.6951 0.0000 0.0000 0.0000
# 4 0.0000 0.0000 0.0000 12.4760 0.0000 0.0000
# 5 0.0000 0.0000 0.0000 0.0000 12.4820 0.0000
# 6 0.0000 0.0000 0.0000 0.0000 0.0000 59.1846
#
#
#
# Elastic Compliance Matrix: (Units=1/GPa)
#
#
# Indices 1 2 3 4 5 6 
#
# 1 0.016109 -0.004443 -0.002906 0.000000 0.000000 0.000000
# 2 -0.004443 0.016109 -0.002906 0.000000 0.000000 0.000000
# 3 -0.002906 -0.002906 0.022864 0.000000 0.000000 0.000000
# 4 0.000000 0.000000 0.000000 0.080154 0.000000 0.000000
# 5 0.000000 0.000000 0.000000 0.000000 0.080116 0.000000
# 6 0.000000 0.000000 0.000000 0.000000 0.000000 0.016896
#
#
# Mechanical properties :
#
#
# Convention : Reuss Voigt Hill
#
# Bulk Modulus (GPa) = 28.92756 30.69669 29.81212
# Shear Modulus (GPa) = 18.91908 26.30656 22.61282
#
# Velocity S-wave (km/s) = 2.82785 3.33456 3.09161
# Velocity P-wave (km/s) = 4.78430 5.27263 5.03439
#
# Compressibility (1/GPa) = 0.03456912
#
# Stress axis : x y z
#
# Youngs Moduli (GPa) = 62.07684 62.07692 43.73722
#
# Poissons Ratio (x) = 0.27584 0.12712
# Poissons Ratio (y) = 0.27584 0.12712
# Poissons Ratio (z) = 0.18042 0.18042
#
# Static dielectric constant tensor:
#      x y z
#    x 2.323490 0.000000 0.000000 
#    y 0.000000 2.323450 0.000000 
#    z 0.000000 0.000000 1.898850 
# 
# From -- ./inp_files/5331.got.cif
#   From: 2010.05.17/outbox.cif.g08.bks.cpg/sg116_3_cif.got.tgz:5331.got - 2010.05.20 11:11:43.
