data_PCOD9557324
_publ_section_title
;
Structure prediction by ZEFSAII (Michael W. Deem and Ramdas Pophale) SiO2 
 PCOD9557324
Probable space group: P -4 M 2
;
_chemical_formula_sum "Si O2"
_cell_formula_units_Z 48
_cell_length_a 9.081414
_cell_length_b 9.081414
_cell_length_c 31.525804
_cell_angle_alpha 90.000000
_cell_angle_beta 90.000000
_cell_angle_gamma 90.000000
_cell_volume 2599.998637
_symmetry_space_group_name_H-M "P -4 M 2"
_symmetry_group_IT_number 115
_symmetry_cell_setting 'tetragonal'
loop_
_space_group_symop_operation_xyz
x,y,z
y,-x,-z
-x,-y,z
-y,x,-z
y,x,-z
-y,-x,-z
-x,y,z
x,-y,z
loop_
_atom_site_type_symbol
_atom_site_label
_atom_site_fract_x
_atom_site_fract_y
_atom_site_fract_z
Si Si1 0.325165 0.175399 0.540561
Si Si2 0.323383 0.673732 0.128631
Si Si3 0.174309 0.323834 0.621176
Si Si4 0.174104 0.675532 0.959981
Si Si5 0.326482 0.676437 0.710315
Si Si6 0.824018 0.173221 0.209172
O O1 0.253003 0.253003 0.500000
O O2 0.500000 0.203958 0.541323
O O3 0.250973 0.239039 0.582848
O O4 0.302625 0.000000 0.537862
O O5 0.500000 0.691871 0.133607
O O6 0.291053 0.500000 0.128743
O O7 0.281613 0.744826 0.083573
O O8 0.243336 0.753252 0.167281
O O9 0.193975 0.500000 0.614953
O O10 0.247912 0.284640 0.666092
O O11 0.000000 0.293847 0.622150
O O12 0.197349 0.500000 0.966042
O O13 0.000000 0.701599 0.955939
O O14 0.239834 0.760167 0.000000
O O15 0.500000 0.709941 0.708126
O O16 0.310762 0.500000 0.716197
O O17 0.251982 0.757511 0.749619
O O18 0.000000 0.188537 0.208927
O O19 0.787123 0.000000 0.210094
#
# Coordination Sequence:
#
# PCOD9557324 Si02
#       6
#     8   8   8   8   8   8
#     4  11  24  40  59  85 116 151 191 234 282 336
#     4  10  21  38  61  86 111 144 188 235 282 334
#     4  10  21  38  61  88 116 148 188 233 282 336
#     4  10  21  37  58  84 113 147 186 228 277 332
#     4  10  21  38  61  87 114 148 191 235 281 335
#     4  11  24  39  56  82 116 152 189 231 282 337
#
# _framework density 18.461548000000001
#
# number of rings (size 3 to 8) (size 9 to 14) (size 15 to 20)
#    0.000    1.667    0.000    4.000    0.000   12.000 
#    0.000    0.000    0.000    0.000    0.000    0.000 
#    0.000    0.000    0.000    0.000    0.000    0.000 
#
# Total GULP energy -268386.259031 kJ/mol
# GULP energy per Si atom -5591.380396 kJ/mol
# Density = 1.841953 g / cm^3
# Si number density = 18.461548 Si / 1000 Ang^3
#
#
#
# Elastic Constant Matrix: (Units=GPa)
#
#
# Indices 1 2 3 4 5 6 
#
# 1 109.4350 95.7730 110.6136 0.0000 0.0000 0.0000
# 2 95.7730 109.4340 110.6118 0.0000 0.0000 0.0000
# 3 110.6136 110.6118 213.0343 0.0000 0.0000 0.0000
# 4 0.0000 0.0000 0.0000 106.9310 0.0000 0.0000
# 5 0.0000 0.0000 0.0000 0.0000 106.9356 0.0000
# 6 0.0000 0.0000 0.0000 0.0000 0.0000 31.2607
#
#
#
# Elastic Compliance Matrix: (Units=1/GPa)
#
#
# Indices 1 2 3 4 5 6 
#
# 1 0.042134 -0.031065 -0.005748 0.000000 0.000000 0.000000
# 2 -0.031065 0.042133 -0.005747 0.000000 0.000000 0.000000
# 3 -0.005748 -0.005747 0.010662 0.000000 0.000000 0.000000
# 4 0.000000 0.000000 0.000000 0.009352 0.000000 0.000000
# 5 0.000000 0.000000 0.000000 0.000000 0.009351 0.000000
# 6 0.000000 0.000000 0.000000 0.000000 0.000000 0.031989
#
#
# Mechanical properties :
#
#
# Convention : Reuss Voigt Hill
#
# Bulk Modulus (GPa) = 101.92438 118.43334 110.17886
# Shear Modulus (GPa) = 21.36646 56.68579 39.02612
#
# Velocity S-wave (km/s) = 3.40567 5.54720 4.60272
# Velocity P-wave (km/s) = 8.41390 10.26252 9.38384
#
# Compressibility (1/GPa) = 0.00981120
#
# Stress axis : x y z
#
# Youngs Moduli (GPa) = 23.73369 23.73410 93.78756
#
# Poissons Ratio (x) = 0.73729 0.53908
# Poissons Ratio (y) = 0.73728 0.53898
# Poissons Ratio (z) = 0.13642 0.13640
#
# Static dielectric constant tensor:
#      x y z
#    x 1.615250 0.000000 0.000000 
#    y 0.000000 1.615250 0.000000 
#    z 0.000000 0.000000 1.589160 
# 
# From -- ./inp_files/6057.got.cif
#   From: 2010.05.17/outbox.cif.g08.bks.cpg/sg115_4_cif.got.tgz:6057.got - 2010.05.20 11:07:42.
