data_PCOD9557381
_publ_section_title
;
Structure prediction by ZEFSAII (Michael W. Deem and Ramdas Pophale) SiO2 
 PCOD9557381
Probable space group: P -4 M 2
;
_chemical_formula_sum "Si O2"
_cell_formula_units_Z 56
_cell_length_a 15.024269
_cell_length_b 15.024269
_cell_length_c 12.342346
_cell_angle_alpha 90.000000
_cell_angle_beta 90.000000
_cell_angle_gamma 90.000000
_cell_volume 2786.021211
_symmetry_space_group_name_H-M "P -4 M 2"
_symmetry_group_IT_number 115
_symmetry_cell_setting 'tetragonal'
loop_
_space_group_symop_operation_xyz
x,y,z
y,-x,-z
-x,-y,z
-y,x,-z
y,x,-z
-y,-x,-z
-x,y,z
x,-y,z
loop_
_atom_site_type_symbol
_atom_site_label
_atom_site_fract_x
_atom_site_fract_y
_atom_site_fract_z
Si Si1 0.718263 0.838215 0.033683
Si Si2 0.395746 0.744950 0.647193
Si Si3 0.780789 0.655648 0.599063
Si Si4 0.401910 0.900392 0.219771
Si Si5 0.902017 0.893754 0.153774
Si Si6 0.394713 0.102031 0.827940
Si Si7 0.896719 0.834126 0.611382
O O1 0.867293 0.813038 0.910853
O O2 0.672672 0.884582 0.929521
O O3 0.737430 0.737430 0.000000
O O4 0.654123 0.848741 0.132985
O O5 0.500000 0.717836 0.660192
O O6 0.380968 0.776009 0.522667
O O7 0.317205 0.670706 0.651623
O O8 0.378287 0.824256 0.734143
O O9 0.845246 0.597184 0.671169
O O10 0.830765 0.750840 0.601949
O O11 0.500000 0.908631 0.175363
O O12 0.365161 0.000000 0.234732
O O13 0.887537 0.871064 0.280069
O O14 0.000000 0.859581 0.117394
O O15 0.906398 0.000000 0.145679
O O16 0.500000 0.111342 0.860246
O O17 0.383656 0.000000 0.788440
O O18 0.887685 0.887685 0.500000
O O19 0.000000 0.807351 0.623851
#
# Coordination Sequence:
#
# PCOD9557381 Si02
#       7
#     8   8   8   8   8   8   8
#     4  12  24  39  58  86 121 165 209 261 308 373
#     4  10  22  41  63  89 124 162 207 258 318 389
#     4  11  21  40  62  96 124 162 203 260 324 389
#     4  11  23  40  66  96 125 160 204 260 323 381
#     4  10  22  38  54  78 117 166 217 260 300 357
#     4  10  22  40  62  88 119 161 212 266 323 379
#     4  11  21  36  57  84 122 169 214 255 306 376
#
# _framework density 20.100349000000001
#
# number of rings (size 3 to 8) (size 9 to 14) (size 15 to 20)
#    0.000    1.286    2.857    3.857    0.000    4.714 
#    0.000    2.143    0.000    7.286    0.000    0.000 
#    0.000    3.714    0.000    0.000    0.000    0.000 
#
# Total GULP energy -312219.746158 kJ/mol
# GULP energy per Si atom -5575.352610 kJ/mol
# Density = 2.005460 g / cm^3
# Si number density = 20.100349 Si / 1000 Ang^3
#
#
#
# Elastic Constant Matrix: (Units=GPa)
#
#
# Indices 1 2 3 4 5 6 
#
# 1 74.0705 9.3774 20.7806 0.0000 0.0000 0.0000
# 2 9.3774 74.0705 20.7806 0.0000 0.0000 0.0000
# 3 20.7806 20.7806 101.2678 0.0000 0.0000 0.0000
# 4 0.0000 0.0000 0.0000 66.7251 0.0000 0.0000
# 5 0.0000 0.0000 0.0000 0.0000 66.7251 0.0000
# 6 0.0000 0.0000 0.0000 0.0000 0.0000 482.9259
#
#
#
# Elastic Compliance Matrix: (Units=1/GPa)
#
#
# Indices 1 2 3 4 5 6 
#
# 1 0.014403 -0.001055 -0.002739 0.000000 0.000000 0.000000
# 2 -0.001055 0.014403 -0.002739 0.000000 0.000000 0.000000
# 3 -0.002739 -0.002739 0.010999 0.000000 0.000000 0.000000
# 4 0.000000 0.000000 0.000000 0.014987 0.000000 0.000000
# 5 0.000000 0.000000 0.000000 0.000000 0.014987 0.000000
# 6 0.000000 0.000000 0.000000 0.000000 0.000000 0.002071
#
#
# Mechanical properties :
#
#
# Convention : Reuss Voigt Hill
#
# Bulk Modulus (GPa) = 37.39958 39.03178 38.21568
# Shear Modulus (GPa) = 53.28938 136.50657 94.89798
#
# Velocity S-wave (km/s) = 5.15453 8.24985 6.87856
# Velocity P-wave (km/s) = 7.35340 10.49796 9.06310
#
# Compressibility (1/GPa) = 0.02673827
#
# Stress axis : x y z
#
# Youngs Moduli (GPa) = 69.43171 69.43171 90.91808
#
# Poissons Ratio (x) = 0.07325 0.24902
# Poissons Ratio (y) = 0.07325 0.24902
# Poissons Ratio (z) = 0.19017 0.19017
#
# Static dielectric constant tensor:
#      x y z
#    x 1.700780 0.000000 0.000000 
#    y 0.000000 1.700780 0.000000 
#    z 0.000000 0.000000 1.830860 
# 
# From -- ./inp_files/3068.got.cif
#   From: 2010.05.17/outbox.cif.g08.bks.cpg/sg115_2_cif.got.tgz:3068.got - 2010.05.20 11:07:42.
