data_PCOD9557539
_publ_section_title
;
Structure prediction by ZEFSAII (Michael W. Deem and Ramdas Pophale) SiO2 
 PCOD9557539
Probable space group: P -4 C 2
;
_chemical_formula_sum "Si O2"
_cell_formula_units_Z 54
_cell_length_a 15.343532
_cell_length_b 15.343532
_cell_length_c 12.103872
_cell_angle_alpha 90.000000
_cell_angle_beta 90.000000
_cell_angle_gamma 90.000000
_cell_volume 2849.541650
_symmetry_space_group_name_H-M "P -4 C 2"
_symmetry_group_IT_number 116
_symmetry_cell_setting 'tetragonal'
loop_
_space_group_symop_operation_xyz
x,y,z
y,-x,-z
-x,-y,z
-y,x,-z
y,x,1/2-z
-y,-x,1/2-z
-x,y,1/2+z
x,-y,1/2+z
loop_
_atom_site_type_symbol
_atom_site_label
_atom_site_fract_x
_atom_site_fract_y
_atom_site_fract_z
Si Si1 0.093353 0.648809 0.702385
Si Si2 0.307151 0.204095 0.512827
Si Si3 0.741861 0.349418 0.852703
Si Si4 0.500000 0.500000 0.000000
Si Si5 0.867709 0.463430 0.123227
Si Si6 0.700851 0.487915 0.500962
Si Si7 0.661294 0.081969 0.198278
Si Si8 0.500000 0.000000 0.062037
O O1 0.134044 0.680359 0.586713
O O2 0.164945 0.652399 0.796611
O O3 0.084723 0.545300 0.681773
O O4 0.006647 0.695683 0.745097
O O5 0.253495 0.280066 0.452964
O O6 0.396156 0.258305 0.538796
O O7 0.284548 0.146396 0.619696
O O8 0.679572 0.320429 0.750000
O O9 0.712657 0.440738 0.904690
O O10 0.399216 0.486521 0.042484
O O11 0.867434 0.379963 0.199286
O O12 0.924435 0.455231 0.012222
O O13 0.768651 0.487867 0.096990
O O14 0.578404 0.047575 0.126007
#
# Coordination Sequence:
#
# PCOD9557539 Si02
#       8
#     8   8   8   2   8   8   8   4
#     4  10  18  31  53  81 102 135 174 215 293 365
#     4  10  21  35  54  75 109 142 185 237 287 327
#     4  10  21  37  57  74 104 146 188 235 290 328
#     4  12  24  40  58  64  96 154 232 248 270 304
#     4  11  20  31  52  84 106 130 178 243 311 343
#     4  11  21  38  55  70 100 144 202 261 273 321
#     4  12  18  31  54  81 110 135 171 226 300 378
#     4  12  16  28  50  82 110 126 164 226 304 388
#
# _framework density 18.950416000000001
#
# number of rings (size 3 to 8) (size 9 to 14) (size 15 to 20)
#    0.000    1.185    7.407    1.778    0.000    0.000 
#    0.000    1.111    6.519    0.000    0.000    0.000 
#    0.000    0.593    0.000    6.074    0.000    1.481 
#
# Total GULP energy -300666.727926 kJ/mol
# GULP energy per Si atom -5567.902369 kJ/mol
# Density = 1.890728 g / cm^3
# Si number density = 18.950416 Si / 1000 Ang^3
#
#
#
# Elastic Constant Matrix: (Units=GPa)
#
#
# Indices 1 2 3 4 5 6 
#
# 1 65.6218 3.8652 11.3141 0.0000 0.0000 0.0000
# 2 3.8652 65.6222 11.3147 0.0000 0.0000 0.0000
# 3 11.3141 11.3147 40.6355 0.0000 0.0000 0.0000
# 4 0.0000 0.0000 0.0000 20.0992 0.0000 0.0000
# 5 0.0000 0.0000 0.0000 0.0000 20.1029 0.0000
# 6 0.0000 0.0000 0.0000 0.0000 0.0000 -2.3288
#
#
#
# Elastic Compliance Matrix: (Units=1/GPa)
#
#
# Indices 1 2 3 4 5 6 
#
# 1 0.016009 -0.000183 -0.004406 0.000000 0.000000 0.000000
# 2 -0.000183 0.016009 -0.004407 0.000000 0.000000 0.000000
# 3 -0.004406 -0.004407 0.027063 0.000000 0.000000 0.000000
# 4 0.000000 0.000000 0.000000 0.049753 0.000000 0.000000
# 5 0.000000 0.000000 0.000000 0.000000 0.049744 0.000000
# 6 0.000000 0.000000 0.000000 0.000000 0.000000 -0.429404
#
#
# Mechanical properties :
#
#
# Convention : Reuss Voigt Hill
#
# Bulk Modulus (GPa) = 24.33746 24.98529 24.66138
# Shear Modulus (GPa) = -20.90863 17.26701 -1.82081
#
# Velocity S-wave (km/s) = -3.32525 3.02183 -0.98128
# Velocity P-wave (km/s) = 1.36838 5.03870 3.42899
#
# Compressibility (1/GPa) = 0.04108892
#
# Stress axis : x y z
#
# Youngs Moduli (GPa) = 62.46344 62.46348 36.95087
#
# Poissons Ratio (x) = 0.01144 0.16282
# Poissons Ratio (y) = 0.01144 0.16283
# Poissons Ratio (z) = 0.27524 0.27526
#
# Static dielectric constant tensor:
#      x y z
#    x 1.741190 0.000000 0.000000 
#    y 0.000000 1.741200 0.000000 
#    z 0.000000 0.000000 1.736080 
# 
# From -- ./inp_files/2077.got.cif
#   From: 2010.05.17/outbox.cif.g08.bks.cpg/sg116_2_cif.got.tgz:2077.got - 2010.05.20 11:11:43.
