data_PCOD9557917
_publ_section_title
;
Structure prediction by ZEFSAII (Michael W. Deem and Ramdas Pophale) SiO2 
 PCOD9557917
Probable space group: P -4 C 2
;
_chemical_formula_sum "Si O2"
_cell_formula_units_Z 38
_cell_length_a 10.812663
_cell_length_b 10.812663
_cell_length_c 17.380153
_cell_angle_alpha 90.000000
_cell_angle_beta 90.000000
_cell_angle_gamma 90.000000
_cell_volume 2031.977666
_symmetry_space_group_name_H-M "P -4 C 2"
_symmetry_group_IT_number 116
_symmetry_cell_setting 'tetragonal'
loop_
_space_group_symop_operation_xyz
x,y,z
y,-x,-z
-x,-y,z
-y,x,-z
y,x,1/2-z
-y,-x,1/2-z
-x,y,1/2+z
x,-y,1/2+z
loop_
_atom_site_type_symbol
_atom_site_label
_atom_site_fract_x
_atom_site_fract_y
_atom_site_fract_z
Si Si1 0.490922 0.767926 0.773883
Si Si2 0.888694 0.331595 0.105981
Si Si3 0.941399 0.256242 0.740605
Si Si4 0.000000 0.500000 0.475659
Si Si5 0.665543 0.153935 0.140023
Si Si6 0.500000 0.500000 0.250000
O O1 0.555011 0.845529 0.840457
O O2 0.365429 0.839117 0.752993
O O3 0.581694 0.769741 0.700244
O O4 0.485642 0.625564 0.798672
O O5 0.935790 0.394878 0.028394
O O6 0.773618 0.236836 0.103243
O O7 0.995433 0.267492 0.156954
O O8 0.872470 0.127531 0.750000
O O9 0.045200 0.277632 0.805972
O O10 0.095607 0.573639 0.422003
#
# Coordination Sequence:
#
# PCOD9557917 Si02
#       6
#     8   8   8   4   8   2
#     4  11  19  39  64  92 123 155 201 266 315 357
#     4  11  23  42  62  88 126 165 207 259 315 375
#     4  11  21  38  70  95 120 161 213 261 314 373
#     4  12  24  42  60  88 132 178 200 248 328 386
#     4  11  23  42  62  88 126 165 207 259 315 375
#     4  12  20  32  72 106 116 140 220 286 304 364
#
# _framework density 18.700991999999999
#
# number of rings (size 3 to 8) (size 9 to 14) (size 15 to 20)
#    0.000    0.842    7.368    3.158    0.000    3.368 
#    3.789    0.000    0.000    0.000    0.000    0.000 
#    0.000    0.000    0.000    0.000    0.000    0.000 
#
# Total GULP energy -212070.365869 kJ/mol
# GULP energy per Si atom -5580.799102 kJ/mol
# Density = 1.865843 g / cm^3
# Si number density = 18.700992 Si / 1000 Ang^3
#
#
#
# Elastic Constant Matrix: (Units=GPa)
#
#
# Indices 1 2 3 4 5 6 
#
# 1 86.5864 42.5608 31.2853 0.0000 0.0000 0.0000
# 2 42.5608 86.5892 31.2851 0.0000 0.0000 0.0000
# 3 31.2853 31.2851 89.1703 0.0000 0.0000 0.0000
# 4 0.0000 0.0000 0.0000 -3.0549 0.0000 0.0000
# 5 0.0000 0.0000 0.0000 0.0000 -3.0554 0.0000
# 6 0.0000 0.0000 0.0000 0.0000 0.0000 49.6824
#
#
#
# Elastic Compliance Matrix: (Units=1/GPa)
#
#
# Indices 1 2 3 4 5 6 
#
# 1 0.016021 -0.006692 -0.003273 0.000000 0.000000 0.000000
# 2 -0.006692 0.016021 -0.003273 0.000000 0.000000 0.000000
# 3 -0.003273 -0.003273 0.013511 0.000000 0.000000 0.000000
# 4 0.000000 0.000000 0.000000 -0.327346 0.000000 0.000000
# 5 0.000000 0.000000 0.000000 0.000000 -0.327292 0.000000
# 6 0.000000 0.000000 0.000000 0.000000 0.000000 0.020128
#
#
# Mechanical properties :
#
#
# Convention : Reuss Voigt Hill
#
# Bulk Modulus (GPa) = 52.41996 52.51205 52.46601
# Shear Modulus (GPa) = -8.99086 19.19540 5.10227
#
# Velocity S-wave (km/s) = -2.19502 3.20728 1.65356
# Velocity P-wave (km/s) = 4.65481 6.46965 5.63576
#
# Compressibility (1/GPa) = 0.01907670
#
# Stress axis : x y z
#
# Youngs Moduli (GPa) = 62.41670 62.41912 74.01309
#
# Poissons Ratio (x) = 0.41773 0.24225
# Poissons Ratio (y) = 0.41771 0.24223
# Poissons Ratio (z) = 0.20430 0.20429
#
# Static dielectric constant tensor:
#      x y z
#    x 1.677440 0.000000 0.000000 
#    y 0.000000 1.677440 0.000000 
#    z 0.000000 0.000000 1.613970 
# 
# From -- ./inp_files/2622.got.cif
#   From: 2010.05.17/outbox.cif.g08.bks.cpg/sg116_2_cif.got.tgz:2622.got - 2010.05.20 11:11:43.
