data_PCOD9557785
_publ_section_title
;
Structure prediction by ZEFSAII (Michael W. Deem and Ramdas Pophale) SiO2 
 PCOD9557785
Probable space group: P -4 C 2
;
_chemical_formula_sum "Si O2"
_cell_formula_units_Z 24
_cell_length_a 10.314160
_cell_length_b 10.314160
_cell_length_c 10.810663
_cell_angle_alpha 90.000000
_cell_angle_beta 90.000000
_cell_angle_gamma 90.000000
_cell_volume 1150.058832
_symmetry_space_group_name_H-M "P -4 C 2"
_symmetry_group_IT_number 116
_symmetry_cell_setting 'tetragonal'
loop_
_space_group_symop_operation_xyz
x,y,z
y,-x,-z
-x,-y,z
-y,x,-z
y,x,1/2-z
-y,-x,1/2-z
-x,y,1/2+z
x,-y,1/2+z
loop_
_atom_site_type_symbol
_atom_site_label
_atom_site_fract_x
_atom_site_fract_y
_atom_site_fract_z
Si Si1 0.813494 0.402617 0.114174
Si Si2 0.813494 0.402617 0.385826
Si Si3 1.000000 0.793072 0.500000
O O1 0.820410 0.464671 0.250000
O O2 0.682329 0.317671 0.106852
O O3 0.819559 0.500000 1.000000
O O4 0.930190 0.300010 0.097706
O O5 0.930190 0.300010 0.402294
O O6 0.112157 0.887843 0.551142
#
# Coordination Sequence:
#
# PCOD9557785 Si02
#       3
#     8   8   8
#     4  10  22  39  59  85 116 151 192 237 285 337
#     4  10  22  39  59  85 116 151 192 237 285 337
#     4   9  19  36  58  86 119 151 184 228 284 343
#
# _framework density 20.868497000000001
#
# number of rings (size 3 to 8) (size 9 to 14) (size 15 to 20)
#    0.000    2.333    0.000    1.000    0.000    8.667 
#    0.000   16.667    0.000    0.000    0.000    0.000 
#    0.000    0.000    0.000    0.000    0.000    0.000 
#
# Total GULP energy -133922.736410 kJ/mol
# GULP energy per Si atom -5580.114017 kJ/mol
# Density = 2.082100 g / cm^3
# Si number density = 20.868497 Si / 1000 Ang^3
#
#
#
# Elastic Constant Matrix: (Units=GPa)
#
#
# Indices 1 2 3 4 5 6 
#
# 1 94.4833 25.1375 74.1191 0.0000 0.0000 0.0000
# 2 25.1375 94.4833 74.1191 0.0000 0.0000 0.0000
# 3 74.1191 74.1191 191.6790 0.0000 0.0000 0.0000
# 4 0.0000 0.0000 0.0000 11.3635 0.0000 0.0000
# 5 0.0000 0.0000 0.0000 0.0000 11.3635 0.0000
# 6 0.0000 0.0000 0.0000 0.0000 0.0000 19.3813
#
#
#
# Elastic Compliance Matrix: (Units=1/GPa)
#
#
# Indices 1 2 3 4 5 6 
#
# 1 0.015236 0.000816 -0.006207 0.000000 0.000000 0.000000
# 2 0.000816 0.015236 -0.006207 0.000000 0.000000 0.000000
# 3 -0.006207 -0.006207 0.010017 0.000000 0.000000 0.000000
# 4 0.000000 0.000000 0.000000 0.088001 0.000000 0.000000
# 5 0.000000 0.000000 0.000000 0.000000 0.088001 0.000000
# 6 0.000000 0.000000 0.000000 0.000000 0.000000 0.051596
#
#
# Mechanical properties :
#
#
# Convention : Reuss Voigt Hill
#
# Bulk Modulus (GPa) = 57.82747 80.82189 69.32468
# Shear Modulus (GPa) = 16.83232 22.23967 19.53599
#
# Velocity S-wave (km/s) = 2.84313 3.26806 3.06297
# Velocity P-wave (km/s) = 6.20874 7.28378 6.76764
#
# Compressibility (1/GPa) = 0.01729282
#
# Stress axis : x y z
#
# Youngs Moduli (GPa) = 65.63407 65.63407 99.82798
#
# Poissons Ratio (x) = -0.05352 0.61962
# Poissons Ratio (y) = -0.05352 0.61962
# Poissons Ratio (z) = 0.40738 0.40738
#
# Static dielectric constant tensor:
#      x y z
#    x 1.768450 0.000000 0.000000 
#    y 0.000000 1.768450 0.000000 
#    z 0.000000 0.000000 1.723050 
# 
# From -- ./inp_files/454.got.cif
#   From: 2010.05.17/outbox.cif.g08.bks.cpg/sg116_1_cif.got.tgz:454.got - 2010.05.20 11:11:43.
