data_PCOD9557052
_publ_section_title
;
Structure prediction by ZEFSAII (Michael W. Deem and Ramdas Pophale) SiO2 
 PCOD9557052
Probable space group: P -4 M 2
;
_chemical_formula_sum "Si O2"
_cell_formula_units_Z 48
_cell_length_a 13.844288
_cell_length_b 13.844288
_cell_length_c 12.569326
_cell_angle_alpha 90.000000
_cell_angle_beta 90.000000
_cell_angle_gamma 90.000000
_cell_volume 2409.091198
_symmetry_space_group_name_H-M "P -4 M 2"
_symmetry_group_IT_number 115
_symmetry_cell_setting 'tetragonal'
loop_
_space_group_symop_operation_xyz
x,y,z
y,-x,-z
-x,-y,z
-y,x,-z
y,x,-z
-y,-x,-z
-x,y,z
x,-y,z
loop_
_atom_site_type_symbol
_atom_site_label
_atom_site_fract_x
_atom_site_fract_y
_atom_site_fract_z
Si Si1 0.116834 0.738392 0.041301
Si Si2 0.885675 0.396019 0.466358
Si Si3 0.251781 0.887823 0.354232
Si Si4 0.384096 0.612529 0.626821
Si Si5 0.606533 0.114400 0.153333
Si Si6 0.299549 0.803510 0.726138
O O1 0.164658 0.706277 0.152288
O O2 0.000000 0.740573 0.049781
O O3 0.159731 0.840270 0.000000
O O4 0.149823 0.663906 0.949360
O O5 0.843616 0.500000 0.498005
O O6 0.854965 0.308454 0.540817
O O7 0.863186 0.374756 0.344516
O O8 0.000000 0.400709 0.483208
O O9 0.329297 0.880309 0.258597
O O10 0.175279 0.807092 0.322371
O O11 0.220419 0.000000 0.362388
O O12 0.368432 0.631569 0.500000
O O13 0.500000 0.622138 0.643911
O O14 0.358807 0.500000 0.648035
O O15 0.329373 0.692507 0.698107
O O16 0.500000 0.156641 0.166499
O O17 0.596465 0.000000 0.134782
#
# Coordination Sequence:
#
# PCOD9557052 Si02
#       6
#     8   8   8   8   8   8
#     4  11  24  43  61  84 114 151 199 252 308 365
#     4  10  21  36  56  87 123 156 191 236 295 356
#     4  10  20  35  56  83 119 152 189 240 292 346
#     4   9  19  36  58  88 128 169 206 242 285 349
#     4   9  18  35  59  83 108 142 188 242 295 343
#     4  12  22  35  59  88 118 156 196 248 295 357
#
# _framework density 19.924524999999999
#
# number of rings (size 3 to 8) (size 9 to 14) (size 15 to 20)
#    0.000    1.833    1.667    3.500    0.000    6.167 
#    0.000    1.667    0.000    1.500    0.000    5.833 
#    0.000    0.000    0.000    0.000    0.000    0.000 
#
# Total GULP energy -267701.575847 kJ/mol
# GULP energy per Si atom -5577.116163 kJ/mol
# Density = 1.987918 g / cm^3
# Si number density = 19.924525 Si / 1000 Ang^3
#
#
#
# Elastic Constant Matrix: (Units=GPa)
#
#
# Indices 1 2 3 4 5 6 
#
# 1 45.3104 14.8219 9.6025 0.0000 0.0000 0.0000
# 2 14.8219 45.3099 9.6022 0.0000 0.0000 0.0000
# 3 9.6025 9.6022 106.8873 0.0000 0.0000 0.0000
# 4 0.0000 0.0000 0.0000 17.0316 0.0000 0.0000
# 5 0.0000 0.0000 0.0000 0.0000 17.0315 0.0000
# 6 0.0000 0.0000 0.0000 0.0000 0.0000 25.1169
#
#
#
# Elastic Compliance Matrix: (Units=1/GPa)
#
#
# Indices 1 2 3 4 5 6 
#
# 1 0.024960 -0.007839 -0.001538 0.000000 0.000000 0.000000
# 2 -0.007839 0.024961 -0.001538 0.000000 0.000000 0.000000
# 3 -0.001538 -0.001538 0.009632 0.000000 0.000000 0.000000
# 4 0.000000 0.000000 0.000000 0.058714 0.000000 0.000000
# 5 0.000000 0.000000 0.000000 0.000000 0.058715 0.000000
# 6 0.000000 0.000000 0.000000 0.000000 0.000000 0.039814
#
#
# Mechanical properties :
#
#
# Convention : Reuss Voigt Hill
#
# Bulk Modulus (GPa) = 26.50959 29.50673 28.00816
# Shear Modulus (GPa) = 19.90444 22.73475 21.31960
#
# Velocity S-wave (km/s) = 3.16411 3.38160 3.27466
# Velocity P-wave (km/s) = 5.16553 5.48528 5.32781
#
# Compressibility (1/GPa) = 0.03772220
#
# Stress axis : x y z
#
# Youngs Moduli (GPa) = 40.06363 40.06323 103.82061
#
# Poissons Ratio (x) = 0.31406 0.15969
# Poissons Ratio (y) = 0.31406 0.15968
# Poissons Ratio (z) = 0.06162 0.06162
#
# Static dielectric constant tensor:
#      x y z
#    x 1.755760 0.000000 0.000000 
#    y 0.000000 1.755760 0.000000 
#    z 0.000000 0.000000 1.681570 
# 
# From -- ./inp_files/2940.got.cif
#   From: 2010.05.17/outbox.cif.g08.bks.cpg/sg115_2_cif.got.tgz:2940.got - 2010.05.20 11:07:42.
