data_PCOD9557716
_publ_section_title
;
Structure prediction by ZEFSAII (Michael W. Deem and Ramdas Pophale) SiO2 
 PCOD9557716
Probable space group: P -4 C 2
;
_chemical_formula_sum "Si O2"
_cell_formula_units_Z 40
_cell_length_a 11.471454
_cell_length_b 11.471454
_cell_length_c 15.278097
_cell_angle_alpha 90.000000
_cell_angle_beta 90.000000
_cell_angle_gamma 90.000000
_cell_volume 2010.509821
_symmetry_space_group_name_H-M "P -4 C 2"
_symmetry_group_IT_number 116
_symmetry_cell_setting 'tetragonal'
loop_
_space_group_symop_operation_xyz
x,y,z
y,-x,-z
-x,-y,z
-y,x,-z
y,x,1/2-z
-y,-x,1/2-z
-x,y,1/2+z
x,-y,1/2+z
loop_
_atom_site_type_symbol
_atom_site_label
_atom_site_fract_x
_atom_site_fract_y
_atom_site_fract_z
Si Si1 0.367202 0.644494 0.994319
Si Si2 0.780568 0.981250 0.411142
Si Si3 0.202953 0.738364 0.848427
Si Si4 0.005231 0.365217 0.766819
Si Si5 0.246661 0.145099 0.586417
O O1 0.303267 0.729279 0.063437
O O2 0.507078 0.658639 0.994011
O O3 0.307975 0.690367 0.905426
O O4 0.847174 0.860965 0.385478
O O5 0.695483 0.991457 0.327505
O O6 0.725857 0.943341 0.504803
O O7 0.845007 0.105275 0.413841
O O8 0.242446 0.757555 0.750000
O O9 0.099301 0.649653 0.836753
O O10 0.000000 0.500000 0.747648
O O11 0.106777 0.301323 0.821300
#
# Coordination Sequence:
#
# PCOD9557716 Si02
#       5
#     8   8   8   8   8
#     4  10  21  38  59  85 118 159 209 260 311 373
#     4  10  23  39  59  89 122 157 203 252 301 365
#     4   9  20  39  59  83 119 159 197 250 314 366
#     4  11  23  39  62  91 123 160 202 251 308 375
#     4  11  22  39  63  90 122 162 206 256 315 372
#
# _framework density 19.895453
#
# number of rings (size 3 to 8) (size 9 to 14) (size 15 to 20)
#    0.000    1.800    0.000    4.200    0.000    8.400 
#    0.000    9.000    0.000    0.000    0.000    0.000 
#    0.000    0.000    0.000    0.000    0.000    0.000 
#
# Total GULP energy -222682.527408 kJ/mol
# GULP energy per Si atom -5567.063185 kJ/mol
# Density = 1.985017 g / cm^3
# Si number density = 19.895453 Si / 1000 Ang^3
#
#
#
# Elastic Constant Matrix: (Units=GPa)
#
#
# Indices 1 2 3 4 5 6 
#
# 1 91.5604 28.6650 39.6108 0.0000 0.0000 0.0000
# 2 28.6650 91.5599 39.6102 0.0000 0.0000 0.0000
# 3 39.6108 39.6102 108.0247 0.0000 0.0000 0.0000
# 4 0.0000 0.0000 0.0000 8.4685 0.0000 0.0000
# 5 0.0000 0.0000 0.0000 0.0000 8.4687 0.0000
# 6 0.0000 0.0000 0.0000 0.0000 0.0000 24.3080
#
#
#
# Elastic Compliance Matrix: (Units=1/GPa)
#
#
# Indices 1 2 3 4 5 6 
#
# 1 0.013434 -0.002466 -0.004022 0.000000 0.000000 0.000000
# 2 -0.002466 0.013434 -0.004022 0.000000 0.000000 0.000000
# 3 -0.004022 -0.004022 0.012206 0.000000 0.000000 0.000000
# 4 0.000000 0.000000 0.000000 0.118085 0.000000 0.000000
# 5 0.000000 0.000000 0.000000 0.000000 0.118082 0.000000
# 6 0.000000 0.000000 0.000000 0.000000 0.000000 0.041139
#
#
# Mechanical properties :
#
#
# Convention : Reuss Voigt Hill
#
# Bulk Modulus (GPa) = 55.38527 56.32413 55.85470
# Shear Modulus (GPa) = 14.55961 20.46631 17.51296
#
# Velocity S-wave (km/s) = 2.70813 3.21080 2.97012
# Velocity P-wave (km/s) = 6.13817 6.48978 6.31642
#
# Compressibility (1/GPa) = 0.01805534
#
# Stress axis : x y z
#
# Youngs Moduli (GPa) = 74.44020 74.44009 81.92378
#
# Poissons Ratio (x) = 0.18356 0.32947
# Poissons Ratio (y) = 0.18356 0.32947
# Poissons Ratio (z) = 0.29938 0.29937
#
# Static dielectric constant tensor:
#      x y z
#    x 1.750370 0.000000 0.000000 
#    y 0.000000 1.750380 0.000000 
#    z 0.000000 0.000000 1.704810 
# 
# From -- ./inp_files/2572.got.cif
#   From: 2010.05.17/outbox.cif.g08.bks.cpg/sg116_2_cif.got.tgz:2572.got - 2010.05.20 11:11:43.
