data_PCOD9557787
_publ_section_title
;
Structure prediction by ZEFSAII (Michael W. Deem and Ramdas Pophale) SiO2 
 PCOD9557787
Probable space group: P -4 C 2
;
_chemical_formula_sum "Si O2"
_cell_formula_units_Z 26
_cell_length_a 10.479629
_cell_length_b 10.479629
_cell_length_c 10.361623
_cell_angle_alpha 90.000000
_cell_angle_beta 90.000000
_cell_angle_gamma 90.000000
_cell_volume 1137.940627
_symmetry_space_group_name_H-M "P -4 C 2"
_symmetry_group_IT_number 116
_symmetry_cell_setting 'tetragonal'
loop_
_space_group_symop_operation_xyz
x,y,z
y,-x,-z
-x,-y,z
-y,x,-z
y,x,1/2-z
-y,-x,1/2-z
-x,y,1/2+z
x,-y,1/2+z
loop_
_atom_site_type_symbol
_atom_site_label
_atom_site_fract_x
_atom_site_fract_y
_atom_site_fract_z
Si Si1 0.334258 0.865409 0.207412
Si Si2 0.651191 0.024059 0.466204
Si Si3 0.749461 0.396804 0.854881
Si Si4 0.500000 0.500000 0.500000
O O1 0.259356 0.740645 0.250000
O O2 0.662714 0.838446 0.035026
O O3 0.484162 0.828917 0.204136
O O4 0.298064 0.920729 0.067756
O O5 0.696747 0.032514 0.319698
O O6 0.500000 0.000000 0.459071
O O7 0.704674 0.295327 0.750000
O O8 0.620436 0.454930 0.915844
#
# Coordination Sequence:
#
# PCOD9557787 Si02
#       4
#     8   8   8   2
#     4  11  23  40  63  89 119 159 209 257 307 368
#     4  10  22  39  60  88 123 164 203 246 309 377
#     4  11  21  35  59  92 131 164 196 244 306 374
#     4  12  22  32  56  98 136 164 198 246 304 372
#
# _framework density 22.848291
#
# number of rings (size 3 to 8) (size 9 to 14) (size 15 to 20)
#    0.000    1.231    0.000    8.769    0.000    7.385 
#    0.000    0.000    0.000    7.385    0.000    0.000 
#    0.000    0.000    0.000    0.000    0.000    0.000 
#
# Total GULP energy -145491.737081 kJ/mol
# GULP energy per Si atom -5595.836042 kJ/mol
# Density = 2.279629 g / cm^3
# Si number density = 22.848291 Si / 1000 Ang^3
#
#
#
# Elastic Constant Matrix: (Units=GPa)
#
#
# Indices 1 2 3 4 5 6 
#
# 1 64.4867 -1.8241 14.4493 0.0000 0.0000 0.0000
# 2 -1.8241 64.4881 14.4490 0.0000 0.0000 0.0000
# 3 14.4493 14.4490 98.3050 0.0000 0.0000 0.0000
# 4 0.0000 0.0000 0.0000 34.1639 0.0000 0.0000
# 5 0.0000 0.0000 0.0000 0.0000 34.1619 0.0000
# 6 0.0000 0.0000 0.0000 0.0000 0.0000 10.7398
#
#
#
# Elastic Compliance Matrix: (Units=1/GPa)
#
#
# Indices 1 2 3 4 5 6 
#
# 1 0.016100 0.001019 -0.002516 0.000000 0.000000 0.000000
# 2 0.001019 0.016099 -0.002516 0.000000 0.000000 0.000000
# 3 -0.002516 -0.002516 0.010912 0.000000 0.000000 0.000000
# 4 0.000000 0.000000 0.000000 0.029271 0.000000 0.000000
# 5 0.000000 0.000000 0.000000 0.000000 0.029272 0.000000
# 6 0.000000 0.000000 0.000000 0.000000 0.000000 0.093112
#
#
# Mechanical properties :
#
#
# Convention : Reuss Voigt Hill
#
# Bulk Modulus (GPa) = 28.50235 31.26979 29.88607
# Shear Modulus (GPa) = 23.31141 29.16017 26.23579
#
# Velocity S-wave (km/s) = 3.19763 3.57634 3.39228
# Velocity P-wave (km/s) = 5.11222 5.54700 5.33404
#
# Compressibility (1/GPa) = 0.03508483
#
# Stress axis : x y z
#
# Youngs Moduli (GPa) = 62.11300 62.11446 91.64149
#
# Poissons Ratio (x) = -0.06331 0.23059
# Poissons Ratio (y) = -0.06330 0.23058
# Poissons Ratio (z) = 0.15629 0.15629
#
# Static dielectric constant tensor:
#      x y z
#    x 1.848300 0.000000 0.000000 
#    y 0.000000 1.848290 0.000000 
#    z 0.000000 0.000000 1.892870 
# 
# From -- ./inp_files/1418.got.cif
#   From: 2010.05.17/outbox.cif.g08.bks.cpg/sg116_1_cif.got.tgz:1418.got - 2010.05.20 11:11:43.
