data_PCOD9557305
_publ_section_title
;
Structure prediction by ZEFSAII (Michael W. Deem and Ramdas Pophale) SiO2 
 PCOD9557305
Probable space group: P -4 M 2
;
_chemical_formula_sum "Si O2"
_cell_formula_units_Z 48
_cell_length_a 9.213956
_cell_length_b 9.213956
_cell_length_c 31.744210
_cell_angle_alpha 90.000000
_cell_angle_beta 90.000000
_cell_angle_gamma 90.000000
_cell_volume 2694.987726
_symmetry_space_group_name_H-M "P -4 M 2"
_symmetry_group_IT_number 115
_symmetry_cell_setting 'tetragonal'
loop_
_space_group_symop_operation_xyz
x,y,z
y,-x,-z
-x,-y,z
-y,x,-z
y,x,-z
-y,-x,-z
-x,y,z
x,-y,z
loop_
_atom_site_type_symbol
_atom_site_label
_atom_site_fract_x
_atom_site_fract_y
_atom_site_fract_z
Si Si1 0.327496 0.172580 0.164672
Si Si2 0.173716 0.829618 0.328934
Si Si3 0.827166 0.672345 0.585292
Si Si4 0.673352 0.828201 0.913006
Si Si5 0.328319 0.671682 0.000000
Si Si6 0.327309 0.327309 0.500000
Si Si7 0.173792 0.671839 0.242590
O O1 0.500000 0.198487 0.163553
O O2 0.253272 0.240493 0.123485
O O3 0.257544 0.247803 0.205409
O O4 0.302444 0.000000 0.166209
O O5 0.248671 0.779598 0.372023
O O6 0.215309 0.738517 0.287838
O O7 0.000000 0.819754 0.333785
O O8 0.210534 0.000000 0.322334
O O9 0.800416 0.500000 0.589541
O O10 0.749709 0.723614 0.542699
O O11 0.000000 0.694392 0.581007
O O12 0.500000 0.805873 0.906768
O O13 0.701279 0.000000 0.911596
O O14 0.710579 0.762775 0.958694
O O15 0.500000 0.693300 0.008625
O O16 0.302818 0.500000 0.496118
O O17 0.201223 0.500000 0.241352
O O18 0.000000 0.694250 0.237228
#
# Coordination Sequence:
#
# PCOD9557305 Si02
#       7
#     8   8   8   8   4   4   8
#     4  11  24  39  56  80 109 142 181 223 266 314
#     4   9  18  33  52  74 102 135 168 205 253 307
#     4   9  18  32  49  70  97 129 165 206 251 299
#     4  10  21  37  58  84 113 145 181 222 268 317
#     4   9  18  34  56  81 112 150 186 221 264 313
#     4   9  18  32  48  67  94 128 164 203 250 302
#     4  10  21  37  57  81 108 138 174 216 263 316
#
# _framework density 17.810839999999999
#
# number of rings (size 3 to 8) (size 9 to 14) (size 15 to 20)
#    0.000    2.333    0.000    2.000    0.000    8.000 
#    0.000    3.333    0.000    0.000    0.000    0.000 
#    0.000    0.000    0.000    0.000    0.000    0.000 
#
# Total GULP energy -267961.191310 kJ/mol
# GULP energy per Si atom -5582.524819 kJ/mol
# Density = 1.777030 g / cm^3
# Si number density = 17.810840 Si / 1000 Ang^3
#
#
#
# Elastic Constant Matrix: (Units=GPa)
#
#
# Indices 1 2 3 4 5 6 
#
# 1 70.9597 69.5725 99.5473 0.0000 0.0000 0.0000
# 2 69.5725 70.9595 99.5474 0.0000 0.0000 0.0000
# 3 99.5473 99.5474 216.4105 0.0000 0.0000 0.0000
# 4 0.0000 0.0000 0.0000 41.0570 0.0000 0.0000
# 5 0.0000 0.0000 0.0000 0.0000 41.0570 0.0000
# 6 0.0000 0.0000 0.0000 0.0000 0.0000 23.7071
#
#
#
# Elastic Compliance Matrix: (Units=1/GPa)
#
#
# Indices 1 2 3 4 5 6 
#
# 1 0.370691 -0.350264 -0.009396 0.000000 0.000000 0.000000
# 2 -0.350264 0.370695 -0.009398 0.000000 0.000000 0.000000
# 3 -0.009396 -0.009398 0.013266 0.000000 0.000000 0.000000
# 4 0.000000 0.000000 0.000000 0.024356 0.000000 0.000000
# 5 0.000000 0.000000 0.000000 0.000000 0.024356 0.000000
# 6 0.000000 0.000000 0.000000 0.000000 0.000000 0.042181
#
#
# Mechanical properties :
#
#
# Convention : Reuss Voigt Hill
#
# Bulk Modulus (GPa) = 60.47646 99.51823 79.99734
# Shear Modulus (GPa) = 3.14629 27.14173 15.14401
#
# Velocity S-wave (km/s) = 1.33054 3.90794 2.91910
# Velocity P-wave (km/s) = 6.03233 8.73836 7.50826
#
# Compressibility (1/GPa) = 0.01653536
#
# Stress axis : x y z
#
# Youngs Moduli (GPa) = 2.69767 2.69763 75.37985
#
# Poissons Ratio (x) = 0.94488 0.70827
# Poissons Ratio (y) = 0.94490 0.70845
# Poissons Ratio (z) = 0.02535 0.02535
#
# Static dielectric constant tensor:
#      x y z
#    x 1.594890 0.000000 0.000000 
#    y 0.000000 1.594890 0.000000 
#    z 0.000000 0.000000 1.579310 
# 
# From -- ./inp_files/6260.got.cif
#   From: 2010.05.17/outbox.cif.g08.bks.cpg/sg115_4_cif.got.tgz:6260.got - 2010.05.20 11:07:42.
