data_PCOD9557704
_publ_section_title
;
Structure prediction by ZEFSAII (Michael W. Deem and Ramdas Pophale) SiO2 
 PCOD9557704
Probable space group: P -4 C 2
;
_chemical_formula_sum "Si O2"
_cell_formula_units_Z 40
_cell_length_a 14.313126
_cell_length_b 14.313126
_cell_length_c 9.312352
_cell_angle_alpha 90.000000
_cell_angle_beta 90.000000
_cell_angle_gamma 90.000000
_cell_volume 1907.780355
_symmetry_space_group_name_H-M "P -4 C 2"
_symmetry_group_IT_number 116
_symmetry_cell_setting 'tetragonal'
loop_
_space_group_symop_operation_xyz
x,y,z
y,-x,-z
-x,-y,z
-y,x,-z
y,x,1/2-z
-y,-x,1/2-z
-x,y,1/2+z
x,-y,1/2+z
loop_
_atom_site_type_symbol
_atom_site_label
_atom_site_fract_x
_atom_site_fract_y
_atom_site_fract_z
Si Si1 0.411486 0.071324 0.775593
Si Si2 0.499182 0.178575 0.038780
Si Si3 0.378592 0.236682 0.311740
Si Si4 0.198081 0.920853 0.360499
Si Si5 0.801623 0.127657 0.896943
O O1 0.426479 0.109940 0.614488
O O2 0.299609 0.058734 0.789033
O O3 0.500000 0.000000 0.786456
O O4 0.434955 0.134434 0.915397
O O5 0.440062 0.205193 0.177153
O O6 0.558062 0.254996 0.950922
O O7 0.322152 0.322152 0.250000
O O8 0.304105 0.157150 0.357422
O O9 0.120792 0.879209 0.250000
O O10 0.197620 0.841605 0.483356
O O11 0.179092 0.020327 0.436103
O O12 0.856785 0.143216 0.750000
#
# Coordination Sequence:
#
# PCOD9557704 Si02
#       5
#     8   8   8   8   8
#     4  11  22  37  60  92 126 162 216 283 342 395
#     4  10  21  36  61  90 118 157 204 262 332 401
#     4  10  21  41  64  90 123 160 205 261 330 398
#     4  12  25  40  61  90 128 176 227 274 327 398
#     4  11  24  40  59  84 124 171 217 265 318 378
#
# _framework density 20.966774999999998
#
# number of rings (size 3 to 8) (size 9 to 14) (size 15 to 20)
#    0.000    1.200    0.000    7.800    0.000    5.600 
#    0.000    3.000    0.000    1.800    0.000    0.000 
#    0.000    0.000    0.000    0.000    0.000    0.000 
#
# Total GULP energy -222731.071595 kJ/mol
# GULP energy per Si atom -5568.276790 kJ/mol
# Density = 2.091905 g / cm^3
# Si number density = 20.966775 Si / 1000 Ang^3
#
#
#
# Elastic Constant Matrix: (Units=GPa)
#
#
# Indices 1 2 3 4 5 6 
#
# 1 76.8876 39.2271 16.4371 0.0000 0.0000 0.0000
# 2 39.2271 76.8915 16.4387 0.0000 0.0000 0.0000
# 3 16.4371 16.4387 85.5663 0.0000 0.0000 0.0000
# 4 0.0000 0.0000 0.0000 550.6140 0.0000 0.0000
# 5 0.0000 0.0000 0.0000 0.0000 548.0302 0.0000
# 6 0.0000 0.0000 0.0000 0.0000 0.0000 12.5575
#
#
#
# Elastic Compliance Matrix: (Units=1/GPa)
#
#
# Indices 1 2 3 4 5 6 
#
# 1 0.017830 -0.008722 -0.001749 0.000000 0.000000 0.000000
# 2 -0.008722 0.017829 -0.001750 0.000000 0.000000 0.000000
# 3 -0.001749 -0.001750 0.012359 0.000000 0.000000 0.000000
# 4 0.000000 0.000000 0.000000 0.001816 0.000000 0.000000
# 5 0.000000 0.000000 0.000000 0.000000 0.001825 0.000000
# 6 0.000000 0.000000 0.000000 0.000000 0.000000 0.079633
#
#
# Mechanical properties :
#
#
# Convention : Reuss Voigt Hill
#
# Bulk Modulus (GPa) = 42.41698 42.61679 42.51689
# Shear Modulus (GPa) = 30.56354 233.38986 131.97670
#
# Velocity S-wave (km/s) = 3.82214 10.56200 7.94244
# Velocity P-wave (km/s) = 6.30499 13.00427 10.21920
#
# Compressibility (1/GPa) = 0.02357546
#
# Stress axis : x y z
#
# Youngs Moduli (GPa) = 56.08549 56.08798 80.91225
#
# Poissons Ratio (x) = 0.48921 0.14155
# Poissons Ratio (y) = 0.48919 0.14158
# Poissons Ratio (z) = 0.09812 0.09814
#
# Static dielectric constant tensor:
#      x y z
#    x 1.768200 0.000000 0.000000 
#    y 0.000000 1.767690 0.000000 
#    z 0.000000 0.000000 1.743200 
# 
# From -- ./inp_files/764.got.cif
#   From: 2010.05.17/outbox.cif.g08.bks.cpg/sg116_1_cif.got.tgz:764.got - 2010.05.20 11:11:43.
