data_PCOD9557223
_publ_section_title
;
Structure prediction by ZEFSAII (Michael W. Deem and Ramdas Pophale) SiO2 
 PCOD9557223
Probable space group: P -4 M 2
;
_chemical_formula_sum "Si O2"
_cell_formula_units_Z 44
_cell_length_a 9.305176
_cell_length_b 9.305176
_cell_length_c 29.317686
_cell_angle_alpha 90.000000
_cell_angle_beta 90.000000
_cell_angle_gamma 90.000000
_cell_volume 2538.509967
_symmetry_space_group_name_H-M "P -4 M 2"
_symmetry_group_IT_number 115
_symmetry_cell_setting 'tetragonal'
loop_
_space_group_symop_operation_xyz
x,y,z
y,-x,-z
-x,-y,z
-y,x,-z
y,x,-z
-y,-x,-z
-x,y,z
x,-y,z
loop_
_atom_site_type_symbol
_atom_site_label
_atom_site_fract_x
_atom_site_fract_y
_atom_site_fract_z
Si Si1 0.170316 0.671255 0.541033
Si Si2 0.324772 0.165387 0.726130
Si Si3 0.170797 0.829204 0.000000
Si Si4 0.670434 0.670909 0.634496
Si Si5 0.675349 0.665492 0.816373
Si Si6 0.672011 0.830148 0.907617
O O1 0.243334 0.756667 0.500000
O O2 0.194541 0.500000 0.534457
O O3 0.242933 0.710971 0.589203
O O4 0.000000 0.696401 0.542401
O O5 0.500000 0.167128 0.726689
O O6 0.282175 0.243824 0.679438
O O7 0.276924 0.249800 0.771267
O O8 0.278853 0.000000 0.727127
O O9 0.217137 0.747898 0.045773
O O10 0.000000 0.805515 0.994327
O O11 0.500000 0.697194 0.627157
O O12 0.688032 0.500000 0.642380
O O13 0.500000 0.667700 0.816030
O O14 0.720657 0.500000 0.815128
O O15 0.719783 0.743326 0.863017
O O16 0.500000 0.813946 0.912329
O O17 0.701619 0.000000 0.900901
#
# Coordination Sequence:
#
# PCOD9557223 Si02
#       6
#     8   8   4   8   8   8
#     4  10  21  36  54  76 102 133 168 206 249 297
#     4   9  16  26  43  68  96 125 158 196 236 280
#     4   9  18  32  48  65  88 120 154 187 226 274
#     4   9  17  30  49  72  97 125 158 198 243 288
#     4   9  16  26  42  66  95 123 151 188 235 281
#     4   9  17  29  45  65  89 117 149 186 228 273
#
# _framework density 17.333000999999999
#
# number of rings (size 3 to 8) (size 9 to 14) (size 15 to 20)
#    0.000    2.818    0.000    1.636    0.000    6.909 
#    0.000    1.818    0.000    1.091    0.000    0.000 
#    0.000    0.000    0.000    0.000    0.000    0.000 
#
# Total GULP energy -245331.111670 kJ/mol
# GULP energy per Si atom -5575.707083 kJ/mol
# Density = 1.729355 g / cm^3
# Si number density = 17.333001 Si / 1000 Ang^3
#
#
#
# Elastic Constant Matrix: (Units=GPa)
#
#
# Indices 1 2 3 4 5 6 
#
# 1 55.7438 43.4523 86.0659 0.0000 0.0000 0.0000
# 2 43.4523 55.7444 86.0648 0.0000 0.0000 0.0000
# 3 86.0659 86.0648 226.2203 0.0000 0.0000 0.0000
# 4 0.0000 0.0000 0.0000 -17.3261 0.0000 0.0000
# 5 0.0000 0.0000 0.0000 0.0000 -17.3208 0.0000
# 6 0.0000 0.0000 0.0000 0.0000 0.0000 12.2903
#
#
#
# Elastic Compliance Matrix: (Units=1/GPa)
#
#
# Indices 1 2 3 4 5 6 
#
# 1 0.055512 -0.025845 -0.011287 0.000000 0.000000 0.000000
# 2 -0.025845 0.055508 -0.011285 0.000000 0.000000 0.000000
# 3 -0.011287 -0.011285 0.013008 0.000000 0.000000 0.000000
# 4 0.000000 0.000000 0.000000 -0.057716 0.000000 0.000000
# 5 0.000000 0.000000 0.000000 0.000000 -0.057734 0.000000
# 6 0.000000 0.000000 0.000000 0.000000 0.000000 0.081365
#
#
# Mechanical properties :
#
#
# Convention : Reuss Voigt Hill
#
# Bulk Modulus (GPa) = 36.77267 85.43052 61.10160
# Shear Modulus (GPa) = 25.53079 3.67038 14.60059
#
# Velocity S-wave (km/s) = 3.84208 1.45677 2.90549
# Velocity P-wave (km/s) = 6.39871 7.22664 6.82524
#
# Compressibility (1/GPa) = 0.02719411
#
# Stress axis : x y z
#
# Youngs Moduli (GPa) = 18.01413 18.01527 76.87526
#
# Poissons Ratio (x) = 0.46560 0.86769
# Poissons Ratio (y) = 0.46557 0.86756
# Poissons Ratio (z) = 0.20333 0.20331
#
# Static dielectric constant tensor:
#      x y z
#    x 1.576750 0.000000 0.000000 
#    y 0.000000 1.576750 0.000000 
#    z 0.000000 0.000000 1.565500 
# 
# From -- ./inp_files/5702.got.cif
#   From: 2010.05.17/outbox.cif.g08.bks.cpg/sg115_3_cif.got.tgz:5702.got - 2010.05.20 11:07:42.
