data_PCOD9557452
_publ_section_title
;
Structure prediction by ZEFSAII (Michael W. Deem and Ramdas Pophale) SiO2 
 PCOD9557452
Probable space group: P -4 M 2
;
_chemical_formula_sum "Si O2"
_cell_formula_units_Z 48
_cell_length_a 9.232444
_cell_length_b 9.232444
_cell_length_c 32.374179
_cell_angle_alpha 90.000000
_cell_angle_beta 90.000000
_cell_angle_gamma 90.000000
_cell_volume 2759.510989
_symmetry_space_group_name_H-M "P -4 M 2"
_symmetry_group_IT_number 115
_symmetry_cell_setting 'tetragonal'
loop_
_space_group_symop_operation_xyz
x,y,z
y,-x,-z
-x,-y,z
-y,x,-z
y,x,-z
-y,-x,-z
-x,y,z
x,-y,z
loop_
_atom_site_type_symbol
_atom_site_label
_atom_site_fract_x
_atom_site_fract_y
_atom_site_fract_z
Si Si1 0.823346 0.167979 0.045223
Si Si2 0.172570 0.672633 0.461574
Si Si3 0.832832 0.676149 0.706953
Si Si4 0.328253 0.327212 0.210893
Si Si5 0.174407 0.672601 0.614299
Si Si6 0.828017 0.327372 0.127856
O O1 0.775651 0.254683 0.085486
O O2 0.000000 0.172459 0.044077
O O3 0.781374 0.000000 0.049411
O O4 0.776289 0.223712 0.000000
O O5 0.251276 0.748725 0.500000
O O6 0.197930 0.500000 0.462571
O O7 0.238233 0.741968 0.420150
O O8 0.000000 0.697196 0.463849
O O9 0.828974 0.500000 0.706820
O O10 0.743368 0.725611 0.746564
O O11 0.783100 0.718166 0.660974
O O12 0.000000 0.719585 0.711607
O O13 0.500000 0.298534 0.207212
O O14 0.308310 0.500000 0.213632
O O15 0.249838 0.274801 0.169414
O O16 0.202524 0.500000 0.609472
O O17 0.000000 0.691275 0.610525
O O18 0.806281 0.500000 0.124834
O O19 0.000000 0.300504 0.131566
#
# Coordination Sequence:
#
# PCOD9557452 Si02
#       6
#     8   8   8   8   8   8
#     4   8  14  26  44  63  82 107 141 180 221 267
#     4  11  24  39  55  78 106 135 169 207 246 290
#     4   8  15  29  49  72  97 124 155 193 234 274
#     4   9  17  29  45  65  90 121 155 187 222 269
#     4   9  18  34  56  80 104 131 165 204 246 293
#     4   9  17  29  44  62  86 116 147 181 224 270
#
# _framework density 17.394385
#
# number of rings (size 3 to 8) (size 9 to 14) (size 15 to 20)
#    0.000    3.000    0.000    2.500    0.000    5.000 
#    0.000    3.333    0.000    4.000    0.000    0.000 
#    0.000    0.000    0.000    0.000    0.000    0.000 
#
# Total GULP energy -267425.598403 kJ/mol
# GULP energy per Si atom -5571.366633 kJ/mol
# Density = 1.735480 g / cm^3
# Si number density = 17.394385 Si / 1000 Ang^3
#
#
#
# Elastic Constant Matrix: (Units=GPa)
#
#
# Indices 1 2 3 4 5 6 
#
# 1 39.6206 43.5285 72.2229 0.0000 0.0000 0.0000
# 2 43.5285 39.6209 72.2231 0.0000 0.0000 0.0000
# 3 72.2229 72.2231 225.8586 0.0000 0.0000 0.0000
# 4 0.0000 0.0000 0.0000 34.3480 0.0000 0.0000
# 5 0.0000 0.0000 0.0000 0.0000 34.3481 0.0000
# 6 0.0000 0.0000 0.0000 0.0000 0.0000 18.0985
#
#
#
# Elastic Compliance Matrix: (Units=1/GPa)
#
#
# Indices 1 2 3 4 5 6 
#
# 1 -0.114424 0.141480 -0.008652 0.000000 0.000000 0.000000
# 2 0.141480 -0.114423 -0.008652 0.000000 0.000000 0.000000
# 3 -0.008652 -0.008652 0.009961 0.000000 0.000000 0.000000
# 4 0.000000 0.000000 0.000000 0.029114 0.000000 0.000000
# 5 0.000000 0.000000 0.000000 0.000000 0.029114 0.000000
# 6 0.000000 0.000000 0.000000 0.000000 0.000000 0.055253
#
#
# Mechanical properties :
#
#
# Convention : Reuss Voigt Hill
#
# Bulk Modulus (GPa) = 33.93706 75.67210 54.80458
# Shear Modulus (GPa) = -14.53764 25.16731 5.31483
#
# Velocity S-wave (km/s) = -2.89410 3.80789 1.74989
# Velocity P-wave (km/s) = 2.89568 7.93294 5.97146
#
# Compressibility (1/GPa) = 0.02946632
#
# Stress axis : x y z
#
# Youngs Moduli (GPa) = -8.73944 -8.73954 100.39363
#
# Poissons Ratio (x) = 1.23647 0.86859
# Poissons Ratio (y) = 1.23645 0.86860
# Poissons Ratio (z) = -0.07561 -0.07561
#
# Static dielectric constant tensor:
#      x y z
#    x 1.581940 0.000000 0.000000 
#    y 0.000000 1.581940 0.000000 
#    z 0.000000 0.000000 1.602310 
# 
# From -- ./inp_files/6107.got.cif
#   From: 2010.05.17/outbox.cif.g08.bks.cpg/sg115_4_cif.got.tgz:6107.got - 2010.05.20 11:07:42.
