data_PCOD9557559
_publ_section_title
;
Structure prediction by ZEFSAII (Michael W. Deem and Ramdas Pophale) SiO2 
 PCOD9557559
Probable space group: P -4 C 2
;
_chemical_formula_sum "Si O2"
_cell_formula_units_Z 56
_cell_length_a 22.703779
_cell_length_b 22.703779
_cell_length_c 5.446821
_cell_angle_alpha 90.000000
_cell_angle_beta 90.000000
_cell_angle_gamma 90.000000
_cell_volume 2807.626963
_symmetry_space_group_name_H-M "P -4 C 2"
_symmetry_group_IT_number 116
_symmetry_cell_setting 'tetragonal'
loop_
_space_group_symop_operation_xyz
x,y,z
y,-x,-z
-x,-y,z
-y,x,-z
y,x,1/2-z
-y,-x,1/2-z
-x,y,1/2+z
x,-y,1/2+z
loop_
_atom_site_type_symbol
_atom_site_label
_atom_site_fract_x
_atom_site_fract_y
_atom_site_fract_z
Si Si1 0.719530 0.264025 0.999215
Si Si2 0.563940 0.157054 0.566713
Si Si3 0.718301 0.037480 0.487979
Si Si4 0.794980 0.156595 0.500387
Si Si5 0.273970 0.481540 0.943713
Si Si6 0.810350 0.619347 0.941227
Si Si7 0.577831 0.034799 0.470585
O O1 0.704148 0.295853 0.250000
O O2 0.703818 0.296183 0.750000
O O3 0.789065 0.251738 0.996075
O O4 0.687118 0.201478 0.009990
O O5 0.518531 0.211449 0.575916
O O6 0.594459 0.152351 0.832394
O O7 0.539375 0.093553 0.500514
O O8 0.605932 0.170593 0.334394
O O9 0.758932 0.095695 0.495164
O O10 0.647917 0.051273 0.483915
O O11 0.729166 0.999217 0.735901
O O12 0.833063 0.166938 0.750000
O O13 0.832390 0.167611 0.250000
O O14 0.304321 0.504644 0.187620
O O15 0.252211 0.414804 0.967354
O O16 0.568018 0.994240 0.707224
#
# Coordination Sequence:
#
# PCOD9557559 Si02
#       7
#     8   8   8   8   8   8   8
#     4  10  21  32  45  75 103 125 155 195 252 311
#     4  10  19  31  53  68  94 123 176 207 245 282
#     4  10  21  36  51  70 102 140 168 190 237 303
#     4  10  21  33  51  75 105 123 159 197 237 293
#     4   8  16  30  46  69  87 117 168 207 239 283
#     4  10  19  31  51  69  94 130 155 201 254 302
#     4  10  21  33  47  70  93 128 170 207 250 292
#
# _framework density 19.945668000000001
#
# number of rings (size 3 to 8) (size 9 to 14) (size 15 to 20)
#    0.000    2.286    0.000    2.571    8.000    0.000 
#    0.000    0.000    0.000   23.143    0.000    0.000 
#    0.000   20.000    0.000    0.000    0.000    0.000 
#
# Total GULP energy -312358.043736 kJ/mol
# GULP energy per Si atom -5577.822210 kJ/mol
# Density = 1.990027 g / cm^3
# Si number density = 19.945668 Si / 1000 Ang^3
#
#
#
# Elastic Constant Matrix: (Units=GPa)
#
#
# Indices 1 2 3 4 5 6 
#
# 1 58.1604 30.4411 27.5740 0.0000 0.0000 0.0000
# 2 30.4411 58.1605 27.5748 0.0000 0.0000 0.0000
# 3 27.5740 27.5748 150.9911 0.0000 0.0000 0.0000
# 4 0.0000 0.0000 0.0000 17.5812 0.0000 0.0000
# 5 0.0000 0.0000 0.0000 0.0000 17.5811 0.0000
# 6 0.0000 0.0000 0.0000 0.0000 0.0000 7.3690
#
#
#
# Elastic Compliance Matrix: (Units=1/GPa)
#
#
# Indices 1 2 3 4 5 6 
#
# 1 0.024405 -0.011671 -0.002325 0.000000 0.000000 0.000000
# 2 -0.011671 0.024405 -0.002326 0.000000 0.000000 0.000000
# 3 -0.002325 -0.002326 0.007472 0.000000 0.000000 0.000000
# 4 0.000000 0.000000 0.000000 0.056879 0.000000 0.000000
# 5 0.000000 0.000000 0.000000 0.000000 0.056879 0.000000
# 6 0.000000 0.000000 0.000000 0.000000 0.000000 0.135703
#
#
# Mechanical properties :
#
#
# Convention : Reuss Voigt Hill
#
# Bulk Modulus (GPa) = 42.30445 48.72132 45.51288
# Shear Modulus (GPa) = 14.43973 20.62108 17.53040
#
# Velocity S-wave (km/s) = 2.69356 3.21886 2.96785
# Velocity P-wave (km/s) = 5.56143 6.18828 5.88321
#
# Compressibility (1/GPa) = 0.02363818
#
# Stress axis : x y z
#
# Youngs Moduli (GPa) = 40.97543 40.97529 133.82775
#
# Poissons Ratio (x) = 0.47822 0.31120
# Poissons Ratio (y) = 0.47822 0.31123
# Poissons Ratio (z) = 0.09528 0.09529
#
# Static dielectric constant tensor:
#      x y z
#    x 1.747310 0.000000 0.000000 
#    y 0.000000 1.747310 0.000000 
#    z 0.000000 0.000000 1.819220 
# 
# From -- ./inp_files/252.got.cif
#   From: 2010.05.17/outbox.cif.g08.bks.cpg/sg116_1_cif.got.tgz:252.got - 2010.05.20 11:11:43.
