data_PCOD9557653
_publ_section_title
;
Structure prediction by ZEFSAII (Michael W. Deem and Ramdas Pophale) SiO2 
 PCOD9557653
Probable space group: P -4 C 2
;
_chemical_formula_sum "Si O2"
_cell_formula_units_Z 38
_cell_length_a 9.418823
_cell_length_b 9.418823
_cell_length_c 20.812032
_cell_angle_alpha 90.000000
_cell_angle_beta 90.000000
_cell_angle_gamma 90.000000
_cell_volume 1846.323325
_symmetry_space_group_name_H-M "P -4 C 2"
_symmetry_group_IT_number 116
_symmetry_cell_setting 'tetragonal'
loop_
_space_group_symop_operation_xyz
x,y,z
y,-x,-z
-x,-y,z
-y,x,-z
y,x,1/2-z
-y,-x,1/2-z
-x,y,1/2+z
x,-y,1/2+z
loop_
_atom_site_type_symbol
_atom_site_label
_atom_site_fract_x
_atom_site_fract_y
_atom_site_fract_z
Si Si1 0.166931 0.024602 0.355982
Si Si2 0.500000 0.500000 0.750000
Si Si3 0.226336 0.777110 0.054806
Si Si4 0.814584 0.185417 0.250000
Si Si5 0.695677 0.112991 0.582727
Si Si6 0.748519 0.437065 0.346777
O O1 0.240134 0.923657 0.408313
O O2 0.201356 0.962113 0.287003
O O3 0.180008 0.188076 0.369295
O O4 0.000000 0.000000 0.365215
O O5 0.501978 0.366389 0.701643
O O6 0.345828 0.689613 0.092985
O O7 0.271852 0.945907 0.064060
O O8 0.198718 0.723579 0.983319
O O9 0.813154 0.311506 0.301988
O O10 0.550295 0.148320 0.619506
#
# Coordination Sequence:
#
# PCOD9557653 Si02
#       6
#     8   2   8   4   8   8
#     4   9  18  33  62  93 124 167 206 259 329 372
#     4  10  24  52  60  76 128 184 218 254 316 390
#     4  10  20  37  62  95 135 157 207 267 320 380
#     4   9  19  41  61  90 126 170 213 267 301 389
#     4  11  20  37  63 100 125 166 204 270 323 378
#     4  10  23  41  65  85 126 172 213 261 314 371
#
# _framework density 20.581443
#
# number of rings (size 3 to 8) (size 9 to 14) (size 15 to 20)
#    0.000    2.105    2.105    0.947    0.000    1.684 
#   15.158    0.000    0.000    0.000    0.000    0.000 
#    0.000    0.000    0.000    0.000    0.000    0.000 
#
# Total GULP energy -211557.460346 kJ/mol
# GULP energy per Si atom -5567.301588 kJ/mol
# Density = 2.053460 g / cm^3
# Si number density = 20.581443 Si / 1000 Ang^3
#
#
#
# Elastic Constant Matrix: (Units=GPa)
#
#
# Indices 1 2 3 4 5 6 
#
# 1 84.6363 16.3719 49.5809 0.0000 0.0000 0.0000
# 2 16.3719 84.6352 49.5805 0.0000 0.0000 0.0000
# 3 49.5809 49.5805 145.3079 0.0000 0.0000 0.0000
# 4 0.0000 0.0000 0.0000 26.2060 0.0000 0.0000
# 5 0.0000 0.0000 0.0000 0.0000 26.2063 0.0000
# 6 0.0000 0.0000 0.0000 0.0000 0.0000 18.2863
#
#
#
# Elastic Compliance Matrix: (Units=1/GPa)
#
#
# Indices 1 2 3 4 5 6 
#
# 1 0.014768 0.000119 -0.005080 0.000000 0.000000 0.000000
# 2 0.000119 0.014768 -0.005080 0.000000 0.000000 0.000000
# 3 -0.005080 -0.005080 0.010348 0.000000 0.000000 0.000000
# 4 0.000000 0.000000 0.000000 0.038159 0.000000 0.000000
# 5 0.000000 0.000000 0.000000 0.000000 0.038159 0.000000
# 6 0.000000 0.000000 0.000000 0.000000 0.000000 0.054686
#
#
# Mechanical properties :
#
#
# Convention : Reuss Voigt Hill
#
# Bulk Modulus (GPa) = 50.49499 60.62733 55.56116
# Shear Modulus (GPa) = 25.30749 27.40947 26.35848
#
# Velocity S-wave (km/s) = 3.51041 3.65328 3.58256
# Velocity P-wave (km/s) = 6.40454 6.87870 6.64585
#
# Compressibility (1/GPa) = 0.01980395
#
# Stress axis : x y z
#
# Youngs Moduli (GPa) = 67.71426 67.71345 96.63343
#
# Poissons Ratio (x) = -0.00806 0.49086
# Poissons Ratio (y) = -0.00806 0.49086
# Poissons Ratio (z) = 0.34396 0.34396
#
# Static dielectric constant tensor:
#      x y z
#    x 1.783260 0.000000 0.000000 
#    y 0.000000 1.783260 0.000000 
#    z 0.000000 0.000000 1.716080 
# 
# From -- ./inp_files/4491.got.cif
#   From: 2010.05.17/outbox.cif.g08.bks.cpg/sg116_3_cif.got.tgz:4491.got - 2010.05.20 11:11:43.
