data_PCOD9557996
_publ_section_title
;
Structure prediction by ZEFSAII (Michael W. Deem and Ramdas Pophale) SiO2 
 PCOD9557996
Probable space group: P -4 C 2
;
_chemical_formula_sum "Si O2"
_cell_formula_units_Z 34
_cell_length_a 11.676134
_cell_length_b 11.676134
_cell_length_c 9.960833
_cell_angle_alpha 90.000000
_cell_angle_beta 90.000000
_cell_angle_gamma 90.000000
_cell_volume 1357.981332
_symmetry_space_group_name_H-M "P -4 C 2"
_symmetry_group_IT_number 116
_symmetry_cell_setting 'tetragonal'
loop_
_space_group_symop_operation_xyz
x,y,z
y,-x,-z
-x,-y,z
-y,x,-z
y,x,1/2-z
-y,-x,1/2-z
-x,y,1/2+z
x,-y,1/2+z
loop_
_atom_site_type_symbol
_atom_site_label
_atom_site_fract_x
_atom_site_fract_y
_atom_site_fract_z
Si Si1 0.779764 0.220237 0.750000
Si Si2 0.208252 0.208252 0.750000
Si Si3 0.500000 0.500000 0.500000
Si Si4 0.535844 0.866744 0.138053
Si Si5 0.829291 0.918072 0.510019
Si Si6 0.568835 0.257229 0.378814
O O1 0.816613 0.338693 0.823546
O O2 0.866717 0.223919 0.624125
O O3 0.220578 0.092910 0.661453
O O4 0.234534 0.296420 0.629548
O O5 0.530722 0.385620 0.415252
O O6 0.462970 0.783062 0.231230
O O7 0.500000 0.000000 0.158707
O O8 0.515104 0.830826 0.984509
O O9 0.950759 0.854295 0.521020
#
# Coordination Sequence:
#
# PCOD9557996 Si02
#       6
#     4   4   2   8   8   8
#     4  12  26  49  78 113 168 208 266 346 412 501
#     4  12  26  46  76 110 150 206 262 330 420 480
#     4  12  28  58  76 114 160 218 296 338 428 506
#     4  12  29  49  78 121 162 213 275 352 429 503
#     4  11  26  47  77 112 156 207 260 323 405 507
#     4  12  28  49  80 110 156 215 274 349 409 513
#
# _framework density 25.037163
#
# number of rings (size 3 to 8) (size 9 to 14) (size 15 to 20)
#    0.000    0.235    2.353    4.941    9.882    5.176 
#    0.000    0.000    0.000    0.000    0.000    0.000 
#    0.000    0.000    0.000    0.000    0.000    0.000 
#
# Total GULP energy -189831.854129 kJ/mol
# GULP energy per Si atom -5583.289827 kJ/mol
# Density = 2.498018 g / cm^3
# Si number density = 25.037163 Si / 1000 Ang^3
#
#
#
# Elastic Constant Matrix: (Units=GPa)
#
#
# Indices 1 2 3 4 5 6 
#
# 1 73.7648 69.0189 20.7239 0.0000 0.0000 0.0000
# 2 69.0189 73.7657 20.7236 0.0000 0.0000 0.0000
# 3 20.7239 20.7236 128.0418 0.0000 0.0000 0.0000
# 4 0.0000 0.0000 0.0000 39.7294 0.0000 0.0000
# 5 0.0000 0.0000 0.0000 0.0000 39.7299 0.0000
# 6 0.0000 0.0000 0.0000 0.0000 0.0000 25.3183
#
#
#
# Elastic Compliance Matrix: (Units=1/GPa)
#
#
# Indices 1 2 3 4 5 6 
#
# 1 0.109018 -0.101668 -0.001190 0.000000 0.000000 0.000000
# 2 -0.101668 0.109017 -0.001189 0.000000 0.000000 0.000000
# 3 -0.001190 -0.001189 0.008195 0.000000 0.000000 0.000000
# 4 0.000000 0.000000 0.000000 0.025170 0.000000 0.000000
# 5 0.000000 0.000000 0.000000 0.000000 0.025170 0.000000
# 6 0.000000 0.000000 0.000000 0.000000 0.000000 0.039497
#
#
# Mechanical properties :
#
#
# Convention : Reuss Voigt Hill
#
# Bulk Modulus (GPa) = 55.14206 55.16722 55.15464
# Shear Modulus (GPa) = 9.43029 31.96260 20.69645
#
# Velocity S-wave (km/s) = 1.94286 3.57684 2.87823
# Velocity P-wave (km/s) = 5.20623 6.25622 5.75522
#
# Compressibility (1/GPa) = 0.01813498
#
# Stress axis : x y z
#
# Youngs Moduli (GPa) = 9.17279 9.17292 122.02614
#
# Poissons Ratio (x) = 0.93260 0.14518
# Poissons Ratio (y) = 0.93258 0.14510
# Poissons Ratio (z) = 0.01091 0.01091
#
# Static dielectric constant tensor:
#      x y z
#    x 2.134910 0.000000 0.000000 
#    y 0.000000 2.134920 0.000000 
#    z 0.000000 0.000000 2.043220 
# 
# From -- ./inp_files/1757.got.cif
#   From: 2010.05.17/outbox.cif.g08.bks.cpg/sg116_1_cif.got.tgz:1757.got - 2010.05.20 11:11:43.
