data_PCOD9557700
_publ_section_title
;
Structure prediction by ZEFSAII (Michael W. Deem and Ramdas Pophale) SiO2 
 PCOD9557700
Probable space group: P -4 C 2
;
_chemical_formula_sum "Si O2"
_cell_formula_units_Z 36
_cell_length_a 13.574404
_cell_length_b 13.574404
_cell_length_c 8.143513
_cell_angle_alpha 90.000000
_cell_angle_beta 90.000000
_cell_angle_gamma 90.000000
_cell_volume 1500.559895
_symmetry_space_group_name_H-M "P -4 C 2"
_symmetry_group_IT_number 116
_symmetry_cell_setting 'tetragonal'
loop_
_space_group_symop_operation_xyz
x,y,z
y,-x,-z
-x,-y,z
-y,x,-z
y,x,1/2-z
-y,-x,1/2-z
-x,y,1/2+z
x,-y,1/2+z
loop_
_atom_site_type_symbol
_atom_site_label
_atom_site_fract_x
_atom_site_fract_y
_atom_site_fract_z
Si Si1 0.784010 0.414030 0.592012
Si Si2 0.595524 0.301343 0.557076
Si Si3 0.000000 0.000000 0.000000
Si Si4 0.904476 0.801343 0.557076
Si Si5 0.715990 0.085970 0.092012
Si Si6 0.500000 0.500000 0.000000
O O1 0.698937 0.347518 0.504102
O O2 0.757528 0.528498 0.569512
O O3 0.766534 0.391697 0.783086
O O4 0.882939 0.382939 0.500000
O O5 0.531845 0.400856 0.594952
O O6 0.900856 0.968155 0.905048
O O7 0.891697 0.733466 0.716914
O O8 0.801063 0.847518 0.504102
O O9 0.971502 0.742472 0.430488
#
# Coordination Sequence:
#
# PCOD9557700 Si02
#       6
#     8   8   2   8   8   2
#     4  10  21  36  57  83 112 146 184 229 283 335
#     4   9  20  35  57  85 112 143 182 233 286 337
#     4   8  16  34  60  90 116 138 184 246 304 338
#     4   9  20  35  57  85 112 143 182 233 286 337
#     4  10  21  36  57  83 112 146 184 229 283 335
#     4   8  16  34  60  90 116 138 184 246 304 338
#
# _framework density 23.991046999999998
#
# number of rings (size 3 to 8) (size 9 to 14) (size 15 to 20)
#    0.000    2.667    0.000    0.000    0.000   33.778 
#    0.000    0.000    0.000   10.667    0.000    0.000 
#    0.000    0.000    0.000    0.000    0.000    0.000 
#
# Total GULP energy -200659.355192 kJ/mol
# GULP energy per Si atom -5573.870978 kJ/mol
# Density = 2.393644 g / cm^3
# Si number density = 23.991047 Si / 1000 Ang^3
#
#
#
# Elastic Constant Matrix: (Units=GPa)
#
#
# Indices 1 2 3 4 5 6 
#
# 1 38.9753 19.4529 1.3783 0.0000 0.0000 0.0000
# 2 19.4529 38.9753 1.3783 0.0000 0.0000 0.0000
# 3 1.3783 1.3783 29.3368 0.0000 0.0000 0.0000
# 4 0.0000 0.0000 0.0000 24.8200 0.0000 0.0000
# 5 0.0000 0.0000 0.0000 0.0000 24.8200 0.0000
# 6 0.0000 0.0000 0.0000 0.0000 0.0000 49.2348
#
#
#
# Elastic Compliance Matrix: (Units=1/GPa)
#
#
# Indices 1 2 3 4 5 6 
#
# 1 0.034188 -0.017035 -0.000806 0.000000 0.000000 0.000000
# 2 -0.017035 0.034188 -0.000806 0.000000 0.000000 0.000000
# 3 -0.000806 -0.000806 0.034163 0.000000 0.000000 0.000000
# 4 0.000000 0.000000 0.000000 0.040290 0.000000 0.000000
# 5 0.000000 0.000000 0.000000 0.000000 0.040290 0.000000
# 6 0.000000 0.000000 0.000000 0.000000 0.000000 0.020311
#
#
# Mechanical properties :
#
#
# Convention : Reuss Voigt Hill
#
# Bulk Modulus (GPa) = 15.32680 16.85625 16.09152
# Shear Modulus (GPa) = 19.04968 25.44682 22.24825
#
# Velocity S-wave (km/s) = 2.82092 3.26034 3.04856
# Velocity P-wave (km/s) = 4.12462 4.60591 4.37189
#
# Compressibility (1/GPa) = 0.06524520
#
# Stress axis : x y z
#
# Youngs Moduli (GPa) = 29.24998 29.24998 29.27180
#
# Poissons Ratio (x) = 0.49827 0.02359
# Poissons Ratio (y) = 0.49827 0.02359
# Poissons Ratio (z) = 0.02357 0.02357
#
# Static dielectric constant tensor:
#      x y z
#    x 1.951640 0.000000 0.000000 
#    y 0.000000 1.951640 0.000000 
#    z 0.000000 0.000000 1.906160 
# 
# From -- ./inp_files/737.got.cif
#   From: 2010.05.17/outbox.cif.g08.bks.cpg/sg116_1_cif.got.tgz:737.got - 2010.05.20 11:11:43.
