data_PCOD9557633
_publ_section_title
;
Structure prediction by ZEFSAII (Michael W. Deem and Ramdas Pophale) SiO2 
 PCOD9557633
Probable space group: P -4 C 2
;
_chemical_formula_sum "Si O2"
_cell_formula_units_Z 42
_cell_length_a 11.691859
_cell_length_b 11.691859
_cell_length_c 18.947932
_cell_angle_alpha 90.000000
_cell_angle_beta 90.000000
_cell_angle_gamma 90.000000
_cell_volume 2590.174098
_symmetry_space_group_name_H-M "P -4 C 2"
_symmetry_group_IT_number 116
_symmetry_cell_setting 'tetragonal'
loop_
_space_group_symop_operation_xyz
x,y,z
y,-x,-z
-x,-y,z
-y,x,-z
y,x,1/2-z
-y,-x,1/2-z
-x,y,1/2+z
x,-y,1/2+z
loop_
_atom_site_type_symbol
_atom_site_label
_atom_site_fract_x
_atom_site_fract_y
_atom_site_fract_z
Si Si1 0.000000 0.000000 0.750000
Si Si2 0.983173 0.760887 0.666187
Si Si3 0.011110 0.190035 0.505578
Si Si4 0.635125 0.010945 0.122872
Si Si5 0.372075 0.196146 0.739589
Si Si6 0.170171 0.357891 0.251683
O O1 0.002790 0.112434 0.700338
O O2 0.094525 0.688854 0.687398
O O3 0.966118 0.762577 0.583211
O O4 0.878757 0.698253 0.704310
O O5 0.997704 0.284197 0.444736
O O6 0.896836 0.113684 0.511841
O O7 0.664176 0.909439 0.178950
O O8 0.500000 0.000000 0.105999
O O9 0.651425 0.130267 0.165483
O O10 0.322110 0.322110 0.750000
O O11 0.506954 0.188393 0.751867
O O12 0.286078 0.286078 0.250000
#
# Coordination Sequence:
#
# PCOD9557633 Si02
#       6
#     2   8   8   8   8   8
#     4  12  20  32  58  76 108 140 162 212 260 320
#     4  11  21  33  54  79 106 136 172 210 259 308
#     4  11  22  31  49  79 105 133 169 208 249 312
#     4   9  20  37  52  70 105 142 166 208 268 308
#     4  10  20  35  55  75 102 138 176 216 260 306
#     4  10  20  35  55  75 102 138 176 216 260 306
#
# _framework density 16.215126999999999
#
# number of rings (size 3 to 8) (size 9 to 14) (size 15 to 20)
#    0.000    1.714    1.905    5.143    5.333    1.905 
#    0.000    0.000    0.000    0.000    0.000    0.000 
#    0.000    9.143    0.000    0.000    0.000    0.000 
#
# Total GULP energy -234389.289142 kJ/mol
# GULP energy per Si atom -5580.697361 kJ/mol
# Density = 1.617822 g / cm^3
# Si number density = 16.215127 Si / 1000 Ang^3
#
#
#
# Elastic Constant Matrix: (Units=GPa)
#
#
# Indices 1 2 3 4 5 6 
#
# 1 66.4326 11.5395 2.4206 0.0000 0.0000 0.0000
# 2 11.5395 66.4326 2.4206 0.0000 0.0000 0.0000
# 3 2.4206 2.4206 54.8565 0.0000 0.0000 0.0000
# 4 0.0000 0.0000 0.0000 7.0008 0.0000 0.0000
# 5 0.0000 0.0000 0.0000 0.0000 7.0008 0.0000
# 6 0.0000 0.0000 0.0000 0.0000 0.0000 25.5979
#
#
#
# Elastic Compliance Matrix: (Units=1/GPa)
#
#
# Indices 1 2 3 4 5 6 
#
# 1 0.015539 -0.002678 -0.000567 0.000000 0.000000 0.000000
# 2 -0.002678 0.015539 -0.000567 0.000000 0.000000 0.000000
# 3 -0.000567 -0.000567 0.018279 0.000000 0.000000 0.000000
# 4 0.000000 0.000000 0.000000 0.142841 0.000000 0.000000
# 5 0.000000 0.000000 0.000000 0.000000 0.142841 0.000000
# 6 0.000000 0.000000 0.000000 0.000000 0.000000 0.039066
#
#
# Mechanical properties :
#
#
# Convention : Reuss Voigt Hill
#
# Bulk Modulus (GPa) = 23.96345 24.49813 24.23079
# Shear Modulus (GPa) = 12.63767 19.34260 15.99013
#
# Velocity S-wave (km/s) = 2.79476 3.45755 3.14367
# Velocity P-wave (km/s) = 5.02243 5.57499 5.30591
#
# Compressibility (1/GPa) = 0.04173021
#
# Stress axis : x y z
#
# Youngs Moduli (GPa) = 64.35507 64.35507 54.70620
#
# Poissons Ratio (x) = 0.17237 0.03104
# Poissons Ratio (y) = 0.17237 0.03104
# Poissons Ratio (z) = 0.03652 0.03652
#
# Static dielectric constant tensor:
#      x y z
#    x 1.553330 0.000000 0.000000 
#    y 0.000000 1.553330 0.000000 
#    z 0.000000 0.000000 1.526770 
# 
# From -- ./inp_files/3294.got.cif
#   From: 2010.05.17/outbox.cif.g08.bks.cpg/sg116_2_cif.got.tgz:3294.got - 2010.05.20 11:11:43.
