data_PCOD9557044
_publ_section_title
;
Structure prediction by ZEFSAII (Michael W. Deem and Ramdas Pophale) SiO2 
 PCOD9557044
Probable space group: P -4 M 2
;
_chemical_formula_sum "Si O2"
_cell_formula_units_Z 48
_cell_length_a 14.325614
_cell_length_b 14.325614
_cell_length_c 11.884155
_cell_angle_alpha 90.000000
_cell_angle_beta 90.000000
_cell_angle_gamma 90.000000
_cell_volume 2438.904514
_symmetry_space_group_name_H-M "P -4 M 2"
_symmetry_group_IT_number 115
_symmetry_cell_setting 'tetragonal'
loop_
_space_group_symop_operation_xyz
x,y,z
y,-x,-z
-x,-y,z
-y,x,-z
y,x,-z
-y,-x,-z
-x,y,z
x,-y,z
loop_
_atom_site_type_symbol
_atom_site_label
_atom_site_fract_x
_atom_site_fract_y
_atom_site_fract_z
Si Si1 0.606596 0.857228 0.988865
Si Si2 0.397052 0.895973 0.334116
Si Si3 0.601343 0.717224 0.172480
Si Si4 0.802305 0.699739 0.229891
Si Si5 0.897332 0.801666 0.897435
Si Si6 0.108960 0.746308 0.463636
O O1 0.500000 0.891458 0.006967
O O2 0.607532 0.752988 0.043857
O O3 0.697056 0.900054 0.050438
O O4 0.634828 0.857204 0.858182
O O5 0.500000 0.895612 0.387157
O O6 0.398057 0.814824 0.242763
O O7 0.321199 0.880571 0.429217
O O8 0.382951 0.000000 0.284632
O O9 0.500000 0.672202 0.190522
O O10 0.694426 0.668803 0.215879
O O11 0.806944 0.807740 0.184753
O O12 0.840284 0.702201 0.355368
O O13 0.000000 0.823185 0.849819
O O14 0.870701 0.870701 0.000000
O O15 0.158347 0.841654 0.500000
O O16 0.000000 0.757914 0.438429
#
# Coordination Sequence:
#
# PCOD9557044 Si02
#       6
#     8   8   8   8   8   8
#     4   9  19  34  54  82 113 143 175 217 276 338
#     4   9  18  33  55  81 104 133 181 237 285 327
#     4   9  16  30  54  81 108 138 175 222 273 328
#     4  10  20  35  54  80 111 145 182 226 275 332
#     4   9  19  34  52  76 107 143 182 225 273 329
#     4  11  23  39  55  73 106 148 191 235 279 328
#
# _framework density 19.680966999999999
#
# number of rings (size 3 to 8) (size 9 to 14) (size 15 to 20)
#    0.000    2.500    1.667    1.500    0.000    7.333 
#    0.000    3.333    0.000    0.500    0.000    7.000 
#    0.000    0.333    0.000    0.000    0.000    0.000 
#
# Total GULP energy -267423.289140 kJ/mol
# GULP energy per Si atom -5571.318524 kJ/mol
# Density = 1.963617 g / cm^3
# Si number density = 19.680967 Si / 1000 Ang^3
#
#
#
# Elastic Constant Matrix: (Units=GPa)
#
#
# Indices 1 2 3 4 5 6 
#
# 1 62.9064 13.5157 9.4667 0.0000 0.0000 0.0000
# 2 13.5157 62.9060 9.4676 0.0000 0.0000 0.0000
# 3 9.4667 9.4676 63.2981 0.0000 0.0000 0.0000
# 4 0.0000 0.0000 0.0000 15.9144 0.0000 0.0000
# 5 0.0000 0.0000 0.0000 0.0000 15.9149 0.0000
# 6 0.0000 0.0000 0.0000 0.0000 0.0000 8.1058
#
#
#
# Elastic Compliance Matrix: (Units=1/GPa)
#
#
# Indices 1 2 3 4 5 6 
#
# 1 0.016918 -0.003329 -0.002032 0.000000 0.000000 0.000000
# 2 -0.003329 0.016918 -0.002033 0.000000 0.000000 0.000000
# 3 -0.002032 -0.002033 0.016406 0.000000 0.000000 0.000000
# 4 0.000000 0.000000 0.000000 0.062836 0.000000 0.000000
# 5 0.000000 0.000000 0.000000 0.000000 0.062834 0.000000
# 6 0.000000 0.000000 0.000000 0.000000 0.000000 0.123368
#
#
# Mechanical properties :
#
#
# Convention : Reuss Voigt Hill
#
# Bulk Modulus (GPa) = 28.20537 28.22336 28.21436
# Shear Modulus (GPa) = 15.34276 18.43105 16.88690
#
# Velocity S-wave (km/s) = 2.79511 3.06353 2.93240
# Velocity P-wave (km/s) = 4.97788 5.18510 5.08254
#
# Compressibility (1/GPa) = 0.03545425
#
# Stress axis : x y z
#
# Youngs Moduli (GPa) = 59.10968 59.10897 60.95253
#
# Poissons Ratio (x) = 0.19677 0.12387
# Poissons Ratio (y) = 0.19678 0.12389
# Poissons Ratio (z) = 0.12012 0.12014
#
# Static dielectric constant tensor:
#      x y z
#    x 1.721050 0.000000 0.000000 
#    y 0.000000 1.721050 0.000000 
#    z 0.000000 0.000000 1.688690 
# 
# From -- ./inp_files/2957.got.cif
#   From: 2010.05.17/outbox.cif.g08.bks.cpg/sg115_2_cif.got.tgz:2957.got - 2010.05.20 11:07:42.
