data_PCOD9557753
_publ_section_title
;
Structure prediction by ZEFSAII (Michael W. Deem and Ramdas Pophale) SiO2 
 PCOD9557753
Probable space group: P -4 C 2
;
_chemical_formula_sum "Si O2"
_cell_formula_units_Z 30
_cell_length_a 11.612725
_cell_length_b 11.612725
_cell_length_c 8.733783
_cell_angle_alpha 90.000000
_cell_angle_beta 90.000000
_cell_angle_gamma 90.000000
_cell_volume 1177.797642
_symmetry_space_group_name_H-M "P -4 C 2"
_symmetry_group_IT_number 116
_symmetry_cell_setting 'tetragonal'
loop_
_space_group_symop_operation_xyz
x,y,z
y,-x,-z
-x,-y,z
-y,x,-z
y,x,1/2-z
-y,-x,1/2-z
-x,y,1/2+z
x,-y,1/2+z
loop_
_atom_site_type_symbol
_atom_site_label
_atom_site_fract_x
_atom_site_fract_y
_atom_site_fract_z
Si Si1 0.797106 0.380649 0.549479
Si Si2 0.265021 0.265021 0.750000
Si Si3 0.112875 0.425514 0.339001
Si Si4 0.000000 0.000000 0.500000
Si Si5 0.251739 0.037769 0.921069
O O1 0.718586 0.328818 0.414134
O O2 0.846933 0.496329 0.478225
O O3 0.585409 0.222389 0.774483
O O4 0.908271 0.299243 0.583522
O O5 0.286719 0.131462 0.793938
O O6 0.081769 0.303350 0.416685
O O7 0.000000 0.500000 0.279867
O O8 0.115298 0.967551 0.412128
#
# Coordination Sequence:
#
# PCOD9557753 Si02
#       5
#     8   4   8   2   8
#     4  11  22  41  64  87 125 172 234 285 340 399
#     4  12  24  39  58  96 130 177 230 286 352 420
#     4  10  21  41  67  86 115 185 245 293 325 395
#     4  12  24  42  56  90 152 194 224 270 352 430
#     4  11  23  41  58  87 135 190 230 273 340 411
#
# _framework density 25.471271000000002
#
# number of rings (size 3 to 8) (size 9 to 14) (size 15 to 20)
#    0.000    1.067    2.667    7.200    0.000    1.600 
#    4.800    0.000    0.000    0.000    0.000    0.000 
#    0.000   51.200    0.000    0.000    0.000    0.000 
#
# Total GULP energy -167331.877171 kJ/mol
# GULP energy per Si atom -5577.729239 kJ/mol
# Density = 2.541330 g / cm^3
# Si number density = 25.471271 Si / 1000 Ang^3
#
#
#
# Elastic Constant Matrix: (Units=GPa)
#
#
# Indices 1 2 3 4 5 6 
#
# 1 80.9524 19.0911 23.3054 0.0000 0.0000 0.0000
# 2 19.0911 80.9524 23.3054 0.0000 0.0000 0.0000
# 3 23.3054 23.3054 117.8252 0.0000 0.0000 0.0000
# 4 0.0000 0.0000 0.0000 24.9924 0.0000 0.0000
# 5 0.0000 0.0000 0.0000 0.0000 24.9924 0.0000
# 6 0.0000 0.0000 0.0000 0.0000 0.0000 30.2092
#
#
#
# Elastic Compliance Matrix: (Units=1/GPa)
#
#
# Indices 1 2 3 4 5 6 
#
# 1 0.013588 -0.002577 -0.002178 0.000000 0.000000 0.000000
# 2 -0.002577 0.013588 -0.002178 0.000000 0.000000 0.000000
# 3 -0.002178 -0.002178 0.009349 0.000000 0.000000 0.000000
# 4 0.000000 0.000000 0.000000 0.040012 0.000000 0.000000
# 5 0.000000 0.000000 0.000000 0.000000 0.040012 0.000000
# 6 0.000000 0.000000 0.000000 0.000000 0.000000 0.033102
#
#
# Mechanical properties :
#
#
# Convention : Reuss Voigt Hill
#
# Bulk Modulus (GPa) = 44.13437 45.68153 44.90795
# Shear Modulus (GPa) = 29.22786 30.30736 29.76761
#
# Velocity S-wave (km/s) = 3.39113 3.45318 3.42230
# Velocity P-wave (km/s) = 5.71819 5.82003 5.76934
#
# Compressibility (1/GPa) = 0.02265808
#
# Stress axis : x y z
#
# Youngs Moduli (GPa) = 73.59570 73.59570 106.96715
#
# Poissons Ratio (x) = 0.18969 0.23295
# Poissons Ratio (y) = 0.18969 0.23295
# Poissons Ratio (z) = 0.16028 0.16028
#
# Static dielectric constant tensor:
#      x y z
#    x 2.077620 0.000000 0.000000 
#    y 0.000000 2.077620 0.000000 
#    z 0.000000 0.000000 2.196570 
# 
# From -- ./inp_files/1510.got.cif
#   From: 2010.05.17/outbox.cif.g08.bks.cpg/sg116_1_cif.got.tgz:1510.got - 2010.05.20 11:11:43.
