data_PCOD9557937
_publ_section_title
;
Structure prediction by ZEFSAII (Michael W. Deem and Ramdas Pophale) SiO2 
 PCOD9557937
Probable space group: P -4 C 2
;
_chemical_formula_sum "Si O2"
_cell_formula_units_Z 18
_cell_length_a 8.017064
_cell_length_b 8.017064
_cell_length_c 13.299143
_cell_angle_alpha 90.000000
_cell_angle_beta 90.000000
_cell_angle_gamma 90.000000
_cell_volume 854.780010
_symmetry_space_group_name_H-M "P -4 C 2"
_symmetry_group_IT_number 116
_symmetry_cell_setting 'tetragonal'
loop_
_space_group_symop_operation_xyz
x,y,z
y,-x,-z
-x,-y,z
-y,x,-z
y,x,1/2-z
-y,-x,1/2-z
-x,y,1/2+z
x,-y,1/2+z
loop_
_atom_site_type_symbol
_atom_site_label
_atom_site_fract_x
_atom_site_fract_y
_atom_site_fract_z
Si Si1 0.500000 0.500000 0.500000
Si Si2 0.620378 0.858002 0.527225
Si Si3 0.901031 0.826718 0.357680
O O1 0.541360 0.678153 0.552502
O O2 0.769679 0.826496 0.448587
O O3 0.500000 0.000000 0.479645
O O4 0.690671 0.956412 0.623110
O O5 0.813682 0.813682 0.250000
O O6 0.000000 0.000000 0.361128
#
# Coordination Sequence:
#
# PCOD9557937 Si02
#       3
#     2   8   8
#     4  12  24  40  78 104 136 190 232 292 350 428
#     4  12  22  43  69  98 145 180 232 292 356 417
#     4  11  22  41  70  97 131 191 237 283 357 426
#
# _framework density 21.058050999999999
#
# number of rings (size 3 to 8) (size 9 to 14) (size 15 to 20)
#    0.000    0.444    8.889    0.000    0.000    1.778 
#    0.000    1.111    0.000    0.000    0.000    0.000 
#    0.000    0.000    0.000    0.000    0.000    0.000 
#
# Total GULP energy -100326.276687 kJ/mol
# GULP energy per Si atom -5573.682038 kJ/mol
# Density = 2.101012 g / cm^3
# Si number density = 21.058051 Si / 1000 Ang^3
#
#
#
# Elastic Constant Matrix: (Units=GPa)
#
#
# Indices 1 2 3 4 5 6 
#
# 1 146.8078 44.5256 25.0830 0.0000 0.0000 0.0000
# 2 44.5256 146.8078 25.0830 0.0000 0.0000 0.0000
# 3 25.0830 25.0830 86.4737 0.0000 0.0000 0.0000
# 4 0.0000 0.0000 0.0000 1.2155 0.0000 0.0000
# 5 0.0000 0.0000 0.0000 0.0000 1.2155 0.0000
# 6 0.0000 0.0000 0.0000 0.0000 0.0000 59.5264
#
#
#
# Elastic Compliance Matrix: (Units=1/GPa)
#
#
# Indices 1 2 3 4 5 6 
#
# 1 0.007717 -0.002060 -0.001641 0.000000 0.000000 0.000000
# 2 -0.002060 0.007717 -0.001641 0.000000 0.000000 0.000000
# 3 -0.001641 -0.001641 0.012516 0.000000 0.000000 0.000000
# 4 0.000000 0.000000 0.000000 0.822734 0.000000 0.000000
# 5 0.000000 0.000000 0.000000 0.000000 0.822734 0.000000
# 6 0.000000 0.000000 0.000000 0.000000 0.000000 0.016799
#
#
# Mechanical properties :
#
#
# Convention : Reuss Voigt Hill
#
# Bulk Modulus (GPa) = 57.91649 63.27471 60.59560
# Shear Modulus (GPa) = 2.92971 31.41798 17.17385
#
# Velocity S-wave (km/s) = 1.18079 3.86679 2.85888
# Velocity P-wave (km/s) = 5.42420 7.07454 6.30361
#
# Compressibility (1/GPa) = 0.01726624
#
# Stress axis : x y z
#
# Youngs Moduli (GPa) = 129.58781 129.58781 79.89714
#
# Poissons Ratio (x) = 0.26696 0.13110
# Poissons Ratio (y) = 0.26696 0.13110
# Poissons Ratio (z) = 0.21263 0.21263
#
# Static dielectric constant tensor:
#      x y z
#    x 1.856880 0.000000 0.000000 
#    y 0.000000 1.856880 0.000000 
#    z 0.000000 0.000000 1.757590 
# 
# From -- ./inp_files/1224.got.cif
#   From: 2010.05.17/outbox.cif.g08.bks.cpg/sg116_1_cif.got.tgz:1224.got - 2010.05.20 11:11:43.
