data_PCOD9557771
_publ_section_title
;
Structure prediction by ZEFSAII (Michael W. Deem and Ramdas Pophale) SiO2 
 PCOD9557771
Probable space group: P -4 C 2
;
_chemical_formula_sum "Si O2"
_cell_formula_units_Z 52
_cell_length_a 18.210886
_cell_length_b 18.210886
_cell_length_c 8.396925
_cell_angle_alpha 90.000000
_cell_angle_beta 90.000000
_cell_angle_gamma 90.000000
_cell_volume 2784.725717
_symmetry_space_group_name_H-M "P -4 C 2"
_symmetry_group_IT_number 116
_symmetry_cell_setting 'tetragonal'
loop_
_space_group_symop_operation_xyz
x,y,z
y,-x,-z
-x,-y,z
-y,x,-z
y,x,1/2-z
-y,-x,1/2-z
-x,y,1/2+z
x,-y,1/2+z
loop_
_atom_site_type_symbol
_atom_site_label
_atom_site_fract_x
_atom_site_fract_y
_atom_site_fract_z
Si Si1 0.520322 0.163749 0.357650
Si Si2 0.663749 0.979677 0.142349
Si Si3 0.171830 0.328171 0.500000
Si Si4 0.102113 0.720849 0.547358
Si Si5 0.291910 0.708091 0.250000
Si Si6 0.000000 0.500000 0.250001
Si Si7 0.779151 0.602112 0.952642
Si Si8 0.208093 0.791908 0.750000
O O1 0.584075 0.179397 0.487341
O O2 0.499548 0.077305 0.347476
O O3 0.556456 0.182971 0.189239
O O4 0.452721 0.216518 0.399397
O O5 0.679397 0.915924 0.012657
O O6 0.682972 0.943544 0.310759
O O7 0.577305 0.000451 0.152524
O O8 0.716519 0.047278 0.100601
O O9 0.216450 0.297399 0.650759
O O10 0.202602 0.283552 0.349239
O O11 0.169818 0.669818 0.499999
O O12 0.140816 0.791695 0.624790
O O13 0.359187 0.708304 0.124791
#
# Coordination Sequence:
#
# PCOD9557771 Si02
#       8
#     8   8   8   8   4   4   8   4
#     4  11  23  32  52  83 117 158 203 237 290 364
#     4  11  23  32  52  83 117 158 203 237 290 364
#     4  10  22  35  54  80 112 163 206 254 294 358
#     4  11  22  37  54  80 114 162 204 245 290 351
#     4  10  22  40  56  70 118 168 208 256 302 346
#     4  12  20  34  48  82 132 162 176 238 288 346
#     4  11  22  37  54  80 114 162 204 245 290 351
#     4  10  22  40  56  70 118 168 208 256 302 346
#
# _framework density 18.673292
#
# number of rings (size 3 to 8) (size 9 to 14) (size 15 to 20)
#    0.000    1.231    4.615    1.846    4.308    1.231 
#    0.000    0.000    0.000    0.000    0.000    0.000 
#    0.000   80.000    0.000    0.000    0.000    0.000 
#
# Total GULP energy -289792.661903 kJ/mol
# GULP energy per Si atom -5572.935806 kJ/mol
# Density = 1.863079 g / cm^3
# Si number density = 18.673292 Si / 1000 Ang^3
#
#
#
# Elastic Constant Matrix: (Units=GPa)
#
#
# Indices 1 2 3 4 5 6 
#
# 1 67.0203 48.7159 26.9773 0.0000 0.0000 0.0000
# 2 48.7159 67.0203 26.9773 0.0000 0.0000 0.0000
# 3 26.9773 26.9773 63.1727 0.0000 0.0000 0.0000
# 4 0.0000 0.0000 0.0000 37.6001 0.0000 0.0000
# 5 0.0000 0.0000 0.0000 0.0000 37.6001 0.0000
# 6 0.0000 0.0000 0.0000 0.0000 0.0000 30.2411
#
#
#
# Elastic Compliance Matrix: (Units=1/GPa)
#
#
# Indices 1 2 3 4 5 6 
#
# 1 0.032710 -0.021922 -0.004607 0.000000 0.000000 0.000000
# 2 -0.021922 0.032710 -0.004607 0.000000 0.000000 0.000000
# 3 -0.004607 -0.004607 0.019764 0.000000 0.000000 0.000000
# 4 0.000000 0.000000 0.000000 0.026596 0.000000 0.000000
# 5 0.000000 0.000000 0.000000 0.000000 0.026596 0.000000
# 6 0.000000 0.000000 0.000000 0.000000 0.000000 0.033068
#
#
# Mechanical properties :
#
#
# Convention : Reuss Voigt Hill
#
# Bulk Modulus (GPa) = 43.64398 44.72826 44.18612
# Shear Modulus (GPa) = 20.71665 27.39112 24.05388
#
# Velocity S-wave (km/s) = 3.33442 3.83412 3.59297
# Velocity P-wave (km/s) = 6.18447 6.60346 6.39739
#
# Compressibility (1/GPa) = 0.02291266
#
# Stress axis : x y z
#
# Youngs Moduli (GPa) = 30.57184 30.57184 50.59624
#
# Poissons Ratio (x) = 0.67019 0.23309
# Poissons Ratio (y) = 0.67019 0.23309
# Poissons Ratio (z) = 0.14084 0.14084
#
# Static dielectric constant tensor:
#      x y z
#    x 1.657220 0.000000 0.000000 
#    y 0.000000 1.657220 0.000000 
#    z 0.000000 0.000000 1.778620 
# 
# From -- ./inp_files/1030.got.cif
#   From: 2010.05.17/outbox.cif.g08.bks.cpg/sg116_1_cif.got.tgz:1030.got - 2010.05.20 11:11:43.
