data_PCOD9557786
_publ_section_title
;
Structure prediction by ZEFSAII (Michael W. Deem and Ramdas Pophale) SiO2 
 PCOD9557786
Probable space group: P -4 C 2
;
_chemical_formula_sum "Si O2"
_cell_formula_units_Z 34
_cell_length_a 14.188001
_cell_length_b 14.188001
_cell_length_c 8.640220
_cell_angle_alpha 90.000000
_cell_angle_beta 90.000000
_cell_angle_gamma 90.000000
_cell_volume 1739.270863
_symmetry_space_group_name_H-M "P -4 C 2"
_symmetry_group_IT_number 116
_symmetry_cell_setting 'tetragonal'
loop_
_space_group_symop_operation_xyz
x,y,z
y,-x,-z
-x,-y,z
-y,x,-z
y,x,1/2-z
-y,-x,1/2-z
-x,y,1/2+z
x,-y,1/2+z
loop_
_atom_site_type_symbol
_atom_site_label
_atom_site_fract_x
_atom_site_fract_y
_atom_site_fract_z
Si Si1 0.389816 0.881867 0.237519
Si Si2 0.779061 0.220940 0.250000
Si Si3 0.521047 0.703188 0.594585
Si Si4 0.293289 0.693769 0.924195
Si Si5 0.500000 0.500000 0.250000
Si Si6 0.000000 0.500000 0.012690
O O1 0.276215 0.878699 0.243946
O O2 0.427951 0.774592 0.213708
O O3 0.438182 0.931252 0.381907
O O4 0.429990 0.938546 0.091496
O O5 0.742764 0.251253 0.423760
O O6 0.415317 0.736245 0.566623
O O7 0.593206 0.700958 0.450355
O O8 0.508175 0.596478 0.653382
O O9 0.271395 0.728606 0.750000
#
# Coordination Sequence:
#
# PCOD9557786 Si02
#       6
#     8   4   8   8   2   4
#     4  10  22  39  60  83 117 164 216 271 319 372
#     4  10  23  38  58  87 110 143 199 262 328 380
#     4  11  22  34  50  75 118 162 216 259 298 358
#     4  11  23  33  49  72 107 159 202 258 299 358
#     4  12  22  38  50  84 130 170 210 246 298 360
#     4  10  22  40  62  86 118 170 222 270 318 382
#
# _framework density 19.548423
#
# number of rings (size 3 to 8) (size 9 to 14) (size 15 to 20)
#    0.000    1.412    1.176    5.647   13.176    0.000 
#    0.000    0.000    0.000    0.000    0.000    0.000 
#    0.000    2.824    0.000    0.000    0.000    0.000 
#
# Total GULP energy -189407.923736 kJ/mol
# GULP energy per Si atom -5570.821286 kJ/mol
# Density = 1.950393 g / cm^3
# Si number density = 19.548423 Si / 1000 Ang^3
#
#
#
# Elastic Constant Matrix: (Units=GPa)
#
#
# Indices 1 2 3 4 5 6 
#
# 1 60.6845 12.4063 25.4827 0.0000 0.0000 0.0000
# 2 12.4063 60.6839 25.4828 0.0000 0.0000 0.0000
# 3 25.4827 25.4828 143.2719 0.0000 0.0000 0.0000
# 4 0.0000 0.0000 0.0000 15.3537 0.0000 0.0000
# 5 0.0000 0.0000 0.0000 0.0000 15.3537 0.0000
# 6 0.0000 0.0000 0.0000 0.0000 0.0000 24.2498
#
#
#
# Elastic Compliance Matrix: (Units=1/GPa)
#
#
# Indices 1 2 3 4 5 6 
#
# 1 0.018166 -0.002547 -0.002778 0.000000 0.000000 0.000000
# 2 -0.002547 0.018166 -0.002778 0.000000 0.000000 0.000000
# 3 -0.002778 -0.002778 0.007968 0.000000 0.000000 0.000000
# 4 0.000000 0.000000 0.000000 0.065131 0.000000 0.000000
# 5 0.000000 0.000000 0.000000 0.000000 0.065131 0.000000
# 6 0.000000 0.000000 0.000000 0.000000 0.000000 0.041237
#
#
# Mechanical properties :
#
#
# Convention : Reuss Voigt Hill
#
# Bulk Modulus (GPa) = 35.59551 43.48713 39.54132
# Shear Modulus (GPa) = 20.71506 24.40935 22.56220
#
# Velocity S-wave (km/s) = 3.25880 3.53747 3.40099
# Velocity P-wave (km/s) = 5.69282 6.24332 5.97441
#
# Compressibility (1/GPa) = 0.02809343
#
# Stress axis : x y z
#
# Youngs Moduli (GPa) = 55.04796 55.04733 125.50295
#
# Poissons Ratio (x) = 0.14022 0.34864
# Poissons Ratio (y) = 0.14023 0.34865
# Poissons Ratio (z) = 0.15292 0.15292
#
# Static dielectric constant tensor:
#      x y z
#    x 1.725180 0.000000 0.000000 
#    y 0.000000 1.725190 0.000000 
#    z 0.000000 0.000000 1.758020 
# 
# From -- ./inp_files/682.got.cif
#   From: 2010.05.17/outbox.cif.g08.bks.cpg/sg116_1_cif.got.tgz:682.got - 2010.05.20 11:11:43.
