data_PCOD9557201
_publ_section_title
;
Structure prediction by ZEFSAII (Michael W. Deem and Ramdas Pophale) SiO2 
 PCOD9557201
Probable space group: P -4 M 2
;
_chemical_formula_sum "Si O2"
_cell_formula_units_Z 44
_cell_length_a 9.346290
_cell_length_b 9.346290
_cell_length_c 29.202892
_cell_angle_alpha 90.000000
_cell_angle_beta 90.000000
_cell_angle_gamma 90.000000
_cell_volume 2550.964219
_symmetry_space_group_name_H-M "P -4 M 2"
_symmetry_group_IT_number 115
_symmetry_cell_setting 'tetragonal'
loop_
_space_group_symop_operation_xyz
x,y,z
y,-x,-z
-x,-y,z
-y,x,-z
y,x,-z
-y,-x,-z
-x,y,z
x,-y,z
loop_
_atom_site_type_symbol
_atom_site_label
_atom_site_fract_x
_atom_site_fract_y
_atom_site_fract_z
Si Si1 0.671594 0.667555 0.866986
Si Si2 0.831957 0.828431 0.052569
Si Si3 0.827394 0.668874 0.692375
Si Si4 0.329835 0.329835 0.500000
Si Si5 0.831547 0.328553 0.226240
Si Si6 0.325848 0.834883 0.409953
O O1 0.500000 0.680735 0.872363
O O2 0.706497 0.500000 0.862531
O O3 0.748653 0.736987 0.910379
O O4 0.712115 0.751778 0.820782
O O5 0.000000 0.792900 0.059156
O O6 0.818269 0.000000 0.057384
O O7 0.792907 0.792907 0.000000
O O8 0.792723 0.500000 0.697811
O O9 0.751874 0.759768 0.731362
O O10 0.784308 0.716037 0.640879
O O11 0.000000 0.681305 0.694998
O O12 0.306107 0.500000 0.496232
O O13 0.255283 0.277328 0.546456
O O14 0.814916 0.500000 0.232024
O O15 0.000000 0.296788 0.222986
O O16 0.500000 0.832043 0.409681
O O17 0.282435 0.000000 0.415220
#
# Coordination Sequence:
#
# PCOD9557201 Si02
#       6
#     8   8   8   4   8   8
#     4  10  21  36  54  77 104 134 169 208 250 297
#     4   9  19  36  56  78 105 137 172 208 247 293
#     4   9  18  33  53  75  98 128 167 207 248 297
#     4   9  16  26  44  71  96 120 158 201 236 278
#     4  10  21  36  53  74 101 133 168 206 251 301
#     4   8  15  29  47  67  94 126 157 193 240 290
#
# _framework density 17.248380000000001
#
# number of rings (size 3 to 8) (size 9 to 14) (size 15 to 20)
#    0.000    2.818    0.000    2.727    0.000    5.091 
#    0.000    5.455    0.000    3.545    0.000    0.000 
#    0.000    0.000    0.000    0.000    0.000    0.000 
#
# Total GULP energy -245323.181607 kJ/mol
# GULP energy per Si atom -5575.526855 kJ/mol
# Density = 1.720912 g / cm^3
# Si number density = 17.248380 Si / 1000 Ang^3
#
#
#
# Elastic Constant Matrix: (Units=GPa)
#
#
# Indices 1 2 3 4 5 6 
#
# 1 58.7671 48.2424 85.2893 0.0000 0.0000 0.0000
# 2 48.2424 58.7671 85.2893 0.0000 0.0000 0.0000
# 3 85.2893 85.2893 203.9641 0.0000 0.0000 0.0000
# 4 0.0000 0.0000 0.0000 52.8291 0.0000 0.0000
# 5 0.0000 0.0000 0.0000 0.0000 52.8291 0.0000
# 6 0.0000 0.0000 0.0000 0.0000 0.0000 25.6144
#
#
#
# Elastic Compliance Matrix: (Units=1/GPa)
#
#
# Indices 1 2 3 4 5 6 
#
# 1 0.061521 -0.033494 -0.011720 0.000000 0.000000 0.000000
# 2 -0.033494 0.061521 -0.011720 0.000000 0.000000 0.000000
# 3 -0.011720 -0.011720 0.014704 0.000000 0.000000 0.000000
# 4 0.000000 0.000000 0.000000 0.018929 0.000000 0.000000
# 5 0.000000 0.000000 0.000000 0.000000 0.018929 0.000000
# 6 0.000000 0.000000 0.000000 0.000000 0.000000 0.039041
#
#
# Mechanical properties :
#
#
# Convention : Reuss Voigt Hill
#
# Bulk Modulus (GPa) = 41.87787 84.34891 63.11339
# Shear Modulus (GPa) = 14.86018 33.09968 23.97993
#
# Velocity S-wave (km/s) = 2.93839 4.38539 3.73268
# Velocity P-wave (km/s) = 5.98700 8.64008 7.43287
#
# Compressibility (1/GPa) = 0.02387896
#
# Stress axis : x y z
#
# Youngs Moduli (GPa) = 16.25472 16.25472 68.00846
#
# Poissons Ratio (x) = 0.54444 0.79703
# Poissons Ratio (y) = 0.54444 0.79703
# Poissons Ratio (z) = 0.19050 0.19050
#
# Static dielectric constant tensor:
#      x y z
#    x 1.572590 0.000000 0.000000 
#    y 0.000000 1.572590 0.000000 
#    z 0.000000 0.000000 1.573990 
# 
# From -- ./inp_files/5800.got.cif
#   From: 2010.05.17/outbox.cif.g08.bks.cpg/sg115_3_cif.got.tgz:5800.got - 2010.05.20 11:07:42.
