data_PCOD9557347
_publ_section_title
;
Structure prediction by ZEFSAII (Michael W. Deem and Ramdas Pophale) SiO2 
 PCOD9557347
Probable space group: P -4 M 2
;
_chemical_formula_sum "Si O2"
_cell_formula_units_Z 56
_cell_length_a 14.921036
_cell_length_b 14.921036
_cell_length_c 12.253400
_cell_angle_alpha 90.000000
_cell_angle_beta 90.000000
_cell_angle_gamma 90.000000
_cell_volume 2728.064079
_symmetry_space_group_name_H-M "P -4 M 2"
_symmetry_group_IT_number 115
_symmetry_cell_setting 'tetragonal'
loop_
_space_group_symop_operation_xyz
x,y,z
y,-x,-z
-x,-y,z
-y,x,-z
y,x,-z
-y,-x,-z
-x,y,z
x,-y,z
loop_
_atom_site_type_symbol
_atom_site_label
_atom_site_fract_x
_atom_site_fract_y
_atom_site_fract_z
Si Si1 0.899845 0.402408 0.494785
Si Si2 0.894062 0.702832 0.098169
Si Si3 0.656727 0.779794 0.695817
Si Si4 0.104740 0.096678 0.170919
Si Si5 0.606986 0.599763 0.621576
Si Si6 0.394852 0.891926 0.129552
Si Si7 0.263193 0.854497 0.321564
O O1 0.890495 0.500000 0.552063
O O2 0.829445 0.398461 0.397390
O O3 0.891057 0.319489 0.577082
O O4 0.000000 0.398591 0.447618
O O5 0.835045 0.658373 0.192943
O O6 0.879061 0.810300 0.107323
O O7 0.000000 0.688025 0.118362
O O8 0.872617 0.657635 0.982753
O O9 0.628959 0.676572 0.706783
O O10 0.757624 0.775187 0.651684
O O11 0.177505 0.096440 0.268393
O O12 0.000000 0.099982 0.206297
O O13 0.116604 0.000000 0.111309
O O14 0.633311 0.633311 0.500000
O O15 0.500000 0.592161 0.615404
O O16 0.644306 0.500000 0.641531
O O17 0.500000 0.867208 0.125605
O O18 0.337757 0.848315 0.226065
O O19 0.390573 0.000000 0.146871
#
# Coordination Sequence:
#
# PCOD9557347 Si02
#       7
#     8   8   8   8   8   8   8
#     4  11  23  38  59  87 119 156 197 243 296 352
#     4   9  20  38  58  84 117 151 193 241 290 352
#     4  11  22  35  56  84 117 152 186 233 293 354
#     4   9  18  34  57  83 114 155 199 245 297 350
#     4   9  18  33  52  74 103 141 186 234 281 335
#     4  10  21  38  60  84 113 152 196 244 297 348
#     4  11  22  37  57  85 119 154 196 247 292 343
#
# _framework density 20.527377999999999
#
# number of rings (size 3 to 8) (size 9 to 14) (size 15 to 20)
#    0.000    2.000    0.000    4.286    0.000    7.429 
#    0.000    3.571    0.000    5.143    0.000    8.000 
#    0.000    4.571    0.000    0.143    0.000    0.000 
#
# Total GULP energy -312479.903069 kJ/mol
# GULP energy per Si atom -5579.998269 kJ/mol
# Density = 2.048066 g / cm^3
# Si number density = 20.527378 Si / 1000 Ang^3
#
#
#
# Elastic Constant Matrix: (Units=GPa)
#
#
# Indices 1 2 3 4 5 6 
#
# 1 91.5156 29.1880 37.2825 0.0000 0.0000 0.0000
# 2 29.1880 91.5156 37.2825 0.0000 0.0000 0.0000
# 3 37.2825 37.2825 74.9404 0.0000 0.0000 0.0000
# 4 0.0000 0.0000 0.0000 21.6176 0.0000 0.0000
# 5 0.0000 0.0000 0.0000 0.0000 21.6176 0.0000
# 6 0.0000 0.0000 0.0000 0.0000 0.0000 26.1608
#
#
#
# Elastic Compliance Matrix: (Units=1/GPa)
#
#
# Indices 1 2 3 4 5 6 
#
# 1 0.014002 -0.002042 -0.005950 0.000000 0.000000 0.000000
# 2 -0.002042 0.014002 -0.005950 0.000000 0.000000 0.000000
# 3 -0.005950 -0.005950 0.019264 0.000000 0.000000 0.000000
# 4 0.000000 0.000000 0.000000 0.046259 0.000000 0.000000
# 5 0.000000 0.000000 0.000000 0.000000 0.046259 0.000000
# 6 0.000000 0.000000 0.000000 0.000000 0.000000 0.038225
#
#
# Mechanical properties :
#
#
# Convention : Reuss Voigt Hill
#
# Bulk Modulus (GPa) = 51.58813 51.71972 51.65392
# Shear Modulus (GPa) = 23.54511 24.16042 23.85276
#
# Velocity S-wave (km/s) = 3.39043 3.43444 3.41251
# Velocity P-wave (km/s) = 6.36495 6.40136 6.38318
#
# Compressibility (1/GPa) = 0.01938431
#
# Stress axis : x y z
#
# Youngs Moduli (GPa) = 71.41615 71.41615 51.90902
#
# Poissons Ratio (x) = 0.14582 0.30888
# Poissons Ratio (y) = 0.14582 0.30888
# Poissons Ratio (z) = 0.42495 0.42495
#
# Static dielectric constant tensor:
#      x y z
#    x 1.763760 0.000000 0.000000 
#    y 0.000000 1.763760 0.000000 
#    z 0.000000 0.000000 1.710030 
# 
# From -- ./inp_files/3087.got.cif
#   From: 2010.05.17/outbox.cif.g08.bks.cpg/sg115_2_cif.got.tgz:3087.got - 2010.05.20 11:07:42.
