data_PCOD9557619
_publ_section_title
;
Structure prediction by ZEFSAII (Michael W. Deem and Ramdas Pophale) SiO2 
 PCOD9557619
Probable space group: P -4 C 2
;
_chemical_formula_sum "Si O2"
_cell_formula_units_Z 56
_cell_length_a 20.896367
_cell_length_b 20.896367
_cell_length_c 8.890459
_cell_angle_alpha 90.000000
_cell_angle_beta 90.000000
_cell_angle_gamma 90.000000
_cell_volume 3882.091413
_symmetry_space_group_name_H-M "P -4 C 2"
_symmetry_group_IT_number 116
_symmetry_cell_setting 'tetragonal'
loop_
_space_group_symop_operation_xyz
x,y,z
y,-x,-z
-x,-y,z
-y,x,-z
y,x,1/2-z
-y,-x,1/2-z
-x,y,1/2+z
x,-y,1/2+z
loop_
_atom_site_type_symbol
_atom_site_label
_atom_site_fract_x
_atom_site_fract_y
_atom_site_fract_z
Si Si1 0.306814 0.880258 0.560223
Si Si2 0.007239 0.778772 0.058845
Si Si3 0.434202 0.069176 0.558424
Si Si4 0.308748 0.119414 0.408714
Si Si5 0.201851 0.210717 0.921161
Si Si6 0.433756 0.927255 0.417704
Si Si7 0.148466 0.067100 0.664504
O O1 0.323592 0.870822 0.733991
O O2 0.258430 0.826178 0.503349
O O3 0.371477 0.887310 0.464383
O O4 0.265739 0.945147 0.535989
O O5 0.943596 0.736916 0.085480
O O6 0.043411 0.800359 0.210063
O O7 0.984467 0.841725 0.966936
O O8 0.372031 0.106454 0.503912
O O9 0.499463 0.096815 0.487444
O O10 0.438523 0.066396 0.738316
O O11 0.426190 0.997635 0.491516
O O12 0.270626 0.177630 0.483747
O O13 0.223202 0.223202 0.750000
O O14 0.136595 0.168206 0.902867
O O15 0.082104 0.082104 0.750000
#
# Coordination Sequence:
#
# PCOD9557619 Si02
#       7
#     8   8   8   8   8   8   8
#     4  12  20  33  49  73  95 118 153 194 240 283
#     4  11  20  31  49  69  85 113 144 185 240 288
#     4  11  21  34  46  70  95 129 157 188 234 282
#     4  11  22  32  51  71  95 119 158 192 241 286
#     4  10  20  33  50  71  94 115 151 198 237 285
#     4  11  22  32  49  67  99 126 157 192 230 288
#     4  10  20  35  49  69  85 109 145 191 240 300
#
# _framework density 14.425214
#
# number of rings (size 3 to 8) (size 9 to 14) (size 15 to 20)
#    0.000    1.143    5.714    4.714    2.000    0.000 
#    0.000    0.714    0.000    1.286    0.000    0.000 
#    0.000    0.000    0.000    0.000    0.000    0.714 
#
# Total GULP energy -312336.762870 kJ/mol
# GULP energy per Si atom -5577.442194 kJ/mol
# Density = 1.439238 g / cm^3
# Si number density = 14.425214 Si / 1000 Ang^3
#
#
#
# Elastic Constant Matrix: (Units=GPa)
#
#
# Indices 1 2 3 4 5 6 
#
# 1 62.8556 44.3801 32.9040 0.0000 0.0000 0.0000
# 2 44.3801 62.8556 32.9040 0.0000 0.0000 0.0000
# 3 32.9040 32.9040 122.4003 0.0000 0.0000 0.0000
# 4 0.0000 0.0000 0.0000 19.9037 0.0000 0.0000
# 5 0.0000 0.0000 0.0000 0.0000 19.9037 0.0000
# 6 0.0000 0.0000 0.0000 0.0000 0.0000 13.5996
#
#
#
# Elastic Compliance Matrix: (Units=1/GPa)
#
#
# Indices 1 2 3 4 5 6 
#
# 1 0.032647 -0.021479 -0.003002 0.000000 0.000000 0.000000
# 2 -0.021479 0.032647 -0.003002 0.000000 0.000000 0.000000
# 3 -0.003002 -0.003002 0.009784 0.000000 0.000000 0.000000
# 4 0.000000 0.000000 0.000000 0.050242 0.000000 0.000000
# 5 0.000000 0.000000 0.000000 0.000000 0.050242 0.000000
# 6 0.000000 0.000000 0.000000 0.000000 0.000000 0.073531
#
#
# Mechanical properties :
#
#
# Convention : Reuss Voigt Hill
#
# Bulk Modulus (GPa) = 49.72471 52.05419 50.88945
# Shear Modulus (GPa) = 16.08944 19.87631 17.98288
#
# Velocity S-wave (km/s) = 3.34334 3.71602 3.53459
# Velocity P-wave (km/s) = 7.03203 7.38753 7.21197
#
# Compressibility (1/GPa) = 0.02011073
#
# Stress axis : x y z
#
# Youngs Moduli (GPa) = 30.63092 30.63092 102.20793
#
# Poissons Ratio (x) = 0.65793 0.30684
# Poissons Ratio (y) = 0.65793 0.30684
# Poissons Ratio (z) = 0.09196 0.09196
#
# Static dielectric constant tensor:
#      x y z
#    x 1.476570 0.000000 0.000000 
#    y 0.000000 1.476570 0.000000 
#    z 0.000000 0.000000 1.508750 
# 
# From -- ./inp_files/1115.got.cif
#   From: 2010.05.17/outbox.cif.g08.bks.cpg/sg116_1_cif.got.tgz:1115.got - 2010.05.20 11:11:43.
