data_PCOD9557784
_publ_section_title
;
Structure prediction by ZEFSAII (Michael W. Deem and Ramdas Pophale) SiO2 
 PCOD9557784
Probable space group: P -4 C 2
;
_chemical_formula_sum "Si O2"
_cell_formula_units_Z 40
_cell_length_a 14.999677
_cell_length_b 14.999677
_cell_length_c 7.687819
_cell_angle_alpha 90.000000
_cell_angle_beta 90.000000
_cell_angle_gamma 90.000000
_cell_volume 1729.684781
_symmetry_space_group_name_H-M "P -4 C 2"
_symmetry_group_IT_number 116
_symmetry_cell_setting 'tetragonal'
loop_
_space_group_symop_operation_xyz
x,y,z
y,-x,-z
-x,-y,z
-y,x,-z
y,x,1/2-z
-y,-x,1/2-z
-x,y,1/2+z
x,-y,1/2+z
loop_
_atom_site_type_symbol
_atom_site_label
_atom_site_fract_x
_atom_site_fract_y
_atom_site_fract_z
Si Si1 0.115302 0.115302 0.750000
Si Si2 0.590390 0.180022 0.613826
Si Si3 0.602050 0.602050 0.750000
Si Si4 0.500000 0.500000 0.000000
Si Si5 0.500000 0.000000 0.256951
Si Si6 0.000000 0.000000 0.000000
Si Si7 0.111343 0.674898 0.205186
Si Si8 0.764757 0.597092 0.002061
O O1 0.056183 0.075983 0.904208
O O2 0.220372 0.093774 0.772791
O O3 0.667065 0.169087 0.471836
O O4 0.509978 0.226880 0.512279
O O5 0.541652 0.087341 0.667663
O O6 0.618439 0.225805 0.794535
O O7 0.584984 0.517110 0.623298
O O8 0.678100 0.616100 0.890032
O O9 0.404704 0.961246 0.330741
O O10 0.158457 0.643231 0.384205
#
# Coordination Sequence:
#
# PCOD9557784 Si02
#       8
#     4   8   4   2   4   2   8   8
#     4  11  27  54  80 112 157 217 284 340 404 497
#     4  11  22  38  68 107 151 199 231 314 404 475
#     4  11  23  44  60  92 131 191 260 316 366 463
#     4  10  24  38  68  86 112 194 268 310 372 426
#     4  10  22  38  70 116 158 186 246 312 416 506
#     4  10  28  58  80 106 156 222 280 338 396 486
#     4  11  25  44  73 117 152 200 255 324 404 498
#     4  11  22  41  65 102 154 187 241 313 391 479
#
# _framework density 23.125601
#
# number of rings (size 3 to 8) (size 9 to 14) (size 15 to 20)
#    0.000    1.200    4.000    2.400    5.600    0.000 
#    3.600    2.000    0.000    0.000    0.000    0.000 
#    0.000    0.000    0.000    0.000    0.000    0.000 
#
# Total GULP energy -222713.039062 kJ/mol
# GULP energy per Si atom -5567.825977 kJ/mol
# Density = 2.307297 g / cm^3
# Si number density = 23.125601 Si / 1000 Ang^3
#
#
#
# Elastic Constant Matrix: (Units=GPa)
#
#
# Indices 1 2 3 4 5 6 
#
# 1 142.9238 44.3591 61.6192 0.0000 0.0000 0.0000
# 2 44.3591 142.9238 61.6192 0.0000 0.0000 0.0000
# 3 61.6192 61.6192 142.9250 0.0000 0.0000 0.0000
# 4 0.0000 0.0000 0.0000 -44.4293 0.0000 0.0000
# 5 0.0000 0.0000 0.0000 0.0000 -44.4293 0.0000
# 6 0.0000 0.0000 0.0000 0.0000 0.0000 17.8158
#
#
#
# Elastic Compliance Matrix: (Units=1/GPa)
#
#
# Indices 1 2 3 4 5 6 
#
# 1 0.008800 -0.001346 -0.003214 0.000000 0.000000 0.000000
# 2 -0.001346 0.008800 -0.003214 0.000000 0.000000 0.000000
# 3 -0.003214 -0.003214 0.009768 0.000000 0.000000 0.000000
# 4 0.000000 0.000000 0.000000 -0.022508 0.000000 0.000000
# 5 0.000000 0.000000 0.000000 0.000000 -0.022508 0.000000
# 6 0.000000 0.000000 0.000000 0.000000 0.000000 0.056130
#
#
# Mechanical properties :
#
#
# Convention : Reuss Voigt Hill
#
# Bulk Modulus (GPa) = 84.59314 84.88526 84.73920
# Shear Modulus (GPa) = 86.25303 3.20313 44.72808
#
# Velocity S-wave (km/s) = 6.11380 1.17818 4.40265
# Velocity P-wave (km/s) = 9.30040 6.21584 7.90993
#
# Compressibility (1/GPa) = 0.01182129
#
# Stress axis : x y z
#
# Youngs Moduli (GPa) = 113.63709 113.63709 102.37755
#
# Poissons Ratio (x) = 0.15292 0.32902
# Poissons Ratio (y) = 0.15292 0.32902
# Poissons Ratio (z) = 0.36520 0.36520
#
# Static dielectric constant tensor:
#      x y z
#    x 2.272870 0.000000 0.000000 
#    y 0.000000 2.272870 0.000000 
#    z 0.000000 0.000000 1.943580 
# 
# From -- ./inp_files/891.got.cif
#   From: 2010.05.17/outbox.cif.g08.bks.cpg/sg116_1_cif.got.tgz:891.got - 2010.05.20 11:11:43.
