data_PCOD9557106
_publ_section_title
;
Structure prediction by ZEFSAII (Michael W. Deem and Ramdas Pophale) SiO2 
 PCOD9557106
Probable space group: P -4 M 2
;
_chemical_formula_sum "Si O2"
_cell_formula_units_Z 48
_cell_length_a 8.312319
_cell_length_b 8.312319
_cell_length_c 34.726530
_cell_angle_alpha 90.000000
_cell_angle_beta 90.000000
_cell_angle_gamma 90.000000
_cell_volume 2399.417337
_symmetry_space_group_name_H-M "P -4 M 2"
_symmetry_group_IT_number 115
_symmetry_cell_setting 'tetragonal'
loop_
_space_group_symop_operation_xyz
x,y,z
y,-x,-z
-x,-y,z
-y,x,-z
y,x,-z
-y,-x,-z
-x,y,z
x,-y,z
loop_
_atom_site_type_symbol
_atom_site_label
_atom_site_fract_x
_atom_site_fract_y
_atom_site_fract_z
Si Si1 0.321603 0.309809 0.879058
Si Si2 0.312993 0.185847 0.720535
Si Si3 0.189361 0.500000 0.675740
Si Si4 0.695524 0.184842 0.540909
Si Si5 0.193585 0.183543 0.041256
Si Si6 0.308035 0.500000 0.588855
Si Si7 0.820951 0.190552 0.801709
O O1 0.500000 0.251727 0.868770
O O2 0.322526 0.500000 0.884486
O O3 0.272390 0.235829 0.919724
O O4 0.213294 0.270512 0.842461
O O5 0.500000 0.181063 0.710110
O O6 0.236865 0.334855 0.697730
O O7 0.294728 0.224743 0.766022
O O8 0.248852 0.000000 0.715127
O O9 0.267020 0.500000 0.633607
O O10 0.000000 0.500000 0.671173
O O11 0.776924 0.223077 0.500000
O O12 0.500000 0.193621 0.536586
O O13 0.747043 0.332628 0.568755
O O14 0.732594 0.000000 0.553189
O O15 0.000000 0.179031 0.037770
O O16 0.252802 0.000000 0.045383
O O17 0.251785 0.251785 0.000000
O O18 0.500000 0.500000 0.584471
O O19 0.000000 0.233791 0.788263
O O20 0.814028 0.000000 0.808784
#
# Coordination Sequence:
#
# PCOD9557106 Si02
#       7
#     8   8   4   8   8   4   8
#     4  11  24  37  51  78 115 150 185 230 280 339
#     4  10  22  42  68  94 123 163 213 266 321 386
#     4  12  26  42  64  94 132 176 216 268 326 386
#     4  10  20  36  63  94 127 169 216 268 328 390
#     4   9  19  37  59  80 103 136 180 229 283 344
#     4  10  22  40  62  90 132 174 218 268 322 382
#     4  10  21  38  61  88 116 147 188 241 300 360
#
# _framework density 20.004857000000001
#
# number of rings (size 3 to 8) (size 9 to 14) (size 15 to 20)
#    0.000    1.833    0.833    3.250    1.167    7.833 
#    0.000    4.167    0.000    0.000    0.000    0.000 
#    0.000    0.000    0.000    0.000    0.000    0.000 
#
# Total GULP energy -267744.679546 kJ/mol
# GULP energy per Si atom -5578.014157 kJ/mol
# Density = 1.995933 g / cm^3
# Si number density = 20.004857 Si / 1000 Ang^3
#
#
#
# Elastic Constant Matrix: (Units=GPa)
#
#
# Indices 1 2 3 4 5 6 
#
# 1 37.6414 26.3247 20.4426 0.0000 0.0000 0.0000
# 2 26.3247 37.6403 20.4427 0.0000 0.0000 0.0000
# 3 20.4426 20.4427 99.5043 0.0000 0.0000 0.0000
# 4 0.0000 0.0000 0.0000 27.7723 0.0000 0.0000
# 5 0.0000 0.0000 0.0000 0.0000 27.7723 0.0000
# 6 0.0000 0.0000 0.0000 0.0000 0.0000 20.3946
#
#
#
# Elastic Compliance Matrix: (Units=1/GPa)
#
#
# Indices 1 2 3 4 5 6 
#
# 1 0.053182 -0.035186 -0.003697 0.000000 0.000000 0.000000
# 2 -0.035186 0.053184 -0.003698 0.000000 0.000000 0.000000
# 3 -0.003697 -0.003698 0.011569 0.000000 0.000000 0.000000
# 4 0.000000 0.000000 0.000000 0.036007 0.000000 0.000000
# 5 0.000000 0.000000 0.000000 0.000000 0.036007 0.000000
# 6 0.000000 0.000000 0.000000 0.000000 0.000000 0.049033
#
#
# Mechanical properties :
#
#
# Convention : Reuss Voigt Hill
#
# Bulk Modulus (GPa) = 30.51287 34.35622 32.43454
# Shear Modulus (GPa) = 14.92236 22.35959 18.64097
#
# Velocity S-wave (km/s) = 2.73415 3.34684 3.05589
# Velocity P-wave (km/s) = 5.02526 5.66977 5.35722
#
# Compressibility (1/GPa) = 0.03277305
#
# Stress axis : x y z
#
# Youngs Moduli (GPa) = 18.80335 18.80270 86.43787
#
# Poissons Ratio (x) = 0.66160 0.31957
# Poissons Ratio (y) = 0.66162 0.31961
# Poissons Ratio (z) = 0.06952 0.06952
#
# Static dielectric constant tensor:
#      x y z
#    x 1.722450 0.000000 0.000000 
#    y 0.000000 1.722450 0.000000 
#    z 0.000000 0.000000 1.684000 
# 
# From -- ./inp_files/6180.got.cif
#   From: 2010.05.17/outbox.cif.g08.bks.cpg/sg115_4_cif.got.tgz:6180.got - 2010.05.20 11:07:42.
