data_PCOD9557614
_publ_section_title
;
Structure prediction by ZEFSAII (Michael W. Deem and Ramdas Pophale) SiO2 
 PCOD9557614
Probable space group: P -4 C 2
;
_chemical_formula_sum "Si O2"
_cell_formula_units_Z 48
_cell_length_a 18.298005
_cell_length_b 18.298005
_cell_length_c 8.160134
_cell_angle_alpha 90.000000
_cell_angle_beta 90.000000
_cell_angle_gamma 90.000000
_cell_volume 2732.151479
_symmetry_space_group_name_H-M "P -4 C 2"
_symmetry_group_IT_number 116
_symmetry_cell_setting 'tetragonal'
loop_
_space_group_symop_operation_xyz
x,y,z
y,-x,-z
-x,-y,z
-y,x,-z
y,x,1/2-z
-y,-x,1/2-z
-x,y,1/2+z
x,-y,1/2+z
loop_
_atom_site_type_symbol
_atom_site_label
_atom_site_fract_x
_atom_site_fract_y
_atom_site_fract_z
Si Si1 0.699651 0.403869 0.678184
Si Si2 0.351334 0.236766 0.797297
Si Si3 0.155984 0.566010 0.497492
Si Si4 0.545891 0.644440 0.678101
Si Si5 0.394638 0.118694 0.009278
Si Si6 0.982384 0.584703 0.195808
O O1 0.673417 0.326584 0.750000
O O2 0.785365 0.415868 0.641226
O O3 0.662005 0.424012 0.502847
O O4 0.668426 0.463046 0.804942
O O5 0.275637 0.275637 0.750000
O O6 0.388720 0.187363 0.655264
O O7 0.409776 0.302433 0.803148
O O8 0.347611 0.188716 0.960103
O O9 0.149472 0.478159 0.477602
O O10 0.073503 0.586296 0.542863
O O11 0.565195 0.565195 0.750000
O O12 0.386330 0.059962 0.861876
O O13 0.380378 0.067538 0.164444
O O14 0.000000 0.500000 0.239551
#
# Coordination Sequence:
#
# PCOD9557614 Si02
#       6
#     8   8   8   8   8   8
#     4  11  22  34  51  67  89 122 164 212 272 322
#     4  10  21  35  51  72 101 139 174 219 275 326
#     4  10  20  33  49  71  99 127 168 216 263 319
#     4  10  21  36  49  66  87 117 164 216 269 316
#     4  11  19  34  53  77 106 131 169 216 263 314
#     4  10  20  30  52  78 102 131 167 211 268 321
#
# _framework density 17.568574000000002
#
# number of rings (size 3 to 8) (size 9 to 14) (size 15 to 20)
#    0.000    1.667    1.667    5.500    2.333    4.333 
#    0.000    1.667    0.000    0.000    0.000    0.000 
#    0.000    0.000    0.000    0.000    0.000   54.167 
#
# Total GULP energy -267742.901548 kJ/mol
# GULP energy per Si atom -5577.977116 kJ/mol
# Density = 1.752859 g / cm^3
# Si number density = 17.568574 Si / 1000 Ang^3
#
#
#
# Elastic Constant Matrix: (Units=GPa)
#
#
# Indices 1 2 3 4 5 6 
#
# 1 62.8995 32.8465 19.5577 0.0000 0.0000 0.0000
# 2 32.8465 62.9016 19.5574 0.0000 0.0000 0.0000
# 3 19.5577 19.5574 66.4217 0.0000 0.0000 0.0000
# 4 0.0000 0.0000 0.0000 31.9858 0.0000 0.0000
# 5 0.0000 0.0000 0.0000 0.0000 31.9854 0.0000
# 6 0.0000 0.0000 0.0000 0.0000 0.0000 13.0800
#
#
#
# Elastic Compliance Matrix: (Units=1/GPa)
#
#
# Indices 1 2 3 4 5 6 
#
# 1 0.022573 -0.010701 -0.003496 0.000000 0.000000 0.000000
# 2 -0.010701 0.022572 -0.003496 0.000000 0.000000 0.000000
# 3 -0.003496 -0.003496 0.017114 0.000000 0.000000 0.000000
# 4 0.000000 0.000000 0.000000 0.031264 0.000000 0.000000
# 5 0.000000 0.000000 0.000000 0.000000 0.031264 0.000000
# 6 0.000000 0.000000 0.000000 0.000000 0.000000 0.076453
#
#
# Mechanical properties :
#
#
# Convention : Reuss Voigt Hill
#
# Bulk Modulus (GPa) = 37.20854 37.34955 37.27905
# Shear Modulus (GPa) = 20.35969 23.42764 21.89367
#
# Velocity S-wave (km/s) = 3.40791 3.65567 3.53396
# Velocity P-wave (km/s) = 6.05889 6.25492 6.15768
#
# Compressibility (1/GPa) = 0.02687555
#
# Stress axis : x y z
#
# Youngs Moduli (GPa) = 44.30011 44.30187 58.43195
#
# Poissons Ratio (x) = 0.47406 0.20427
# Poissons Ratio (y) = 0.47404 0.20425
# Poissons Ratio (z) = 0.15487 0.15486
#
# Static dielectric constant tensor:
#      x y z
#    x 1.614080 0.000000 0.000000 
#    y 0.000000 1.614080 0.000000 
#    z 0.000000 0.000000 1.765390 
# 
# From -- ./inp_files/957.got.cif
#   From: 2010.05.17/outbox.cif.g08.bks.cpg/sg116_1_cif.got.tgz:957.got - 2010.05.20 11:11:43.
