data_PCOD9557712
_publ_section_title
;
Structure prediction by ZEFSAII (Michael W. Deem and Ramdas Pophale) SiO2 
 PCOD9557712
Probable space group: P -4 C 2
;
_chemical_formula_sum "Si O2"
_cell_formula_units_Z 40
_cell_length_a 13.975268
_cell_length_b 13.975268
_cell_length_c 8.563334
_cell_angle_alpha 90.000000
_cell_angle_beta 90.000000
_cell_angle_gamma 90.000000
_cell_volume 1672.488627
_symmetry_space_group_name_H-M "P -4 C 2"
_symmetry_group_IT_number 116
_symmetry_cell_setting 'tetragonal'
loop_
_space_group_symop_operation_xyz
x,y,z
y,-x,-z
-x,-y,z
-y,x,-z
y,x,1/2-z
-y,-x,1/2-z
-x,y,1/2+z
x,-y,1/2+z
loop_
_atom_site_type_symbol
_atom_site_label
_atom_site_fract_x
_atom_site_fract_y
_atom_site_fract_z
Si Si1 0.566388 0.622703 0.576481
Si Si2 0.252815 0.733890 0.432941
Si Si3 0.908080 0.366732 0.052004
Si Si4 0.176366 0.823635 0.750000
Si Si5 0.000000 0.500000 0.300224
Si Si6 0.974344 0.842915 0.476752
O O1 0.615840 0.544921 0.462230
O O2 0.586159 0.586159 0.750000
O O3 0.622048 0.723036 0.564682
O O4 0.232390 0.767611 0.250000
O O5 0.347499 0.796329 0.459010
O O6 0.196321 0.760779 0.593972
O O7 0.933727 0.432382 0.196783
O O8 0.941802 0.426536 0.904796
O O9 0.958335 0.261518 0.053878
O O10 0.182146 0.933256 0.694788
O O11 0.075206 0.898251 0.465649
#
# Coordination Sequence:
#
# PCOD9557712 Si02
#       6
#     8   8   8   4   4   8
#     4  10  21  37  62  99 141 189 242 318 403 474
#     4  10  24  45  69 106 140 192 253 316 378 470
#     4  10  24  47  73 104 145 200 249 318 378 457
#     4  10  24  47  72 105 148 200 238 304 388 458
#     4  10  24  48  72 102 142 196 256 304 378 446
#     4  10  24  46  75 118 155 196 257 320 401 478
#
# _framework density 23.916457000000001
#
# number of rings (size 3 to 8) (size 9 to 14) (size 15 to 20)
#    0.000    2.000    0.000    1.200    8.400    8.000 
#   18.000    0.000    0.000    0.000    0.000    0.000 
#    0.000    0.000    0.000    0.000    0.000    0.000 
#
# Total GULP energy -222889.266643 kJ/mol
# GULP energy per Si atom -5572.231666 kJ/mol
# Density = 2.386202 g / cm^3
# Si number density = 23.916457 Si / 1000 Ang^3
#
#
#
# Elastic Constant Matrix: (Units=GPa)
#
#
# Indices 1 2 3 4 5 6 
#
# 1 107.8634 35.8359 40.1785 0.0000 0.0000 0.0000
# 2 35.8359 107.8633 40.1785 0.0000 0.0000 0.0000
# 3 40.1785 40.1785 137.1520 0.0000 0.0000 0.0000
# 4 0.0000 0.0000 0.0000 36.5388 0.0000 0.0000
# 5 0.0000 0.0000 0.0000 0.0000 36.5375 0.0000
# 6 0.0000 0.0000 0.0000 0.0000 0.0000 50.7472
#
#
#
# Elastic Compliance Matrix: (Units=1/GPa)
#
#
# Indices 1 2 3 4 5 6 
#
# 1 0.011103 -0.002781 -0.002438 0.000000 0.000000 0.000000
# 2 -0.002781 0.011103 -0.002438 0.000000 0.000000 0.000000
# 3 -0.002438 -0.002438 0.008720 0.000000 0.000000 0.000000
# 4 0.000000 0.000000 0.000000 0.027368 0.000000 0.000000
# 5 0.000000 0.000000 0.000000 0.000000 0.027369 0.000000
# 6 0.000000 0.000000 0.000000 0.000000 0.000000 0.019706
#
#
# Mechanical properties :
#
#
# Convention : Reuss Voigt Hill
#
# Bulk Modulus (GPa) = 64.05249 65.02940 64.54094
# Shear Modulus (GPa) = 39.71855 40.54375 40.13115
#
# Velocity S-wave (km/s) = 4.07961 4.12178 4.10075
# Velocity P-wave (km/s) = 7.00221 7.06409 7.03321
#
# Compressibility (1/GPa) = 0.01561220
#
# Stress axis : x y z
#
# Youngs Moduli (GPa) = 90.06608 90.06600 114.68407
#
# Poissons Ratio (x) = 0.25044 0.27960
# Poissons Ratio (y) = 0.25044 0.27960
# Poissons Ratio (z) = 0.21958 0.21958
#
# Static dielectric constant tensor:
#      x y z
#    x 1.955580 0.000000 0.000000 
#    y 0.000000 1.955570 0.000000 
#    z 0.000000 0.000000 2.024130 
# 
# From -- ./inp_files/840.got.cif
#   From: 2010.05.17/outbox.cif.g08.bks.cpg/sg116_1_cif.got.tgz:840.got - 2010.05.20 11:11:43.
