data_PCOD9557538
_publ_section_title
;
Structure prediction by ZEFSAII (Michael W. Deem and Ramdas Pophale) SiO2 
 PCOD9557538
Probable space group: P -4 C 2
;
_chemical_formula_sum "Si O2"
_cell_formula_units_Z 36
_cell_length_a 13.962387
_cell_length_b 13.962387
_cell_length_c 9.834490
_cell_angle_alpha 90.000000
_cell_angle_beta 90.000000
_cell_angle_gamma 90.000000
_cell_volume 1917.216622
_symmetry_space_group_name_H-M "P -4 C 2"
_symmetry_group_IT_number 116
_symmetry_cell_setting 'tetragonal'
loop_
_space_group_symop_operation_xyz
x,y,z
y,-x,-z
-x,-y,z
-y,x,-z
y,x,1/2-z
-y,-x,1/2-z
-x,y,1/2+z
x,-y,1/2+z
loop_
_atom_site_type_symbol
_atom_site_label
_atom_site_fract_x
_atom_site_fract_y
_atom_site_fract_z
Si Si1 0.000000 0.000000 0.000000
Si Si2 0.805188 0.071509 0.405812
Si Si3 0.582560 0.237795 0.106186
Si Si4 0.436289 0.688708 0.397500
Si Si5 0.500000 0.500000 0.250000
Si Si6 0.264431 0.087305 0.599065
O O1 0.982285 0.092075 0.093452
O O2 0.837058 0.179773 0.441159
O O3 0.755204 0.070789 0.259358
O O4 0.747183 0.011227 0.517126
O O5 0.564823 0.242510 0.267159
O O6 0.652626 0.328634 0.077292
O O7 0.636293 0.140420 0.071827
O O8 0.487676 0.262112 0.022875
O O9 0.493506 0.593797 0.344756
#
# Coordination Sequence:
#
# PCOD9557538 Si02
#       6
#     2   8   8   8   2   8
#     4   8  16  26  52  82 108 130 168 226 276 306
#     4   9  18  33  53  80 107 135 171 215 265 308
#     4  10  20  35  55  78 106 137 171 215 262 310
#     4  10  18  31  53  80 107 136 170 215 264 308
#     4   8  16  30  52  82 108 126 164 222 272 306
#     4  10  20  35  55  78 106 137 171 215 262 310
#
# _framework density 18.777221000000001
#
# number of rings (size 3 to 8) (size 9 to 14) (size 15 to 20)
#    0.000    2.667    0.000    5.333    0.000   14.222 
#    0.000    8.889    0.000   10.667    0.000    0.000 
#    0.000    0.000    0.000    0.000    0.000    0.000 
#
# Total GULP energy -200710.385655 kJ/mol
# GULP energy per Si atom -5575.288490 kJ/mol
# Density = 1.873448 g / cm^3
# Si number density = 18.777221 Si / 1000 Ang^3
#
#
#
# Elastic Constant Matrix: (Units=GPa)
#
#
# Indices 1 2 3 4 5 6 
#
# 1 16.1379 6.0508 7.0074 0.0000 0.0000 0.0000
# 2 6.0508 16.1379 7.0074 0.0000 0.0000 0.0000
# 3 7.0074 7.0074 46.3177 0.0000 0.0000 0.0000
# 4 0.0000 0.0000 0.0000 0.8870 0.0000 0.0000
# 5 0.0000 0.0000 0.0000 0.0000 0.8870 0.0000
# 6 0.0000 0.0000 0.0000 0.0000 0.0000 28.1564
#
#
#
# Elastic Compliance Matrix: (Units=1/GPa)
#
#
# Indices 1 2 3 4 5 6 
#
# 1 0.074483 -0.024653 -0.007539 0.000000 0.000000 0.000000
# 2 -0.024653 0.074483 -0.007539 0.000000 0.000000 0.000000
# 3 -0.007539 -0.007539 0.023871 0.000000 0.000000 0.000000
# 4 0.000000 0.000000 0.000000 1.127363 0.000000 0.000000
# 5 0.000000 0.000000 0.000000 0.000000 1.127363 0.000000
# 6 0.000000 0.000000 0.000000 0.000000 0.000000 0.035516
#
#
# Mechanical properties :
#
#
# Convention : Reuss Voigt Hill
#
# Bulk Modulus (GPa) = 10.70947 13.19165 11.95056
# Shear Modulus (GPa) = 1.94275 9.88795 5.91535
#
# Velocity S-wave (km/s) = 1.01827 2.29725 1.77683
# Velocity P-wave (km/s) = 2.66427 3.75194 3.25387
#
# Compressibility (1/GPa) = 0.09337532
#
# Stress axis : x y z
#
# Youngs Moduli (GPa) = 13.42592 13.42592 41.89169
#
# Poissons Ratio (x) = 0.33099 0.31581
# Poissons Ratio (y) = 0.33099 0.31581
# Poissons Ratio (z) = 0.10121 0.10121
#
# Static dielectric constant tensor:
#      x y z
#    x 1.668240 0.000000 0.000000 
#    y 0.000000 1.668240 0.000000 
#    z 0.000000 0.000000 1.665090 
# 
# From -- ./inp_files/734.got.cif
#   From: 2010.05.17/outbox.cif.g08.bks.cpg/sg116_1_cif.got.tgz:734.got - 2010.05.20 11:11:43.
