data_PCOD9557042
_publ_section_title
;
Structure prediction by ZEFSAII (Michael W. Deem and Ramdas Pophale) SiO2 
 PCOD9557042
Probable space group: P -4 M 2
;
_chemical_formula_sum "Si O2"
_cell_formula_units_Z 64
_cell_length_a 19.325313
_cell_length_b 19.325313
_cell_length_c 10.066934
_cell_angle_alpha 90.000000
_cell_angle_beta 90.000000
_cell_angle_gamma 90.000000
_cell_volume 3759.674914
_symmetry_space_group_name_H-M "P -4 M 2"
_symmetry_group_IT_number 115
_symmetry_cell_setting 'tetragonal'
loop_
_space_group_symop_operation_xyz
x,y,z
y,-x,-z
-x,-y,z
-y,x,-z
y,x,-z
-y,-x,-z
-x,y,z
x,-y,z
loop_
_atom_site_type_symbol
_atom_site_label
_atom_site_fract_x
_atom_site_fract_y
_atom_site_fract_z
Si Si1 0.418056 0.694897 0.339251
Si Si2 0.416360 0.815628 0.138155
Si Si3 0.417036 0.826719 0.831470
Si Si4 0.916425 0.921488 0.145304
Si Si5 0.419946 0.303882 0.642430
Si Si6 0.171330 0.083429 0.604488
Si Si7 0.917354 0.580670 0.634066
Si Si8 0.082887 0.333631 0.372500
O O1 0.500000 0.680122 0.323485
O O2 0.396540 0.748820 0.225394
O O3 0.369570 0.628265 0.332779
O O4 0.408808 0.722563 0.490660
O O5 0.500000 0.814857 0.132833
O O6 0.396354 0.880455 0.230454
O O7 0.394383 0.819168 0.985059
O O8 0.500000 0.843229 0.827381
O O9 0.407542 0.755673 0.749801
O O10 0.371982 0.882337 0.751533
O O11 0.900408 0.866970 0.257709
O O12 0.000000 0.926486 0.139355
O O13 0.890729 0.000000 0.171793
O O14 0.895734 0.895734 0.000000
O O15 0.500000 0.324597 0.650755
O O16 0.129273 0.129273 0.500000
O O17 0.252527 0.100198 0.613593
O O18 0.164380 0.000000 0.577909
O O19 0.898171 0.500000 0.609234
O O20 0.897112 0.626171 0.507441
O O21 0.000000 0.584051 0.648609
O O22 0.000000 0.338475 0.359518
#
# Coordination Sequence:
#
# PCOD9557042 Si02
#       8
#     8   8   8   8   8   8   8   8
#     4   9  17  31  51  76 106 138 173 214 261 310
#     4   9  18  32  52  77 102 133 172 217 262 307
#     4  10  20  35  54  75 102 134 174 218 258 310
#     4   8  14  27  51  79 101 128 169 209 246 294
#     4   9  18  32  52  77 103 136 175 216 261 308
#     4  10  20  35  54  78 107 136 171 214 256 304
#     4   9  17  32  54  77 101 131 170 214 259 308
#     4  10  21  36  53  76 106 136 170 215 265 312
#
# _framework density 17.022749000000001
#
# number of rings (size 3 to 8) (size 9 to 14) (size 15 to 20)
#    0.000    2.750    0.000    1.875    0.000    4.625 
#    4.500    3.750    0.000    4.500    0.000    3.500 
#    0.000    0.000    0.000    0.000    0.000    0.000 
#
# Total GULP energy -356533.537753 kJ/mol
# GULP energy per Si atom -5570.836527 kJ/mol
# Density = 1.698400 g / cm^3
# Si number density = 17.022749 Si / 1000 Ang^3
#
#
#
# Elastic Constant Matrix: (Units=GPa)
#
#
# Indices 1 2 3 4 5 6 
#
# 1 70.7847 54.3663 71.3658 0.0000 0.0000 0.0000
# 2 54.3663 70.7847 71.3658 0.0000 0.0000 0.0000
# 3 71.3658 71.3658 182.4290 0.0000 0.0000 0.0000
# 4 0.0000 0.0000 0.0000 -0.0533 0.0000 0.0000
# 5 0.0000 0.0000 0.0000 0.0000 -0.0533 0.0000
# 6 0.0000 0.0000 0.0000 0.0000 0.0000 19.3622
#
#
#
# Elastic Compliance Matrix: (Units=1/GPa)
#
#
# Indices 1 2 3 4 5 6 
#
# 1 0.037667 -0.023240 -0.005644 0.000000 0.000000 0.000000
# 2 -0.023240 0.037667 -0.005644 0.000000 0.000000 0.000000
# 3 -0.005644 -0.005644 0.009897 0.000000 0.000000 0.000000
# 4 0.000000 0.000000 0.000000-18.761528 0.000000 0.000000
# 5 0.000000 0.000000 0.000000 0.000000-18.761528 0.000000
# 6 0.000000 0.000000 0.000000 0.000000 0.000000 0.051647
#
#
# Mechanical properties :
#
#
# Convention : Reuss Voigt Hill
#
# Bulk Modulus (GPa) = 61.82000 79.79939 70.80969
# Shear Modulus (GPa) = -0.13401 12.31115 6.08857
#
# Velocity S-wave (km/s) = -0.28088 2.69219 1.89328
# Velocity P-wave (km/s) = 6.02410 7.52620 6.81665
#
# Compressibility (1/GPa) = 0.01617599
#
# Stress axis : x y z
#
# Youngs Moduli (GPa) = 26.54836 26.54836 101.03797
#
# Poissons Ratio (x) = 0.61699 0.57024
# Poissons Ratio (y) = 0.61699 0.57024
# Poissons Ratio (z) = 0.14983 0.14983
#
# Static dielectric constant tensor:
#      x y z
#    x 1.579690 0.000000 0.000000 
#    y 0.000000 1.579690 0.000000 
#    z 0.000000 0.000000 1.592380 
# 
# From -- ./inp_files/2139.got.cif
#   From: 2010.05.17/outbox.cif.g08.bks.cpg/sg115_2_cif.got.tgz:2139.got - 2010.05.20 11:07:42.
