data_PCOD9557833
_publ_section_title
;
Structure prediction by ZEFSAII (Michael W. Deem and Ramdas Pophale) SiO2 
 PCOD9557833
Probable space group: P -4 C 2
;
_chemical_formula_sum "Si O2"
_cell_formula_units_Z 24
_cell_length_a 8.591998
_cell_length_b 8.591998
_cell_length_c 14.515456
_cell_angle_alpha 90.000000
_cell_angle_beta 90.000000
_cell_angle_gamma 90.000000
_cell_volume 1071.566229
_symmetry_space_group_name_H-M "P -4 C 2"
_symmetry_group_IT_number 116
_symmetry_cell_setting 'tetragonal'
loop_
_space_group_symop_operation_xyz
x,y,z
y,-x,-z
-x,-y,z
-y,x,-z
y,x,1/2-z
-y,-x,1/2-z
-x,y,1/2+z
x,-y,1/2+z
loop_
_atom_site_type_symbol
_atom_site_label
_atom_site_fract_x
_atom_site_fract_y
_atom_site_fract_z
Si Si1 0.000000 0.500000 0.762303
Si Si2 0.500000 0.500000 0.500000
Si Si3 0.014019 0.669067 0.591263
Si Si4 0.000000 0.000000 0.500000
Si Si5 0.704246 0.628171 0.349506
O O1 0.930849 0.625739 0.688920
O O2 0.121553 0.586999 0.824535
O O3 0.641458 0.519105 0.429862
O O4 0.195795 0.687823 0.615759
O O5 0.000000 0.500000 0.539916
O O6 0.963134 0.835316 0.551544
O O7 0.619941 0.619941 0.250000
#
# Coordination Sequence:
#
# PCOD9557833 Si02
#       5
#     4   2   8   2   8
#     4   8  20  48  74  94 152 198 242 312 380 452
#     4  12  26  36  72 106 132 192 246 292 384 438
#     4   9  23  43  69 107 146 199 249 305 382 448
#     4  12  24  44  78 120 148 198 264 308 386 456
#     4  10  22  45  68 102 146 194 245 310 380 449
#
# _framework density 22.397120999999999
#
# number of rings (size 3 to 8) (size 9 to 14) (size 15 to 20)
#    1.000    1.333    0.000    0.500    4.667    2.667 
#    0.000   10.833    0.000    0.000    0.000    0.000 
#    0.000    0.000    0.000    0.000    0.000    0.000 
#
# Total GULP energy -133604.203340 kJ/mol
# GULP energy per Si atom -5566.841806 kJ/mol
# Density = 2.234614 g / cm^3
# Si number density = 22.397121 Si / 1000 Ang^3
#
#
#
# Elastic Constant Matrix: (Units=GPa)
#
#
# Indices 1 2 3 4 5 6 
#
# 1 96.8339 41.9862 28.5884 0.0000 0.0000 0.0000
# 2 41.9862 96.8339 28.5884 0.0000 0.0000 0.0000
# 3 28.5884 28.5884 106.2443 0.0000 0.0000 0.0000
# 4 0.0000 0.0000 0.0000 -6.9722 0.0000 0.0000
# 5 0.0000 0.0000 0.0000 0.0000 -6.9722 0.0000
# 6 0.0000 0.0000 0.0000 0.0000 0.0000 40.6708
#
#
#
# Elastic Compliance Matrix: (Units=1/GPa)
#
#
# Indices 1 2 3 4 5 6 
#
# 1 0.013167 -0.005065 -0.002180 0.000000 0.000000 0.000000
# 2 -0.005065 0.013167 -0.002180 0.000000 0.000000 0.000000
# 3 -0.002180 -0.002180 0.010585 0.000000 0.000000 0.000000
# 4 0.000000 0.000000 0.000000 -0.143427 0.000000 0.000000
# 5 0.000000 0.000000 0.000000 0.000000 -0.143427 0.000000
# 6 0.000000 0.000000 0.000000 0.000000 0.000000 0.024588
#
#
# Mechanical properties :
#
#
# Convention : Reuss Voigt Hill
#
# Bulk Modulus (GPa) = 55.34485 55.35976 55.35231
# Shear Modulus (GPa) = -24.94106 18.72855 -3.10625
#
# Velocity S-wave (km/s) = -3.34066 2.89486 -1.17894
# Velocity P-wave (km/s) = 3.14394 5.99538 4.78691
#
# Compressibility (1/GPa) = 0.01806853
#
# Stress axis : x y z
#
# Youngs Moduli (GPa) = 75.94818 75.94818 94.46937
#
# Poissons Ratio (x) = 0.38471 0.20594
# Poissons Ratio (y) = 0.38471 0.20594
# Poissons Ratio (z) = 0.16556 0.16556
#
# Static dielectric constant tensor:
#      x y z
#    x 1.827120 0.000000 0.000000 
#    y 0.000000 1.827120 0.000000 
#    z 0.000000 0.000000 1.867400 
# 
# From -- ./inp_files/2342.got.cif
#   From: 2010.05.17/outbox.cif.g08.bks.cpg/sg116_2_cif.got.tgz:2342.got - 2010.05.20 11:11:43.
