data_PCOD9557176
_publ_section_title
;
Structure prediction by ZEFSAII (Michael W. Deem and Ramdas Pophale) SiO2 
 PCOD9557176
Probable space group: P -4 M 2
;
_chemical_formula_sum "Si O2"
_cell_formula_units_Z 48
_cell_length_a 9.321568
_cell_length_b 9.321568
_cell_length_c 31.337121
_cell_angle_alpha 90.000000
_cell_angle_beta 90.000000
_cell_angle_gamma 90.000000
_cell_volume 2722.933523
_symmetry_space_group_name_H-M "P -4 M 2"
_symmetry_group_IT_number 115
_symmetry_cell_setting 'tetragonal'
loop_
_space_group_symop_operation_xyz
x,y,z
y,-x,-z
-x,-y,z
-y,x,-z
y,x,-z
-y,-x,-z
-x,y,z
x,-y,z
loop_
_atom_site_type_symbol
_atom_site_label
_atom_site_fract_x
_atom_site_fract_y
_atom_site_fract_z
Si Si1 0.669243 0.330757 0.000000
Si Si2 0.671840 0.168400 0.586313
Si Si3 0.668353 0.171546 0.338373
Si Si4 0.330094 0.171043 0.835756
Si Si5 0.830294 0.671196 0.912490
Si Si6 0.329538 0.670463 0.500000
Si Si7 0.328906 0.829658 0.239996
O O1 0.705033 0.237128 0.041355
O O2 0.500000 0.310181 0.990193
O O3 0.500000 0.186950 0.590307
O O4 0.747654 0.238539 0.626847
O O5 0.716206 0.246419 0.542488
O O6 0.703077 0.000000 0.583827
O O7 0.500000 0.205965 0.344523
O O8 0.705578 0.206493 0.289233
O O9 0.683976 0.000000 0.343086
O O10 0.500000 0.200342 0.837793
O O11 0.250926 0.242122 0.875956
O O12 0.262160 0.240282 0.793448
O O13 0.308963 0.000000 0.835788
O O14 0.810224 0.500000 0.905359
O O15 0.000000 0.700432 0.911652
O O16 0.500000 0.693434 0.493757
O O17 0.500000 0.807812 0.233968
O O18 0.302068 0.000000 0.233741
#
# Coordination Sequence:
#
# PCOD9557176 Si02
#       7
#     4   8   8   8   8   4   8
#     4   9  18  34  56  81 110 144 180 219 264 313
#     4  10  21  35  52  78 110 140 172 215 265 314
#     4   9  19  36  57  80 106 138 176 217 261 312
#     4  11  24  38  53  78 111 144 179 221 267 314
#     4  10  21  37  58  83 110 142 180 221 265 315
#     4   9  18  34  54  73  98 138 184 223 260 307
#     4   9  19  37  59  81 105 136 177 221 264 314
#
# _framework density 17.628048
#
# number of rings (size 3 to 8) (size 9 to 14) (size 15 to 20)
#    0.000    2.333    0.000    3.000    0.000    8.667 
#    0.000    8.333    0.000    0.000    0.000    0.000 
#    0.000    0.000    0.000    0.000    0.000    0.000 
#
# Total GULP energy -267999.176056 kJ/mol
# GULP energy per Si atom -5583.316168 kJ/mol
# Density = 1.758793 g / cm^3
# Si number density = 17.628048 Si / 1000 Ang^3
#
#
#
# Elastic Constant Matrix: (Units=GPa)
#
#
# Indices 1 2 3 4 5 6 
#
# 1 86.9172 79.7890 107.5642 0.0000 0.0000 0.0000
# 2 79.7890 86.9171 107.5641 0.0000 0.0000 0.0000
# 3 107.5642 107.5641 184.4777 0.0000 0.0000 0.0000
# 4 0.0000 0.0000 0.0000 119.1996 0.0000 0.0000
# 5 0.0000 0.0000 0.0000 0.0000 119.1972 0.0000
# 6 0.0000 0.0000 0.0000 0.0000 0.0000 28.7281
#
#
#
# Elastic Compliance Matrix: (Units=1/GPa)
#
#
# Indices 1 2 3 4 5 6 
#
# 1 0.082259 -0.058029 -0.014128 0.000000 0.000000 0.000000
# 2 -0.058029 0.082259 -0.014128 0.000000 0.000000 0.000000
# 3 -0.014128 -0.014128 0.021896 0.000000 0.000000 0.000000
# 4 0.000000 0.000000 0.000000 0.008389 0.000000 0.000000
# 5 0.000000 0.000000 0.000000 0.000000 0.008389 0.000000
# 6 0.000000 0.000000 0.000000 0.000000 0.000000 0.034809
#
#
# Mechanical properties :
#
#
# Convention : Reuss Voigt Hill
#
# Bulk Modulus (GPa) = 72.23070 105.34962 88.79016
# Shear Modulus (GPa) = 12.04274 57.65130 34.84702
#
# Velocity S-wave (km/s) = 2.61656 5.72497 4.45094
# Velocity P-wave (km/s) = 7.08466 10.17805 8.76884
#
# Compressibility (1/GPa) = 0.01384453
#
# Stress axis : x y z
#
# Youngs Moduli (GPa) = 12.15666 12.15669 45.67002
#
# Poissons Ratio (x) = 0.70544 0.64524
# Poissons Ratio (y) = 0.70544 0.64523
# Poissons Ratio (z) = 0.17175 0.17175
#
# Static dielectric constant tensor:
#      x y z
#    x 1.582360 0.000000 0.000000 
#    y 0.000000 1.582360 0.000000 
#    z 0.000000 0.000000 1.573890 
# 
# From -- ./inp_files/6272.got.cif
#   From: 2010.05.17/outbox.cif.g08.bks.cpg/sg115_4_cif.got.tgz:6272.got - 2010.05.20 11:07:42.
