data_PCOD9557040
_publ_section_title
;
Structure prediction by ZEFSAII (Michael W. Deem and Ramdas Pophale) SiO2 
 PCOD9557040
Probable space group: P -4 M 2
;
_chemical_formula_sum "Si O2"
_cell_formula_units_Z 56
_cell_length_a 14.795144
_cell_length_b 14.795144
_cell_length_c 15.446296
_cell_angle_alpha 90.000000
_cell_angle_beta 90.000000
_cell_angle_gamma 90.000000
_cell_volume 3381.136827
_symmetry_space_group_name_H-M "P -4 M 2"
_symmetry_group_IT_number 115
_symmetry_cell_setting 'tetragonal'
loop_
_space_group_symop_operation_xyz
x,y,z
y,-x,-z
-x,-y,z
-y,x,-z
y,x,-z
-y,-x,-z
-x,y,z
x,-y,z
loop_
_atom_site_type_symbol
_atom_site_label
_atom_site_fract_x
_atom_site_fract_y
_atom_site_fract_z
Si Si1 0.336525 0.215374 0.044295
Si Si2 0.108725 0.606051 0.794957
Si Si3 0.603552 0.604002 0.863142
Si Si4 0.609191 0.254976 0.537320
Si Si5 0.391917 0.766414 0.733721
Si Si6 0.390236 0.896699 0.399650
Si Si7 0.101680 0.606743 0.118974
O O1 0.337171 0.155485 0.130123
O O2 0.379961 0.311086 0.074265
O O3 0.242100 0.242100 0.000000
O O4 0.385305 0.160759 0.968031
O O5 0.135008 0.500000 0.806962
O O6 0.133057 0.635571 0.697574
O O7 0.000000 0.609606 0.801498
O O8 0.500000 0.622131 0.897292
O O9 0.604666 0.500000 0.836243
O O10 0.618710 0.671524 0.783360
O O11 0.655772 0.344229 0.500000
O O12 0.500000 0.262935 0.536611
O O13 0.640931 0.236680 0.635557
O O14 0.635839 0.172573 0.474161
O O15 0.500000 0.781449 0.727092
O O16 0.354667 0.842440 0.799357
O O17 0.500000 0.899327 0.398183
O O18 0.359648 0.000000 0.414388
O O19 0.093465 0.500000 0.134816
O O20 0.000000 0.643611 0.109073
#
# Coordination Sequence:
#
# PCOD9557040 Si02
#       7
#     8   8   8   8   8   8   8
#     4  12  22  31  47  72 101 132 169 208 251 296
#     4   9  18  33  53  74  95 125 168 217 266 308
#     4  10  21  34  47  65  98 142 180 212 241 283
#     4  10  21  33  50  73 102 139 178 214 248 296
#     4   9  19  35  47  66  95 132 180 214 244 291
#     4   8  16  32  52  73  94 120 164 219 269 308
#     4  10  20  35  52  69  94 129 171 218 263 305
#
# _framework density 16.562477999999999
#
# number of rings (size 3 to 8) (size 9 to 14) (size 15 to 20)
#    0.000    2.286    1.429    2.571    2.000    3.571 
#    0.000    5.000    0.000    0.000    0.000    0.000 
#    0.000    4.857    0.000    6.714    0.000    0.000 
#
# Total GULP energy -311919.648227 kJ/mol
# GULP energy per Si atom -5569.993718 kJ/mol
# Density = 1.652478 g / cm^3
# Si number density = 16.562478 Si / 1000 Ang^3
#
#
#
# Elastic Constant Matrix: (Units=GPa)
#
#
# Indices 1 2 3 4 5 6 
#
# 1 55.9958 20.0766 57.6922 0.0000 0.0000 0.0000
# 2 20.0766 55.9935 57.6908 0.0000 0.0000 0.0000
# 3 57.6922 57.6908 151.1781 0.0000 0.0000 0.0000
# 4 0.0000 0.0000 0.0000 12.8714 0.0000 0.0000
# 5 0.0000 0.0000 0.0000 0.0000 12.8724 0.0000
# 6 0.0000 0.0000 0.0000 0.0000 0.0000 10.5742
#
#
#
# Elastic Compliance Matrix: (Units=1/GPa)
#
#
# Indices 1 2 3 4 5 6 
#
# 1 0.029526 0.001685 -0.011911 0.000000 0.000000 0.000000
# 2 0.001685 0.029527 -0.011911 0.000000 0.000000 0.000000
# 3 -0.011911 -0.011911 0.015705 0.000000 0.000000 0.000000
# 4 0.000000 0.000000 0.000000 0.077692 0.000000 0.000000
# 5 0.000000 0.000000 0.000000 0.000000 0.077685 0.000000
# 6 0.000000 0.000000 0.000000 0.000000 0.000000 0.094570
#
#
# Mechanical properties :
#
#
# Convention : Reuss Voigt Hill
#
# Bulk Modulus (GPa) = 32.80267 59.34296 46.07282
# Shear Modulus (GPa) = 13.18778 15.77746 14.48262
#
# Velocity S-wave (km/s) = 2.82484 3.08977 2.96027
# Velocity P-wave (km/s) = 5.52160 6.97399 6.28985
#
# Compressibility (1/GPa) = 0.03048532
#
# Stress axis : x y z
#
# Youngs Moduli (GPa) = 33.86882 33.86751 63.67306
#
# Poissons Ratio (x) = -0.05707 0.75838
# Poissons Ratio (y) = -0.05707 0.75839
# Poissons Ratio (z) = 0.40340 0.40339
#
# Static dielectric constant tensor:
#      x y z
#    x 1.576000 0.000000 0.000000 
#    y 0.000000 1.576000 0.000000 
#    z 0.000000 0.000000 1.587090 
# 
# From -- ./inp_files/3830.got.cif
#   From: 2010.05.17/outbox.cif.g08.bks.cpg/sg115_2_cif.got.tgz:3830.got - 2010.05.20 11:07:42.
