data_PCOD9557010
_publ_section_title
;
Structure prediction by ZEFSAII (Michael W. Deem and Ramdas Pophale) SiO2 
 PCOD9557010
Probable space group: P -4 M 2
;
_chemical_formula_sum "Si O2"
_cell_formula_units_Z 48
_cell_length_a 9.157513
_cell_length_b 9.157513
_cell_length_c 31.838236
_cell_angle_alpha 90.000000
_cell_angle_beta 90.000000
_cell_angle_gamma 90.000000
_cell_volume 2669.955883
_symmetry_space_group_name_H-M "P -4 M 2"
_symmetry_group_IT_number 115
_symmetry_cell_setting 'tetragonal'
loop_
_space_group_symop_operation_xyz
x,y,z
y,-x,-z
-x,-y,z
-y,x,-z
y,x,-z
-y,-x,-z
-x,y,z
x,-y,z
loop_
_atom_site_type_symbol
_atom_site_label
_atom_site_fract_x
_atom_site_fract_y
_atom_site_fract_z
Si Si1 0.172495 0.824845 0.716305
Si Si2 0.668571 0.177681 0.631269
Si Si3 0.327303 0.826008 0.038972
Si Si4 0.676004 0.829888 0.538417
Si Si5 0.674052 0.672829 0.794795
Si Si6 0.172511 0.825165 0.126618
O O1 0.234711 0.779084 0.670874
O O2 0.255506 0.743048 0.753400
O O3 0.000000 0.797929 0.718916
O O4 0.195954 0.000000 0.720577
O O5 0.500000 0.223488 0.637476
O O6 0.720522 0.224855 0.584973
O O7 0.668089 0.000000 0.629766
O O8 0.500000 0.799341 0.042918
O O9 0.246318 0.786364 0.082246
O O10 0.305387 0.000000 0.032294
O O11 0.260309 0.739692 0.000000
O O12 0.741493 0.741493 0.500000
O O13 0.500000 0.823899 0.537738
O O14 0.718993 0.000000 0.534459
O O15 0.500000 0.693867 0.794095
O O16 0.704613 0.500000 0.796328
O O17 0.742417 0.750651 0.835345
O O18 0.000000 0.793805 0.125643
O O19 0.190487 0.000000 0.132589
#
# Coordination Sequence:
#
# PCOD9557010 Si02
#       6
#     8   8   8   8   8   8
#     4  10  20  34  55  82 107 133 171 217 264 316
#     4   8  15  30  51  73 100 135 173 214 259 307
#     4  10  21  37  58  84 114 149 186 224 269 318
#     4   9  18  32  50  74 103 135 173 215 259 310
#     4  11  24  39  55  78 109 144 180 217 261 315
#     4  10  21  38  61  86 110 140 181 226 270 317
#
# _framework density 17.977824999999999
#
# number of rings (size 3 to 8) (size 9 to 14) (size 15 to 20)
#    0.000    2.333    0.000    3.500    0.000    8.000 
#    0.000    2.500    0.000    1.000    0.000    0.000 
#    0.000    0.000    0.000    0.000    0.000    0.000 
#
# Total GULP energy -267936.470023 kJ/mol
# GULP energy per Si atom -5582.009792 kJ/mol
# Density = 1.793691 g / cm^3
# Si number density = 17.977825 Si / 1000 Ang^3
#
#
#
# Elastic Constant Matrix: (Units=GPa)
#
#
# Indices 1 2 3 4 5 6 
#
# 1 70.7372 65.5379 90.1901 0.0000 0.0000 0.0000
# 2 65.5379 70.7371 90.1915 0.0000 0.0000 0.0000
# 3 90.1901 90.1915 209.6599 0.0000 0.0000 0.0000
# 4 0.0000 0.0000 0.0000 93.6503 0.0000 0.0000
# 5 0.0000 0.0000 0.0000 0.0000 93.6461 0.0000
# 6 0.0000 0.0000 0.0000 0.0000 0.0000 27.0567
#
#
#
# Elastic Compliance Matrix: (Units=1/GPa)
#
#
# Indices 1 2 3 4 5 6 
#
# 1 0.104688 -0.087648 -0.007329 0.000000 0.000000 0.000000
# 2 -0.087648 0.104692 -0.007333 0.000000 0.000000 0.000000
# 3 -0.007329 -0.007333 0.011077 0.000000 0.000000 0.000000
# 4 0.000000 0.000000 0.000000 0.010678 0.000000 0.000000
# 5 0.000000 0.000000 0.000000 0.000000 0.010678 0.000000
# 6 0.000000 0.000000 0.000000 0.000000 0.000000 0.036959
#
#
# Mechanical properties :
#
#
# Convention : Reuss Voigt Hill
#
# Bulk Modulus (GPa) = 63.14504 93.66369 78.40436
# Shear Modulus (GPa) = 10.23183 49.88494 30.05839
#
# Velocity S-wave (km/s) = 2.38825 5.27336 4.09341
# Velocity P-wave (km/s) = 6.54256 9.44936 8.12697
#
# Compressibility (1/GPa) = 0.01583656
#
# Stress axis : x y z
#
# Youngs Moduli (GPa) = 9.55221 9.55184 90.27804
#
# Poissons Ratio (x) = 0.83720 0.66169
# Poissons Ratio (y) = 0.83723 0.66197
# Poissons Ratio (z) = 0.07001 0.07004
#
# Static dielectric constant tensor:
#      x y z
#    x 1.596620 0.000000 0.000000 
#    y 0.000000 1.596620 0.000000 
#    z 0.000000 0.000000 1.596550 
# 
# From -- ./inp_files/6017.got.cif
#   From: 2010.05.17/outbox.cif.g08.bks.cpg/sg115_4_cif.got.tgz:6017.got - 2010.05.20 11:07:42.
