data_PCOD9557975
_publ_section_title
;
Structure prediction by ZEFSAII (Michael W. Deem and Ramdas Pophale) SiO2 
 PCOD9557975
Probable space group: P -4 C 2
;
_chemical_formula_sum "Si O2"
_cell_formula_units_Z 14
_cell_length_a 5.200179
_cell_length_b 5.200179
_cell_length_c 21.159882
_cell_angle_alpha 90.000000
_cell_angle_beta 90.000000
_cell_angle_gamma 90.000000
_cell_volume 572.202601
_symmetry_space_group_name_H-M "P -4 C 2"
_symmetry_group_IT_number 116
_symmetry_cell_setting 'tetragonal'
loop_
_space_group_symop_operation_xyz
x,y,z
y,-x,-z
-x,-y,z
-y,x,-z
y,x,1/2-z
-y,-x,1/2-z
-x,y,1/2+z
x,-y,1/2+z
loop_
_atom_site_type_symbol
_atom_site_label
_atom_site_fract_x
_atom_site_fract_y
_atom_site_fract_z
Si Si1 0.669427 0.753800 0.180586
Si Si2 0.000000 0.000000 0.500000
Si Si3 0.000000 0.500000 0.072870
O O1 0.500000 0.500000 0.186554
O O2 0.793851 0.793851 0.250000
O O3 0.845552 0.681091 0.122126
O O4 0.500000 0.000000 0.166298
O O5 0.885464 0.734169 0.531203
#
# Coordination Sequence:
#
# PCOD9557975 Si02
#       3
#     8   2   4
#     4  11  24  46  78 116 156 202 261 341 412 477
#     4  12  32  48  82 104 168 220 268 334 392 496
#     4  12  28  52  74 116 154 218 276 328 406 492
#
# _framework density 24.466854999999999
#
# number of rings (size 3 to 8) (size 9 to 14) (size 15 to 20)
#    0.000    0.571    2.857    3.429   12.000    0.000 
#    0.000    0.000    0.000    0.000    0.000    0.000 
#    0.000    0.000    0.000    0.000    0.000    0.000 
#
# Total GULP energy -78028.674664 kJ/mol
# GULP energy per Si atom -5573.476762 kJ/mol
# Density = 2.441117 g / cm^3
# Si number density = 24.466855 Si / 1000 Ang^3
#
#
#
# Elastic Constant Matrix: (Units=GPa)
#
#
# Indices 1 2 3 4 5 6 
#
# 1 155.7724 52.6126 30.6966 0.0000 0.0000 0.0000
# 2 52.6126 155.7724 30.6966 0.0000 0.0000 0.0000
# 3 30.6966 30.6966 60.3899 0.0000 0.0000 0.0000
# 4 0.0000 0.0000 0.0000 22.6246 0.0000 0.0000
# 5 0.0000 0.0000 0.0000 0.0000 22.6246 0.0000
# 6 0.0000 0.0000 0.0000 0.0000 0.0000 70.6256
#
#
#
# Elastic Compliance Matrix: (Units=1/GPa)
#
#
# Indices 1 2 3 4 5 6 
#
# 1 0.007669 -0.002025 -0.002869 0.000000 0.000000 0.000000
# 2 -0.002025 0.007669 -0.002869 0.000000 0.000000 0.000000
# 3 -0.002869 -0.002869 0.019476 0.000000 0.000000 0.000000
# 4 0.000000 0.000000 0.000000 0.044200 0.000000 0.000000
# 5 0.000000 0.000000 0.000000 0.000000 0.044200 0.000000
# 6 0.000000 0.000000 0.000000 0.000000 0.000000 0.014159
#
#
# Mechanical properties :
#
#
# Convention : Reuss Voigt Hill
#
# Bulk Modulus (GPa) = 51.84551 66.66072 59.25311
# Shear Modulus (GPa) = 31.38213 40.37023 35.87618
#
# Velocity S-wave (km/s) = 3.58528 4.06642 3.83341
# Velocity P-wave (km/s) = 6.19476 7.02511 6.62296
#
# Compressibility (1/GPa) = 0.01928807
#
# Stress axis : x y z
#
# Youngs Moduli (GPa) = 130.39737 130.39737 51.34627
#
# Poissons Ratio (x) = 0.26403 0.14731
# Poissons Ratio (y) = 0.26403 0.14731
# Poissons Ratio (z) = 0.37410 0.37410
#
# Static dielectric constant tensor:
#      x y z
#    x 1.993570 0.000000 0.000000 
#    y 0.000000 1.993570 0.000000 
#    z 0.000000 0.000000 2.205050 
# 
# From -- ./inp_files/2805.got.cif
#   From: 2010.05.17/outbox.cif.g08.bks.cpg/sg116_2_cif.got.tgz:2805.got - 2010.05.20 11:11:43.
