data_PCOD9557803
_publ_section_title
;
Structure prediction by ZEFSAII (Michael W. Deem and Ramdas Pophale) SiO2 
 PCOD9557803
Probable space group: P -4 C 2
;
_chemical_formula_sum "Si O2"
_cell_formula_units_Z 56
_cell_length_a 14.974066
_cell_length_b 14.974066
_cell_length_c 11.996277
_cell_angle_alpha 90.000000
_cell_angle_beta 90.000000
_cell_angle_gamma 90.000000
_cell_volume 2689.837050
_symmetry_space_group_name_H-M "P -4 C 2"
_symmetry_group_IT_number 116
_symmetry_cell_setting 'tetragonal'
loop_
_space_group_symop_operation_xyz
x,y,z
y,-x,-z
-x,-y,z
-y,x,-z
y,x,1/2-z
-y,-x,1/2-z
-x,y,1/2+z
x,-y,1/2+z
loop_
_atom_site_type_symbol
_atom_site_label
_atom_site_fract_x
_atom_site_fract_y
_atom_site_fract_z
Si Si1 0.058906 0.584942 0.572926
Si Si2 0.626264 0.557959 0.529381
Si Si3 0.242239 0.067649 0.575987
Si Si4 0.779208 0.870424 0.032886
Si Si5 0.354203 0.743520 0.649777
Si Si6 0.904675 0.324941 0.195694
Si Si7 0.780026 0.506802 0.693156
O O1 0.063356 0.658913 0.477822
O O2 0.155802 0.550495 0.610438
O O3 0.000000 0.500000 0.536538
O O4 0.001825 0.628919 0.674911
O O5 0.603719 0.470181 0.454242
O O6 0.686064 0.626857 0.460010
O O7 0.684433 0.526247 0.635245
O O8 0.186790 0.135148 0.500042
O O9 0.256671 0.096066 0.702851
O O10 0.199812 0.969647 0.573206
O O11 0.715986 0.819986 0.120261
O O12 0.722669 0.881615 0.919729
O O13 0.315222 0.684779 0.750000
O O14 0.449159 0.776225 0.695000
O O15 0.831997 0.401705 0.214359
#
# Coordination Sequence:
#
# PCOD9557803 Si02
#       7
#     8   8   8   8   8   8   8
#     4   9  21  38  61  96 136 165 220 279 345 412
#     4  11  25  44  61  92 140 177 236 288 329 420
#     4  11  24  42  69  96 136 181 221 289 358 422
#     4  11  25  45  68 101 137 169 235 288 345 441
#     4  12  24  42  69  96 132 184 233 285 353 415
#     4  10  22  41  65  99 132 172 225 291 347 419
#     4  11  22  39  64  96 132 179 229 284 353 409
#
# _framework density 20.819106000000001
#
# number of rings (size 3 to 8) (size 9 to 14) (size 15 to 20)
#    0.000    1.286    2.857    2.143    2.000    3.714 
#    2.571    0.000    0.000    3.429    0.000    0.000 
#    0.000    0.000    0.000    0.000    0.000    0.000 
#
# Total GULP energy -313056.786984 kJ/mol
# GULP energy per Si atom -5590.299768 kJ/mol
# Density = 2.077172 g / cm^3
# Si number density = 20.819106 Si / 1000 Ang^3
#
#
#
# Elastic Constant Matrix: (Units=GPa)
#
#
# Indices 1 2 3 4 5 6 
#
# 1 71.6862 19.2349 3.3987 0.0000 0.0000 0.0000
# 2 19.2349 71.6869 3.3992 0.0000 0.0000 0.0000
# 3 3.3987 3.3992 37.6388 0.0000 0.0000 0.0000
# 4 0.0000 0.0000 0.0000 22.3553 0.0000 0.0000
# 5 0.0000 0.0000 0.0000 0.0000 22.3552 0.0000
# 6 0.0000 0.0000 0.0000 0.0000 0.0000 13.2553
#
#
#
# Elastic Compliance Matrix: (Units=1/GPa)
#
#
# Indices 1 2 3 4 5 6 
#
# 1 0.015069 -0.003996 -0.001000 0.000000 0.000000 0.000000
# 2 -0.003996 0.015069 -0.001000 0.000000 0.000000 0.000000
# 3 -0.001000 -0.001000 0.026749 0.000000 0.000000 0.000000
# 4 0.000000 0.000000 0.000000 0.044732 0.000000 0.000000
# 5 0.000000 0.000000 0.000000 0.000000 0.044732 0.000000
# 6 0.000000 0.000000 0.000000 0.000000 0.000000 0.075442
#
#
# Mechanical properties :
#
#
# Convention : Reuss Voigt Hill
#
# Bulk Modulus (GPa) = 22.27388 25.89748 24.08568
# Shear Modulus (GPa) = 20.10048 21.92511 21.01280
#
# Velocity S-wave (km/s) = 3.11059 3.24871 3.18040
# Velocity P-wave (km/s) = 4.86035 5.15155 5.00807
#
# Compressibility (1/GPa) = 0.04489563
#
# Stress axis : x y z
#
# Youngs Moduli (GPa) = 66.36011 66.36070 37.38467
#
# Poissons Ratio (x) = 0.26517 0.03738
# Poissons Ratio (y) = 0.26517 0.03739
# Poissons Ratio (z) = 0.06635 0.06637
#
# Static dielectric constant tensor:
#      x y z
#    x 1.754410 0.000000 0.000000 
#    y 0.000000 1.754410 0.000000 
#    z 0.000000 0.000000 1.728840 
# 
# From -- ./inp_files/1989.got.cif
#   From: 2010.05.17/outbox.cif.g08.bks.cpg/sg116_1_cif.got.tgz:1989.got - 2010.05.20 11:11:43.
