data_PCOD9557794
_publ_section_title
;
Structure prediction by ZEFSAII (Michael W. Deem and Ramdas Pophale) SiO2 
 PCOD9557794
Probable space group: P -4 C 2
;
_chemical_formula_sum "Si O2"
_cell_formula_units_Z 46
_cell_length_a 15.629936
_cell_length_b 15.629936
_cell_length_c 10.231798
_cell_angle_alpha 90.000000
_cell_angle_beta 90.000000
_cell_angle_gamma 90.000000
_cell_volume 2499.576063
_symmetry_space_group_name_H-M "P -4 C 2"
_symmetry_group_IT_number 116
_symmetry_cell_setting 'tetragonal'
loop_
_space_group_symop_operation_xyz
x,y,z
y,-x,-z
-x,-y,z
-y,x,-z
y,x,1/2-z
-y,-x,1/2-z
-x,y,1/2+z
x,-y,1/2+z
loop_
_atom_site_type_symbol
_atom_site_label
_atom_site_fract_x
_atom_site_fract_y
_atom_site_fract_z
Si Si1 0.500000 0.500000 0.250000
Si Si2 0.831383 0.552872 0.798258
Si Si3 0.731785 0.268216 0.750000
Si Si4 0.976203 0.400724 0.095022
Si Si5 0.360066 0.898935 0.673687
Si Si6 0.384155 0.274141 0.502767
Si Si7 0.328416 0.451664 0.616847
O O1 0.494134 0.583250 0.338807
O O2 0.893287 0.591264 0.688534
O O3 0.862997 0.457919 0.833542
O O4 0.738802 0.546099 0.732748
O O5 0.815610 0.616022 0.920549
O O6 0.709434 0.177219 0.682408
O O7 0.727213 0.341143 0.638890
O O8 0.000000 0.500000 0.064273
O O9 0.047004 0.360132 0.191513
O O10 0.954723 0.353770 0.959139
O O11 0.342033 0.354897 0.573660
O O12 0.485413 0.292172 0.491704
#
# Coordination Sequence:
#
# PCOD9557794 Si02
#       7
#     2   8   4   8   8   8   8
#     4  12  22  38  44  70 104 176 230 272 294 350
#     4  11  21  38  58  81 115 157 222 261 310 360
#     4  12  25  38  60  89 128 157 202 267 330 368
#     4  10  22  40  66  90 116 162 214 261 316 383
#     4  11  24  40  63  90 121 160 205 264 319 384
#     4  12  23  36  53  77 118 167 213 269 304 358
#     4  12  23  35  51  73 112 169 224 264 302 357
#
# _framework density 18.403120000000001
#
# number of rings (size 3 to 8) (size 9 to 14) (size 15 to 20)
#    0.000    0.696    3.478    6.261    4.870    0.000 
#    0.000    0.000    0.000    0.000    0.000    0.000 
#    0.000    2.087    0.000    0.000    0.000    0.000 
#
# Total GULP energy -256984.243233 kJ/mol
# GULP energy per Si atom -5586.613983 kJ/mol
# Density = 1.836123 g / cm^3
# Si number density = 18.403120 Si / 1000 Ang^3
#
#
#
# Elastic Constant Matrix: (Units=GPa)
#
#
# Indices 1 2 3 4 5 6 
#
# 1 62.0784 19.7282 41.5087 0.0000 0.0000 0.0000
# 2 19.7282 62.0784 41.5085 0.0000 0.0000 0.0000
# 3 41.5087 41.5085 105.5175 0.0000 0.0000 0.0000
# 4 0.0000 0.0000 0.0000 35.0109 0.0000 0.0000
# 5 0.0000 0.0000 0.0000 0.0000 35.0107 0.0000
# 6 0.0000 0.0000 0.0000 0.0000 0.0000 14.5167
#
#
#
# Elastic Compliance Matrix: (Units=1/GPa)
#
#
# Indices 1 2 3 4 5 6 
#
# 1 0.021979 -0.001633 -0.008004 0.000000 0.000000 0.000000
# 2 -0.001633 0.021979 -0.008004 0.000000 0.000000 0.000000
# 3 -0.008004 -0.008004 0.015774 0.000000 0.000000 0.000000
# 4 0.000000 0.000000 0.000000 0.028563 0.000000 0.000000
# 5 0.000000 0.000000 0.000000 0.000000 0.028563 0.000000
# 6 0.000000 0.000000 0.000000 0.000000 0.000000 0.068886
#
#
# Mechanical properties :
#
#
# Convention : Reuss Voigt Hill
#
# Bulk Modulus (GPa) = 40.89751 48.35167 44.62459
# Shear Modulus (GPa) = 21.81724 25.36958 23.59341
#
# Velocity S-wave (km/s) = 3.44687 3.71691 3.58443
# Velocity P-wave (km/s) = 6.17354 6.68963 6.43676
#
# Compressibility (1/GPa) = 0.02445137
#
# Stress axis : x y z
#
# Youngs Moduli (GPa) = 45.49701 45.49713 63.39459
#
# Poissons Ratio (x) = 0.07431 0.50740
# Poissons Ratio (y) = 0.07431 0.50740
# Poissons Ratio (z) = 0.36415 0.36415
#
# Static dielectric constant tensor:
#      x y z
#    x 1.701590 0.000000 0.000000 
#    y 0.000000 1.701580 0.000000 
#    z 0.000000 0.000000 1.771180 
# 
# From -- ./inp_files/989.got.cif
#   From: 2010.05.17/outbox.cif.g08.bks.cpg/sg116_1_cif.got.tgz:989.got - 2010.05.20 11:11:43.
