data_PCOD9557128
_publ_section_title
;
Structure prediction by ZEFSAII (Michael W. Deem and Ramdas Pophale) SiO2 
 PCOD9557128
Probable space group: P -4 M 2
;
_chemical_formula_sum "Si O2"
_cell_formula_units_Z 49
_cell_length_a 8.436274
_cell_length_b 8.436274
_cell_length_c 35.194981
_cell_angle_alpha 90.000000
_cell_angle_beta 90.000000
_cell_angle_gamma 90.000000
_cell_volume 2504.852103
_symmetry_space_group_name_H-M "P -4 M 2"
_symmetry_group_IT_number 115
_symmetry_cell_setting 'tetragonal'
loop_
_space_group_symop_operation_xyz
x,y,z
y,-x,-z
-x,-y,z
-y,x,-z
y,x,-z
-y,-x,-z
-x,y,z
x,-y,z
loop_
_atom_site_type_symbol
_atom_site_label
_atom_site_fract_x
_atom_site_fract_y
_atom_site_fract_z
Si Si1 0.311380 0.311380 0.000000
Si Si2 0.000000 0.000000 0.500000
Si Si3 0.178701 0.690313 0.079901
Si Si4 0.318902 0.190781 0.237902
Si Si5 0.180097 0.310011 0.843341
Si Si6 0.000000 0.696540 0.555419
Si Si7 0.313300 0.681316 0.396905
Si Si8 0.688603 0.179185 0.684526
O O1 0.247827 0.242589 0.960432
O O2 0.284756 0.500000 0.998454
O O3 0.169064 0.000000 0.477351
O O4 0.180084 0.500000 0.076838
O O5 0.272205 0.733175 0.117761
O O6 0.000000 0.746208 0.085130
O O7 0.500000 0.248523 0.242200
O O8 0.251695 0.248822 0.197164
O O9 0.229529 0.234139 0.276072
O O10 0.322705 0.000000 0.234522
O O11 0.174623 0.500000 0.839153
O O12 0.000000 0.250332 0.847272
O O13 0.835838 0.732491 0.578468
O O14 0.000000 0.500000 0.547277
O O15 0.500000 0.666468 0.402853
O O16 0.245443 0.500000 0.403944
O O17 0.281856 0.721987 0.352751
O O18 0.500000 0.186110 0.690491
O O19 0.734982 0.000000 0.675121
#
# Coordination Sequence:
#
# PCOD9557128 Si02
#       8
#     4   1   8   8   8   4   8   8
#     4   9  18  34  54  73  96 128 168 211 254 311
#     4  12  28  44  68 104 132 172 220 260 324 392
#     4  10  21  35  52  77 105 131 162 207 264 321
#     4   9  19  35  53  74 103 142 186 230 274 327
#     4   9  19  36  55  74  99 136 181 222 265 320
#     4  10  24  44  66  98 132 168 218 266 314 380
#     4   9  19  38  63  89 121 163 208 256 311 367
#     4  10  21  34  51  81 116 150 189 237 292 343
#
# _framework density 19.562031000000001
#
# number of rings (size 3 to 8) (size 9 to 14) (size 15 to 20)
#    0.000    2.531    0.000    1.959    2.286    5.224 
#    0.000    6.531    0.000    0.000    0.000    0.000 
#    0.000    0.000    0.000    0.000    0.000    0.000 
#
# Total GULP energy -272790.272598 kJ/mol
# GULP energy per Si atom -5567.148420 kJ/mol
# Density = 1.951751 g / cm^3
# Si number density = 19.562031 Si / 1000 Ang^3
#
#
#
# Elastic Constant Matrix: (Units=GPa)
#
#
# Indices 1 2 3 4 5 6 
#
# 1 -116.5147 174.3972 42.2078 0.0000 0.0000 0.0000
# 2 174.3972 -116.5147 42.2078 0.0000 0.0000 0.0000
# 3 42.2078 42.2078 130.3996 0.0000 0.0000 0.0000
# 4 0.0000 0.0000 0.0000 37.8861 0.0000 0.0000
# 5 0.0000 0.0000 0.0000 0.0000 37.8861 0.0000
# 6 0.0000 0.0000 0.0000 0.0000 0.0000 13.9311
#
#
#
# Elastic Compliance Matrix: (Units=1/GPa)
#
#
# Indices 1 2 3 4 5 6 
#
# 1 0.014643 0.018081 -0.010592 0.000000 0.000000 0.000000
# 2 0.018081 0.014643 -0.010592 0.000000 0.000000 0.000000
# 3 -0.010592 -0.010592 0.014526 0.000000 0.000000 0.000000
# 4 0.000000 0.000000 0.000000 0.026395 0.000000 0.000000
# 5 0.000000 0.000000 0.000000 0.000000 0.026395 0.000000
# 6 0.000000 0.000000 0.000000 0.000000 0.000000 0.071782
#
#
# Mechanical properties :
#
#
# Convention : Reuss Voigt Hill
#
# Bulk Modulus (GPa) = 26.59218 46.11065 36.35142
# Shear Modulus (GPa) = 26.72001 -6.15551 10.28225
#
# Velocity S-wave (km/s) = 3.69983 -1.77581 2.29513
# Velocity P-wave (km/s) = 5.64579 4.40659 5.06424
#
# Compressibility (1/GPa) = 0.03760503
#
# Stress axis : x y z
#
# Youngs Moduli (GPa) = 68.29111 68.29111 68.84381
#
# Poissons Ratio (x) = -1.23475 0.72920
# Poissons Ratio (y) = -1.23475 0.72920
# Poissons Ratio (z) = 0.72334 0.72334
#
# Static dielectric constant tensor:
#      x y z
#    x 1.693180 0.000000 0.000000 
#    y 0.000000 1.693180 0.000000 
#    z 0.000000 0.000000 1.876920 
# 
# From -- ./inp_files/6298.got.cif
#   From: 2010.05.17/outbox.cif.g08.bks.cpg/sg115_4_cif.got.tgz:6298.got - 2010.05.20 11:07:42.
