data_PCOD9557102
_publ_section_title
;
Structure prediction by ZEFSAII (Michael W. Deem and Ramdas Pophale) SiO2 
 PCOD9557102
Probable space group: P -4 M 2
;
_chemical_formula_sum "Si O2"
_cell_formula_units_Z 48
_cell_length_a 8.343404
_cell_length_b 8.343404
_cell_length_c 34.268918
_cell_angle_alpha 90.000000
_cell_angle_beta 90.000000
_cell_angle_gamma 90.000000
_cell_volume 2385.541295
_symmetry_space_group_name_H-M "P -4 M 2"
_symmetry_group_IT_number 115
_symmetry_cell_setting 'tetragonal'
loop_
_space_group_symop_operation_xyz
x,y,z
y,-x,-z
-x,-y,z
-y,x,-z
y,x,-z
-y,-x,-z
-x,y,z
x,-y,z
loop_
_atom_site_type_symbol
_atom_site_label
_atom_site_fract_x
_atom_site_fract_y
_atom_site_fract_z
Si Si1 0.500000 0.693304 0.091269
Si Si2 0.193143 0.500000 0.820301
Si Si3 0.814077 0.315070 0.308087
Si Si4 0.189352 0.183933 0.775570
Si Si5 0.180632 0.682520 0.462314
Si Si6 0.184028 0.318710 0.613913
Si Si7 0.693787 0.815851 0.959076
O O1 0.500000 0.500000 0.093727
O O2 0.500000 0.765230 0.134296
O O3 0.334182 0.738274 0.068942
O O4 0.254437 0.333688 0.800680
O O5 0.000000 0.500000 0.815198
O O6 0.798416 0.500000 0.296597
O O7 0.772085 0.213829 0.269931
O O8 0.720902 0.284161 0.347796
O O9 0.000000 0.280987 0.317247
O O10 0.000000 0.173713 0.783590
O O11 0.254528 0.000000 0.781275
O O12 0.287581 0.712419 0.500000
O O13 0.197946 0.500000 0.449056
O O14 0.214090 0.785628 0.424186
O O15 0.000000 0.709967 0.476209
O O16 0.216802 0.500000 0.601224
O O17 0.000000 0.303598 0.626019
O O18 0.500000 0.806284 0.964792
O O19 0.728773 0.000000 0.945946
O O20 0.780357 0.780357 0.000000
#
# Coordination Sequence:
#
# PCOD9557102 Si02
#       7
#     4   4   8   8   8   8   8
#     4  10  22  38  58  86 126 164 202 258 318 370
#     4  10  22  38  58  84 116 158 208 252 302 368
#     4  10  21  37  58  86 116 146 185 238 296 350
#     4   9  19  37  59  82 113 155 200 250 306 361
#     4  11  24  41  61  85 113 146 186 230 278 336
#     4  11  24  39  57  84 116 149 188 232 278 338
#     4  10  20  36  61  89 120 162 209 258 315 377
#
# _framework density 20.121220000000001
#
# number of rings (size 3 to 8) (size 9 to 14) (size 15 to 20)
#    0.000    1.833    0.833    2.500    1.167    9.833 
#    0.000    0.000    0.000    0.000    0.000    0.000 
#    0.000    0.000    0.000    0.000    0.000    0.000 
#
# Total GULP energy -267763.342301 kJ/mol
# GULP energy per Si atom -5578.402965 kJ/mol
# Density = 2.007542 g / cm^3
# Si number density = 20.121220 Si / 1000 Ang^3
#
#
#
# Elastic Constant Matrix: (Units=GPa)
#
#
# Indices 1 2 3 4 5 6 
#
# 1 26.9757 48.1450 26.9645 0.0000 0.0000 0.0000
# 2 48.1450 26.9757 26.9645 0.0000 0.0000 0.0000
# 3 26.9645 26.9645 77.6380 0.0000 0.0000 0.0000
# 4 0.0000 0.0000 0.0000 33.0036 0.0000 0.0000
# 5 0.0000 0.0000 0.0000 0.0000 33.0036 0.0000
# 6 0.0000 0.0000 0.0000 0.0000 0.0000 16.6557
#
#
#
# Elastic Compliance Matrix: (Units=1/GPa)
#
#
# Indices 1 2 3 4 5 6 
#
# 1 -0.014752 0.032486 -0.006159 0.000000 0.000000 0.000000
# 2 0.032486 -0.014752 -0.006159 0.000000 0.000000 0.000000
# 3 -0.006159 -0.006159 0.017159 0.000000 0.000000 0.000000
# 4 0.000000 0.000000 0.000000 0.030300 0.000000 0.000000
# 5 0.000000 0.000000 0.000000 0.000000 0.030300 0.000000
# 6 0.000000 0.000000 0.000000 0.000000 0.000000 0.060039
#
#
# Mechanical properties :
#
#
# Convention : Reuss Voigt Hill
#
# Bulk Modulus (GPa) = 35.72790 37.30415 36.51602
# Shear Modulus (GPa) = 64.69414 18.50027 41.59721
#
# Velocity S-wave (km/s) = 5.67644 3.03552 4.55172
# Velocity P-wave (km/s) = 7.79471 5.55570 6.76843
#
# Compressibility (1/GPa) = 0.02798933
#
# Stress axis : x y z
#
# Youngs Moduli (GPa) = -67.78567 -67.78567 58.28015
#
# Poissons Ratio (x) = 2.20208 0.35895
# Poissons Ratio (y) = 2.20208 0.35895
# Poissons Ratio (z) = -0.41749 -0.41749
#
# Static dielectric constant tensor:
#      x y z
#    x 1.737500 0.000000 0.000000 
#    y 0.000000 1.737500 0.000000 
#    z 0.000000 0.000000 1.780790 
# 
# From -- ./inp_files/6170.got.cif
#   From: 2010.05.17/outbox.cif.g08.bks.cpg/sg115_4_cif.got.tgz:6170.got - 2010.05.20 11:07:42.
