data_PCOD9557065
_publ_section_title
;
Structure prediction by ZEFSAII (Michael W. Deem and Ramdas Pophale) SiO2 
 PCOD9557065
Probable space group: P -4 M 2
;
_chemical_formula_sum "Si O2"
_cell_formula_units_Z 40
_cell_length_a 8.133970
_cell_length_b 8.133970
_cell_length_c 29.551369
_cell_angle_alpha 90.000000
_cell_angle_beta 90.000000
_cell_angle_gamma 90.000000
_cell_volume 1955.161953
_symmetry_space_group_name_H-M "P -4 M 2"
_symmetry_group_IT_number 115
_symmetry_cell_setting 'tetragonal'
loop_
_space_group_symop_operation_xyz
x,y,z
y,-x,-z
-x,-y,z
-y,x,-z
y,x,-z
-y,-x,-z
-x,y,z
x,-y,z
loop_
_atom_site_type_symbol
_atom_site_label
_atom_site_fract_x
_atom_site_fract_y
_atom_site_fract_z
Si Si1 0.679348 0.304911 0.763017
Si Si2 0.298460 0.000000 0.289980
Si Si3 0.306354 0.188250 0.047582
Si Si4 0.191742 0.806328 0.856606
Si Si5 0.195835 0.684555 0.452246
Si Si6 0.302559 0.000000 0.394858
O O1 0.500000 0.235420 0.750954
O O2 0.674636 0.500000 0.754295
O O3 0.712825 0.279284 0.816148
O O4 0.836107 0.238960 0.735628
O O5 0.251908 0.000000 0.342406
O O6 0.500000 0.000000 0.287809
O O7 0.500000 0.186579 0.055977
O O8 0.225314 0.258459 0.092956
O O9 0.246237 0.000000 0.042753
O O10 0.273321 0.273321 0.000000
O O11 0.000000 0.749371 0.856008
O O12 0.193520 0.000000 0.847877
O O13 0.284655 0.715345 0.500000
O O14 0.235942 0.500000 0.435284
O O15 0.241213 0.834545 0.419397
O O16 0.000000 0.691067 0.460587
O O17 0.500000 0.000000 0.397286
#
# Coordination Sequence:
#
# PCOD9557065 Si02
#       6
#     8   4   8   8   8   4
#     4  10  20  36  61  88 114 153 201 249 304 364
#     4   9  20  39  61  87 125 161 201 255 308 366
#     4  10  21  36  55  79 109 146 185 231 286 346
#     4  10  20  35  57  83 110 145 188 237 296 358
#     4  11  23  40  63  92 128 172 220 269 323 384
#     4  11  23  39  63  97 129 169 215 266 325 380
#
# _framework density 20.458663000000001
#
# number of rings (size 3 to 8) (size 9 to 14) (size 15 to 20)
#    0.000    1.800    2.000    2.100    0.000    5.400 
#    0.000    4.000    0.000    0.000    0.000    0.000 
#    0.000    0.000    0.000    0.000    0.000    0.000 
#
# Total GULP energy -223387.873770 kJ/mol
# GULP energy per Si atom -5584.696844 kJ/mol
# Density = 2.041210 g / cm^3
# Si number density = 20.458663 Si / 1000 Ang^3
#
#
#
# Elastic Constant Matrix: (Units=GPa)
#
#
# Indices 1 2 3 4 5 6 
#
# 1 88.6298 31.2737 39.2935 0.0000 0.0000 0.0000
# 2 31.2737 88.6301 39.2941 0.0000 0.0000 0.0000
# 3 39.2935 39.2941 110.5610 0.0000 0.0000 0.0000
# 4 0.0000 0.0000 0.0000 20.3947 0.0000 0.0000
# 5 0.0000 0.0000 0.0000 0.0000 20.3946 0.0000
# 6 0.0000 0.0000 0.0000 0.0000 0.0000 12.2424
#
#
#
# Elastic Compliance Matrix: (Units=1/GPa)
#
#
# Indices 1 2 3 4 5 6 
#
# 1 0.014154 -0.003281 -0.003864 0.000000 0.000000 0.000000
# 2 -0.003281 0.014154 -0.003864 0.000000 0.000000 0.000000
# 3 -0.003864 -0.003864 0.011791 0.000000 0.000000 0.000000
# 4 0.000000 0.000000 0.000000 0.049032 0.000000 0.000000
# 5 0.000000 0.000000 0.000000 0.000000 0.049033 0.000000
# 6 0.000000 0.000000 0.000000 0.000000 0.000000 0.081683
#
#
# Mechanical properties :
#
#
# Convention : Reuss Voigt Hill
#
# Bulk Modulus (GPa) = 55.30942 56.39372 55.85157
# Shear Modulus (GPa) = 20.17000 22.47031 21.32016
#
# Velocity S-wave (km/s) = 3.14330 3.31770 3.23167
# Velocity P-wave (km/s) = 6.34564 6.50390 6.42526
#
# Compressibility (1/GPa) = 0.01808010
#
# Stress axis : x y z
#
# Youngs Moduli (GPa) = 70.65238 70.65234 84.80690
#
# Poissons Ratio (x) = 0.23182 0.32771
# Poissons Ratio (y) = 0.23182 0.32772
# Poissons Ratio (z) = 0.27301 0.27302
#
# Static dielectric constant tensor:
#      x y z
#    x 1.731290 0.000000 0.000000 
#    y 0.000000 1.731290 0.000000 
#    z 0.000000 0.000000 1.697620 
# 
# From -- ./inp_files/5492.got.cif
#   From: 2010.05.17/outbox.cif.g08.bks.cpg/sg115_3_cif.got.tgz:5492.got - 2010.05.20 11:07:42.
