data_PCOD9557493
_publ_section_title
;
Structure prediction by ZEFSAII (Michael W. Deem and Ramdas Pophale) SiO2 
 PCOD9557493
Probable space group: P -4 M 2
;
_chemical_formula_sum "Si O2"
_cell_formula_units_Z 48
_cell_length_a 9.000000
_cell_length_b 9.000000
_cell_length_c 30.000000
_cell_angle_alpha 90.000000
_cell_angle_beta 90.000000
_cell_angle_gamma 90.000000
_cell_volume 2430.000000
_symmetry_space_group_name_H-M "P -4 M 2"
_symmetry_group_IT_number 115
_symmetry_cell_setting 'tetragonal'
loop_
_space_group_symop_operation_xyz
x,y,z
y,-x,-z
-x,-y,z
-y,x,-z
y,x,-z
-y,-x,-z
-x,y,z
x,-y,z
loop_
_atom_site_type_symbol
_atom_site_label
_atom_site_fract_x
_atom_site_fract_y
_atom_site_fract_z
Si Si1 0.667329 0.326477 0.824669
Si Si2 0.822275 0.177726 0.000000
Si Si3 0.820873 0.172856 0.095581
Si Si4 0.166336 0.319493 0.409862
Si Si5 0.678390 0.335615 0.674718
Si Si6 0.165950 0.826971 0.250237
Si Si7 0.324112 0.675889 0.500000
O O1 0.500000 0.287870 0.810124
O O2 0.672169 0.500000 0.834366
O O3 0.718522 0.236145 0.867196
O O4 0.781326 0.283954 0.786451
O O5 0.765140 0.229164 0.047446
O O6 0.000000 0.200253 0.999170
O O7 0.000000 0.170715 0.094955
O O8 0.774659 0.000000 0.103124
O O9 0.162447 0.500000 0.407545
O O10 0.287942 0.271226 0.374135
O O11 0.223751 0.282152 0.458447
O O12 0.000000 0.265404 0.400451
O O13 0.500000 0.340166 0.676066
O O14 0.732752 0.500000 0.687517
O O15 0.733545 0.207700 0.706927
O O16 0.000000 0.793372 0.233529
O O17 0.173755 0.000000 0.260517
O O18 0.500000 0.695357 0.490058
#
# Coordination Sequence:
#
# PCOD9557493 Si02
#       7
#     8   4   8   8   8   8   4
#     4  11  24  39  54  76 107 142 179 218 262 313
#     4   7  12  26  50  79 108 136 170 215 262 309
#     4   9  17  32  56  83 108 137 176 220 265 313
#     4   9  17  30  50  76 105 138 176 217 262 312
#     4  10  20  35  57  84 111 140 176 217 262 314
#     4  11  24  40  58  81 107 136 173 217 265 317
#     4   9  16  28  48  73 100 132 174 221 262 304
#
# _framework density 19.753086
#
# number of rings (size 3 to 8) (size 9 to 14) (size 15 to 20)
#    0.000    2.333    0.000    4.000    0.000   10.000 
#    0.000    1.667    0.000    7.250    0.000    0.000 
#    0.000    0.000    0.000    0.000    0.000    0.000 
#
# Total GULP energy -267426.945045 kJ/mol
# GULP energy per Si atom -5571.394688 kJ/mol
# Density = 1.970813 g / cm^3
# Si number density = 19.753086 Si / 1000 Ang^3
#
#
#
# Elastic Constant Matrix: (Units=GPa)
#
#
# Indices 1 2 3 4 5 6 
#
# 1 26.7032 24.8310 7.1008 0.0000 0.0000 0.0000
# 2 24.8310 26.7025 7.1009 0.0000 0.0000 0.0000
# 3 7.1008 7.1009 56.4719 0.0000 0.0000 0.0000
# 4 0.0000 0.0000 0.0000 12.8512 0.0000 0.0000
# 5 0.0000 0.0000 0.0000 0.0000 12.8514 0.0000
# 6 0.0000 0.0000 0.0000 0.0000 0.0000 16.5566
#
#
#
# Elastic Compliance Matrix: (Units=1/GPa)
#
#
# Indices 1 2 3 4 5 6 
#
# 1 0.277166 -0.257069 -0.002526 0.000000 0.000000 0.000000
# 2 -0.257069 0.277174 -0.002529 0.000000 0.000000 0.000000
# 3 -0.002526 -0.002529 0.018344 0.000000 0.000000 0.000000
# 4 0.000000 0.000000 0.000000 0.077814 0.000000 0.000000
# 5 0.000000 0.000000 0.000000 0.000000 0.077813 0.000000
# 6 0.000000 0.000000 0.000000 0.000000 0.000000 0.060399
#
#
# Mechanical properties :
#
#
# Convention : Reuss Voigt Hill
#
# Bulk Modulus (GPa) = 20.64588 20.88257 20.76423
# Shear Modulus (GPa) = 3.76194 13.17482 8.46838
#
# Velocity S-wave (km/s) = 1.38153 2.58539 2.07278
# Velocity P-wave (km/s) = 3.60825 4.41668 4.03278
#
# Compressibility (1/GPa) = 0.04843581
#
# Stress axis : x y z
#
# Youngs Moduli (GPa) = 3.60795 3.60784 54.51506
#
# Poissons Ratio (x) = 0.92746 0.13772
# Poissons Ratio (y) = 0.92749 0.13786
# Poissons Ratio (z) = 0.00911 0.00912
#
# Static dielectric constant tensor:
#      x y z
#    x 1.671960 0.000000 0.000000 
#    y 0.000000 1.671960 0.000000 
#    z 0.000000 0.000000 1.756270 
# 
# From -- ./inp_files/6193.got.cif
#   From: 2010.05.17/outbox.ucp.g08.bks.cvg/sg115_4_cif.got.tgz:6193.got - 2010.06.11 11:33:38.
