data_PCOD9557074
_publ_section_title
;
Structure prediction by ZEFSAII (Michael W. Deem and Ramdas Pophale) SiO2 
 PCOD9557074
Probable space group: P -4 M 2
;
_chemical_formula_sum "Si O2"
_cell_formula_units_Z 48
_cell_length_a 9.654004
_cell_length_b 9.654004
_cell_length_c 27.922299
_cell_angle_alpha 90.000000
_cell_angle_beta 90.000000
_cell_angle_gamma 90.000000
_cell_volume 2602.352493
_symmetry_space_group_name_H-M "P -4 M 2"
_symmetry_group_IT_number 115
_symmetry_cell_setting 'tetragonal'
loop_
_space_group_symop_operation_xyz
x,y,z
y,-x,-z
-x,-y,z
-y,x,-z
y,x,-z
-y,-x,-z
-x,y,z
x,-y,z
loop_
_atom_site_type_symbol
_atom_site_label
_atom_site_fract_x
_atom_site_fract_y
_atom_site_fract_z
Si Si1 0.000000 0.836737 0.811922
Si Si2 0.000000 0.165917 0.927377
Si Si3 0.662736 0.273091 0.053534
Si Si4 0.660073 0.330783 0.552579
Si Si5 0.661140 0.206572 0.250201
Si Si6 0.842894 0.332096 0.640874
Si Si7 0.167922 0.500000 0.112170
Si Si8 0.345758 0.500000 0.203789
O O1 0.128178 0.757528 0.787579
O O2 0.000000 0.823828 0.869332
O O3 0.000000 0.000000 0.800606
O O4 0.130242 0.252532 0.946484
O O5 0.000000 0.000000 0.939151
O O6 0.500000 0.260320 0.068359
O O7 0.755820 0.370251 0.087356
O O8 0.666408 0.333593 0.000000
O O9 0.713094 0.286907 0.500000
O O10 0.500000 0.290547 0.557239
O O11 0.664157 0.500000 0.551734
O O12 0.743635 0.281869 0.598753
O O13 0.500000 0.158385 0.246885
O O14 0.711193 0.185772 0.304552
O O15 0.661087 0.365953 0.236481
O O16 0.830978 0.500000 0.641745
O O17 0.000000 0.296300 0.628829
O O18 0.220688 0.500000 0.166488
O O19 0.000000 0.500000 0.107142
O O20 0.500000 0.500000 0.179453
#
# Coordination Sequence:
#
# PCOD9557074 Si02
#       8
#     4   4   8   8   8   8   4   4
#     4  11  23  41  61  85 119 159 199 239 294 349
#     4  11  27  45  67  99 129 163 207 255 302 367
#     4  12  26  44  70  96 128 164 205 250 311 369
#     4   8  14  24  41  69 105 141 180 229 284 341
#     4  10  20  35  58  87 119 154 195 245 293 351
#     4   9  16  27  46  75 107 143 185 231 287 340
#     4  12  26  44  68  94 126 164 206 254 303 366
#     4  10  22  38  60  90 126 158 196 240 303 362
#
# _framework density 18.444849999999999
#
# number of rings (size 3 to 8) (size 9 to 14) (size 15 to 20)
#    0.000    1.833    1.667    3.250    3.500    4.667 
#    0.000    0.000    0.000    1.000    0.000    0.000 
#    0.000    0.000    0.000    0.000    0.000    0.000 
#
# Total GULP energy -267686.079000 kJ/mol
# GULP energy per Si atom -5576.793313 kJ/mol
# Density = 1.840287 g / cm^3
# Si number density = 18.444850 Si / 1000 Ang^3
#
#
#
# Elastic Constant Matrix: (Units=GPa)
#
#
# Indices 1 2 3 4 5 6 
#
# 1 106.4149 28.2361 21.1255 0.0000 0.0000 0.0000
# 2 28.2361 106.4149 21.1254 0.0000 0.0000 0.0000
# 3 21.1255 21.1254 86.7527 0.0000 0.0000 0.0000
# 4 0.0000 0.0000 0.0000 23.8821 0.0000 0.0000
# 5 0.0000 0.0000 0.0000 0.0000 23.8793 0.0000
# 6 0.0000 0.0000 0.0000 0.0000 0.0000 15.6243
#
#
#
# Elastic Compliance Matrix: (Units=1/GPa)
#
#
# Indices 1 2 3 4 5 6 
#
# 1 0.010416 -0.002375 -0.001958 0.000000 0.000000 0.000000
# 2 -0.002375 0.010416 -0.001958 0.000000 0.000000 0.000000
# 3 -0.001958 -0.001958 0.012481 0.000000 0.000000 0.000000
# 4 0.000000 0.000000 0.000000 0.041872 0.000000 0.000000
# 5 0.000000 0.000000 0.000000 0.000000 0.041877 0.000000
# 6 0.000000 0.000000 0.000000 0.000000 0.000000 0.064003
#
#
# Mechanical properties :
#
#
# Convention : Reuss Voigt Hill
#
# Bulk Modulus (GPa) = 48.23855 48.95074 48.59465
# Shear Modulus (GPa) = 24.93043 27.95016 26.44029
#
# Velocity S-wave (km/s) = 3.68043 3.89696 3.79024
# Velocity P-wave (km/s) = 6.65360 6.84434 6.74964
#
# Compressibility (1/GPa) = 0.02073031
#
# Stress axis : x y z
#
# Youngs Moduli (GPa) = 96.00510 96.00518 80.12394
#
# Poissons Ratio (x) = 0.22802 0.15689
# Poissons Ratio (y) = 0.22802 0.15689
# Poissons Ratio (z) = 0.18799 0.18799
#
# Static dielectric constant tensor:
#      x y z
#    x 1.674750 0.000000 0.000000 
#    y 0.000000 1.674740 0.000000 
#    z 0.000000 0.000000 1.634040 
# 
# From -- ./inp_files/6284.got.cif
#   From: 2010.05.17/outbox.cif.g08.bks.cpg/sg115_4_cif.got.tgz:6284.got - 2010.05.20 11:07:42.
