data_PCOD9557466
_publ_section_title
;
Structure prediction by ZEFSAII (Michael W. Deem and Ramdas Pophale) SiO2 
 PCOD9557466
Probable space group: P -4 M 2
;
_chemical_formula_sum "Si O2"
_cell_formula_units_Z 32
_cell_length_a 14.296069
_cell_length_b 14.296069
_cell_length_c 8.218643
_cell_angle_alpha 90.000000
_cell_angle_beta 90.000000
_cell_angle_gamma 90.000000
_cell_volume 1679.706440
_symmetry_space_group_name_H-M "P -4 M 2"
_symmetry_group_IT_number 115
_symmetry_cell_setting 'tetragonal'
loop_
_space_group_symop_operation_xyz
x,y,z
y,-x,-z
-x,-y,z
-y,x,-z
y,x,-z
-y,-x,-z
-x,y,z
x,-y,z
loop_
_atom_site_type_symbol
_atom_site_label
_atom_site_fract_x
_atom_site_fract_y
_atom_site_fract_z
Si Si1 0.886169 0.390180 0.319293
Si Si2 0.112613 0.610965 0.961714
Si Si3 0.886250 0.104241 0.816872
Si Si4 0.717199 0.114372 0.362118
O O1 0.861781 0.500000 0.337052
O O2 0.854300 0.356526 0.140360
O O3 0.852501 0.331664 0.473614
O O4 0.000000 0.386972 0.318690
O O5 0.129832 0.500000 0.951581
O O6 0.000000 0.623971 0.962345
O O7 0.146075 0.660917 0.798916
O O8 0.859710 0.176529 0.679185
O O9 0.000000 0.098954 0.818803
O O10 0.848911 0.000000 0.788339
O O11 0.863202 0.136799 0.000000
O O12 0.714121 0.000000 0.366453
#
# Coordination Sequence:
#
# PCOD9557466 Si02
#       4
#     8   8   8   8
#     4   8  13  20  30  47  69  84  93 113 151 205
#     4   8  13  20  30  47  69  84  93 113 151 205
#     4   8  14  24  36  48  61  81 114 156 196 221
#     4   9  14  20  34  49  59  79 107 130 162 213
#
# _framework density 19.050948000000002
#
# number of rings (size 3 to 8) (size 9 to 14) (size 15 to 20)
#    0.000    3.750    0.000    3.000    0.000    3.000 
#    0.000    0.000    0.000    3.000    0.000   17.500 
#    0.000   12.000    0.000    0.000    0.000    0.000 
#
# Total GULP energy -178499.101354 kJ/mol
# GULP energy per Si atom -5578.096917 kJ/mol
# Density = 1.900759 g / cm^3
# Si number density = 19.050948 Si / 1000 Ang^3
#
#
#
# Elastic Constant Matrix: (Units=GPa)
#
#
# Indices 1 2 3 4 5 6 
#
# 1 50.3402 -2.4798 50.1481 0.0000 0.0000 0.0000
# 2 -2.4798 50.3407 50.1482 0.0000 0.0000 0.0000
# 3 50.1481 50.1482 175.0518 0.0000 0.0000 0.0000
# 4 0.0000 0.0000 0.0000 20.1073 0.0000 0.0000
# 5 0.0000 0.0000 0.0000 0.0000 20.1072 0.0000
# 6 0.0000 0.0000 0.0000 0.0000 0.0000 0.4445
#
#
#
# Elastic Compliance Matrix: (Units=1/GPa)
#
#
# Indices 1 2 3 4 5 6 
#
# 1 0.035606 0.016673 -0.014977 0.000000 0.000000 0.000000
# 2 0.016673 0.035605 -0.014977 0.000000 0.000000 0.000000
# 3 -0.014977 -0.014977 0.014294 0.000000 0.000000 0.000000
# 4 0.000000 0.000000 0.000000 0.049733 0.000000 0.000000
# 5 0.000000 0.000000 0.000000 0.000000 0.049733 0.000000
# 6 0.000000 0.000000 0.000000 0.000000 0.000000 2.249467
#
#
# Mechanical properties :
#
#
# Convention : Reuss Voigt Hill
#
# Bulk Modulus (GPa) = 16.96506 52.37396 34.66951
# Shear Modulus (GPa) = 2.01560 19.99290 11.00425
#
# Velocity S-wave (km/s) = 1.02971 3.24303 2.40598
# Velocity P-wave (km/s) = 3.21530 6.44780 5.09472
#
# Compressibility (1/GPa) = 0.05894469
#
# Stress axis : x y z
#
# Youngs Moduli (GPa) = 28.08535 28.08571 69.96187
#
# Poissons Ratio (x) = -0.46828 1.04780
# Poissons Ratio (y) = -0.46828 1.04779
# Poissons Ratio (z) = 0.42063 0.42063
#
# Static dielectric constant tensor:
#      x y z
#    x 1.664340 0.000000 0.000000 
#    y 0.000000 1.664340 0.000000 
#    z 0.000000 0.000000 1.720710 
# 
# From -- ./inp_files/1296.got.cif
#   From: 2010.05.17/outbox.cif.g08.bks.cpg/sg115_1_cif.got.tgz:1296.got - 2010.05.20 11:07:42.
