data_PCOD9557334
_publ_section_title
;
Structure prediction by ZEFSAII (Michael W. Deem and Ramdas Pophale) SiO2 
 PCOD9557334
Probable space group: P -4 M 2
;
_chemical_formula_sum "Si O2"
_cell_formula_units_Z 48
_cell_length_a 8.122514
_cell_length_b 8.122514
_cell_length_c 35.508895
_cell_angle_alpha 90.000000
_cell_angle_beta 90.000000
_cell_angle_gamma 90.000000
_cell_volume 2342.707645
_symmetry_space_group_name_H-M "P -4 M 2"
_symmetry_group_IT_number 115
_symmetry_cell_setting 'tetragonal'
loop_
_space_group_symop_operation_xyz
x,y,z
y,-x,-z
-x,-y,z
-y,x,-z
y,x,-z
-y,-x,-z
-x,y,z
x,-y,z
loop_
_atom_site_type_symbol
_atom_site_label
_atom_site_fract_x
_atom_site_fract_y
_atom_site_fract_z
Si Si1 0.000000 0.195513 0.173483
Si Si2 0.697973 0.000000 0.740448
Si Si3 0.809241 0.687630 0.613911
Si Si4 0.690664 0.700758 0.959816
Si Si5 0.300188 0.690628 0.876742
Si Si6 0.688933 0.305997 0.305881
Si Si7 0.184761 0.687404 0.462684
O O1 0.166363 0.250071 0.151812
O O2 0.000000 0.267041 0.215453
O O3 0.000000 0.000000 0.175648
O O4 0.763047 0.832148 0.720907
O O5 0.500000 0.000000 0.734707
O O6 0.753809 0.500000 0.607020
O O7 0.714766 0.746980 0.650820
O O8 0.790789 0.775784 0.574159
O O9 0.000000 0.688278 0.624609
O O10 0.500000 0.756137 0.958724
O O11 0.688850 0.500000 0.961677
O O12 0.762902 0.737934 0.918835
O O13 0.760442 0.760442 0.000000
O O14 0.500000 0.687027 0.878316
O O15 0.249048 0.500000 0.868272
O O16 0.500000 0.238453 0.302786
O O17 0.675773 0.500000 0.297886
O O18 0.290893 0.709108 0.500000
O O19 0.196593 0.500000 0.449617
O O20 0.000000 0.722816 0.475621
#
# Coordination Sequence:
#
# PCOD9557334 Si02
#       7
#     4   4   8   8   8   8   8
#     4  12  26  40  56  82 122 164 200 242 302 372
#     4  10  22  40  62  86 112 146 198 252 292 350
#     4  10  21  37  58  85 116 149 184 224 275 339
#     4   7  10  20  45  81 111 136 179 241 298 345
#     4   9  18  35  61  87 112 150 200 252 302 356
#     4   9  19  37  61  88 117 147 183 236 297 351
#     4  11  24  39  56  80 111 148 192 238 282 331
#
# _framework density 20.489113
#
# number of rings (size 3 to 8) (size 9 to 14) (size 15 to 20)
#    0.000    2.500    0.000    3.750    1.167    6.000 
#    0.000    1.667    1.833    0.000    0.000    0.000 
#    0.000    0.000    0.000    0.000    0.000    0.000 
#
# Total GULP energy -267447.476839 kJ/mol
# GULP energy per Si atom -5571.822434 kJ/mol
# Density = 2.044248 g / cm^3
# Si number density = 20.489113 Si / 1000 Ang^3
#
#
#
# Elastic Constant Matrix: (Units=GPa)
#
#
# Indices 1 2 3 4 5 6 
#
# 1 32.3939 32.4706 31.0195 0.0000 0.0000 0.0000
# 2 32.4706 32.3953 31.0196 0.0000 0.0000 0.0000
# 3 31.0195 31.0196 117.1864 0.0000 0.0000 0.0000
# 4 0.0000 0.0000 0.0000 61.4376 0.0000 0.0000
# 5 0.0000 0.0000 0.0000 0.0000 61.4376 0.0000
# 6 0.0000 0.0000 0.0000 0.0000 0.0000 -18.1165
#
#
#
# Elastic Compliance Matrix: (Units=1/GPa)
#
#
# Indices 1 2 3 4 5 6 
#
# 1 -6.574759 6.595223 -0.005423 0.000000 0.000000 0.000000
# 2 6.595223 -6.574401 -0.005506 0.000000 0.000000 0.000000
# 3 -0.005423 -0.005506 0.011426 0.000000 0.000000 0.000000
# 4 0.000000 0.000000 0.000000 0.016277 0.000000 0.000000
# 5 0.000000 0.000000 0.000000 0.000000 0.016277 0.000000
# 6 0.000000 0.000000 0.000000 0.000000 0.000000 -0.055198
#
#
# Mechanical properties :
#
#
# Convention : Reuss Voigt Hill
#
# Bulk Modulus (GPa) = 32.40980 41.22166 36.81573
# Shear Modulus (GPa) = -0.18998 26.78280 13.29641
#
# Velocity S-wave (km/s) = -0.30483 3.61941 2.55021
# Velocity P-wave (km/s) = 3.96592 6.13427 5.16516
#
# Compressibility (1/GPa) = 0.03085487
#
# Stress axis : x y z
#
# Youngs Moduli (GPa) = -0.15210 -0.15211 87.51838
#
# Poissons Ratio (x) = 1.00317 0.47459
# Poissons Ratio (y) = 1.00311 0.48184
# Poissons Ratio (z) = -0.00082 -0.00084
#
# Static dielectric constant tensor:
#      x y z
#    x 1.749090 0.000000 0.000000 
#    y 0.000000 1.749090 0.000000 
#    z 0.000000 0.000000 1.779820 
# 
# From -- ./inp_files/6205.got.cif
#   From: 2010.05.17/outbox.cif.g08.bks.cpg/sg115_4_cif.got.tgz:6205.got - 2010.05.20 11:07:42.
