data_PCOD9557163
_publ_section_title
;
Structure prediction by ZEFSAII (Michael W. Deem and Ramdas Pophale) SiO2 
 PCOD9557163
Probable space group: P -4 M 2
;
_chemical_formula_sum "Si O2"
_cell_formula_units_Z 28
_cell_length_a 9.468405
_cell_length_b 9.468405
_cell_length_c 18.343585
_cell_angle_alpha 90.000000
_cell_angle_beta 90.000000
_cell_angle_gamma 90.000000
_cell_volume 1644.515112
_symmetry_space_group_name_H-M "P -4 M 2"
_symmetry_group_IT_number 115
_symmetry_cell_setting 'tetragonal'
loop_
_space_group_symop_operation_xyz
x,y,z
y,-x,-z
-x,-y,z
-y,x,-z
y,x,-z
-y,-x,-z
-x,y,z
x,-y,z
loop_
_atom_site_type_symbol
_atom_site_label
_atom_site_fract_x
_atom_site_fract_y
_atom_site_fract_z
Si Si1 0.166172 0.169286 0.708341
Si Si2 0.667543 0.667543 0.000000
Si Si3 0.331186 0.666172 0.415732
Si Si4 0.168581 0.666351 0.145908
O O1 0.239751 0.247767 0.641380
O O2 0.243129 0.210040 0.783725
O O3 0.000000 0.200624 0.711634
O O4 0.183242 0.000000 0.699976
O O5 0.751562 0.709963 0.072399
O O6 0.690208 0.500000 0.988814
O O7 0.298188 0.701813 0.500000
O O8 0.500000 0.682724 0.406522
O O9 0.298448 0.500000 0.404652
O O10 0.198814 0.500000 0.159082
O O11 0.000000 0.680628 0.135561
#
# Coordination Sequence:
#
# PCOD9557163 Si02
#       4
#     8   4   8   8
#     4  10  21  35  51  75 106 137 170 208 251 300
#     4   9  18  32  50  73  98 124 160 207 254 297
#     4   9  19  36  56  77 101 131 169 211 254 301
#     4   9  18  33  51  70  96 132 169 203 246 301
#
# _framework density 17.026295999999999
#
# number of rings (size 3 to 8) (size 9 to 14) (size 15 to 20)
#    0.000    2.714    0.000    1.714    0.000    5.714 
#    0.000    7.143    0.000    0.000    0.000    0.000 
#    0.000    0.000    0.000    0.000    0.000    0.000 
#
# Total GULP energy -156188.410578 kJ/mol
# GULP energy per Si atom -5578.157521 kJ/mol
# Density = 1.698754 g / cm^3
# Si number density = 17.026296 Si / 1000 Ang^3
#
#
#
# Elastic Constant Matrix: (Units=GPa)
#
#
# Indices 1 2 3 4 5 6 
#
# 1 64.7859 57.9949 97.4733 0.0000 0.0000 0.0000
# 2 57.9949 64.7856 97.4730 0.0000 0.0000 0.0000
# 3 97.4733 97.4730 197.3628 0.0000 0.0000 0.0000
# 4 0.0000 0.0000 0.0000 99.2498 0.0000 0.0000
# 5 0.0000 0.0000 0.0000 0.0000 99.2437 0.0000
# 6 0.0000 0.0000 0.0000 0.0000 0.0000 26.1403
#
#
#
# Elastic Compliance Matrix: (Units=1/GPa)
#
#
# Indices 1 2 3 4 5 6 
#
# 1 0.092496 -0.054761 -0.018636 0.000000 0.000000 0.000000
# 2 -0.054761 0.092496 -0.018636 0.000000 0.000000 0.000000
# 3 -0.018636 -0.018636 0.023475 0.000000 0.000000 0.000000
# 4 0.000000 0.000000 0.000000 0.010076 0.000000 0.000000
# 5 0.000000 0.000000 0.000000 0.000000 0.010076 0.000000
# 6 0.000000 0.000000 0.000000 0.000000 0.000000 0.038255
#
#
# Mechanical properties :
#
#
# Convention : Reuss Voigt Hill
#
# Bulk Modulus (GPa) = 40.98538 92.53519 66.76028
# Shear Modulus (GPa) = 10.89150 49.85963 30.37556
#
# Velocity S-wave (km/s) = 2.53195 5.41733 4.22837
# Velocity P-wave (km/s) = 5.71592 9.67452 7.94569
#
# Compressibility (1/GPa) = 0.02439894
#
# Stress axis : x y z
#
# Youngs Moduli (GPa) = 10.81131 10.81131 42.59866
#
# Poissons Ratio (x) = 0.59204 0.79388
# Poissons Ratio (y) = 0.59204 0.79388
# Poissons Ratio (z) = 0.20148 0.20148
#
# Static dielectric constant tensor:
#      x y z
#    x 1.563400 0.000000 0.000000 
#    y 0.000000 1.563400 0.000000 
#    z 0.000000 0.000000 1.546680 
# 
# From -- ./inp_files/4501.got.cif
#   From: 2010.05.17/outbox.cif.g08.bks.cpg/sg115_3_cif.got.tgz:4501.got - 2010.05.20 11:07:42.
