data_PCOD9557687
_publ_section_title
;
Structure prediction by ZEFSAII (Michael W. Deem and Ramdas Pophale) SiO2 
 PCOD9557687
Probable space group: P -4 C 2
;
_chemical_formula_sum "Si O2"
_cell_formula_units_Z 40
_cell_length_a 13.847274
_cell_length_b 13.847274
_cell_length_c 9.016671
_cell_angle_alpha 90.000000
_cell_angle_beta 90.000000
_cell_angle_gamma 90.000000
_cell_volume 1728.919589
_symmetry_space_group_name_H-M "P -4 C 2"
_symmetry_group_IT_number 116
_symmetry_cell_setting 'tetragonal'
loop_
_space_group_symop_operation_xyz
x,y,z
y,-x,-z
-x,-y,z
-y,x,-z
y,x,1/2-z
-y,-x,1/2-z
-x,y,1/2+z
x,-y,1/2+z
loop_
_atom_site_type_symbol
_atom_site_label
_atom_site_fract_x
_atom_site_fract_y
_atom_site_fract_z
Si Si1 0.441739 0.294321 0.754670
Si Si2 0.000000 0.500000 0.296767
Si Si3 0.666050 0.333951 0.750000
Si Si4 0.871741 0.465203 0.051156
Si Si5 0.183897 0.677210 0.498827
Si Si6 0.080878 0.123068 0.070458
O O1 0.400075 0.400075 0.750000
O O2 0.554370 0.307439 0.721317
O O3 0.437925 0.236239 0.908939
O O4 0.370377 0.234669 0.645885
O O5 0.064181 0.566047 0.190587
O O6 0.074978 0.441549 0.399636
O O7 0.729750 0.304271 0.611617
O O8 0.874871 0.582740 0.053911
O O9 0.123395 0.775649 0.507739
O O10 0.103900 0.103900 0.250000
O O11 0.966657 0.121830 0.028239
#
# Coordination Sequence:
#
# PCOD9557687 Si02
#       6
#     8   4   4   8   8   8
#     4  11  25  44  68 105 143 196 242 301 360 445
#     4  10  20  42  68  96 138 186 226 306 358 438
#     4  10  25  46  70  99 148 190 248 294 368 431
#     4  10  22  42  66 101 140 184 239 293 373 426
#     4  11  24  45  71 107 141 190 248 311 363 449
#     4  11  25  50  77 108 147 196 251 316 390 464
#
# _framework density 23.135838
#
# number of rings (size 3 to 8) (size 9 to 14) (size 15 to 20)
#    0.000    1.400    3.000    1.500    5.600    3.200 
#    7.200    0.000    0.000    0.000    0.000    0.000 
#    0.000    0.000    0.000    0.000    0.000    0.000 
#
# Total GULP energy -222906.579438 kJ/mol
# GULP energy per Si atom -5572.664486 kJ/mol
# Density = 2.308318 g / cm^3
# Si number density = 23.135838 Si / 1000 Ang^3
#
#
#
# Elastic Constant Matrix: (Units=GPa)
#
#
# Indices 1 2 3 4 5 6 
#
# 1 110.1056 58.9751 22.5062 0.0000 0.0000 0.0000
# 2 58.9751 110.1064 22.5072 0.0000 0.0000 0.0000
# 3 22.5062 22.5072 110.8585 0.0000 0.0000 0.0000
# 4 0.0000 0.0000 0.0000 29.3798 0.0000 0.0000
# 5 0.0000 0.0000 0.0000 0.0000 29.3798 0.0000
# 6 0.0000 0.0000 0.0000 0.0000 0.0000 44.5927
#
#
#
# Elastic Compliance Matrix: (Units=1/GPa)
#
#
# Indices 1 2 3 4 5 6 
#
# 1 0.012905 -0.006653 -0.001269 0.000000 0.000000 0.000000
# 2 -0.006653 0.012905 -0.001269 0.000000 0.000000 0.000000
# 3 -0.001269 -0.001269 0.009536 0.000000 0.000000 0.000000
# 4 0.000000 0.000000 0.000000 0.034037 0.000000 0.000000
# 5 0.000000 0.000000 0.000000 0.000000 0.034037 0.000000
# 6 0.000000 0.000000 0.000000 0.000000 0.000000 0.022425
#
#
# Mechanical properties :
#
#
# Convention : Reuss Voigt Hill
#
# Bulk Modulus (GPa) = 58.95169 59.89418 59.42294
# Shear Modulus (GPa) = 33.35956 35.80926 34.58441
#
# Velocity S-wave (km/s) = 3.80135 3.93846 3.87051
# Velocity P-wave (km/s) = 6.69351 6.82834 6.76126
#
# Compressibility (1/GPa) = 0.01696304
#
# Stress axis : x y z
#
# Youngs Moduli (GPa) = 77.48949 77.48981 104.86666
#
# Poissons Ratio (x) = 0.51552 0.13310
# Poissons Ratio (y) = 0.51551 0.13312
# Poissons Ratio (z) = 0.09835 0.09837
#
# Static dielectric constant tensor:
#      x y z
#    x 1.965700 0.000000 0.000000 
#    y 0.000000 1.965700 0.000000 
#    z 0.000000 0.000000 2.025140 
# 
# From -- ./inp_files/833.got.cif
#   From: 2010.05.17/outbox.cif.g08.bks.cpg/sg116_1_cif.got.tgz:833.got - 2010.05.20 11:11:43.
