data_PCOD9557915
_publ_section_title
;
Structure prediction by ZEFSAII (Michael W. Deem and Ramdas Pophale) SiO2 
 PCOD9557915
Probable space group: P -4 C 2
;
_chemical_formula_sum "Si O2"
_cell_formula_units_Z 48
_cell_length_a 11.292670
_cell_length_b 11.292670
_cell_length_c 20.835800
_cell_angle_alpha 90.000000
_cell_angle_beta 90.000000
_cell_angle_gamma 90.000000
_cell_volume 2657.072805
_symmetry_space_group_name_H-M "P -4 C 2"
_symmetry_group_IT_number 116
_symmetry_cell_setting 'tetragonal'
loop_
_space_group_symop_operation_xyz
x,y,z
y,-x,-z
-x,-y,z
-y,x,-z
y,x,1/2-z
-y,-x,1/2-z
-x,y,1/2+z
x,-y,1/2+z
loop_
_atom_site_type_symbol
_atom_site_label
_atom_site_fract_x
_atom_site_fract_y
_atom_site_fract_z
Si Si1 0.383100 0.441383 0.891129
Si Si2 0.730115 0.598664 0.495876
Si Si3 0.620194 0.056422 0.412671
Si Si4 0.234224 0.238468 0.826148
Si Si5 0.212362 0.852670 0.966198
Si Si6 0.138897 0.977358 0.096832
O O1 0.500000 0.500000 0.859553
O O2 0.301543 0.532754 0.930741
O O3 0.297468 0.360178 0.848302
O O4 0.438389 0.357543 0.946972
O O5 0.861311 0.588019 0.525804
O O6 0.712522 0.739224 0.486160
O O7 0.685962 0.137761 0.360730
O O8 0.500000 0.000000 0.387040
O O9 0.707830 0.953371 0.435262
O O10 0.231998 0.231998 0.750000
O O11 0.102487 0.211481 0.853406
O O12 0.107914 0.812712 0.918449
O O13 0.150594 0.904465 0.030156
O O14 0.000000 0.000000 0.112674
#
# Coordination Sequence:
#
# PCOD9557915 Si02
#       6
#     8   8   8   8   8   8
#     4  11  21  37  61  88 120 158 207 260 305 368
#     4  11  19  33  58  95 125 147 192 256 323 368
#     4  11  23  35  60  92 127 156 192 257 313 363
#     4  11  26  44  60  85 122 172 214 243 295 375
#     4  12  19  34  60 100 129 153 192 259 332 368
#     4  12  18  36  61  91 128 155 196 250 310 378
#
# _framework density 18.064992
#
# number of rings (size 3 to 8) (size 9 to 14) (size 15 to 20)
#    0.000    0.667   10.000    1.000    2.333    0.667 
#    0.000    1.667    0.000    0.000    0.000    0.000 
#    0.000    0.000    0.000    0.000    0.000    0.000 
#
# Total GULP energy -267849.012995 kJ/mol
# GULP energy per Si atom -5580.187771 kJ/mol
# Density = 1.802388 g / cm^3
# Si number density = 18.064992 Si / 1000 Ang^3
#
#
#
# Elastic Constant Matrix: (Units=GPa)
#
#
# Indices 1 2 3 4 5 6 
#
# 1 87.6902 39.7168 33.1371 0.0000 0.0000 0.0000
# 2 39.7168 87.6902 33.1371 0.0000 0.0000 0.0000
# 3 33.1371 33.1371 88.1406 0.0000 0.0000 0.0000
# 4 0.0000 0.0000 0.0000 14.1116 0.0000 0.0000
# 5 0.0000 0.0000 0.0000 0.0000 14.1116 0.0000
# 6 0.0000 0.0000 0.0000 0.0000 0.0000 37.4468
#
#
#
# Elastic Compliance Matrix: (Units=1/GPa)
#
#
# Indices 1 2 3 4 5 6 
#
# 1 0.015301 -0.005544 -0.003668 0.000000 0.000000 0.000000
# 2 -0.005544 0.015301 -0.003668 0.000000 0.000000 0.000000
# 3 -0.003668 -0.003668 0.014104 0.000000 0.000000 0.000000
# 4 0.000000 0.000000 0.000000 0.070864 0.000000 0.000000
# 5 0.000000 0.000000 0.000000 0.000000 0.070864 0.000000
# 6 0.000000 0.000000 0.000000 0.000000 0.000000 0.026705
#
#
# Mechanical properties :
#
#
# Convention : Reuss Voigt Hill
#
# Bulk Modulus (GPa) = 52.78487 52.83365 52.80926
# Shear Modulus (GPa) = 20.39045 23.63602 22.01324
#
# Velocity S-wave (km/s) = 3.36330 3.62109 3.49457
# Velocity P-wave (km/s) = 6.66072 6.84054 6.75123
#
# Compressibility (1/GPa) = 0.01894482
#
# Stress axis : x y z
#
# Youngs Moduli (GPa) = 65.35548 65.35548 70.90348
#
# Poissons Ratio (x) = 0.36233 0.26009
# Poissons Ratio (y) = 0.36233 0.26009
# Poissons Ratio (z) = 0.23974 0.23974
#
# Static dielectric constant tensor:
#      x y z
#    x 1.663580 0.000000 0.000000 
#    y 0.000000 1.663580 0.000000 
#    z 0.000000 0.000000 1.578070 
# 
# From -- ./inp_files/4062.got.cif
#   From: 2010.05.17/outbox.cif.g08.bks.cpg/sg116_3_cif.got.tgz:4062.got - 2010.05.20 11:11:43.
