data_PCOD9557240
_publ_section_title
;
Structure prediction by ZEFSAII (Michael W. Deem and Ramdas Pophale) SiO2 
 PCOD9557240
Probable space group: P -4 M 2
;
_chemical_formula_sum "Si O2"
_cell_formula_units_Z 40
_cell_length_a 9.293983
_cell_length_b 9.293983
_cell_length_c 26.501231
_cell_angle_alpha 90.000000
_cell_angle_beta 90.000000
_cell_angle_gamma 90.000000
_cell_volume 2289.126512
_symmetry_space_group_name_H-M "P -4 M 2"
_symmetry_group_IT_number 115
_symmetry_cell_setting 'tetragonal'
loop_
_space_group_symop_operation_xyz
x,y,z
y,-x,-z
-x,-y,z
-y,x,-z
y,x,-z
-y,-x,-z
-x,y,z
x,-y,z
loop_
_atom_site_type_symbol
_atom_site_label
_atom_site_fract_x
_atom_site_fract_y
_atom_site_fract_z
Si Si1 0.671453 0.671453 0.000000
Si Si2 0.329411 0.328651 0.797608
Si Si3 0.324745 0.834388 0.898817
Si Si4 0.170590 0.671363 0.396736
Si Si5 0.328422 0.170449 0.305699
Si Si6 0.329478 0.670523 0.500000
O O1 0.752769 0.720494 0.050382
O O2 0.693779 0.500000 0.993514
O O3 0.500000 0.301049 0.789893
O O4 0.312525 0.500000 0.805653
O O5 0.280241 0.245569 0.847617
O O6 0.243329 0.287530 0.747456
O O7 0.500000 0.830727 0.898895
O O8 0.279316 0.000000 0.899065
O O9 0.195921 0.500000 0.389683
O O10 0.244062 0.756779 0.351415
O O11 0.241471 0.711711 0.450264
O O12 0.000000 0.695778 0.397782
O O13 0.500000 0.194556 0.312582
O O14 0.303069 0.000000 0.304145
O O15 0.500000 0.692632 0.490725
#
# Coordination Sequence:
#
# PCOD9557240 Si02
#       6
#     4   8   8   8   8   4
#     4   9  16  28  48  71  94 122 158 199 242 290
#     4   9  17  31  52  75  98 127 165 208 252 298
#     4   9  17  29  47  72  98 124 159 203 247 291
#     4  10  21  36  55  80 108 138 173 212 255 304
#     4  10  21  36  54  77 105 137 173 213 257 305
#     4   9  18  34  56  79 104 136 174 215 256 299
#
# _framework density 17.473914000000001
#
# number of rings (size 3 to 8) (size 9 to 14) (size 15 to 20)
#    0.000    2.600    0.000    1.800    0.000    6.400 
#    0.000    5.000    0.000    6.300    0.000    0.000 
#    0.000    0.000    0.000    0.000    0.000    0.000 
#
# Total GULP energy -223164.746873 kJ/mol
# GULP energy per Si atom -5579.118672 kJ/mol
# Density = 1.743414 g / cm^3
# Si number density = 17.473914 Si / 1000 Ang^3
#
#
#
# Elastic Constant Matrix: (Units=GPa)
#
#
# Indices 1 2 3 4 5 6 
#
# 1 61.0187 56.9991 95.5646 0.0000 0.0000 0.0000
# 2 56.9991 61.0184 95.5647 0.0000 0.0000 0.0000
# 3 95.5646 95.5647 226.2587 0.0000 0.0000 0.0000
# 4 0.0000 0.0000 0.0000 -7.7422 0.0000 0.0000
# 5 0.0000 0.0000 0.0000 0.0000 -7.7426 0.0000
# 6 0.0000 0.0000 0.0000 0.0000 0.0000 16.1882
#
#
#
# Elastic Compliance Matrix: (Units=1/GPa)
#
#
# Indices 1 2 3 4 5 6 
#
# 1 0.137803 -0.110987 -0.011326 0.000000 0.000000 0.000000
# 2 -0.110987 0.137805 -0.011327 0.000000 0.000000 0.000000
# 3 -0.011326 -0.011327 0.013988 0.000000 0.000000 0.000000
# 4 0.000000 0.000000 0.000000 -0.129162 0.000000 0.000000
# 5 0.000000 0.000000 0.000000 0.000000 -0.129155 0.000000
# 6 0.000000 0.000000 0.000000 0.000000 0.000000 0.061773
#
#
# Mechanical properties :
#
#
# Convention : Reuss Voigt Hill
#
# Bulk Modulus (GPa) = 44.81345 93.83916 69.32631
# Shear Modulus (GPa) = 13.59543 6.81849 10.20696
#
# Velocity S-wave (km/s) = 2.79237 1.97752 2.41949
# Velocity P-wave (km/s) = 6.00816 7.68330 6.89678
#
# Compressibility (1/GPa) = 0.02231473
#
# Stress axis : x y z
#
# Youngs Moduli (GPa) = 7.25675 7.25663 71.49204
#
# Poissons Ratio (x) = 0.80539 0.80971
# Poissons Ratio (y) = 0.80541 0.80979
# Poissons Ratio (z) = 0.08219 0.08220
#
# Static dielectric constant tensor:
#      x y z
#    x 1.578810 0.000000 0.000000 
#    y 0.000000 1.578810 0.000000 
#    z 0.000000 0.000000 1.565390 
# 
# From -- ./inp_files/5567.got.cif
#   From: 2010.05.17/outbox.cif.g08.bks.cpg/sg115_3_cif.got.tgz:5567.got - 2010.05.20 11:07:42.
