data_PCOD9557214
_publ_section_title
;
Structure prediction by ZEFSAII (Michael W. Deem and Ramdas Pophale) SiO2 
 PCOD9557214
Probable space group: P -4 M 2
;
_chemical_formula_sum "Si O2"
_cell_formula_units_Z 44
_cell_length_a 9.120850
_cell_length_b 9.120850
_cell_length_c 29.749215
_cell_angle_alpha 90.000000
_cell_angle_beta 90.000000
_cell_angle_gamma 90.000000
_cell_volume 2474.834361
_symmetry_space_group_name_H-M "P -4 M 2"
_symmetry_group_IT_number 115
_symmetry_cell_setting 'tetragonal'
loop_
_space_group_symop_operation_xyz
x,y,z
y,-x,-z
-x,-y,z
-y,x,-z
y,x,-z
-y,-x,-z
-x,y,z
x,-y,z
loop_
_atom_site_type_symbol
_atom_site_label
_atom_site_fract_x
_atom_site_fract_y
_atom_site_fract_z
Si Si1 0.325908 0.325908 0.500000
Si Si2 0.328177 0.824382 0.677929
Si Si3 0.671430 0.178314 0.139688
Si Si4 0.827505 0.676826 0.958163
Si Si5 0.173475 0.824463 0.584762
Si Si6 0.173164 0.322855 0.761946
O O1 0.299953 0.500000 0.498341
O O2 0.257785 0.250820 0.456047
O O3 0.500000 0.791228 0.673036
O O4 0.243059 0.781268 0.632555
O O5 0.261931 0.746425 0.721388
O O6 0.311717 0.000000 0.683020
O O7 0.500000 0.220808 0.139825
O O8 0.732214 0.225080 0.091181
O O9 0.731636 0.223008 0.188379
O O10 0.674615 0.000000 0.139445
O O11 0.815366 0.500000 0.958043
O O12 0.000000 0.712488 0.962397
O O13 0.742129 0.742129 0.000000
O O14 0.000000 0.795901 0.584670
O O15 0.195115 0.000000 0.579301
O O16 0.186246 0.500000 0.761346
O O17 0.000000 0.288823 0.756931
#
# Coordination Sequence:
#
# PCOD9557214 Si02
#       6
#     4   8   8   8   8   8
#     4  11  24  39  56  82 114 143 170 205 252 300
#     4  10  21  36  53  75 106 141 171 203 249 300
#     4   7  12  26  47  68  91 122 161 203 245 292
#     4   9  17  30  48  69  94 125 161 202 248 297
#     4  10  21  38  60  82 103 134 177 216 249 292
#     4   9  17  31  53  77  97 123 165 212 253 296
#
# _framework density 17.778967000000002
#
# number of rings (size 3 to 8) (size 9 to 14) (size 15 to 20)
#    0.000    2.818    0.000    3.818    0.000    5.455 
#    0.000    1.818    0.000    8.727    0.000    0.000 
#    0.000    0.000    0.000    0.000    0.000    0.000 
#
# Total GULP energy -245201.279003 kJ/mol
# GULP energy per Si atom -5572.756341 kJ/mol
# Density = 1.773850 g / cm^3
# Si number density = 17.778967 Si / 1000 Ang^3
#
#
#
# Elastic Constant Matrix: (Units=GPa)
#
#
# Indices 1 2 3 4 5 6 
#
# 1 43.4015 44.8431 68.6458 0.0000 0.0000 0.0000
# 2 44.8431 43.4015 68.6458 0.0000 0.0000 0.0000
# 3 68.6458 68.6458 215.8030 0.0000 0.0000 0.0000
# 4 0.0000 0.0000 0.0000 36.3105 0.0000 0.0000
# 5 0.0000 0.0000 0.0000 0.0000 36.3105 0.0000
# 6 0.0000 0.0000 0.0000 0.0000 0.0000 25.5677
#
#
#
# Elastic Compliance Matrix: (Units=1/GPa)
#
#
# Indices 1 2 3 4 5 6 
#
# 1 -0.335627 0.358062 -0.007136 0.000000 0.000000 0.000000
# 2 0.358062 -0.335627 -0.007136 0.000000 0.000000 0.000000
# 3 -0.007136 -0.007136 0.009174 0.000000 0.000000 0.000000
# 4 0.000000 0.000000 0.000000 0.027540 0.000000 0.000000
# 5 0.000000 0.000000 0.000000 0.000000 0.027540 0.000000
# 6 0.000000 0.000000 0.000000 0.000000 0.000000 0.039112
#
#
# Mechanical properties :
#
#
# Convention : Reuss Voigt Hill
#
# Bulk Modulus (GPa) = 39.21830 74.09725 56.65778
# Shear Modulus (GPa) = -4.00974 27.66915 11.82971
#
# Velocity S-wave (km/s) = -1.50340 3.94926 2.58229
# Velocity P-wave (km/s) = 4.36956 7.90967 6.38968
#
# Compressibility (1/GPa) = 0.02549830
#
# Stress axis : x y z
#
# Youngs Moduli (GPa) = -2.97950 -2.97950 109.00354
#
# Poissons Ratio (x) = 1.06685 0.77790
# Poissons Ratio (y) = 1.06685 0.77790
# Poissons Ratio (z) = -0.02126 -0.02126
#
# Static dielectric constant tensor:
#      x y z
#    x 1.593560 0.000000 0.000000 
#    y 0.000000 1.593560 0.000000 
#    z 0.000000 0.000000 1.621280 
# 
# From -- ./inp_files/5745.got.cif
#   From: 2010.05.17/outbox.cif.g08.bks.cpg/sg115_3_cif.got.tgz:5745.got - 2010.05.20 11:07:42.
