data_PCOD9557691
_publ_section_title
;
Structure prediction by ZEFSAII (Michael W. Deem and Ramdas Pophale) SiO2 
 PCOD9557691
Probable space group: P -4 C 2
;
_chemical_formula_sum "Si O2"
_cell_formula_units_Z 64
_cell_length_a 19.642668
_cell_length_b 19.642668
_cell_length_c 9.704044
_cell_angle_alpha 90.000000
_cell_angle_beta 90.000000
_cell_angle_gamma 90.000000
_cell_volume 3744.154054
_symmetry_space_group_name_H-M "P -4 C 2"
_symmetry_group_IT_number 116
_symmetry_cell_setting 'tetragonal'
loop_
_space_group_symop_operation_xyz
x,y,z
y,-x,-z
-x,-y,z
-y,x,-z
y,x,1/2-z
-y,-x,1/2-z
-x,y,1/2+z
x,-y,1/2+z
loop_
_atom_site_type_symbol
_atom_site_label
_atom_site_fract_x
_atom_site_fract_y
_atom_site_fract_z
Si Si1 0.248025 0.959127 0.124325
Si Si2 0.206921 0.808643 0.099015
Si Si3 0.661259 0.990525 0.872974
Si Si4 0.795925 0.889945 0.122568
Si Si5 0.203832 0.705904 0.674085
Si Si6 0.878278 0.574116 0.200189
Si Si7 0.932593 0.937355 0.409160
Si Si8 0.073995 0.534161 0.983798
O O1 0.204477 0.890519 0.123691
O O2 0.302446 0.953415 0.246965
O O3 0.210236 0.030401 0.152148
O O4 0.286615 0.974820 0.980856
O O5 0.220914 0.779087 0.250000
O O6 0.139164 0.776450 0.028421
O O7 0.263479 0.798017 0.979989
O O8 0.608026 0.943064 0.953236
O O9 0.618021 0.052238 0.809402
O O10 0.749266 0.850531 0.232080
O O11 0.877321 0.878239 0.109822
O O12 0.274059 0.725942 0.750000
O O13 0.181620 0.627958 0.676127
O O14 0.888234 0.514809 0.090231
O O15 0.880023 0.542317 0.350500
O O16 0.951808 0.951808 0.250000
O O17 0.994598 0.911669 0.508364
O O18 0.000000 0.500000 0.950007
#
# Coordination Sequence:
#
# PCOD9557691 Si02
#       8
#     8   8   8   8   8   8   8   8
#     4  12  21  35  55  72  97 130 170 223 283 345
#     4  11  23  34  50  73  93 121 174 230 277 334
#     4  11  20  33  52  76 101 133 166 209 278 329
#     4  11  22  38  52  68  90 127 167 218 285 347
#     4  10  21  39  55  71 105 144 180 211 256 319
#     4  11  20  36  53  80 109 141 169 212 259 315
#     4  11  23  38  52  65  82 107 150 216 295 358
#     4  10  21  32  53  82 113 139 172 214 271 328
#
# _framework density 17.093315
#
# number of rings (size 3 to 8) (size 9 to 14) (size 15 to 20)
#    0.000    1.125    3.750    4.500    1.750    4.000 
#    0.000    0.000    0.000    0.000    0.000    0.000 
#    0.000    0.000    0.000    0.000    0.000    1.875 
#
# Total GULP energy -356980.886566 kJ/mol
# GULP energy per Si atom -5577.826353 kJ/mol
# Density = 1.705441 g / cm^3
# Si number density = 17.093315 Si / 1000 Ang^3
#
#
#
# Elastic Constant Matrix: (Units=GPa)
#
#
# Indices 1 2 3 4 5 6 
#
# 1 34.2306 10.7453 19.1738 0.0000 0.0000 0.0000
# 2 10.7453 34.2314 19.1742 0.0000 0.0000 0.0000
# 3 19.1738 19.1742 130.3810 0.0000 0.0000 0.0000
# 4 0.0000 0.0000 0.0000 19.7106 0.0000 0.0000
# 5 0.0000 0.0000 0.0000 0.0000 19.7103 0.0000
# 6 0.0000 0.0000 0.0000 0.0000 0.0000 11.3855
#
#
#
# Elastic Compliance Matrix: (Units=1/GPa)
#
#
# Indices 1 2 3 4 5 6 
#
# 1 0.034001 -0.008579 -0.003739 0.000000 0.000000 0.000000
# 2 -0.008579 0.034000 -0.003739 0.000000 0.000000 0.000000
# 3 -0.003739 -0.003739 0.008769 0.000000 0.000000 0.000000
# 4 0.000000 0.000000 0.000000 0.050734 0.000000 0.000000
# 5 0.000000 0.000000 0.000000 0.000000 0.050735 0.000000
# 6 0.000000 0.000000 0.000000 0.000000 0.000000 0.087831
#
#
# Mechanical properties :
#
#
# Convention : Reuss Voigt Hill
#
# Bulk Modulus (GPa) = 22.39225 33.00328 27.69776
# Shear Modulus (GPa) = 15.97097 20.14459 18.05778
#
# Velocity S-wave (km/s) = 3.06001 3.43666 3.25379
# Velocity P-wave (km/s) = 5.06096 5.92429 5.50956
#
# Compressibility (1/GPa) = 0.04465831
#
# Stress axis : x y z
#
# Youngs Moduli (GPa) = 29.41114 29.41178 114.03274
#
# Poissons Ratio (x) = 0.25232 0.42631
# Poissons Ratio (y) = 0.25231 0.42631
# Poissons Ratio (z) = 0.10995 0.10996
#
# Static dielectric constant tensor:
#      x y z
#    x 1.612620 0.000000 0.000000 
#    y 0.000000 1.612620 0.000000 
#    z 0.000000 0.000000 1.654680 
# 
# From -- ./inp_files/1134.got.cif
#   From: 2010.05.17/outbox.cif.g08.bks.cpg/sg116_1_cif.got.tgz:1134.got - 2010.05.20 11:11:43.
