data_PCOD9557677
_publ_section_title
;
Structure prediction by ZEFSAII (Michael W. Deem and Ramdas Pophale) SiO2 
 PCOD9557677
Probable space group: P -4 C 2
;
_chemical_formula_sum "Si O2"
_cell_formula_units_Z 42
_cell_length_a 10.905982
_cell_length_b 10.905982
_cell_length_c 18.551174
_cell_angle_alpha 90.000000
_cell_angle_beta 90.000000
_cell_angle_gamma 90.000000
_cell_volume 2206.484861
_symmetry_space_group_name_H-M "P -4 C 2"
_symmetry_group_IT_number 116
_symmetry_cell_setting 'tetragonal'
loop_
_space_group_symop_operation_xyz
x,y,z
y,-x,-z
-x,-y,z
-y,x,-z
y,x,1/2-z
-y,-x,1/2-z
-x,y,1/2+z
x,-y,1/2+z
loop_
_atom_site_type_symbol
_atom_site_label
_atom_site_fract_x
_atom_site_fract_y
_atom_site_fract_z
Si Si1 0.552467 0.752736 0.330293
Si Si2 0.931034 0.872388 0.390825
Si Si3 0.500000 0.500000 0.250000
Si Si4 0.279690 0.910958 0.008527
Si Si5 0.210913 0.210913 0.250000
Si Si6 0.000000 0.500000 0.091068
Si Si7 0.611236 0.666961 0.483785
O O1 0.496451 0.626697 0.297068
O O2 0.646924 0.803056 0.271202
O O3 0.626409 0.702296 0.400161
O O4 0.484266 0.874481 0.361733
O O5 0.834001 0.896626 0.454415
O O6 0.865942 0.829033 0.318742
O O7 0.018603 0.767137 0.421967
O O8 0.000000 0.000000 0.378175
O O9 0.384723 0.977864 0.961808
O O10 0.327382 0.775689 0.027825
O O11 0.662849 0.534058 0.501598
#
# Coordination Sequence:
#
# PCOD9557677 Si02
#       7
#     8   8   2   8   4   4   8
#     4  10  22  40  63  92 139 175 220 273 343 398
#     4  12  23  43  66  94 127 175 220 275 331 396
#     4  10  20  40  64  92 130 194 218 274 336 426
#     4  11  23  39  69  93 128 167 225 272 327 390
#     4  11  23  43  63  90 136 176 213 277 345 393
#     4  10  22  42  66  94 132 178 214 292 326 390
#     4  10  21  39  66  98 128 168 219 275 325 385
#
# _framework density 19.034801000000002
#
# number of rings (size 3 to 8) (size 9 to 14) (size 15 to 20)
#    0.000    1.333    5.714    1.429    5.333    0.000 
#    0.000    8.571    0.000    0.000    0.000    0.000 
#    0.000    0.000    0.000    0.000    0.000    0.000 
#
# Total GULP energy -234272.449932 kJ/mol
# GULP energy per Si atom -5577.915475 kJ/mol
# Density = 1.899148 g / cm^3
# Si number density = 19.034801 Si / 1000 Ang^3
#
#
#
# Elastic Constant Matrix: (Units=GPa)
#
#
# Indices 1 2 3 4 5 6 
#
# 1 97.7699 46.5517 23.7756 0.0000 0.0000 0.0000
# 2 46.5517 97.7699 23.7756 0.0000 0.0000 0.0000
# 3 23.7756 23.7756 52.1684 0.0000 0.0000 0.0000
# 4 0.0000 0.0000 0.0000 30.7189 0.0000 0.0000
# 5 0.0000 0.0000 0.0000 0.0000 30.7189 0.0000
# 6 0.0000 0.0000 0.0000 0.0000 0.0000 35.0531
#
#
#
# Elastic Compliance Matrix: (Units=1/GPa)
#
#
# Indices 1 2 3 4 5 6 
#
# 1 0.013839 -0.005686 -0.003716 0.000000 0.000000 0.000000
# 2 -0.005686 0.013839 -0.003716 0.000000 0.000000 0.000000
# 3 -0.003716 -0.003716 0.022556 0.000000 0.000000 0.000000
# 4 0.000000 0.000000 0.000000 0.032553 0.000000 0.000000
# 5 0.000000 0.000000 0.000000 0.000000 0.032553 0.000000
# 6 0.000000 0.000000 0.000000 0.000000 0.000000 0.028528
#
#
# Mechanical properties :
#
#
# Convention : Reuss Voigt Hill
#
# Bulk Modulus (GPa) = 41.66864 48.43490 45.05177
# Shear Modulus (GPa) = 28.07382 29.53853 28.80617
#
# Velocity S-wave (km/s) = 3.84457 3.94358 3.89439
# Velocity P-wave (km/s) = 6.45336 6.79974 6.62882
#
# Compressibility (1/GPa) = 0.02399886
#
# Stress axis : x y z
#
# Youngs Moduli (GPa) = 72.26069 72.26069 44.33481
#
# Poissons Ratio (x) = 0.41084 0.16474
# Poissons Ratio (y) = 0.41084 0.16474
# Poissons Ratio (z) = 0.26851 0.26851
#
# Static dielectric constant tensor:
#      x y z
#    x 1.692330 0.000000 0.000000 
#    y 0.000000 1.692330 0.000000 
#    z 0.000000 0.000000 1.644860 
# 
# From -- ./inp_files/3346.got.cif
#   From: 2010.05.17/outbox.cif.g08.bks.cpg/sg116_2_cif.got.tgz:3346.got - 2010.05.20 11:11:43.
