data_PCOD9557525
_publ_section_title
;
Structure prediction by ZEFSAII (Michael W. Deem and Ramdas Pophale) SiO2 
 PCOD9557525
Probable space group: P -4 C 2
;
_chemical_formula_sum "Si O2"
_cell_formula_units_Z 48
_cell_length_a 18.399871
_cell_length_b 18.399871
_cell_length_c 7.926747
_cell_angle_alpha 90.000000
_cell_angle_beta 90.000000
_cell_angle_gamma 90.000000
_cell_volume 2683.641835
_symmetry_space_group_name_H-M "P -4 C 2"
_symmetry_group_IT_number 116
_symmetry_cell_setting 'tetragonal'
loop_
_space_group_symop_operation_xyz
x,y,z
y,-x,-z
-x,-y,z
-y,x,-z
y,x,1/2-z
-y,-x,1/2-z
-x,y,1/2+z
x,-y,1/2+z
loop_
_atom_site_type_symbol
_atom_site_label
_atom_site_fract_x
_atom_site_fract_y
_atom_site_fract_z
Si Si1 0.402678 0.703206 0.683077
Si Si2 0.355203 0.454534 0.680703
Si Si3 0.880556 0.399582 0.507965
Si Si4 0.571082 0.154008 0.502780
Si Si5 0.016328 0.414103 0.687501
Si Si6 0.352560 0.240195 0.697055
O O1 0.325704 0.674297 0.750000
O O2 0.423435 0.666148 0.502602
O O3 0.463307 0.670321 0.806524
O O4 0.411662 0.790111 0.655160
O O5 0.435146 0.435146 0.750000
O O6 0.305276 0.410214 0.814923
O O7 0.852048 0.483321 0.513617
O O8 0.934855 0.394300 0.346779
O O9 0.811104 0.351016 0.464869
O O10 0.936658 0.381100 0.656527
O O11 0.594966 0.070568 0.473781
O O12 0.611338 0.193939 0.347779
O O13 0.000000 0.500000 0.700111
O O14 0.277237 0.277237 0.750000
#
# Coordination Sequence:
#
# PCOD9557525 Si02
#       6
#     8   8   8   8   8   8
#     4  11  21  34  49  65  84 117 156 201 258 305
#     4  10  20  35  48  65  83 111 154 206 255 300
#     4  10  17  32  49  73  99 123 156 200 244 294
#     4   9  18  31  46  68  93 122 156 203 249 295
#     4   9  17  28  47  72  97 119 151 189 245 295
#     4   9  18  32  49  68  95 129 166 203 251 304
#
# _framework density 17.886143000000001
#
# number of rings (size 3 to 8) (size 9 to 14) (size 15 to 20)
#    0.000    2.333    1.667    2.500    0.000    0.333 
#    0.000    1.667    0.000    0.000    0.000    0.000 
#    0.000    0.000    0.000    0.000    0.000   54.167 
#
# Total GULP energy -267474.842212 kJ/mol
# GULP energy per Si atom -5572.392546 kJ/mol
# Density = 1.784543 g / cm^3
# Si number density = 17.886143 Si / 1000 Ang^3
#
#
#
# Elastic Constant Matrix: (Units=GPa)
#
#
# Indices 1 2 3 4 5 6 
#
# 1 55.9755 19.2845 7.9605 0.0000 0.0000 0.0000
# 2 19.2845 55.9745 7.9605 0.0000 0.0000 0.0000
# 3 7.9605 7.9605 73.6890 0.0000 0.0000 0.0000
# 4 0.0000 0.0000 0.0000 25.4242 0.0000 0.0000
# 5 0.0000 0.0000 0.0000 0.0000 25.4246 0.0000
# 6 0.0000 0.0000 0.0000 0.0000 0.0000 14.4987
#
#
#
# Elastic Compliance Matrix: (Units=1/GPa)
#
#
# Indices 1 2 3 4 5 6 
#
# 1 0.020426 -0.006828 -0.001469 0.000000 0.000000 0.000000
# 2 -0.006828 0.020427 -0.001469 0.000000 0.000000 0.000000
# 3 -0.001469 -0.001469 0.013888 0.000000 0.000000 0.000000
# 4 0.000000 0.000000 0.000000 0.039333 0.000000 0.000000
# 5 0.000000 0.000000 0.000000 0.000000 0.039332 0.000000
# 6 0.000000 0.000000 0.000000 0.000000 0.000000 0.068972
#
#
# Mechanical properties :
#
#
# Convention : Reuss Voigt Hill
#
# Bulk Modulus (GPa) = 28.40242 28.44998 28.42620
# Shear Modulus (GPa) = 21.39989 23.09841 22.24915
#
# Velocity S-wave (km/s) = 3.46273 3.59752 3.53077
# Velocity P-wave (km/s) = 5.64813 5.76168 5.70518
#
# Compressibility (1/GPa) = 0.03520826
#
# Stress axis : x y z
#
# Youngs Moduli (GPa) = 48.95633 48.95538 72.00494
#
# Poissons Ratio (x) = 0.33429 0.10577
# Poissons Ratio (y) = 0.33430 0.10578
# Poissons Ratio (z) = 0.07191 0.07192
#
# Static dielectric constant tensor:
#      x y z
#    x 1.728890 0.000000 0.000000 
#    y 0.000000 1.728890 0.000000 
#    z 0.000000 0.000000 1.897250 
# 
# From -- ./inp_files/956.got.cif
#   From: 2010.05.17/outbox.cif.g08.bks.cpg/sg116_1_cif.got.tgz:956.got - 2010.05.20 11:11:43.
