data_PCOD9557780
_publ_section_title
;
Structure prediction by ZEFSAII (Michael W. Deem and Ramdas Pophale) SiO2 
 PCOD9557780
Probable space group: P -4 C 2
;
_chemical_formula_sum "Si O2"
_cell_formula_units_Z 34
_cell_length_a 8.816278
_cell_length_b 8.816278
_cell_length_c 17.940709
_cell_angle_alpha 90.000000
_cell_angle_beta 90.000000
_cell_angle_gamma 90.000000
_cell_volume 1394.473143
_symmetry_space_group_name_H-M "P -4 C 2"
_symmetry_group_IT_number 116
_symmetry_cell_setting 'tetragonal'
loop_
_space_group_symop_operation_xyz
x,y,z
y,-x,-z
-x,-y,z
-y,x,-z
y,x,1/2-z
-y,-x,1/2-z
-x,y,1/2+z
x,-y,1/2+z
loop_
_atom_site_type_symbol
_atom_site_label
_atom_site_fract_x
_atom_site_fract_y
_atom_site_fract_z
Si Si1 0.336013 0.062315 0.317385
Si Si2 0.500000 0.500000 0.750000
Si Si3 0.213595 0.042681 0.461455
Si Si4 0.212563 0.391972 0.329843
Si Si5 0.741324 0.537475 0.983715
O O1 0.219347 0.983875 0.375625
O O2 0.305624 0.236384 0.339201
O O3 0.341178 0.077071 0.226462
O O4 0.500000 0.000000 0.335202
O O5 0.498859 0.661244 0.708361
O O6 0.371644 0.123186 0.478393
O O7 0.085401 0.168366 0.479048
O O8 0.189595 0.469760 0.408206
O O9 0.658799 0.397873 0.026829
#
# Coordination Sequence:
#
# PCOD9557780 Si02
#       5
#     8   2   8   8   8
#     4  10  23  41  68 101 146 195 240 304 376 447
#     4   8  16  32  54  80 140 164 210 288 368 392
#     4  11  27  46  68 102 148 194 249 305 370 457
#     4  10  22  38  63 105 145 181 240 309 371 448
#     4  11  23  39  71 109 140 186 248 320 370 439
#
# _framework density 24.381969000000002
#
# number of rings (size 3 to 8) (size 9 to 14) (size 15 to 20)
#    0.000    1.882    2.353    1.412    6.588    3.765 
#    0.000    0.000    0.000   22.588    0.000    0.000 
#    0.000    0.000    0.000    0.000    0.000    0.000 
#
# Total GULP energy -189379.259467 kJ/mol
# GULP energy per Si atom -5569.978220 kJ/mol
# Density = 2.432647 g / cm^3
# Si number density = 24.381969 Si / 1000 Ang^3
#
#
#
# Elastic Constant Matrix: (Units=GPa)
#
#
# Indices 1 2 3 4 5 6 
#
# 1 64.1878 27.0045 29.6277 0.0000 0.0000 0.0000
# 2 27.0045 64.1878 29.6277 0.0000 0.0000 0.0000
# 3 29.6277 29.6277 166.8538 0.0000 0.0000 0.0000
# 4 0.0000 0.0000 0.0000 15.7011 0.0000 0.0000
# 5 0.0000 0.0000 0.0000 0.0000 15.7011 0.0000
# 6 0.0000 0.0000 0.0000 0.0000 0.0000 50.7862
#
#
#
# Elastic Compliance Matrix: (Units=1/GPa)
#
#
# Indices 1 2 3 4 5 6 
#
# 1 0.019645 -0.007249 -0.002201 0.000000 0.000000 0.000000
# 2 -0.007249 0.019645 -0.002201 0.000000 0.000000 0.000000
# 3 -0.002201 -0.002201 0.006775 0.000000 0.000000 0.000000
# 4 0.000000 0.000000 0.000000 0.063690 0.000000 0.000000
# 5 0.000000 0.000000 0.000000 0.000000 0.063690 0.000000
# 6 0.000000 0.000000 0.000000 0.000000 0.000000 0.019690
#
#
# Mechanical properties :
#
#
# Convention : Reuss Voigt Hill
#
# Bulk Modulus (GPa) = 43.93165 51.97212 47.95189
# Shear Modulus (GPa) = 22.31894 30.36897 26.34395
#
# Velocity S-wave (km/s) = 3.02882 3.53306 3.29061
# Velocity P-wave (km/s) = 5.50353 6.16486 5.84356
#
# Compressibility (1/GPa) = 0.02276263
#
# Stress axis : x y z
#
# Youngs Moduli (GPa) = 50.90369 50.90369 147.60219
#
# Poissons Ratio (x) = 0.36899 0.32489
# Poissons Ratio (y) = 0.36899 0.32489
# Poissons Ratio (z) = 0.11205 0.11205
#
# Static dielectric constant tensor:
#      x y z
#    x 2.128460 0.000000 0.000000 
#    y 0.000000 2.128460 0.000000 
#    z 0.000000 0.000000 2.194420 
# 
# From -- ./inp_files/3922.got.cif
#   From: 2010.05.17/outbox.cif.g08.bks.cpg/sg116_2_cif.got.tgz:3922.got - 2010.05.20 11:11:43.
