data_PCOD9557977
_publ_section_title
;
Structure prediction by ZEFSAII (Michael W. Deem and Ramdas Pophale) SiO2 
 PCOD9557977
Probable space group: P -4 C 2
;
_chemical_formula_sum "Si O2"
_cell_formula_units_Z 40
_cell_length_a 13.756292
_cell_length_b 13.756292
_cell_length_c 9.471702
_cell_angle_alpha 90.000000
_cell_angle_beta 90.000000
_cell_angle_gamma 90.000000
_cell_volume 1792.382923
_symmetry_space_group_name_H-M "P -4 C 2"
_symmetry_group_IT_number 116
_symmetry_cell_setting 'tetragonal'
loop_
_space_group_symop_operation_xyz
x,y,z
y,-x,-z
-x,-y,z
-y,x,-z
y,x,1/2-z
-y,-x,1/2-z
-x,y,1/2+z
x,-y,1/2+z
loop_
_atom_site_type_symbol
_atom_site_label
_atom_site_fract_x
_atom_site_fract_y
_atom_site_fract_z
Si Si1 0.596890 0.257684 0.171544
Si Si2 0.722761 0.057586 0.500951
Si Si3 0.214526 0.144682 0.393274
Si Si4 0.403141 0.724921 0.851231
Si Si5 0.042058 0.607135 0.271524
O O1 0.677688 0.322313 0.250000
O O2 0.502397 0.249319 0.271850
O O3 0.624374 0.144778 0.151977
O O4 0.577291 0.300797 0.015293
O O5 0.782690 0.156728 0.501924
O O6 0.634541 0.060476 0.390306
O O7 0.783066 0.963483 0.452787
O O8 0.678981 0.033259 0.653309
O O9 0.152509 0.152509 0.250000
O O10 0.320282 0.191490 0.360858
O O11 0.356613 0.643388 0.750000
O O12 0.000000 0.500000 0.285666
#
# Coordination Sequence:
#
# PCOD9557977 Si02
#       5
#     8   8   8   8   8
#     4  12  26  46  74 111 147 203 252 314 387 468
#     4  12  25  46  73 104 149 201 250 315 388 453
#     4  11  24  47  72 106 149 197 248 316 381 457
#     4  11  25  46  75 106 152 193 246 312 383 452
#     4  12  27  43  71 110 148 194 259 317 387 458
#
# _framework density 22.316658
#
# number of rings (size 3 to 8) (size 9 to 14) (size 15 to 20)
#    0.000    0.400    4.000    4.200    5.600    0.800 
#    0.000    3.000    0.000    0.000    0.000    0.000 
#    0.000    0.000    0.000    0.000    0.000    0.000 
#
# Total GULP energy -223721.244869 kJ/mol
# GULP energy per Si atom -5593.031122 kJ/mol
# Density = 2.226586 g / cm^3
# Si number density = 22.316658 Si / 1000 Ang^3
#
#
#
# Elastic Constant Matrix: (Units=GPa)
#
#
# Indices 1 2 3 4 5 6 
#
# 1 108.1849 64.3300 32.0912 0.0000 0.0000 0.0000
# 2 64.3300 108.1865 32.0927 0.0000 0.0000 0.0000
# 3 32.0912 32.0927 136.1736 0.0000 0.0000 0.0000
# 4 0.0000 0.0000 0.0000 36.6268 0.0000 0.0000
# 5 0.0000 0.0000 0.0000 0.0000 36.6264 0.0000
# 6 0.0000 0.0000 0.0000 0.0000 0.0000 31.8438
#
#
#
# Elastic Compliance Matrix: (Units=1/GPa)
#
#
# Indices 1 2 3 4 5 6 
#
# 1 0.014578 -0.008224 -0.001497 0.000000 0.000000 0.000000
# 2 -0.008224 0.014578 -0.001497 0.000000 0.000000 0.000000
# 3 -0.001497 -0.001497 0.008049 0.000000 0.000000 0.000000
# 4 0.000000 0.000000 0.000000 0.027302 0.000000 0.000000
# 5 0.000000 0.000000 0.000000 0.000000 0.027303 0.000000
# 6 0.000000 0.000000 0.000000 0.000000 0.000000 0.031403
#
#
# Mechanical properties :
#
#
# Convention : Reuss Voigt Hill
#
# Bulk Modulus (GPa) = 67.71763 67.73031 67.72397
# Shear Modulus (GPa) = 33.20634 35.95482 34.58058
#
# Velocity S-wave (km/s) = 3.86160 4.01823 3.94069
# Velocity P-wave (km/s) = 7.09171 7.20720 7.14969
#
# Compressibility (1/GPa) = 0.01476720
#
# Stress axis : x y z
#
# Youngs Moduli (GPa) = 68.59688 68.59750 124.23393
#
# Poissons Ratio (x) = 0.56416 0.18601
# Poissons Ratio (y) = 0.56415 0.18604
# Poissons Ratio (z) = 0.10271 0.10272
#
# Static dielectric constant tensor:
#      x y z
#    x 1.830670 0.000000 0.000000 
#    y 0.000000 1.830660 0.000000 
#    z 0.000000 0.000000 1.866410 
# 
# From -- ./inp_files/782.got.cif
#   From: 2010.05.17/outbox.cif.g08.bks.cpg/sg116_1_cif.got.tgz:782.got - 2010.05.20 11:11:43.
