data_PCOD9557298
_publ_section_title
;
Structure prediction by ZEFSAII (Michael W. Deem and Ramdas Pophale) SiO2 
 PCOD9557298
Probable space group: P -4 M 2
;
_chemical_formula_sum "Si O2"
_cell_formula_units_Z 48
_cell_length_a 7.993486
_cell_length_b 7.993486
_cell_length_c 36.026541
_cell_angle_alpha 90.000000
_cell_angle_beta 90.000000
_cell_angle_gamma 90.000000
_cell_volume 2301.945322
_symmetry_space_group_name_H-M "P -4 M 2"
_symmetry_group_IT_number 115
_symmetry_cell_setting 'tetragonal'
loop_
_space_group_symop_operation_xyz
x,y,z
y,-x,-z
-x,-y,z
-y,x,-z
y,x,-z
-y,-x,-z
-x,y,z
x,-y,z
loop_
_atom_site_type_symbol
_atom_site_label
_atom_site_fract_x
_atom_site_fract_y
_atom_site_fract_z
Si Si1 0.000000 0.295787 0.172944
Si Si2 0.705969 0.000000 0.741406
Si Si3 0.806234 0.688831 0.613593
Si Si4 0.694395 0.704247 0.960344
Si Si5 0.294731 0.306540 0.878523
Si Si6 0.691922 0.303194 0.307595
Si Si7 0.186525 0.690145 0.462911
O O1 0.167883 0.242866 0.151201
O O2 0.000000 0.500000 0.172524
O O3 0.000000 0.243537 0.215705
O O4 0.764658 0.832302 0.720193
O O5 0.500000 0.000000 0.740094
O O6 0.741681 0.500000 0.608016
O O7 0.716023 0.756465 0.650030
O O8 0.792855 0.772362 0.573618
O O9 0.000000 0.684419 0.623903
O O10 0.500000 0.758086 0.959557
O O11 0.694764 0.500000 0.961741
O O12 0.765553 0.745116 0.919922
O O13 0.764641 0.764641 0.000000
O O14 0.500000 0.307482 0.879609
O O15 0.245143 0.500000 0.871070
O O16 0.500000 0.234505 0.305549
O O17 0.678129 0.500000 0.299798
O O18 0.293141 0.706860 0.500000
O O19 0.194357 0.500000 0.449787
O O20 0.000000 0.730418 0.475798
#
# Coordination Sequence:
#
# PCOD9557298 Si02
#       7
#     4   4   8   8   8   8   8
#     4   9  16  24  34  53  81 117 157 203 253 301
#     4   9  18  30  45  65  91 125 171 215 255 313
#     4  10  21  37  57  81 107 134 167 212 265 314
#     4   7   9  14  25  41  62  93 135 180 225 276
#     4   8  13  20  30  46  72 109 151 194 245 304
#     4   9  18  33  52  73  99 133 171 211 258 315
#     4  11  24  39  56  80 110 144 181 218 253 298
#
# _framework density 20.851928999999998
#
# number of rings (size 3 to 8) (size 9 to 14) (size 15 to 20)
#    0.000    3.000    0.000    3.000    1.167    5.000 
#    0.000    3.333    0.000    0.000    0.000    0.000 
#    0.000    0.000    5.667    0.000   34.667    0.000 
#
# Total GULP energy -267316.301913 kJ/mol
# GULP energy per Si atom -5569.089623 kJ/mol
# Density = 2.080447 g / cm^3
# Si number density = 20.851929 Si / 1000 Ang^3
#
#
#
# Elastic Constant Matrix: (Units=GPa)
#
#
# Indices 1 2 3 4 5 6 
#
# 1 36.7479 21.1147 37.8365 0.0000 0.0000 0.0000
# 2 21.1147 36.7487 37.8368 0.0000 0.0000 0.0000
# 3 37.8365 37.8368 148.5556 0.0000 0.0000 0.0000
# 4 0.0000 0.0000 0.0000 148.2051 0.0000 0.0000
# 5 0.0000 0.0000 0.0000 0.0000 148.1844 0.0000
# 6 0.0000 0.0000 0.0000 0.0000 0.0000 6.5578
#
#
#
# Elastic Compliance Matrix: (Units=1/GPa)
#
#
# Indices 1 2 3 4 5 6 
#
# 1 0.044940 -0.019025 -0.006600 0.000000 0.000000 0.000000
# 2 -0.019025 0.044939 -0.006600 0.000000 0.000000 0.000000
# 3 -0.006600 -0.006600 0.010094 0.000000 0.000000 0.000000
# 4 0.000000 0.000000 0.000000 0.006747 0.000000 0.000000
# 5 0.000000 0.000000 0.000000 0.000000 0.006748 0.000000
# 6 0.000000 0.000000 0.000000 0.000000 0.000000 0.152491
#
#
# Mechanical properties :
#
#
# Convention : Reuss Voigt Hill
#
# Bulk Modulus (GPa) = 28.15260 46.18092 37.16676
# Shear Modulus (GPa) = 14.60919 68.94041 41.77480
#
# Velocity S-wave (km/s) = 2.64979 5.75618 4.48079
# Velocity P-wave (km/s) = 4.78459 8.14699 6.68078
#
# Compressibility (1/GPa) = 0.03552070
#
# Stress axis : x y z
#
# Youngs Moduli (GPa) = 22.25199 22.25254 99.07271
#
# Poissons Ratio (x) = 0.42336 0.65391
# Poissons Ratio (y) = 0.42335 0.65389
# Poissons Ratio (z) = 0.14687 0.14687
#
# Static dielectric constant tensor:
#      x y z
#    x 1.779270 0.000000 0.000000 
#    y 0.000000 1.779270 0.000000 
#    z 0.000000 0.000000 1.768470 
# 
# From -- ./inp_files/6203.got.cif
#   From: 2010.05.17/outbox.cif.g08.bks.cpg/sg115_4_cif.got.tgz:6203.got - 2010.05.20 11:07:42.
