data_PCOD9557711
_publ_section_title
;
Structure prediction by ZEFSAII (Michael W. Deem and Ramdas Pophale) SiO2 
 PCOD9557711
Probable space group: P -4 C 2
;
_chemical_formula_sum "Si O2"
_cell_formula_units_Z 44
_cell_length_a 8.168040
_cell_length_b 8.168040
_cell_length_c 28.654361
_cell_angle_alpha 90.000000
_cell_angle_beta 90.000000
_cell_angle_gamma 90.000000
_cell_volume 1911.729491
_symmetry_space_group_name_H-M "P -4 C 2"
_symmetry_group_IT_number 116
_symmetry_cell_setting 'tetragonal'
loop_
_space_group_symop_operation_xyz
x,y,z
y,-x,-z
-x,-y,z
-y,x,-z
y,x,1/2-z
-y,-x,1/2-z
-x,y,1/2+z
x,-y,1/2+z
loop_
_atom_site_type_symbol
_atom_site_label
_atom_site_fract_x
_atom_site_fract_y
_atom_site_fract_z
Si Si1 0.752163 0.377658 0.956065
Si Si2 0.871874 0.642003 0.273676
Si Si3 0.872340 0.749757 0.650032
Si Si4 0.223918 0.124864 0.135353
Si Si5 0.373777 0.271625 0.943320
Si Si6 0.183155 0.816846 0.250000
O O1 0.838298 0.274818 0.916630
O O2 0.560041 0.329075 0.952480
O O3 0.746001 0.570458 0.943715
O O4 0.820047 0.339924 0.007731
O O5 0.703992 0.703992 0.250000
O O6 0.838172 0.628857 0.328660
O O7 0.000000 0.500000 0.258932
O O8 0.000965 0.788883 0.267708
O O9 0.818076 0.641159 0.606144
O O10 0.796650 0.713735 0.701631
O O11 0.069796 0.764470 0.652262
O O12 0.819435 0.934258 0.637564
#
# Coordination Sequence:
#
# PCOD9557711 Si02
#       6
#     8   8   8   8   8   4
#     4   9  20  39  59  88 120 158 206 261 323 385
#     4  11  23  41  66  93 126 171 218 266 327 396
#     4  10  21  37  61  85 116 164 204 253 312 379
#     4  10  22  36  59  88 120 152 207 259 308 379
#     4   9  20  39  62  82 121 166 201 255 330 388
#     4  10  21  42  63  84 131 172 207 252 327 398
#
# _framework density 23.015806000000001
#
# number of rings (size 3 to 8) (size 9 to 14) (size 15 to 20)
#    0.000    2.182    1.818    1.364    5.091    3.636 
#    0.000    5.909    0.000    0.000    0.000    0.000 
#    0.000    0.000    0.000    0.000    0.000    0.000 
#
# Total GULP energy -245039.200869 kJ/mol
# GULP energy per Si atom -5569.072747 kJ/mol
# Density = 2.296342 g / cm^3
# Si number density = 23.015806 Si / 1000 Ang^3
#
#
#
# Elastic Constant Matrix: (Units=GPa)
#
#
# Indices 1 2 3 4 5 6 
#
# 1 35.4104 18.0185 28.7558 0.0000 0.0000 0.0000
# 2 18.0185 35.4109 28.7557 0.0000 0.0000 0.0000
# 3 28.7558 28.7557 194.0677 0.0000 0.0000 0.0000
# 4 0.0000 0.0000 0.0000 7.3781 0.0000 0.0000
# 5 0.0000 0.0000 0.0000 0.0000 7.3782 0.0000
# 6 0.0000 0.0000 0.0000 0.0000 0.0000 31.3113
#
#
#
# Elastic Compliance Matrix: (Units=1/GPa)
#
#
# Indices 1 2 3 4 5 6 
#
# 1 0.039883 -0.017615 -0.003300 0.000000 0.000000 0.000000
# 2 -0.017615 0.039882 -0.003299 0.000000 0.000000 0.000000
# 3 -0.003300 -0.003299 0.006131 0.000000 0.000000 0.000000
# 4 0.000000 0.000000 0.000000 0.135536 0.000000 0.000000
# 5 0.000000 0.000000 0.000000 0.000000 0.135535 0.000000
# 6 0.000000 0.000000 0.000000 0.000000 0.000000 0.031937
#
#
# Mechanical properties :
#
#
# Convention : Reuss Voigt Hill
#
# Bulk Modulus (GPa) = 26.68908 46.21657 36.45283
# Shear Modulus (GPa) = 11.11553 21.83744 16.47648
#
# Velocity S-wave (km/s) = 2.20000 3.08360 2.67849
# Velocity P-wave (km/s) = 4.25141 5.72731 5.04364
#
# Compressibility (1/GPa) = 0.03746851
#
# Stress axis : x y z
#
# Youngs Moduli (GPa) = 25.07340 25.07378 163.11476
#
# Poissons Ratio (x) = 0.44166 0.53821
# Poissons Ratio (y) = 0.44166 0.53819
# Poissons Ratio (z) = 0.08273 0.08273
#
# Static dielectric constant tensor:
#      x y z
#    x 2.104890 0.000000 0.000000 
#    y 0.000000 2.104890 0.000000 
#    z 0.000000 0.000000 1.937170 
# 
# From -- ./inp_files/5168.got.cif
#   From: 2010.05.17/outbox.cif.g08.bks.cpg/sg116_3_cif.got.tgz:5168.got - 2010.05.20 11:11:43.
