data_PCOD9557874
_publ_section_title
;
Structure prediction by ZEFSAII (Michael W. Deem and Ramdas Pophale) SiO2 
 PCOD9557874
Probable space group: P -4 C 2
;
_chemical_formula_sum "Si O2"
_cell_formula_units_Z 40
_cell_length_a 8.579647
_cell_length_b 8.579647
_cell_length_c 23.675941
_cell_angle_alpha 90.000000
_cell_angle_beta 90.000000
_cell_angle_gamma 90.000000
_cell_volume 1742.794129
_symmetry_space_group_name_H-M "P -4 C 2"
_symmetry_group_IT_number 116
_symmetry_cell_setting 'tetragonal'
loop_
_space_group_symop_operation_xyz
x,y,z
y,-x,-z
-x,-y,z
-y,x,-z
y,x,1/2-z
-y,-x,1/2-z
-x,y,1/2+z
x,-y,1/2+z
loop_
_atom_site_type_symbol
_atom_site_label
_atom_site_fract_x
_atom_site_fract_y
_atom_site_fract_z
Si Si1 0.367086 0.884042 0.220268
Si Si2 0.833324 0.417550 0.456633
Si Si3 0.608064 0.350402 0.687930
Si Si4 0.817814 0.013878 0.115211
Si Si5 0.720599 0.316463 0.574549
O O1 0.247509 0.752492 0.250000
O O2 0.484454 0.787566 0.179957
O O3 0.500000 0.000000 0.249968
O O4 0.259814 0.980754 0.177208
O O5 0.808233 0.394075 0.523155
O O6 0.697475 0.535876 0.438335
O O7 0.000000 0.500000 0.446314
O O8 0.844929 0.255873 0.421839
O O9 0.500000 0.500000 0.690731
O O10 0.677062 0.322939 0.750000
O O11 0.730296 0.377379 0.638349
O O12 0.778577 0.859639 0.080132
O O13 0.000000 0.000000 0.123176
#
# Coordination Sequence:
#
# PCOD9557874 Si02
#       5
#     8   8   8   8   8
#     4  12  24  50  77 105 149 199 253 309 381 460
#     4  10  24  43  71 106 144 191 242 304 374 457
#     4  11  23  44  73 101 139 196 240 305 368 434
#     4  11  25  45  73 104 150 193 237 314 387 451
#     4  11  24  44  73 102 149 188 252 303 375 449
#
# _framework density 22.951650999999998
#
# number of rings (size 3 to 8) (size 9 to 14) (size 15 to 20)
#    0.000    1.000    6.000    0.600    8.400    2.000 
#    0.000    1.000    0.000    0.000    0.000    0.000 
#    0.000    0.000    0.000    0.000    0.000    0.000 
#
# Total GULP energy -222706.161296 kJ/mol
# GULP energy per Si atom -5567.654032 kJ/mol
# Density = 2.289941 g / cm^3
# Si number density = 22.951651 Si / 1000 Ang^3
#
#
#
# Elastic Constant Matrix: (Units=GPa)
#
#
# Indices 1 2 3 4 5 6 
#
# 1 77.0567 21.7326 9.5266 0.0000 0.0000 0.0000
# 2 21.7326 77.0566 9.5266 0.0000 0.0000 0.0000
# 3 9.5266 9.5266 89.8788 0.0000 0.0000 0.0000
# 4 0.0000 0.0000 0.0000 38.6415 0.0000 0.0000
# 5 0.0000 0.0000 0.0000 0.0000 38.6414 0.0000
# 6 0.0000 0.0000 0.0000 0.0000 0.0000 15.8819
#
#
#
# Elastic Compliance Matrix: (Units=1/GPa)
#
#
# Indices 1 2 3 4 5 6 
#
# 1 0.014205 -0.003871 -0.001095 0.000000 0.000000 0.000000
# 2 -0.003871 0.014205 -0.001095 0.000000 0.000000 0.000000
# 3 -0.001095 -0.001095 0.011358 0.000000 0.000000 0.000000
# 4 0.000000 0.000000 0.000000 0.025879 0.000000 0.000000
# 5 0.000000 0.000000 0.000000 0.000000 0.025879 0.000000
# 6 0.000000 0.000000 0.000000 0.000000 0.000000 0.062965
#
#
# Mechanical properties :
#
#
# Convention : Reuss Voigt Hill
#
# Bulk Modulus (GPa) = 36.17341 36.17376 36.17359
# Shear Modulus (GPa) = 28.43690 32.18004 30.30847
#
# Velocity S-wave (km/s) = 3.52375 3.74850 3.63786
# Velocity P-wave (km/s) = 5.68776 5.87623 5.78276
#
# Compressibility (1/GPa) = 0.02764461
#
# Stress axis : x y z
#
# Youngs Moduli (GPa) = 70.39997 70.39985 88.04139
#
# Poissons Ratio (x) = 0.27250 0.09643
# Poissons Ratio (y) = 0.27250 0.09643
# Poissons Ratio (z) = 0.07711 0.07711
#
# Static dielectric constant tensor:
#      x y z
#    x 1.943460 0.000000 0.000000 
#    y 0.000000 1.943460 0.000000 
#    z 0.000000 0.000000 1.905320 
# 
# From -- ./inp_files/4440.got.cif
#   From: 2010.05.17/outbox.cif.g08.bks.cpg/sg116_3_cif.got.tgz:4440.got - 2010.05.20 11:11:43.
