data_PCOD9557378
_publ_section_title
;
Structure prediction by ZEFSAII (Michael W. Deem and Ramdas Pophale) SiO2 
 PCOD9557378
Probable space group: P -4 M 2
;
_chemical_formula_sum "Si O2"
_cell_formula_units_Z 23
_cell_length_a 11.098114
_cell_length_b 11.098114
_cell_length_c 8.330017
_cell_angle_alpha 90.000000
_cell_angle_beta 90.000000
_cell_angle_gamma 90.000000
_cell_volume 1025.992653
_symmetry_space_group_name_H-M "P -4 M 2"
_symmetry_group_IT_number 115
_symmetry_cell_setting 'tetragonal'
loop_
_space_group_symop_operation_xyz
x,y,z
y,-x,-z
-x,-y,z
-y,x,-z
y,x,-z
-y,-x,-z
-x,y,z
x,-y,z
loop_
_atom_site_type_symbol
_atom_site_label
_atom_site_fract_x
_atom_site_fract_y
_atom_site_fract_z
Si Si1 0.500000 0.000000 0.855165
Si Si2 0.861947 0.500000 0.659025
Si Si3 0.757538 0.000000 0.807771
Si Si4 0.256284 0.500000 0.322666
Si Si5 0.000000 0.000000 0.000000
Si Si6 0.270781 0.251223 0.192712
O O1 0.636656 0.000000 0.918970
O O2 0.500000 0.122327 0.754549
O O3 0.769498 0.500000 0.510559
O O4 0.839585 0.376370 0.757112
O O5 0.000000 0.500000 0.601131
O O6 0.761010 0.135163 0.729367
O O7 0.880098 0.000000 0.900721
O O8 0.316351 0.380390 0.255190
O O9 0.253271 0.253271 0.000000
#
# Coordination Sequence:
#
# PCOD9557378 Si02
#       6
#     2   4   4   4   1   8
#     4   8  18  40  64  86 122 190 222 270 342 416
#     4  12  27  43  69 106 145 192 245 288 361 438
#     4  10  22  38  65  95 141 181 227 287 359 419
#     4  10  21  46  70  96 142 182 234 293 353 427
#     4  12  20  36  56 100 142 180 224 284 358 424
#     4  11  24  44  71 105 137 189 239 301 356 421
#
# _framework density 22.417316
#
# number of rings (size 3 to 8) (size 9 to 14) (size 15 to 20)
#    0.000    1.391    2.609    2.087    4.870    0.696 
#    3.130    3.478    0.000    0.000    0.000    0.000 
#    0.000    0.000    0.000    0.000    0.000    0.000 
#
# Total GULP energy -128069.494423 kJ/mol
# GULP energy per Si atom -5568.238888 kJ/mol
# Density = 2.236629 g / cm^3
# Si number density = 22.417316 Si / 1000 Ang^3
#
#
#
# Elastic Constant Matrix: (Units=GPa)
#
#
# Indices 1 2 3 4 5 6 
#
# 1 109.0738 39.3042 -2.0801 0.0000 0.0000 0.0000
# 2 39.3042 109.0738 -2.0801 0.0000 0.0000 0.0000
# 3 -2.0801 -2.0801 57.0064 0.0000 0.0000 0.0000
# 4 0.0000 0.0000 0.0000 28.8097 0.0000 0.0000
# 5 0.0000 0.0000 0.0000 0.0000 28.8097 0.0000
# 6 0.0000 0.0000 0.0000 0.0000 0.0000 36.7858
#
#
#
# Elastic Compliance Matrix: (Units=1/GPa)
#
#
# Indices 1 2 3 4 5 6 
#
# 1 0.010540 -0.003793 0.000246 0.000000 0.000000 0.000000
# 2 -0.003793 0.010540 0.000246 0.000000 0.000000 0.000000
# 3 0.000246 0.000246 0.017560 0.000000 0.000000 0.000000
# 4 0.000000 0.000000 0.000000 0.034710 0.000000 0.000000
# 5 0.000000 0.000000 0.000000 0.000000 0.034710 0.000000
# 6 0.000000 0.000000 0.000000 0.000000 0.000000 0.027184
#
#
# Mechanical properties :
#
#
# Convention : Reuss Voigt Hill
#
# Bulk Modulus (GPa) = 31.21349 38.38243 34.79796
# Shear Modulus (GPa) = 32.78141 34.88172 33.83157
#
# Velocity S-wave (km/s) = 3.82818 3.94892 3.88902
# Velocity P-wave (km/s) = 5.78740 6.16043 5.97683
#
# Compressibility (1/GPa) = 0.03203743
#
# Stress axis : x y z
#
# Youngs Moduli (GPa) = 94.87958 94.87958 56.94812
#
# Poissons Ratio (x) = 0.35990 -0.01402
# Poissons Ratio (y) = 0.35990 -0.01402
# Poissons Ratio (z) = -0.02336 -0.02336
#
# Static dielectric constant tensor:
#      x y z
#    x 1.938960 0.000000 0.000000 
#    y 0.000000 1.938960 0.000000 
#    z 0.000000 0.000000 1.816330 
# 
# From -- ./inp_files/1161.got.cif
#   From: 2010.05.17/outbox.cif.g08.bks.cpg/sg115_1_cif.got.tgz:1161.got - 2010.05.20 11:07:42.
