data_PCOD9557821
_publ_section_title
;
Structure prediction by ZEFSAII (Michael W. Deem and Ramdas Pophale) SiO2 
 PCOD9557821
Probable space group: P -4 C 2
;
_chemical_formula_sum "Si O2"
_cell_formula_units_Z 48
_cell_length_a 8.282881
_cell_length_b 8.282881
_cell_length_c 30.416292
_cell_angle_alpha 90.000000
_cell_angle_beta 90.000000
_cell_angle_gamma 90.000000
_cell_volume 2086.743708
_symmetry_space_group_name_H-M "P -4 C 2"
_symmetry_group_IT_number 116
_symmetry_cell_setting 'tetragonal'
loop_
_space_group_symop_operation_xyz
x,y,z
y,-x,-z
-x,-y,z
-y,x,-z
y,x,1/2-z
-y,-x,1/2-z
-x,y,1/2+z
x,-y,1/2+z
loop_
_atom_site_type_symbol
_atom_site_label
_atom_site_fract_x
_atom_site_fract_y
_atom_site_fract_z
Si Si1 0.107875 0.657541 0.499690
Si Si2 0.746587 0.748630 0.660791
Si Si3 0.256702 0.509519 0.232593
Si Si4 0.130809 0.231834 0.427447
Si Si5 0.000000 0.000000 0.353868
Si Si6 0.681527 0.562591 0.926045
Si Si7 0.500000 0.000000 0.705310
O O1 0.136653 0.730465 0.547005
O O2 0.276097 0.624201 0.474832
O O3 0.000000 0.500000 0.504143
O O4 0.010137 0.763110 0.464086
O O5 0.754721 0.567982 0.682481
O O6 0.699434 0.718420 0.610023
O O7 0.605534 0.873437 0.677725
O O8 0.910687 0.849441 0.669096
O O9 0.397012 0.397012 0.250000
O O10 0.310130 0.689871 0.250000
O O11 0.112758 0.418878 0.257619
O O12 0.073676 0.140332 0.384534
O O13 0.196267 0.411720 0.418143
O O14 0.500000 0.500000 0.921885
#
# Coordination Sequence:
#
# PCOD9557821 Si02
#       7
#     8   8   8   8   4   8   4
#     4  10  23  40  66  95 132 183 242 281 337 398
#     4  11  24  44  66 102 138 174 222 284 343 422
#     4   9  21  42  69  97 125 166 224 269 334 416
#     4  11  23  42  67  93 139 189 230 284 342 410
#     4  12  24  43  69 102 150 182 226 278 363 406
#     4  11  26  42  67  99 134 179 234 294 344 386
#     4  10  22  42  72  92 126 174 218 264 352 414
#
# _framework density 23.002345999999999
#
# number of rings (size 3 to 8) (size 9 to 14) (size 15 to 20)
#    0.000    1.500    1.667    2.000   10.500    1.333 
#    3.000    2.917    0.000    0.000    0.000    0.000 
#    0.000    0.000    0.000    0.000    0.000    0.000 
#
# Total GULP energy -267369.744645 kJ/mol
# GULP energy per Si atom -5570.203013 kJ/mol
# Density = 2.294999 g / cm^3
# Si number density = 23.002346 Si / 1000 Ang^3
#
#
#
# Elastic Constant Matrix: (Units=GPa)
#
#
# Indices 1 2 3 4 5 6 
#
# 1 63.7962 10.2882 12.3116 0.0000 0.0000 0.0000
# 2 10.2882 63.7958 12.3117 0.0000 0.0000 0.0000
# 3 12.3116 12.3117 50.7830 0.0000 0.0000 0.0000
# 4 0.0000 0.0000 0.0000 18.4313 0.0000 0.0000
# 5 0.0000 0.0000 0.0000 0.0000 18.4312 0.0000
# 6 0.0000 0.0000 0.0000 0.0000 0.0000 27.5152
#
#
#
# Elastic Compliance Matrix: (Units=1/GPa)
#
#
# Indices 1 2 3 4 5 6 
#
# 1 0.016685 -0.002004 -0.003559 0.000000 0.000000 0.000000
# 2 -0.002004 0.016685 -0.003559 0.000000 0.000000 0.000000
# 3 -0.003559 -0.003559 0.021417 0.000000 0.000000 0.000000
# 4 0.000000 0.000000 0.000000 0.054256 0.000000 0.000000
# 5 0.000000 0.000000 0.000000 0.000000 0.054256 0.000000
# 6 0.000000 0.000000 0.000000 0.000000 0.000000 0.036344
#
#
# Mechanical properties :
#
#
# Convention : Reuss Voigt Hill
#
# Bulk Modulus (GPa) = 27.36525 27.57757 27.47141
# Shear Modulus (GPa) = 21.73270 22.43976 22.08623
#
# Velocity S-wave (km/s) = 3.07710 3.12676 3.10203
# Velocity P-wave (km/s) = 4.95452 5.00505 4.97985
#
# Compressibility (1/GPa) = 0.03654269
#
# Stress axis : x y z
#
# Youngs Moduli (GPa) = 59.93432 59.93389 46.69103
#
# Poissons Ratio (x) = 0.12010 0.16618
# Poissons Ratio (y) = 0.12010 0.16619
# Poissons Ratio (z) = 0.21332 0.21332
#
# Static dielectric constant tensor:
#      x y z
#    x 2.220810 0.000000 0.000000 
#    y 0.000000 2.220800 0.000000 
#    z 0.000000 0.000000 2.005260 
# 
# From -- ./inp_files/5285.got.cif
#   From: 2010.05.17/outbox.cif.g08.bks.cpg/sg116_3_cif.got.tgz:5285.got - 2010.05.20 11:11:43.
