data_PCOD9557393
_publ_section_title
;
Structure prediction by ZEFSAII (Michael W. Deem and Ramdas Pophale) SiO2 
 PCOD9557393
Probable space group: P -4 M 2
;
_chemical_formula_sum "Si O2"
_cell_formula_units_Z 32
_cell_length_a 12.148356
_cell_length_b 12.148356
_cell_length_c 12.163573
_cell_angle_alpha 90.000000
_cell_angle_beta 90.000000
_cell_angle_gamma 90.000000
_cell_volume 1795.131163
_symmetry_space_group_name_H-M "P -4 M 2"
_symmetry_group_IT_number 115
_symmetry_cell_setting 'tetragonal'
loop_
_space_group_symop_operation_xyz
x,y,z
y,-x,-z
-x,-y,z
-y,x,-z
y,x,-z
-y,-x,-z
-x,y,z
x,-y,z
loop_
_atom_site_type_symbol
_atom_site_label
_atom_site_fract_x
_atom_site_fract_y
_atom_site_fract_z
Si Si1 0.122206 0.122206 0.000000
Si Si2 0.220791 0.272039 0.821299
Si Si3 0.742882 0.133775 0.599875
Si Si4 0.369960 0.369960 0.000000
Si Si5 0.500000 0.868199 0.269067
Si Si6 0.500000 0.867410 0.519061
O O1 0.210321 0.140868 0.094505
O O2 0.000000 0.133702 0.047274
O O3 0.231831 0.194975 0.714439
O O4 0.329059 0.299784 0.894427
O O5 0.173347 0.389403 0.786818
O O6 0.817136 0.182865 0.500000
O O7 0.615161 0.162415 0.574526
O O8 0.754768 0.000000 0.605649
O O9 0.352340 0.500000 0.981049
O O10 0.500000 0.826347 0.394353
O O11 0.500000 0.000000 0.269599
O O12 0.500000 0.000000 0.514868
#
# Coordination Sequence:
#
# PCOD9557393 Si02
#       6
#     4   8   8   4   4   4
#     4  10  22  40  60  84 118 156 196 246 296 344
#     4  11  22  38  62  88 118 156 198 246 296 358
#     4  11  23  39  61  91 124 157 198 245 301 360
#     4  10  22  40  60  86 118 154 198 252 308 354
#     4  11  20  36  60  85 116 160 200 236 285 356
#     4   9  20  38  57  82 119 157 194 242 289 350
#
# _framework density 17.825996
#
# number of rings (size 3 to 8) (size 9 to 14) (size 15 to 20)
#    0.000    1.500    3.750    1.500    1.750    1.250 
#    0.000    0.000    0.000    1.875    0.000    0.000 
#    0.000    0.000    0.000    0.000    0.000    0.000 
#
# Total GULP energy -178428.292356 kJ/mol
# GULP energy per Si atom -5575.884136 kJ/mol
# Density = 1.778542 g / cm^3
# Si number density = 17.825996 Si / 1000 Ang^3
#
#
#
# Elastic Constant Matrix: (Units=GPa)
#
#
# Indices 1 2 3 4 5 6 
#
# 1 109.4963 36.6053 46.5440 0.0000 0.0000 0.0000
# 2 36.6053 109.4958 46.5437 0.0000 0.0000 0.0000
# 3 46.5440 46.5437 117.8712 0.0000 0.0000 0.0000
# 4 0.0000 0.0000 0.0000 28.3124 0.0000 0.0000
# 5 0.0000 0.0000 0.0000 0.0000 28.3122 0.0000
# 6 0.0000 0.0000 0.0000 0.0000 0.0000 24.6268
#
#
#
# Elastic Compliance Matrix: (Units=1/GPa)
#
#
# Indices 1 2 3 4 5 6 
#
# 1 0.011432 -0.002287 -0.003611 0.000000 0.000000 0.000000
# 2 -0.002287 0.011432 -0.003611 0.000000 0.000000 0.000000
# 3 -0.003611 -0.003611 0.011336 0.000000 0.000000 0.000000
# 4 0.000000 0.000000 0.000000 0.035320 0.000000 0.000000
# 5 0.000000 0.000000 0.000000 0.000000 0.035320 0.000000
# 6 0.000000 0.000000 0.000000 0.000000 0.000000 0.040606
#
#
# Mechanical properties :
#
#
# Convention : Reuss Voigt Hill
#
# Bulk Modulus (GPa) = 65.86904 66.24994 66.05949
# Shear Modulus (GPa) = 29.49391 30.06165 29.77778
#
# Velocity S-wave (km/s) = 4.07202 4.11103 4.09157
# Velocity P-wave (km/s) = 7.69024 7.73172 7.71101
#
# Compressibility (1/GPa) = 0.01518164
#
# Stress axis : x y z
#
# Youngs Moduli (GPa) = 87.47148 87.47123 88.21595
#
# Poissons Ratio (x) = 0.20003 0.31857
# Poissons Ratio (y) = 0.20003 0.31857
# Poissons Ratio (z) = 0.31588 0.31588
#
# Static dielectric constant tensor:
#      x y z
#    x 1.553360 0.000000 0.000000 
#    y 0.000000 1.553350 0.000000 
#    z 0.000000 0.000000 1.605930 
# 
# From -- ./inp_files/2584.got.cif
#   From: 2010.05.17/outbox.cif.g08.bks.cpg/sg115_2_cif.got.tgz:2584.got - 2010.05.20 11:07:42.
