data_PCOD9557498
_publ_section_title
;
Structure prediction by ZEFSAII (Michael W. Deem and Ramdas Pophale) SiO2 
 PCOD9557498
Probable space group: P -4 M 2
;
_chemical_formula_sum "Si O2"
_cell_formula_units_Z 29
_cell_length_a 12.000000
_cell_length_b 12.000000
_cell_length_c 12.000000
_cell_angle_alpha 90.000000
_cell_angle_beta 90.000000
_cell_angle_gamma 90.000000
_cell_volume 1728.000000
_symmetry_space_group_name_H-M "P -4 M 2"
_symmetry_group_IT_number 115
_symmetry_cell_setting 'tetragonal'
loop_
_space_group_symop_operation_xyz
x,y,z
y,-x,-z
-x,-y,z
-y,x,-z
y,x,-z
-y,-x,-z
-x,y,z
x,-y,z
loop_
_atom_site_type_symbol
_atom_site_label
_atom_site_fract_x
_atom_site_fract_y
_atom_site_fract_z
Si Si1 0.133448 0.129779 0.870846
Si Si2 0.367835 0.123239 0.522085
Si Si3 0.716551 0.750823 0.310365
Si Si4 0.500000 0.373489 0.218912
Si Si5 0.500000 0.500000 0.000000
O O1 0.195506 0.209977 0.786344
O O2 0.000000 0.138951 0.856436
O O3 0.163325 0.000000 0.852251
O O4 0.157520 0.157520 0.000000
O O5 0.500000 0.122303 0.512231
O O6 0.319753 0.159068 0.402768
O O7 0.333727 0.209354 0.617278
O O8 0.326716 0.000000 0.551798
O O9 0.608763 0.690975 0.259642
O O10 0.500000 0.500000 0.266410
O O11 0.500000 0.396123 0.085415
#
# Coordination Sequence:
#
# PCOD9557498 Si02
#       5
#     8   8   8   4   1
#     4   9  19  35  56  83 111 140 179 227 278 338
#     4  10  21  36  52  79 113 142 179 227 274 323
#     4  11  20  35  58  80 105 151 184 226 274 338
#     4  10  22  38  54  80 108 146 192 236 273 324
#     4   8  24  40  52  74 112 148 184 244 278 312
#
# _framework density 16.782406999999999
#
# number of rings (size 3 to 8) (size 9 to 14) (size 15 to 20)
#    0.414    1.655    1.379    3.310    1.931    0.000 
#    0.000    0.000    0.000    6.621    0.000    0.000 
#    0.000    0.000    0.000    0.000    0.000    0.000 
#
# Total GULP energy -161622.564500 kJ/mol
# GULP energy per Si atom -5573.191879 kJ/mol
# Density = 1.674421 g / cm^3
# Si number density = 16.782407 Si / 1000 Ang^3
#
#
#
# Elastic Constant Matrix: (Units=GPa)
#
#
# Indices 1 2 3 4 5 6 
#
# 1 99.5491 58.4565 77.5112 0.0000 0.0000 0.0000
# 2 58.4565 99.5491 77.5112 0.0000 0.0000 0.0000
# 3 77.5112 77.5112 137.3710 0.0000 0.0000 0.0000
# 4 0.0000 0.0000 0.0000 22.6890 0.0000 0.0000
# 5 0.0000 0.0000 0.0000 0.0000 22.6890 0.0000
# 6 0.0000 0.0000 0.0000 0.0000 0.0000 26.7005
#
#
#
# Elastic Compliance Matrix: (Units=1/GPa)
#
#
# Indices 1 2 3 4 5 6 
#
# 1 0.019256 -0.005079 -0.008000 0.000000 0.000000 0.000000
# 2 -0.005079 0.019256 -0.008000 0.000000 0.000000 0.000000
# 3 -0.008000 -0.008000 0.016307 0.000000 0.000000 0.000000
# 4 0.000000 0.000000 0.000000 0.044074 0.000000 0.000000
# 5 0.000000 0.000000 0.000000 0.000000 0.044074 0.000000
# 6 0.000000 0.000000 0.000000 0.000000 0.000000 0.037452
#
#
# Mechanical properties :
#
#
# Convention : Reuss Voigt Hill
#
# Bulk Modulus (GPa) = 78.96656 84.82525 81.89590
# Shear Modulus (GPa) = 22.04605 22.61505 22.33055
#
# Velocity S-wave (km/s) = 3.62835 3.67488 3.65169
# Velocity P-wave (km/s) = 8.04416 8.28614 8.16605
#
# Compressibility (1/GPa) = 0.01266359
#
# Stress axis : x y z
#
# Youngs Moduli (GPa) = 51.93088 51.93088 61.32325
#
# Poissons Ratio (x) = 0.26375 0.49056
# Poissons Ratio (y) = 0.26375 0.49056
# Poissons Ratio (z) = 0.41542 0.41542
#
# Static dielectric constant tensor:
#      x y z
#    x 1.547540 0.000000 0.000000 
#    y 0.000000 1.547540 0.000000 
#    z 0.000000 0.000000 1.532310 
# 
# From -- ./inp_files/2460.got.cif
#   From: 2010.05.17/outbox.ucp.g08.bks.cvg/sg115_2_cif.got.tgz:2460.got - 2010.06.11 11:33:38.
