data_PCOD9557588
_publ_section_title
;
Structure prediction by ZEFSAII (Michael W. Deem and Ramdas Pophale) SiO2 
 PCOD9557588
Probable space group: P -4 C 2
;
_chemical_formula_sum "Si O2"
_cell_formula_units_Z 40
_cell_length_a 11.653609
_cell_length_b 11.653609
_cell_length_c 15.165490
_cell_angle_alpha 90.000000
_cell_angle_beta 90.000000
_cell_angle_gamma 90.000000
_cell_volume 2059.573676
_symmetry_space_group_name_H-M "P -4 C 2"
_symmetry_group_IT_number 116
_symmetry_cell_setting 'tetragonal'
loop_
_space_group_symop_operation_xyz
x,y,z
y,-x,-z
-x,-y,z
-y,x,-z
y,x,1/2-z
-y,-x,1/2-z
-x,y,1/2+z
x,-y,1/2+z
loop_
_atom_site_type_symbol
_atom_site_label
_atom_site_fract_x
_atom_site_fract_y
_atom_site_fract_z
Si Si1 0.854484 0.681375 0.006477
Si Si2 0.094956 0.729171 0.955164
Si Si3 0.003999 0.184988 0.772946
Si Si4 0.495103 0.860451 0.635650
Si Si5 0.900425 0.587617 0.181419
O O1 0.810452 0.810953 0.002740
O O2 0.821507 0.623079 0.099333
O O3 0.823337 0.605093 0.921148
O O4 0.992763 0.686425 0.016151
O O5 0.164288 0.620513 0.917704
O O6 0.023322 0.786283 0.874795
O O7 0.127752 0.127752 0.750000
O O8 0.964724 0.299503 0.721229
O O9 0.911854 0.088147 0.750000
O O10 0.473092 0.831837 0.737679
O O11 0.500000 0.000000 0.636837
O O12 0.000000 0.500000 0.154198
#
# Coordination Sequence:
#
# PCOD9557588 Si02
#       5
#     8   8   8   8   8
#     4  11  21  35  56  83 118 148 196 241 290 352
#     4  10  21  33  53  82 116 151 192 236 291 339
#     4  10  20  34  51  81 123 157 190 229 289 359
#     4   8  18  36  52  75 109 148 199 234 272 345
#     4  10  19  35  56  75 108 163 192 235 285 338
#
# _framework density 19.421495
#
# number of rings (size 3 to 8) (size 9 to 14) (size 15 to 20)
#    0.000    2.200    2.000    3.000    2.800    0.400 
#    0.000    0.000    0.000    0.600    0.000    0.000 
#    0.000    5.600    0.000    0.000    0.000    0.000 
#
# Total GULP energy -222789.878550 kJ/mol
# GULP energy per Si atom -5569.746964 kJ/mol
# Density = 1.937729 g / cm^3
# Si number density = 19.421495 Si / 1000 Ang^3
#
#
#
# Elastic Constant Matrix: (Units=GPa)
#
#
# Indices 1 2 3 4 5 6 
#
# 1 60.5211 22.0935 28.2045 0.0000 0.0000 0.0000
# 2 22.0935 60.5222 28.2052 0.0000 0.0000 0.0000
# 3 28.2045 28.2052 101.0999 0.0000 0.0000 0.0000
# 4 0.0000 0.0000 0.0000 35.6957 0.0000 0.0000
# 5 0.0000 0.0000 0.0000 0.0000 35.6945 0.0000
# 6 0.0000 0.0000 0.0000 0.0000 0.0000 4.6270
#
#
#
# Elastic Compliance Matrix: (Units=1/GPa)
#
#
# Indices 1 2 3 4 5 6 
#
# 1 0.020488 -0.005535 -0.004171 0.000000 0.000000 0.000000
# 2 -0.005535 0.020487 -0.004172 0.000000 0.000000 0.000000
# 3 -0.004171 -0.004172 0.012219 0.000000 0.000000 0.000000
# 4 0.000000 0.000000 0.000000 0.028015 0.000000 0.000000
# 5 0.000000 0.000000 0.000000 0.000000 0.028016 0.000000
# 6 0.000000 0.000000 0.000000 0.000000 0.000000 0.216124
#
#
# Mechanical properties :
#
#
# Convention : Reuss Voigt Hill
#
# Bulk Modulus (GPa) = 39.31121 42.12771 40.71946
# Shear Modulus (GPa) = 13.82806 24.77942 19.30374
#
# Velocity S-wave (km/s) = 2.67122 3.57582 3.15610
# Velocity P-wave (km/s) = 5.45884 6.22792 5.85602
#
# Compressibility (1/GPa) = 0.02543804
#
# Stress axis : x y z
#
# Youngs Moduli (GPa) = 48.80964 48.81031 81.84161
#
# Poissons Ratio (x) = 0.27017 0.34140
# Poissons Ratio (y) = 0.27016 0.34140
# Poissons Ratio (z) = 0.20361 0.20361
#
# Static dielectric constant tensor:
#      x y z
#    x 1.679060 0.000000 0.000000 
#    y 0.000000 1.679050 0.000000 
#    z 0.000000 0.000000 1.826480 
# 
# From -- ./inp_files/2534.got.cif
#   From: 2010.05.17/outbox.cif.g08.bks.cpg/sg116_2_cif.got.tgz:2534.got - 2010.05.20 11:11:43.
