data_PCOD9557429
_publ_section_title
;
Structure prediction by ZEFSAII (Michael W. Deem and Ramdas Pophale) SiO2 
 PCOD9557429
Probable space group: P -4 M 2
;
_chemical_formula_sum "Si O2"
_cell_formula_units_Z 25
_cell_length_a 9.892862
_cell_length_b 9.892862
_cell_length_c 14.942691
_cell_angle_alpha 90.000000
_cell_angle_beta 90.000000
_cell_angle_gamma 90.000000
_cell_volume 1462.422020
_symmetry_space_group_name_H-M "P -4 M 2"
_symmetry_group_IT_number 115
_symmetry_cell_setting 'tetragonal'
loop_
_space_group_symop_operation_xyz
x,y,z
y,-x,-z
-x,-y,z
-y,x,-z
y,x,-z
-y,-x,-z
-x,y,z
x,-y,z
loop_
_atom_site_type_symbol
_atom_site_label
_atom_site_fract_x
_atom_site_fract_y
_atom_site_fract_z
Si Si1 0.000000 0.000000 0.000000
Si Si2 0.000000 0.500000 0.582345
Si Si3 0.652449 0.205132 0.730814
Si Si4 0.292875 0.000000 0.576204
Si Si5 0.500000 0.500000 0.500000
Si Si6 0.500000 0.708532 0.337885
Si Si7 0.000000 0.000000 0.500000
Si Si8 0.846143 0.000000 0.825815
O O1 0.873651 0.000000 0.932098
O O2 0.000000 0.629178 0.516941
O O3 0.866136 0.500000 0.640481
O O4 0.500000 0.179806 0.763771
O O5 0.666364 0.129855 0.634873
O O6 0.672750 0.363568 0.715042
O O7 0.762487 0.129654 0.791994
O O8 0.134166 0.000000 0.559350
O O9 0.500000 0.626740 0.432119
O O10 0.000000 0.000000 0.787637
#
# Coordination Sequence:
#
# PCOD9557429 Si02
#       8
#     1   2   8   4   1   4   1   4
#     4   8  20  42  68 104 116 138 180 244 304 378
#     4  12  22  34  48  78 114 154 210 270 300 322
#     4  11  21  39  59  83 114 161 198 235 291 370
#     4  11  21  36  47  74 105 156 205 253 294 347
#     4  12  20  40  52  84 120 186 196 280 288 348
#     4  12  24  34  58  82 121 158 218 252 301 328
#     4  12  24  30  48  64 108 142 204 264 312 298
#     4   9  21  38  71  86 123 139 185 233 302 367
#
# _framework density 17.094926999999998
#
# number of rings (size 3 to 8) (size 9 to 14) (size 15 to 20)
#    0.480    0.640    3.200    5.280    6.720    0.000 
#    0.000    0.000    7.040    0.000    0.000    0.000 
#    0.000    0.000    0.000    0.000    0.000    0.000 
#
# Total GULP energy -139554.375214 kJ/mol
# GULP energy per Si atom -5582.175009 kJ/mol
# Density = 1.705602 g / cm^3
# Si number density = 17.094927 Si / 1000 Ang^3
#
#
#
# Elastic Constant Matrix: (Units=GPa)
#
#
# Indices 1 2 3 4 5 6 
#
# 1 163.7806 43.0288 38.6775 0.0000 0.0000 0.0000
# 2 43.0288 163.7806 38.6775 0.0000 0.0000 0.0000
# 3 38.6775 38.6775 61.3378 0.0000 0.0000 0.0000
# 4 0.0000 0.0000 0.0000 6.0161 0.0000 0.0000
# 5 0.0000 0.0000 0.0000 0.0000 6.0161 0.0000
# 6 0.0000 0.0000 0.0000 0.0000 0.0000 33.6132
#
#
#
# Elastic Compliance Matrix: (Units=1/GPa)
#
#
# Indices 1 2 3 4 5 6 
#
# 1 0.007305 -0.000977 -0.003990 0.000000 0.000000 0.000000
# 2 -0.000977 0.007305 -0.003990 0.000000 0.000000 0.000000
# 3 -0.003990 -0.003990 0.021335 0.000000 0.000000 0.000000
# 4 0.000000 0.000000 0.000000 0.166220 0.000000 0.000000
# 5 0.000000 0.000000 0.000000 0.000000 0.166220 0.000000
# 6 0.000000 0.000000 0.000000 0.000000 0.000000 0.029750
#
#
# Mechanical properties :
#
#
# Convention : Reuss Voigt Hill
#
# Bulk Modulus (GPa) = 55.46183 69.96298 62.71240
# Shear Modulus (GPa) = 11.84671 27.03011 19.43841
#
# Velocity S-wave (km/s) = 2.63534 3.98072 3.37573
# Velocity P-wave (km/s) = 6.46327 7.88309 7.20823
#
# Compressibility (1/GPa) = 0.01803042
#
# Stress axis : x y z
#
# Youngs Moduli (GPa) = 136.89924 136.89924 46.87090
#
# Poissons Ratio (x) = 0.13372 0.18702
# Poissons Ratio (y) = 0.13372 0.18702
# Poissons Ratio (z) = 0.54624 0.54624
#
# Static dielectric constant tensor:
#      x y z
#    x 1.592650 0.000000 0.000000 
#    y 0.000000 1.592650 0.000000 
#    z 0.000000 0.000000 1.548630 
# 
# From -- ./inp_files/4008.got.cif
#   From: 2010.05.17/outbox.cif.g08.bks.cpg/sg115_3_cif.got.tgz:4008.got - 2010.05.20 11:07:42.
