data_PCOD9557016
_publ_section_title
;
Structure prediction by ZEFSAII (Michael W. Deem and Ramdas Pophale) SiO2 
 PCOD9557016
Probable space group: P -4 M 2
;
_chemical_formula_sum "Si O2"
_cell_formula_units_Z 40
_cell_length_a 9.162348
_cell_length_b 9.162348
_cell_length_c 26.704143
_cell_angle_alpha 90.000000
_cell_angle_beta 90.000000
_cell_angle_gamma 90.000000
_cell_volume 2241.775976
_symmetry_space_group_name_H-M "P -4 M 2"
_symmetry_group_IT_number 115
_symmetry_cell_setting 'tetragonal'
loop_
_space_group_symop_operation_xyz
x,y,z
y,-x,-z
-x,-y,z
-y,x,-z
y,x,-z
-y,-x,-z
-x,y,z
x,-y,z
loop_
_atom_site_type_symbol
_atom_site_label
_atom_site_fract_x
_atom_site_fract_y
_atom_site_fract_z
Si Si1 0.324107 0.669873 0.852837
Si Si2 0.173937 0.673640 0.452792
Si Si3 0.677545 0.331577 0.257888
Si Si4 0.170570 0.824268 0.944406
Si Si5 0.324660 0.172302 0.359289
O O1 0.500000 0.675461 0.853760
O O2 0.280618 0.500000 0.857376
O O3 0.280259 0.725086 0.797337
O O4 0.258845 0.757724 0.898769
O O5 0.249329 0.750671 0.500000
O O6 0.200199 0.500000 0.454578
O O7 0.242408 0.741107 0.402653
O O8 0.000000 0.697935 0.454183
O O9 0.500000 0.332674 0.255957
O O10 0.723593 0.500000 0.265665
O O11 0.719800 0.233248 0.304817
O O12 0.000000 0.784162 0.939421
O O13 0.179022 0.000000 0.943478
O O14 0.222242 0.777759 0.000000
O O15 0.500000 0.194286 0.364559
O O16 0.296290 0.000000 0.363227
#
# Coordination Sequence:
#
# PCOD9557016 Si02
#       5
#     8   8   8   8   8
#     4   9  18  32  51  77 105 131 165 211 259 306
#     4  11  24  40  58  81 108 139 176 215 256 305
#     4   8  15  30  51  74 103 138 172 208 252 301
#     4   9  19  35  51  68  95 132 172 212 255 307
#     4  10  20  34  55  83 110 137 173 214 255 302
#
# _framework density 17.842998000000001
#
# number of rings (size 3 to 8) (size 9 to 14) (size 15 to 20)
#    0.000    2.600    0.000    3.600    0.000    7.600 
#    0.000    6.000    0.000    1.200    0.000    0.000 
#    0.000    0.000    0.000    0.000    0.000    0.000 
#
# Total GULP energy -223109.640192 kJ/mol
# GULP energy per Si atom -5577.741005 kJ/mol
# Density = 1.780239 g / cm^3
# Si number density = 17.842998 Si / 1000 Ang^3
#
#
#
# Elastic Constant Matrix: (Units=GPa)
#
#
# Indices 1 2 3 4 5 6 
#
# 1 55.2789 48.5948 69.6659 0.0000 0.0000 0.0000
# 2 48.5948 55.2790 69.6659 0.0000 0.0000 0.0000
# 3 69.6659 69.6659 196.4761 0.0000 0.0000 0.0000
# 4 0.0000 0.0000 0.0000 207.5636 0.0000 0.0000
# 5 0.0000 0.0000 0.0000 0.0000 207.5808 0.0000
# 6 0.0000 0.0000 0.0000 0.0000 0.0000 26.6393
#
#
#
# Elastic Compliance Matrix: (Units=1/GPa)
#
#
# Indices 1 2 3 4 5 6 
#
# 1 0.083984 -0.065625 -0.006510 0.000000 0.000000 0.000000
# 2 -0.065625 0.083983 -0.006510 0.000000 0.000000 0.000000
# 3 -0.006510 -0.006510 0.009706 0.000000 0.000000 0.000000
# 4 0.000000 0.000000 0.000000 0.004818 0.000000 0.000000
# 5 0.000000 0.000000 0.000000 0.000000 0.004817 0.000000
# 6 0.000000 0.000000 0.000000 0.000000 0.000000 0.037538
#
#
# Mechanical properties :
#
#
# Convention : Reuss Voigt Hill
#
# Bulk Modulus (GPa) = 49.05540 75.87638 62.46589
# Shear Modulus (GPa) = 12.85580 96.29726 54.57653
#
# Velocity S-wave (km/s) = 2.68712 7.35434 5.53656
# Velocity P-wave (km/s) = 6.09754 10.71130 8.71527
#
# Compressibility (1/GPa) = 0.02038512
#
# Stress axis : x y z
#
# Youngs Moduli (GPa) = 11.90709 11.90712 103.02931
#
# Poissons Ratio (x) = 0.78140 0.67068
# Poissons Ratio (y) = 0.78140 0.67067
# Poissons Ratio (z) = 0.07751 0.07751
#
# Static dielectric constant tensor:
#      x y z
#    x 1.591120 0.000000 0.000000 
#    y 0.000000 1.591120 0.000000 
#    z 0.000000 0.000000 1.607730 
# 
# From -- ./inp_files/5101.got.cif
#   From: 2010.05.17/outbox.cif.g08.bks.cpg/sg115_3_cif.got.tgz:5101.got - 2010.05.20 11:07:42.
