data_PCOD9557261
_publ_section_title
;
Structure prediction by ZEFSAII (Michael W. Deem and Ramdas Pophale) SiO2 
 PCOD9557261
Probable space group: P -4 M 2
;
_chemical_formula_sum "Si O2"
_cell_formula_units_Z 40
_cell_length_a 9.364056
_cell_length_b 9.364056
_cell_length_c 26.314582
_cell_angle_alpha 90.000000
_cell_angle_beta 90.000000
_cell_angle_gamma 90.000000
_cell_volume 2307.408458
_symmetry_space_group_name_H-M "P -4 M 2"
_symmetry_group_IT_number 115
_symmetry_cell_setting 'tetragonal'
loop_
_space_group_symop_operation_xyz
x,y,z
y,-x,-z
-x,-y,z
-y,x,-z
y,x,-z
-y,-x,-z
-x,y,z
x,-y,z
loop_
_atom_site_type_symbol
_atom_site_label
_atom_site_fract_x
_atom_site_fract_y
_atom_site_fract_z
Si Si1 0.171805 0.168238 0.261211
Si Si2 0.828929 0.832299 0.854157
Si Si3 0.671331 0.331649 0.056886
Si Si4 0.670209 0.830557 0.454902
Si Si5 0.332631 0.670901 0.649516
O O1 0.212253 0.209744 0.203440
O O2 0.248737 0.262553 0.303163
O O3 0.000000 0.181389 0.265142
O O4 0.206351 0.000000 0.268289
O O5 0.753328 0.744532 0.898036
O O6 0.000000 0.818494 0.858204
O O7 0.793914 0.000000 0.859418
O O8 0.500000 0.316700 0.059505
O O9 0.704084 0.500000 0.061588
O O10 0.715714 0.284287 0.000000
O O11 0.758968 0.758968 0.500000
O O12 0.500000 0.809578 0.463862
O O13 0.706375 0.753075 0.401904
O O14 0.696674 0.000000 0.451529
O O15 0.500000 0.706143 0.644023
O O16 0.320772 0.500000 0.657012
#
# Coordination Sequence:
#
# PCOD9557261 Si02
#       5
#     8   8   8   8   8
#     4   9  19  36  55  75 103 138 173 211 256 305
#     4   9  19  35  53  75 103 134 170 212 257 305
#     4   9  19  35  52  72 101 135 170 210 256 306
#     4  10  21  37  57  80 106 138 175 213 255 304
#     4  10  21  36  55  80 108 138 173 213 257 304
#
# _framework density 17.335464000000002
#
# number of rings (size 3 to 8) (size 9 to 14) (size 15 to 20)
#    0.000    2.600    0.000    3.000    0.000    6.800 
#    0.000    9.000    0.000    0.000    0.000    0.000 
#    0.000    0.000    0.000    0.000    0.000    0.000 
#
# Total GULP energy -223167.481213 kJ/mol
# GULP energy per Si atom -5579.187030 kJ/mol
# Density = 1.729601 g / cm^3
# Si number density = 17.335464 Si / 1000 Ang^3
#
#
#
# Elastic Constant Matrix: (Units=GPa)
#
#
# Indices 1 2 3 4 5 6 
#
# 1 57.1484 48.2117 81.0300 0.0000 0.0000 0.0000
# 2 48.2117 57.1485 81.0300 0.0000 0.0000 0.0000
# 3 81.0300 81.0300 183.1323 0.0000 0.0000 0.0000
# 4 0.0000 0.0000 0.0000 40.2909 0.0000 0.0000
# 5 0.0000 0.0000 0.0000 0.0000 40.2907 0.0000
# 6 0.0000 0.0000 0.0000 0.0000 0.0000 33.9645
#
#
#
# Elastic Compliance Matrix: (Units=1/GPa)
#
#
# Indices 1 2 3 4 5 6 
#
# 1 0.070806 -0.041092 -0.013148 0.000000 0.000000 0.000000
# 2 -0.041092 0.070806 -0.013148 0.000000 0.000000 0.000000
# 3 -0.013148 -0.013148 0.017095 0.000000 0.000000 0.000000
# 4 0.000000 0.000000 0.000000 0.024820 0.000000 0.000000
# 5 0.000000 0.000000 0.000000 0.000000 0.024820 0.000000
# 6 0.000000 0.000000 0.000000 0.000000 0.000000 0.029443
#
#
# Mechanical properties :
#
#
# Convention : Reuss Voigt Hill
#
# Bulk Modulus (GPa) = 41.78255 79.77473 60.77864
# Shear Modulus (GPa) = 13.13922 28.71971 20.92947
#
# Velocity S-wave (km/s) = 2.75606 4.07468 3.47842
# Velocity P-wave (km/s) = 5.85512 8.26169 7.16023
#
# Compressibility (1/GPa) = 0.02393344
#
# Stress axis : x y z
#
# Youngs Moduli (GPa) = 14.12310 14.12314 58.49577
#
# Poissons Ratio (x) = 0.58034 0.76908
# Poissons Ratio (y) = 0.58034 0.76907
# Poissons Ratio (z) = 0.18569 0.18568
#
# Static dielectric constant tensor:
#      x y z
#    x 1.572280 0.000000 0.000000 
#    y 0.000000 1.572280 0.000000 
#    z 0.000000 0.000000 1.567760 
# 
# From -- ./inp_files/5052.got.cif
#   From: 2010.05.17/outbox.cif.g08.bks.cpg/sg115_3_cif.got.tgz:5052.got - 2010.05.20 11:07:42.
