data_PCOD9557579
_publ_section_title
;
Structure prediction by ZEFSAII (Michael W. Deem and Ramdas Pophale) SiO2 
 PCOD9557579
Probable space group: P -4 C 2
;
_chemical_formula_sum "Si O2"
_cell_formula_units_Z 48
_cell_length_a 20.567348
_cell_length_b 20.567348
_cell_length_c 5.505879
_cell_angle_alpha 90.000000
_cell_angle_beta 90.000000
_cell_angle_gamma 90.000000
_cell_volume 2329.073831
_symmetry_space_group_name_H-M "P -4 C 2"
_symmetry_group_IT_number 116
_symmetry_cell_setting 'tetragonal'
loop_
_space_group_symop_operation_xyz
x,y,z
y,-x,-z
-x,-y,z
-y,x,-z
y,x,1/2-z
-y,-x,1/2-z
-x,y,1/2+z
x,-y,1/2+z
loop_
_atom_site_type_symbol
_atom_site_label
_atom_site_fract_x
_atom_site_fract_y
_atom_site_fract_z
Si Si1 0.686522 0.837424 0.976484
Si Si2 0.713881 0.688741 0.008335
Si Si3 0.534693 0.365599 0.361551
Si Si4 0.790104 0.462531 0.087453
Si Si5 0.658877 0.860685 0.479912
Si Si6 0.024476 0.574787 0.415994
O O1 0.609347 0.820288 0.944570
O O2 0.702258 0.870029 0.720327
O O3 0.722183 0.767777 0.010598
O O4 0.692128 0.876552 0.224263
O O5 0.673648 0.673648 0.250000
O O6 0.781945 0.651191 0.026773
O O7 0.681619 0.681619 0.750000
O O8 0.592753 0.407248 0.250000
O O9 0.517144 0.380213 0.642804
O O10 0.544124 0.287617 0.377550
O O11 0.807863 0.500636 0.335901
O O12 0.594036 0.903222 0.503459
O O13 0.000000 0.500000 0.394297
O O14 0.983925 0.601884 0.644310
#
# Coordination Sequence:
#
# PCOD9557579 Si02
#       6
#     8   8   8   8   8   8
#     4  10  19  34  52  77 100 123 157 211 259 313
#     4   8  16  29  49  73  98 115 153 205 261 314
#     4  10  21  35  51  66  85 109 137 175 219 276
#     4  10  21  37  47  69  98 120 149 181 241 315
#     4  10  19  34  53  75  94 127 169 207 262 311
#     4  10  21  38  51  69  99 135 176 219 250 293
#
# _framework density 20.60905
#
# number of rings (size 3 to 8) (size 9 to 14) (size 15 to 20)
#    0.000    2.333    0.000    2.500    0.000    3.000 
#   18.000    8.333    0.000    0.000    0.000    0.000 
#    0.000    0.000    0.000    0.000    0.000    0.000 
#
# Total GULP energy -267449.257867 kJ/mol
# GULP energy per Si atom -5571.859539 kJ/mol
# Density = 2.056214 g / cm^3
# Si number density = 20.609050 Si / 1000 Ang^3
#
#
#
# Elastic Constant Matrix: (Units=GPa)
#
#
# Indices 1 2 3 4 5 6 
#
# 1 41.8975 28.0605 10.4299 0.0000 0.0000 0.0000
# 2 28.0605 41.8992 10.4291 0.0000 0.0000 0.0000
# 3 10.4299 10.4291 200.5732 0.0000 0.0000 0.0000
# 4 0.0000 0.0000 0.0000 21.7456 0.0000 0.0000
# 5 0.0000 0.0000 0.0000 0.0000 21.7449 0.0000
# 6 0.0000 0.0000 0.0000 0.0000 0.0000 21.0266
#
#
#
# Elastic Compliance Matrix: (Units=1/GPa)
#
#
# Indices 1 2 3 4 5 6 
#
# 1 0.043393 -0.028873 -0.000755 0.000000 0.000000 0.000000
# 2 -0.028873 0.043391 -0.000755 0.000000 0.000000 0.000000
# 3 -0.000755 -0.000755 0.005064 0.000000 0.000000 0.000000
# 4 0.000000 0.000000 0.000000 0.045986 0.000000 0.000000
# 5 0.000000 0.000000 0.000000 0.000000 0.045988 0.000000
# 6 0.000000 0.000000 0.000000 0.000000 0.000000 0.047559
#
#
# Mechanical properties :
#
#
# Convention : Reuss Voigt Hill
#
# Bulk Modulus (GPa) = 32.17218 42.46767 37.31993
# Shear Modulus (GPa) = 16.52842 28.60009 22.56425
#
# Velocity S-wave (km/s) = 2.83503 3.72929 3.31247
# Velocity P-wave (km/s) = 5.13431 6.26055 5.72519
#
# Compressibility (1/GPa) = 0.03108275
#
# Stress axis : x y z
#
# Youngs Moduli (GPa) = 23.04502 23.04599 197.46347
#
# Poissons Ratio (x) = 0.66541 0.14912
# Poissons Ratio (y) = 0.66538 0.14904
# Poissons Ratio (z) = 0.01740 0.01739
#
# Static dielectric constant tensor:
#      x y z
#    x 1.738750 0.000000 0.000000 
#    y 0.000000 1.738750 0.000000 
#    z 0.000000 0.000000 2.006800 
# 
# From -- ./inp_files/168.got.cif
#   From: 2010.05.17/outbox.cif.g08.bks.cpg/sg116_1_cif.got.tgz:168.got - 2010.05.20 11:11:43.
