data_PCOD9557012
_publ_section_title
;
Structure prediction by ZEFSAII (Michael W. Deem and Ramdas Pophale) SiO2 
 PCOD9557012
Probable space group: P -4 M 2
;
_chemical_formula_sum "Si O2"
_cell_formula_units_Z 48
_cell_length_a 9.102479
_cell_length_b 9.102479
_cell_length_c 32.608215
_cell_angle_alpha 90.000000
_cell_angle_beta 90.000000
_cell_angle_gamma 90.000000
_cell_volume 2701.757695
_symmetry_space_group_name_H-M "P -4 M 2"
_symmetry_group_IT_number 115
_symmetry_cell_setting 'tetragonal'
loop_
_space_group_symop_operation_xyz
x,y,z
y,-x,-z
-x,-y,z
-y,x,-z
y,x,-z
-y,-x,-z
-x,y,z
x,-y,z
loop_
_atom_site_type_symbol
_atom_site_label
_atom_site_fract_x
_atom_site_fract_y
_atom_site_fract_z
Si Si1 0.823494 0.326957 0.383660
Si Si2 0.169773 0.821173 0.699690
Si Si3 0.326949 0.676955 0.866549
Si Si4 0.674564 0.678337 0.044095
Si Si5 0.828908 0.177094 0.209790
Si Si6 0.325231 0.174374 0.461017
O O1 0.794182 0.500000 0.386963
O O2 0.777324 0.266212 0.339119
O O3 0.743590 0.240654 0.419786
O O4 0.000000 0.305319 0.387389
O O5 0.222158 0.773153 0.744846
O O6 0.000000 0.775680 0.693721
O O7 0.169796 0.000000 0.701183
O O8 0.500000 0.712783 0.863130
O O9 0.314838 0.500000 0.866473
O O10 0.272481 0.731824 0.911468
O O11 0.242427 0.742020 0.828154
O O12 0.500000 0.289896 0.044005
O O13 0.687150 0.500000 0.044052
O O14 0.733110 0.733110 0.000000
O O15 0.000000 0.220317 0.206222
O O16 0.822623 0.000000 0.209189
O O17 0.251442 0.251442 0.500000
O O18 0.500000 0.198998 0.461775
O O19 0.298373 0.000000 0.462744
#
# Coordination Sequence:
#
# PCOD9557012 Si02
#       6
#     8   8   8   8   8   8
#     4  10  20  34  55  83 109 132 163 204 250 298
#     4   8  15  30  51  72  95 127 168 209 243 280
#     4   9  17  28  44  69  96 119 150 195 244 293
#     4   7  10  19  37  60  85 113 146 187 235 284
#     4   9  18  32  49  69  94 127 166 202 238 286
#     4  11  24  40  58  81 108 139 175 210 245 289
#
# _framework density 17.766214000000002
#
# number of rings (size 3 to 8) (size 9 to 14) (size 15 to 20)
#    0.000    3.000    0.000    4.000    0.000    5.667 
#    0.000    2.500    0.000    2.000    0.000    5.833 
#    0.000    0.000    0.000    0.000    0.000    0.000 
#
# Total GULP energy -267355.933596 kJ/mol
# GULP energy per Si atom -5569.915283 kJ/mol
# Density = 1.772578 g / cm^3
# Si number density = 17.766214 Si / 1000 Ang^3
#
#
#
# Elastic Constant Matrix: (Units=GPa)
#
#
# Indices 1 2 3 4 5 6 
#
# 1 36.2749 38.6592 58.4879 0.0000 0.0000 0.0000
# 2 38.6592 36.2749 58.4879 0.0000 0.0000 0.0000
# 3 58.4879 58.4879 209.6166 0.0000 0.0000 0.0000
# 4 0.0000 0.0000 0.0000 29.0094 0.0000 0.0000
# 5 0.0000 0.0000 0.0000 0.0000 29.0094 0.0000
# 6 0.0000 0.0000 0.0000 0.0000 0.0000 21.6795
#
#
#
# Elastic Compliance Matrix: (Units=1/GPa)
#
#
# Indices 1 2 3 4 5 6 
#
# 1 -0.197877 0.221520 -0.006597 0.000000 0.000000 0.000000
# 2 0.221520 -0.197877 -0.006597 0.000000 0.000000 0.000000
# 3 -0.006597 -0.006597 0.008452 0.000000 0.000000 0.000000
# 4 0.000000 0.000000 0.000000 0.034472 0.000000 0.000000
# 5 0.000000 0.000000 0.000000 0.000000 0.034472 0.000000
# 6 0.000000 0.000000 0.000000 0.000000 0.000000 0.046127
#
#
# Mechanical properties :
#
#
# Convention : Reuss Voigt Hill
#
# Bulk Modulus (GPa) = 34.07082 65.93739 50.00410
# Shear Modulus (GPa) = -7.36269 24.37509 8.50620
#
# Velocity S-wave (km/s) = -2.03794 3.70806 2.19049
# Velocity P-wave (km/s) = 3.69883 7.45167 5.88255
#
# Compressibility (1/GPa) = 0.02935063
#
# Stress axis : x y z
#
# Youngs Moduli (GPa) = -5.05365 -5.05365 118.31408
#
# Poissons Ratio (x) = 1.11949 0.78052
# Poissons Ratio (y) = 1.11949 0.78052
# Poissons Ratio (z) = -0.03334 -0.03334
#
# Static dielectric constant tensor:
#      x y z
#    x 1.594510 0.000000 0.000000 
#    y 0.000000 1.594510 0.000000 
#    z 0.000000 0.000000 1.635530 
# 
# From -- ./inp_files/6117.got.cif
#   From: 2010.05.17/outbox.cif.g08.bks.cpg/sg115_4_cif.got.tgz:6117.got - 2010.05.20 11:07:42.
