data_PCOD9557172
_publ_section_title
;
Structure prediction by ZEFSAII (Michael W. Deem and Ramdas Pophale) SiO2 
 PCOD9557172
Probable space group: P -4 M 2
;
_chemical_formula_sum "Si O2"
_cell_formula_units_Z 48
_cell_length_a 9.256734
_cell_length_b 9.256734
_cell_length_c 31.580491
_cell_angle_alpha 90.000000
_cell_angle_beta 90.000000
_cell_angle_gamma 90.000000
_cell_volume 2706.041459
_symmetry_space_group_name_H-M "P -4 M 2"
_symmetry_group_IT_number 115
_symmetry_cell_setting 'tetragonal'
loop_
_space_group_symop_operation_xyz
x,y,z
y,-x,-z
-x,-y,z
-y,x,-z
y,x,-z
-y,-x,-z
-x,y,z
x,-y,z
loop_
_atom_site_type_symbol
_atom_site_label
_atom_site_fract_x
_atom_site_fract_y
_atom_site_fract_z
Si Si1 0.171075 0.327432 0.662481
Si Si2 0.828231 0.171770 0.500000
Si Si3 0.173209 0.330537 0.414004
Si Si4 0.171379 0.827157 0.922241
Si Si5 0.672129 0.327872 0.000000
Si Si6 0.673555 0.170038 0.241233
Si Si7 0.826916 0.668421 0.165132
O O1 0.191500 0.500000 0.658907
O O2 0.258821 0.247176 0.626420
O O3 0.211063 0.285117 0.710621
O O4 0.000000 0.298773 0.657405
O O5 0.746291 0.219025 0.542348
O O6 0.000000 0.195088 0.505748
O O7 0.205515 0.500000 0.415878
O O8 0.000000 0.312334 0.410617
O O9 0.241587 0.789768 0.877004
O O10 0.000000 0.798482 0.922255
O O11 0.191388 0.000000 0.928991
O O12 0.250854 0.740369 0.959114
O O13 0.500000 0.302862 0.998109
O O14 0.500000 0.183626 0.238033
O O15 0.749798 0.264357 0.205773
O O16 0.708534 0.000000 0.235399
O O17 0.789248 0.500000 0.159572
O O18 0.000000 0.678368 0.170633
#
# Coordination Sequence:
#
# PCOD9557172 Si02
#       7
#     8   4   8   8   4   8   8
#     4   9  19  36  56  77 103 138 179 220 262 311
#     4   9  18  34  54  73  98 136 178 215 254 305
#     4  10  21  35  52  78 109 137 169 213 263 314
#     4  10  21  38  60  83 107 140 182 223 265 315
#     4  11  24  39  56  82 114 145 178 217 264 318
#     4   9  19  36  56  78 105 139 180 222 264 313
#     4  10  21  36  55  81 112 144 178 219 267 316
#
# _framework density 17.738088999999999
#
# number of rings (size 3 to 8) (size 9 to 14) (size 15 to 20)
#    0.000    2.333    0.000    3.000    0.000    8.000 
#    0.000    6.667    0.000    0.000    0.000    0.000 
#    0.000    0.000    0.000    0.000    0.000    0.000 
#
# Total GULP energy -267977.547734 kJ/mol
# GULP energy per Si atom -5582.865578 kJ/mol
# Density = 1.769772 g / cm^3
# Si number density = 17.738089 Si / 1000 Ang^3
#
#
#
# Elastic Constant Matrix: (Units=GPa)
#
#
# Indices 1 2 3 4 5 6 
#
# 1 75.9358 68.9750 96.9116 0.0000 0.0000 0.0000
# 2 68.9750 75.9358 96.9117 0.0000 0.0000 0.0000
# 3 96.9116 96.9117 197.9729 0.0000 0.0000 0.0000
# 4 0.0000 0.0000 0.0000 145.2022 0.0000 0.0000
# 5 0.0000 0.0000 0.0000 0.0000 145.1888 0.0000
# 6 0.0000 0.0000 0.0000 0.0000 0.0000 30.0906
#
#
#
# Elastic Compliance Matrix: (Units=1/GPa)
#
#
# Indices 1 2 3 4 5 6 
#
# 1 0.081825 -0.061837 -0.009784 0.000000 0.000000 0.000000
# 2 -0.061837 0.081825 -0.009784 0.000000 0.000000 0.000000
# 3 -0.009784 -0.009784 0.014631 0.000000 0.000000 0.000000
# 4 0.000000 0.000000 0.000000 0.006887 0.000000 0.000000
# 5 0.000000 0.000000 0.000000 0.000000 0.006888 0.000000
# 6 0.000000 0.000000 0.000000 0.000000 0.000000 0.033233
#
#
# Mechanical properties :
#
#
# Convention : Reuss Voigt Hill
#
# Bulk Modulus (GPa) = 64.64774 97.27123 80.95948
# Shear Modulus (GPa) = 12.71433 69.89939 41.30686
#
# Velocity S-wave (km/s) = 2.68018 6.28426 4.83091
# Velocity P-wave (km/s) = 6.78989 10.37364 8.76684
#
# Compressibility (1/GPa) = 0.01546845
#
# Stress axis : x y z
#
# Youngs Moduli (GPa) = 12.22118 12.22117 68.35021
#
# Poissons Ratio (x) = 0.75573 0.66876
# Poissons Ratio (y) = 0.75573 0.66877
# Poissons Ratio (z) = 0.11958 0.11958
#
# Static dielectric constant tensor:
#      x y z
#    x 1.588330 0.000000 0.000000 
#    y 0.000000 1.588330 0.000000 
#    z 0.000000 0.000000 1.576710 
# 
# From -- ./inp_files/6228.got.cif
#   From: 2010.05.17/outbox.cif.g08.bks.cpg/sg115_4_cif.got.tgz:6228.got - 2010.05.20 11:07:42.
