data_PCOD9557755
_publ_section_title
;
Structure prediction by ZEFSAII (Michael W. Deem and Ramdas Pophale) SiO2 
 PCOD9557755
Probable space group: P -4 C 2
;
_chemical_formula_sum "Si O2"
_cell_formula_units_Z 40
_cell_length_a 14.577262
_cell_length_b 14.577262
_cell_length_c 8.055749
_cell_angle_alpha 90.000000
_cell_angle_beta 90.000000
_cell_angle_gamma 90.000000
_cell_volume 1711.819010
_symmetry_space_group_name_H-M "P -4 C 2"
_symmetry_group_IT_number 116
_symmetry_cell_setting 'tetragonal'
loop_
_space_group_symop_operation_xyz
x,y,z
y,-x,-z
-x,-y,z
-y,x,-z
y,x,1/2-z
-y,-x,1/2-z
-x,y,1/2+z
x,-y,1/2+z
loop_
_atom_site_type_symbol
_atom_site_label
_atom_site_fract_x
_atom_site_fract_y
_atom_site_fract_z
Si Si1 0.557910 0.776215 0.289387
Si Si2 0.927962 0.581851 0.785498
Si Si3 0.332938 0.410472 0.890131
Si Si4 0.500000 0.500000 0.000000
Si Si5 0.000000 0.000000 0.000000
Si Si6 0.687574 0.915239 0.371514
Si Si7 0.108174 0.891827 0.750000
O O1 0.471113 0.847058 0.313700
O O2 0.508563 0.708621 0.163997
O O3 0.602943 0.715796 0.434986
O O4 0.638516 0.845400 0.242120
O O5 0.000000 0.500000 0.832787
O O6 0.983179 0.653572 0.674124
O O7 0.896538 0.637843 0.949912
O O8 0.330902 0.330902 0.750000
O O9 0.441569 0.423432 0.910293
O O10 0.969267 0.085782 0.887404
O O11 0.794653 0.902779 0.341859
#
# Coordination Sequence:
#
# PCOD9557755 Si02
#       7
#     8   8   8   2   2   8   4
#     4  11  24  43  67 100 138 182 236 298 352 426
#     4  10  21  41  70 104 144 182 222 295 380 439
#     4  12  25  42  63  91 133 189 239 281 344 407
#     4  12  26  40  62  80 126 188 230 276 338 392
#     4  10  24  50  72  94 152 194 232 294 404 470
#     4  11  23  41  71 108 137 176 237 294 369 440
#     4  11  24  46  74 106 139 192 244 306 369 474
#
# _framework density 23.366954
#
# number of rings (size 3 to 8) (size 9 to 14) (size 15 to 20)
#    0.000    1.000    4.000    3.300    2.800    1.600 
#    0.000    0.000    0.000    0.000    0.000    0.000 
#    0.000    0.000    0.000    0.000    0.000    0.000 
#
# Total GULP energy -222817.847895 kJ/mol
# GULP energy per Si atom -5570.446197 kJ/mol
# Density = 2.331377 g / cm^3
# Si number density = 23.366954 Si / 1000 Ang^3
#
#
#
# Elastic Constant Matrix: (Units=GPa)
#
#
# Indices 1 2 3 4 5 6 
#
# 1 91.7145 6.1651 7.6207 0.0000 0.0000 0.0000
# 2 6.1651 91.7154 7.6206 0.0000 0.0000 0.0000
# 3 7.6207 7.6206 38.8405 0.0000 0.0000 0.0000
# 4 0.0000 0.0000 0.0000 25.2355 0.0000 0.0000
# 5 0.0000 0.0000 0.0000 0.0000 25.2355 0.0000
# 6 0.0000 0.0000 0.0000 0.0000 0.0000 27.8692
#
#
#
# Elastic Compliance Matrix: (Units=1/GPa)
#
#
# Indices 1 2 3 4 5 6 
#
# 1 0.011114 -0.000575 -0.002068 0.000000 0.000000 0.000000
# 2 -0.000575 0.011114 -0.002068 0.000000 0.000000 0.000000
# 3 -0.002068 -0.002068 0.026558 0.000000 0.000000 0.000000
# 4 0.000000 0.000000 0.000000 0.039627 0.000000 0.000000
# 5 0.000000 0.000000 0.000000 0.000000 0.039627 0.000000
# 6 0.000000 0.000000 0.000000 0.000000 0.000000 0.035882
#
#
# Mechanical properties :
#
#
# Convention : Reuss Voigt Hill
#
# Bulk Modulus (GPa) = 25.40393 29.45371 27.42882
# Shear Modulus (GPa) = 26.81492 29.05898 27.93695
#
# Velocity S-wave (km/s) = 3.39124 3.53029 3.46146
# Velocity P-wave (km/s) = 5.12146 5.40828 5.26682
#
# Compressibility (1/GPa) = 0.03936399
#
# Stress axis : x y z
#
# Youngs Moduli (GPa) = 89.97756 89.97846 37.65382
#
# Poissons Ratio (x) = 0.05176 0.07786
# Poissons Ratio (y) = 0.05176 0.07786
# Poissons Ratio (z) = 0.18605 0.18605
#
# Static dielectric constant tensor:
#      x y z
#    x 1.888690 0.000000 0.000000 
#    y 0.000000 1.888690 0.000000 
#    z 0.000000 0.000000 2.068680 
# 
# From -- ./inp_files/870.got.cif
#   From: 2010.05.17/outbox.cif.g08.bks.cpg/sg116_1_cif.got.tgz:870.got - 2010.05.20 11:11:43.
