data_PCOD9557487
_publ_section_title
;
Structure prediction by ZEFSAII (Michael W. Deem and Ramdas Pophale) SiO2 
 PCOD9557487
Probable space group: P -4 M 2
;
_chemical_formula_sum "Si O2"
_cell_formula_units_Z 32
_cell_length_a 9.000000
_cell_length_b 9.000000
_cell_length_c 21.000000
_cell_angle_alpha 90.000000
_cell_angle_beta 90.000000
_cell_angle_gamma 90.000000
_cell_volume 1701.000000
_symmetry_space_group_name_H-M "P -4 M 2"
_symmetry_group_IT_number 115
_symmetry_cell_setting 'tetragonal'
loop_
_space_group_symop_operation_xyz
x,y,z
y,-x,-z
-x,-y,z
-y,x,-z
y,x,-z
-y,-x,-z
-x,y,z
x,-y,z
loop_
_atom_site_type_symbol
_atom_site_label
_atom_site_fract_x
_atom_site_fract_y
_atom_site_fract_z
Si Si1 0.828479 0.321751 0.803771
Si Si2 0.322012 0.164617 0.445066
Si Si3 0.829035 0.818683 0.068364
Si Si4 0.681629 0.332454 0.321699
O O1 0.828659 0.500000 0.803712
O O2 0.773051 0.264182 0.871167
O O3 0.728298 0.268445 0.745997
O O4 0.000000 0.273427 0.794770
O O5 0.274004 0.274004 0.500000
O O6 0.500000 0.159851 0.442250
O O7 0.268096 0.224729 0.377555
O O8 0.265715 0.000000 0.458333
O O9 0.000000 0.772981 0.076059
O O10 0.827755 0.000000 0.065569
O O11 0.769146 0.769146 0.000000
O O12 0.500000 0.331647 0.321451
O O13 0.729725 0.500000 0.333853
#
# Coordination Sequence:
#
# PCOD9557487 Si02
#       4
#     8   8   8   8
#     4   9  16  27  45  68  91 116 151 194 234 273
#     4  10  20  34  53  76 100 127 161 200 241 287
#     4   8  14  26  44  64  87 118 154 188 226 277
#     4   9  17  30  49  71  95 125 159 193 232 281
#
# _framework density 18.812463000000001
#
# number of rings (size 3 to 8) (size 9 to 14) (size 15 to 20)
#    0.000    3.000    0.000    2.250    0.000    4.500 
#    0.000    2.500    0.000    6.750    0.000    0.000 
#    0.000    0.000    0.000    0.000    0.000    0.000 
#
# Total GULP energy -178159.276152 kJ/mol
# GULP energy per Si atom -5567.477380 kJ/mol
# Density = 1.876965 g / cm^3
# Si number density = 18.812463 Si / 1000 Ang^3
#
#
#
# Elastic Constant Matrix: (Units=GPa)
#
#
# Indices 1 2 3 4 5 6 
#
# 1 4.3815 19.3315 15.1861 0.0000 0.0000 0.0000
# 2 19.3315 4.3815 15.1861 0.0000 0.0000 0.0000
# 3 15.1861 15.1861 103.0204 0.0000 0.0000 0.0000
# 4 0.0000 0.0000 0.0000 22.1098 0.0000 0.0000
# 5 0.0000 0.0000 0.0000 0.0000 22.1098 0.0000
# 6 0.0000 0.0000 0.0000 0.0000 0.0000 7.3779
#
#
#
# Elastic Compliance Matrix: (Units=1/GPa)
#
#
# Indices 1 2 3 4 5 6 
#
# 1 -0.007452 0.059438 -0.007663 0.000000 0.000000 0.000000
# 2 0.059438 -0.007452 -0.007663 0.000000 0.000000 0.000000
# 3 -0.007663 -0.007663 0.011966 0.000000 0.000000 0.000000
# 4 0.000000 0.000000 0.000000 0.045229 0.000000 0.000000
# 5 0.000000 0.000000 0.000000 0.000000 0.045229 0.000000
# 6 0.000000 0.000000 0.000000 0.000000 0.000000 0.135540
#
#
# Mechanical properties :
#
#
# Convention : Reuss Voigt Hill
#
# Bulk Modulus (GPa) = 11.72533 23.46563 17.59548
# Shear Modulus (GPa) = 30.62492 14.45816 22.54154
#
# Velocity S-wave (km/s) = 4.03911 2.77527 3.46529
# Velocity P-wave (km/s) = 5.29139 4.77179 5.03829
#
# Compressibility (1/GPa) = 0.08528543
#
# Stress axis : x y z
#
# Youngs Moduli (GPa) = -134.19670 -134.19670 83.56983
#
# Poissons Ratio (x) = 7.97635 0.64041
# Poissons Ratio (y) = 7.97635 0.64041
# Poissons Ratio (z) = -1.02837 -1.02837
#
# Static dielectric constant tensor:
#      x y z
#    x 1.648920 0.000000 0.000000 
#    y 0.000000 1.648920 0.000000 
#    z 0.000000 0.000000 1.650720 
# 
# From -- ./inp_files/4590.got.cif
#   From: 2010.05.17/outbox.ucp.g08.bks.cvg/sg115_3_cif.got.tgz:4590.got - 2010.06.11 11:33:38.
