data_PCOD9557086
_publ_section_title
;
Structure prediction by ZEFSAII (Michael W. Deem and Ramdas Pophale) SiO2 
 PCOD9557086
Probable space group: P -4 M 2
;
_chemical_formula_sum "Si O2"
_cell_formula_units_Z 40
_cell_length_a 18.683730
_cell_length_b 18.683730
_cell_length_c 5.261115
_cell_angle_alpha 90.000000
_cell_angle_beta 90.000000
_cell_angle_gamma 90.000000
_cell_volume 1836.559319
_symmetry_space_group_name_H-M "P -4 M 2"
_symmetry_group_IT_number 115
_symmetry_cell_setting 'tetragonal'
loop_
_space_group_symop_operation_xyz
x,y,z
y,-x,-z
-x,-y,z
-y,x,-z
y,x,-z
-y,-x,-z
-x,y,z
x,-y,z
loop_
_atom_site_type_symbol
_atom_site_label
_atom_site_fract_x
_atom_site_fract_y
_atom_site_fract_z
Si Si1 0.801440 0.913520 0.061104
Si Si2 0.586146 0.218541 0.933272
Si Si3 0.586480 0.301442 0.438897
Si Si4 0.917008 0.417008 0.750003
Si Si5 0.718540 0.913854 0.566729
O O1 0.748467 0.888402 0.835170
O O2 0.806228 0.000000 0.060249
O O3 0.876608 0.876608 0.000000
O O4 0.769070 0.890891 0.332110
O O5 0.500000 0.223991 0.920747
O O6 0.609110 0.269071 0.167892
O O7 0.599133 0.137712 0.024428
O O8 0.611598 0.248469 0.664832
O O9 0.623390 0.376611 0.500000
O O10 0.500000 0.306229 0.439750
O O11 0.907157 0.500000 0.672280
O O12 0.900866 0.362289 0.524431
O O13 0.000000 0.407155 0.827728
O O14 0.723988 0.000000 0.579253
#
# Coordination Sequence:
#
# PCOD9557086 Si02
#       5
#     8   8   8   8   8
#     4  10  20  36  57  81 113 152 191 234 287 342
#     4   9  19  35  55  82 115 147 183 236 293 335
#     4  10  20  36  57  81 113 152 191 234 287 342
#     4   9  18  36  62  88 114 152 200 240 282 349
#     4   9  19  35  55  82 115 147 183 236 293 335
#
# _framework density 21.779855999999999
#
# number of rings (size 3 to 8) (size 9 to 14) (size 15 to 20)
#    0.000    2.600    0.000    1.200    0.000    2.000 
#    0.000   10.000    0.000   24.000    0.000    0.000 
#    0.000    0.000    0.000    0.000    0.000    0.000 
#
# Total GULP energy -223449.472199 kJ/mol
# GULP energy per Si atom -5586.236805 kJ/mol
# Density = 2.173028 g / cm^3
# Si number density = 21.779856 Si / 1000 Ang^3
#
#
#
# Elastic Constant Matrix: (Units=GPa)
#
#
# Indices 1 2 3 4 5 6 
#
# 1 63.1621 33.3827 20.1161 0.0000 0.0000 0.0000
# 2 33.3827 63.1561 20.1161 0.0000 0.0000 0.0000
# 3 20.1161 20.1161 109.1459 0.0000 0.0000 0.0000
# 4 0.0000 0.0000 0.0000 19.7853 0.0000 0.0000
# 5 0.0000 0.0000 0.0000 0.0000 19.7857 0.0000
# 6 0.0000 0.0000 0.0000 0.0000 0.0000 12.4302
#
#
#
# Elastic Compliance Matrix: (Units=1/GPa)
#
#
# Indices 1 2 3 4 5 6 
#
# 1 0.022401 -0.011182 -0.002068 0.000000 0.000000 0.000000
# 2 -0.011182 0.022403 -0.002068 0.000000 0.000000 0.000000
# 3 -0.002068 -0.002068 0.009924 0.000000 0.000000 0.000000
# 4 0.000000 0.000000 0.000000 0.050543 0.000000 0.000000
# 5 0.000000 0.000000 0.000000 0.000000 0.050542 0.000000
# 6 0.000000 0.000000 0.000000 0.000000 0.000000 0.080449
#
#
# Mechanical properties :
#
#
# Convention : Reuss Voigt Hill
#
# Bulk Modulus (GPa) = 41.50643 42.52156 42.01400
# Shear Modulus (GPa) = 18.18661 21.19018 19.68840
#
# Velocity S-wave (km/s) = 2.89281 3.12256 3.00988
# Velocity P-wave (km/s) = 5.50058 5.70668 5.60458
#
# Compressibility (1/GPa) = 0.02409265
#
# Stress axis : x y z
#
# Youngs Moduli (GPa) = 44.64146 44.63697 100.76287
#
# Poissons Ratio (x) = 0.49912 0.20835
# Poissons Ratio (y) = 0.49917 0.20839
# Poissons Ratio (z) = 0.09230 0.09231
#
# Static dielectric constant tensor:
#      x y z
#    x 1.785450 0.000000 0.000000 
#    y 0.000000 1.785450 0.000000 
#    z 0.000000 0.000000 1.815320 
# 
# From -- ./inp_files/513.got.cif
#   From: 2010.05.17/outbox.cif.g08.bks.cpg/sg115_1_cif.got.tgz:513.got - 2010.05.20 11:07:42.
