data_PCOD9557453
_publ_section_title
;
Structure prediction by ZEFSAII (Michael W. Deem and Ramdas Pophale) SiO2 
 PCOD9557453
Probable space group: P -4 M 2
;
_chemical_formula_sum "Si O2"
_cell_formula_units_Z 44
_cell_length_a 9.208244
_cell_length_b 9.208244
_cell_length_c 29.527580
_cell_angle_alpha 90.000000
_cell_angle_beta 90.000000
_cell_angle_gamma 90.000000
_cell_volume 2503.695405
_symmetry_space_group_name_H-M "P -4 M 2"
_symmetry_group_IT_number 115
_symmetry_cell_setting 'tetragonal'
loop_
_space_group_symop_operation_xyz
x,y,z
y,-x,-z
-x,-y,z
-y,x,-z
y,x,-z
-y,-x,-z
-x,y,z
x,-y,z
loop_
_atom_site_type_symbol
_atom_site_label
_atom_site_fract_x
_atom_site_fract_y
_atom_site_fract_z
Si Si1 0.832303 0.676599 0.227332
Si Si2 0.172882 0.327049 0.957717
Si Si3 0.674035 0.671156 0.317782
Si Si4 0.832661 0.322898 0.591412
Si Si5 0.174867 0.672919 0.125861
Si Si6 0.327028 0.672973 0.500000
O O1 0.828422 0.500000 0.227025
O O2 0.741983 0.725255 0.270744
O O3 0.782480 0.719347 0.176964
O O4 0.000000 0.720013 0.232578
O O5 0.198440 0.500000 0.958701
O O6 0.238247 0.257660 0.912238
O O7 0.000000 0.302332 0.960250
O O8 0.251423 0.251423 0.000000
O O9 0.500000 0.684236 0.314984
O O10 0.708282 0.500000 0.322816
O O11 0.725396 0.754575 0.362514
O O12 0.826695 0.500000 0.591603
O O13 0.752089 0.276530 0.545592
O O14 0.000000 0.279206 0.590915
O O15 0.203660 0.500000 0.120723
O O16 0.000000 0.691086 0.121858
O O17 0.500000 0.695940 0.505194
#
# Coordination Sequence:
#
# PCOD9557453 Si02
#       6
#     8   8   8   8   8   4
#     4   8  15  29  49  73 100 128 159 197 238 280
#     4  11  24  39  55  78 106 135 170 210 251 298
#     4   9  16  27  46  71  95 121 157 196 231 273
#     4   9  17  29  45  66  92 120 150 188 236 283
#     4   9  18  34  56  80 105 134 169 208 250 296
#     4   9  16  28  48  69  86 110 150 195 232 274
#
# _framework density 17.574023
#
# number of rings (size 3 to 8) (size 9 to 14) (size 15 to 20)
#    0.000    2.818    0.000    2.727    0.000    6.909 
#    0.000    3.636    0.000    9.545    0.000    0.000 
#    0.000    0.000    0.000    0.000    0.000    0.000 
#
# Total GULP energy -245278.298917 kJ/mol
# GULP energy per Si atom -5574.506794 kJ/mol
# Density = 1.753402 g / cm^3
# Si number density = 17.574023 Si / 1000 Ang^3
#
#
#
# Elastic Constant Matrix: (Units=GPa)
#
#
# Indices 1 2 3 4 5 6 
#
# 1 52.4809 49.3497 79.5410 0.0000 0.0000 0.0000
# 2 49.3497 52.4805 79.5410 0.0000 0.0000 0.0000
# 3 79.5410 79.5410 225.1094 0.0000 0.0000 0.0000
# 4 0.0000 0.0000 0.0000 -35.7792 0.0000 0.0000
# 5 0.0000 0.0000 0.0000 0.0000 -35.7826 0.0000
# 6 0.0000 0.0000 0.0000 0.0000 0.0000 16.7056
#
#
#
# Elastic Compliance Matrix: (Units=1/GPa)
#
#
# Indices 1 2 3 4 5 6 
#
# 1 0.170651 -0.148732 -0.007745 0.000000 0.000000 0.000000
# 2 -0.148732 0.170654 -0.007746 0.000000 0.000000 0.000000
# 3 -0.007745 -0.007746 0.009916 0.000000 0.000000 0.000000
# 4 0.000000 0.000000 0.000000 -0.027949 0.000000 0.000000
# 5 0.000000 0.000000 0.000000 0.000000 -0.027947 0.000000
# 6 0.000000 0.000000 0.000000 0.000000 0.000000 0.059860
#
#
# Mechanical properties :
#
#
# Convention : Reuss Voigt Hill
#
# Bulk Modulus (GPa) = 43.90807 82.99269 63.45038
# Shear Modulus (GPa) = 7.23355 -2.86196 2.18580
#
# Velocity S-wave (km/s) = 2.03101 -1.27752 1.11645
# Velocity P-wave (km/s) = 5.52620 6.71946 6.15183
#
# Compressibility (1/GPa) = 0.02277486
#
# Stress axis : x y z
#
# Youngs Moduli (GPa) = 5.85990 5.85981 100.84852
#
# Poissons Ratio (x) = 0.87154 0.78107
# Poissons Ratio (y) = 0.87156 0.78116
# Poissons Ratio (z) = 0.04538 0.04539
#
# Static dielectric constant tensor:
#      x y z
#    x 1.584790 0.000000 0.000000 
#    y 0.000000 1.584790 0.000000 
#    z 0.000000 0.000000 1.597240 
# 
# From -- ./inp_files/5716.got.cif
#   From: 2010.05.17/outbox.cif.g08.bks.cpg/sg115_3_cif.got.tgz:5716.got - 2010.05.20 11:07:42.
