data_PCOD9557884
_publ_section_title
;
Structure prediction by ZEFSAII (Michael W. Deem and Ramdas Pophale) SiO2 
 PCOD9557884
Probable space group: P -4 C 2
;
_chemical_formula_sum "Si O2"
_cell_formula_units_Z 26
_cell_length_a 11.199107
_cell_length_b 11.199107
_cell_length_c 8.285846
_cell_angle_alpha 90.000000
_cell_angle_beta 90.000000
_cell_angle_gamma 90.000000
_cell_volume 1039.210785
_symmetry_space_group_name_H-M "P -4 C 2"
_symmetry_group_IT_number 116
_symmetry_cell_setting 'tetragonal'
loop_
_space_group_symop_operation_xyz
x,y,z
y,-x,-z
-x,-y,z
-y,x,-z
y,x,1/2-z
-y,-x,1/2-z
-x,y,1/2+z
x,-y,1/2+z
loop_
_atom_site_type_symbol
_atom_site_label
_atom_site_fract_x
_atom_site_fract_y
_atom_site_fract_z
Si Si1 0.873255 0.325883 0.592744
Si Si2 0.500000 0.500000 0.250000
Si Si3 0.263188 0.850627 0.399265
Si Si4 0.233338 0.523854 0.300438
O O1 0.801663 0.204945 0.553802
O O2 0.836863 0.409661 0.441256
O O3 0.831615 0.404110 0.744018
O O4 0.012685 0.299410 0.591826
O O5 0.371871 0.499776 0.339232
O O6 0.172714 0.827287 0.250000
O O7 0.381838 0.776527 0.348984
#
# Coordination Sequence:
#
# PCOD9557884 Si02
#       4
#     8   2   8   8
#     4  11  25  49  76 110 153 206 257 329 392 475
#     4  12  24  50  80 114 156 190 268 322 412 474
#     4  10  24  49  73 108 153 202 264 316 394 476
#     4  11  26  46  77 112 156 196 258 328 407 470
#
# _framework density 25.018984
#
# number of rings (size 3 to 8) (size 9 to 14) (size 15 to 20)
#    0.000    1.231    4.615    0.923    4.308   11.692 
#    0.000    4.615    0.000    0.000    0.000    0.000 
#    0.000    0.000    0.000    0.000    0.000    0.000 
#
# Total GULP energy -145744.361527 kJ/mol
# GULP energy per Si atom -5605.552366 kJ/mol
# Density = 2.496204 g / cm^3
# Si number density = 25.018984 Si / 1000 Ang^3
#
#
#
# Elastic Constant Matrix: (Units=GPa)
#
#
# Indices 1 2 3 4 5 6 
#
# 1 239.3835 89.1140 56.6857 0.0000 0.0000 0.0000
# 2 89.1140 239.3832 56.6856 0.0000 0.0000 0.0000
# 3 56.6857 56.6856 55.9967 0.0000 0.0000 0.0000
# 4 0.0000 0.0000 0.0000 41.7907 0.0000 0.0000
# 5 0.0000 0.0000 0.0000 0.0000 41.7907 0.0000
# 6 0.0000 0.0000 0.0000 0.0000 0.0000 37.6642
#
#
#
# Elastic Compliance Matrix: (Units=1/GPa)
#
#
# Indices 1 2 3 4 5 6 
#
# 1 0.005667 -0.000988 -0.004736 0.000000 0.000000 0.000000
# 2 -0.000988 0.005667 -0.004736 0.000000 0.000000 0.000000
# 3 -0.004736 -0.004736 0.027447 0.000000 0.000000 0.000000
# 4 0.000000 0.000000 0.000000 0.023929 0.000000 0.000000
# 5 0.000000 0.000000 0.000000 0.000000 0.023929 0.000000
# 6 0.000000 0.000000 0.000000 0.000000 0.000000 0.026550
#
#
# Mechanical properties :
#
#
# Convention : Reuss Voigt Hill
#
# Bulk Modulus (GPa) = 55.99228 104.41490 80.20359
# Shear Modulus (GPa) = 35.69813 46.40100 41.04956
#
# Velocity S-wave (km/s) = 3.78145 4.31122 4.05500
# Velocity P-wave (km/s) = 6.44161 8.16131 7.35192
#
# Compressibility (1/GPa) = 0.01785961
#
# Stress axis : x y z
#
# Youngs Moduli (GPa) = 176.46811 176.46810 36.43329
#
# Poissons Ratio (x) = 0.17435 0.17256
# Poissons Ratio (y) = 0.17435 0.17256
# Poissons Ratio (z) = 0.83581 0.83581
#
# Static dielectric constant tensor:
#      x y z
#    x 1.943960 0.000000 0.000000 
#    y 0.000000 1.943960 0.000000 
#    z 0.000000 0.000000 2.142340 
# 
# From -- ./inp_files/514.got.cif
#   From: 2010.05.17/outbox.cif.g08.bks.cpg/sg116_1_cif.got.tgz:514.got - 2010.05.20 11:11:43.
