data_PCOD9557097
_publ_section_title
;
Structure prediction by ZEFSAII (Michael W. Deem and Ramdas Pophale) SiO2 
 PCOD9557097
Probable space group: P -4 M 2
;
_chemical_formula_sum "Si O2"
_cell_formula_units_Z 25
_cell_length_a 8.071426
_cell_length_b 8.071426
_cell_length_c 18.517783
_cell_angle_alpha 90.000000
_cell_angle_beta 90.000000
_cell_angle_gamma 90.000000
_cell_volume 1206.395002
_symmetry_space_group_name_H-M "P -4 M 2"
_symmetry_group_IT_number 115
_symmetry_cell_setting 'tetragonal'
loop_
_space_group_symop_operation_xyz
x,y,z
y,-x,-z
-x,-y,z
-y,x,-z
y,x,-z
-y,-x,-z
-x,y,z
x,-y,z
loop_
_atom_site_type_symbol
_atom_site_label
_atom_site_fract_x
_atom_site_fract_y
_atom_site_fract_z
Si Si1 0.186220 0.701526 0.299959
Si Si2 0.500000 0.189175 0.392709
Si Si3 0.691559 0.690770 0.851418
Si Si4 0.189044 0.189044 0.000000
Si Si5 0.500000 0.500000 0.500000
O O1 0.207809 0.500000 0.301548
O O2 0.334608 0.781068 0.345089
O O3 0.204357 0.754880 0.216127
O O4 0.000000 0.738917 0.325780
O O5 0.500000 0.333524 0.452281
O O6 0.500000 0.000000 0.420233
O O7 0.500000 0.737487 0.863710
O O8 0.697638 0.500000 0.827536
O O9 0.776217 0.706914 0.928642
O O10 0.000000 0.214051 0.022813
#
# Coordination Sequence:
#
# PCOD9557097 Si02
#       5
#     8   4   8   4   1
#     4  10  20  40  71 102 137 180 227 281 335 397
#     4  12  26  46  76 108 139 183 224 269 334 398
#     4  10  20  36  61  88 119 164 222 275 333 398
#     4  11  24  37  48  74 122 171 218 279 340 390
#     4  12  28  52  76 104 152 178 220 272 320 412
#
# _framework density 20.722895999999999
#
# number of rings (size 3 to 8) (size 9 to 14) (size 15 to 20)
#    0.000    1.440    3.200    1.920    0.000    8.320 
#    0.000    0.000    0.000    0.000    0.000    0.000 
#    0.000    0.000    0.000    0.000    0.000    0.000 
#
# Total GULP energy -139641.971892 kJ/mol
# GULP energy per Si atom -5585.678876 kJ/mol
# Density = 2.067573 g / cm^3
# Si number density = 20.722896 Si / 1000 Ang^3
#
#
#
# Elastic Constant Matrix: (Units=GPa)
#
#
# Indices 1 2 3 4 5 6 
#
# 1 42.6074 85.0097 40.3379 0.0000 0.0000 0.0000
# 2 85.0097 42.6074 40.3379 0.0000 0.0000 0.0000
# 3 40.3379 40.3379 88.6388 0.0000 0.0000 0.0000
# 4 0.0000 0.0000 0.0000 -2.3066 0.0000 0.0000
# 5 0.0000 0.0000 0.0000 0.0000 -2.3066 0.0000
# 6 0.0000 0.0000 0.0000 0.0000 0.0000 16.7879
#
#
#
# Elastic Compliance Matrix: (Units=1/GPa)
#
#
# Indices 1 2 3 4 5 6 
#
# 1 -0.006291 0.017292 -0.005006 0.000000 0.000000 0.000000
# 2 0.017292 -0.006291 -0.005006 0.000000 0.000000 0.000000
# 3 -0.005006 -0.005006 0.015838 0.000000 0.000000 0.000000
# 4 0.000000 0.000000 0.000000 -0.433540 0.000000 0.000000
# 5 0.000000 0.000000 0.000000 0.000000 -0.433540 0.000000
# 6 0.000000 0.000000 0.000000 0.000000 0.000000 0.059567
#
#
# Mechanical properties :
#
#
# Convention : Reuss Voigt Hill
#
# Bulk Modulus (GPa) = 56.13321 56.13607 56.13464
# Shear Modulus (GPa) = -6.15097 2.97949 -1.58574
#
# Velocity S-wave (km/s) = -1.72472 1.20037 -0.87571
# Velocity P-wave (km/s) = 4.81458 5.39156 5.11122
#
# Compressibility (1/GPa) = 0.01781477
#
# Stress axis : x y z
#
# Youngs Moduli (GPa) = -158.94608 -158.94608 63.13835
#
# Poissons Ratio (x) = 2.74852 0.31609
# Poissons Ratio (y) = 2.74852 0.31609
# Poissons Ratio (z) = -0.79572 -0.79572
#
# Static dielectric constant tensor:
#      x y z
#    x 1.761940 0.000000 0.000000 
#    y 0.000000 1.761940 0.000000 
#    z 0.000000 0.000000 1.861310 
# 
# From -- ./inp_files/4072.got.cif
#   From: 2010.05.17/outbox.cif.g08.bks.cpg/sg115_3_cif.got.tgz:4072.got - 2010.05.20 11:07:42.
