data_PCOD9557279
_publ_section_title
;
Structure prediction by ZEFSAII (Michael W. Deem and Ramdas Pophale) SiO2 
 PCOD9557279
Probable space group: P -4 M 2
;
_chemical_formula_sum "Si O2"
_cell_formula_units_Z 40
_cell_length_a 9.067851
_cell_length_b 9.067851
_cell_length_c 26.337769
_cell_angle_alpha 90.000000
_cell_angle_beta 90.000000
_cell_angle_gamma 90.000000
_cell_volume 2165.647333
_symmetry_space_group_name_H-M "P -4 M 2"
_symmetry_group_IT_number 115
_symmetry_cell_setting 'tetragonal'
loop_
_space_group_symop_operation_xyz
x,y,z
y,-x,-z
-x,-y,z
-y,x,-z
y,x,-z
-y,-x,-z
-x,y,z
x,-y,z
loop_
_atom_site_type_symbol
_atom_site_label
_atom_site_fract_x
_atom_site_fract_y
_atom_site_fract_z
Si Si1 0.175733 0.324260 0.548836
Si Si2 0.675567 0.175268 0.646253
Si Si3 0.176828 0.828343 0.847952
Si Si4 0.672434 0.677717 0.057020
Si Si5 0.674476 0.823322 0.257252
O O1 0.250202 0.250202 0.500000
O O2 0.201022 0.500000 0.548205
O O3 0.245194 0.254298 0.599246
O O4 0.000000 0.299037 0.547965
O O5 0.500000 0.199508 0.643301
O O6 0.739426 0.241496 0.698178
O O7 0.702826 0.000000 0.644141
O O8 0.251905 0.765577 0.898216
O O9 0.219865 0.737236 0.797824
O O10 0.000000 0.815358 0.853338
O O11 0.213262 0.000000 0.840617
O O12 0.500000 0.718634 0.063088
O O13 0.680727 0.500000 0.059294
O O14 0.720871 0.720871 0.000000
O O15 0.500000 0.794960 0.260054
O O16 0.697380 0.000000 0.263189
#
# Coordination Sequence:
#
# PCOD9557279 Si02
#       5
#     8   8   8   8   8
#     4  11  24  41  62  89 119 152 192 235 280 332
#     4  11  24  40  59  86 118 151 189 232 279 333
#     4  10  21  36  55  81 112 145 182 226 277 332
#     4   9  19  36  56  78 106 142 184 228 275 329
#     4  10  21  38  60  84 110 145 189 232 277 332
#
# _framework density 18.470230000000001
#
# number of rings (size 3 to 8) (size 9 to 14) (size 15 to 20)
#    0.000    1.800    0.000    4.200    0.000   12.400 
#    0.000    3.000    0.000    0.000    0.000    0.000 
#    0.000    0.000    0.000    0.000    0.000    0.000 
#
# Total GULP energy -223567.464113 kJ/mol
# GULP energy per Si atom -5589.186603 kJ/mol
# Density = 1.842819 g / cm^3
# Si number density = 18.470230 Si / 1000 Ang^3
#
#
#
# Elastic Constant Matrix: (Units=GPa)
#
#
# Indices 1 2 3 4 5 6 
#
# 1 93.7004 83.6192 84.4890 0.0000 0.0000 0.0000
# 2 83.6192 93.7004 84.4890 0.0000 0.0000 0.0000
# 3 84.4890 84.4890 179.8725 0.0000 0.0000 0.0000
# 4 0.0000 0.0000 0.0000 42.1190 0.0000 0.0000
# 5 0.0000 0.0000 0.0000 0.0000 42.1190 0.0000
# 6 0.0000 0.0000 0.0000 0.0000 0.0000 31.9859
#
#
#
# Elastic Compliance Matrix: (Units=1/GPa)
#
#
# Indices 1 2 3 4 5 6 
#
# 1 0.054702 -0.044492 -0.004796 0.000000 0.000000 0.000000
# 2 -0.044492 0.054702 -0.004796 0.000000 0.000000 0.000000
# 3 -0.004796 -0.004796 0.010065 0.000000 0.000000 0.000000
# 4 0.000000 0.000000 0.000000 0.023742 0.000000 0.000000
# 5 0.000000 0.000000 0.000000 0.000000 0.023742 0.000000
# 6 0.000000 0.000000 0.000000 0.000000 0.000000 0.031264
#
#
# Mechanical properties :
#
#
# Convention : Reuss Voigt Hill
#
# Bulk Modulus (GPa) = 88.48508 96.94087 92.71298
# Shear Modulus (GPa) = 16.12121 30.88985 23.50553
#
# Velocity S-wave (km/s) = 2.95756 4.09395 3.57125
# Velocity P-wave (km/s) = 7.72488 8.65714 8.20426
#
# Compressibility (1/GPa) = 0.01130134
#
# Stress axis : x y z
#
# Youngs Moduli (GPa) = 18.28095 18.28095 99.35803
#
# Poissons Ratio (x) = 0.81336 0.47648
# Poissons Ratio (y) = 0.81336 0.47648
# Poissons Ratio (z) = 0.08767 0.08767
#
# Static dielectric constant tensor:
#      x y z
#    x 1.616810 0.000000 0.000000 
#    y 0.000000 1.616810 0.000000 
#    z 0.000000 0.000000 1.601010 
# 
# From -- ./inp_files/5070.got.cif
#   From: 2010.05.17/outbox.cif.g08.bks.cpg/sg115_3_cif.got.tgz:5070.got - 2010.05.20 11:07:42.
