data_PCOD9557056
_publ_section_title
;
Structure prediction by ZEFSAII (Michael W. Deem and Ramdas Pophale) SiO2 
 PCOD9557056
Probable space group: P -4 M 2
;
_chemical_formula_sum "Si O2"
_cell_formula_units_Z 44
_cell_length_a 9.179715
_cell_length_b 9.179715
_cell_length_c 29.554291
_cell_angle_alpha 90.000000
_cell_angle_beta 90.000000
_cell_angle_gamma 90.000000
_cell_volume 2490.456389
_symmetry_space_group_name_H-M "P -4 M 2"
_symmetry_group_IT_number 115
_symmetry_cell_setting 'tetragonal'
loop_
_space_group_symop_operation_xyz
x,y,z
y,-x,-z
-x,-y,z
-y,x,-z
y,x,-z
-y,-x,-z
-x,y,z
x,-y,z
loop_
_atom_site_type_symbol
_atom_site_label
_atom_site_fract_x
_atom_site_fract_y
_atom_site_fract_z
Si Si1 0.173325 0.173325 0.500000
Si Si2 0.325095 0.328681 0.232279
Si Si3 0.168712 0.677402 0.141111
Si Si4 0.677374 0.167266 0.323114
Si Si5 0.329673 0.175665 0.958667
Si Si6 0.325000 0.327561 0.415428
O O1 0.243514 0.247476 0.455995
O O2 0.000000 0.198916 0.501064
O O3 0.500000 0.318215 0.229606
O O4 0.288665 0.500000 0.238090
O O5 0.257790 0.276039 0.185008
O O6 0.274298 0.240384 0.276215
O O7 0.172462 0.500000 0.140003
O O8 0.222860 0.723871 0.091401
O O9 0.000000 0.720362 0.146048
O O10 0.500000 0.168214 0.322193
O O11 0.719363 0.259041 0.367260
O O12 0.724960 0.000000 0.326784
O O13 0.500000 0.216005 0.963108
O O14 0.321693 0.000000 0.959156
O O15 0.241759 0.241759 0.000000
O O16 0.500000 0.307265 0.420597
O O17 0.296418 0.500000 0.416235
#
# Coordination Sequence:
#
# PCOD9557056 Si02
#       6
#     4   8   8   8   8   8
#     4  11  24  39  54  76 108 141 170 205 252 300
#     4   9  16  27  46  71  95 121 159 203 241 283
#     4   8  15  29  47  66  91 123 157 195 241 292
#     4   9  17  30  49  73 102 134 164 199 247 295
#     4   9  18  32  49  70  96 126 162 204 249 298
#     4  10  20  35  57  82 104 131 172 214 248 291
#
# _framework density 17.667442999999999
#
# number of rings (size 3 to 8) (size 9 to 14) (size 15 to 20)
#    0.000    2.818    0.000    2.727    0.000    6.182 
#    0.000    3.636    0.000    7.091    0.000    0.000 
#    0.000    0.000    0.000    0.000    0.000    0.000 
#
# Total GULP energy -245278.548626 kJ/mol
# GULP energy per Si atom -5574.512469 kJ/mol
# Density = 1.762723 g / cm^3
# Si number density = 17.667443 Si / 1000 Ang^3
#
#
#
# Elastic Constant Matrix: (Units=GPa)
#
#
# Indices 1 2 3 4 5 6 
#
# 1 50.4653 42.8108 69.6800 0.0000 0.0000 0.0000
# 2 42.8108 50.4653 69.6800 0.0000 0.0000 0.0000
# 3 69.6800 69.6800 211.5793 0.0000 0.0000 0.0000
# 4 0.0000 0.0000 0.0000 -41.6048 0.0000 0.0000
# 5 0.0000 0.0000 0.0000 0.0000 -41.6048 0.0000
# 6 0.0000 0.0000 0.0000 0.0000 0.0000 18.5887
#
#
#
# Elastic Compliance Matrix: (Units=1/GPa)
#
#
# Indices 1 2 3 4 5 6 
#
# 1 0.075873 -0.054768 -0.006951 0.000000 0.000000 0.000000
# 2 -0.054768 0.075873 -0.006951 0.000000 0.000000 0.000000
# 3 -0.006951 -0.006951 0.009305 0.000000 0.000000 0.000000
# 4 0.000000 0.000000 0.000000 -0.024036 0.000000 0.000000
# 5 0.000000 0.000000 0.000000 0.000000 -0.024036 0.000000
# 6 0.000000 0.000000 0.000000 0.000000 0.000000 0.053796
#
#
# Mechanical properties :
#
#
# Convention : Reuss Voigt Hill
#
# Bulk Modulus (GPa) = 42.17106 75.20573 58.68839
# Shear Modulus (GPa) = 16.02464 -4.23490 5.89487
#
# Velocity S-wave (km/s) = 3.01494 -1.54991 1.82861
# Velocity P-wave (km/s) = 6.00341 6.28147 6.14401
#
# Compressibility (1/GPa) = 0.02371295
#
# Stress axis : x y z
#
# Youngs Moduli (GPa) = 13.17983 13.17983 107.47316
#
# Poissons Ratio (x) = 0.72183 0.74703
# Poissons Ratio (y) = 0.72183 0.74703
# Poissons Ratio (z) = 0.09161 0.09161
#
# Static dielectric constant tensor:
#      x y z
#    x 1.590890 0.000000 0.000000 
#    y 0.000000 1.590890 0.000000 
#    z 0.000000 0.000000 1.598660 
# 
# From -- ./inp_files/5744.got.cif
#   From: 2010.05.17/outbox.cif.g08.bks.cpg/sg115_3_cif.got.tgz:5744.got - 2010.05.20 11:07:42.
