data_PCOD9557530
_publ_section_title
;
Structure prediction by ZEFSAII (Michael W. Deem and Ramdas Pophale) SiO2 
 PCOD9557530
Probable space group: P -4 C 2
;
_chemical_formula_sum "Si O2"
_cell_formula_units_Z 48
_cell_length_a 12.313415
_cell_length_b 12.313415
_cell_length_c 15.442269
_cell_angle_alpha 90.000000
_cell_angle_beta 90.000000
_cell_angle_gamma 90.000000
_cell_volume 2341.359744
_symmetry_space_group_name_H-M "P -4 C 2"
_symmetry_group_IT_number 116
_symmetry_cell_setting 'tetragonal'
loop_
_space_group_symop_operation_xyz
x,y,z
y,-x,-z
-x,-y,z
-y,x,-z
y,x,1/2-z
-y,-x,1/2-z
-x,y,1/2+z
x,-y,1/2+z
loop_
_atom_site_type_symbol
_atom_site_label
_atom_site_fract_x
_atom_site_fract_y
_atom_site_fract_z
Si Si1 0.222670 0.732006 0.941865
Si Si2 0.922048 0.411974 0.814772
Si Si3 0.636514 0.577056 0.543379
Si Si4 0.275814 0.420846 0.188278
Si Si5 0.785631 0.041635 0.253519
Si Si6 0.092282 0.081070 0.393508
O O1 0.144512 0.653489 0.886872
O O2 0.324167 0.758457 0.878143
O O3 0.152061 0.838973 0.959442
O O4 0.274733 0.667043 0.020625
O O5 0.829242 0.449475 0.746367
O O6 0.000000 0.500000 0.857149
O O7 0.010619 0.336942 0.765686
O O8 0.630578 0.483165 0.467615
O O9 0.669876 0.515721 0.630916
O O10 0.366001 0.366001 0.250000
O O11 0.838210 0.161791 0.250000
O O12 0.817461 0.989244 0.344652
O O13 0.848580 0.969643 0.180645
O O14 0.000000 0.000000 0.420680
#
# Coordination Sequence:
#
# PCOD9557530 Si02
#       6
#     8   8   8   8   8   8
#     4   9  16  30  50  74 110 144 184 242 292 359
#     4  10  18  29  46  76 110 142 183 241 301 349
#     4   9  18  33  52  77 109 152 205 238 296 369
#     4   9  17  32  54  74 107 149 198 246 292 356
#     4   8  13  23  41  67 103 138 173 227 283 332
#     4   8  12  21  44  74 101 132 181 229 279 344
#
# _framework density 20.500909
#
# number of rings (size 3 to 8) (size 9 to 14) (size 15 to 20)
#    0.000    3.167    1.667    1.000    0.000    0.000 
#    0.000   16.667    0.000    0.000    0.000    0.000 
#   20.000    0.000    0.000    0.000    0.000   22.833 
#
# Total GULP energy -267300.581733 kJ/mol
# GULP energy per Si atom -5568.762119 kJ/mol
# Density = 2.045425 g / cm^3
# Si number density = 20.500909 Si / 1000 Ang^3
#
#
#
# Elastic Constant Matrix: (Units=GPa)
#
#
# Indices 1 2 3 4 5 6 
#
# 1 49.6897 45.5301 11.5863 0.0000 0.0000 0.0000
# 2 45.5301 49.6892 11.5868 0.0000 0.0000 0.0000
# 3 11.5863 11.5868 34.6294 0.0000 0.0000 0.0000
# 4 0.0000 0.0000 0.0000 2.8517 0.0000 0.0000
# 5 0.0000 0.0000 0.0000 0.0000 2.8521 0.0000
# 6 0.0000 0.0000 0.0000 0.0000 0.0000 42.2478
#
#
#
# Elastic Compliance Matrix: (Units=1/GPa)
#
#
# Indices 1 2 3 4 5 6 
#
# 1 0.125927 -0.114496 -0.003823 0.000000 0.000000 0.000000
# 2 -0.114496 0.125930 -0.003827 0.000000 0.000000 0.000000
# 3 -0.003823 -0.003827 0.031437 0.000000 0.000000 0.000000
# 4 0.000000 0.000000 0.000000 0.350674 0.000000 0.000000
# 5 0.000000 0.000000 0.000000 0.000000 0.350616 0.000000
# 6 0.000000 0.000000 0.000000 0.000000 0.000000 0.023670
#
#
# Mechanical properties :
#
#
# Convention : Reuss Voigt Hill
#
# Bulk Modulus (GPa) = 25.63994 30.15720 27.89857
# Shear Modulus (GPa) = 3.95086 13.94399 8.94743
#
# Velocity S-wave (km/s) = 1.38973 2.61083 2.09138
# Velocity P-wave (km/s) = 3.88703 4.88167 4.41246
#
# Compressibility (1/GPa) = 0.03900165
#
# Stress axis : x y z
#
# Youngs Moduli (GPa) = 7.94108 7.94094 31.80965
#
# Poissons Ratio (x) = 0.90920 0.12161
# Poissons Ratio (y) = 0.90922 0.12175
# Poissons Ratio (z) = 0.03036 0.03039
#
# Static dielectric constant tensor:
#      x y z
#    x 1.747390 0.000000 0.000000 
#    y 0.000000 1.747390 0.000000 
#    z 0.000000 0.000000 1.747230 
# 
# From -- ./inp_files/3417.got.cif
#   From: 2010.05.17/outbox.cif.g08.bks.cpg/sg116_2_cif.got.tgz:3417.got - 2010.05.20 11:11:43.
