data_PCOD9557702
_publ_section_title
;
Structure prediction by ZEFSAII (Michael W. Deem and Ramdas Pophale) SiO2 
 PCOD9557702
Probable space group: P -4 C 2
;
_chemical_formula_sum "Si O2"
_cell_formula_units_Z 40
_cell_length_a 8.396196
_cell_length_b 8.396196
_cell_length_c 25.789845
_cell_angle_alpha 90.000000
_cell_angle_beta 90.000000
_cell_angle_gamma 90.000000
_cell_volume 1818.083680
_symmetry_space_group_name_H-M "P -4 C 2"
_symmetry_group_IT_number 116
_symmetry_cell_setting 'tetragonal'
loop_
_space_group_symop_operation_xyz
x,y,z
y,-x,-z
-x,-y,z
-y,x,-z
y,x,1/2-z
-y,-x,1/2-z
-x,y,1/2+z
x,-y,1/2+z
loop_
_atom_site_type_symbol
_atom_site_label
_atom_site_fract_x
_atom_site_fract_y
_atom_site_fract_z
Si Si1 0.482855 0.662884 0.196522
Si Si2 0.312180 0.172249 0.953332
Si Si3 0.199381 0.181572 0.333669
Si Si4 0.832057 0.175132 0.345092
Si Si5 0.804938 0.330568 0.553701
O O1 0.500000 0.500000 0.164341
O O2 0.398069 0.601932 0.250000
O O3 0.661652 0.735733 0.196460
O O4 0.344604 0.768548 0.173356
O O5 0.183661 0.184830 0.907507
O O6 0.485587 0.212219 0.930736
O O7 0.309973 0.985689 0.966444
O O8 0.295950 0.274340 0.005012
O O9 0.231475 0.218594 0.394156
O O10 0.011783 0.170133 0.325609
O O11 0.253580 0.993328 0.327557
#
# Coordination Sequence:
#
# PCOD9557702 Si02
#       5
#     8   8   8   8   8
#     4  11  25  46  67 100 133 175 227 288 355 415
#     4  10  21  36  59  94 133 182 221 275 328 395
#     4  10  22  44  71 100 136 181 229 287 346 419
#     4  10  22  44  72  99 136 180 230 285 347 414
#     4  10  21  36  59  93 135 178 227 269 329 404
#
# _framework density 22.001187000000002
#
# number of rings (size 3 to 8) (size 9 to 14) (size 15 to 20)
#    0.000    1.800    0.000    3.000    2.800    4.800 
#   14.400    1.000    0.000    0.000    0.000    0.000 
#    0.000    0.000    0.000    0.000    0.000    0.000 
#
# Total GULP energy -222708.527197 kJ/mol
# GULP energy per Si atom -5567.713180 kJ/mol
# Density = 2.195111 g / cm^3
# Si number density = 22.001187 Si / 1000 Ang^3
#
#
#
# Elastic Constant Matrix: (Units=GPa)
#
#
# Indices 1 2 3 4 5 6 
#
# 1 93.4192 60.2078 23.5275 0.0000 0.0000 0.0000
# 2 60.2078 93.4190 23.5275 0.0000 0.0000 0.0000
# 3 23.5275 23.5275 47.0332 0.0000 0.0000 0.0000
# 4 0.0000 0.0000 0.0000 35.9425 0.0000 0.0000
# 5 0.0000 0.0000 0.0000 0.0000 35.9424 0.0000
# 6 0.0000 0.0000 0.0000 0.0000 0.0000 39.4261
#
#
#
# Elastic Compliance Matrix: (Units=1/GPa)
#
#
# Indices 1 2 3 4 5 6 
#
# 1 0.018899 -0.011212 -0.003845 0.000000 0.000000 0.000000
# 2 -0.011212 0.018899 -0.003845 0.000000 0.000000 0.000000
# 3 -0.003845 -0.003845 0.025109 0.000000 0.000000 0.000000
# 4 0.000000 0.000000 0.000000 0.027822 0.000000 0.000000
# 5 0.000000 0.000000 0.000000 0.000000 0.027822 0.000000
# 6 0.000000 0.000000 0.000000 0.000000 0.000000 0.025364
#
#
# Mechanical properties :
#
#
# Convention : Reuss Voigt Hill
#
# Bulk Modulus (GPa) = 39.83819 49.82189 44.83004
# Shear Modulus (GPa) = 26.30389 30.70279 28.50334
#
# Velocity S-wave (km/s) = 3.46145 3.73970 3.60326
# Velocity P-wave (km/s) = 5.84141 6.42973 6.14262
#
# Compressibility (1/GPa) = 0.02510154
#
# Stress axis : x y z
#
# Youngs Moduli (GPa) = 52.91383 52.91372 39.82691
#
# Poissons Ratio (x) = 0.59325 0.15315
# Poissons Ratio (y) = 0.59325 0.15315
# Poissons Ratio (z) = 0.20347 0.20347
#
# Static dielectric constant tensor:
#      x y z
#    x 1.860970 0.000000 0.000000 
#    y 0.000000 1.860970 0.000000 
#    z 0.000000 0.000000 1.902990 
# 
# From -- ./inp_files/4829.got.cif
#   From: 2010.05.17/outbox.cif.g08.bks.cpg/sg116_3_cif.got.tgz:4829.got - 2010.05.20 11:11:43.
