data_PCOD9557037
_publ_section_title
;
Structure prediction by ZEFSAII (Michael W. Deem and Ramdas Pophale) SiO2 
 PCOD9557037
Probable space group: P -4 M 2
;
_chemical_formula_sum "Si O2"
_cell_formula_units_Z 48
_cell_length_a 8.189606
_cell_length_b 8.189606
_cell_length_c 35.330071
_cell_angle_alpha 90.000000
_cell_angle_beta 90.000000
_cell_angle_gamma 90.000000
_cell_volume 2369.575371
_symmetry_space_group_name_H-M "P -4 M 2"
_symmetry_group_IT_number 115
_symmetry_cell_setting 'tetragonal'
loop_
_space_group_symop_operation_xyz
x,y,z
y,-x,-z
-x,-y,z
-y,x,-z
y,x,-z
-y,-x,-z
-x,y,z
x,-y,z
loop_
_atom_site_type_symbol
_atom_site_label
_atom_site_fract_x
_atom_site_fract_y
_atom_site_fract_z
Si Si1 0.802454 0.816538 0.879110
Si Si2 0.691227 0.199313 0.376686
Si Si3 0.683526 0.805187 0.460661
Si Si4 0.697495 0.000000 0.759866
Si Si5 0.802091 0.000000 0.673093
Si Si6 0.304278 0.676894 0.802624
Si Si7 0.196603 0.686056 0.959333
O O1 0.735905 0.699247 0.846860
O O2 0.746609 0.780023 0.921855
O O3 0.000000 0.806673 0.878779
O O4 0.752854 0.000000 0.868791
O O5 0.500000 0.248936 0.370177
O O6 0.743223 0.251670 0.419393
O O7 0.832926 0.253251 0.347943
O O8 0.689420 0.000000 0.375489
O O9 0.769978 0.769978 0.500000
O O10 0.500000 0.740708 0.464468
O O11 0.677460 0.000000 0.457319
O O12 0.759571 0.164727 0.780367
O O13 0.500000 0.000000 0.762981
O O14 0.745065 0.000000 0.716185
O O15 0.000000 0.000000 0.672009
O O16 0.500000 0.676525 0.798406
O O17 0.241648 0.500000 0.789448
O O18 0.251218 0.500000 0.955615
O O19 0.000000 0.690859 0.958719
O O20 0.249098 0.750903 0.000000
#
# Coordination Sequence:
#
# PCOD9557037 Si02
#       7
#     8   8   8   4   4   8   8
#     4  10  20  35  58  85 112 143 181 229 284 338
#     4   8  16  32  51  75 109 141 177 229 280 328
#     4   9  18  31  48  73 104 138 177 222 269 319
#     4  10  22  40  56  80 116 144 176 232 286 336
#     4  10  20  34  58  82 104 142 190 228 276 342
#     4  10  21  38  60  83 110 147 185 224 279 344
#     4  10  21  36  53  76 107 144 185 227 272 323
#
# _framework density 20.256795
#
# number of rings (size 3 to 8) (size 9 to 14) (size 15 to 20)
#    0.000    2.500    0.833    2.000    1.167    4.333 
#    0.000    0.833    0.000    1.000    0.000    0.000 
#    0.000    0.000    0.000    0.000    0.000    0.000 
#
# Total GULP energy -267584.673567 kJ/mol
# GULP energy per Si atom -5574.680699 kJ/mol
# Density = 2.021069 g / cm^3
# Si number density = 20.256795 Si / 1000 Ang^3
#
#
#
# Elastic Constant Matrix: (Units=GPa)
#
#
# Indices 1 2 3 4 5 6 
#
# 1 53.4538 25.7015 41.0303 0.0000 0.0000 0.0000
# 2 25.7015 53.4519 41.0318 0.0000 0.0000 0.0000
# 3 41.0303 41.0318 141.4818 0.0000 0.0000 0.0000
# 4 0.0000 0.0000 0.0000 3006.0941 0.0000 0.0000
# 5 0.0000 0.0000 0.0000 0.0000 3003.5415 0.0000
# 6 0.0000 0.0000 0.0000 0.0000 0.0000 6.0711
#
#
#
# Elastic Compliance Matrix: (Units=1/GPa)
#
#
# Indices 1 2 3 4 5 6 
#
# 1 0.027049 -0.008985 -0.005239 0.000000 0.000000 0.000000
# 2 -0.008985 0.027051 -0.005239 0.000000 0.000000 0.000000
# 3 -0.005239 -0.005239 0.010107 0.000000 0.000000 0.000000
# 4 0.000000 0.000000 0.000000 0.000333 0.000000 0.000000
# 5 0.000000 0.000000 0.000000 0.000000 0.000333 0.000000
# 6 0.000000 0.000000 0.000000 0.000000 0.000000 0.164714
#
#
# Mechanical properties :
#
#
# Convention : Reuss Voigt Hill
#
# Bulk Modulus (GPa) = 39.55581 51.54609 45.55095
# Shear Modulus (GPa) = 18.05458 1212.51628 615.28543
#
# Velocity S-wave (km/s) = 2.98868 24.49229 17.44712
# Velocity P-wave (km/s) = 5.61063 28.72857 20.69795
#
# Compressibility (1/GPa) = 0.02528074
#
# Stress axis : x y z
#
# Youngs Moduli (GPa) = 36.97028 36.96779 98.94334
#
# Poissons Ratio (x) = 0.33214 0.51832
# Poissons Ratio (y) = 0.33216 0.51841
# Poissons Ratio (z) = 0.19367 0.19369
#
# Static dielectric constant tensor:
#      x y z
#    x 1.678430 0.000000 0.000000 
#    y 0.000000 1.678370 0.000000 
#    z 0.000000 0.000000 1.713480 
# 
# From -- ./inp_files/6177.got.cif
#   From: 2010.05.17/outbox.cif.g08.bks.cpg/sg115_4_cif.got.tgz:6177.got - 2010.05.20 11:07:42.
