data_PCOD9557949
_publ_section_title
;
Structure prediction by ZEFSAII (Michael W. Deem and Ramdas Pophale) SiO2 
 PCOD9557949
Probable space group: P -4 C 2
;
_chemical_formula_sum "Si O2"
_cell_formula_units_Z 48
_cell_length_a 7.910933
_cell_length_b 7.910933
_cell_length_c 31.436489
_cell_angle_alpha 90.000000
_cell_angle_beta 90.000000
_cell_angle_gamma 90.000000
_cell_volume 1967.385419
_symmetry_space_group_name_H-M "P -4 C 2"
_symmetry_group_IT_number 116
_symmetry_cell_setting 'tetragonal'
loop_
_space_group_symop_operation_xyz
x,y,z
y,-x,-z
-x,-y,z
-y,x,-z
y,x,1/2-z
-y,-x,1/2-z
-x,y,1/2+z
x,-y,1/2+z
loop_
_atom_site_type_symbol
_atom_site_label
_atom_site_fract_x
_atom_site_fract_y
_atom_site_fract_z
Si Si1 0.752453 0.374612 0.178418
Si Si2 0.016444 0.834287 0.290437
Si Si3 0.254258 0.888045 0.582755
Si Si4 0.751324 0.876593 0.909010
Si Si5 0.760605 0.393414 0.003580
Si Si6 0.733063 0.366138 0.831700
O O1 0.849647 0.350232 0.134207
O O2 0.556529 0.324641 0.174375
O O3 0.749296 0.577147 0.186526
O O4 0.813953 0.220706 0.208809
O O5 0.899254 0.899254 0.250000
O O6 0.908495 0.682403 0.308884
O O7 0.000000 0.000000 0.320885
O O8 0.332770 0.870733 0.536165
O O9 0.342759 0.772911 0.618439
O O10 0.063306 0.820678 0.583506
O O11 0.246891 0.085678 0.594354
O O12 0.642406 0.834699 0.950302
O O13 0.587803 0.287401 0.000648
#
# Coordination Sequence:
#
# PCOD9557949 Si02
#       6
#     8   8   8   8   8   8
#     4  11  24  45  74 106 142 188 236 294 359 433
#     4  11  25  48  71 105 141 181 232 292 362 434
#     4  11  23  39  64  96 137 180 237 294 349 424
#     4  11  23  39  64  96 135 183 236 289 359 415
#     4  11  24  39  56  90 134 182 238 296 350 410
#     4  11  24  45  73 107 142 187 239 292 359 437
#
# _framework density 24.397860000000001
#
# number of rings (size 3 to 8) (size 9 to 14) (size 15 to 20)
#    0.000    1.000    1.667    4.500    0.000   12.000 
#   12.000    0.833    0.000    0.000    0.000    0.000 
#    0.000    0.000    0.000    0.000    0.000    0.000 
#
# Total GULP energy -268191.745887 kJ/mol
# GULP energy per Si atom -5587.328039 kJ/mol
# Density = 2.434233 g / cm^3
# Si number density = 24.397860 Si / 1000 Ang^3
#
#
#
# Elastic Constant Matrix: (Units=GPa)
#
#
# Indices 1 2 3 4 5 6 
#
# 1 68.9797 22.8741 12.5065 0.0000 0.0000 0.0000
# 2 22.8741 68.9797 12.5065 0.0000 0.0000 0.0000
# 3 12.5065 12.5065 113.8971 0.0000 0.0000 0.0000
# 4 0.0000 0.0000 0.0000 -21.2014 0.0000 0.0000
# 5 0.0000 0.0000 0.0000 0.0000 -21.2014 0.0000
# 6 0.0000 0.0000 0.0000 0.0000 0.0000 33.1922
#
#
#
# Elastic Compliance Matrix: (Units=1/GPa)
#
#
# Indices 1 2 3 4 5 6 
#
# 1 0.016456 -0.005233 -0.001232 0.000000 0.000000 0.000000
# 2 -0.005233 0.016456 -0.001232 0.000000 0.000000 0.000000
# 3 -0.001232 -0.001232 0.009050 0.000000 0.000000 0.000000
# 4 0.000000 0.000000 0.000000 -0.047167 0.000000 0.000000
# 5 0.000000 0.000000 0.000000 0.000000 -0.047167 0.000000
# 6 0.000000 0.000000 0.000000 0.000000 0.000000 0.030128
#
#
# Mechanical properties :
#
#
# Convention : Reuss Voigt Hill
#
# Bulk Modulus (GPa) = 37.64179 38.62562 38.13371
# Shear Modulus (GPa) = 2490.07562 11.75583 1250.91572
#
# Velocity S-wave (km/s) = 31.98168 2.19746 22.66778
# Velocity P-wave (km/s) = 37.13802 4.72275 26.47203
#
# Compressibility (1/GPa) = 0.02656622
#
# Stress axis : x y z
#
# Youngs Moduli (GPa) = 60.76846 60.76846 110.49146
#
# Poissons Ratio (x) = 0.31803 0.13616
# Poissons Ratio (y) = 0.31803 0.13616
# Poissons Ratio (z) = 0.07488 0.07488
#
# Static dielectric constant tensor:
#      x y z
#    x 2.018740 0.000000 0.000000 
#    y 0.000000 2.018740 0.000000 
#    z 0.000000 0.000000 1.971820 
# 
# From -- ./inp_files/5241.got.cif
#   From: 2010.05.17/outbox.cif.g08.bks.cpg/sg116_3_cif.got.tgz:5241.got - 2010.05.20 11:11:43.
