data_PCOD9557148
_publ_section_title
;
Structure prediction by ZEFSAII (Michael W. Deem and Ramdas Pophale) SiO2 
 PCOD9557148
Probable space group: P -4 M 2
;
_chemical_formula_sum "Si O2"
_cell_formula_units_Z 48
_cell_length_a 9.387308
_cell_length_b 9.387308
_cell_length_c 32.010339
_cell_angle_alpha 90.000000
_cell_angle_beta 90.000000
_cell_angle_gamma 90.000000
_cell_volume 2820.800736
_symmetry_space_group_name_H-M "P -4 M 2"
_symmetry_group_IT_number 115
_symmetry_cell_setting 'tetragonal'
loop_
_space_group_symop_operation_xyz
x,y,z
y,-x,-z
-x,-y,z
-y,x,-z
y,x,-z
-y,-x,-z
-x,y,z
x,-y,z
loop_
_atom_site_type_symbol
_atom_site_label
_atom_site_fract_x
_atom_site_fract_y
_atom_site_fract_z
Si Si1 0.164905 0.826071 0.454242
Si Si2 0.671852 0.831805 0.280117
Si Si3 0.331047 0.169588 0.036782
Si Si4 0.173482 0.335832 0.626741
Si Si5 0.168402 0.168703 0.121896
Si Si6 0.829843 0.331867 0.206668
O O1 0.219858 0.780143 0.500000
O O2 0.249155 0.777310 0.413510
O O3 0.000000 0.784843 0.450356
O O4 0.169204 0.000000 0.455085
O O5 0.500000 0.818448 0.278066
O O6 0.716652 0.785575 0.327026
O O7 0.746794 0.742162 0.244349
O O8 0.705169 0.000000 0.275098
O O9 0.500000 0.194736 0.037929
O O10 0.259080 0.206326 0.081114
O O11 0.307433 0.000000 0.030034
O O12 0.256984 0.256984 0.000000
O O13 0.217085 0.500000 0.622775
O O14 0.000000 0.333279 0.626632
O O15 0.208625 0.257848 0.162748
O O16 0.000000 0.191864 0.113433
O O17 0.187923 0.000000 0.130349
O O18 0.801025 0.500000 0.205172
O O19 0.000000 0.311459 0.212332
#
# Coordination Sequence:
#
# PCOD9557148 Si02
#       6
#     8   8   8   8   8   8
#     4   8  13  21  35  58  86 113 144 184 228 274
#     4   9  18  32  50  72  96 124 162 205 244 286
#     4  10  21  36  55  80 108 137 169 206 247 289
#     4   8  14  25  41  62  88 117 150 189 232 277
#     4   9  18  34  55  76 100 133 171 207 243 287
#     4  10  21  35  51  74 103 132 162 199 245 295
#
# _framework density 17.016445000000001
#
# number of rings (size 3 to 8) (size 9 to 14) (size 15 to 20)
#    0.000    3.000    0.000    2.500    0.000    4.333 
#    0.000    5.000    0.000    1.000    0.000    2.333 
#    0.000    0.000    0.000    0.000    0.000    0.000 
#
# Total GULP energy -267468.701675 kJ/mol
# GULP energy per Si atom -5572.264618 kJ/mol
# Density = 1.697771 g / cm^3
# Si number density = 17.016445 Si / 1000 Ang^3
#
#
#
# Elastic Constant Matrix: (Units=GPa)
#
#
# Indices 1 2 3 4 5 6 
#
# 1 50.2473 42.4186 84.8954 0.0000 0.0000 0.0000
# 2 42.4186 50.2475 84.8955 0.0000 0.0000 0.0000
# 3 84.8954 84.8955 216.5658 0.0000 0.0000 0.0000
# 4 0.0000 0.0000 0.0000 -16.7605 0.0000 0.0000
# 5 0.0000 0.0000 0.0000 0.0000 -16.7602 0.0000
# 6 0.0000 0.0000 0.0000 0.0000 0.0000 18.3946
#
#
#
# Elastic Compliance Matrix: (Units=1/GPa)
#
#
# Indices 1 2 3 4 5 6 
#
# 1 0.083020 -0.044715 -0.015016 0.000000 0.000000 0.000000
# 2 -0.044715 0.083019 -0.015016 0.000000 0.000000 0.000000
# 3 -0.015016 -0.015016 0.016390 0.000000 0.000000 0.000000
# 4 0.000000 0.000000 0.000000 -0.059664 0.000000 0.000000
# 5 0.000000 0.000000 0.000000 0.000000 -0.059665 0.000000
# 6 0.000000 0.000000 0.000000 0.000000 0.000000 0.054364
#
#
# Mechanical properties :
#
#
# Convention : Reuss Voigt Hill
#
# Bulk Modulus (GPa) = 30.36160 82.38664 56.37412
# Shear Modulus (GPa) = 17.98984 3.96484 10.97734
#
# Velocity S-wave (km/s) = 3.25499 1.52809 2.54264
# Velocity P-wave (km/s) = 5.65755 7.18571 6.46693
#
# Compressibility (1/GPa) = 0.03293634
#
# Stress axis : x y z
#
# Youngs Moduli (GPa) = 12.04534 12.04543 61.01272
#
# Poissons Ratio (x) = 0.53861 0.91615
# Poissons Ratio (y) = 0.53861 0.91614
# Poissons Ratio (z) = 0.18087 0.18087
#
# Static dielectric constant tensor:
#      x y z
#    x 1.562970 0.000000 0.000000 
#    y 0.000000 1.562970 0.000000 
#    z 0.000000 0.000000 1.572540 
# 
# From -- ./inp_files/6118.got.cif
#   From: 2010.05.17/outbox.cif.g08.bks.cpg/sg115_4_cif.got.tgz:6118.got - 2010.05.20 11:07:42.
