data_PCOD9557339
_publ_section_title
;
Structure prediction by ZEFSAII (Michael W. Deem and Ramdas Pophale) SiO2 
 PCOD9557339
Probable space group: P -4 M 2
;
_chemical_formula_sum "Si O2"
_cell_formula_units_Z 21
_cell_length_a 7.910405
_cell_length_b 7.910405
_cell_length_c 16.612814
_cell_angle_alpha 90.000000
_cell_angle_beta 90.000000
_cell_angle_gamma 90.000000
_cell_volume 1039.538650
_symmetry_space_group_name_H-M "P -4 M 2"
_symmetry_group_IT_number 115
_symmetry_cell_setting 'tetragonal'
loop_
_space_group_symop_operation_xyz
x,y,z
y,-x,-z
-x,-y,z
-y,x,-z
y,x,-z
-y,-x,-z
-x,y,z
x,-y,z
loop_
_atom_site_type_symbol
_atom_site_label
_atom_site_fract_x
_atom_site_fract_y
_atom_site_fract_z
Si Si1 0.681996 0.702453 0.760471
Si Si2 0.000000 0.707092 0.869899
Si Si3 0.000000 0.000000 0.000000
Si Si4 0.204034 0.194258 0.413083
O O1 0.500000 0.769389 0.787569
O O2 0.679438 0.500000 0.765084
O O3 0.837268 0.754657 0.815937
O O4 0.709731 0.747690 0.667292
O O5 0.000000 0.500000 0.884093
O O6 0.000000 0.828495 0.946816
O O7 0.262641 0.262641 0.500000
O O8 0.000000 0.190977 0.418507
O O9 0.263603 0.000000 0.403707
#
# Coordination Sequence:
#
# PCOD9557339 Si02
#       4
#     8   4   1   8
#     4  10  21  37  59  86 120 164 205 246 299 355
#     4  10  24  46  66  93 129 154 189 251 306 360
#     4  12  28  44  76 100 114 156 200 232 308 392
#     4   9  18  32  52  81 120 164 210 257 297 341
#
# _framework density 20.201270000000001
#
# number of rings (size 3 to 8) (size 9 to 14) (size 15 to 20)
#    0.000    2.286    1.905    1.143    2.667    3.810 
#    0.000    5.714    0.000    0.000    0.000    0.000 
#    0.000    0.000    0.000    0.000    0.000    0.000 
#
# Total GULP energy -117161.963177 kJ/mol
# GULP energy per Si atom -5579.141104 kJ/mol
# Density = 2.015529 g / cm^3
# Si number density = 20.201270 Si / 1000 Ang^3
#
#
#
# Elastic Constant Matrix: (Units=GPa)
#
#
# Indices 1 2 3 4 5 6 
#
# 1 89.6163 34.7734 59.2968 0.0000 0.0000 0.0000
# 2 34.7734 89.6163 59.2968 0.0000 0.0000 0.0000
# 3 59.2968 59.2968 139.7087 0.0000 0.0000 0.0000
# 4 0.0000 0.0000 0.0000 -65.6270 0.0000 0.0000
# 5 0.0000 0.0000 0.0000 0.0000 -65.6270 0.0000
# 6 0.0000 0.0000 0.0000 0.0000 0.0000 10.4433
#
#
#
# Elastic Compliance Matrix: (Units=1/GPa)
#
#
# Indices 1 2 3 4 5 6 
#
# 1 0.015869 -0.002365 -0.005731 0.000000 0.000000 0.000000
# 2 -0.002365 0.015869 -0.005731 0.000000 0.000000 0.000000
# 3 -0.005731 -0.005731 0.012023 0.000000 0.000000 0.000000
# 4 0.000000 0.000000 0.000000 -0.015238 0.000000 0.000000
# 5 0.000000 0.000000 0.000000 0.000000 -0.015238 0.000000
# 6 0.000000 0.000000 0.000000 0.000000 0.000000 0.095755
#
#
# Mechanical properties :
#
#
# Convention : Reuss Voigt Hill
#
# Bulk Modulus (GPa) = 62.09406 69.51951 65.80679
# Shear Modulus (GPa) = 35.19535 -13.12388 11.03573
#
# Velocity S-wave (km/s) = 4.17854 -2.55160 2.33982
# Velocity P-wave (km/s) = 7.35423 5.08008 6.32028
#
# Compressibility (1/GPa) = 0.01610460
#
# Stress axis : x y z
#
# Youngs Moduli (GPa) = 63.01707 63.01707 83.17486
#
# Poissons Ratio (x) = 0.14905 0.47670
# Poissons Ratio (y) = 0.14905 0.47670
# Poissons Ratio (z) = 0.36117 0.36117
#
# Static dielectric constant tensor:
#      x y z
#    x 1.742220 0.000000 0.000000 
#    y 0.000000 1.742220 0.000000 
#    z 0.000000 0.000000 1.687470 
# 
# From -- ./inp_files/3340.got.cif
#   From: 2010.05.17/outbox.cif.g08.bks.cpg/sg115_2_cif.got.tgz:3340.got - 2010.05.20 11:07:42.
