data_PCOD9557423
_publ_section_title
;
Structure prediction by ZEFSAII (Michael W. Deem and Ramdas Pophale) SiO2 
 PCOD9557423
Probable space group: P -4 M 2
;
_chemical_formula_sum "Si O2"
_cell_formula_units_Z 32
_cell_length_a 14.356938
_cell_length_b 14.356938
_cell_length_c 10.501826
_cell_angle_alpha 90.000000
_cell_angle_beta 90.000000
_cell_angle_gamma 90.000000
_cell_volume 2164.653900
_symmetry_space_group_name_H-M "P -4 M 2"
_symmetry_group_IT_number 115
_symmetry_cell_setting 'tetragonal'
loop_
_space_group_symop_operation_xyz
x,y,z
y,-x,-z
-x,-y,z
-y,x,-z
y,x,-z
-y,-x,-z
-x,y,z
x,-y,z
loop_
_atom_site_type_symbol
_atom_site_label
_atom_site_fract_x
_atom_site_fract_y
_atom_site_fract_z
Si Si1 0.703250 0.387747 0.376488
Si Si2 0.698684 0.611727 0.873370
Si Si3 0.103656 0.387074 0.265236
Si Si4 0.104449 0.613141 0.969762
O O1 0.658282 0.341719 0.500000
O O2 0.696778 0.500000 0.384350
O O3 0.651210 0.351620 0.250520
O O4 0.811311 0.360307 0.355127
O O5 0.695999 0.500000 0.870701
O O6 0.807152 0.642123 0.886242
O O7 0.647554 0.647554 0.000000
O O8 0.102657 0.500000 0.264054
O O9 0.000000 0.355652 0.302572
O O10 0.120491 0.359298 0.117700
O O11 0.103521 0.500000 0.968282
O O12 0.000000 0.643764 0.932151
#
# Coordination Sequence:
#
# PCOD9557423 Si02
#       4
#     8   8   8   8
#     4  11  22  34  45  64  97 135 165 190 225 271
#     4  11  20  30  45  67  93 124 163 196 224 272
#     4   8  14  28  49  67  84 113 155 200 243 279
#     4   8  14  27  47  68  88 112 149 202 251 275
#
# _framework density 14.782963000000001
#
# number of rings (size 3 to 8) (size 9 to 14) (size 15 to 20)
#    0.000    2.500    2.500    3.000    0.000    3.000 
#    0.000    1.250    0.000    6.000    0.000    0.000 
#    0.000    6.000    0.000    0.000    0.000    0.000 
#
# Total GULP energy -178164.347029 kJ/mol
# GULP energy per Si atom -5567.635845 kJ/mol
# Density = 1.474932 g / cm^3
# Si number density = 14.782963 Si / 1000 Ang^3
#
#
#
# Elastic Constant Matrix: (Units=GPa)
#
#
# Indices 1 2 3 4 5 6 
#
# 1 80.2029 23.0650 35.0465 0.0000 0.0000 0.0000
# 2 23.0650 80.2040 35.0466 0.0000 0.0000 0.0000
# 3 35.0465 35.0466 82.9805 0.0000 0.0000 0.0000
# 4 0.0000 0.0000 0.0000 19.1705 0.0000 0.0000
# 5 0.0000 0.0000 0.0000 0.0000 19.1689 0.0000
# 6 0.0000 0.0000 0.0000 0.0000 0.0000 -2.7521
#
#
#
# Elastic Compliance Matrix: (Units=1/GPa)
#
#
# Indices 1 2 3 4 5 6 
#
# 1 0.015538 -0.001963 -0.005733 0.000000 0.000000 0.000000
# 2 -0.001963 0.015538 -0.005733 0.000000 0.000000 0.000000
# 3 -0.005733 -0.005733 0.016894 0.000000 0.000000 0.000000
# 4 0.000000 0.000000 0.000000 0.052163 0.000000 0.000000
# 5 0.000000 0.000000 0.000000 0.000000 0.052168 0.000000
# 6 0.000000 0.000000 0.000000 0.000000 0.000000 -0.363361
#
#
# Mechanical properties :
#
#
# Convention : Reuss Voigt Hill
#
# Bulk Modulus (GPa) = 47.36977 47.74486 47.55731
# Shear Modulus (GPa) = -28.22268 17.13274 -5.54497
#
# Velocity S-wave (km/s) = -4.37411 3.40803 -1.93883
# Velocity P-wave (km/s) = 2.56956 6.91763 5.21806
#
# Compressibility (1/GPa) = 0.02111051
#
# Stress axis : x y z
#
# Youngs Moduli (GPa) = 64.35716 64.35811 59.19275
#
# Poissons Ratio (x) = 0.12635 0.33938
# Poissons Ratio (y) = 0.12634 0.33937
# Poissons Ratio (z) = 0.36898 0.36899
#
# Static dielectric constant tensor:
#      x y z
#    x 1.503180 0.000000 0.000000 
#    y 0.000000 1.503180 0.000000 
#    z 0.000000 0.000000 1.474650 
# 
# From -- ./inp_files/1287.got.cif
#   From: 2010.05.17/outbox.cif.g08.bks.cpg/sg115_1_cif.got.tgz:1287.got - 2010.05.20 11:07:42.
