data_PCOD9557083
_publ_section_title
;
Structure prediction by ZEFSAII (Michael W. Deem and Ramdas Pophale) SiO2 
 PCOD9557083
Probable space group: P -4 M 2
;
_chemical_formula_sum "Si O2"
_cell_formula_units_Z 60
_cell_length_a 13.466960
_cell_length_b 13.466960
_cell_length_c 19.305513
_cell_angle_alpha 90.000000
_cell_angle_beta 90.000000
_cell_angle_gamma 90.000000
_cell_volume 3501.228757
_symmetry_space_group_name_H-M "P -4 M 2"
_symmetry_group_IT_number 115
_symmetry_cell_setting 'tetragonal'
loop_
_space_group_symop_operation_xyz
x,y,z
y,-x,-z
-x,-y,z
-y,x,-z
y,x,-z
-y,-x,-z
-x,y,z
x,-y,z
loop_
_atom_site_type_symbol
_atom_site_label
_atom_site_fract_x
_atom_site_fract_y
_atom_site_fract_z
Si Si1 0.728773 0.728773 0.371830
Si Si2 0.111012 0.111012 0.417165
Si Si3 0.384043 0.218873 0.000000
Si Si4 0.886468 0.618275 0.722836
Si Si5 0.619692 0.380309 0.500000
Si Si6 0.886468 0.381725 0.277162
Si Si7 0.719983 0.115162 0.872838
Si Si8 0.115162 0.280019 0.872838
O O1 0.807988 0.807987 0.400550
O O2 0.656265 0.797820 0.325940
O O3 0.670397 0.670395 0.432355
O O4 0.797820 0.656265 0.325939
O O5 0.105341 0.105341 0.500000
O O6 0.000000 0.135899 0.391155
O O7 0.135900 0.000000 0.391155
O O8 0.500000 0.238888 0.999999
O O9 0.351964 0.157149 0.932256
O O10 0.318760 0.318760 0.000000
O O11 0.351966 0.157151 0.067746
O O12 0.880102 0.500000 0.730340
O O13 0.875530 0.669610 0.797611
O O14 0.000000 0.640791 0.697573
O O15 0.500000 0.363803 0.499999
O O16 0.880102 0.500000 0.269658
O O17 0.875530 0.330390 0.202388
O O18 0.000000 0.359209 0.302426
O O19 0.818592 0.181409 0.874588
O O20 0.741059 0.000000 0.885755
O O21 0.000000 0.258944 0.885755
#
# Coordination Sequence:
#
# PCOD9557083 Si02
#       8
#     8   8   8   8   4   8   8   8
#     4  12  20  38  60  81 109 143 183 225 275 336
#     4   9  18  33  54  81 111 139 167 206 260 321
#     4  10  21  36  58  84 112 152 195 238 286 334
#     4  10  21  36  56  83 114 146 182 228 278 328
#     4  11  26  44  60  81 106 140 188 239 288 338
#     4  10  21  36  56  83 114 146 182 228 278 328
#     4  10  20  36  56  83 116 150 189 231 276 333
#     4  10  20  36  56  83 116 150 189 231 276 333
#
# _framework density 17.136841
#
# number of rings (size 3 to 8) (size 9 to 14) (size 15 to 20)
#    0.000    1.800    2.000    3.200    0.000    2.533 
#    0.000    0.000    0.000    5.600    0.000    0.000 
#    0.000    0.000    0.000    0.000    0.000    0.000 
#
# Total GULP energy -334724.594706 kJ/mol
# GULP energy per Si atom -5578.743245 kJ/mol
# Density = 1.709784 g / cm^3
# Si number density = 17.136841 Si / 1000 Ang^3
#
#
#
# Elastic Constant Matrix: (Units=GPa)
#
#
# Indices 1 2 3 4 5 6 
#
# 1 149.7527 49.8362 53.9768 0.0000 0.0000 0.0000
# 2 49.8362 149.7533 53.9769 0.0000 0.0000 0.0000
# 3 53.9768 53.9769 82.8722 0.0000 0.0000 0.0000
# 4 0.0000 0.0000 0.0000 -19.3449 0.0000 0.0000
# 5 0.0000 0.0000 0.0000 0.0000 -19.3409 0.0000
# 6 0.0000 0.0000 0.0000 0.0000 0.0000 22.9156
#
#
#
# Elastic Compliance Matrix: (Units=1/GPa)
#
#
# Indices 1 2 3 4 5 6 
#
# 1 0.008872 -0.001136 -0.005038 0.000000 0.000000 0.000000
# 2 -0.001136 0.008872 -0.005038 0.000000 0.000000 0.000000
# 3 -0.005038 -0.005038 0.018630 0.000000 0.000000 0.000000
# 4 0.000000 0.000000 0.000000 -0.051693 0.000000 0.000000
# 5 0.000000 0.000000 0.000000 0.000000 -0.051704 0.000000
# 6 0.000000 0.000000 0.000000 0.000000 0.000000 0.043638
#
#
# Mechanical properties :
#
#
# Convention : Reuss Voigt Hill
#
# Bulk Modulus (GPa) = 71.69689 77.55089 74.62389
# Shear Modulus (GPa) = 1355.03466 11.81852 683.42659
#
# Velocity S-wave (km/s) = 28.15015 2.62898 19.99178
# Velocity P-wave (km/s) = 33.14368 7.38698 24.01115
#
# Compressibility (1/GPa) = 0.01394761
#
# Stress axis : x y z
#
# Youngs Moduli (GPa) = 112.71585 112.71621 53.67726
#
# Poissons Ratio (x) = 0.12810 0.27044
# Poissons Ratio (y) = 0.12810 0.27044
# Poissons Ratio (z) = 0.56789 0.56789
#
# Static dielectric constant tensor:
#      x y z
#    x 1.565820 0.000000 0.000000 
#    y 0.000000 1.565820 0.000000 
#    z 0.000000 0.000000 1.579410 
# 
# From -- ./inp_files/4983.got.cif
#   From: 2010.05.17/outbox.cif.g08.bks.cpg/sg115_3_cif.got.tgz:4983.got - 2010.05.20 11:07:42.
