data_PCOD9557127
_publ_section_title
;
Structure prediction by ZEFSAII (Michael W. Deem and Ramdas Pophale) SiO2 
 PCOD9557127
Probable space group: P -4 M 2
;
_chemical_formula_sum "Si O2"
_cell_formula_units_Z 33
_cell_length_a 8.070130
_cell_length_b 8.070130
_cell_length_c 24.852315
_cell_angle_alpha 90.000000
_cell_angle_beta 90.000000
_cell_angle_gamma 90.000000
_cell_volume 1618.556675
_symmetry_space_group_name_H-M "P -4 M 2"
_symmetry_group_IT_number 115
_symmetry_cell_setting 'tetragonal'
loop_
_space_group_symop_operation_xyz
x,y,z
y,-x,-z
-x,-y,z
-y,x,-z
y,x,-z
-y,-x,-z
-x,y,z
x,-y,z
loop_
_atom_site_type_symbol
_atom_site_label
_atom_site_fract_x
_atom_site_fract_y
_atom_site_fract_z
Si Si1 0.686752 0.801967 0.724846
Si Si2 0.695320 0.304681 0.500000
Si Si3 0.697646 0.798705 0.845127
Si Si4 0.684857 0.193819 0.387988
Si Si5 0.000000 0.310186 0.919635
Si Si6 0.000000 0.000000 0.000000
O O1 0.500000 0.738215 0.717777
O O2 0.744292 0.746076 0.783853
O O3 0.780398 0.762606 0.670273
O O4 0.680178 0.000000 0.729235
O O5 0.500000 0.273337 0.494451
O O6 0.771871 0.257214 0.442382
O O7 0.500000 0.760210 0.853479
O O8 0.832627 0.719651 0.884573
O O9 0.711671 0.000000 0.849483
O O10 0.500000 0.269764 0.384312
O O11 0.670648 0.000000 0.396842
O O12 0.000000 0.500000 0.939760
O O13 0.000000 0.166499 0.964315
#
# Coordination Sequence:
#
# PCOD9557127 Si02
#       6
#     8   4   8   8   4   1
#     4   9  19  35  57  85 116 154 195 241 302 365
#     4   9  18  34  52  65  90 144 200 243 298 359
#     4   9  19  40  68  97 135 178 221 273 329 389
#     4  10  21  34  49  75 109 143 185 243 302 363
#     4  12  26  44  74 106 136 184 229 269 330 383
#     4  12  28  52  68 104 148 188 224 274 320 376
#
# _framework density 20.388535999999998
#
# number of rings (size 3 to 8) (size 9 to 14) (size 15 to 20)
#    0.000    2.303    1.212    2.182    1.697    5.333 
#    0.000    4.848    0.000    0.000    0.000    0.000 
#    0.000    0.000    0.000    0.000    0.000    0.000 
#
# Total GULP energy -183812.478178 kJ/mol
# GULP energy per Si atom -5570.075096 kJ/mol
# Density = 2.034213 g / cm^3
# Si number density = 20.388536 Si / 1000 Ang^3
#
#
#
# Elastic Constant Matrix: (Units=GPa)
#
#
# Indices 1 2 3 4 5 6 
#
# 1 115.3887 -27.3924 53.4828 0.0000 0.0000 0.0000
# 2 -27.3924 115.3880 53.4830 0.0000 0.0000 0.0000
# 3 53.4828 53.4830 146.0928 0.0000 0.0000 0.0000
# 4 0.0000 0.0000 0.0000 16.5745 0.0000 0.0000
# 5 0.0000 0.0000 0.0000 0.0000 16.5744 0.0000
# 6 0.0000 0.0000 0.0000 0.0000 0.0000 17.9769
#
#
#
# Elastic Compliance Matrix: (Units=1/GPa)
#
#
# Indices 1 2 3 4 5 6 
#
# 1 0.013740 0.006736 -0.007496 0.000000 0.000000 0.000000
# 2 0.006736 0.013740 -0.007496 0.000000 0.000000 0.000000
# 3 -0.007496 -0.007496 0.012333 0.000000 0.000000 0.000000
# 4 0.000000 0.000000 0.000000 0.060334 0.000000 0.000000
# 5 0.000000 0.000000 0.000000 0.000000 0.060334 0.000000
# 6 0.000000 0.000000 0.000000 0.000000 0.000000 0.055627
#
#
# Mechanical properties :
#
#
# Convention : Reuss Voigt Hill
#
# Bulk Modulus (GPa) = 42.91574 59.55738 51.23656
# Shear Modulus (GPa) = 20.79976 30.04489 25.42232
#
# Velocity S-wave (km/s) = 3.19747 3.84294 3.53497
# Velocity P-wave (km/s) = 5.89291 6.99754 6.46885
#
# Compressibility (1/GPa) = 0.02330147
#
# Stress axis : x y z
#
# Youngs Moduli (GPa) = 72.78051 72.77988 81.08027
#
# Poissons Ratio (x) = -0.49026 0.60779
# Poissons Ratio (y) = -0.49027 0.60779
# Poissons Ratio (z) = 0.54557 0.54557
#
# Static dielectric constant tensor:
#      x y z
#    x 1.738730 0.000000 0.000000 
#    y 0.000000 1.738730 0.000000 
#    z 0.000000 0.000000 1.604210 
# 
# From -- ./inp_files/4724.got.cif
#   From: 2010.05.17/outbox.cif.g08.bks.cpg/sg115_3_cif.got.tgz:4724.got - 2010.05.20 11:07:42.
