data_PCOD9557613
_publ_section_title
;
Structure prediction by ZEFSAII (Michael W. Deem and Ramdas Pophale) SiO2 
 PCOD9557613
Probable space group: P -4 C 2
;
_chemical_formula_sum "Si O2"
_cell_formula_units_Z 38
_cell_length_a 11.574516
_cell_length_b 11.574516
_cell_length_c 13.869295
_cell_angle_alpha 90.000000
_cell_angle_beta 90.000000
_cell_angle_gamma 90.000000
_cell_volume 1858.061416
_symmetry_space_group_name_H-M "P -4 C 2"
_symmetry_group_IT_number 116
_symmetry_cell_setting 'tetragonal'
loop_
_space_group_symop_operation_xyz
x,y,z
y,-x,-z
-x,-y,z
-y,x,-z
y,x,1/2-z
-y,-x,1/2-z
-x,y,1/2+z
x,-y,1/2+z
loop_
_atom_site_type_symbol
_atom_site_label
_atom_site_fract_x
_atom_site_fract_y
_atom_site_fract_z
Si Si1 0.226354 0.931954 0.647075
Si Si2 0.397419 0.918175 0.034616
Si Si3 0.397449 0.397449 0.250000
Si Si4 0.000000 0.000000 0.750000
Si Si5 0.459383 0.345780 0.561279
Si Si6 0.159084 0.329603 0.162248
O O1 0.111484 0.993251 0.683637
O O2 0.306624 0.913470 0.741392
O O3 0.195681 0.798397 0.621883
O O4 0.285256 0.013914 0.570398
O O5 0.416208 0.785558 0.066836
O O6 0.500000 0.000000 0.068792
O O7 0.393862 0.909342 0.919632
O O8 0.384433 0.496176 0.332488
O O9 0.276480 0.394185 0.191354
O O10 0.364968 0.431565 0.512410
#
# Coordination Sequence:
#
# PCOD9557613 Si02
#       6
#     8   8   4   2   8   8
#     4   9  21  41  64  96 135 169 216 281 342 400
#     4  12  24  40  71 100 135 173 235 271 335 423
#     4  10  19  45  68  84 136 180 216 295 340 379
#     4   8  18  44  66  98 128 176 222 264 346 426
#     4  11  25  45  66  98 134 179 237 283 343 404
#     4   9  20  40  66  94 135 175 215 280 349 388
#
# _framework density 20.451422000000001
#
# number of rings (size 3 to 8) (size 9 to 14) (size 15 to 20)
#    0.000    2.316    2.105    2.526    0.000    7.579 
#    0.000    3.158    0.000    0.000    0.000    0.000 
#    0.000    0.000    0.000    0.000    0.000    0.000 
#
# Total GULP energy -211931.976731 kJ/mol
# GULP energy per Si atom -5577.157282 kJ/mol
# Density = 2.040487 g / cm^3
# Si number density = 20.451422 Si / 1000 Ang^3
#
#
#
# Elastic Constant Matrix: (Units=GPa)
#
#
# Indices 1 2 3 4 5 6 
#
# 1 43.7362 22.3214 10.7311 0.0000 0.0000 0.0000
# 2 22.3214 43.7362 10.7311 0.0000 0.0000 0.0000
# 3 10.7311 10.7311 75.8173 0.0000 0.0000 0.0000
# 4 0.0000 0.0000 0.0000 18.9835 0.0000 0.0000
# 5 0.0000 0.0000 0.0000 0.0000 18.9835 0.0000
# 6 0.0000 0.0000 0.0000 0.0000 0.0000 34.1752
#
#
#
# Elastic Compliance Matrix: (Units=1/GPa)
#
#
# Indices 1 2 3 4 5 6 
#
# 1 0.031282 -0.015414 -0.002246 0.000000 0.000000 0.000000
# 2 -0.015414 0.031282 -0.002246 0.000000 0.000000 0.000000
# 3 -0.002246 -0.002246 0.013825 0.000000 0.000000 0.000000
# 4 0.000000 0.000000 0.000000 0.052677 0.000000 0.000000
# 5 0.000000 0.000000 0.000000 0.000000 0.052677 0.000000
# 6 0.000000 0.000000 0.000000 0.000000 0.000000 0.029261
#
#
# Mechanical properties :
#
#
# Convention : Reuss Voigt Hill
#
# Bulk Modulus (GPa) = 27.33913 27.87301 27.60607
# Shear Modulus (GPa) = 19.01063 22.39550 20.70307
#
# Velocity S-wave (km/s) = 3.05216 3.31276 3.18512
# Velocity P-wave (km/s) = 5.08112 5.31892 5.20138
#
# Compressibility (1/GPa) = 0.03657761
#
# Stress axis : x y z
#
# Youngs Moduli (GPa) = 31.96690 31.96690 72.33073
#
# Poissons Ratio (x) = 0.49275 0.16245
# Poissons Ratio (y) = 0.49275 0.16245
# Poissons Ratio (z) = 0.07180 0.07180
#
# Static dielectric constant tensor:
#      x y z
#    x 1.758550 0.000000 0.000000 
#    y 0.000000 1.758550 0.000000 
#    z 0.000000 0.000000 1.736020 
# 
# From -- ./inp_files/2635.got.cif
#   From: 2010.05.17/outbox.cif.g08.bks.cpg/sg116_2_cif.got.tgz:2635.got - 2010.05.20 11:11:43.
