data_PCOD9557061
_publ_section_title
;
Structure prediction by ZEFSAII (Michael W. Deem and Ramdas Pophale) SiO2 
 PCOD9557061
Probable space group: P -4 M 2
;
_chemical_formula_sum "Si O2"
_cell_formula_units_Z 40
_cell_length_a 9.104879
_cell_length_b 9.104879
_cell_length_c 26.840016
_cell_angle_alpha 90.000000
_cell_angle_beta 90.000000
_cell_angle_gamma 90.000000
_cell_volume 2225.005698
_symmetry_space_group_name_H-M "P -4 M 2"
_symmetry_group_IT_number 115
_symmetry_cell_setting 'tetragonal'
loop_
_space_group_symop_operation_xyz
x,y,z
y,-x,-z
-x,-y,z
-y,x,-z
y,x,-z
-y,-x,-z
-x,y,z
x,-y,z
loop_
_atom_site_type_symbol
_atom_site_label
_atom_site_fract_x
_atom_site_fract_y
_atom_site_fract_z
Si Si1 0.172532 0.676381 0.844430
Si Si2 0.174912 0.674550 0.452544
Si Si3 0.678887 0.331435 0.256149
Si Si4 0.179068 0.829564 0.945546
Si Si5 0.323562 0.173624 0.358214
O O1 0.182660 0.500000 0.846985
O O2 0.260067 0.728048 0.795810
O O3 0.226149 0.742485 0.896663
O O4 0.000000 0.713977 0.838456
O O5 0.250122 0.749879 0.500000
O O6 0.202025 0.500000 0.453563
O O7 0.242498 0.743779 0.402702
O O8 0.000000 0.698624 0.454188
O O9 0.500000 0.329639 0.255116
O O10 0.726205 0.500000 0.260614
O O11 0.721786 0.239059 0.304714
O O12 0.000000 0.824830 0.947109
O O13 0.221541 0.000000 0.940541
O O14 0.227288 0.772713 0.000000
O O15 0.500000 0.194556 0.363447
O O16 0.294608 0.000000 0.360245
#
# Coordination Sequence:
#
# PCOD9557061 Si02
#       5
#     8   8   8   8   8
#     4   9  16  27  45  68  91 117 155 202 245 287
#     4  11  24  40  58  82 111 142 176 213 254 302
#     4   9  17  30  49  72  99 132 167 203 247 299
#     4   8  14  26  44  64  87 118 155 193 237 293
#     4  10  20  35  57  83 107 134 173 217 258 303
#
# _framework density 17.977484
#
# number of rings (size 3 to 8) (size 9 to 14) (size 15 to 20)
#    0.000    2.600    0.000    3.000    0.000    7.600 
#    0.000    2.000    0.000    5.400    0.000    0.000 
#    0.000    0.000    0.000    0.000    0.000    0.000 
#
# Total GULP energy -223095.776109 kJ/mol
# GULP energy per Si atom -5577.394403 kJ/mol
# Density = 1.793657 g / cm^3
# Si number density = 17.977484 Si / 1000 Ang^3
#
#
#
# Elastic Constant Matrix: (Units=GPa)
#
#
# Indices 1 2 3 4 5 6 
#
# 1 62.4656 55.4888 75.0404 0.0000 0.0000 0.0000
# 2 55.4888 62.4645 75.0401 0.0000 0.0000 0.0000
# 3 75.0404 75.0401 211.1730 0.0000 0.0000 0.0000
# 4 0.0000 0.0000 0.0000 33.7670 0.0000 0.0000
# 5 0.0000 0.0000 0.0000 0.0000 33.7669 0.0000
# 6 0.0000 0.0000 0.0000 0.0000 0.0000 17.2656
#
#
#
# Elastic Compliance Matrix: (Units=1/GPa)
#
#
# Indices 1 2 3 4 5 6 
#
# 1 0.079408 -0.063935 -0.005499 0.000000 0.000000 0.000000
# 2 -0.063935 0.079410 -0.005499 0.000000 0.000000 0.000000
# 3 -0.005499 -0.005499 0.008643 0.000000 0.000000 0.000000
# 4 0.000000 0.000000 0.000000 0.029615 0.000000 0.000000
# 5 0.000000 0.000000 0.000000 0.000000 0.029615 0.000000
# 6 0.000000 0.000000 0.000000 0.000000 0.000000 0.057919
#
#
# Mechanical properties :
#
#
# Convention : Reuss Voigt Hill
#
# Bulk Modulus (GPa) = 56.82794 83.02689 69.92741
# Shear Modulus (GPa) = 11.35487 25.66214 18.50851
#
# Velocity S-wave (km/s) = 2.51592 3.78227 3.21212
# Velocity P-wave (km/s) = 6.33396 8.08444 7.26214
#
# Compressibility (1/GPa) = 0.01759698
#
# Stress axis : x y z
#
# Youngs Moduli (GPa) = 12.59320 12.59288 115.69426
#
# Poissons Ratio (x) = 0.80512 0.63615
# Poissons Ratio (y) = 0.80514 0.63621
# Poissons Ratio (z) = 0.06924 0.06925
#
# Static dielectric constant tensor:
#      x y z
#    x 1.605480 0.000000 0.000000 
#    y 0.000000 1.605480 0.000000 
#    z 0.000000 0.000000 1.607320 
# 
# From -- ./inp_files/5121.got.cif
#   From: 2010.05.17/outbox.cif.g08.bks.cpg/sg115_3_cif.got.tgz:5121.got - 2010.05.20 11:07:42.
