data_PCOD9557924
_publ_section_title
;
Structure prediction by ZEFSAII (Michael W. Deem and Ramdas Pophale) SiO2 
 PCOD9557924
Probable space group: P -4 C 2
;
_chemical_formula_sum "Si O2"
_cell_formula_units_Z 60
_cell_length_a 14.825125
_cell_length_b 14.825125
_cell_length_c 14.265012
_cell_angle_alpha 90.000000
_cell_angle_beta 90.000000
_cell_angle_gamma 90.000000
_cell_volume 3135.226123
_symmetry_space_group_name_H-M "P -4 C 2"
_symmetry_group_IT_number 116
_symmetry_cell_setting 'tetragonal'
loop_
_space_group_symop_operation_xyz
x,y,z
y,-x,-z
-x,-y,z
-y,x,-z
y,x,1/2-z
-y,-x,1/2-z
-x,y,1/2+z
x,-y,1/2+z
loop_
_atom_site_type_symbol
_atom_site_label
_atom_site_fract_x
_atom_site_fract_y
_atom_site_fract_z
Si Si1 0.497819 0.223780 0.747437
Si Si2 0.610086 0.996905 0.619913
Si Si3 0.714824 0.190229 0.072988
Si Si4 0.713200 0.603804 0.085667
Si Si5 0.677614 0.677614 0.750000
Si Si6 0.874264 0.299292 0.024363
Si Si7 0.266448 0.560109 0.952211
Si Si8 0.411477 0.958573 0.323699
O O1 0.581246 0.242653 0.815220
O O2 0.427442 0.304486 0.764423
O O3 0.519356 0.215421 0.637718
O O4 0.445536 0.136270 0.783040
O O5 0.663970 0.902573 0.600883
O O6 0.610697 0.015401 0.731403
O O7 0.500000 0.000000 0.595019
O O8 0.674346 0.068264 0.567131
O O9 0.702016 0.258954 0.161068
O O10 0.663962 0.222171 0.979312
O O11 0.820979 0.206172 0.045030
O O12 0.619488 0.655232 0.093015
O O13 0.699760 0.515378 0.022525
O O14 0.795673 0.374464 0.014055
O O15 0.939286 0.328640 0.109109
O O16 0.500000 0.000000 0.373442
#
# Coordination Sequence:
#
# PCOD9557924 Si02
#       8
#     8   8   8   8   4   8   8   8
#     4  12  22  37  55  80 115 157 204 252 309 359
#     4  11  22  36  60  94 119 153 204 264 302 364
#     4  11  21  39  61  85 122 161 200 254 320 379
#     4  11  22  36  52  77 110 160 200 255 301 357
#     4  12  20  38  61  82 114 169 210 250 310 376
#     4  11  22  38  60  85 121 159 197 248 320 380
#     4  11  22  38  53  76 112 155 206 249 301 355
#     4  11  21  33  59  88 117 151 197 254 312 359
#
# _framework density 19.137376
#
# number of rings (size 3 to 8) (size 9 to 14) (size 15 to 20)
#    0.000    0.800    5.333    4.000    1.867    0.267 
#    0.000    0.667    0.000    0.400    0.000    0.000 
#    0.000    3.200    0.000    0.000    0.000    0.000 
#
# Total GULP energy -334462.398071 kJ/mol
# GULP energy per Si atom -5574.373301 kJ/mol
# Density = 1.909382 g / cm^3
# Si number density = 19.137376 Si / 1000 Ang^3
#
#
#
# Elastic Constant Matrix: (Units=GPa)
#
#
# Indices 1 2 3 4 5 6 
#
# 1 50.3786 17.7647 15.0415 0.0000 0.0000 0.0000
# 2 17.7647 50.3786 15.0415 0.0000 0.0000 0.0000
# 3 15.0415 15.0415 87.4928 0.0000 0.0000 0.0000
# 4 0.0000 0.0000 0.0000 26.4030 0.0000 0.0000
# 5 0.0000 0.0000 0.0000 0.0000 26.4030 0.0000
# 6 0.0000 0.0000 0.0000 0.0000 0.0000 30.5516
#
#
#
# Elastic Compliance Matrix: (Units=1/GPa)
#
#
# Indices 1 2 3 4 5 6 
#
# 1 0.023271 -0.007391 -0.002730 0.000000 0.000000 0.000000
# 2 -0.007391 0.023271 -0.002730 0.000000 0.000000 0.000000
# 3 -0.002730 -0.002730 0.012368 0.000000 0.000000 0.000000
# 4 0.000000 0.000000 0.000000 0.037875 0.000000 0.000000
# 5 0.000000 0.000000 0.000000 0.000000 0.037875 0.000000
# 6 0.000000 0.000000 0.000000 0.000000 0.000000 0.032732
#
#
# Mechanical properties :
#
#
# Convention : Reuss Voigt Hill
#
# Bulk Modulus (GPa) = 30.11296 31.54948 30.83122
# Shear Modulus (GPa) = 24.49036 26.03166 25.26101
#
# Velocity S-wave (km/s) = 3.58119 3.69216 3.63710
# Velocity P-wave (km/s) = 5.73317 5.89047 5.81235
#
# Compressibility (1/GPa) = 0.03320830
#
# Stress axis : x y z
#
# Youngs Moduli (GPa) = 42.97201 42.97201 80.85247
#
# Poissons Ratio (x) = 0.31760 0.22073
# Poissons Ratio (y) = 0.31760 0.22073
# Poissons Ratio (z) = 0.11732 0.11732
#
# Static dielectric constant tensor:
#      x y z
#    x 1.721200 0.000000 0.000000 
#    y 0.000000 1.721200 0.000000 
#    z 0.000000 0.000000 1.720760 
# 
# From -- ./inp_files/2778.got.cif
#   From: 2010.05.17/outbox.cif.g08.bks.cpg/sg116_2_cif.got.tgz:2778.got - 2010.05.20 11:11:43.
