data_PCOD9557406
_publ_section_title
;
Structure prediction by ZEFSAII (Michael W. Deem and Ramdas Pophale) SiO2 
 PCOD9557406
Probable space group: P -4 M 2
;
_chemical_formula_sum "Si O2"
_cell_formula_units_Z 25
_cell_length_a 7.807000
_cell_length_b 7.807000
_cell_length_c 19.683051
_cell_angle_alpha 90.000000
_cell_angle_beta 90.000000
_cell_angle_gamma 90.000000
_cell_volume 1199.667176
_symmetry_space_group_name_H-M "P -4 M 2"
_symmetry_group_IT_number 115
_symmetry_cell_setting 'tetragonal'
loop_
_space_group_symop_operation_xyz
x,y,z
y,-x,-z
-x,-y,z
-y,x,-z
y,x,-z
-y,-x,-z
-x,y,z
x,-y,z
loop_
_atom_site_type_symbol
_atom_site_label
_atom_site_fract_x
_atom_site_fract_y
_atom_site_fract_z
Si Si1 0.203912 0.203912 0.500000
Si Si2 0.298740 0.801354 0.646542
Si Si3 0.813045 0.208519 0.790738
Si Si4 0.500000 0.500000 0.000000
Si Si5 0.791874 0.500000 0.111401
O O1 0.274203 0.271762 0.428358
O O2 0.000000 0.235292 0.501817
O O3 0.500000 0.804671 0.660908
O O4 0.213322 0.725935 0.713726
O O5 0.237288 0.000000 0.641007
O O6 0.663746 0.253621 0.842200
O O7 0.000000 0.258886 0.815699
O O8 0.806362 0.000000 0.785806
O O9 0.671195 0.500000 0.046056
O O10 0.000000 0.500000 0.098743
#
# Coordination Sequence:
#
# PCOD9557406 Si02
#       5
#     4   8   8   1   4
#     4   9  16  24  38  65  98 136 190 247 296 350
#     4   9  15  25  44  71 105 145 192 247 300 346
#     4   9  16  30  57  88 116 152 199 248 296 347
#     4  12  28  44  68  96 128 162 188 232 288 360
#     4  10  22  42  64  92 125 157 194 237 289 352
#
# _framework density 20.839113999999999
#
# number of rings (size 3 to 8) (size 9 to 14) (size 15 to 20)
#    0.000    2.720    1.600    0.960    0.000    5.120 
#    0.000    0.000    3.520    0.480    0.000    0.000 
#    0.000    0.000    0.000    0.000    0.000    0.000 
#
# Total GULP energy -139406.806005 kJ/mol
# GULP energy per Si atom -5576.272240 kJ/mol
# Density = 2.079168 g / cm^3
# Si number density = 20.839114 Si / 1000 Ang^3
#
#
#
# Elastic Constant Matrix: (Units=GPa)
#
#
# Indices 1 2 3 4 5 6 
#
# 1 63.8929 38.1718 59.0487 0.0000 0.0000 0.0000
# 2 38.1718 63.8929 59.0487 0.0000 0.0000 0.0000
# 3 59.0487 59.0487 160.7041 0.0000 0.0000 0.0000
# 4 0.0000 0.0000 0.0000 25.4322 0.0000 0.0000
# 5 0.0000 0.0000 0.0000 0.0000 25.4322 0.0000
# 6 0.0000 0.0000 0.0000 0.0000 0.0000 1.9794
#
#
#
# Elastic Compliance Matrix: (Units=1/GPa)
#
#
# Indices 1 2 3 4 5 6 
#
# 1 0.027961 -0.010917 -0.006263 0.000000 0.000000 0.000000
# 2 -0.010917 0.027961 -0.006263 0.000000 0.000000 0.000000
# 3 -0.006263 -0.006263 0.010825 0.000000 0.000000 0.000000
# 4 0.000000 0.000000 0.000000 0.039320 0.000000 0.000000
# 5 0.000000 0.000000 0.000000 0.000000 0.039320 0.000000
# 6 0.000000 0.000000 0.000000 0.000000 0.000000 0.505193
#
#
# Mechanical properties :
#
#
# Convention : Reuss Voigt Hill
#
# Bulk Modulus (GPa) = 50.34608 66.78094 58.56351
# Shear Modulus (GPa) = 7.10139 19.38347 13.24243
#
# Velocity S-wave (km/s) = 1.84800 3.05314 2.52357
# Velocity P-wave (km/s) = 5.36333 6.67416 6.05433
#
# Compressibility (1/GPa) = 0.01986252
#
# Stress axis : x y z
#
# Youngs Moduli (GPa) = 35.76371 35.76371 92.37980
#
# Poissons Ratio (x) = 0.39044 0.57854
# Poissons Ratio (y) = 0.39044 0.57854
# Poissons Ratio (z) = 0.22398 0.22398
#
# Static dielectric constant tensor:
#      x y z
#    x 1.758000 0.000000 0.000000 
#    y 0.000000 1.758000 0.000000 
#    z 0.000000 0.000000 1.747580 
# 
# From -- ./inp_files/3985.got.cif
#   From: 2010.05.17/outbox.cif.g08.bks.cpg/sg115_2_cif.got.tgz:3985.got - 2010.05.20 11:07:42.
