data_PCOD9557829
_publ_section_title
;
Structure prediction by ZEFSAII (Michael W. Deem and Ramdas Pophale) SiO2 
 PCOD9557829
Probable space group: P -4 C 2
;
_chemical_formula_sum "Si O2"
_cell_formula_units_Z 48
_cell_length_a 14.183046
_cell_length_b 14.183046
_cell_length_c 11.773951
_cell_angle_alpha 90.000000
_cell_angle_beta 90.000000
_cell_angle_gamma 90.000000
_cell_volume 2368.433782
_symmetry_space_group_name_H-M "P -4 C 2"
_symmetry_group_IT_number 116
_symmetry_cell_setting 'tetragonal'
loop_
_space_group_symop_operation_xyz
x,y,z
y,-x,-z
-x,-y,z
-y,x,-z
y,x,1/2-z
-y,-x,1/2-z
-x,y,1/2+z
x,-y,1/2+z
loop_
_atom_site_type_symbol
_atom_site_label
_atom_site_fract_x
_atom_site_fract_y
_atom_site_fract_z
Si Si1 0.207552 0.347843 0.705910
Si Si2 0.889204 0.533112 0.150745
Si Si3 0.810758 0.852151 0.976722
Si Si4 0.008161 0.140569 0.692941
Si Si5 0.091087 0.339737 0.936740
Si Si6 0.305722 0.090402 0.180290
O O1 0.308571 0.308571 0.750000
O O2 0.186015 0.448918 0.652186
O O3 0.170664 0.270937 0.615033
O O4 0.144553 0.353711 0.818935
O O5 0.866454 0.609369 0.249146
O O6 0.000000 0.500000 0.165701
O O7 0.881782 0.587653 0.032698
O O8 0.855301 0.952572 0.936550
O O9 0.882996 0.766212 0.972252
O O10 0.766243 0.851109 0.102588
O O11 0.105485 0.105485 0.750000
O O12 0.971120 0.241508 0.733343
O O13 0.931865 0.068136 0.750000
O O14 0.981146 0.349083 0.911443
#
# Coordination Sequence:
#
# PCOD9557829 Si02
#       6
#     8   8   8   8   8   8
#     4  10  22  44  66  87 127 168 205 264 354 417
#     4  12  25  39  63 100 128 167 219 279 344 408
#     4  11  23  42  59  88 127 175 220 273 328 395
#     4  11  22  38  56  82 130 191 239 260 307 385
#     4  11  23  41  62  88 130 171 213 278 334 384
#     4  12  24  37  62  89 134 172 223 282 322 386
#
# _framework density 20.266556999999999
#
# number of rings (size 3 to 8) (size 9 to 14) (size 15 to 20)
#    0.000    0.833    5.000    2.500    9.333    0.000 
#    0.000    1.667    0.000    0.000    0.000    2.333 
#    0.000    0.000    0.000    0.000    0.000    0.000 
#
# Total GULP energy -267913.169767 kJ/mol
# GULP energy per Si atom -5581.524370 kJ/mol
# Density = 2.022043 g / cm^3
# Si number density = 20.266557 Si / 1000 Ang^3
#
#
#
# Elastic Constant Matrix: (Units=GPa)
#
#
# Indices 1 2 3 4 5 6 
#
# 1 83.3179 23.8828 23.7601 0.0000 0.0000 0.0000
# 2 23.8828 83.3183 23.7601 0.0000 0.0000 0.0000
# 3 23.7601 23.7601 71.8946 0.0000 0.0000 0.0000
# 4 0.0000 0.0000 0.0000 32.4651 0.0000 0.0000
# 5 0.0000 0.0000 0.0000 0.0000 32.4654 0.0000
# 6 0.0000 0.0000 0.0000 0.0000 0.0000 22.4382
#
#
#
# Elastic Compliance Matrix: (Units=1/GPa)
#
#
# Indices 1 2 3 4 5 6 
#
# 1 0.013877 -0.002948 -0.003612 0.000000 0.000000 0.000000
# 2 -0.002948 0.013877 -0.003612 0.000000 0.000000 0.000000
# 3 -0.003612 -0.003612 0.016297 0.000000 0.000000 0.000000
# 4 0.000000 0.000000 0.000000 0.030802 0.000000 0.000000
# 5 0.000000 0.000000 0.000000 0.000000 0.030802 0.000000
# 6 0.000000 0.000000 0.000000 0.000000 0.000000 0.044567
#
#
# Mechanical properties :
#
#
# Convention : Reuss Voigt Hill
#
# Bulk Modulus (GPa) = 42.18078 42.37075 42.27577
# Shear Modulus (GPa) = 28.01616 28.61560 28.31588
#
# Velocity S-wave (km/s) = 3.72208 3.76168 3.74193
# Velocity P-wave (km/s) = 6.27136 6.31024 6.29083
#
# Compressibility (1/GPa) = 0.02370748
#
# Stress axis : x y z
#
# Youngs Moduli (GPa) = 72.06040 72.06080 61.36223
#
# Poissons Ratio (x) = 0.21242 0.22164
# Poissons Ratio (y) = 0.21242 0.22164
# Poissons Ratio (z) = 0.26028 0.26028
#
# Static dielectric constant tensor:
#      x y z
#    x 1.783120 0.000000 0.000000 
#    y 0.000000 1.783110 0.000000 
#    z 0.000000 0.000000 1.796180 
# 
# From -- ./inp_files/1897.got.cif
#   From: 2010.05.17/outbox.cif.g08.bks.cpg/sg116_1_cif.got.tgz:1897.got - 2010.05.20 11:11:43.
