data_PCOD9557666
_publ_section_title
;
Structure prediction by ZEFSAII (Michael W. Deem and Ramdas Pophale) SiO2 
 PCOD9557666
Probable space group: P -4 C 2
;
_chemical_formula_sum "Si O2"
_cell_formula_units_Z 48
_cell_length_a 12.501015
_cell_length_b 12.501015
_cell_length_c 17.575687
_cell_angle_alpha 90.000000
_cell_angle_beta 90.000000
_cell_angle_gamma 90.000000
_cell_volume 2746.647095
_symmetry_space_group_name_H-M "P -4 C 2"
_symmetry_group_IT_number 116
_symmetry_cell_setting 'tetragonal'
loop_
_space_group_symop_operation_xyz
x,y,z
y,-x,-z
-x,-y,z
-y,x,-z
y,x,1/2-z
-y,-x,1/2-z
-x,y,1/2+z
x,-y,1/2+z
loop_
_atom_site_type_symbol
_atom_site_label
_atom_site_fract_x
_atom_site_fract_y
_atom_site_fract_z
Si Si1 0.113211 0.628681 0.026703
Si Si2 0.878732 0.612730 0.072238
Si Si3 0.127100 0.508377 0.872074
Si Si4 0.321221 0.263189 0.561080
Si Si5 0.786419 0.378938 0.722456
Si Si6 0.616697 0.449440 0.169298
O O1 0.120065 0.516428 0.072149
O O2 0.193059 0.718066 0.059396
O O3 0.986964 0.654001 0.031251
O O4 0.149571 0.589509 0.942593
O O5 0.873569 0.648522 0.159038
O O6 0.775782 0.649272 0.023747
O O7 0.178730 0.392251 0.890128
O O8 0.170750 0.556853 0.794584
O O9 0.000000 0.500000 0.868967
O O10 0.360740 0.375275 0.596828
O O11 0.725380 0.274621 0.750000
O O12 0.700339 0.455467 0.680829
O O13 0.500000 0.500000 0.161582
O O14 0.615097 0.384904 0.250000
#
# Coordination Sequence:
#
# PCOD9557666 Si02
#       6
#     8   8   8   8   8   8
#     4  10  20  39  57  83 117 145 200 249 286 354
#     4  10  22  38  55  87 116 150 201 244 281 354
#     4  11  22  37  58  88 117 148 200 247 290 362
#     4  11  20  37  60  76 114 162 187 242 305 342
#     4  12  22  36  57  85 124 161 189 237 300 359
#     4  11  20  34  50  83 125 151 189 232 275 372
#
# _framework density 17.475850999999999
#
# number of rings (size 3 to 8) (size 9 to 14) (size 15 to 20)
#    0.000    1.167    8.333    1.000    2.333    1.333 
#    0.000    0.000    0.000    0.500    0.000    1.167 
#    0.000    0.000    0.000    0.000    0.000    0.000 
#
# Total GULP energy -267352.583750 kJ/mol
# GULP energy per Si atom -5569.845495 kJ/mol
# Density = 1.743608 g / cm^3
# Si number density = 17.475851 Si / 1000 Ang^3
#
#
#
# Elastic Constant Matrix: (Units=GPa)
#
#
# Indices 1 2 3 4 5 6 
#
# 1 58.5155 34.7002 33.4950 0.0000 0.0000 0.0000
# 2 34.7002 58.5168 33.4950 0.0000 0.0000 0.0000
# 3 33.4950 33.4950 102.2729 0.0000 0.0000 0.0000
# 4 0.0000 0.0000 0.0000 18.0435 0.0000 0.0000
# 5 0.0000 0.0000 0.0000 0.0000 18.0432 0.0000
# 6 0.0000 0.0000 0.0000 0.0000 0.0000 18.3490
#
#
#
# Elastic Compliance Matrix: (Units=1/GPa)
#
#
# Indices 1 2 3 4 5 6 
#
# 1 0.028010 -0.013979 -0.004595 0.000000 0.000000 0.000000
# 2 -0.013979 0.028009 -0.004595 0.000000 0.000000 0.000000
# 3 -0.004595 -0.004595 0.012787 0.000000 0.000000 0.000000
# 4 0.000000 0.000000 0.000000 0.055421 0.000000 0.000000
# 5 0.000000 0.000000 0.000000 0.000000 0.055423 0.000000
# 6 0.000000 0.000000 0.000000 0.000000 0.000000 0.054499
#
#
# Mechanical properties :
#
#
# Convention : Reuss Voigt Hill
#
# Bulk Modulus (GPa) = 44.50836 46.96506 45.73671
# Shear Modulus (GPa) = 17.36253 18.72813 18.04533
#
# Velocity S-wave (km/s) = 3.15543 3.27717 3.21687
# Velocity P-wave (km/s) = 6.22892 6.42280 6.32660
#
# Compressibility (1/GPa) = 0.02246769
#
# Stress axis : x y z
#
# Youngs Moduli (GPa) = 35.70205 35.70305 78.20164
#
# Poissons Ratio (x) = 0.49911 0.35934
# Poissons Ratio (y) = 0.49909 0.35931
# Poissons Ratio (z) = 0.16405 0.16405
#
# Static dielectric constant tensor:
#      x y z
#    x 1.605950 0.000000 0.000000 
#    y 0.000000 1.605950 0.000000 
#    z 0.000000 0.000000 1.678150 
# 
# From -- ./inp_files/3391.got.cif
#   From: 2010.05.17/outbox.cif.g08.bks.cpg/sg116_2_cif.got.tgz:3391.got - 2010.05.20 11:11:43.
