data_PCOD9557546
_publ_section_title
;
Structure prediction by ZEFSAII (Michael W. Deem and Ramdas Pophale) SiO2 
 PCOD9557546
Probable space group: P -4 C 2
;
_chemical_formula_sum "Si O2"
_cell_formula_units_Z 56
_cell_length_a 13.145393
_cell_length_b 13.145393
_cell_length_c 19.419637
_cell_angle_alpha 90.000000
_cell_angle_beta 90.000000
_cell_angle_gamma 90.000000
_cell_volume 3355.739628
_symmetry_space_group_name_H-M "P -4 C 2"
_symmetry_group_IT_number 116
_symmetry_cell_setting 'tetragonal'
loop_
_space_group_symop_operation_xyz
x,y,z
y,-x,-z
-x,-y,z
-y,x,-z
y,x,1/2-z
-y,-x,1/2-z
-x,y,1/2+z
x,-y,1/2+z
loop_
_atom_site_type_symbol
_atom_site_label
_atom_site_fract_x
_atom_site_fract_y
_atom_site_fract_z
Si Si1 0.723643 0.407544 0.586083
Si Si2 0.093469 0.569006 0.392911
Si Si3 0.714386 0.093683 0.975170
Si Si4 0.753955 0.710151 0.828966
Si Si5 0.450664 0.603252 0.329279
Si Si6 0.573175 0.758057 0.027645
Si Si7 0.864907 0.754126 0.550364
O O1 0.833081 0.351838 0.575761
O O2 0.691678 0.466143 0.655985
O O3 0.714812 0.493431 0.527197
O O4 0.640605 0.323867 0.566703
O O5 0.070601 0.639564 0.459861
O O6 0.145133 0.643357 0.338275
O O7 0.177960 0.490254 0.418141
O O8 0.000000 0.500000 0.370091
O O9 0.753312 0.986497 0.946322
O O10 0.809595 0.159010 0.004326
O O11 0.735099 0.735099 0.750000
O O12 0.657173 0.644550 0.856947
O O13 0.760814 0.809857 0.875986
O O14 0.500000 0.500000 0.359763
O O15 0.424615 0.575386 0.250000
O O16 0.648892 0.830402 0.984985
#
# Coordination Sequence:
#
# PCOD9557546 Si02
#       7
#     8   8   8   8   8   8   8
#     4  10  20  30  46  78 105 141 176 211 264 323
#     4  10  18  33  54  74 104 141 175 221 275 319
#     4   9  20  32  54  82 107 131 175 229 293 318
#     4  10  21  36  51  76 111 146 185 218 257 329
#     4  10  20  33  48  68 106 150 182 214 251 304
#     4  10  19  29  49  78 107 134 172 219 267 319
#     4  10  18  36  54  81 108 136 170 236 281 327
#
# _framework density 16.687826999999999
#
# number of rings (size 3 to 8) (size 9 to 14) (size 15 to 20)
#    0.000    2.143    2.857    1.714    2.000    0.286 
#    0.000    2.857    0.000    0.000    0.000    4.000 
#    0.000    0.000    0.000    0.000    0.000    0.000 
#
# Total GULP energy -311913.137656 kJ/mol
# GULP energy per Si atom -5569.877458 kJ/mol
# Density = 1.664984 g / cm^3
# Si number density = 16.687827 Si / 1000 Ang^3
#
#
#
# Elastic Constant Matrix: (Units=GPa)
#
#
# Indices 1 2 3 4 5 6 
#
# 1 107.9628 51.1525 39.9586 0.0000 0.0000 0.0000
# 2 51.1525 107.9626 39.9587 0.0000 0.0000 0.0000
# 3 39.9586 39.9587 63.7525 0.0000 0.0000 0.0000
# 4 0.0000 0.0000 0.0000 14.1645 0.0000 0.0000
# 5 0.0000 0.0000 0.0000 0.0000 14.1645 0.0000
# 6 0.0000 0.0000 0.0000 0.0000 0.0000 22.3603
#
#
#
# Elastic Compliance Matrix: (Units=1/GPa)
#
#
# Indices 1 2 3 4 5 6 
#
# 1 0.013387 -0.004215 -0.005749 0.000000 0.000000 0.000000
# 2 -0.004215 0.013387 -0.005749 0.000000 0.000000 0.000000
# 3 -0.005749 -0.005749 0.022892 0.000000 0.000000 0.000000
# 4 0.000000 0.000000 0.000000 0.070599 0.000000 0.000000
# 5 0.000000 0.000000 0.000000 0.000000 0.070599 0.000000
# 6 0.000000 0.000000 0.000000 0.000000 0.000000 0.044722
#
#
# Mechanical properties :
#
#
# Convention : Reuss Voigt Hill
#
# Bulk Modulus (GPa) = 54.82173 60.20195 57.51184
# Shear Modulus (GPa) = 18.30877 20.04509 19.17693
#
# Velocity S-wave (km/s) = 3.31589 3.46956 3.39360
# Velocity P-wave (km/s) = 6.89803 7.22525 7.06353
#
# Compressibility (1/GPa) = 0.01824094
#
# Stress axis : x y z
#
# Youngs Moduli (GPa) = 74.69750 74.69731 43.68284
#
# Poissons Ratio (x) = 0.31486 0.25113
# Poissons Ratio (y) = 0.31486 0.25113
# Poissons Ratio (z) = 0.42943 0.42943
#
# Static dielectric constant tensor:
#      x y z
#    x 1.580350 0.000000 0.000000 
#    y 0.000000 1.580350 0.000000 
#    z 0.000000 0.000000 1.571670 
# 
# From -- ./inp_files/4124.got.cif
#   From: 2010.05.17/outbox.cif.g08.bks.cpg/sg116_3_cif.got.tgz:4124.got - 2010.05.20 11:11:43.
