data_PCOD9557323
_publ_section_title
;
Structure prediction by ZEFSAII (Michael W. Deem and Ramdas Pophale) SiO2 
 PCOD9557323
Probable space group: P -4 M 2
;
_chemical_formula_sum "Si O2"
_cell_formula_units_Z 48
_cell_length_a 9.073270
_cell_length_b 9.073270
_cell_length_c 31.534944
_cell_angle_alpha 90.000000
_cell_angle_beta 90.000000
_cell_angle_gamma 90.000000
_cell_volume 2596.089935
_symmetry_space_group_name_H-M "P -4 M 2"
_symmetry_group_IT_number 115
_symmetry_cell_setting 'tetragonal'
loop_
_space_group_symop_operation_xyz
x,y,z
y,-x,-z
-x,-y,z
-y,x,-z
y,x,-z
-y,-x,-z
-x,y,z
x,-y,z
loop_
_atom_site_type_symbol
_atom_site_label
_atom_site_fract_x
_atom_site_fract_y
_atom_site_fract_z
Si Si1 0.826539 0.323466 0.751088
Si Si2 0.324983 0.324983 0.000000
Si Si3 0.823937 0.326901 0.168442
Si Si4 0.675597 0.675597 0.500000
Si Si5 0.323629 0.674532 0.337968
Si Si6 0.824413 0.175113 0.418653
Si Si7 0.826216 0.323301 0.911936
O O1 0.811026 0.500000 0.757009
O O2 0.755170 0.242676 0.790917
O O3 0.745014 0.284186 0.707345
O O4 0.000000 0.290102 0.747892
O O5 0.280617 0.238352 0.042227
O O6 0.301926 0.500000 0.006915
O O7 0.786907 0.500000 0.170590
O O8 0.756871 0.257400 0.125954
O O9 0.000000 0.311526 0.168113
O O10 0.700827 0.500000 0.499264
O O11 0.749241 0.745747 0.541461
O O12 0.500000 0.694906 0.344017
O O13 0.293813 0.500000 0.337989
O O14 0.238598 0.753845 0.375826
O O15 0.000000 0.197842 0.421426
O O16 0.795930 0.000000 0.418972
O O17 0.805310 0.500000 0.907528
O O18 0.000000 0.292704 0.909753
#
# Coordination Sequence:
#
# PCOD9557323 Si02
#       7
#     8   4   8   4   8   8   8
#     4  10  21  38  61  87 114 147 188 233 283 338
#     4   9  18  34  56  81 110 146 186 227 272 325
#     4  11  24  39  56  81 113 149 189 233 281 333
#     4  11  24  41  62  88 116 149 192 239 286 338
#     4  10  21  38  61  88 116 149 191 235 280 334
#     4  11  24  40  59  86 119 154 192 234 283 338
#     4  10  21  37  58  84 113 146 185 229 278 333
#
# _framework density 18.489343000000002
#
# number of rings (size 3 to 8) (size 9 to 14) (size 15 to 20)
#    0.000    1.667    0.000    4.000    0.000   12.667 
#    0.000    1.667    0.000    0.000    0.000    0.000 
#    0.000    0.000    0.000    0.000    0.000    0.000 
#
# Total GULP energy -268378.912197 kJ/mol
# GULP energy per Si atom -5591.227337 kJ/mol
# Density = 1.844726 g / cm^3
# Si number density = 18.489343 Si / 1000 Ang^3
#
#
#
# Elastic Constant Matrix: (Units=GPa)
#
#
# Indices 1 2 3 4 5 6 
#
# 1 105.7385 92.6643 101.3081 0.0000 0.0000 0.0000
# 2 92.6643 105.7385 101.3081 0.0000 0.0000 0.0000
# 3 101.3081 101.3081 195.9038 0.0000 0.0000 0.0000
# 4 0.0000 0.0000 0.0000 100.3660 0.0000 0.0000
# 5 0.0000 0.0000 0.0000 0.0000 100.3660 0.0000
# 6 0.0000 0.0000 0.0000 0.0000 0.0000 29.9329
#
#
#
# Elastic Compliance Matrix: (Units=1/GPa)
#
#
# Indices 1 2 3 4 5 6 
#
# 1 0.043584 -0.032903 -0.005524 0.000000 0.000000 0.000000
# 2 -0.032903 0.043584 -0.005524 0.000000 0.000000 0.000000
# 3 -0.005524 -0.005524 0.010817 0.000000 0.000000 0.000000
# 4 0.000000 0.000000 0.000000 0.009964 0.000000 0.000000
# 5 0.000000 0.000000 0.000000 0.000000 0.009964 0.000000
# 6 0.000000 0.000000 0.000000 0.000000 0.000000 0.033408
#
#
# Mechanical properties :
#
#
# Convention : Reuss Voigt Hill
#
# Bulk Modulus (GPa) = 99.15343 110.88244 105.01793
# Shear Modulus (GPa) = 20.61168 53.60635 37.10901
#
# Velocity S-wave (km/s) = 3.34246 5.39037 4.48487
# Velocity P-wave (km/s) = 8.28492 9.94196 9.15102
#
# Compressibility (1/GPa) = 0.01008538
#
# Stress axis : x y z
#
# Youngs Moduli (GPa) = 22.94436 22.94436 92.44425
#
# Poissons Ratio (x) = 0.75493 0.51062
# Poissons Ratio (y) = 0.75493 0.51062
# Poissons Ratio (z) = 0.12673 0.12673
#
# Static dielectric constant tensor:
#      x y z
#    x 1.616460 0.000000 0.000000 
#    y 0.000000 1.616460 0.000000 
#    z 0.000000 0.000000 1.593180 
# 
# From -- ./inp_files/6248.got.cif
#   From: 2010.05.17/outbox.cif.g08.bks.cpg/sg115_4_cif.got.tgz:6248.got - 2010.05.20 11:07:42.
