data_PCOD9557893
_publ_section_title
;
Structure prediction by ZEFSAII (Michael W. Deem and Ramdas Pophale) SiO2 
 PCOD9557893
Probable space group: P -4 C 2
;
_chemical_formula_sum "Si O2"
_cell_formula_units_Z 20
_cell_length_a 8.390069
_cell_length_b 8.390069
_cell_length_c 12.250412
_cell_angle_alpha 90.000000
_cell_angle_beta 90.000000
_cell_angle_gamma 90.000000
_cell_volume 862.346410
_symmetry_space_group_name_H-M "P -4 C 2"
_symmetry_group_IT_number 116
_symmetry_cell_setting 'tetragonal'
loop_
_space_group_symop_operation_xyz
x,y,z
y,-x,-z
-x,-y,z
-y,x,-z
y,x,1/2-z
-y,-x,1/2-z
-x,y,1/2+z
x,-y,1/2+z
loop_
_atom_site_type_symbol
_atom_site_label
_atom_site_fract_x
_atom_site_fract_y
_atom_site_fract_z
Si Si1 0.241540 0.758461 0.750000
Si Si2 0.871714 0.222200 0.972275
Si Si3 0.562759 0.318745 0.359752
O O1 0.110383 0.748885 0.843166
O O2 0.232839 0.596789 0.679992
O O3 0.766855 0.348757 0.040605
O O4 0.048622 0.208324 0.018695
O O5 0.500000 0.500000 0.381014
O O6 0.669984 0.330017 0.250000
#
# Coordination Sequence:
#
# PCOD9557893 Si02
#       3
#     4   8   8
#     4  10  25  45  70 108 140 204 247 297 376 426
#     4  11  27  47  74 109 155 193 245 308 383 446
#     4   9  23  46  73 100 149 191 252 306 355 436
#
# _framework density 23.192537000000002
#
# number of rings (size 3 to 8) (size 9 to 14) (size 15 to 20)
#    0.000    2.400    0.000    0.000   16.800    4.800 
#    7.200    0.000    0.000    0.000    0.000    0.000 
#    0.000    0.000    0.000    0.000    0.000    0.000 
#
# Total GULP energy -111751.552337 kJ/mol
# GULP energy per Si atom -5587.577617 kJ/mol
# Density = 2.313975 g / cm^3
# Si number density = 23.192537 Si / 1000 Ang^3
#
#
#
# Elastic Constant Matrix: (Units=GPa)
#
#
# Indices 1 2 3 4 5 6 
#
# 1 69.1257 64.4316 50.3261 0.0000 0.0000 0.0000
# 2 64.4316 69.1259 50.3271 0.0000 0.0000 0.0000
# 3 50.3261 50.3271 170.6637 0.0000 0.0000 0.0000
# 4 0.0000 0.0000 0.0000 18.4389 0.0000 0.0000
# 5 0.0000 0.0000 0.0000 0.0000 18.4364 0.0000
# 6 0.0000 0.0000 0.0000 0.0000 0.0000 35.7555
#
#
#
# Elastic Compliance Matrix: (Units=1/GPa)
#
#
# Indices 1 2 3 4 5 6 
#
# 1 0.111329 -0.101702 -0.002838 0.000000 0.000000 0.000000
# 2 -0.101702 0.111330 -0.002840 0.000000 0.000000 0.000000
# 3 -0.002838 -0.002840 0.007534 0.000000 0.000000 0.000000
# 4 0.000000 0.000000 0.000000 0.054233 0.000000 0.000000
# 5 0.000000 0.000000 0.000000 0.000000 0.054240 0.000000
# 6 0.000000 0.000000 0.000000 0.000000 0.000000 0.027968
#
#
# Mechanical properties :
#
#
# Convention : Reuss Voigt Hill
#
# Bulk Modulus (GPa) = 64.79996 71.00943 67.90470
# Shear Modulus (GPa) = 8.52461 24.11487 16.31974
#
# Velocity S-wave (km/s) = 1.91926 3.22804 2.65554
# Velocity P-wave (km/s) = 5.73690 6.67664 6.22453
#
# Compressibility (1/GPa) = 0.01543211
#
# Stress axis : x y z
#
# Youngs Moduli (GPa) = 8.98242 8.98234 132.73600
#
# Poissons Ratio (x) = 0.91352 0.37671
# Poissons Ratio (y) = 0.91353 0.37692
# Poissons Ratio (z) = 0.02549 0.02551
#
# Static dielectric constant tensor:
#      x y z
#    x 1.890190 0.000000 0.000000 
#    y 0.000000 1.890190 0.000000 
#    z 0.000000 0.000000 2.097970 
# 
# From -- ./inp_files/1223.got.cif
#   From: 2010.05.17/outbox.cif.g08.bks.cpg/sg116_1_cif.got.tgz:1223.got - 2010.05.20 11:11:43.
