data_PCOD9557892
_publ_section_title
;
Structure prediction by ZEFSAII (Michael W. Deem and Ramdas Pophale) SiO2 
 PCOD9557892
Probable space group: P -4 C 2
;
_chemical_formula_sum "Si O2"
_cell_formula_units_Z 36
_cell_length_a 11.714509
_cell_length_b 11.714509
_cell_length_c 11.762580
_cell_angle_alpha 90.000000
_cell_angle_beta 90.000000
_cell_angle_gamma 90.000000
_cell_volume 1614.175573
_symmetry_space_group_name_H-M "P -4 C 2"
_symmetry_group_IT_number 116
_symmetry_cell_setting 'tetragonal'
loop_
_space_group_symop_operation_xyz
x,y,z
y,-x,-z
-x,-y,z
-y,x,-z
y,x,1/2-z
-y,-x,1/2-z
-x,y,1/2+z
x,-y,1/2+z
loop_
_atom_site_type_symbol
_atom_site_label
_atom_site_fract_x
_atom_site_fract_y
_atom_site_fract_z
Si Si1 0.787655 0.786949 0.385744
Si Si2 0.711216 0.021629 0.480832
Si Si3 0.500000 0.000000 0.640404
Si Si4 0.578085 0.663845 0.990971
Si Si5 0.370987 0.814392 0.293093
O O1 0.788233 0.788233 0.250000
O O2 0.915887 0.800342 0.436574
O O3 0.727765 0.671304 0.431828
O O4 0.723180 0.892367 0.443452
O O5 0.599207 0.036590 0.556428
O O6 0.700881 0.095234 0.367042
O O7 0.449388 0.106819 0.712272
O O8 0.553505 0.742479 0.882049
O O9 0.633280 0.542794 0.952731
O O10 0.278351 0.721650 0.250000
#
# Coordination Sequence:
#
# PCOD9557892 Si02
#       5
#     8   8   4   8   8
#     4  11  26  45  73 102 145 196 249 317 392 453
#     4  11  26  45  68 107 142 188 259 315 377 468
#     4  12  24  44  76 108 146 200 254 318 386 454
#     4  10  25  45  68 106 152 188 245 309 370 466
#     4  11  26  43  75 107 149 200 254 315 380 460
#
# _framework density 22.302406999999999
#
# number of rings (size 3 to 8) (size 9 to 14) (size 15 to 20)
#    0.000    1.111    0.000    4.667   18.667    0.444 
#    0.000    3.333    0.000    0.000    0.000    0.000 
#    0.000    0.000    0.000    0.000    0.000    0.000 
#
# Total GULP energy -201066.214940 kJ/mol
# GULP energy per Si atom -5585.172637 kJ/mol
# Density = 2.225165 g / cm^3
# Si number density = 22.302407 Si / 1000 Ang^3
#
#
#
# Elastic Constant Matrix: (Units=GPa)
#
#
# Indices 1 2 3 4 5 6 
#
# 1 121.0191 45.0057 57.4900 0.0000 0.0000 0.0000
# 2 45.0057 121.0194 57.4899 0.0000 0.0000 0.0000
# 3 57.4900 57.4899 120.7407 0.0000 0.0000 0.0000
# 4 0.0000 0.0000 0.0000 37.7005 0.0000 0.0000
# 5 0.0000 0.0000 0.0000 0.0000 37.7015 0.0000
# 6 0.0000 0.0000 0.0000 0.0000 0.0000 -117.7450
#
#
#
# Elastic Compliance Matrix: (Units=1/GPa)
#
#
# Indices 1 2 3 4 5 6 
#
# 1 0.011071 -0.002085 -0.004279 0.000000 0.000000 0.000000
# 2 -0.002085 0.011071 -0.004279 0.000000 0.000000 0.000000
# 3 -0.004279 -0.004279 0.012357 0.000000 0.000000 0.000000
# 4 0.000000 0.000000 0.000000 0.026525 0.000000 0.000000
# 5 0.000000 0.000000 0.000000 0.000000 0.026524 0.000000
# 6 0.000000 0.000000 0.000000 0.000000 0.000000 -0.008493
#
#
# Mechanical properties :
#
#
# Convention : Reuss Voigt Hill
#
# Bulk Modulus (GPa) = 75.67468 75.86115 75.76792
# Shear Modulus (GPa) = 47.73527 5.05099 26.39313
#
# Velocity S-wave (km/s) = 4.63143 1.50655 3.44382
# Velocity P-wave (km/s) = 7.91233 6.09220 7.06116
#
# Compressibility (1/GPa) = 0.01321446
#
# Stress axis : x y z
#
# Youngs Moduli (GPa) = 90.32562 90.32604 80.92629
#
# Poissons Ratio (x) = 0.18829 0.34627
# Poissons Ratio (y) = 0.18829 0.34627
# Poissons Ratio (z) = 0.38649 0.38649
#
# Static dielectric constant tensor:
#      x y z
#    x 1.796620 0.000000 0.000000 
#    y 0.000000 1.796620 0.000000 
#    z 0.000000 0.000000 1.814590 
# 
# From -- ./inp_files/1687.got.cif
#   From: 2010.05.17/outbox.cif.g08.bks.cpg/sg116_1_cif.got.tgz:1687.got - 2010.05.20 11:11:43.
