data_PCOD9557816
_publ_section_title
;
Structure prediction by ZEFSAII (Michael W. Deem and Ramdas Pophale) SiO2 
 PCOD9557816
Probable space group: P -4 C 2
;
_chemical_formula_sum "Si O2"
_cell_formula_units_Z 40
_cell_length_a 14.146133
_cell_length_b 14.146133
_cell_length_c 8.645501
_cell_angle_alpha 90.000000
_cell_angle_beta 90.000000
_cell_angle_gamma 90.000000
_cell_volume 1730.077823
_symmetry_space_group_name_H-M "P -4 C 2"
_symmetry_group_IT_number 116
_symmetry_cell_setting 'tetragonal'
loop_
_space_group_symop_operation_xyz
x,y,z
y,-x,-z
-x,-y,z
-y,x,-z
y,x,1/2-z
-y,-x,1/2-z
-x,y,1/2+z
x,-y,1/2+z
loop_
_atom_site_type_symbol
_atom_site_label
_atom_site_fract_x
_atom_site_fract_y
_atom_site_fract_z
Si Si1 0.417794 0.622694 0.517629
Si Si2 0.775565 0.264778 0.481207
Si Si3 0.903711 0.625574 0.156096
Si Si4 0.185889 0.506785 0.369302
Si Si5 0.120677 0.327721 0.683890
O O1 0.515765 0.603984 0.419494
O O2 0.314335 0.661283 0.461260
O O3 0.456791 0.712499 0.614174
O O4 0.832728 0.287253 0.634523
O O5 0.727980 0.164871 0.457595
O O6 0.852891 0.272232 0.342051
O O7 0.886332 0.572535 0.314856
O O8 0.013188 0.648759 0.152478
O O9 0.862928 0.561351 0.013037
O O10 0.182678 0.579182 0.224170
#
# Coordination Sequence:
#
# PCOD9557816 Si02
#       5
#     8   8   8   8   8
#     4  11  22  42  65  96 150 202 238 280 344 430
#     4  10  23  44  63 105 137 187 240 292 362 445
#     4  11  24  44  69 102 138 186 242 313 365 422
#     4  11  24  44  69 106 137 189 253 293 356 434
#     4  10  22  42  70  93 142 182 236 306 369 417
#
# _framework density 23.120346999999999
#
# number of rings (size 3 to 8) (size 9 to 14) (size 15 to 20)
#    0.000    1.400    4.000    1.800    0.000   12.000 
#    0.000    0.000    4.400    0.600    0.000    5.600 
#    0.000    0.000    0.000    0.000    0.000    0.000 
#
# Total GULP energy -222703.379051 kJ/mol
# GULP energy per Si atom -5567.584476 kJ/mol
# Density = 2.306772 g / cm^3
# Si number density = 23.120347 Si / 1000 Ang^3
#
#
#
# Elastic Constant Matrix: (Units=GPa)
#
#
# Indices 1 2 3 4 5 6 
#
# 1 174.5320 41.3813 47.5386 0.0000 0.0000 0.0000
# 2 41.3813 174.5320 47.5386 0.0000 0.0000 0.0000
# 3 47.5386 47.5386 48.2279 0.0000 0.0000 0.0000
# 4 0.0000 0.0000 0.0000 37.5787 0.0000 0.0000
# 5 0.0000 0.0000 0.0000 0.0000 37.5787 0.0000
# 6 0.0000 0.0000 0.0000 0.0000 0.0000 23.1793
#
#
#
# Elastic Compliance Matrix: (Units=1/GPa)
#
#
# Indices 1 2 3 4 5 6 
#
# 1 0.007847 0.000337 -0.008067 0.000000 0.000000 0.000000
# 2 0.000337 0.007847 -0.008067 0.000000 0.000000 0.000000
# 3 -0.008067 -0.008067 0.036638 0.000000 0.000000 0.000000
# 4 0.000000 0.000000 0.000000 0.026611 0.000000 0.000000
# 5 0.000000 0.000000 0.000000 0.000000 0.026611 0.000000
# 6 0.000000 0.000000 0.000000 0.000000 0.000000 0.043142
#
#
# Mechanical properties :
#
#
# Convention : Reuss Voigt Hill
#
# Bulk Modulus (GPa) = 48.22013 74.46766 61.34390
# Shear Modulus (GPa) = 26.70923 37.05624 31.88274
#
# Velocity S-wave (km/s) = 3.40255 4.00779 3.71750
# Velocity P-wave (km/s) = 6.02809 7.32769 6.70943
#
# Compressibility (1/GPa) = 0.02073823
#
# Stress axis : x y z
#
# Youngs Moduli (GPa) = 127.43781 127.43781 27.29432
#
# Poissons Ratio (x) = -0.04291 0.22017
# Poissons Ratio (y) = -0.04291 0.22017
# Poissons Ratio (z) = 1.02800 1.02800
#
# Static dielectric constant tensor:
#      x y z
#    x 1.910730 0.000000 0.000000 
#    y 0.000000 1.910730 0.000000 
#    z 0.000000 0.000000 1.989690 
# 
# From -- ./inp_files/1815.got.cif
#   From: 2010.05.17/outbox.cif.g08.bks.cpg/sg116_1_cif.got.tgz:1815.got - 2010.05.20 11:11:43.
