data_PCOD9557121
_publ_section_title
;
Structure prediction by ZEFSAII (Michael W. Deem and Ramdas Pophale) SiO2 
 PCOD9557121
Probable space group: P -4 M 2
;
_chemical_formula_sum "Si O2"
_cell_formula_units_Z 48
_cell_length_a 14.590787
_cell_length_b 14.590787
_cell_length_c 12.646754
_cell_angle_alpha 90.000000
_cell_angle_beta 90.000000
_cell_angle_gamma 90.000000
_cell_volume 2692.380931
_symmetry_space_group_name_H-M "P -4 M 2"
_symmetry_group_IT_number 115
_symmetry_cell_setting 'tetragonal'
loop_
_space_group_symop_operation_xyz
x,y,z
y,-x,-z
-x,-y,z
-y,x,-z
y,x,-z
-y,-x,-z
-x,y,z
x,-y,z
loop_
_atom_site_type_symbol
_atom_site_label
_atom_site_fract_x
_atom_site_fract_y
_atom_site_fract_z
Si Si1 0.704344 0.209551 0.159830
Si Si2 0.606285 0.395780 0.127805
Si Si3 0.605119 0.107022 0.973748
Si Si4 0.892314 0.254849 0.463915
Si Si5 0.605290 0.890200 0.352901
Si Si6 0.895618 0.735291 0.215672
O O1 0.672155 0.315415 0.166787
O O2 0.656045 0.155969 0.254912
O O3 0.813449 0.202598 0.171959
O O4 0.666879 0.167889 0.050672
O O5 0.500000 0.378926 0.159677
O O6 0.631177 0.500000 0.159045
O O7 0.607516 0.392485 0.000000
O O8 0.500000 0.137781 0.980669
O O9 0.643600 0.110379 0.854971
O O10 0.609558 0.000000 0.007329
O O11 0.828989 0.171012 0.500000
O O12 0.869783 0.340221 0.539530
O O13 0.879348 0.277340 0.340318
O O14 0.000000 0.232958 0.478865
O O15 0.500000 0.860212 0.357379
O O16 0.606624 0.000000 0.338394
O O17 0.000000 0.770569 0.202070
#
# Coordination Sequence:
#
# PCOD9557121 Si02
#       6
#     8   8   8   8   8   8
#     4  12  20  33  58  80 115 153 190 237 289 348
#     4   9  18  31  47  73 109 147 189 230 269 327
#     4  10  21  36  56  86 119 150 188 234 288 349
#     4  10  20  39  61  83 114 149 193 246 296 349
#     4  10  21  36  58  87 113 143 186 239 298 351
#     4  10  22  37  55  80 114 153 195 242 290 343
#
# _framework density 17.828087
#
# number of rings (size 3 to 8) (size 9 to 14) (size 15 to 20)
#    0.000    1.833    1.667    4.000    0.000    4.167 
#    0.000    3.333    0.000    2.000    0.000    7.000 
#    0.000    0.000    0.000    0.000    0.000    0.000 
#
# Total GULP energy -267876.003113 kJ/mol
# GULP energy per Si atom -5580.750065 kJ/mol
# Density = 1.778751 g / cm^3
# Si number density = 17.828087 Si / 1000 Ang^3
#
#
#
# Elastic Constant Matrix: (Units=GPa)
#
#
# Indices 1 2 3 4 5 6 
#
# 1 85.1464 49.6653 47.9187 0.0000 0.0000 0.0000
# 2 49.6653 85.1536 47.9184 0.0000 0.0000 0.0000
# 3 47.9187 47.9184 107.0225 0.0000 0.0000 0.0000
# 4 0.0000 0.0000 0.0000 21.5574 0.0000 0.0000
# 5 0.0000 0.0000 0.0000 0.0000 21.5570 0.0000
# 6 0.0000 0.0000 0.0000 0.0000 0.0000 23.4649
#
#
#
# Elastic Compliance Matrix: (Units=1/GPa)
#
#
# Indices 1 2 3 4 5 6 
#
# 1 0.019532 -0.008650 -0.004872 0.000000 0.000000 0.000000
# 2 -0.008650 0.019530 -0.004871 0.000000 0.000000 0.000000
# 3 -0.004872 -0.004871 0.013706 0.000000 0.000000 0.000000
# 4 0.000000 0.000000 0.000000 0.046388 0.000000 0.000000
# 5 0.000000 0.000000 0.000000 0.000000 0.046389 0.000000
# 6 0.000000 0.000000 0.000000 0.000000 0.000000 0.042617
#
#
# Mechanical properties :
#
#
# Convention : Reuss Voigt Hill
#
# Bulk Modulus (GPa) = 62.57485 63.14749 62.86117
# Shear Modulus (GPa) = 21.71306 22.10387 21.90846
#
# Velocity S-wave (km/s) = 3.49365 3.52495 3.50933
# Velocity P-wave (km/s) = 7.17282 7.21555 7.19421
#
# Compressibility (1/GPa) = 0.01598086
#
# Stress axis : x y z
#
# Youngs Moduli (GPa) = 51.19775 51.20368 72.95828
#
# Poissons Ratio (x) = 0.44292 0.35548
# Poissons Ratio (y) = 0.44287 0.35540
# Poissons Ratio (z) = 0.24945 0.24943
#
# Static dielectric constant tensor:
#      x y z
#    x 1.618920 0.000000 0.000000 
#    y 0.000000 1.618920 0.000000 
#    z 0.000000 0.000000 1.592470 
# 
# From -- ./inp_files/2913.got.cif
#   From: 2010.05.17/outbox.cif.g08.bks.cpg/sg115_2_cif.got.tgz:2913.got - 2010.05.20 11:07:42.
