data_PCOD9557709
_publ_section_title
;
Structure prediction by ZEFSAII (Michael W. Deem and Ramdas Pophale) SiO2 
 PCOD9557709
Probable space group: P -4 C 2
;
_chemical_formula_sum "Si O2"
_cell_formula_units_Z 28
_cell_length_a 10.529808
_cell_length_b 10.529808
_cell_length_c 10.589011
_cell_angle_alpha 90.000000
_cell_angle_beta 90.000000
_cell_angle_gamma 90.000000
_cell_volume 1174.076253
_symmetry_space_group_name_H-M "P -4 C 2"
_symmetry_group_IT_number 116
_symmetry_cell_setting 'tetragonal'
loop_
_space_group_symop_operation_xyz
x,y,z
y,-x,-z
-x,-y,z
-y,x,-z
y,x,1/2-z
-y,-x,1/2-z
-x,y,1/2+z
x,-y,1/2+z
loop_
_atom_site_type_symbol
_atom_site_label
_atom_site_fract_x
_atom_site_fract_y
_atom_site_fract_z
Si Si1 0.970483 0.750623 0.380303
Si Si2 0.756889 0.756889 0.750000
Si Si3 0.892374 0.722386 0.117132
Si Si4 0.641420 0.359666 0.019637
O O1 0.112856 0.764104 0.328137
O O2 0.994151 0.693123 0.519088
O O3 0.911301 0.677372 0.260214
O O4 0.876996 0.872353 0.388829
O O5 0.651217 0.728216 0.856162
O O6 0.759112 0.673736 0.067152
O O7 0.492675 0.344621 0.051214
#
# Coordination Sequence:
#
# PCOD9557709 Si02
#       4
#     8   4   8   8
#     4  10  21  37  60  92 128 161 200 249 311 373
#     4  10  22  40  60  94 128 160 210 264 320 380
#     4  10  21  38  61  92 123 162 205 249 311 374
#     4  10  23  43  65  87 119 168 221 268 314 377
#
# _framework density 23.848535999999999
#
# number of rings (size 3 to 8) (size 9 to 14) (size 15 to 20)
#    0.000    2.000    0.000    3.429    0.000   14.286 
#    0.000   18.571    0.000    0.000    0.000    0.000 
#    0.000    0.000    0.000    0.000    0.000    0.000 
#
# Total GULP energy -156040.695912 kJ/mol
# GULP energy per Si atom -5572.881997 kJ/mol
# Density = 2.379426 g / cm^3
# Si number density = 23.848536 Si / 1000 Ang^3
#
#
#
# Elastic Constant Matrix: (Units=GPa)
#
#
# Indices 1 2 3 4 5 6 
#
# 1 19.1914 89.5560 33.4004 0.0000 0.0000 0.0000
# 2 89.5560 19.1914 33.4004 0.0000 0.0000 0.0000
# 3 33.4004 33.4004 141.9878 0.0000 0.0000 0.0000
# 4 0.0000 0.0000 0.0000 18.1350 0.0000 0.0000
# 5 0.0000 0.0000 0.0000 0.0000 18.1350 0.0000
# 6 0.0000 0.0000 0.0000 0.0000 0.0000 21.2940
#
#
#
# Elastic Compliance Matrix: (Units=1/GPa)
#
#
# Indices 1 2 3 4 5 6 
#
# 1 -0.001731 0.012480 -0.002528 0.000000 0.000000 0.000000
# 2 0.012480 -0.001731 -0.002528 0.000000 0.000000 0.000000
# 3 -0.002528 -0.002528 0.008232 0.000000 0.000000 0.000000
# 4 0.000000 0.000000 0.000000 0.055142 0.000000 0.000000
# 5 0.000000 0.000000 0.000000 0.000000 0.055142 0.000000
# 6 0.000000 0.000000 0.000000 0.000000 0.000000 0.046962
#
#
# Mechanical properties :
#
#
# Convention : Reuss Voigt Hill
#
# Bulk Modulus (GPa) = 50.97857 54.78716 52.88287
# Shear Modulus (GPa) = 32.52934 13.11371 22.82153
#
# Velocity S-wave (km/s) = 3.69724 2.34748 3.09679
# Velocity P-wave (km/s) = 6.29671 5.51094 5.91688
#
# Compressibility (1/GPa) = 0.01961608
#
# Stress axis : x y z
#
# Youngs Moduli (GPa) = -577.55278 -577.55278 121.47071
#
# Poissons Ratio (x) = 7.20800 0.30714
# Poissons Ratio (y) = 7.20800 0.30714
# Poissons Ratio (z) = -1.46034 -1.46034
#
# Static dielectric constant tensor:
#      x y z
#    x 1.943290 0.000000 0.000000 
#    y 0.000000 1.943290 0.000000 
#    z 0.000000 0.000000 1.999140 
# 
# From -- ./inp_files/1462.got.cif
#   From: 2010.05.17/outbox.cif.g08.bks.cpg/sg116_1_cif.got.tgz:1462.got - 2010.05.20 11:11:43.
