data_PCOD9557698
_publ_section_title
;
Structure prediction by ZEFSAII (Michael W. Deem and Ramdas Pophale) SiO2 
 PCOD9557698
Probable space group: P -4 C 2
;
_chemical_formula_sum "Si O2"
_cell_formula_units_Z 34
_cell_length_a 11.637468
_cell_length_b 11.637468
_cell_length_c 13.922131
_cell_angle_alpha 90.000000
_cell_angle_beta 90.000000
_cell_angle_gamma 90.000000
_cell_volume 1885.483410
_symmetry_space_group_name_H-M "P -4 C 2"
_symmetry_group_IT_number 116
_symmetry_cell_setting 'tetragonal'
loop_
_space_group_symop_operation_xyz
x,y,z
y,-x,-z
-x,-y,z
-y,x,-z
y,x,1/2-z
-y,-x,1/2-z
-x,y,1/2+z
x,-y,1/2+z
loop_
_atom_site_type_symbol
_atom_site_label
_atom_site_fract_x
_atom_site_fract_y
_atom_site_fract_z
Si Si1 0.500000 0.500000 0.000000
Si Si2 0.500000 0.743771 0.590858
Si Si3 0.129063 0.500000 0.106785
Si Si4 0.135000 0.684129 0.773413
Si Si5 0.865001 0.684129 0.773414
O O1 0.608232 0.500000 0.927234
O O2 0.499998 0.789096 0.482652
O O3 0.389362 0.793918 0.647691
O O4 0.610638 0.793919 0.647689
O O5 0.142591 0.391352 0.176462
O O6 0.142590 0.608646 0.176464
O O7 0.000000 0.500000 0.067688
O O8 0.195845 0.804156 0.750000
O O9 0.000000 0.692044 0.799890
O O10 0.804155 0.804155 0.750000
#
# Coordination Sequence:
#
# PCOD9557698 Si02
#       5
#     2   8   8   8   8
#     4  12  24  32  58  92 112 142 184 236 278 340
#     4  11  21  38  57  82 115 146 177 227 294 334
#     4   9  18  35  58  80 106 145 188 225 274 340
#     4  10  21  36  56  81 111 149 190 232 278 333
#     4  10  21  36  56  81 111 149 190 232 278 333
#
# _framework density 18.032512000000001
#
# number of rings (size 3 to 8) (size 9 to 14) (size 15 to 20)
#    0.000    1.882    0.000    6.353    0.000    2.353 
#    0.000    4.706    0.000    0.000    0.000    6.588 
#    0.000    0.000    0.000    0.000    0.000    0.000 
#
# Total GULP energy -189696.732962 kJ/mol
# GULP energy per Si atom -5579.315675 kJ/mol
# Density = 1.799147 g / cm^3
# Si number density = 18.032512 Si / 1000 Ang^3
#
#
#
# Elastic Constant Matrix: (Units=GPa)
#
#
# Indices 1 2 3 4 5 6 
#
# 1 151.9398 59.2432 43.4470 0.0000 0.0000 0.0000
# 2 59.2432 151.9378 43.4478 0.0000 0.0000 0.0000
# 3 43.4470 43.4478 58.9168 0.0000 0.0000 0.0000
# 4 0.0000 0.0000 0.0000 19.5159 0.0000 0.0000
# 5 0.0000 0.0000 0.0000 0.0000 19.5126 0.0000
# 6 0.0000 0.0000 0.0000 0.0000 0.0000 25.6921
#
#
#
# Elastic Compliance Matrix: (Units=1/GPa)
#
#
# Indices 1 2 3 4 5 6 
#
# 1 0.008793 -0.001995 -0.005013 0.000000 0.000000 0.000000
# 2 -0.001995 0.008793 -0.005013 0.000000 0.000000 0.000000
# 3 -0.005013 -0.005013 0.024367 0.000000 0.000000 0.000000
# 4 0.000000 0.000000 0.000000 0.051240 0.000000 0.000000
# 5 0.000000 0.000000 0.000000 0.000000 0.051249 0.000000
# 6 0.000000 0.000000 0.000000 0.000000 0.000000 0.038922
#
#
# Mechanical properties :
#
#
# Convention : Reuss Voigt Hill
#
# Bulk Modulus (GPa) = 55.83351 72.78561 64.30956
# Shear Modulus (GPa) = 23.43271 27.38787 25.41029
#
# Velocity S-wave (km/s) = 3.60873 3.90141 3.75792
# Velocity P-wave (km/s) = 6.95656 7.79396 7.38714
#
# Compressibility (1/GPa) = 0.01791039
#
# Stress axis : x y z
#
# Youngs Moduli (GPa) = 113.72851 113.72539 41.03951
#
# Poissons Ratio (x) = 0.22688 0.20573
# Poissons Ratio (y) = 0.22689 0.20574
# Poissons Ratio (z) = 0.57011 0.57013
#
# Static dielectric constant tensor:
#      x y z
#    x 2.041350 0.000000 0.000000 
#    y 0.000000 2.041150 0.000000 
#    z 0.000000 0.000000 1.576870 
# 
# From -- ./inp_files/1602.got.cif
#   From: 2010.05.17/outbox.cif.g08.bks.cpg/sg116_1_cif.got.tgz:1602.got - 2010.05.20 11:11:43.
