data_PCOD9557713
_publ_section_title
;
Structure prediction by ZEFSAII (Michael W. Deem and Ramdas Pophale) SiO2 
 PCOD9557713
Probable space group: P -4 C 2
;
_chemical_formula_sum "Si O2"
_cell_formula_units_Z 56
_cell_length_a 14.334491
_cell_length_b 14.334491
_cell_length_c 13.446694
_cell_angle_alpha 90.000000
_cell_angle_beta 90.000000
_cell_angle_gamma 90.000000
_cell_volume 2762.994844
_symmetry_space_group_name_H-M "P -4 C 2"
_symmetry_group_IT_number 116
_symmetry_cell_setting 'tetragonal'
loop_
_space_group_symop_operation_xyz
x,y,z
y,-x,-z
-x,-y,z
-y,x,-z
y,x,1/2-z
-y,-x,1/2-z
-x,y,1/2+z
x,-y,1/2+z
loop_
_atom_site_type_symbol
_atom_site_label
_atom_site_fract_x
_atom_site_fract_y
_atom_site_fract_z
Si Si1 0.577091 0.210964 0.349133
Si Si2 0.899518 0.030619 0.355669
Si Si3 0.574749 0.083431 0.931009
Si Si4 0.394428 0.800269 0.114785
Si Si5 0.183747 0.765136 0.054104
Si Si6 0.506100 0.645075 0.989844
Si Si7 0.149917 0.771280 0.651797
O O1 0.479912 0.167205 0.379625
O O2 0.587804 0.201196 0.231910
O O3 0.661595 0.159670 0.407772
O O4 0.565655 0.312630 0.398537
O O5 0.920918 0.079083 0.250000
O O6 0.839027 0.104475 0.417189
O O7 0.843288 0.935439 0.342486
O O8 0.000000 0.000000 0.395743
O O9 0.675350 0.094830 0.877431
O O10 0.500000 0.000000 0.918512
O O11 0.587866 0.106762 0.048346
O O12 0.283698 0.783306 0.105091
O O13 0.460031 0.723410 0.060399
O O14 0.204642 0.780385 0.938595
O O15 0.579172 0.578222 0.046326
O O16 0.212520 0.787480 0.750000
#
# Coordination Sequence:
#
# PCOD9557713 Si02
#       7
#     8   8   8   8   8   8   8
#     4  11  22  42  67  96 135 185 233 278 346 422
#     4  11  23  42  68 102 132 173 226 280 353 431
#     4  10  24  45  66  99 137 183 232 285 352 424
#     4  10  22  42  64  96 132 181 233 282 346 413
#     4  11  24  40  68  96 139 180 227 296 348 413
#     4  10  21  37  63  98 136 175 228 290 343 408
#     4  11  25  45  68 102 142 182 232 295 358 422
#
# _framework density 20.267862999999998
#
# number of rings (size 3 to 8) (size 9 to 14) (size 15 to 20)
#    0.000    1.429    2.857    2.143    2.000    3.429 
#    0.000    2.857    0.000    0.000    0.000    0.000 
#    0.000    0.000    0.000    0.000    0.000    0.000 
#
# Total GULP energy -311972.370172 kJ/mol
# GULP energy per Si atom -5570.935182 kJ/mol
# Density = 2.022173 g / cm^3
# Si number density = 20.267863 Si / 1000 Ang^3
#
#
#
# Elastic Constant Matrix: (Units=GPa)
#
#
# Indices 1 2 3 4 5 6 
#
# 1 187.6250 -55.6211 39.0020 0.0000 0.0000 0.0000
# 2 -55.6211 187.6242 39.0124 0.0000 0.0000 0.0000
# 3 39.0020 39.0124 132.5128 0.0000 0.0000 0.0000
# 4 0.0000 0.0000 0.0000 24.0710 0.0000 0.0000
# 5 0.0000 0.0000 0.0000 0.0000 24.0703 0.0000
# 6 0.0000 0.0000 0.0000 0.0000 0.0000 40.3389
#
#
#
# Elastic Compliance Matrix: (Units=1/GPa)
#
#
# Indices 1 2 3 4 5 6 
#
# 1 0.006641 0.002530 -0.002699 0.000000 0.000000 0.000000
# 2 0.002530 0.006641 -0.002700 0.000000 0.000000 0.000000
# 3 -0.002699 -0.002700 0.009136 0.000000 0.000000 0.000000
# 4 0.000000 0.000000 0.000000 0.041544 0.000000 0.000000
# 5 0.000000 0.000000 0.000000 0.000000 0.041545 0.000000
# 6 0.000000 0.000000 0.000000 0.000000 0.000000 0.024790
#
#
# Mechanical properties :
#
#
# Convention : Reuss Voigt Hill
#
# Bulk Modulus (GPa) = 59.95440 61.39428 60.67434
# Shear Modulus (GPa) = 35.31202 50.05397 42.68299
#
# Velocity S-wave (km/s) = 4.17857 4.97492 4.59404
# Velocity P-wave (km/s) = 7.27502 7.95971 7.62505
#
# Compressibility (1/GPa) = 0.01667934
#
# Stress axis : x y z
#
# Youngs Moduli (GPa) = 150.58126 150.57536 109.45938
#
# Poissons Ratio (x) = -0.38095 0.29548
# Poissons Ratio (y) = -0.38097 0.29552
# Poissons Ratio (z) = 0.40649 0.40653
#
# Static dielectric constant tensor:
#      x y z
#    x 1.790660 0.000000 0.000000 
#    y 0.000000 1.790650 0.000000 
#    z 0.000000 0.000000 1.597840 
# 
# From -- ./inp_files/1993.got.cif
#   From: 2010.05.17/outbox.cif.g08.bks.cpg/sg116_1_cif.got.tgz:1993.got - 2010.05.20 11:11:43.
