data_PCOD9557338
_publ_section_title
;
Structure prediction by ZEFSAII (Michael W. Deem and Ramdas Pophale) SiO2 
 PCOD9557338
Probable space group: P -4 M 2
;
_chemical_formula_sum "Si O2"
_cell_formula_units_Z 60
_cell_length_a 15.037059
_cell_length_b 15.037059
_cell_length_c 14.287194
_cell_angle_alpha 90.000000
_cell_angle_beta 90.000000
_cell_angle_gamma 90.000000
_cell_volume 3230.522345
_symmetry_space_group_name_H-M "P -4 M 2"
_symmetry_group_IT_number 115
_symmetry_cell_setting 'tetragonal'
loop_
_space_group_symop_operation_xyz
x,y,z
y,-x,-z
-x,-y,z
-y,x,-z
y,x,-z
-y,-x,-z
-x,y,z
x,-y,z
loop_
_atom_site_type_symbol
_atom_site_label
_atom_site_fract_x
_atom_site_fract_y
_atom_site_fract_z
Si Si1 0.096271 0.602179 0.171287
Si Si2 0.594945 0.105015 0.405647
Si Si3 0.719681 0.769437 0.720462
Si Si4 0.603644 0.395225 0.786265
Si Si5 0.890972 0.242543 0.461064
Si Si6 0.695738 0.901559 0.223394
Si Si7 0.601879 0.145748 0.038116
Si Si8 0.650653 0.349348 0.000000
O O1 0.113494 0.500000 0.198315
O O2 0.172708 0.663420 0.207950
O O3 0.000000 0.628451 0.209430
O O4 0.095421 0.605752 0.059633
O O5 0.500000 0.146499 0.431509
O O6 0.682293 0.132663 0.461384
O O7 0.614627 0.113342 0.295800
O O8 0.588990 0.000000 0.425268
O O9 0.669902 0.672481 0.730235
O O10 0.726784 0.830210 0.627223
O O11 0.820107 0.759503 0.755884
O O12 0.500000 0.379110 0.759861
O O13 0.624704 0.500000 0.770081
O O14 0.609616 0.379073 0.899679
O O15 0.850279 0.149722 0.500000
O O16 0.000000 0.239985 0.447059
O O17 0.661836 0.894784 0.118408
O O18 0.732054 0.000000 0.243543
O O19 0.500000 0.146377 0.070941
O O20 0.630741 0.245905 0.015223
#
# Coordination Sequence:
#
# PCOD9557338 Si02
#       8
#     8   8   8   8   8   8   8   4
#     4  10  21  37  58  87 125 166 207 253 306 365
#     4   9  19  37  61  88 117 148 190 249 315 376
#     4  12  23  39  62  89 122 162 203 255 307 376
#     4  11  23  38  58  87 128 175 218 259 306 363
#     4  11  24  44  67  95 122 153 198 253 318 385
#     4  11  22  36  57  85 120 158 204 256 310 365
#     4  11  20  33  54  83 120 163 207 252 305 355
#     4  12  20  33  56  84 120 169 220 264 306 362
#
# _framework density 18.572849000000001
#
# number of rings (size 3 to 8) (size 9 to 14) (size 15 to 20)
#    0.000    1.200    4.000    2.800    0.000    3.600 
#    0.000    1.333    0.000    1.200    0.000    0.933 
#    0.000    5.333    0.000    0.000    0.000    0.000 
#
# Total GULP energy -334350.621332 kJ/mol
# GULP energy per Si atom -5572.510356 kJ/mol
# Density = 1.853058 g / cm^3
# Si number density = 18.572849 Si / 1000 Ang^3
#
#
#
# Elastic Constant Matrix: (Units=GPa)
#
#
# Indices 1 2 3 4 5 6 
#
# 1 96.5728 52.7794 21.8905 0.0000 0.0000 0.0000
# 2 52.7794 96.5733 21.8907 0.0000 0.0000 0.0000
# 3 21.8905 21.8907 55.4844 0.0000 0.0000 0.0000
# 4 0.0000 0.0000 0.0000 4.1150 0.0000 0.0000
# 5 0.0000 0.0000 0.0000 0.0000 4.1130 0.0000
# 6 0.0000 0.0000 0.0000 0.0000 0.0000 20.3756
#
#
#
# Elastic Compliance Matrix: (Units=1/GPa)
#
#
# Indices 1 2 3 4 5 6 
#
# 1 0.015203 -0.007632 -0.002987 0.000000 0.000000 0.000000
# 2 -0.007632 0.015203 -0.002987 0.000000 0.000000 0.000000
# 3 -0.002987 -0.002987 0.020380 0.000000 0.000000 0.000000
# 4 0.000000 0.000000 0.000000 0.243015 0.000000 0.000000
# 5 0.000000 0.000000 0.000000 0.000000 0.243130 0.000000
# 6 0.000000 0.000000 0.000000 0.000000 0.000000 0.049078
#
#
# Mechanical properties :
#
#
# Convention : Reuss Voigt Hill
#
# Bulk Modulus (GPa) = 42.41943 49.08353 45.75148
# Shear Modulus (GPa) = 8.05051 15.85870 11.95460
#
# Velocity S-wave (km/s) = 2.08422 2.92527 2.53980
# Velocity P-wave (km/s) = 5.35547 6.15585 5.76956
#
# Compressibility (1/GPa) = 0.02357410
#
# Stress axis : x y z
#
# Youngs Moduli (GPa) = 65.77722 65.77750 49.06735
#
# Poissons Ratio (x) = 0.50199 0.14657
# Poissons Ratio (y) = 0.50198 0.14657
# Poissons Ratio (z) = 0.19648 0.19649
#
# Static dielectric constant tensor:
#      x y z
#    x 1.667670 0.000000 0.000000 
#    y 0.000000 1.667670 0.000000 
#    z 0.000000 0.000000 1.653900 
# 
# From -- ./inp_files/3911.got.cif
#   From: 2010.05.17/outbox.cif.g08.bks.cpg/sg115_2_cif.got.tgz:3911.got - 2010.05.20 11:07:42.
