data_PCOD9557259
_publ_section_title
;
Structure prediction by ZEFSAII (Michael W. Deem and Ramdas Pophale) SiO2 
 PCOD9557259
Probable space group: P -4 M 2
;
_chemical_formula_sum "Si O2"
_cell_formula_units_Z 48
_cell_length_a 9.271740
_cell_length_b 9.271740
_cell_length_c 32.315692
_cell_angle_alpha 90.000000
_cell_angle_beta 90.000000
_cell_angle_gamma 90.000000
_cell_volume 2778.023718
_symmetry_space_group_name_H-M "P -4 M 2"
_symmetry_group_IT_number 115
_symmetry_cell_setting 'tetragonal'
loop_
_space_group_symop_operation_xyz
x,y,z
y,-x,-z
-x,-y,z
-y,x,-z
y,x,-z
-y,-x,-z
-x,y,z
x,-y,z
loop_
_atom_site_type_symbol
_atom_site_label
_atom_site_fract_x
_atom_site_fract_y
_atom_site_fract_z
Si Si1 0.829086 0.672128 0.537593
Si Si2 0.826461 0.830033 0.302853
Si Si3 0.325515 0.672091 0.955505
Si Si4 0.328738 0.673197 0.865138
Si Si5 0.668940 0.672854 0.622666
Si Si6 0.827150 0.169769 0.790564
O O1 0.757570 0.757570 0.500000
O O2 0.806590 0.500000 0.531520
O O3 0.753488 0.712844 0.580804
O O4 0.000000 0.698457 0.539811
O O5 0.750787 0.737870 0.338025
O O6 0.783897 0.785970 0.256092
O O7 0.000000 0.816779 0.305580
O O8 0.791764 0.000000 0.308073
O O9 0.500000 0.687541 0.955640
O O10 0.297645 0.500000 0.955510
O O11 0.276130 0.726728 0.910616
O O12 0.270978 0.729023 0.000000
O O13 0.500000 0.702247 0.862293
O O14 0.310783 0.500000 0.864037
O O15 0.248371 0.744096 0.826955
O O16 0.500000 0.707572 0.618493
O O17 0.682680 0.500000 0.627725
O O18 0.000000 0.184845 0.793441
O O19 0.793194 0.000000 0.794465
#
# Coordination Sequence:
#
# PCOD9557259 Si02
#       6
#     8   8   8   8   8   8
#     4  10  21  37  57  80 106 138 174 208 244 288
#     4   9  19  36  55  73  95 127 168 209 245 286
#     4   7  10  19  37  61  89 119 149 185 233 285
#     4   9  17  28  45  72  99 120 151 198 245 289
#     4  10  21  36  55  80 108 136 165 201 248 297
#     4   9  19  35  51  67  92 129 168 201 238 288
#
# _framework density 17.278472000000001
#
# number of rings (size 3 to 8) (size 9 to 14) (size 15 to 20)
#    0.000    3.000    0.000    3.500    0.000    5.000 
#    0.000    5.000    0.000    1.000    0.000    5.833 
#    0.000    0.000    0.000    0.000    0.000    0.000 
#
# Total GULP energy -267395.570264 kJ/mol
# GULP energy per Si atom -5570.741047 kJ/mol
# Density = 1.723915 g / cm^3
# Si number density = 17.278472 Si / 1000 Ang^3
#
#
#
# Elastic Constant Matrix: (Units=GPa)
#
#
# Indices 1 2 3 4 5 6 
#
# 1 36.8642 36.4234 68.9159 0.0000 0.0000 0.0000
# 2 36.4234 36.8640 68.9158 0.0000 0.0000 0.0000
# 3 68.9159 68.9158 209.1147 0.0000 0.0000 0.0000
# 4 0.0000 0.0000 0.0000 128.1485 0.0000 0.0000
# 5 0.0000 0.0000 0.0000 0.0000 128.1444 0.0000
# 6 0.0000 0.0000 0.0000 0.0000 0.0000 27.4517
#
#
#
# Elastic Compliance Matrix: (Units=1/GPa)
#
#
# Indices 1 2 3 4 5 6 
#
# 1 1.152484 -1.116599 -0.011826 0.000000 0.000000 0.000000
# 2 -1.116599 1.152493 -0.011829 0.000000 0.000000 0.000000
# 3 -0.011826 -0.011829 0.012578 0.000000 0.000000 0.000000
# 4 0.000000 0.000000 0.000000 0.007803 0.000000 0.000000
# 5 0.000000 0.000000 0.000000 0.000000 0.007804 0.000000
# 6 0.000000 0.000000 0.000000 0.000000 0.000000 0.036428
#
#
# Mechanical properties :
#
#
# Convention : Reuss Voigt Hill
#
# Bulk Modulus (GPa) = 26.99375 70.15034 48.57204
# Shear Modulus (GPa) = 1.07240 63.98813 32.53026
#
# Velocity S-wave (km/s) = 0.78867 6.09211 4.34372
# Velocity P-wave (km/s) = 4.06030 9.49595 7.30271
#
# Compressibility (1/GPa) = 0.03704561
#
# Stress axis : x y z
#
# Youngs Moduli (GPa) = 0.86769 0.86768 79.50469
#
# Poissons Ratio (x) = 0.96886 0.94024
# Poissons Ratio (y) = 0.96886 0.94046
# Poissons Ratio (z) = 0.01026 0.01026
#
# Static dielectric constant tensor:
#      x y z
#    x 1.571090 0.000000 0.000000 
#    y 0.000000 1.571090 0.000000 
#    z 0.000000 0.000000 1.601210 
# 
# From -- ./inp_files/5912.got.cif
#   From: 2010.05.17/outbox.cif.g08.bks.cpg/sg115_3_cif.got.tgz:5912.got - 2010.05.20 11:07:42.
