data_PCOD9557273
_publ_section_title
;
Structure prediction by ZEFSAII (Michael W. Deem and Ramdas Pophale) SiO2 
 PCOD9557273
Probable space group: P -4 M 2
;
_chemical_formula_sum "Si O2"
_cell_formula_units_Z 48
_cell_length_a 9.287675
_cell_length_b 9.287675
_cell_length_c 31.392446
_cell_angle_alpha 90.000000
_cell_angle_beta 90.000000
_cell_angle_gamma 90.000000
_cell_volume 2707.940862
_symmetry_space_group_name_H-M "P -4 M 2"
_symmetry_group_IT_number 115
_symmetry_cell_setting 'tetragonal'
loop_
_space_group_symop_operation_xyz
x,y,z
y,-x,-z
-x,-y,z
-y,x,-z
y,x,-z
-y,-x,-z
-x,y,z
x,-y,z
loop_
_atom_site_type_symbol
_atom_site_label
_atom_site_fract_x
_atom_site_fract_y
_atom_site_fract_z
Si Si1 0.668600 0.172489 0.210172
Si Si2 0.829946 0.829263 0.450175
Si Si3 0.169562 0.326589 0.133819
Si Si4 0.669958 0.328334 0.375152
Si Si5 0.172892 0.668303 0.037798
Si Si6 0.827605 0.170099 0.702182
O O1 0.500000 0.207647 0.214874
O O2 0.737382 0.251477 0.169887
O O3 0.754796 0.210605 0.253111
O O4 0.681273 0.000000 0.204506
O O5 0.800380 0.800380 0.500000
O O6 0.734419 0.737174 0.418437
O O7 0.000000 0.801470 0.442610
O O8 0.806568 0.000000 0.442850
O O9 0.181872 0.500000 0.136497
O O10 0.213926 0.284073 0.085703
O O11 0.000000 0.291177 0.139340
O O12 0.500000 0.297037 0.371960
O O13 0.689726 0.500000 0.374303
O O14 0.753774 0.255204 0.336133
O O15 0.211524 0.500000 0.033545
O O16 0.000000 0.678504 0.035503
O O17 0.243620 0.756381 0.000000
O O18 0.000000 0.187151 0.695887
O O19 0.796431 0.000000 0.703560
#
# Coordination Sequence:
#
# PCOD9557273 Si02
#       6
#     8   8   8   8   8   8
#     4  10  21  36  55  81 110 138 171 214 264 316
#     4   9  19  37  60  84 109 140 181 225 267 315
#     4   9  19  36  55  75 103 140 178 215 259 312
#     4  11  24  38  53  79 114 147 179 218 265 316
#     4   9  19  35  53  75 104 137 175 218 262 311
#     4  10  21  38  60  82 104 136 179 222 264 314
#
# _framework density 17.725646999999999
#
# number of rings (size 3 to 8) (size 9 to 14) (size 15 to 20)
#    0.000    2.333    0.000    3.500    0.000    9.000 
#    0.000    7.500    0.000    0.000    0.000    0.000 
#    0.000    0.000    0.000    0.000    0.000    0.000 
#
# Total GULP energy -267985.189577 kJ/mol
# GULP energy per Si atom -5583.024783 kJ/mol
# Density = 1.768530 g / cm^3
# Si number density = 17.725647 Si / 1000 Ang^3
#
#
#
# Elastic Constant Matrix: (Units=GPa)
#
#
# Indices 1 2 3 4 5 6 
#
# 1 80.8104 67.5586 89.4819 0.0000 0.0000 0.0000
# 2 67.5586 80.8081 89.4807 0.0000 0.0000 0.0000
# 3 89.4819 89.4807 156.9985 0.0000 0.0000 0.0000
# 4 0.0000 0.0000 0.0000 93.5631 0.0000 0.0000
# 5 0.0000 0.0000 0.0000 0.0000 93.5593 0.0000
# 6 0.0000 0.0000 0.0000 0.0000 0.0000 33.0081
#
#
#
# Elastic Compliance Matrix: (Units=1/GPa)
#
#
# Indices 1 2 3 4 5 6 
#
# 1 0.048516 -0.026951 -0.012292 0.000000 0.000000 0.000000
# 2 -0.026951 0.048518 -0.012292 0.000000 0.000000 0.000000
# 3 -0.012292 -0.012292 0.020381 0.000000 0.000000 0.000000
# 4 0.000000 0.000000 0.000000 0.010688 0.000000 0.000000
# 5 0.000000 0.000000 0.000000 0.000000 0.010688 0.000000
# 6 0.000000 0.000000 0.000000 0.000000 0.000000 0.030296
#
#
# Mechanical properties :
#
#
# Convention : Reuss Voigt Hill
#
# Bulk Modulus (GPa) = 69.70267 90.18439 79.94353
# Shear Modulus (GPa) = 18.05454 48.83247 33.44351
#
# Velocity S-wave (km/s) = 3.19494 5.25441 4.34836
# Velocity P-wave (km/s) = 7.28139 9.37017 8.39103
#
# Compressibility (1/GPa) = 0.01434665
#
# Stress axis : x y z
#
# Youngs Moduli (GPa) = 20.61156 20.61087 49.06534
#
# Poissons Ratio (x) = 0.55548 0.60310
# Poissons Ratio (y) = 0.55550 0.60311
# Poissons Ratio (z) = 0.25335 0.25335
#
# Static dielectric constant tensor:
#      x y z
#    x 1.585420 0.000000 0.000000 
#    y 0.000000 1.585420 0.000000 
#    z 0.000000 0.000000 1.582690 
# 
# From -- ./inp_files/5968.got.cif
#   From: 2010.05.17/outbox.cif.g08.bks.cpg/sg115_3_cif.got.tgz:5968.got - 2010.05.20 11:07:42.
