data_PCOD9557690
_publ_section_title
;
Structure prediction by ZEFSAII (Michael W. Deem and Ramdas Pophale) SiO2 
 PCOD9557690
Probable space group: P -4 C 2
;
_chemical_formula_sum "Si O2"
_cell_formula_units_Z 24
_cell_length_a 8.409261
_cell_length_b 8.409261
_cell_length_c 12.815090
_cell_angle_alpha 90.000000
_cell_angle_beta 90.000000
_cell_angle_gamma 90.000000
_cell_volume 906.227683
_symmetry_space_group_name_H-M "P -4 C 2"
_symmetry_group_IT_number 116
_symmetry_cell_setting 'tetragonal'
loop_
_space_group_symop_operation_xyz
x,y,z
y,-x,-z
-x,-y,z
-y,x,-z
y,x,1/2-z
-y,-x,1/2-z
-x,y,1/2+z
x,-y,1/2+z
loop_
_atom_site_type_symbol
_atom_site_label
_atom_site_fract_x
_atom_site_fract_y
_atom_site_fract_z
Si Si1 0.834028 0.079885 0.368510
Si Si2 0.329534 0.635968 0.053201
Si Si3 0.588936 0.848167 0.288895
O O1 0.853990 0.146011 0.250000
O O2 0.787807 0.219984 0.445275
O O3 0.688891 0.957310 0.368226
O O4 0.000000 0.000000 0.390321
O O5 0.266088 0.538842 0.154001
O O6 0.513512 0.685739 0.044101
O O7 0.727791 0.727791 0.250000
O O8 0.500000 0.000000 0.228757
#
# Coordination Sequence:
#
# PCOD9557690 Si02
#       3
#     8   8   8
#     4  10  20  44  76 107 134 189 265 312 360 434
#     4  10  24  43  62 103 158 191 232 291 388 459
#     4  10  21  42  69 108 143 192 264 319 375 443
#
# _framework density 26.483408000000001
#
# number of rings (size 3 to 8) (size 9 to 14) (size 15 to 20)
#    0.000    2.000    3.333    0.000    0.000   10.667 
#   18.000    0.000    0.000    0.000    0.000    0.000 
#    0.000    0.000    0.000    0.000    0.000    0.000 
#
# Total GULP energy -133876.157919 kJ/mol
# GULP energy per Si atom -5578.173247 kJ/mol
# Density = 2.642313 g / cm^3
# Si number density = 26.483408 Si / 1000 Ang^3
#
#
#
# Elastic Constant Matrix: (Units=GPa)
#
#
# Indices 1 2 3 4 5 6 
#
# 1 162.7035 78.7012 49.3536 0.0000 0.0000 0.0000
# 2 78.7012 162.7036 49.3536 0.0000 0.0000 0.0000
# 3 49.3536 49.3536 64.3640 0.0000 0.0000 0.0000
# 4 0.0000 0.0000 0.0000 42.8501 0.0000 0.0000
# 5 0.0000 0.0000 0.0000 0.0000 42.8501 0.0000
# 6 0.0000 0.0000 0.0000 0.0000 0.0000 49.2592
#
#
#
# Elastic Compliance Matrix: (Units=1/GPa)
#
#
# Indices 1 2 3 4 5 6 
#
# 1 0.008969 -0.002935 -0.004627 0.000000 0.000000 0.000000
# 2 -0.002935 0.008969 -0.004627 0.000000 0.000000 0.000000
# 3 -0.004627 -0.004627 0.022633 0.000000 0.000000 0.000000
# 4 0.000000 0.000000 0.000000 0.023337 0.000000 0.000000
# 5 0.000000 0.000000 0.000000 0.000000 0.023337 0.000000
# 6 0.000000 0.000000 0.000000 0.000000 0.000000 0.020301
#
#
# Mechanical properties :
#
#
# Convention : Reuss Voigt Hill
#
# Bulk Modulus (GPa) = 61.75496 82.73197 72.24347
# Shear Modulus (GPa) = 36.41059 41.14940 38.77999
#
# Velocity S-wave (km/s) = 3.71191 3.94608 3.83079
# Velocity P-wave (km/s) = 6.46065 7.21589 6.84869
#
# Compressibility (1/GPa) = 0.01619303
#
# Stress axis : x y z
#
# Youngs Moduli (GPa) = 111.49012 111.49013 44.18392
#
# Poissons Ratio (x) = 0.32723 0.20444
# Poissons Ratio (y) = 0.32723 0.20444
# Poissons Ratio (z) = 0.51588 0.51588
#
# Static dielectric constant tensor:
#      x y z
#    x 2.135630 0.000000 0.000000 
#    y 0.000000 2.135630 0.000000 
#    z 0.000000 0.000000 2.154980 
# 
# From -- ./inp_files/2274.got.cif
#   From: 2010.05.17/outbox.cif.g08.bks.cpg/sg116_2_cif.got.tgz:2274.got - 2010.05.20 11:11:43.
