data_PCOD9557372
_publ_section_title
;
Structure prediction by ZEFSAII (Michael W. Deem and Ramdas Pophale) SiO2 
 PCOD9557372
Probable space group: P -4 M 2
;
_chemical_formula_sum "Si O2"
_cell_formula_units_Z 33
_cell_length_a 8.323353
_cell_length_b 8.323353
_cell_length_c 23.515848
_cell_angle_alpha 90.000000
_cell_angle_beta 90.000000
_cell_angle_gamma 90.000000
_cell_volume 1629.135742
_symmetry_space_group_name_H-M "P -4 M 2"
_symmetry_group_IT_number 115
_symmetry_cell_setting 'tetragonal'
loop_
_space_group_symop_operation_xyz
x,y,z
y,-x,-z
-x,-y,z
-y,x,-z
y,x,-z
-y,-x,-z
-x,y,z
x,-y,z
loop_
_atom_site_type_symbol
_atom_site_label
_atom_site_fract_x
_atom_site_fract_y
_atom_site_fract_z
Si Si1 0.698510 0.000000 0.915196
Si Si2 0.310073 0.685580 0.619795
Si Si3 0.189563 0.189563 0.500000
Si Si4 0.820472 0.190005 0.264386
Si Si5 0.674774 0.690948 0.153362
Si Si6 0.000000 0.000000 0.000000
O O1 0.738205 0.836857 0.879899
O O2 0.830204 0.000000 0.965484
O O3 0.500000 0.000000 0.926781
O O4 0.500000 0.696248 0.630145
O O5 0.260147 0.500000 0.622236
O O6 0.273248 0.750437 0.557204
O O7 0.223449 0.778753 0.670352
O O8 0.000000 0.217853 0.506290
O O9 0.700862 0.268820 0.219587
O O10 0.000000 0.252543 0.252882
O O11 0.817799 0.000000 0.254551
O O12 0.500000 0.757291 0.134441
O O13 0.667793 0.500000 0.147100
#
# Coordination Sequence:
#
# PCOD9557372 Si02
#       6
#     4   8   4   8   8   1
#     4  10  24  46  68 100 142 180 221 281 328 373
#     4  11  24  40  58  83 115 154 203 255 313 384
#     4  11  24  41  60  82 110 147 198 255 316 380
#     4  11  23  37  58  90 127 162 207 262 321 385
#     4  10  21  39  65  95 130 174 219 266 328 392
#     4  12  28  44  76 104 140 180 240 266 316 404
#
# _framework density 20.256139999999998
#
# number of rings (size 3 to 8) (size 9 to 14) (size 15 to 20)
#    0.000    1.333    1.212    3.636    1.697   13.091 
#    0.000    0.000    0.000    0.000    0.000    0.000 
#    0.000    0.000    0.000    0.000    0.000    0.000 
#
# Total GULP energy -184262.665888 kJ/mol
# GULP energy per Si atom -5583.717148 kJ/mol
# Density = 2.021004 g / cm^3
# Si number density = 20.256140 Si / 1000 Ang^3
#
#
#
# Elastic Constant Matrix: (Units=GPa)
#
#
# Indices 1 2 3 4 5 6 
#
# 1 113.6798 -18.3418 24.1899 0.0000 0.0000 0.0000
# 2 -18.3418 113.6798 24.1899 0.0000 0.0000 0.0000
# 3 24.1899 24.1899 87.3482 0.0000 0.0000 0.0000
# 4 0.0000 0.0000 0.0000 37.0126 0.0000 0.0000
# 5 0.0000 0.0000 0.0000 0.0000 37.0126 0.0000
# 6 0.0000 0.0000 0.0000 0.0000 0.0000 15.5760
#
#
#
# Elastic Compliance Matrix: (Units=1/GPa)
#
#
# Indices 1 2 3 4 5 6 
#
# 1 0.009889 0.002315 -0.003380 0.000000 0.000000 0.000000
# 2 0.002315 0.009889 -0.003380 0.000000 0.000000 0.000000
# 3 -0.003380 -0.003380 0.013320 0.000000 0.000000 0.000000
# 4 0.000000 0.000000 0.000000 0.027018 0.000000 0.000000
# 5 0.000000 0.000000 0.000000 0.000000 0.027018 0.000000
# 6 0.000000 0.000000 0.000000 0.000000 0.000000 0.064201
#
#
# Mechanical properties :
#
#
# Convention : Reuss Voigt Hill
#
# Bulk Modulus (GPa) = 41.30604 41.64262 41.47433
# Shear Modulus (GPa) = 29.70969 36.89822 33.30395
#
# Velocity S-wave (km/s) = 3.83391 4.27263 4.05920
# Velocity P-wave (km/s) = 6.32729 6.70396 6.51835
#
# Compressibility (1/GPa) = 0.02420953
#
# Stress axis : x y z
#
# Youngs Moduli (GPa) = 101.11943 101.11943 75.07295
#
# Poissons Ratio (x) = -0.23407 0.25373
# Poissons Ratio (y) = -0.23407 0.25373
# Poissons Ratio (z) = 0.34176 0.34176
#
# Static dielectric constant tensor:
#      x y z
#    x 1.720400 0.000000 0.000000 
#    y 0.000000 1.720400 0.000000 
#    z 0.000000 0.000000 1.713060 
# 
# From -- ./inp_files/4721.got.cif
#   From: 2010.05.17/outbox.cif.g08.bks.cpg/sg115_3_cif.got.tgz:4721.got - 2010.05.20 11:07:42.
