data_PCOD9557038
_publ_section_title
;
Structure prediction by ZEFSAII (Michael W. Deem and Ramdas Pophale) SiO2 
 PCOD9557038
Probable space group: P -4 M 2
;
_chemical_formula_sum "Si O2"
_cell_formula_units_Z 48
_cell_length_a 8.134662
_cell_length_b 8.134662
_cell_length_c 35.527384
_cell_angle_alpha 90.000000
_cell_angle_beta 90.000000
_cell_angle_gamma 90.000000
_cell_volume 2350.943842
_symmetry_space_group_name_H-M "P -4 M 2"
_symmetry_group_IT_number 115
_symmetry_cell_setting 'tetragonal'
loop_
_space_group_symop_operation_xyz
x,y,z
y,-x,-z
-x,-y,z
-y,x,-z
y,x,-z
-y,-x,-z
-x,y,z
x,-y,z
loop_
_atom_site_type_symbol
_atom_site_label
_atom_site_fract_x
_atom_site_fract_y
_atom_site_fract_z
Si Si1 0.691745 0.306351 0.380724
Si Si2 0.198795 0.500000 0.740592
Si Si3 0.300764 0.500000 0.827037
Si Si4 0.804899 0.179260 0.697092
Si Si5 0.303919 0.184729 0.960571
Si Si6 0.807547 0.299303 0.122713
Si Si7 0.311755 0.806376 0.460426
O O1 0.500000 0.249439 0.380197
O O2 0.693569 0.500000 0.373456
O O3 0.787325 0.220681 0.347103
O O4 0.758363 0.274732 0.422686
O O5 0.244333 0.500000 0.784122
O O6 0.262342 0.664253 0.719809
O O7 0.000000 0.500000 0.737000
O O8 0.500000 0.500000 0.828150
O O9 0.244711 0.332666 0.848181
O O10 0.000000 0.174338 0.704309
O O11 0.735222 0.000000 0.707192
O O12 0.500000 0.178317 0.957156
O O13 0.246649 0.246465 0.919661
O O14 0.238521 0.000000 0.963981
O O15 0.269662 0.269662 0.000000
O O16 0.809115 0.500000 0.123886
O O17 0.000000 0.249411 0.128874
O O18 0.226653 0.773348 0.500000
O O19 0.500000 0.746324 0.464454
O O20 0.313386 0.000000 0.453432
#
# Coordination Sequence:
#
# PCOD9557038 Si02
#       7
#     8   4   4   8   8   8   8
#     4  10  20  35  58  85 113 145 182 230 286 339
#     4  10  22  40  58  82 118 146 176 234 288 336
#     4  10  20  34  58  82 104 144 192 228 278 344
#     4  10  21  38  61  85 111 148 187 225 280 346
#     4   9  18  31  48  73 104 138 178 225 273 323
#     4   8  16  32  51  75 109 142 180 232 281 330
#     4  10  21  36  55  79 110 150 193 235 279 328
#
# _framework density 20.417332999999999
#
# number of rings (size 3 to 8) (size 9 to 14) (size 15 to 20)
#    0.000    2.500    0.833    2.000    1.167    4.333 
#    0.000    0.833    0.000    1.000    0.000    0.000 
#    0.000    0.000    0.000    0.000    0.000    0.000 
#
# Total GULP energy -267603.313867 kJ/mol
# GULP energy per Si atom -5575.069039 kJ/mol
# Density = 2.037086 g / cm^3
# Si number density = 20.417333 Si / 1000 Ang^3
#
#
#
# Elastic Constant Matrix: (Units=GPa)
#
#
# Indices 1 2 3 4 5 6 
#
# 1 52.5949 22.3566 38.3764 0.0000 0.0000 0.0000
# 2 22.3566 52.5946 38.3759 0.0000 0.0000 0.0000
# 3 38.3764 38.3759 134.9411 0.0000 0.0000 0.0000
# 4 0.0000 0.0000 0.0000 38.8291 0.0000 0.0000
# 5 0.0000 0.0000 0.0000 0.0000 38.8294 0.0000
# 6 0.0000 0.0000 0.0000 0.0000 0.0000 3.1185
#
#
#
# Elastic Compliance Matrix: (Units=1/GPa)
#
#
# Indices 1 2 3 4 5 6 
#
# 1 0.025947 -0.007123 -0.005353 0.000000 0.000000 0.000000
# 2 -0.007123 0.025947 -0.005353 0.000000 0.000000 0.000000
# 3 -0.005353 -0.005353 0.010456 0.000000 0.000000 0.000000
# 4 0.000000 0.000000 0.000000 0.025754 0.000000 0.000000
# 5 0.000000 0.000000 0.000000 0.000000 0.025754 0.000000
# 6 0.000000 0.000000 0.000000 0.000000 0.000000 0.320668
#
#
# Mechanical properties :
#
#
# Convention : Reuss Voigt Hill
#
# Bulk Modulus (GPa) = 37.46718 48.70536 43.08627
# Shear Modulus (GPa) = 10.43660 25.55686 17.99673
#
# Velocity S-wave (km/s) = 2.26335 3.54181 2.97213
# Velocity P-wave (km/s) = 5.02203 6.37437 5.73818
#
# Compressibility (1/GPa) = 0.02669003
#
# Stress axis : x y z
#
# Youngs Moduli (GPa) = 38.53953 38.53954 95.64292
#
# Poissons Ratio (x) = 0.27453 0.51202
# Poissons Ratio (y) = 0.27453 0.51201
# Poissons Ratio (z) = 0.20632 0.20631
#
# Static dielectric constant tensor:
#      x y z
#    x 1.738080 0.000000 0.000000 
#    y 0.000000 1.738080 0.000000 
#    z 0.000000 0.000000 1.716230 
# 
# From -- ./inp_files/6216.got.cif
#   From: 2010.05.17/outbox.cif.g08.bks.cpg/sg115_4_cif.got.tgz:6216.got - 2010.05.20 11:07:42.
