data_PCOD9557941
_publ_section_title
;
Structure prediction by ZEFSAII (Michael W. Deem and Ramdas Pophale) SiO2 
 PCOD9557941
Probable space group: P -4 C 2
;
_chemical_formula_sum "Si O2"
_cell_formula_units_Z 26
_cell_length_a 7.995252
_cell_length_b 7.995252
_cell_length_c 18.680168
_cell_angle_alpha 90.000000
_cell_angle_beta 90.000000
_cell_angle_gamma 90.000000
_cell_volume 1194.112078
_symmetry_space_group_name_H-M "P -4 C 2"
_symmetry_group_IT_number 116
_symmetry_cell_setting 'tetragonal'
loop_
_space_group_symop_operation_xyz
x,y,z
y,-x,-z
-x,-y,z
-y,x,-z
y,x,1/2-z
-y,-x,1/2-z
-x,y,1/2+z
x,-y,1/2+z
loop_
_atom_site_type_symbol
_atom_site_label
_atom_site_fract_x
_atom_site_fract_y
_atom_site_fract_z
Si Si1 0.606135 0.769539 0.407782
Si Si2 0.099976 0.272041 0.635874
Si Si3 0.191350 0.454122 0.929610
Si Si4 0.000000 0.000000 0.250000
O O1 0.461304 0.828099 0.352828
O O2 0.530589 0.755628 0.487221
O O3 0.697435 0.596451 0.390233
O O4 0.718060 0.936555 0.414376
O O5 0.265692 0.198228 0.599795
O O6 0.024644 0.163471 0.700396
O O7 0.000000 0.500000 0.923846
#
# Coordination Sequence:
#
# PCOD9557941 Si02
#       4
#     8   8   8   2
#     4  11  22  43  72 109 144 176 246 316 394 443
#     4  11  25  45  68 102 144 200 246 303 358 460
#     4  12  21  40  74 110 142 181 232 329 400 439
#     4  12  28  52  64  96 162 208 268 272 356 466
#
# _framework density 21.773502000000001
#
# number of rings (size 3 to 8) (size 9 to 14) (size 15 to 20)
#    0.000    0.615    6.154    2.769    0.000    0.000 
#   16.615    1.538    0.000    0.000    0.000    0.000 
#    0.000    0.000    0.000    0.000    0.000    0.000 
#
# Total GULP energy -144747.955458 kJ/mol
# GULP energy per Si atom -5567.229056 kJ/mol
# Density = 2.172394 g / cm^3
# Si number density = 21.773502 Si / 1000 Ang^3
#
#
#
# Elastic Constant Matrix: (Units=GPa)
#
#
# Indices 1 2 3 4 5 6 
#
# 1 64.9624 138.7766 43.5443 0.0000 0.0000 0.0000
# 2 138.7766 64.9624 43.5443 0.0000 0.0000 0.0000
# 3 43.5443 43.5443 46.6114 0.0000 0.0000 0.0000
# 4 0.0000 0.0000 0.0000 -7.0637 0.0000 0.0000
# 5 0.0000 0.0000 0.0000 0.0000 -7.0637 0.0000
# 6 0.0000 0.0000 0.0000 0.0000 0.0000 53.5520
#
#
#
# Elastic Compliance Matrix: (Units=1/GPa)
#
#
# Indices 1 2 3 4 5 6 
#
# 1 -0.002688 0.010859 -0.007634 0.000000 0.000000 0.000000
# 2 0.010859 -0.002688 -0.007634 0.000000 0.000000 0.000000
# 3 -0.007634 -0.007634 0.035716 0.000000 0.000000 0.000000
# 4 0.000000 0.000000 0.000000 -0.141570 0.000000 0.000000
# 5 0.000000 0.000000 0.000000 0.000000 -0.141570 0.000000
# 6 0.000000 0.000000 0.000000 0.000000 0.000000 0.018673
#
#
# Mechanical properties :
#
#
# Convention : Reuss Voigt Hill
#
# Bulk Modulus (GPa) = 46.45816 69.80741 58.13278
# Shear Modulus (GPa) = -22.92154 4.59634 -9.16260
#
# Velocity S-wave (km/s) = -3.24809 1.45450 -2.05360
# Velocity P-wave (km/s) = 2.70490 5.91194 4.59715
#
# Compressibility (1/GPa) = 0.02152475
#
# Stress axis : x y z
#
# Youngs Moduli (GPa) = -372.00115 -372.00115 27.99831
#
# Poissons Ratio (x) = 4.03970 0.21373
# Poissons Ratio (y) = 4.03970 0.21373
# Poissons Ratio (z) = -2.83968 -2.83968
#
# Static dielectric constant tensor:
#      x y z
#    x 1.883350 0.000000 0.000000 
#    y 0.000000 1.883350 0.000000 
#    z 0.000000 0.000000 1.825770 
# 
# From -- ./inp_files/3039.got.cif
#   From: 2010.05.17/outbox.cif.g08.bks.cpg/sg116_2_cif.got.tgz:3039.got - 2010.05.20 11:11:43.
