data_PCOD9557234
_publ_section_title
;
Structure prediction by ZEFSAII (Michael W. Deem and Ramdas Pophale) SiO2 
 PCOD9557234
Probable space group: P -4 M 2
;
_chemical_formula_sum "Si O2"
_cell_formula_units_Z 44
_cell_length_a 9.420072
_cell_length_b 9.420072
_cell_length_c 29.159741
_cell_angle_alpha 90.000000
_cell_angle_beta 90.000000
_cell_angle_gamma 90.000000
_cell_volume 2587.569996
_symmetry_space_group_name_H-M "P -4 M 2"
_symmetry_group_IT_number 115
_symmetry_cell_setting 'tetragonal'
loop_
_space_group_symop_operation_xyz
x,y,z
y,-x,-z
-x,-y,z
-y,x,-z
y,x,-z
-y,-x,-z
-x,y,z
x,-y,z
loop_
_atom_site_type_symbol
_atom_site_label
_atom_site_fract_x
_atom_site_fract_y
_atom_site_fract_z
Si Si1 0.331487 0.830638 0.040204
Si Si2 0.168690 0.331544 0.225130
Si Si3 0.168747 0.168747 0.500000
Si Si4 0.668639 0.331137 0.683303
Si Si5 0.169375 0.833234 0.867055
Si Si6 0.331257 0.168762 0.408330
O O1 0.500000 0.805492 0.041109
O O2 0.259777 0.792495 0.088790
O O3 0.308175 0.000000 0.033127
O O4 0.256217 0.743783 0.000000
O O5 0.193650 0.500000 0.219035
O O6 0.250730 0.284872 0.270745
O O7 0.211314 0.249435 0.179141
O O8 0.000000 0.310175 0.231547
O O9 0.250013 0.214852 0.454167
O O10 0.000000 0.191975 0.494137
O O11 0.500000 0.307034 0.677487
O O12 0.691147 0.500000 0.688997
O O13 0.750086 0.285008 0.637510
O O14 0.000000 0.821951 0.860097
O O15 0.202215 0.000000 0.875761
O O16 0.500000 0.192113 0.414172
O O17 0.308142 0.000000 0.402489
#
# Coordination Sequence:
#
# PCOD9557234 Si02
#       6
#     8   8   4   8   8   8
#     4  10  21  36  54  77 104 134 169 208 250 297
#     4   9  18  32  49  70  96 125 158 196 237 282
#     4   9  18  32  48  67  92 120 150 187 232 278
#     4   9  18  32  48  67  93 124 156 190 231 279
#     4   9  18  33  52  73  98 129 164 201 242 289
#     4   9  18  32  48  67  92 121 153 189 230 276
#
# _framework density 17.004369000000001
#
# number of rings (size 3 to 8) (size 9 to 14) (size 15 to 20)
#    0.000    2.818    0.000    0.545    0.000    4.727 
#    0.000    1.818    0.000    0.000    0.000    0.000 
#    0.000    0.000    0.000    0.000    0.000    0.000 
#
# Total GULP energy -245345.438090 kJ/mol
# GULP energy per Si atom -5576.032684 kJ/mol
# Density = 1.696567 g / cm^3
# Si number density = 17.004369 Si / 1000 Ang^3
#
#
#
# Elastic Constant Matrix: (Units=GPa)
#
#
# Indices 1 2 3 4 5 6 
#
# 1 44.9398 45.6864 85.7194 0.0000 0.0000 0.0000
# 2 45.6864 44.9398 85.7194 0.0000 0.0000 0.0000
# 3 85.7194 85.7194 222.0926 0.0000 0.0000 0.0000
# 4 0.0000 0.0000 0.0000 59.2449 0.0000 0.0000
# 5 0.0000 0.0000 0.0000 0.0000 59.2449 0.0000
# 6 0.0000 0.0000 0.0000 0.0000 0.0000 18.7943
#
#
#
# Elastic Compliance Matrix: (Units=1/GPa)
#
#
# Indices 1 2 3 4 5 6 
#
# 1 -0.649193 0.690081 -0.015781 0.000000 0.000000 0.000000
# 2 0.690081 -0.649193 -0.015781 0.000000 0.000000 0.000000
# 3 -0.015781 -0.015781 0.016684 0.000000 0.000000 0.000000
# 4 0.000000 0.000000 0.000000 0.016879 0.000000 0.000000
# 5 0.000000 0.000000 0.000000 0.000000 0.016879 0.000000
# 6 0.000000 0.000000 0.000000 0.000000 0.000000 0.053208
#
#
# Mechanical properties :
#
#
# Convention : Reuss Voigt Hill
#
# Bulk Modulus (GPa) = 28.30030 82.91361 55.60695
# Shear Modulus (GPa) = -2.00000 33.77993 15.88996
#
# Velocity S-wave (km/s) = -1.08569 4.46190 3.06022
# Velocity P-wave (km/s) = 3.88683 8.68394 6.72749
#
# Compressibility (1/GPa) = 0.03533531
#
# Stress axis : x y z
#
# Youngs Moduli (GPa) = -1.54037 -1.54037 59.93617
#
# Poissons Ratio (x) = 1.06298 0.94586
# Poissons Ratio (y) = 1.06298 0.94586
# Poissons Ratio (z) = -0.02431 -0.02431
#
# Static dielectric constant tensor:
#      x y z
#    x 1.566870 0.000000 0.000000 
#    y 0.000000 1.566870 0.000000 
#    z 0.000000 0.000000 1.546510 
# 
# From -- ./inp_files/5746.got.cif
#   From: 2010.05.17/outbox.cif.g08.bks.cpg/sg115_3_cif.got.tgz:5746.got - 2010.05.20 11:07:42.
