data_PCOD9557891
_publ_section_title
;
Structure prediction by ZEFSAII (Michael W. Deem and Ramdas Pophale) SiO2 
 PCOD9557891
Probable space group: P -4 C 2
;
_chemical_formula_sum "Si O2"
_cell_formula_units_Z 34
_cell_length_a 10.998901
_cell_length_b 10.998901
_cell_length_c 12.615542
_cell_angle_alpha 90.000000
_cell_angle_beta 90.000000
_cell_angle_gamma 90.000000
_cell_volume 1526.175579
_symmetry_space_group_name_H-M "P -4 C 2"
_symmetry_group_IT_number 116
_symmetry_cell_setting 'tetragonal'
loop_
_space_group_symop_operation_xyz
x,y,z
y,-x,-z
-x,-y,z
-y,x,-z
y,x,1/2-z
-y,-x,1/2-z
-x,y,1/2+z
x,-y,1/2+z
loop_
_atom_site_type_symbol
_atom_site_label
_atom_site_fract_x
_atom_site_fract_y
_atom_site_fract_z
Si Si1 0.685974 0.849397 0.811517
Si Si2 0.944232 0.622924 0.329588
Si Si3 0.310539 0.516168 0.814296
Si Si4 0.500000 0.500000 0.500000
Si Si5 0.933694 0.819123 0.492510
O O1 0.806282 0.806282 0.750000
O O2 0.583777 0.757392 0.761932
O O3 0.730010 0.855260 0.932291
O O4 0.639349 0.983502 0.780121
O O5 0.800944 0.607036 0.333235
O O6 0.977008 0.740173 0.395000
O O7 0.000000 0.500000 0.379039
O O8 0.410980 0.589021 0.750000
O O9 0.381716 0.478568 0.922847
O O10 0.059810 0.864217 0.544742
#
# Coordination Sequence:
#
# PCOD9557891 Si02
#       5
#     8   8   8   2   8
#     4  11  23  47  70  97 149 181 238 301 362 433
#     4  10  25  44  66 105 138 190 236 296 372 429
#     4  11  27  45  71 106 139 192 242 300 370 432
#     4  12  26  48  76 102 144 188 258 300 372 450
#     4  11  25  44  74 107 140 195 245 300 370 439
#
# _framework density 22.277911
#
# number of rings (size 3 to 8) (size 9 to 14) (size 15 to 20)
#    0.000    1.176    2.353    1.765    9.882    2.824 
#    0.000    0.000    0.000    0.000    0.000    0.000 
#    0.000    0.000    0.000    0.000    0.000    0.000 
#
# Total GULP energy -189347.608991 kJ/mol
# GULP energy per Si atom -5569.047323 kJ/mol
# Density = 2.222721 g / cm^3
# Si number density = 22.277911 Si / 1000 Ang^3
#
#
#
# Elastic Constant Matrix: (Units=GPa)
#
#
# Indices 1 2 3 4 5 6 
#
# 1 103.2704 31.8037 32.7210 0.0000 0.0000 0.0000
# 2 31.8037 103.2733 32.7202 0.0000 0.0000 0.0000
# 3 32.7210 32.7202 67.9182 0.0000 0.0000 0.0000
# 4 0.0000 0.0000 0.0000 24.5766 0.0000 0.0000
# 5 0.0000 0.0000 0.0000 0.0000 24.5763 0.0000
# 6 0.0000 0.0000 0.0000 0.0000 0.0000 33.8429
#
#
#
# Elastic Compliance Matrix: (Units=1/GPa)
#
#
# Indices 1 2 3 4 5 6 
#
# 1 0.011825 -0.002167 -0.004653 0.000000 0.000000 0.000000
# 2 -0.002167 0.011825 -0.004652 0.000000 0.000000 0.000000
# 3 -0.004653 -0.004652 0.019206 0.000000 0.000000 0.000000
# 4 0.000000 0.000000 0.000000 0.040689 0.000000 0.000000
# 5 0.000000 0.000000 0.000000 0.000000 0.040690 0.000000
# 6 0.000000 0.000000 0.000000 0.000000 0.000000 0.029548
#
#
# Mechanical properties :
#
#
# Convention : Reuss Voigt Hill
#
# Bulk Modulus (GPa) = 50.22379 52.10576 51.16477
# Shear Modulus (GPa) = 27.26799 28.41363 27.84081
#
# Velocity S-wave (km/s) = 3.50236 3.57517 3.53895
# Velocity P-wave (km/s) = 6.24087 6.36256 6.30201
#
# Compressibility (1/GPa) = 0.01991088
#
# Stress axis : x y z
#
# Youngs Moduli (GPa) = 84.56631 84.56986 52.06577
#
# Poissons Ratio (x) = 0.18330 0.24225
# Poissons Ratio (y) = 0.18329 0.24223
# Poissons Ratio (z) = 0.39347 0.39345
#
# Static dielectric constant tensor:
#      x y z
#    x 1.898920 0.000000 0.000000 
#    y 0.000000 1.898920 0.000000 
#    z 0.000000 0.000000 1.838390 
# 
# From -- ./inp_files/1685.got.cif
#   From: 2010.05.17/outbox.cif.g08.bks.cpg/sg116_1_cif.got.tgz:1685.got - 2010.05.20 11:11:43.
