data_PCOD9557651
_publ_section_title
;
Structure prediction by ZEFSAII (Michael W. Deem and Ramdas Pophale) SiO2 
 PCOD9557651
Probable space group: P -4 C 2
;
_chemical_formula_sum "Si O2"
_cell_formula_units_Z 34
_cell_length_a 8.614571
_cell_length_b 8.614571
_cell_length_c 21.776378
_cell_angle_alpha 90.000000
_cell_angle_beta 90.000000
_cell_angle_gamma 90.000000
_cell_volume 1616.043162
_symmetry_space_group_name_H-M "P -4 C 2"
_symmetry_group_IT_number 116
_symmetry_cell_setting 'tetragonal'
loop_
_space_group_symop_operation_xyz
x,y,z
y,-x,-z
-x,-y,z
-y,x,-z
y,x,1/2-z
-y,-x,1/2-z
-x,y,1/2+z
x,-y,1/2+z
loop_
_atom_site_type_symbol
_atom_site_label
_atom_site_fract_x
_atom_site_fract_y
_atom_site_fract_z
Si Si1 0.025350 0.337920 0.939690
Si Si2 0.500000 0.500000 0.750000
Si Si3 0.546204 0.820543 0.321626
Si Si4 0.841810 0.672080 0.566833
Si Si5 0.910206 0.863092 0.146457
O O1 0.207396 0.297936 0.946178
O O2 0.000000 0.500000 0.905626
O O3 0.944745 0.200684 0.902554
O O4 0.932250 0.352831 0.003528
O O5 0.664079 0.506505 0.712783
O O6 0.478537 0.804824 0.391799
O O7 0.732045 0.817784 0.318582
O O8 0.500000 0.000000 0.301324
O O9 0.960092 0.766158 0.610078
O O10 0.000000 0.000000 0.180904
#
# Coordination Sequence:
#
# PCOD9557651 Si02
#       5
#     8   2   8   8   8
#     4  11  20  31  57  98 129 181 215 257 337 448
#     4  12  28  52  78  96 136 188 256 326 372 400
#     4  10  24  49  68  97 137 180 233 311 361 422
#     4  10  20  37  61  90 138 172 217 273 346 419
#     4   9  19  37  63  93 133 172 217 273 346 424
#
# _framework density 21.039041999999998
#
# number of rings (size 3 to 8) (size 9 to 14) (size 15 to 20)
#    0.000    1.882    2.353    2.118    3.294    0.000 
#   12.706    0.000    0.000    0.000    0.000    0.000 
#    0.000    0.000    0.000    0.000    0.000    0.000 
#
# Total GULP energy -189335.658443 kJ/mol
# GULP energy per Si atom -5568.695837 kJ/mol
# Density = 2.099116 g / cm^3
# Si number density = 21.039042 Si / 1000 Ang^3
#
#
#
# Elastic Constant Matrix: (Units=GPa)
#
#
# Indices 1 2 3 4 5 6 
#
# 1 111.3928 42.0555 39.2455 0.0000 0.0000 0.0000
# 2 42.0555 111.3928 39.2455 0.0000 0.0000 0.0000
# 3 39.2455 39.2455 84.0058 0.0000 0.0000 0.0000
# 4 0.0000 0.0000 0.0000 -6.6583 0.0000 0.0000
# 5 0.0000 0.0000 0.0000 0.0000 -6.6583 0.0000
# 6 0.0000 0.0000 0.0000 0.0000 0.0000 35.5849
#
#
#
# Elastic Compliance Matrix: (Units=1/GPa)
#
#
# Indices 1 2 3 4 5 6 
#
# 1 0.011493 -0.002930 -0.004001 0.000000 0.000000 0.000000
# 2 -0.002930 0.011493 -0.004001 0.000000 0.000000 0.000000
# 3 -0.004001 -0.004001 0.015642 0.000000 0.000000 0.000000
# 4 0.000000 0.000000 0.000000 -0.150188 0.000000 0.000000
# 5 0.000000 0.000000 0.000000 0.000000 -0.150188 0.000000
# 6 0.000000 0.000000 0.000000 0.000000 0.000000 0.028102
#
#
# Mechanical properties :
#
#
# Convention : Reuss Voigt Hill
#
# Bulk Modulus (GPa) = 59.64407 60.87606 60.26007
# Shear Modulus (GPa) = -24.24867 16.86998 -3.68935
#
# Velocity S-wave (km/s) = -3.39861 2.83475 -1.32566
# Velocity P-wave (km/s) = 3.60694 6.30175 5.13430
#
# Compressibility (1/GPa) = 0.01676613
#
# Stress axis : x y z
#
# Youngs Moduli (GPa) = 87.01174 87.01174 63.93120
#
# Poissons Ratio (x) = 0.25490 0.25576
# Poissons Ratio (y) = 0.25490 0.25576
# Poissons Ratio (z) = 0.34809 0.34809
#
# Static dielectric constant tensor:
#      x y z
#    x 1.823160 0.000000 0.000000 
#    y 0.000000 1.823160 0.000000 
#    z 0.000000 0.000000 1.755790 
# 
# From -- ./inp_files/3873.got.cif
#   From: 2010.05.17/outbox.cif.g08.bks.cpg/sg116_2_cif.got.tgz:3873.got - 2010.05.20 11:11:43.
