data_PCOD9557533
_publ_section_title
;
Structure prediction by ZEFSAII (Michael W. Deem and Ramdas Pophale) SiO2 
 PCOD9557533
Probable space group: P -4 C 2
;
_chemical_formula_sum "Si O2"
_cell_formula_units_Z 64
_cell_length_a 12.304631
_cell_length_b 12.304631
_cell_length_c 25.269875
_cell_angle_alpha 90.000000
_cell_angle_beta 90.000000
_cell_angle_gamma 90.000000
_cell_volume 3825.958741
_symmetry_space_group_name_H-M "P -4 C 2"
_symmetry_group_IT_number 116
_symmetry_cell_setting 'tetragonal'
loop_
_space_group_symop_operation_xyz
x,y,z
y,-x,-z
-x,-y,z
-y,x,-z
y,x,1/2-z
-y,-x,1/2-z
-x,y,1/2+z
x,-y,1/2+z
loop_
_atom_site_type_symbol
_atom_site_label
_atom_site_fract_x
_atom_site_fract_y
_atom_site_fract_z
Si Si1 0.993577 0.223278 0.052309
Si Si2 0.892037 0.063038 0.633686
Si Si3 0.607963 0.563038 0.366314
Si Si4 0.763919 0.736081 0.187799
Si Si5 0.723278 0.506423 0.552309
Si Si6 0.600870 0.273465 0.061971
Si Si7 0.899130 0.226535 0.438029
Si Si8 0.915740 0.584260 0.122887
O O1 0.868806 0.189046 0.053655
O O2 0.058389 0.127872 0.083190
O O3 0.021985 0.330206 0.085475
O O4 0.033861 0.233412 0.992459
O O5 0.818196 0.150973 0.665420
O O6 0.811825 0.973115 0.610242
O O7 0.000000 0.000000 0.657582
O O8 0.500000 0.500000 0.342418
O O9 0.681804 0.650973 0.334580
O O10 0.558389 0.627872 0.416810
O O11 0.688175 0.473115 0.389758
O O12 0.750000 0.750000 0.250000
O O13 0.851890 0.648110 0.168115
O O14 0.733412 0.466139 0.492459
O O15 0.689046 0.631194 0.553655
O O16 0.830206 0.478015 0.585475
O O17 0.661709 0.161709 0.072000
O O18 0.000000 0.500000 0.146228
#
# Coordination Sequence:
#
# PCOD9557533 Si02
#       8
#     8   8   8   8   8   8   8   8
#     4  10  18  29  50  73 110 152 186 210 267 340
#     4   9  20  35  55  81 111 146 188 229 280 344
#     4   9  20  35  55  81 111 146 188 229 280 344
#     4  10  22  42  64  80 104 146 198 248 282 328
#     4  10  18  29  50  73 110 152 186 210 267 340
#     4  11  19  30  48  77 112 156 184 221 269 333
#     4  11  19  30  48  77 112 156 184 221 269 333
#     4  10  20  36  50  82 110 140 186 233 278 332
#
# _framework density 16.727834000000001
#
# number of rings (size 3 to 8) (size 9 to 14) (size 15 to 20)
#    0.000    2.000    3.750    0.750    0.000    0.500 
#    2.250    1.875    0.000    0.000    0.000   10.500 
#    0.000    0.000    0.000    0.000    0.000    0.000 
#
# Total GULP energy -356424.039704 kJ/mol
# GULP energy per Si atom -5569.125620 kJ/mol
# Density = 1.668976 g / cm^3
# Si number density = 16.727834 Si / 1000 Ang^3
#
#
#
# Elastic Constant Matrix: (Units=GPa)
#
#
# Indices 1 2 3 4 5 6 
#
# 1 87.0055 71.9968 45.0521 0.0000 0.0000 0.0000
# 2 71.9968 87.0055 45.0521 0.0000 0.0000 0.0000
# 3 45.0521 45.0521 82.6678 0.0000 0.0000 0.0000
# 4 0.0000 0.0000 0.0000 3.1493 0.0000 0.0000
# 5 0.0000 0.0000 0.0000 0.0000 3.1493 0.0000
# 6 0.0000 0.0000 0.0000 0.0000 0.0000 41.9939
#
#
#
# Elastic Compliance Matrix: (Units=1/GPa)
#
#
# Indices 1 2 3 4 5 6 
#
# 1 0.037864 -0.028764 -0.004959 0.000000 0.000000 0.000000
# 2 -0.028764 0.037864 -0.004959 0.000000 0.000000 0.000000
# 3 -0.004959 -0.004959 0.017502 0.000000 0.000000 0.000000
# 4 0.000000 0.000000 0.000000 0.317529 0.000000 0.000000
# 5 0.000000 0.000000 0.000000 0.000000 0.317529 0.000000
# 6 0.000000 0.000000 0.000000 0.000000 0.000000 0.023813
#
#
# Mechanical properties :
#
#
# Convention : Reuss Voigt Hill
#
# Bulk Modulus (GPa) = 63.03349 64.54231 63.78790
# Shear Modulus (GPa) = 5.98979 15.96369 10.97674
#
# Velocity S-wave (km/s) = 1.89434 3.09256 2.56441
# Velocity P-wave (km/s) = 6.52290 7.17073 6.85448
#
# Compressibility (1/GPa) = 0.01586458
#
# Stress axis : x y z
#
# Youngs Moduli (GPa) = 26.41046 26.41046 57.13745
#
# Poissons Ratio (x) = 0.75968 0.28334
# Poissons Ratio (y) = 0.75968 0.28334
# Poissons Ratio (z) = 0.13097 0.13097
#
# Static dielectric constant tensor:
#      x y z
#    x 1.590370 0.000000 0.000000 
#    y 0.000000 1.590370 0.000000 
#    z 0.000000 0.000000 1.510790 
# 
# From -- ./inp_files/4666.got.cif
#   From: 2010.05.17/outbox.cif.g08.bks.cpg/sg116_3_cif.got.tgz:4666.got - 2010.05.20 11:11:43.
