data_PCOD9557798
_publ_section_title
;
Structure prediction by ZEFSAII (Michael W. Deem and Ramdas Pophale) SiO2 
 PCOD9557798
Probable space group: P -4 C 2
;
_chemical_formula_sum "Si O2"
_cell_formula_units_Z 34
_cell_length_a 11.343122
_cell_length_b 11.343122
_cell_length_c 14.940461
_cell_angle_alpha 90.000000
_cell_angle_beta 90.000000
_cell_angle_gamma 90.000000
_cell_volume 1922.335581
_symmetry_space_group_name_H-M "P -4 C 2"
_symmetry_group_IT_number 116
_symmetry_cell_setting 'tetragonal'
loop_
_space_group_symop_operation_xyz
x,y,z
y,-x,-z
-x,-y,z
-y,x,-z
y,x,1/2-z
-y,-x,1/2-z
-x,y,1/2+z
x,-y,1/2+z
loop_
_atom_site_type_symbol
_atom_site_label
_atom_site_fract_x
_atom_site_fract_y
_atom_site_fract_z
Si Si1 0.851292 0.851292 0.644439
Si Si2 0.119707 0.429825 0.854943
Si Si3 0.000000 0.000000 0.000000
Si Si4 0.500000 0.695300 0.500000
Si Si5 0.880293 0.429825 0.145057
O O1 0.879497 0.879497 0.750000
O O2 0.711965 0.880041 0.632138
O O3 0.880041 0.711965 0.632138
O O4 0.921885 0.921884 0.568462
O O5 0.223030 0.481412 0.914649
O O6 0.141335 0.449920 0.750000
O O7 0.000000 0.500000 0.878430
O O8 0.612401 0.612401 0.488436
O O9 0.481413 0.776970 0.414648
O O10 0.000000 0.500000 0.121570
#
# Coordination Sequence:
#
# PCOD9557798 Si02
#       5
#     8   8   2   8   8
#     4  10  23  43  62  90 126 160 203 251 305 362
#     4  10  22  41  63  85 119 161 199 249 304 358
#     4  12  26  36  64  94 116 168 198 256 296 354
#     4  11  23  36  60  92 121 153 196 246 298 369
#     4  10  22  41  63  85 119 161 199 249 304 358
#
# _framework density 17.686817999999999
#
# number of rings (size 3 to 8) (size 9 to 14) (size 15 to 20)
#    0.000    1.647    2.353    1.059    6.588    0.941 
#    0.000    2.353    0.000    0.000    0.000    0.000 
#    0.000    0.000    0.000    0.000    0.000    0.000 
#
# Total GULP energy -189743.319426 kJ/mol
# GULP energy per Si atom -5580.685865 kJ/mol
# Density = 1.764656 g / cm^3
# Si number density = 17.686818 Si / 1000 Ang^3
#
#
#
# Elastic Constant Matrix: (Units=GPa)
#
#
# Indices 1 2 3 4 5 6 
#
# 1 150.8129 101.6279 100.1911 0.0000 0.0000 0.0000
# 2 101.6279 150.8129 100.1911 0.0000 0.0000 0.0000
# 3 100.1911 100.1911 110.9272 0.0000 0.0000 0.0000
# 4 0.0000 0.0000 0.0000 29.5818 0.0000 0.0000
# 5 0.0000 0.0000 0.0000 0.0000 29.5818 0.0000
# 6 0.0000 0.0000 0.0000 0.0000 0.0000 147.4713
#
#
#
# Elastic Compliance Matrix: (Units=1/GPa)
#
#
# Indices 1 2 3 4 5 6 
#
# 1 0.017163 -0.003168 -0.012641 0.000000 0.000000 0.000000
# 2 -0.003168 0.017163 -0.012641 0.000000 0.000000 0.000000
# 3 -0.012641 -0.012641 0.031850 0.000000 0.000000 0.000000
# 4 0.000000 0.000000 0.000000 0.033805 0.000000 0.000000
# 5 0.000000 0.000000 0.000000 0.000000 0.033805 0.000000
# 6 0.000000 0.000000 0.000000 0.000000 0.000000 0.006781
#
#
# Mechanical properties :
#
#
# Convention : Reuss Voigt Hill
#
# Bulk Modulus (GPa) = 107.79209 112.95260 110.37235
# Shear Modulus (GPa) = 24.93043 48.69651 36.81347
#
# Velocity S-wave (km/s) = 3.75847 5.25285 4.56719
# Velocity P-wave (km/s) = 8.93935 10.03948 9.50534
#
# Compressibility (1/GPa) = 0.00927712
#
# Stress axis : x y z
#
# Youngs Moduli (GPa) = 58.26360 58.26360 31.39753
#
# Poissons Ratio (x) = 0.18458 0.39689
# Poissons Ratio (y) = 0.18458 0.39689
# Poissons Ratio (z) = 0.73650 0.73650
#
# Static dielectric constant tensor:
#      x y z
#    x 1.593090 0.000000 0.000000 
#    y 0.000000 1.593090 0.000000 
#    z 0.000000 0.000000 1.595070 
# 
# From -- ./inp_files/1601.got.cif
#   From: 2010.05.17/outbox.cif.g08.bks.cpg/sg116_1_cif.got.tgz:1601.got - 2010.05.20 11:11:43.
