data_PCOD9557568
_publ_section_title
;
Structure prediction by ZEFSAII (Michael W. Deem and Ramdas Pophale) SiO2 
 PCOD9557568
Probable space group: P -4 C 2
;
_chemical_formula_sum "Si O2"
_cell_formula_units_Z 60
_cell_length_a 12.137920
_cell_length_b 12.137920
_cell_length_c 19.241398
_cell_angle_alpha 90.000000
_cell_angle_beta 90.000000
_cell_angle_gamma 90.000000
_cell_volume 2834.817887
_symmetry_space_group_name_H-M "P -4 C 2"
_symmetry_group_IT_number 116
_symmetry_cell_setting 'tetragonal'
loop_
_space_group_symop_operation_xyz
x,y,z
y,-x,-z
-x,-y,z
-y,x,-z
y,x,1/2-z
-y,-x,1/2-z
-x,y,1/2+z
x,-y,1/2+z
loop_
_atom_site_type_symbol
_atom_site_label
_atom_site_fract_x
_atom_site_fract_y
_atom_site_fract_z
Si Si1 0.766665 0.409749 0.256880
Si Si2 0.873506 0.494424 0.124266
Si Si3 0.756554 0.025466 0.007594
Si Si4 0.797705 0.371730 0.997923
Si Si5 0.560835 0.881958 0.595506
Si Si6 0.090981 0.080312 0.115743
Si Si7 0.273551 0.762457 0.871690
Si Si8 0.628246 0.628246 0.250000
O O1 0.707301 0.292700 0.250000
O O2 0.858129 0.435485 0.198257
O O3 0.823762 0.415427 0.331850
O O4 0.671118 0.502848 0.243757
O O5 0.842654 0.622256 0.131355
O O6 0.000000 0.500000 0.098416
O O7 0.788631 0.429072 0.073269
O O8 0.666138 0.101089 0.045588
O O9 0.693677 0.911877 0.994723
O O10 0.847285 0.005902 0.066433
O O11 0.824074 0.050492 0.937869
O O12 0.810120 0.474809 0.947161
O O13 0.729486 0.287002 0.950046
O O14 0.500000 0.000000 0.606662
O O15 0.183563 0.156650 0.152306
O O16 0.000000 0.000000 0.151041
O O17 0.304747 0.668981 0.817106
#
# Coordination Sequence:
#
# PCOD9557568 Si02
#       8
#     8   8   8   8   8   8   8   4
#     4  11  24  41  65  92 123 167 211 269 332 394
#     4  11  23  42  64  96 132 165 213 276 331 391
#     4  10  19  32  58  84 124 163 200 252 304 371
#     4  10  20  37  62  93 120 160 214 259 315 381
#     4  10  20  38  62  89 123 164 214 259 312 393
#     4  11  19  35  54  94 127 165 211 251 313 380
#     4  10  22  38  67  87 121 173 205 265 324 391
#     4  10  21  46  65  86 118 164 222 256 333 402
#
# _framework density 21.165379999999999
#
# number of rings (size 3 to 8) (size 9 to 14) (size 15 to 20)
#    0.000    1.600    2.667    3.400    0.000    3.200 
#    2.400    0.333    0.000    0.000    0.000    0.000 
#    0.000    0.000    0.000    0.000    0.000    0.000 
#
# Total GULP energy -334150.010642 kJ/mol
# GULP energy per Si atom -5569.166844 kJ/mol
# Density = 2.111721 g / cm^3
# Si number density = 21.165380 Si / 1000 Ang^3
#
#
#
# Elastic Constant Matrix: (Units=GPa)
#
#
# Indices 1 2 3 4 5 6 
#
# 1 40.8713 9.7528 21.8391 0.0000 0.0000 0.0000
# 2 9.7528 40.8721 21.8396 0.0000 0.0000 0.0000
# 3 21.8391 21.8396 74.6412 0.0000 0.0000 0.0000
# 4 0.0000 0.0000 0.0000 4.0370 0.0000 0.0000
# 5 0.0000 0.0000 0.0000 0.0000 4.0302 0.0000
# 6 0.0000 0.0000 0.0000 0.0000 0.0000 16.6503
#
#
#
# Elastic Compliance Matrix: (Units=1/GPa)
#
#
# Indices 1 2 3 4 5 6 
#
# 1 0.029280 -0.002855 -0.007731 0.000000 0.000000 0.000000
# 2 -0.002855 0.029279 -0.007731 0.000000 0.000000 0.000000
# 3 -0.007731 -0.007731 0.017922 0.000000 0.000000 0.000000
# 4 0.000000 0.000000 0.000000 0.247706 0.000000 0.000000
# 5 0.000000 0.000000 0.000000 0.000000 0.248126 0.000000
# 6 0.000000 0.000000 0.000000 0.000000 0.000000 0.060059
#
#
# Mechanical properties :
#
#
# Convention : Reuss Voigt Hill
#
# Bulk Modulus (GPa) = 25.09792 29.24972 27.17382
# Shear Modulus (GPa) = 7.32828 11.80705 9.56767
#
# Velocity S-wave (km/s) = 1.86277 2.36444 2.12844
# Velocity P-wave (km/s) = 4.06329 4.61560 4.34822
#
# Compressibility (1/GPa) = 0.03984394
#
# Stress axis : x y z
#
# Youngs Moduli (GPa) = 34.15346 34.15397 55.79824
#
# Poissons Ratio (x) = 0.09753 0.43140
# Poissons Ratio (y) = 0.09752 0.43140
# Poissons Ratio (z) = 0.26405 0.26406
#
# Static dielectric constant tensor:
#      x y z
#    x 1.774900 0.000000 0.000000 
#    y 0.000000 1.774910 0.000000 
#    z 0.000000 0.000000 1.817200 
# 
# From -- ./inp_files/4208.got.cif
#   From: 2010.05.17/outbox.cif.g08.bks.cpg/sg116_3_cif.got.tgz:4208.got - 2010.05.20 11:11:43.
