data_PCOD9557800
_publ_section_title
;
Structure prediction by ZEFSAII (Michael W. Deem and Ramdas Pophale) SiO2 
 PCOD9557800
Probable space group: P -4 C 2
;
_chemical_formula_sum "Si O2"
_cell_formula_units_Z 48
_cell_length_a 9.286857
_cell_length_b 9.286857
_cell_length_c 27.115980
_cell_angle_alpha 90.000000
_cell_angle_beta 90.000000
_cell_angle_gamma 90.000000
_cell_volume 2338.637027
_symmetry_space_group_name_H-M "P -4 C 2"
_symmetry_group_IT_number 116
_symmetry_cell_setting 'tetragonal'
loop_
_space_group_symop_operation_xyz
x,y,z
y,-x,-z
-x,-y,z
-y,x,-z
y,x,1/2-z
-y,-x,1/2-z
-x,y,1/2+z
x,-y,1/2+z
loop_
_atom_site_type_symbol
_atom_site_label
_atom_site_fract_x
_atom_site_fract_y
_atom_site_fract_z
Si Si1 0.500000 0.500000 0.885785
Si Si2 0.500000 0.000000 0.556132
Si Si3 0.009590 0.329419 0.615369
Si Si4 0.986431 0.770253 0.509935
Si Si5 0.365779 0.748803 0.817245
Si Si6 0.763268 0.658991 0.879302
Si Si7 0.170147 0.490077 0.281596
O O1 0.435564 0.634546 0.854838
O O2 0.635438 0.577967 0.909601
O O3 0.374456 0.941835 0.519163
O O4 0.595119 0.901552 0.592935
O O5 0.956417 0.261589 0.564575
O O6 0.171309 0.270233 0.622694
O O7 0.000000 0.500000 0.607290
O O8 0.898418 0.312921 0.659996
O O9 0.117798 0.855138 0.484515
O O10 0.485346 0.772599 0.774562
O O11 0.224946 0.665757 0.798967
O O12 0.770119 0.600265 0.822687
O O13 0.000000 0.500000 0.280526
#
# Coordination Sequence:
#
# PCOD9557800 Si02
#       7
#     4   4   8   8   8   8   8
#     4  10  22  41  64 101 126 176 228 273 346 395
#     4  12  24  46  66 100 134 174 232 278 352 416
#     4  12  23  44  69 102 136 178 227 289 351 413
#     4  11  26  44  68  98 132 179 230 284 352 418
#     4  10  23  41  67  98 137 174 229 282 335 416
#     4  11  24  41  69  97 135 179 224 285 345 416
#     4  10  22  42  64  98 133 180 227 274 341 410
#
# _framework density 20.524777
#
# number of rings (size 3 to 8) (size 9 to 14) (size 15 to 20)
#    0.000    1.167    5.000    0.500    4.667    5.333 
#    0.000    0.000    0.000    3.000    0.000    0.000 
#    0.000    0.000    0.000    0.000    0.000    0.000 
#
# Total GULP energy -267306.075851 kJ/mol
# GULP energy per Si atom -5568.876580 kJ/mol
# Density = 2.047806 g / cm^3
# Si number density = 20.524777 Si / 1000 Ang^3
#
#
#
# Elastic Constant Matrix: (Units=GPa)
#
#
# Indices 1 2 3 4 5 6 
#
# 1 91.6930 19.4346 13.8557 0.0000 0.0000 0.0000
# 2 19.4346 91.6930 13.8557 0.0000 0.0000 0.0000
# 3 13.8557 13.8557 66.2660 0.0000 0.0000 0.0000
# 4 0.0000 0.0000 0.0000 7.3206 0.0000 0.0000
# 5 0.0000 0.0000 0.0000 0.0000 7.3206 0.0000
# 6 0.0000 0.0000 0.0000 0.0000 0.0000 26.6380
#
#
#
# Elastic Compliance Matrix: (Units=1/GPa)
#
#
# Indices 1 2 3 4 5 6 
#
# 1 0.011666 -0.002173 -0.001985 0.000000 0.000000 0.000000
# 2 -0.002173 0.011666 -0.001985 0.000000 0.000000 0.000000
# 3 -0.001985 -0.001985 0.015921 0.000000 0.000000 0.000000
# 4 0.000000 0.000000 0.000000 0.136601 0.000000 0.000000
# 5 0.000000 0.000000 0.000000 0.000000 0.136601 0.000000
# 6 0.000000 0.000000 0.000000 0.000000 0.000000 0.037540
#
#
# Mechanical properties :
#
#
# Convention : Reuss Voigt Hill
#
# Bulk Modulus (GPa) = 37.08103 38.21597 37.64850
# Shear Modulus (GPa) = 13.46721 21.75623 17.61172
#
# Velocity S-wave (km/s) = 2.56431 3.25929 2.93246
# Velocity P-wave (km/s) = 5.18394 5.72921 5.46338
#
# Compressibility (1/GPa) = 0.02696797
#
# Stress axis : x y z
#
# Youngs Moduli (GPa) = 85.71589 85.71589 62.81086
#
# Poissons Ratio (x) = 0.18624 0.12468
# Poissons Ratio (y) = 0.18624 0.12468
# Poissons Ratio (z) = 0.17015 0.17015
#
# Static dielectric constant tensor:
#      x y z
#    x 1.833140 0.000000 0.000000 
#    y 0.000000 1.833140 0.000000 
#    z 0.000000 0.000000 1.863930 
# 
# From -- ./inp_files/5317.got.cif
#   From: 2010.05.17/outbox.cif.g08.bks.cpg/sg116_3_cif.got.tgz:5317.got - 2010.05.20 11:11:43.
