data_PCOD9557640
_publ_section_title
;
Structure prediction by ZEFSAII (Michael W. Deem and Ramdas Pophale) SiO2 
 PCOD9557640
Probable space group: P -4 C 2
;
_chemical_formula_sum "Si O2"
_cell_formula_units_Z 56
_cell_length_a 14.286053
_cell_length_b 14.286053
_cell_length_c 14.226602
_cell_angle_alpha 90.000000
_cell_angle_beta 90.000000
_cell_angle_gamma 90.000000
_cell_volume 2903.525844
_symmetry_space_group_name_H-M "P -4 C 2"
_symmetry_group_IT_number 116
_symmetry_cell_setting 'tetragonal'
loop_
_space_group_symop_operation_xyz
x,y,z
y,-x,-z
-x,-y,z
-y,x,-z
y,x,1/2-z
-y,-x,1/2-z
-x,y,1/2+z
x,-y,1/2+z
loop_
_atom_site_type_symbol
_atom_site_label
_atom_site_fract_x
_atom_site_fract_y
_atom_site_fract_z
Si Si1 0.754657 0.574569 0.939745
Si Si2 0.433528 0.849791 0.257187
Si Si3 0.755257 0.620876 0.544949
Si Si4 0.988221 0.131314 0.467298
Si Si5 0.699320 0.885164 0.443798
Si Si6 0.953014 0.631737 0.237957
Si Si7 0.848869 0.749516 0.392740
O O1 0.780231 0.560676 0.830773
O O2 0.678513 0.657934 0.947334
O O3 0.733994 0.475907 0.989873
O O4 0.844375 0.615473 0.995720
O O5 0.399582 0.798936 0.352184
O O6 0.533180 0.899713 0.273352
O O7 0.372508 0.940406 0.226814
O O8 0.829403 0.682242 0.482971
O O9 0.927886 0.221687 0.490199
O O10 0.048053 0.085253 0.554360
O O11 0.072670 0.169408 0.404599
O O12 0.670647 0.959752 0.367038
O O13 0.749621 0.801810 0.385100
O O14 0.887632 0.689208 0.307928
#
# Coordination Sequence:
#
# PCOD9557640 Si02
#       7
#     8   8   8   8   8   8   8
#     4  11  23  42  64  89 124 161 206 257 313 364
#     4  11  23  38  60  92 120 154 197 255 303 359
#     4  11  23  42  64  89 124 161 206 257 313 364
#     4   9  18  34  55  82 116 160 207 246 298 361
#     4  10  20  36  59  85 121 161 198 249 300 359
#     4  11  21  36  58  90 121 155 199 245 297 370
#     4  10  20  36  59  85 121 161 198 249 300 359
#
# _framework density 19.286897
#
# number of rings (size 3 to 8) (size 9 to 14) (size 15 to 20)
#    0.000    1.571    2.857    2.571    0.000    0.286 
#    0.000    2.857    0.000    5.143    0.000    0.000 
#    0.000    0.000    0.000    0.000    0.000    0.000 
#
# Total GULP energy -311809.971857 kJ/mol
# GULP energy per Si atom -5568.035212 kJ/mol
# Density = 1.924300 g / cm^3
# Si number density = 19.286897 Si / 1000 Ang^3
#
#
#
# Elastic Constant Matrix: (Units=GPa)
#
#
# Indices 1 2 3 4 5 6 
#
# 1 60.5985 6.3782 18.8045 0.0000 0.0000 0.0000
# 2 6.3782 60.5985 18.8045 0.0000 0.0000 0.0000
# 3 18.8045 18.8045 84.9110 0.0000 0.0000 0.0000
# 4 0.0000 0.0000 0.0000 20.9707 0.0000 0.0000
# 5 0.0000 0.0000 0.0000 0.0000 20.9707 0.0000
# 6 0.0000 0.0000 0.0000 0.0000 0.0000 17.7592
#
#
#
# Elastic Compliance Matrix: (Units=1/GPa)
#
#
# Indices 1 2 3 4 5 6 
#
# 1 0.017747 -0.000696 -0.003776 0.000000 0.000000 0.000000
# 2 -0.000696 0.017747 -0.003776 0.000000 0.000000 0.000000
# 3 -0.003776 -0.003776 0.013450 0.000000 0.000000 0.000000
# 4 0.000000 0.000000 0.000000 0.047686 0.000000 0.000000
# 5 0.000000 0.000000 0.000000 0.000000 0.047686 0.000000
# 6 0.000000 0.000000 0.000000 0.000000 0.000000 0.056309
#
#
# Mechanical properties :
#
#
# Convention : Reuss Voigt Hill
#
# Bulk Modulus (GPa) = 30.81952 32.67582 31.74767
# Shear Modulus (GPa) = 21.93596 22.74818 22.34207
#
# Velocity S-wave (km/s) = 3.37612 3.43806 3.40723
# Velocity P-wave (km/s) = 5.58675 5.72181 5.65468
#
# Compressibility (1/GPa) = 0.03244697
#
# Stress axis : x y z
#
# Youngs Moduli (GPa) = 56.34718 56.34718 74.35186
#
# Poissons Ratio (x) = 0.03923 0.28076
# Poissons Ratio (y) = 0.03923 0.28076
# Poissons Ratio (z) = 0.21277 0.21277
#
# Static dielectric constant tensor:
#      x y z
#    x 1.707340 0.000000 0.000000 
#    y 0.000000 1.707340 0.000000 
#    z 0.000000 0.000000 1.670750 
# 
# From -- ./inp_files/1996.got.cif
#   From: 2010.05.17/outbox.cif.g08.bks.cpg/sg116_1_cif.got.tgz:1996.got - 2010.05.20 11:11:43.
