data_PCOD9557439
_publ_section_title
;
Structure prediction by ZEFSAII (Michael W. Deem and Ramdas Pophale) SiO2 
 PCOD9557439
Probable space group: P -4 M 2
;
_chemical_formula_sum "Si O2"
_cell_formula_units_Z 34
_cell_length_a 9.662351
_cell_length_b 9.662351
_cell_length_c 17.680184
_cell_angle_alpha 90.000000
_cell_angle_beta 90.000000
_cell_angle_gamma 90.000000
_cell_volume 1650.640133
_symmetry_space_group_name_H-M "P -4 M 2"
_symmetry_group_IT_number 115
_symmetry_cell_setting 'tetragonal'
loop_
_space_group_symop_operation_xyz
x,y,z
y,-x,-z
-x,-y,z
-y,x,-z
y,x,-z
-y,-x,-z
-x,y,z
x,-y,z
loop_
_atom_site_type_symbol
_atom_site_label
_atom_site_fract_x
_atom_site_fract_y
_atom_site_fract_z
Si Si1 0.833853 0.333957 0.564482
Si Si2 0.159110 0.657247 0.326634
Si Si3 0.334882 0.000000 0.131091
Si Si4 0.500000 0.500000 0.862509
Si Si5 0.334898 0.000000 0.958402
Si Si6 0.706724 0.241655 0.841156
O O1 0.751011 0.248990 0.500000
O O2 0.810491 0.500000 0.559816
O O3 0.765059 0.268307 0.639512
O O4 0.000000 0.311379 0.560457
O O5 0.187363 0.500000 0.354624
O O6 0.173560 0.654271 0.236159
O O7 0.000000 0.691733 0.347169
O O8 0.283006 0.864066 0.171463
O O9 0.500000 0.000000 0.129362
O O10 0.282051 0.000000 0.044030
O O11 0.619111 0.377530 0.860664
O O12 0.297447 0.865500 0.910083
O O13 0.500000 0.000000 0.963802
#
# Coordination Sequence:
#
# PCOD9557439 Si02
#       6
#     8   8   4   2   4   8
#     4  11  26  46  70 104 144 183 225 276 331 395
#     4  11  24  43  71 100 133 180 226 279 334 400
#     4  11  26  41  63  97 136 171 220 295 353 414
#     4  12  24  40  73 100 129 176 232 278 356 404
#     4  11  22  45  67  91 132 177 226 285 349 414
#     4  12  24  45  67  98 133 177 230 282 347 417
#
# _framework density 20.598071000000001
#
# number of rings (size 3 to 8) (size 9 to 14) (size 15 to 20)
#    0.000    0.706    4.706    2.118    3.294    5.647 
#    0.000    3.529    0.000    0.000    0.000    0.000 
#    0.000    0.000    0.000    0.000    0.000    0.000 
#
# Total GULP energy -189489.476632 kJ/mol
# GULP energy per Si atom -5573.219901 kJ/mol
# Density = 2.055119 g / cm^3
# Si number density = 20.598071 Si / 1000 Ang^3
#
#
#
# Elastic Constant Matrix: (Units=GPa)
#
#
# Indices 1 2 3 4 5 6 
#
# 1 162.8173 74.3440 19.9208 0.0000 0.0000 0.0000
# 2 74.3440 162.8175 19.9208 0.0000 0.0000 0.0000
# 3 19.9208 19.9208 66.1325 0.0000 0.0000 0.0000
# 4 0.0000 0.0000 0.0000 20.0581 0.0000 0.0000
# 5 0.0000 0.0000 0.0000 0.0000 20.0580 0.0000
# 6 0.0000 0.0000 0.0000 0.0000 0.0000 39.8984
#
#
#
# Elastic Compliance Matrix: (Units=1/GPa)
#
#
# Indices 1 2 3 4 5 6 
#
# 1 0.007872 -0.003431 -0.001338 0.000000 0.000000 0.000000
# 2 -0.003431 0.007872 -0.001338 0.000000 0.000000 0.000000
# 3 -0.001338 -0.001338 0.015927 0.000000 0.000000 0.000000
# 4 0.000000 0.000000 0.000000 0.049855 0.000000 0.000000
# 5 0.000000 0.000000 0.000000 0.000000 0.049855 0.000000
# 6 0.000000 0.000000 0.000000 0.000000 0.000000 0.025064
#
#
# Mechanical properties :
#
#
# Convention : Reuss Voigt Hill
#
# Bulk Modulus (GPa) = 51.39172 68.90427 60.14800
# Shear Modulus (GPa) = 28.54786 34.50835 31.52810
#
# Velocity S-wave (km/s) = 3.72687 4.09751 3.91658
# Velocity P-wave (km/s) = 6.59722 7.47733 7.05102
#
# Compressibility (1/GPa) = 0.01945839
#
# Stress axis : x y z
#
# Youngs Moduli (GPa) = 127.03153 127.03170 62.78596
#
# Poissons Ratio (x) = 0.43582 0.08400
# Poissons Ratio (y) = 0.43582 0.08400
# Poissons Ratio (z) = 0.16995 0.16995
#
# Static dielectric constant tensor:
#      x y z
#    x 1.705760 0.000000 0.000000 
#    y 0.000000 1.705760 0.000000 
#    z 0.000000 0.000000 1.779340 
# 
# From -- ./inp_files/4702.got.cif
#   From: 2010.05.17/outbox.cif.g08.bks.cpg/sg115_3_cif.got.tgz:4702.got - 2010.05.20 11:07:42.
