data_PCOD9557303
_publ_section_title
;
Structure prediction by ZEFSAII (Michael W. Deem and Ramdas Pophale) SiO2 
 PCOD9557303
Probable space group: P -4 M 2
;
_chemical_formula_sum "Si O2"
_cell_formula_units_Z 40
_cell_length_a 9.152661
_cell_length_b 9.152661
_cell_length_c 26.799679
_cell_angle_alpha 90.000000
_cell_angle_beta 90.000000
_cell_angle_gamma 90.000000
_cell_volume 2245.041360
_symmetry_space_group_name_H-M "P -4 M 2"
_symmetry_group_IT_number 115
_symmetry_cell_setting 'tetragonal'
loop_
_space_group_symop_operation_xyz
x,y,z
y,-x,-z
-x,-y,z
-y,x,-z
y,x,-z
-y,-x,-z
-x,y,z
x,-y,z
loop_
_atom_site_type_symbol
_atom_site_label
_atom_site_fract_x
_atom_site_fract_y
_atom_site_fract_z
Si Si1 0.672798 0.174388 0.844974
Si Si2 0.173814 0.325865 0.452864
Si Si3 0.828694 0.175023 0.256684
Si Si4 0.327007 0.824901 0.359411
Si Si5 0.678193 0.330257 0.945466
O O1 0.500000 0.205717 0.840433
O O2 0.752339 0.223787 0.794610
O O3 0.726957 0.245296 0.896382
O O4 0.691018 0.000000 0.848511
O O5 0.249228 0.249228 0.500000
O O6 0.197505 0.500000 0.455039
O O7 0.243616 0.259448 0.402938
O O8 0.000000 0.298995 0.453699
O O9 0.737267 0.217011 0.305415
O O10 0.000000 0.214197 0.264095
O O11 0.820691 0.000000 0.251541
O O12 0.500000 0.797175 0.361918
O O13 0.304323 0.000000 0.365576
O O14 0.500000 0.324350 0.946848
O O15 0.719303 0.500000 0.940789
O O16 0.726310 0.273691 0.000000
#
# Coordination Sequence:
#
# PCOD9557303 Si02
#       5
#     8   8   8   8   8
#     4   9  17  29  46  68  93 121 157 202 246 289
#     4  11  24  40  59  84 112 142 177 215 255 302
#     4   9  18  33  51  70  97 134 169 201 245 301
#     4  10  21  37  57  81 108 138 174 215 258 305
#     4   8  14  26  44  64  87 118 155 193 237 293
#
# _framework density 17.817046000000001
#
# number of rings (size 3 to 8) (size 9 to 14) (size 15 to 20)
#    0.000    2.600    0.000    2.400    0.000    6.800 
#    0.000    3.000    0.000    1.200    0.000    0.000 
#    0.000    0.000    0.000    0.000    0.000    0.000 
#
# Total GULP energy -223100.460532 kJ/mol
# GULP energy per Si atom -5577.511513 kJ/mol
# Density = 1.777649 g / cm^3
# Si number density = 17.817046 Si / 1000 Ang^3
#
#
#
# Elastic Constant Matrix: (Units=GPa)
#
#
# Indices 1 2 3 4 5 6 
#
# 1 56.6894 55.2983 81.8763 0.0000 0.0000 0.0000
# 2 55.2983 56.6896 81.8763 0.0000 0.0000 0.0000
# 3 81.8763 81.8763 223.3688 0.0000 0.0000 0.0000
# 4 0.0000 0.0000 0.0000 36.9506 0.0000 0.0000
# 5 0.0000 0.0000 0.0000 0.0000 36.9505 0.0000
# 6 0.0000 0.0000 0.0000 0.0000 0.0000 19.3984
#
#
#
# Elastic Compliance Matrix: (Units=1/GPa)
#
#
# Indices 1 2 3 4 5 6 
#
# 1 0.369026 -0.349780 -0.007054 0.000000 0.000000 0.000000
# 2 -0.349780 0.369024 -0.007054 0.000000 0.000000 0.000000
# 3 -0.007054 -0.007054 0.009648 0.000000 0.000000 0.000000
# 4 0.000000 0.000000 0.000000 0.027063 0.000000 0.000000
# 5 0.000000 0.000000 0.000000 0.000000 0.027063 0.000000
# 6 0.000000 0.000000 0.000000 0.000000 0.000000 0.051551
#
#
# Mechanical properties :
#
#
# Convention : Reuss Voigt Hill
#
# Bulk Modulus (GPa) = 50.19946 86.09440 68.14693
# Shear Modulus (GPa) = 3.14903 26.50637 14.82770
#
# Velocity S-wave (km/s) = 1.33089 3.86125 2.88795
# Velocity P-wave (km/s) = 5.53153 8.26470 7.03218
#
# Compressibility (1/GPa) = 0.01992053
#
# Stress axis : x y z
#
# Youngs Moduli (GPa) = 2.70984 2.70985 103.64638
#
# Poissons Ratio (x) = 0.94785 0.73115
# Poissons Ratio (y) = 0.94785 0.73108
# Poissons Ratio (z) = 0.01912 0.01911
#
# Static dielectric constant tensor:
#      x y z
#    x 1.598490 0.000000 0.000000 
#    y 0.000000 1.598490 0.000000 
#    z 0.000000 0.000000 1.601250 
# 
# From -- ./inp_files/5119.got.cif
#   From: 2010.05.17/outbox.cif.g08.bks.cpg/sg115_3_cif.got.tgz:5119.got - 2010.05.20 11:07:42.
