data_PCOD9557023
_publ_section_title
;
Structure prediction by ZEFSAII (Michael W. Deem and Ramdas Pophale) SiO2 
 PCOD9557023
Probable space group: P -4 M 2
;
_chemical_formula_sum "Si O2"
_cell_formula_units_Z 44
_cell_length_a 9.072955
_cell_length_b 9.072955
_cell_length_c 29.174429
_cell_angle_alpha 90.000000
_cell_angle_beta 90.000000
_cell_angle_gamma 90.000000
_cell_volume 2401.595596
_symmetry_space_group_name_H-M "P -4 M 2"
_symmetry_group_IT_number 115
_symmetry_cell_setting 'tetragonal'
loop_
_space_group_symop_operation_xyz
x,y,z
y,-x,-z
-x,-y,z
-y,x,-z
y,x,-z
-y,-x,-z
-x,y,z
x,-y,z
loop_
_atom_site_type_symbol
_atom_site_label
_atom_site_fract_x
_atom_site_fract_y
_atom_site_fract_z
Si Si1 0.324646 0.175148 0.868196
Si Si2 0.674147 0.325854 0.500000
Si Si3 0.675634 0.175572 0.044026
Si Si4 0.177794 0.172972 0.413699
Si Si5 0.177087 0.673642 0.781407
Si Si6 0.169999 0.179261 0.311857
O O1 0.500000 0.200794 0.870158
O O2 0.246063 0.255927 0.910409
O O3 0.258633 0.237888 0.821150
O O4 0.298724 0.000000 0.871191
O O5 0.500000 0.299227 0.497109
O O6 0.738469 0.248842 0.545134
O O7 0.500000 0.200448 0.042912
O O8 0.701275 0.000000 0.043667
O O9 0.750691 0.249310 0.000000
O O10 0.220878 0.225926 0.362564
O O11 0.000000 0.182108 0.415921
O O12 0.217083 0.000000 0.418243
O O13 0.205834 0.500000 0.785845
O O14 0.223010 0.732028 0.731283
O O15 0.000000 0.696134 0.785734
O O16 0.000000 0.225701 0.304942
O O17 0.169356 0.000000 0.313331
#
# Coordination Sequence:
#
# PCOD9557023 Si02
#       6
#     8   4   8   8   8   8
#     4  11  24  40  58  82 112 148 191 233 273 321
#     4  11  24  37  48  70 106 143 178 217 264 320
#     4  11  24  41  62  89 118 148 185 227 273 327
#     4   9  18  34  57  82 104 131 174 223 268 320
#     4  10  20  34  55  84 114 144 181 223 269 324
#     4   8  15  30  53  80 108 137 172 218 269 319
#
# _framework density 18.321155000000001
#
# number of rings (size 3 to 8) (size 9 to 14) (size 15 to 20)
#    0.000    2.091    0.000    4.364    0.000   11.273 
#    0.000    2.727    0.000    1.091    0.000    0.000 
#    0.000    0.000    0.000    0.000    0.000    0.000 
#
# Total GULP energy -245729.810100 kJ/mol
# GULP energy per Si atom -5584.768411 kJ/mol
# Density = 1.827946 g / cm^3
# Si number density = 18.321155 Si / 1000 Ang^3
#
#
#
# Elastic Constant Matrix: (Units=GPa)
#
#
# Indices 1 2 3 4 5 6 
#
# 1 77.7177 74.7236 79.1678 0.0000 0.0000 0.0000
# 2 74.7236 77.7186 79.1681 0.0000 0.0000 0.0000
# 3 79.1678 79.1681 190.7881 0.0000 0.0000 0.0000
# 4 0.0000 0.0000 0.0000 -96.3617 0.0000 0.0000
# 5 0.0000 0.0000 0.0000 0.0000 -96.3355 0.0000
# 6 0.0000 0.0000 0.0000 0.0000 0.0000 26.7165
#
#
#
# Elastic Compliance Matrix: (Units=1/GPa)
#
#
# Indices 1 2 3 4 5 6 
#
# 1 0.172732 -0.161202 -0.004784 0.000000 0.000000 0.000000
# 2 -0.161202 0.172730 -0.004784 0.000000 0.000000 0.000000
# 3 -0.004784 -0.004784 0.009212 0.000000 0.000000 0.000000
# 4 0.000000 0.000000 0.000000 -0.010378 0.000000 0.000000
# 5 0.000000 0.000000 0.000000 0.000000 -0.010380 0.000000
# 6 0.000000 0.000000 0.000000 0.000000 0.000000 0.037430
#
#
# Mechanical properties :
#
#
# Convention : Reuss Voigt Hill
#
# Bulk Modulus (GPa) = 76.14095 90.26036 83.20066
# Shear Modulus (GPa) = 6.97094 -25.65181 -9.34043
#
# Velocity S-wave (km/s) = 1.95272 -3.74588 -2.26036
# Velocity P-wave (km/s) = 6.83618 5.53749 6.22082
#
# Compressibility (1/GPa) = 0.01313354
#
# Stress axis : x y z
#
# Youngs Moduli (GPa) = 5.78931 5.78940 108.55911
#
# Poissons Ratio (x) = 0.93326 0.51936
# Poissons Ratio (y) = 0.93325 0.51930
# Poissons Ratio (z) = 0.02770 0.02769
#
# Static dielectric constant tensor:
#      x y z
#    x 1.610560 0.000000 0.000000 
#    y 0.000000 1.610550 0.000000 
#    z 0.000000 0.000000 1.614380 
# 
# From -- ./inp_files/5773.got.cif
#   From: 2010.05.17/outbox.cif.g08.bks.cpg/sg115_3_cif.got.tgz:5773.got - 2010.05.20 11:07:42.
