data_PCOD9557860
_publ_section_title
;
Structure prediction by ZEFSAII (Michael W. Deem and Ramdas Pophale) SiO2 
 PCOD9557860
Probable space group: P -4 C 2
;
_chemical_formula_sum "Si O2"
_cell_formula_units_Z 38
_cell_length_a 8.392367
_cell_length_b 8.392367
_cell_length_c 22.687394
_cell_angle_alpha 90.000000
_cell_angle_beta 90.000000
_cell_angle_gamma 90.000000
_cell_volume 1597.914538
_symmetry_space_group_name_H-M "P -4 C 2"
_symmetry_group_IT_number 116
_symmetry_cell_setting 'tetragonal'
loop_
_space_group_symop_operation_xyz
x,y,z
y,-x,-z
-x,-y,z
-y,x,-z
y,x,1/2-z
-y,-x,1/2-z
-x,y,1/2+z
x,-y,1/2+z
loop_
_atom_site_type_symbol
_atom_site_label
_atom_site_fract_x
_atom_site_fract_y
_atom_site_fract_z
Si Si1 0.749689 0.932735 0.328707
Si Si2 0.340956 0.686475 0.475488
Si Si3 0.500000 0.000000 0.236833
Si Si4 0.176310 0.296039 0.858899
Si Si5 0.000000 0.000000 0.750000
Si Si6 0.832692 0.903037 0.062931
O O1 0.767297 0.125011 0.332983
O O2 0.919241 0.884953 0.299720
O O3 0.611897 0.903746 0.282610
O O4 0.753266 0.862142 0.393309
O O5 0.524057 0.711739 0.492396
O O6 0.312963 0.660536 0.406092
O O7 0.240381 0.833413 0.503165
O O8 0.409856 0.875067 0.194322
O O9 0.024281 0.283322 0.903262
O O10 0.000000 0.000000 0.060921
#
# Coordination Sequence:
#
# PCOD9557860 Si02
#       6
#     8   8   4   8   2   8
#     4  11  22  38  66  97 137 173 228 289 347 405
#     4  11  27  47  69 100 149 188 230 288 365 433
#     4  12  22  38  64 102 136 182 226 292 348 412
#     4  11  23  41  66 101 137 177 237 293 342 417
#     4  12  16  44  56  90 134 170 212 288 342 392
#     4  10  23  44  70 102 136 184 243 294 347 416
#
# _framework density 23.780998
#
# number of rings (size 3 to 8) (size 9 to 14) (size 15 to 20)
#    0.000    1.053    5.263    1.263    8.842    0.000 
#    0.000    0.000    0.000    0.000    0.000    0.000 
#    0.000    0.000    0.000    0.000    0.000    0.000 
#
# Total GULP energy -211662.322558 kJ/mol
# GULP energy per Si atom -5570.061120 kJ/mol
# Density = 2.372687 g / cm^3
# Si number density = 23.780998 Si / 1000 Ang^3
#
#
#
# Elastic Constant Matrix: (Units=GPa)
#
#
# Indices 1 2 3 4 5 6 
#
# 1 62.9511 8.7797 20.5328 0.0000 0.0000 0.0000
# 2 8.7797 62.9511 20.5328 0.0000 0.0000 0.0000
# 3 20.5328 20.5328 120.6101 0.0000 0.0000 0.0000
# 4 0.0000 0.0000 0.0000 23.9644 0.0000 0.0000
# 5 0.0000 0.0000 0.0000 0.0000 23.9644 0.0000
# 6 0.0000 0.0000 0.0000 0.0000 0.0000 21.8922
#
#
#
# Elastic Compliance Matrix: (Units=1/GPa)
#
#
# Indices 1 2 3 4 5 6 
#
# 1 0.016953 -0.001507 -0.002630 0.000000 0.000000 0.000000
# 2 -0.001507 0.016953 -0.002630 0.000000 0.000000 0.000000
# 3 -0.002630 -0.002630 0.009187 0.000000 0.000000 0.000000
# 4 0.000000 0.000000 0.000000 0.041729 0.000000 0.000000
# 5 0.000000 0.000000 0.000000 0.000000 0.041729 0.000000
# 6 0.000000 0.000000 0.000000 0.000000 0.000000 0.045678
#
#
# Mechanical properties :
#
#
# Convention : Reuss Voigt Hill
#
# Bulk Modulus (GPa) = 33.82841 38.46697 36.14769
# Shear Modulus (GPa) = 25.56054 27.07533 26.31793
#
# Velocity S-wave (km/s) = 3.28202 3.37787 3.33029
# Velocity P-wave (km/s) = 5.34958 5.60571 5.47914
#
# Compressibility (1/GPa) = 0.02956095
#
# Stress axis : x y z
#
# Youngs Moduli (GPa) = 58.98597 58.98597 108.85519
#
# Poissons Ratio (x) = 0.08888 0.28625
# Poissons Ratio (y) = 0.08888 0.28625
# Poissons Ratio (z) = 0.15511 0.15511
#
# Static dielectric constant tensor:
#      x y z
#    x 1.982060 0.000000 0.000000 
#    y 0.000000 1.982060 0.000000 
#    z 0.000000 0.000000 1.972280 
# 
# From -- ./inp_files/4501.got.cif
#   From: 2010.05.17/outbox.cif.g08.bks.cpg/sg116_3_cif.got.tgz:4501.got - 2010.05.20 11:11:43.
