data_PCOD9557554
_publ_section_title
;
Structure prediction by ZEFSAII (Michael W. Deem and Ramdas Pophale) SiO2 
 PCOD9557554
Probable space group: P -4 C 2
;
_chemical_formula_sum "Si O2"
_cell_formula_units_Z 56
_cell_length_a 11.322486
_cell_length_b 11.322486
_cell_length_c 24.107192
_cell_angle_alpha 90.000000
_cell_angle_beta 90.000000
_cell_angle_gamma 90.000000
_cell_volume 3090.510415
_symmetry_space_group_name_H-M "P -4 C 2"
_symmetry_group_IT_number 116
_symmetry_cell_setting 'tetragonal'
loop_
_space_group_symop_operation_xyz
x,y,z
y,-x,-z
-x,-y,z
-y,x,-z
y,x,1/2-z
-y,-x,1/2-z
-x,y,1/2+z
x,-y,1/2+z
loop_
_atom_site_type_symbol
_atom_site_label
_atom_site_fract_x
_atom_site_fract_y
_atom_site_fract_z
Si Si1 0.636225 0.363776 0.750000
Si Si2 0.995932 0.623085 0.424272
Si Si3 0.874666 0.666799 0.310720
Si Si4 0.118431 0.960951 0.189188
Si Si5 0.000000 0.500000 0.224164
Si Si6 0.822767 0.922791 0.994209
Si Si7 0.241650 0.221225 0.609277
Si Si8 0.395486 0.740849 0.297555
O O1 0.654822 0.262245 0.703440
O O2 0.664681 0.489312 0.720983
O O3 0.920303 0.611074 0.367957
O O4 0.934806 0.725589 0.458602
O O5 0.000000 0.500000 0.455636
O O6 0.130816 0.657672 0.410710
O O7 0.924955 0.798747 0.309637
O O8 0.943505 0.600911 0.261926
O O9 0.084223 0.915778 0.250000
O O10 0.178020 0.855966 0.156555
O O11 0.000000 0.000000 0.158623
O O12 0.120033 0.562494 0.199468
O O13 0.771882 0.850275 0.941852
O O14 0.941387 0.860157 0.017048
O O15 0.284093 0.337078 0.642226
O O16 0.298638 0.701363 0.250000
#
# Coordination Sequence:
#
# PCOD9557554 Si02
#       8
#     4   8   8   8   4   8   8   8
#     4  10  23  36  55  84 120 164 199 242 282 350
#     4  10  20  37  61  84 109 157 201 242 290 361
#     4  10  19  33  52  80 110 150 193 229 288 344
#     4  10  19  29  51  84 117 146 177 228 294 368
#     4  10  20  36  56  80 114 148 190 246 282 354
#     4   9  20  38  59  86 115 145 192 247 311 367
#     4  10  21  35  60  84 114 156 189 245 301 357
#     4  11  22  39  57  84 122 160 203 238 300 359
#
# _framework density 18.119985
#
# number of rings (size 3 to 8) (size 9 to 14) (size 15 to 20)
#    0.000    2.000    0.714    4.071    8.000    1.143 
#    1.286    1.429    0.000    0.000    0.000    0.000 
#    0.000    0.000    0.000    0.000    0.000    0.000 
#
# Total GULP energy -311807.282489 kJ/mol
# GULP energy per Si atom -5567.987187 kJ/mol
# Density = 1.807874 g / cm^3
# Si number density = 18.119985 Si / 1000 Ang^3
#
#
#
# Elastic Constant Matrix: (Units=GPa)
#
#
# Indices 1 2 3 4 5 6 
#
# 1 92.1178 27.8276 29.7156 0.0000 0.0000 0.0000
# 2 27.8276 92.1173 29.7155 0.0000 0.0000 0.0000
# 3 29.7156 29.7155 62.4610 0.0000 0.0000 0.0000
# 4 0.0000 0.0000 0.0000 -29.2602 0.0000 0.0000
# 5 0.0000 0.0000 0.0000 0.0000 -29.3578 0.0000
# 6 0.0000 0.0000 0.0000 0.0000 0.0000 12.1510
#
#
#
# Elastic Compliance Matrix: (Units=1/GPa)
#
#
# Indices 1 2 3 4 5 6 
#
# 1 0.013232 -0.002323 -0.005190 0.000000 0.000000 0.000000
# 2 -0.002323 0.013232 -0.005190 0.000000 0.000000 0.000000
# 3 -0.005190 -0.005190 0.020948 0.000000 0.000000 0.000000
# 4 0.000000 0.000000 0.000000 -0.034176 0.000000 0.000000
# 5 0.000000 0.000000 0.000000 0.000000 -0.034063 0.000000
# 6 0.000000 0.000000 0.000000 0.000000 0.000000 0.082298
#
#
# Mechanical properties :
#
#
# Convention : Reuss Voigt Hill
#
# Bulk Modulus (GPa) = 45.44158 46.80149 46.12153
# Shear Modulus (GPa) = 53.07269 1.33577 27.20423
#
# Velocity S-wave (km/s) = 5.41786 0.85952 3.87891
# Velocity P-wave (km/s) = 8.01687 5.18361 6.75055
#
# Compressibility (1/GPa) = 0.02200628
#
# Stress axis : x y z
#
# Youngs Moduli (GPa) = 75.57719 75.57669 47.73737
#
# Poissons Ratio (x) = 0.17556 0.24774
# Poissons Ratio (y) = 0.17557 0.24774
# Poissons Ratio (z) = 0.39222 0.39222
#
# Static dielectric constant tensor:
#      x y z
#    x 1.807730 0.000000 0.000000 
#    y 0.000000 1.807460 0.000000 
#    z 0.000000 0.000000 1.638560 
# 
# From -- ./inp_files/4632.got.cif
#   From: 2010.05.17/outbox.cif.g08.bks.cpg/sg116_3_cif.got.tgz:4632.got - 2010.05.20 11:11:43.
