data_PCOD9557070
_publ_section_title
;
Structure prediction by ZEFSAII (Michael W. Deem and Ramdas Pophale) SiO2 
 PCOD9557070
Probable space group: P -4 M 2
;
_chemical_formula_sum "Si O2"
_cell_formula_units_Z 48
_cell_length_a 8.213678
_cell_length_b 8.213678
_cell_length_c 34.571276
_cell_angle_alpha 90.000000
_cell_angle_beta 90.000000
_cell_angle_gamma 90.000000
_cell_volume 2332.334067
_symmetry_space_group_name_H-M "P -4 M 2"
_symmetry_group_IT_number 115
_symmetry_cell_setting 'tetragonal'
loop_
_space_group_symop_operation_xyz
x,y,z
y,-x,-z
-x,-y,z
-y,x,-z
y,x,-z
-y,-x,-z
-x,y,z
x,-y,z
loop_
_atom_site_type_symbol
_atom_site_label
_atom_site_fract_x
_atom_site_fract_y
_atom_site_fract_z
Si Si1 0.803596 0.813886 0.877952
Si Si2 0.678469 0.195348 0.378220
Si Si3 0.812230 0.695081 0.458243
Si Si4 0.697339 0.000000 0.755236
Si Si5 0.802578 0.000000 0.666614
Si Si6 0.305003 0.677225 0.799134
Si Si7 0.187740 0.691505 0.959700
O O1 0.733854 0.702304 0.844314
O O2 0.744274 0.776478 0.921311
O O3 0.000000 0.794946 0.878469
O O4 0.763712 0.000000 0.868100
O O5 0.500000 0.257167 0.365779
O O6 0.706657 0.235975 0.423164
O O7 0.835595 0.257134 0.354706
O O8 0.677234 0.000000 0.374071
O O9 0.757331 0.757331 0.500000
O O10 0.801858 0.500000 0.457832
O O11 0.000000 0.743731 0.451568
O O12 0.758052 0.164609 0.776280
O O13 0.500000 0.000000 0.757677
O O14 0.748890 0.000000 0.710851
O O15 0.000000 0.000000 0.664693
O O16 0.500000 0.676243 0.794513
O O17 0.241982 0.500000 0.786271
O O18 0.188306 0.500000 0.951747
O O19 0.000000 0.745916 0.964689
O O20 0.274750 0.725251 0.000000
#
# Coordination Sequence:
#
# PCOD9557070 Si02
#       7
#     8   8   8   4   4   8   8
#     4  10  20  35  58  85 112 146 188 236 293 351
#     4  10  21  39  62  87 117 156 202 248 301 365
#     4  11  23  37  56  85 120 159 204 252 305 361
#     4  10  22  40  60  86 120 154 194 242 292 360
#     4  10  22  40  62  88 120 156 198 248 302 362
#     4  10  21  38  60  86 117 153 192 237 292 355
#     4  10  21  36  53  76 107 144 187 233 281 337
#
# _framework density 20.580244
#
# number of rings (size 3 to 8) (size 9 to 14) (size 15 to 20)
#    0.000    1.833    1.667    2.000    0.000    8.000 
#    0.000    0.000    0.000    0.000    0.000    0.000 
#    0.000    0.000    0.000    0.000    0.000    0.000 
#
# Total GULP energy -268117.052576 kJ/mol
# GULP energy per Si atom -5585.771929 kJ/mol
# Density = 2.053340 g / cm^3
# Si number density = 20.580244 Si / 1000 Ang^3
#
#
#
# Elastic Constant Matrix: (Units=GPa)
#
#
# Indices 1 2 3 4 5 6 
#
# 1 68.3118 34.0759 31.2460 0.0000 0.0000 0.0000
# 2 34.0759 68.3123 31.2464 0.0000 0.0000 0.0000
# 3 31.2460 31.2464 116.3006 0.0000 0.0000 0.0000
# 4 0.0000 0.0000 0.0000 -69.9805 0.0000 0.0000
# 5 0.0000 0.0000 0.0000 0.0000 -69.9837 0.0000
# 6 0.0000 0.0000 0.0000 0.0000 0.0000 13.8881
#
#
#
# Elastic Compliance Matrix: (Units=1/GPa)
#
#
# Indices 1 2 3 4 5 6 
#
# 1 0.020446 -0.008763 -0.003139 0.000000 0.000000 0.000000
# 2 -0.008763 0.020446 -0.003139 0.000000 0.000000 0.000000
# 3 -0.003139 -0.003139 0.010285 0.000000 0.000000 0.000000
# 4 0.000000 0.000000 0.000000 -0.014290 0.000000 0.000000
# 5 0.000000 0.000000 0.000000 0.000000 -0.014289 0.000000
# 6 0.000000 0.000000 0.000000 0.000000 0.000000 0.072004
#
#
# Mechanical properties :
#
#
# Convention : Reuss Voigt Hill
#
# Bulk Modulus (GPa) = 47.40441 49.56239 48.48340
# Shear Modulus (GPa) = 37.96085 -14.79148 11.58469
#
# Velocity S-wave (km/s) = 4.29946 -2.68381 2.37513
# Velocity P-wave (km/s) = 6.90877 3.81196 5.57952
#
# Compressibility (1/GPa) = 0.02109508
#
# Stress axis : x y z
#
# Youngs Moduli (GPa) = 48.90999 48.91017 97.22949
#
# Poissons Ratio (x) = 0.42861 0.30517
# Poissons Ratio (y) = 0.42861 0.30518
# Poissons Ratio (z) = 0.15351 0.15352
#
# Static dielectric constant tensor:
#      x y z
#    x 1.749140 0.000000 0.000000 
#    y 0.000000 1.749140 0.000000 
#    z 0.000000 0.000000 1.688330 
# 
# From -- ./inp_files/6179.got.cif
#   From: 2010.05.17/outbox.cif.g08.bks.cpg/sg115_4_cif.got.tgz:6179.got - 2010.05.20 11:07:42.
