data_PCOD9557612
_publ_section_title
;
Structure prediction by ZEFSAII (Michael W. Deem and Ramdas Pophale) SiO2 
 PCOD9557612
Probable space group: P -4 C 2
;
_chemical_formula_sum "Si O2"
_cell_formula_units_Z 56
_cell_length_a 11.543406
_cell_length_b 11.543406
_cell_length_c 20.978576
_cell_angle_alpha 90.000000
_cell_angle_beta 90.000000
_cell_angle_gamma 90.000000
_cell_volume 2795.399911
_symmetry_space_group_name_H-M "P -4 C 2"
_symmetry_group_IT_number 116
_symmetry_cell_setting 'tetragonal'
loop_
_space_group_symop_operation_xyz
x,y,z
y,-x,-z
-x,-y,z
-y,x,-z
y,x,1/2-z
-y,-x,1/2-z
-x,y,1/2+z
x,-y,1/2+z
loop_
_atom_site_type_symbol
_atom_site_label
_atom_site_fract_x
_atom_site_fract_y
_atom_site_fract_z
Si Si1 0.088506 0.391016 0.421779
Si Si2 0.526015 0.817369 0.883753
Si Si3 0.688741 0.450830 0.990942
Si Si4 0.492183 0.320622 0.767244
Si Si5 0.814192 0.982767 0.982640
Si Si6 0.913034 0.608426 0.277448
Si Si7 0.020643 0.686335 0.645542
O O1 0.223798 0.428940 0.432060
O O2 0.049305 0.296543 0.473942
O O3 0.078166 0.344522 0.349083
O O4 0.000000 0.500000 0.427418
O O5 0.566042 0.778329 0.951807
O O6 0.504771 0.704743 0.841932
O O7 0.623279 0.896254 0.851136
O O8 0.409429 0.892351 0.884494
O O9 0.580182 0.364218 0.000375
O O10 0.364136 0.364136 0.750000
O O11 0.579695 0.420306 0.750000
O O12 0.544843 0.208922 0.733460
O O13 0.783329 0.008947 0.908588
O O14 0.904586 0.877466 0.988625
O O15 0.000000 0.500000 0.270611
O O16 0.935782 0.697105 0.218665
#
# Coordination Sequence:
#
# PCOD9557612 Si02
#       7
#     8   8   8   8   8   8   8
#     4  11  25  41  68  98 136 172 223 280 335 394
#     4  10  20  37  63  88 122 178 217 252 325 398
#     4  11  26  39  60 100 139 175 214 273 334 404
#     4  10  22  35  58  90 129 170 211 262 326 388
#     4  11  26  46  69  97 129 170 226 288 341 402
#     4  10  21  42  61  95 130 170 221 267 321 396
#     4  10  19  41  68  89 124 173 228 260 323 410
#
# _framework density 20.032914000000002
#
# number of rings (size 3 to 8) (size 9 to 14) (size 15 to 20)
#    0.000    1.571    4.286    0.857    8.000    2.286 
#    2.571    0.714    0.000    1.714    0.000    0.000 
#    0.000    0.000    0.000    0.000    0.000    0.000 
#
# Total GULP energy -312186.515404 kJ/mol
# GULP energy per Si atom -5574.759204 kJ/mol
# Density = 1.998732 g / cm^3
# Si number density = 20.032914 Si / 1000 Ang^3
#
#
#
# Elastic Constant Matrix: (Units=GPa)
#
#
# Indices 1 2 3 4 5 6 
#
# 1 82.7177 36.4098 43.2900 0.0000 0.0000 0.0000
# 2 36.4098 82.7175 43.2898 0.0000 0.0000 0.0000
# 3 43.2900 43.2898 141.4331 0.0000 0.0000 0.0000
# 4 0.0000 0.0000 0.0000 18.6001 0.0000 0.0000
# 5 0.0000 0.0000 0.0000 0.0000 18.5995 0.0000
# 6 0.0000 0.0000 0.0000 0.0000 0.0000 10.8945
#
#
#
# Elastic Compliance Matrix: (Units=1/GPa)
#
#
# Indices 1 2 3 4 5 6 
#
# 1 0.016195 -0.005399 -0.003304 0.000000 0.000000 0.000000
# 2 -0.005399 0.016195 -0.003304 0.000000 0.000000 0.000000
# 3 -0.003304 -0.003304 0.009093 0.000000 0.000000 0.000000
# 4 0.000000 0.000000 0.000000 0.053763 0.000000 0.000000
# 5 0.000000 0.000000 0.000000 0.000000 0.053765 0.000000
# 6 0.000000 0.000000 0.000000 0.000000 0.000000 0.091789
#
#
# Mechanical properties :
#
#
# Convention : Reuss Voigt Hill
#
# Bulk Modulus (GPa) = 57.24901 61.42748 59.33825
# Shear Modulus (GPa) = 18.47471 21.87741 20.17606
#
# Velocity S-wave (km/s) = 3.04010 3.30824 3.17700
# Velocity P-wave (km/s) = 6.40019 6.73219 6.56829
#
# Compressibility (1/GPa) = 0.01746755
#
# Stress axis : x y z
#
# Youngs Moduli (GPa) = 61.74631 61.74621 109.97078
#
# Poissons Ratio (x) = 0.33339 0.36339
# Poissons Ratio (y) = 0.33339 0.36339
# Poissons Ratio (z) = 0.20404 0.20404
#
# Static dielectric constant tensor:
#      x y z
#    x 1.748880 0.000000 0.000000 
#    y 0.000000 1.748870 0.000000 
#    z 0.000000 0.000000 1.778540 
# 
# From -- ./inp_files/4128.got.cif
#   From: 2010.05.17/outbox.cif.g08.bks.cpg/sg116_3_cif.got.tgz:4128.got - 2010.05.20 11:11:43.
