data_PCOD9557166
_publ_section_title
;
Structure prediction by ZEFSAII (Michael W. Deem and Ramdas Pophale) SiO2 
 PCOD9557166
Probable space group: P -4 M 2
;
_chemical_formula_sum "Si O2"
_cell_formula_units_Z 40
_cell_length_a 8.078400
_cell_length_b 8.078400
_cell_length_c 30.511498
_cell_angle_alpha 90.000000
_cell_angle_beta 90.000000
_cell_angle_gamma 90.000000
_cell_volume 1991.197036
_symmetry_space_group_name_H-M "P -4 M 2"
_symmetry_group_IT_number 115
_symmetry_cell_setting 'tetragonal'
loop_
_space_group_symop_operation_xyz
x,y,z
y,-x,-z
-x,-y,z
-y,x,-z
y,x,-z
-y,-x,-z
-x,y,z
x,-y,z
loop_
_atom_site_type_symbol
_atom_site_label
_atom_site_fract_x
_atom_site_fract_y
_atom_site_fract_z
Si Si1 0.302702 0.684422 0.859998
Si Si2 0.698882 0.310732 0.450111
Si Si3 0.199180 0.188331 0.046486
Si Si4 0.310538 0.803751 0.765409
Si Si5 0.197057 0.000000 0.391829
Si Si6 0.203869 0.000000 0.291444
O O1 0.500000 0.675637 0.856761
O O2 0.231531 0.500000 0.859005
O O3 0.268110 0.760671 0.907283
O O4 0.252304 0.777007 0.815682
O O5 0.741239 0.258762 0.500000
O O6 0.500000 0.319924 0.449202
O O7 0.760900 0.500000 0.441679
O O8 0.751426 0.167187 0.417075
O O9 0.000000 0.185632 0.042106
O O10 0.260398 0.000000 0.049640
O O11 0.261668 0.261668 0.000000
O O12 0.500000 0.736981 0.759753
O O13 0.167137 0.739607 0.733382
O O14 0.321943 0.000000 0.758201
O O15 0.258639 0.000000 0.341801
O O16 0.000000 0.000000 0.390066
O O17 0.000000 0.000000 0.290179
#
# Coordination Sequence:
#
# PCOD9557166 Si02
#       6
#     8   8   8   8   4   4
#     4  10  21  35  51  76 107 135 170 219 274 331
#     4   9  20  39  60  83 117 163 209 250 295 355
#     4   9  19  35  53  74 101 134 173 216 262 319
#     4   9  18  35  58  78 103 145 191 234 281 339
#     4  11  23  35  57  93 127 155 195 251 309 362
#     4   9  20  37  55  83 115 147 189 237 289 348
#
# _framework density 20.088418999999998
#
# number of rings (size 3 to 8) (size 9 to 14) (size 15 to 20)
#    0.000    2.600    0.000    2.100    2.800    3.600 
#    0.000    7.000    0.000    2.400    0.000    0.000 
#    0.000    0.000    0.000    0.000    0.000    0.000 
#
# Total GULP energy -222876.397708 kJ/mol
# GULP energy per Si atom -5571.909943 kJ/mol
# Density = 2.004270 g / cm^3
# Si number density = 20.088419 Si / 1000 Ang^3
#
#
#
# Elastic Constant Matrix: (Units=GPa)
#
#
# Indices 1 2 3 4 5 6 
#
# 1 50.5654 23.9344 60.3040 0.0000 0.0000 0.0000
# 2 23.9344 50.5655 60.3041 0.0000 0.0000 0.0000
# 3 60.3040 60.3041 198.4663 0.0000 0.0000 0.0000
# 4 0.0000 0.0000 0.0000 96.4591 0.0000 0.0000
# 5 0.0000 0.0000 0.0000 0.0000 96.4596 0.0000
# 6 0.0000 0.0000 0.0000 0.0000 0.0000 16.9540
#
#
#
# Elastic Compliance Matrix: (Units=1/GPa)
#
#
# Indices 1 2 3 4 5 6 
#
# 1 0.031984 -0.005566 -0.008027 0.000000 0.000000 0.000000
# 2 -0.005566 0.031984 -0.008027 0.000000 0.000000 0.000000
# 3 -0.008027 -0.008027 0.009917 0.000000 0.000000 0.000000
# 4 0.000000 0.000000 0.000000 0.010367 0.000000 0.000000
# 5 0.000000 0.000000 0.000000 0.000000 0.010367 0.000000
# 6 0.000000 0.000000 0.000000 0.000000 0.000000 0.058983
#
#
# Mechanical properties :
#
#
# Convention : Reuss Voigt Hill
#
# Bulk Modulus (GPa) = 32.63264 65.40917 49.02090
# Shear Modulus (GPa) = 24.14791 52.31152 38.22971
#
# Velocity S-wave (km/s) = 3.47087 5.10854 4.36715
# Velocity P-wave (km/s) = 5.68703 8.21143 7.06293
#
# Compressibility (1/GPa) = 0.03064417
#
# Stress axis : x y z
#
# Youngs Moduli (GPa) = 31.26557 31.26561 100.83986
#
# Poissons Ratio (x) = 0.17403 0.80945
# Poissons Ratio (y) = 0.17403 0.80945
# Poissons Ratio (z) = 0.25097 0.25097
#
# Static dielectric constant tensor:
#      x y z
#    x 1.762470 0.000000 0.000000 
#    y 0.000000 1.762470 0.000000 
#    z 0.000000 0.000000 1.729200 
# 
# From -- ./inp_files/5536.got.cif
#   From: 2010.05.17/outbox.cif.g08.bks.cpg/sg115_3_cif.got.tgz:5536.got - 2010.05.20 11:07:42.
