data_PCOD9557456
_publ_section_title
;
Structure prediction by ZEFSAII (Michael W. Deem and Ramdas Pophale) SiO2 
 PCOD9557456
Probable space group: P -4 M 2
;
_chemical_formula_sum "Si O2"
_cell_formula_units_Z 44
_cell_length_a 9.138660
_cell_length_b 9.138660
_cell_length_c 29.689485
_cell_angle_alpha 90.000000
_cell_angle_beta 90.000000
_cell_angle_gamma 90.000000
_cell_volume 2479.520505
_symmetry_space_group_name_H-M "P -4 M 2"
_symmetry_group_IT_number 115
_symmetry_cell_setting 'tetragonal'
loop_
_space_group_symop_operation_xyz
x,y,z
y,-x,-z
-x,-y,z
-y,x,-z
y,x,-z
-y,-x,-z
-x,y,z
x,-y,z
loop_
_atom_site_type_symbol
_atom_site_label
_atom_site_fract_x
_atom_site_fract_y
_atom_site_fract_z
Si Si1 0.325479 0.674522 0.500000
Si Si2 0.676433 0.674352 0.669744
Si Si3 0.678433 0.830440 0.140414
Si Si4 0.823495 0.671252 0.958464
Si Si5 0.174160 0.825845 0.585347
Si Si6 0.330955 0.321909 0.770030
O O1 0.500000 0.699383 0.500625
O O2 0.252003 0.745167 0.543863
O O3 0.500000 0.693580 0.666722
O O4 0.704007 0.500000 0.664419
O O5 0.757614 0.763030 0.631220
O O6 0.723919 0.720153 0.720312
O O7 0.500000 0.824504 0.140012
O O8 0.723964 0.772493 0.091195
O O9 0.730204 0.750680 0.185380
O O10 0.719858 0.000000 0.143319
O O11 0.784213 0.500000 0.963085
O O12 0.000000 0.680148 0.958340
O O13 0.758901 0.758901 0.000000
O O14 0.000000 0.799306 0.583971
O O15 0.198508 0.000000 0.582134
O O16 0.500000 0.278925 0.773056
O O17 0.325985 0.500000 0.770334
#
# Coordination Sequence:
#
# PCOD9557456 Si02
#       6
#     4   8   8   8   8   8
#     4  11  24  41  62  86 108 133 170 213 254 300
#     4   9  18  33  53  78 106 135 170 209 248 295
#     4   8  14  25  41  63  92 123 155 195 244 295
#     4   9  18  31  46  67  95 125 160 203 248 297
#     4  11  24  39  55  79 110 141 174 211 250 294
#     4   8  14  25  43  69  99 127 157 198 245 292
#
# _framework density 17.745366000000001
#
# number of rings (size 3 to 8) (size 9 to 14) (size 15 to 20)
#    0.000    2.818    0.000    3.818    0.000    7.636 
#    0.000    3.636    0.000    1.091    0.000    0.000 
#    0.000    0.000    0.000    0.000    0.000    0.000 
#
# Total GULP energy -245221.620953 kJ/mol
# GULP energy per Si atom -5573.218658 kJ/mol
# Density = 1.770498 g / cm^3
# Si number density = 17.745366 Si / 1000 Ang^3
#
#
#
# Elastic Constant Matrix: (Units=GPa)
#
#
# Indices 1 2 3 4 5 6 
#
# 1 52.2191 44.9062 71.4368 0.0000 0.0000 0.0000
# 2 44.9062 52.2187 71.4367 0.0000 0.0000 0.0000
# 3 71.4368 71.4367 219.9262 0.0000 0.0000 0.0000
# 4 0.0000 0.0000 0.0000 -177.0865 0.0000 0.0000
# 5 0.0000 0.0000 0.0000 0.0000 -177.1442 0.0000
# 6 0.0000 0.0000 0.0000 0.0000 0.0000 22.7828
#
#
#
# Elastic Compliance Matrix: (Units=1/GPa)
#
#
# Indices 1 2 3 4 5 6 
#
# 1 0.078233 -0.058516 -0.006405 0.000000 0.000000 0.000000
# 2 -0.058516 0.078234 -0.006405 0.000000 0.000000 0.000000
# 3 -0.006405 -0.006405 0.008708 0.000000 0.000000 0.000000
# 4 0.000000 0.000000 0.000000 -0.005647 0.000000 0.000000
# 5 0.000000 0.000000 0.000000 0.000000 -0.005645 0.000000
# 6 0.000000 0.000000 0.000000 0.000000 0.000000 0.043893
#
#
# Mechanical properties :
#
#
# Convention : Reuss Voigt Hill
#
# Bulk Modulus (GPa) = 44.39722 77.76928 61.08325
# Shear Modulus (GPa) = 14.37058 -57.18397 -21.40669
#
# Velocity S-wave (km/s) = 2.84882 -5.68284 -3.47699
# Velocity P-wave (km/s) = 5.99120 0.92772 4.28690
#
# Compressibility (1/GPa) = 0.02252393
#
# Stress axis : x y z
#
# Youngs Moduli (GPa) = 12.78237 12.78222 114.84083
#
# Poissons Ratio (x) = 0.74796 0.73550
# Poissons Ratio (y) = 0.74797 0.73553
# Poissons Ratio (z) = 0.08186 0.08187
#
# Static dielectric constant tensor:
#      x y z
#    x 1.591300 0.000000 0.000000 
#    y 0.000000 1.591300 0.000000 
#    z 0.000000 0.000000 1.620830 
# 
# From -- ./inp_files/5810.got.cif
#   From: 2010.05.17/outbox.cif.g08.bks.cpg/sg115_3_cif.got.tgz:5810.got - 2010.05.20 11:07:42.
