data_PCOD9557328
_publ_section_title
;
Structure prediction by ZEFSAII (Michael W. Deem and Ramdas Pophale) SiO2 
 PCOD9557328
Probable space group: P -4 M 2
;
_chemical_formula_sum "Si O2"
_cell_formula_units_Z 40
_cell_length_a 9.138935
_cell_length_b 9.138935
_cell_length_c 26.127552
_cell_angle_alpha 90.000000
_cell_angle_beta 90.000000
_cell_angle_gamma 90.000000
_cell_volume 2182.176616
_symmetry_space_group_name_H-M "P -4 M 2"
_symmetry_group_IT_number 115
_symmetry_cell_setting 'tetragonal'
loop_
_space_group_symop_operation_xyz
x,y,z
y,-x,-z
-x,-y,z
-y,x,-z
y,x,-z
-y,-x,-z
-x,y,z
x,-y,z
loop_
_atom_site_type_symbol
_atom_site_label
_atom_site_fract_x
_atom_site_fract_y
_atom_site_fract_z
Si Si1 0.326749 0.326179 0.346919
Si Si2 0.826262 0.825959 0.440852
Si Si3 0.673069 0.675076 0.154596
Si Si4 0.674327 0.826995 0.952337
Si Si5 0.826737 0.174487 0.250696
O O1 0.500000 0.298499 0.342848
O O2 0.302600 0.500000 0.343765
O O3 0.265366 0.264263 0.400154
O O4 0.243763 0.246790 0.300731
O O5 0.791038 0.791038 0.500000
O O6 0.000000 0.799846 0.433405
O O7 0.802035 0.000000 0.433549
O O8 0.500000 0.705259 0.153712
O O9 0.692483 0.500000 0.161903
O O10 0.745698 0.714302 0.100336
O O11 0.750065 0.758881 0.200757
O O12 0.500000 0.804917 0.960411
O O13 0.700941 0.000000 0.947387
O O14 0.760486 0.760486 0.000000
O O15 0.000000 0.204876 0.249253
O O16 0.806118 0.000000 0.252384
#
# Coordination Sequence:
#
# PCOD9557328 Si02
#       5
#     8   8   8   8   8
#     4  11  24  39  56  82 115 149 187 231 278 330
#     4   9  19  37  60  85 113 146 186 231 278 330
#     4  10  21  38  61  87 114 146 186 231 279 333
#     4  10  21  37  58  84 114 150 190 231 278 330
#     4  11  24  40  59  84 113 146 186 231 279 333
#
# _framework density 18.33032
#
# number of rings (size 3 to 8) (size 9 to 14) (size 15 to 20)
#    0.000    1.800    0.000    4.200    0.000   12.400 
#    0.000    3.000    0.000    0.000    0.000    0.000 
#    0.000    0.000    0.000    0.000    0.000    0.000 
#
# Total GULP energy -223597.776331 kJ/mol
# GULP energy per Si atom -5589.944408 kJ/mol
# Density = 1.828860 g / cm^3
# Si number density = 18.330320 Si / 1000 Ang^3
#
#
#
# Elastic Constant Matrix: (Units=GPa)
#
#
# Indices 1 2 3 4 5 6 
#
# 1 106.4021 98.6932 104.7229 0.0000 0.0000 0.0000
# 2 98.6932 106.4021 104.7229 0.0000 0.0000 0.0000
# 3 104.7229 104.7229 170.6031 0.0000 0.0000 0.0000
# 4 0.0000 0.0000 0.0000 41.9180 0.0000 0.0000
# 5 0.0000 0.0000 0.0000 0.0000 41.9180 0.0000
# 6 0.0000 0.0000 0.0000 0.0000 0.0000 33.5543
#
#
#
# Elastic Compliance Matrix: (Units=1/GPa)
#
#
# Indices 1 2 3 4 5 6 
#
# 1 0.071394 -0.058327 -0.008021 0.000000 0.000000 0.000000
# 2 -0.058327 0.071394 -0.008021 0.000000 0.000000 0.000000
# 3 -0.008021 -0.008021 0.015709 0.000000 0.000000 0.000000
# 4 0.000000 0.000000 0.000000 0.023856 0.000000 0.000000
# 5 0.000000 0.000000 0.000000 0.000000 0.023856 0.000000
# 6 0.000000 0.000000 0.000000 0.000000 0.000000 0.029802
#
#
# Mechanical properties :
#
#
# Convention : Reuss Voigt Hill
#
# Bulk Modulus (GPa) = 102.47335 111.07613 106.77474
# Shear Modulus (GPa) = 12.88657 28.49593 20.69125
#
# Velocity S-wave (km/s) = 2.65433 3.94709 3.36341
# Velocity P-wave (km/s) = 8.08820 9.02780 8.57089
#
# Compressibility (1/GPa) = 0.00975863
#
# Stress axis : x y z
#
# Youngs Moduli (GPa) = 14.00686 14.00686 63.65873
#
# Poissons Ratio (x) = 0.81697 0.51061
# Poissons Ratio (y) = 0.81697 0.51061
# Poissons Ratio (z) = 0.11235 0.11235
#
# Static dielectric constant tensor:
#      x y z
#    x 1.609150 0.000000 0.000000 
#    y 0.000000 1.609150 0.000000 
#    z 0.000000 0.000000 1.593860 
# 
# From -- ./inp_files/5074.got.cif
#   From: 2010.05.17/outbox.cif.g08.bks.cpg/sg115_3_cif.got.tgz:5074.got - 2010.05.20 11:07:42.
