data_PCOD9557652
_publ_section_title
;
Structure prediction by ZEFSAII (Michael W. Deem and Ramdas Pophale) SiO2 
 PCOD9557652
Probable space group: P -4 C 2
;
_chemical_formula_sum "Si O2"
_cell_formula_units_Z 60
_cell_length_a 11.848248
_cell_length_b 11.848248
_cell_length_c 20.227205
_cell_angle_alpha 90.000000
_cell_angle_beta 90.000000
_cell_angle_gamma 90.000000
_cell_volume 2839.514874
_symmetry_space_group_name_H-M "P -4 C 2"
_symmetry_group_IT_number 116
_symmetry_cell_setting 'tetragonal'
loop_
_space_group_symop_operation_xyz
x,y,z
y,-x,-z
-x,-y,z
-y,x,-z
y,x,1/2-z
-y,-x,1/2-z
-x,y,1/2+z
x,-y,1/2+z
loop_
_atom_site_type_symbol
_atom_site_label
_atom_site_fract_x
_atom_site_fract_y
_atom_site_fract_z
Si Si1 0.601586 0.341351 0.493844
Si Si2 0.599779 0.176969 0.842155
Si Si3 0.180306 0.180306 0.750000
Si Si4 0.846635 0.030679 0.526815
Si Si5 0.805689 0.710330 0.393171
Si Si6 0.351225 0.789180 0.367591
Si Si7 0.262123 0.927763 0.732173
Si Si8 0.990955 0.621230 0.040291
O O1 0.465741 0.352652 0.487376
O O2 0.637248 0.243012 0.545957
O O3 0.652917 0.306732 0.423352
O O4 0.694101 0.272418 0.848496
O O5 0.473263 0.216696 0.832200
O O6 0.642946 0.089208 0.787846
O O7 0.609767 0.117324 0.913394
O O8 0.212543 0.254110 0.686089
O O9 0.050239 0.206998 0.765585
O O10 0.824605 0.134421 0.576578
O O11 0.722267 0.990116 0.510197
O O12 0.915244 0.082536 0.463400
O O13 0.898520 0.680457 0.338201
O O14 0.354892 0.905373 0.409809
O O15 0.162400 0.837601 0.750000
O O16 0.000000 0.500000 0.006461
#
# Coordination Sequence:
#
# PCOD9557652 Si02
#       8
#     8   8   4   8   8   8   8   8
#     4  11  24  44  70  99 134 172 226 295 356 408
#     4  10  20  43  64  87 122 172 220 259 333 403
#     4  12  25  42  64 101 140 180 232 276 346 413
#     4  11  23  36  58  95 132 163 210 279 332 398
#     4  11  22  39  66  94 129 171 220 272 341 409
#     4  11  23  40  70  92 129 177 219 277 337 414
#     4  10  24  41  65  94 133 180 226 284 329 410
#     4  10  20  37  62  85 119 171 212 252 326 399
#
# _framework density 21.130368000000001
#
# number of rings (size 3 to 8) (size 9 to 14) (size 15 to 20)
#    0.000    1.333    5.333    0.200    1.867    1.067 
#    2.400    0.000    2.933    0.000    0.000    0.000 
#    0.000    0.000    0.000    0.000    0.000    0.000 
#
# Total GULP energy -334447.969535 kJ/mol
# GULP energy per Si atom -5574.132826 kJ/mol
# Density = 2.108227 g / cm^3
# Si number density = 21.130368 Si / 1000 Ang^3
#
#
#
# Elastic Constant Matrix: (Units=GPa)
#
#
# Indices 1 2 3 4 5 6 
#
# 1 65.8347 30.9141 35.0399 0.0000 0.0000 0.0000
# 2 30.9141 65.8346 35.0406 0.0000 0.0000 0.0000
# 3 35.0399 35.0406 64.3210 0.0000 0.0000 0.0000
# 4 0.0000 0.0000 0.0000 27.0350 0.0000 0.0000
# 5 0.0000 0.0000 0.0000 0.0000 27.0350 0.0000
# 6 0.0000 0.0000 0.0000 0.0000 0.0000 25.9915
#
#
#
# Elastic Compliance Matrix: (Units=1/GPa)
#
#
# Indices 1 2 3 4 5 6 
#
# 1 0.022855 -0.005782 -0.009301 0.000000 0.000000 0.000000
# 2 -0.005782 0.022855 -0.009301 0.000000 0.000000 0.000000
# 3 -0.009301 -0.009301 0.025681 0.000000 0.000000 0.000000
# 4 0.000000 0.000000 0.000000 0.036989 0.000000 0.000000
# 5 0.000000 0.000000 0.000000 0.000000 0.036989 0.000000
# 6 0.000000 0.000000 0.000000 0.000000 0.000000 0.038474
#
#
# Mechanical properties :
#
#
# Convention : Reuss Voigt Hill
#
# Bulk Modulus (GPa) = 44.20213 44.21993 44.21103
# Shear Modulus (GPa) = 20.82019 22.34535 21.58277
#
# Velocity S-wave (km/s) = 3.14239 3.25545 3.19942
# Velocity P-wave (km/s) = 5.84212 5.92480 5.88360
#
# Compressibility (1/GPa) = 0.02262334
#
# Stress axis : x y z
#
# Youngs Moduli (GPa) = 43.75474 43.75396 38.93935
#
# Poissons Ratio (x) = 0.25296 0.36217
# Poissons Ratio (y) = 0.25297 0.36219
# Poissons Ratio (z) = 0.40695 0.40697
#
# Static dielectric constant tensor:
#      x y z
#    x 1.813750 0.000000 0.000000 
#    y 0.000000 1.813750 0.000000 
#    z 0.000000 0.000000 1.794900 
# 
# From -- ./inp_files/4203.got.cif
#   From: 2010.05.17/outbox.cif.g08.bks.cpg/sg116_3_cif.got.tgz:4203.got - 2010.05.20 11:11:43.
