data_PCOD9557344
_publ_section_title
;
Structure prediction by ZEFSAII (Michael W. Deem and Ramdas Pophale) SiO2 
 PCOD9557344
Probable space group: P -4 M 2
;
_chemical_formula_sum "Si O2"
_cell_formula_units_Z 12
_cell_length_a 11.011143
_cell_length_b 11.011143
_cell_length_c 3.291653
_cell_angle_alpha 90.000000
_cell_angle_beta 90.000000
_cell_angle_gamma 90.000000
_cell_volume 399.097357
_symmetry_space_group_name_H-M "P -4 M 2"
_symmetry_group_IT_number 115
_symmetry_cell_setting 'tetragonal'
loop_
_space_group_symop_operation_xyz
x,y,z
y,-x,-z
-x,-y,z
-y,x,-z
y,x,-z
-y,-x,-z
-x,y,z
x,-y,z
loop_
_atom_site_type_symbol
_atom_site_label
_atom_site_fract_x
_atom_site_fract_y
_atom_site_fract_z
Si Si1 0.346411 0.145870 0.500000
Si Si2 0.500000 0.712472 0.000000
O O1 0.219369 0.219369 0.500000
O O2 0.500000 0.242275 0.500001
O O3 0.381600 0.164599 0.000000
O O4 0.344646 0.000000 0.500000
O O5 0.611660 0.611660 0.000000
#
# Coordination Sequence:
#
# PCOD9557344 Si02
#       2
#     8   4
#     4  11  21  36  60  86 113 145 184 232 280 329
#     4  10  21  38  58  81 110 153 196 220 261 336
#
# _framework density 30.06785
#
# number of rings (size 3 to 8) (size 9 to 14) (size 15 to 20)
#    0.000    1.333    0.000   10.000    0.000    0.667 
#    0.000    0.000    0.000   78.000    0.000    0.000 
#    0.000    0.000    0.000    0.000    0.000    0.000 
#
# Total GULP energy -67024.009996 kJ/mol
# GULP energy per Si atom -5585.334166 kJ/mol
# Density = 2.999941 g / cm^3
# Si number density = 30.067850 Si / 1000 Ang^3
#
#
#
# Elastic Constant Matrix: (Units=GPa)
#
#
# Indices 1 2 3 4 5 6 
#
# 1 357.5169 123.9243 216.4363 0.0000 0.0000 0.0000
# 2 123.9243 357.5169 216.4363 0.0000 0.0000 0.0000
# 3 216.4363 216.4363 432.6752 0.0000 0.0000 0.0000
# 4 0.0000 0.0000 0.0000 115.4155 0.0000 0.0000
# 5 0.0000 0.0000 0.0000 0.0000 115.4155 0.0000
# 6 0.0000 0.0000 0.0000 0.0000 0.0000 6.0651
#
#
#
# Elastic Compliance Matrix: (Units=1/GPa)
#
#
# Indices 1 2 3 4 5 6 
#
# 1 0.004028 -0.000253 -0.001888 0.000000 0.000000 0.000000
# 2 -0.000253 0.004028 -0.001888 0.000000 0.000000 0.000000
# 3 -0.001888 -0.001888 0.004200 0.000000 0.000000 0.000000
# 4 0.000000 0.000000 0.000000 0.008664 0.000000 0.000000
# 5 0.000000 0.000000 0.000000 0.000000 0.008664 0.000000
# 6 0.000000 0.000000 0.000000 0.000000 0.000000 0.164879
#
#
# Mechanical properties :
#
#
# Convention : Reuss Voigt Hill
#
# Bulk Modulus (GPa) = 238.26874 251.25584 244.76229
# Shear Modulus (GPa) = 24.51915 86.77338 55.64627
#
# Velocity S-wave (km/s) = 2.85873 5.37790 4.30663
# Velocity P-wave (km/s) = 9.50327 11.05924 10.31065
#
# Compressibility (1/GPa) = 0.00419694
#
# Stress axis : x y z
#
# Youngs Moduli (GPa) = 248.26596 248.26596 238.07339
#
# Poissons Ratio (x) = 0.06282 0.44956
# Poissons Ratio (y) = 0.06282 0.44956
# Poissons Ratio (z) = 0.46881 0.46881
#
# Static dielectric constant tensor:
#      x y z
#    x 2.245870 0.000000 0.000000 
#    y 0.000000 2.245870 0.000000 
#    z 0.000000 0.000000 2.409000 
# 
# From -- ./inp_files/74.got.cif
#   From: 2010.05.17/outbox.cif.g08.bks.cpg/sg115_1_cif.got.tgz:74.got - 2010.05.20 11:07:42.
