data_PCOD9557480
_publ_section_title
;
Structure prediction by ZEFSAII (Michael W. Deem and Ramdas Pophale) SiO2 
 PCOD9557480
Probable space group: P -4 M 2
;
_chemical_formula_sum "Si O2"
_cell_formula_units_Z 32
_cell_length_a 9.000000
_cell_length_b 9.000000
_cell_length_c 21.000000
_cell_angle_alpha 90.000000
_cell_angle_beta 90.000000
_cell_angle_gamma 90.000000
_cell_volume 1701.000000
_symmetry_space_group_name_H-M "P -4 M 2"
_symmetry_group_IT_number 115
_symmetry_cell_setting 'tetragonal'
loop_
_space_group_symop_operation_xyz
x,y,z
y,-x,-z
-x,-y,z
-y,x,-z
y,x,-z
-y,-x,-z
-x,y,z
x,-y,z
loop_
_atom_site_type_symbol
_atom_site_label
_atom_site_fract_x
_atom_site_fract_y
_atom_site_fract_z
Si Si1 0.321767 0.834779 0.555618
Si Si2 0.332784 0.318540 0.320592
Si Si3 0.681397 0.671207 0.930462
Si Si4 0.831917 0.681508 0.195409
O O1 0.272482 0.727518 0.500000
O O2 0.500000 0.838378 0.558046
O O3 0.268594 0.774581 0.623352
O O4 0.266317 0.000000 0.543114
O O5 0.500000 0.269704 0.332934
O O6 0.332502 0.500000 0.320473
O O7 0.274432 0.270400 0.252212
O O8 0.500000 0.670337 0.931448
O O9 0.727288 0.500000 0.921246
O O10 0.731405 0.771271 0.872424
O O11 0.726658 0.726658 0.000000
O O12 0.830380 0.500000 0.194861
O O13 0.000000 0.728122 0.207189
#
# Coordination Sequence:
#
# PCOD9557480 Si02
#       4
#     8   8   8   8
#     4  10  20  33  49  70  96 126 161 200 241 287
#     4   9  16  26  42  64  91 123 156 191 234 283
#     4   8  13  21  33  50  75 109 147 184 224 274
#     4   9  15  22  34  56  87 118 147 185 234 281
#
# _framework density 18.812463000000001
#
# number of rings (size 3 to 8) (size 9 to 14) (size 15 to 20)
#    0.000    3.000    0.000    3.000    0.000    7.500 
#    0.000    0.000    0.000    0.000    0.000    1.750 
#    0.000   10.500    0.000    0.000    0.000    0.000 
#
# Total GULP energy -178196.651318 kJ/mol
# GULP energy per Si atom -5568.645354 kJ/mol
# Density = 1.876965 g / cm^3
# Si number density = 18.812463 Si / 1000 Ang^3
#
#
#
# Elastic Constant Matrix: (Units=GPa)
#
#
# Indices 1 2 3 4 5 6 
#
# 1 9.8132 15.1968 8.5140 0.0000 0.0000 0.0000
# 2 15.1968 9.8132 8.5140 0.0000 0.0000 0.0000
# 3 8.5140 8.5140 88.8216 0.0000 0.0000 0.0000
# 4 0.0000 0.0000 0.0000 -180.2848 0.0000 0.0000
# 5 0.0000 0.0000 0.0000 0.0000 -180.2848 0.0000
# 6 0.0000 0.0000 0.0000 0.0000 0.0000 2.8061
#
#
#
# Elastic Compliance Matrix: (Units=1/GPa)
#
#
# Indices 1 2 3 4 5 6 
#
# 1 -0.071488 0.114264 -0.004100 0.000000 0.000000 0.000000
# 2 0.114264 -0.071488 -0.004100 0.000000 0.000000 0.000000
# 3 -0.004100 -0.004100 0.012045 0.000000 0.000000 0.000000
# 4 0.000000 0.000000 0.000000 -0.005547 0.000000 0.000000
# 5 0.000000 0.000000 0.000000 0.000000 -0.005547 0.000000
# 6 0.000000 0.000000 0.000000 0.000000 0.000000 0.356370
#
#
# Mechanical properties :
#
#
# Convention : Reuss Voigt Hill
#
# Bulk Modulus (GPa) = 12.31606 19.21085 15.76345
# Shear Modulus (GPa) = 170.74397 -66.47113 52.13642
#
# Velocity S-wave (km/s) = 9.53720 -5.95065 5.27010
# Velocity P-wave (km/s) = 11.30657 6.08110 6.74013
#
# Compressibility (1/GPa) = 0.08119480
#
# Stress axis : x y z
#
# Youngs Moduli (GPa) = -13.98836 -13.98836 83.02487
#
# Poissons Ratio (x) = 1.59836 0.34042
# Poissons Ratio (y) = 1.59836 0.34042
# Poissons Ratio (z) = -0.05736 -0.05736
#
# Static dielectric constant tensor:
#      x y z
#    x 1.728450 0.000000 0.000000 
#    y 0.000000 1.728450 0.000000 
#    z 0.000000 0.000000 1.642940 
# 
# From -- ./inp_files/4575.got.cif
#   From: 2010.05.17/outbox.ucp.g08.bks.cvg/sg115_3_cif.got.tgz:4575.got - 2010.06.11 11:33:38.
