data_PCOD9557000
_publ_section_title
;
Structure prediction by ZEFSAII (Michael W. Deem and Ramdas Pophale) SiO2 
 PCOD9557000
Probable space group: P -4 M 2
;
_chemical_formula_sum "Si O2"
_cell_formula_units_Z 48
_cell_length_a 8.995842
_cell_length_b 8.995842
_cell_length_c 31.734835
_cell_angle_alpha 90.000000
_cell_angle_beta 90.000000
_cell_angle_gamma 90.000000
_cell_volume 2568.147022
_symmetry_space_group_name_H-M "P -4 M 2"
_symmetry_group_IT_number 115
_symmetry_cell_setting 'tetragonal'
loop_
_space_group_symop_operation_xyz
x,y,z
y,-x,-z
-x,-y,z
-y,x,-z
y,x,-z
-y,-x,-z
-x,y,z
x,-y,z
loop_
_atom_site_type_symbol
_atom_site_label
_atom_site_fract_x
_atom_site_fract_y
_atom_site_fract_z
Si Si1 0.178522 0.674988 0.867281
Si Si2 0.818998 0.171809 0.953769
Si Si3 0.823651 0.676560 0.213517
Si Si4 0.322977 0.822990 0.458948
Si Si5 0.676928 0.823024 0.623105
Si Si6 0.676869 0.823249 0.295019
O O1 0.207651 0.500000 0.863194
O O2 0.225225 0.733392 0.913350
O O3 0.259270 0.763301 0.830330
O O4 0.000000 0.697784 0.863591
O O5 0.000000 0.171577 0.955383
O O6 0.772082 0.000000 0.948248
O O7 0.771769 0.228232 0.000000
O O8 0.797288 0.500000 0.215719
O O9 0.741245 0.756643 0.251980
O O10 0.000000 0.702791 0.216829
O O11 0.249841 0.750160 0.500000
O O12 0.500000 0.797448 0.459329
O O13 0.252424 0.752000 0.417274
O O14 0.297300 0.000000 0.459176
O O15 0.500000 0.797082 0.622289
O O16 0.745765 0.755097 0.665417
O O17 0.702324 0.000000 0.622021
O O18 0.500000 0.798225 0.297037
O O19 0.703425 0.000000 0.296402
#
# Coordination Sequence:
#
# PCOD9557000 Si02
#       6
#     8   8   8   8   8   8
#     4  10  20  34  54  81 111 144 183 226 275 332
#     4   8  14  27  49  75 103 139 183 228 273 322
#     4  11  24  40  58  82 111 145 187 232 279 333
#     4  11  24  41  62  90 122 157 200 246 292 345
#     4  11  24  41  62  90 122 156 196 239 284 338
#     4  11  24  41  62  89 118 149 188 232 280 337
#
# _framework density 18.690519999999999
#
# number of rings (size 3 to 8) (size 9 to 14) (size 15 to 20)
#    0.000    1.667    0.000    5.000    0.000   14.333 
#    0.000    0.833    0.000    3.000    0.000    0.000 
#    0.000    0.000    0.000    0.000    0.000    0.000 
#
# Total GULP energy -268321.826738 kJ/mol
# GULP energy per Si atom -5590.038057 kJ/mol
# Density = 1.864798 g / cm^3
# Si number density = 18.690520 Si / 1000 Ang^3
#
#
#
# Elastic Constant Matrix: (Units=GPa)
#
#
# Indices 1 2 3 4 5 6 
#
# 1 100.6992 95.3701 80.2786 0.0000 0.0000 0.0000
# 2 95.3701 100.6988 80.2785 0.0000 0.0000 0.0000
# 3 80.2786 80.2785 185.9950 0.0000 0.0000 0.0000
# 4 0.0000 0.0000 0.0000 66.2731 0.0000 0.0000
# 5 0.0000 0.0000 0.0000 0.0000 66.2714 0.0000
# 6 0.0000 0.0000 0.0000 0.0000 0.0000 29.3522
#
#
#
# Elastic Compliance Matrix: (Units=1/GPa)
#
#
# Indices 1 2 3 4 5 6 
#
# 1 0.097773 -0.089885 -0.003405 0.000000 0.000000 0.000000
# 2 -0.089885 0.097773 -0.003405 0.000000 0.000000 0.000000
# 3 -0.003405 -0.003405 0.008316 0.000000 0.000000 0.000000
# 4 0.000000 0.000000 0.000000 0.015089 0.000000 0.000000
# 5 0.000000 0.000000 0.000000 0.000000 0.015089 0.000000
# 6 0.000000 0.000000 0.000000 0.000000 0.000000 0.034069
#
#
# Mechanical properties :
#
#
# Convention : Reuss Voigt Hill
#
# Bulk Modulus (GPa) = 95.48116 99.91640 97.69878
# Shear Modulus (GPa) = 10.75296 41.14373 25.94835
#
# Velocity S-wave (km/s) = 2.40118 4.69691 3.73005
# Velocity P-wave (km/s) = 7.67358 9.10983 8.42237
#
# Compressibility (1/GPa) = 0.01047327
#
# Stress axis : x y z
#
# Youngs Moduli (GPa) = 10.22780 10.22776 120.25643
#
# Poissons Ratio (x) = 0.91932 0.40944
# Poissons Ratio (y) = 0.91932 0.40945
# Poissons Ratio (z) = 0.03482 0.03482
#
# Static dielectric constant tensor:
#      x y z
#    x 1.624180 0.000000 0.000000 
#    y 0.000000 1.624180 0.000000 
#    z 0.000000 0.000000 1.616920 
# 
# From -- ./inp_files/5967.got.cif
#   From: 2010.05.17/outbox.cif.g08.bks.cpg/sg115_3_cif.got.tgz:5967.got - 2010.05.20 11:07:42.
