data_PCOD9557501
_publ_section_title
;
Structure prediction by ZEFSAII (Michael W. Deem and Ramdas Pophale) SiO2 
 PCOD9557501
Probable space group: P -4 M 2
;
_chemical_formula_sum "Si O2"
_cell_formula_units_Z 48
_cell_length_a 9.000000
_cell_length_b 9.000000
_cell_length_c 30.000000
_cell_angle_alpha 90.000000
_cell_angle_beta 90.000000
_cell_angle_gamma 90.000000
_cell_volume 2430.000000
_symmetry_space_group_name_H-M "P -4 M 2"
_symmetry_group_IT_number 115
_symmetry_cell_setting 'tetragonal'
loop_
_space_group_symop_operation_xyz
x,y,z
y,-x,-z
-x,-y,z
-y,x,-z
y,x,-z
-y,-x,-z
-x,y,z
x,-y,z
loop_
_atom_site_type_symbol
_atom_site_label
_atom_site_fract_x
_atom_site_fract_y
_atom_site_fract_z
Si Si1 0.164582 0.321834 0.710686
Si Si2 0.174610 0.661587 0.963258
Si Si3 0.333648 0.826047 0.784687
Si Si4 0.834511 0.325989 0.109736
Si Si5 0.169016 0.822082 0.452228
Si Si6 0.678449 0.664416 0.373908
O O1 0.166717 0.500000 0.711049
O O2 0.211624 0.262754 0.758249
O O3 0.280545 0.267678 0.674001
O O4 0.000000 0.272326 0.698027
O O5 0.230151 0.500000 0.977480
O O6 0.242508 0.709381 0.916695
O O7 0.000000 0.657821 0.959548
O O8 0.222271 0.777730 0.000000
O O9 0.500000 0.771294 0.773534
O O10 0.314676 0.816076 0.837509
O O11 0.325736 0.000000 0.772983
O O12 0.830672 0.500000 0.098047
O O13 0.000000 0.269787 0.097901
O O14 0.229904 0.770097 0.500000
O O15 0.268222 0.774067 0.411658
O O16 0.000000 0.768220 0.445606
O O17 0.163418 0.000000 0.455429
O O18 0.500000 0.662894 0.372700
O O19 0.733136 0.500000 0.383942
#
# Coordination Sequence:
#
# PCOD9557501 Si02
#       6
#     8   8   8   8   8   8
#     4  10  21  36  54  77 106 141 180 221 265 313
#     4  11  24  39  56  81 111 142 179 222 266 315
#     4   9  19  36  57  81 109 141 177 218 264 314
#     4   9  19  37  59  82 109 141 178 219 263 314
#     4   9  19  36  56  78 105 137 173 213 259 313
#     4  10  21  36  54  77 105 138 177 219 263 313
#
# _framework density 19.753086
#
# number of rings (size 3 to 8) (size 9 to 14) (size 15 to 20)
#    0.000    2.333    0.000    3.500    0.000    9.000 
#    0.000    7.500    0.000    0.000    0.000    0.000 
#    0.000    0.000    0.000    0.000    0.000    0.000 
#
# Total GULP energy -267540.015729 kJ/mol
# GULP energy per Si atom -5573.750328 kJ/mol
# Density = 1.970813 g / cm^3
# Si number density = 19.753086 Si / 1000 Ang^3
#
#
#
# Elastic Constant Matrix: (Units=GPa)
#
#
# Indices 1 2 3 4 5 6 
#
# 1 13.3267 29.2018 30.7216 0.0000 0.0000 0.0000
# 2 29.2018 13.3248 30.7222 0.0000 0.0000 0.0000
# 3 30.7216 30.7222 28.8410 0.0000 0.0000 0.0000
# 4 0.0000 0.0000 0.0000 25.4352 0.0000 0.0000
# 5 0.0000 0.0000 0.0000 0.0000 25.4349 0.0000
# 6 0.0000 0.0000 0.0000 0.0000 0.0000 24.0771
#
#
#
# Elastic Compliance Matrix: (Units=1/GPa)
#
#
# Indices 1 2 3 4 5 6 
#
# 1 -0.053310 0.009682 0.046472 0.000000 0.000000 0.000000
# 2 0.009682 -0.053301 0.046464 0.000000 0.000000 0.000000
# 3 0.046472 0.046464 -0.064325 0.000000 0.000000 0.000000
# 4 0.000000 0.000000 0.000000 0.039316 0.000000 0.000000
# 5 0.000000 0.000000 0.000000 0.000000 0.039316 0.000000
# 6 0.000000 0.000000 0.000000 0.000000 0.000000 0.041533
#
#
# Mechanical properties :
#
#
# Convention : Reuss Voigt Hill
#
# Bulk Modulus (GPa) = 29.15300 26.30930 27.73115
# Shear Modulus (GPa) = -20.44362 12.64590 -3.89886
#
# Velocity S-wave (km/s) = -3.22057 2.53296 -1.40644
# Velocity P-wave (km/s) = 0.98048 4.68001 3.38111
#
# Compressibility (1/GPa) = 0.03430179
#
# Stress axis : x y z
#
# Youngs Moduli (GPa) = -18.75825 -18.76123 -15.54612
#
# Poissons Ratio (x) = 0.18165 0.72246
# Poissons Ratio (y) = 0.18162 0.72234
# Poissons Ratio (z) = 0.87174 0.87173
#
# Static dielectric constant tensor:
#      x y z
#    x 1.684750 0.000000 0.000000 
#    y 0.000000 1.684750 0.000000 
#    z 0.000000 0.000000 1.673300 
# 
# From -- ./inp_files/5990.got.cif
#   From: 2010.05.17/outbox.ucp.g08.bks.cvg/sg115_3_cif.got.tgz:5990.got - 2010.06.11 11:33:38.
