data_PCOD9557506
_publ_section_title
;
Structure prediction by ZEFSAII (Michael W. Deem and Ramdas Pophale) SiO2 
 PCOD9557506
Probable space group: P -4 M 2
;
_chemical_formula_sum "Si O2"
_cell_formula_units_Z 33
_cell_length_a 12.000000
_cell_length_b 12.000000
_cell_length_c 12.000000
_cell_angle_alpha 90.000000
_cell_angle_beta 90.000000
_cell_angle_gamma 90.000000
_cell_volume 1728.000000
_symmetry_space_group_name_H-M "P -4 M 2"
_symmetry_group_IT_number 115
_symmetry_cell_setting 'tetragonal'
loop_
_space_group_symop_operation_xyz
x,y,z
y,-x,-z
-x,-y,z
-y,x,-z
y,x,-z
-y,-x,-z
-x,y,z
x,-y,z
loop_
_atom_site_type_symbol
_atom_site_label
_atom_site_fract_x
_atom_site_fract_y
_atom_site_fract_z
Si Si1 0.500000 0.500000 0.000000
Si Si2 0.500000 0.869557 0.758976
Si Si3 0.500000 0.766299 0.996916
Si Si4 0.863944 0.271569 0.908559
Si Si5 0.370292 0.629709 0.500000
Si Si6 0.733356 0.770799 0.681187
Si Si7 0.123274 0.123274 0.500000
O O1 0.500000 0.633789 0.963473
O O2 0.612757 0.814696 0.715349
O O3 0.500000 0.000000 0.735073
O O4 0.500000 0.843545 0.889060
O O5 0.611261 0.803349 0.061609
O O6 0.813535 0.243213 0.786974
O O7 0.000000 0.278138 0.910173
O O8 0.817452 0.182549 0.000000
O O9 0.500000 0.645510 0.528763
O O10 0.337486 0.707668 0.395389
O O11 0.789472 0.856956 0.597000
O O12 0.000000 0.135533 0.547635
#
# Coordination Sequence:
#
# PCOD9557506 Si02
#       7
#     1   4   4   8   4   8   4
#     4  12  20  44  68  96 124 166 228 264 324 392
#     4  12  22  40  65  95 134 179 221 268 331 401
#     4  12  24  44  67  98 141 175 219 273 337 404
#     4  12  26  44  67 101 140 181 226 277 336 402
#     4  10  22  42  64  94 134 170 218 282 344 402
#     4  11  23  41  66  97 129 172 223 273 334 400
#     4  10  22  42  66  90 122 166 218 274 326 386
#
# _framework density 19.097221999999999
#
# number of rings (size 3 to 8) (size 9 to 14) (size 15 to 20)
#    0.000    0.727    4.848    2.545    1.697    1.212 
#    2.182    0.000    0.000    0.000    0.000    0.000 
#    0.000    0.000    0.000    0.000    0.000    0.000 
#
# Total GULP energy -183969.639459 kJ/mol
# GULP energy per Si atom -5574.837559 kJ/mol
# Density = 1.905376 g / cm^3
# Si number density = 19.097222 Si / 1000 Ang^3
#
#
#
# Elastic Constant Matrix: (Units=GPa)
#
#
# Indices 1 2 3 4 5 6 
#
# 1 96.9463 12.3199 20.2941 0.0000 0.0000 0.0000
# 2 12.3199 96.9473 20.2944 0.0000 0.0000 0.0000
# 3 20.2941 20.2944 93.7875 0.0000 0.0000 0.0000
# 4 0.0000 0.0000 0.0000 26.0542 0.0000 0.0000
# 5 0.0000 0.0000 0.0000 0.0000 26.0546 0.0000
# 6 0.0000 0.0000 0.0000 0.0000 0.0000 29.9412
#
#
#
# Elastic Compliance Matrix: (Units=1/GPa)
#
#
# Indices 1 2 3 4 5 6 
#
# 1 0.010884 -0.000932 -0.002153 0.000000 0.000000 0.000000
# 2 -0.000932 0.010884 -0.002153 0.000000 0.000000 0.000000
# 3 -0.002153 -0.002153 0.011594 0.000000 0.000000 0.000000
# 4 0.000000 0.000000 0.000000 0.038382 0.000000 0.000000
# 5 0.000000 0.000000 0.000000 0.000000 0.038381 0.000000
# 6 0.000000 0.000000 0.000000 0.000000 0.000000 0.033399
#
#
# Mechanical properties :
#
#
# Convention : Reuss Voigt Hill
#
# Bulk Modulus (GPa) = 43.69808 43.72197 43.71003
# Shear Modulus (GPa) = 30.93473 32.06150 31.49811
#
# Velocity S-wave (km/s) = 4.02911 4.10183 4.06563
# Velocity P-wave (km/s) = 6.67657 6.73628 6.70649
#
# Compressibility (1/GPa) = 0.02288430
#
# Stress axis : x y z
#
# Youngs Moduli (GPa) = 91.87583 91.87667 86.24895
#
# Poissons Ratio (x) = 0.08566 0.18573
# Poissons Ratio (y) = 0.08566 0.18573
# Poissons Ratio (z) = 0.19785 0.19785
#
# Static dielectric constant tensor:
#      x y z
#    x 1.626360 0.000000 0.000000 
#    y 0.000000 1.626360 0.000000 
#    z 0.000000 0.000000 1.673660 
# 
# From -- ./inp_files/2677.got.cif
#   From: 2010.05.17/outbox.ucp.g08.bks.cvg/sg115_2_cif.got.tgz:2677.got - 2010.06.11 11:33:38.
