data_PCOD9557278
_publ_section_title
;
Structure prediction by ZEFSAII (Michael W. Deem and Ramdas Pophale) SiO2 
 PCOD9557278
Probable space group: P -4 M 2
;
_chemical_formula_sum "Si O2"
_cell_formula_units_Z 32
_cell_length_a 9.141979
_cell_length_b 9.141979
_cell_length_c 21.082290
_cell_angle_alpha 90.000000
_cell_angle_beta 90.000000
_cell_angle_gamma 90.000000
_cell_volume 1761.968832
_symmetry_space_group_name_H-M "P -4 M 2"
_symmetry_group_IT_number 115
_symmetry_cell_setting 'tetragonal'
loop_
_space_group_symop_operation_xyz
x,y,z
y,-x,-z
-x,-y,z
-y,x,-z
y,x,-z
-y,-x,-z
-x,y,z
x,-y,z
loop_
_atom_site_type_symbol
_atom_site_label
_atom_site_fract_x
_atom_site_fract_y
_atom_site_fract_z
Si Si1 0.323955 0.171060 0.869320
Si Si2 0.824850 0.826822 0.619221
Si Si3 0.824289 0.671040 0.751034
Si Si4 0.673853 0.326148 0.500000
Si Si5 0.673841 0.326160 0.000000
O O1 0.500000 0.184575 0.864455
O O2 0.250843 0.256156 0.811489
O O3 0.281068 0.240238 0.936936
O O4 0.285924 0.000000 0.866849
O O5 0.783707 0.754277 0.686281
O O6 0.741255 0.750418 0.561805
O O7 0.000000 0.806611 0.610545
O O8 0.795673 0.000000 0.620295
O O9 0.785960 0.500000 0.746358
O O10 0.000000 0.682265 0.757765
O O11 0.500000 0.300468 0.497010
O O12 0.500000 0.303320 0.010091
#
# Coordination Sequence:
#
# PCOD9557278 Si02
#       5
#     8   8   8   4   4
#     4  10  21  36  55  81 112 145 182 225 274 328
#     4  10  21  38  60  84 110 143 183 226 274 327
#     4  10  21  37  58  83 111 145 184 226 273 325
#     4  11  24  39  56  82 114 147 184 225 270 322
#     4   9  18  34  54  75 104 144 186 227 272 323
#
# _framework density 18.161501000000001
#
# number of rings (size 3 to 8) (size 9 to 14) (size 15 to 20)
#    0.000    2.000    0.000    3.000    0.000    9.000 
#    0.000    2.500    0.000    0.000    0.000    0.000 
#    0.000    0.000    0.000    0.000    0.000    0.000 
#
# Total GULP energy -178791.918773 kJ/mol
# GULP energy per Si atom -5587.247462 kJ/mol
# Density = 1.812016 g / cm^3
# Si number density = 18.161501 Si / 1000 Ang^3
#
#
#
# Elastic Constant Matrix: (Units=GPa)
#
#
# Indices 1 2 3 4 5 6 
#
# 1 92.4427 78.6960 103.8773 0.0000 0.0000 0.0000
# 2 78.6960 92.4439 103.8775 0.0000 0.0000 0.0000
# 3 103.8773 103.8775 217.1490 0.0000 0.0000 0.0000
# 4 0.0000 0.0000 0.0000 42.7249 0.0000 0.0000
# 5 0.0000 0.0000 0.0000 0.0000 42.7251 0.0000
# 6 0.0000 0.0000 0.0000 0.0000 0.0000 28.7762
#
#
#
# Elastic Compliance Matrix: (Units=1/GPa)
#
#
# Indices 1 2 3 4 5 6 
#
# 1 0.043339 -0.029403 -0.006667 0.000000 0.000000 0.000000
# 2 -0.029403 0.043338 -0.006666 0.000000 0.000000 0.000000
# 3 -0.006667 -0.006666 0.010983 0.000000 0.000000 0.000000
# 4 0.000000 0.000000 0.000000 0.023406 0.000000 0.000000
# 5 0.000000 0.000000 0.000000 0.000000 0.023405 0.000000
# 6 0.000000 0.000000 0.000000 0.000000 0.000000 0.034751
#
#
# Mechanical properties :
#
#
# Convention : Reuss Voigt Hill
#
# Bulk Modulus (GPa) = 82.04022 108.32637 95.18330
# Shear Modulus (GPa) = 18.60410 30.55090 24.57750
#
# Velocity S-wave (km/s) = 3.20405 4.10589 3.68268
# Velocity P-wave (km/s) = 7.67845 9.06937 8.40274
#
# Compressibility (1/GPa) = 0.01218914
#
# Stress axis : x y z
#
# Youngs Moduli (GPa) = 23.07369 23.07428 91.04694
#
# Poissons Ratio (x) = 0.67845 0.60700
# Poissons Ratio (y) = 0.67843 0.60695
# Poissons Ratio (z) = 0.15383 0.15382
#
# Static dielectric constant tensor:
#      x y z
#    x 1.607430 0.000000 0.000000 
#    y 0.000000 1.607430 0.000000 
#    z 0.000000 0.000000 1.579880 
# 
# From -- ./inp_files/4646.got.cif
#   From: 2010.05.17/outbox.cif.g08.bks.cpg/sg115_3_cif.got.tgz:4646.got - 2010.05.20 11:07:42.
