data_PCOD9557767
_publ_section_title
;
Structure prediction by ZEFSAII (Michael W. Deem and Ramdas Pophale) SiO2 
 PCOD9557767
Probable space group: P -4 C 2
;
_chemical_formula_sum "Si O2"
_cell_formula_units_Z 34
_cell_length_a 8.836640
_cell_length_b 8.836640
_cell_length_c 18.445295
_cell_angle_alpha 90.000000
_cell_angle_beta 90.000000
_cell_angle_gamma 90.000000
_cell_volume 1440.323114
_symmetry_space_group_name_H-M "P -4 C 2"
_symmetry_group_IT_number 116
_symmetry_cell_setting 'tetragonal'
loop_
_space_group_symop_operation_xyz
x,y,z
y,-x,-z
-x,-y,z
-y,x,-z
y,x,1/2-z
-y,-x,1/2-z
-x,y,1/2+z
x,-y,1/2+z
loop_
_atom_site_type_symbol
_atom_site_label
_atom_site_fract_x
_atom_site_fract_y
_atom_site_fract_z
Si Si1 0.664074 0.310802 0.835866
Si Si2 0.000000 0.000000 0.750000
Si Si3 0.617443 0.196746 0.424259
Si Si4 0.956569 0.835703 0.112126
Si Si5 0.824492 0.537814 0.922225
O O1 0.688888 0.311113 0.750000
O O2 0.503114 0.244574 0.862500
O O3 0.701859 0.475814 0.864933
O O4 0.796729 0.218172 0.878164
O O5 0.141636 0.007608 0.803855
O O6 0.684716 0.028621 0.419665
O O7 0.533655 0.217626 0.500220
O O8 0.776829 0.287522 0.424085
O O9 0.000000 0.000000 0.080123
O O10 0.000000 0.500000 0.906037
#
# Coordination Sequence:
#
# PCOD9557767 Si02
#       5
#     8   2   8   8   8
#     4  12  25  45  73 109 144 191 246 305 377 452
#     4   8  20  40  72 102 152 180 230 320 356 424
#     4  12  26  46  73 101 151 196 244 311 380 451
#     4  10  21  45  72 105 147 191 244 305 368 445
#     4  12  27  47  69 103 143 195 246 307 375 449
#
# _framework density 23.605815
#
# number of rings (size 3 to 8) (size 9 to 14) (size 15 to 20)
#    0.706    0.000    3.529    4.235    0.000    5.647 
#    0.000    0.000    0.000    0.000    0.000    0.000 
#    0.000    0.000    0.000    0.000    0.000    0.000 
#
# Total GULP energy -189706.002683 kJ/mol
# GULP energy per Si atom -5579.588314 kJ/mol
# Density = 2.355209 g / cm^3
# Si number density = 23.605815 Si / 1000 Ang^3
#
#
#
# Elastic Constant Matrix: (Units=GPa)
#
#
# Indices 1 2 3 4 5 6 
#
# 1 90.1144 32.3489 14.8221 0.0000 0.0000 0.0000
# 2 32.3489 90.1144 14.8223 0.0000 0.0000 0.0000
# 3 14.8221 14.8223 95.0545 0.0000 0.0000 0.0000
# 4 0.0000 0.0000 0.0000 22.8018 0.0000 0.0000
# 5 0.0000 0.0000 0.0000 0.0000 22.8017 0.0000
# 6 0.0000 0.0000 0.0000 0.0000 0.0000 47.0263
#
#
#
# Elastic Compliance Matrix: (Units=1/GPa)
#
#
# Indices 1 2 3 4 5 6 
#
# 1 0.012899 -0.004413 -0.001323 0.000000 0.000000 0.000000
# 2 -0.004413 0.012899 -0.001323 0.000000 0.000000 0.000000
# 3 -0.001323 -0.001323 0.010933 0.000000 0.000000 0.000000
# 4 0.000000 0.000000 0.000000 0.043856 0.000000 0.000000
# 5 0.000000 0.000000 0.000000 0.000000 0.043856 0.000000
# 6 0.000000 0.000000 0.000000 0.000000 0.000000 0.021265
#
#
# Mechanical properties :
#
#
# Convention : Reuss Voigt Hill
#
# Bulk Modulus (GPa) = 44.22433 44.36332 44.29383
# Shear Modulus (GPa) = 29.87513 32.74530 31.31021
#
# Velocity S-wave (km/s) = 3.56136 3.72851 3.64590
# Velocity P-wave (km/s) = 5.97380 6.11310 6.04385
#
# Compressibility (1/GPa) = 0.02261199
#
# Stress axis : x y z
#
# Youngs Moduli (GPa) = 77.52724 77.52720 91.46650
#
# Poissons Ratio (x) = 0.34210 0.12103
# Poissons Ratio (y) = 0.34210 0.12104
# Poissons Ratio (z) = 0.10259 0.10259
#
# Static dielectric constant tensor:
#      x y z
#    x 2.014780 0.000000 0.000000 
#    y 0.000000 2.014790 0.000000 
#    z 0.000000 0.000000 1.852310 
# 
# From -- ./inp_files/3912.got.cif
#   From: 2010.05.17/outbox.cif.g08.bks.cpg/sg116_2_cif.got.tgz:3912.got - 2010.05.20 11:11:43.
