data_PCOD9557117
_publ_section_title
;
Structure prediction by ZEFSAII (Michael W. Deem and Ramdas Pophale) SiO2 
 PCOD9557117
Probable space group: P -4 M 2
;
_chemical_formula_sum "Si O2"
_cell_formula_units_Z 40
_cell_length_a 8.250669
_cell_length_b 8.250669
_cell_length_c 29.197677
_cell_angle_alpha 90.000000
_cell_angle_beta 90.000000
_cell_angle_gamma 90.000000
_cell_volume 1987.589202
_symmetry_space_group_name_H-M "P -4 M 2"
_symmetry_group_IT_number 115
_symmetry_cell_setting 'tetragonal'
loop_
_space_group_symop_operation_xyz
x,y,z
y,-x,-z
-x,-y,z
-y,x,-z
y,x,-z
-y,-x,-z
-x,y,z
x,-y,z
loop_
_atom_site_type_symbol
_atom_site_label
_atom_site_fract_x
_atom_site_fract_y
_atom_site_fract_z
Si Si1 0.688404 0.807301 0.451015
Si Si2 0.000000 0.806926 0.109004
Si Si3 0.324040 0.807096 0.265139
Si Si4 0.199134 0.000000 0.785729
Si Si5 0.693833 0.684802 0.946430
Si Si6 0.182682 0.308198 0.355442
O O1 0.760656 0.760656 0.500000
O O2 0.500000 0.760227 0.450613
O O3 0.774347 0.725629 0.407933
O O4 0.700787 0.000000 0.445114
O O5 0.834202 0.754881 0.083797
O O6 0.000000 0.748979 0.161528
O O7 0.000000 0.000000 0.109997
O O8 0.500000 0.741093 0.250563
O O9 0.164191 0.743733 0.239385
O O10 0.299307 0.775721 0.319058
O O11 0.326694 0.000000 0.257500
O O12 0.000000 0.000000 0.783982
O O13 0.500000 0.677818 0.941266
O O14 0.755895 0.500000 0.936750
O O15 0.723900 0.723900 0.000000
O O16 0.189349 0.500000 0.347450
O O17 0.000000 0.249012 0.346600
#
# Coordination Sequence:
#
# PCOD9557117 Si02
#       6
#     8   4   8   4   8   8
#     4  11  24  40  58  83 114 149 190 235 290 354
#     4  11  23  35  59  95 127 161 207 261 321 378
#     4  10  20  37  63  87 111 153 203 247 299 362
#     4   9  20  39  57  85 125 159 195 251 307 360
#     4   9  20  39  60  84 120 167 214 259 311 375
#     4  11  23  38  58  86 117 149 190 240 295 356
#
# _framework density 20.124880999999998
#
# number of rings (size 3 to 8) (size 9 to 14) (size 15 to 20)
#    0.000    1.800    1.000    3.300    1.400    9.200 
#    0.000    4.000    0.000    0.000    0.000    0.000 
#    0.000    0.000    0.000    0.000    0.000    0.000 
#
# Total GULP energy -223368.857495 kJ/mol
# GULP energy per Si atom -5584.221437 kJ/mol
# Density = 2.007908 g / cm^3
# Si number density = 20.124881 Si / 1000 Ang^3
#
#
#
# Elastic Constant Matrix: (Units=GPa)
#
#
# Indices 1 2 3 4 5 6 
#
# 1 68.3992 31.2857 41.3524 0.0000 0.0000 0.0000
# 2 31.2857 68.3992 41.3524 0.0000 0.0000 0.0000
# 3 41.3524 41.3524 115.2969 0.0000 0.0000 0.0000
# 4 0.0000 0.0000 0.0000 355.1548 0.0000 0.0000
# 5 0.0000 0.0000 0.0000 0.0000 355.1548 0.0000
# 6 0.0000 0.0000 0.0000 0.0000 0.0000 15.6821
#
#
#
# Elastic Compliance Matrix: (Units=1/GPa)
#
#
# Indices 1 2 3 4 5 6 
#
# 1 0.020613 -0.006332 -0.005122 0.000000 0.000000 0.000000
# 2 -0.006332 0.020613 -0.005122 0.000000 0.000000 0.000000
# 3 -0.005122 -0.005122 0.012347 0.000000 0.000000 0.000000
# 4 0.000000 0.000000 0.000000 0.002816 0.000000 0.000000
# 5 0.000000 0.000000 0.000000 0.000000 0.002816 0.000000
# 6 0.000000 0.000000 0.000000 0.000000 0.000000 0.063767
#
#
# Mechanical properties :
#
#
# Convention : Reuss Voigt Hill
#
# Bulk Modulus (GPa) = 48.96806 53.34181 51.15493
# Shear Modulus (GPa) = 30.68799 154.40534 92.54667
#
# Velocity S-wave (km/s) = 3.90921 8.76870 6.78867
# Velocity P-wave (km/s) = 6.69035 11.36148 9.32319
#
# Compressibility (1/GPa) = 0.02042148
#
# Stress axis : x y z
#
# Youngs Moduli (GPa) = 48.51356 48.51356 80.98848
#
# Poissons Ratio (x) = 0.30717 0.41483
# Poissons Ratio (y) = 0.30717 0.41483
# Poissons Ratio (z) = 0.24849 0.24849
#
# Static dielectric constant tensor:
#      x y z
#    x 1.694150 0.000000 0.000000 
#    y 0.000000 1.694150 0.000000 
#    z 0.000000 0.000000 1.699370 
# 
# From -- ./inp_files/5557.got.cif
#   From: 2010.05.17/outbox.cif.g08.bks.cpg/sg115_3_cif.got.tgz:5557.got - 2010.05.20 11:07:42.
