data_PCOD9557110
_publ_section_title
;
Structure prediction by ZEFSAII (Michael W. Deem and Ramdas Pophale) SiO2 
 PCOD9557110
Probable space group: P -4 M 2
;
_chemical_formula_sum "Si O2"
_cell_formula_units_Z 48
_cell_length_a 9.768559
_cell_length_b 9.768559
_cell_length_c 28.504572
_cell_angle_alpha 90.000000
_cell_angle_beta 90.000000
_cell_angle_gamma 90.000000
_cell_volume 2720.041513
_symmetry_space_group_name_H-M "P -4 M 2"
_symmetry_group_IT_number 115
_symmetry_cell_setting 'tetragonal'
loop_
_space_group_symop_operation_xyz
x,y,z
y,-x,-z
-x,-y,z
-y,x,-z
y,x,-z
-y,-x,-z
-x,y,z
x,-y,z
loop_
_atom_site_type_symbol
_atom_site_label
_atom_site_fract_x
_atom_site_fract_y
_atom_site_fract_z
Si Si1 0.000000 0.834036 0.801784
Si Si2 0.000000 0.344520 0.894782
Si Si3 0.658600 0.287397 0.054562
Si Si4 0.833009 0.157883 0.551839
Si Si5 0.659256 0.217700 0.254850
Si Si6 0.834453 0.341987 0.638557
Si Si7 0.164105 0.500000 0.111028
Si Si8 0.347733 0.500000 0.200483
O O1 0.872739 0.766671 0.774026
O O2 0.000000 0.767740 0.853749
O O3 0.000000 0.000000 0.802110
O O4 0.867270 0.333036 0.927324
O O5 0.000000 0.500000 0.873842
O O6 0.500000 0.332226 0.062035
O O7 0.767881 0.372218 0.084334
O O8 0.692666 0.307335 0.000000
O O9 0.791353 0.208648 0.500000
O O10 0.787517 0.247887 0.595718
O O11 0.000000 0.159264 0.551083
O O12 0.790837 0.000000 0.557586
O O13 0.500000 0.166304 0.251412
O O14 0.695446 0.218129 0.309798
O O15 0.660120 0.366787 0.232466
O O16 0.798709 0.500000 0.629481
O O17 0.000000 0.332763 0.641099
O O18 0.227483 0.500000 0.162823
O O19 0.000000 0.500000 0.110012
O O20 0.500000 0.500000 0.177147
#
# Coordination Sequence:
#
# PCOD9557110 Si02
#       8
#     4   4   8   8   8   8   4   4
#     4  12  24  38  58  88 120 154 190 228 285 346
#     4  10  24  42  62  86 118 152 188 230 287 344
#     4  11  23  41  67  91 114 148 193 237 281 335
#     4   8  14  25  43  68  99 133 176 226 275 327
#     4  10  20  37  60  83 113 151 195 241 284 336
#     4   9  16  28  49  77 104 138 184 232 279 325
#     4  12  26  40  64  90 122 152 190 238 281 334
#     4  10  22  40  62  86 114 152 198 234 287 340
#
# _framework density 17.646788999999998
#
# number of rings (size 3 to 8) (size 9 to 14) (size 15 to 20)
#    0.000    2.000    1.667    3.000    1.167    6.000 
#    0.000    0.000    1.833    0.000    0.000    0.000 
#    0.000    0.000    0.000    0.000    0.000    0.000 
#
# Total GULP energy -267744.607927 kJ/mol
# GULP energy per Si atom -5578.012665 kJ/mol
# Density = 1.760662 g / cm^3
# Si number density = 17.646789 Si / 1000 Ang^3
#
#
#
# Elastic Constant Matrix: (Units=GPa)
#
#
# Indices 1 2 3 4 5 6 
#
# 1 105.0569 59.7211 65.8195 0.0000 0.0000 0.0000
# 2 59.7211 105.0571 65.8190 0.0000 0.0000 0.0000
# 3 65.8195 65.8190 147.4590 0.0000 0.0000 0.0000
# 4 0.0000 0.0000 0.0000 9.4168 0.0000 0.0000
# 5 0.0000 0.0000 0.0000 0.0000 9.4166 0.0000
# 6 0.0000 0.0000 0.0000 0.0000 0.0000 -2.2068
#
#
#
# Elastic Compliance Matrix: (Units=1/GPa)
#
#
# Indices 1 2 3 4 5 6 
#
# 1 0.015745 -0.006313 -0.004210 0.000000 0.000000 0.000000
# 2 -0.006313 0.015745 -0.004210 0.000000 0.000000 0.000000
# 3 -0.004210 -0.004210 0.010540 0.000000 0.000000 0.000000
# 4 0.000000 0.000000 0.000000 0.106193 0.000000 0.000000
# 5 0.000000 0.000000 0.000000 0.000000 0.106195 0.000000
# 6 0.000000 0.000000 0.000000 0.000000 0.000000 -0.453155
#
#
# Mechanical properties :
#
#
# Convention : Reuss Voigt Hill
#
# Bulk Modulus (GPa) = 79.59341 82.25469 80.92405
# Shear Modulus (GPa) = -30.28779 14.40622 -7.94079
#
# Velocity S-wave (km/s) = -4.14736 2.86031 -2.12359
# Velocity P-wave (km/s) = 4.71883 7.59088 6.32016
#
# Compressibility (1/GPa) = 0.01256385
#
# Stress axis : x y z
#
# Youngs Moduli (GPa) = 63.51242 63.51300 94.87710
#
# Poissons Ratio (x) = 0.40094 0.39945
# Poissons Ratio (y) = 0.40094 0.39943
# Poissons Ratio (z) = 0.26740 0.26739
#
# Static dielectric constant tensor:
#      x y z
#    x 1.594670 0.000000 0.000000 
#    y 0.000000 1.594670 0.000000 
#    z 0.000000 0.000000 1.594160 
# 
# From -- ./inp_files/6283.got.cif
#   From: 2010.05.17/outbox.cif.g08.bks.cpg/sg115_4_cif.got.tgz:6283.got - 2010.05.20 11:07:42.
