data_PCOD9557746
_publ_section_title
;
Structure prediction by ZEFSAII (Michael W. Deem and Ramdas Pophale) SiO2 
 PCOD9557746
Probable space group: P -4 C 2
;
_chemical_formula_sum "Si O2"
_cell_formula_units_Z 42
_cell_length_a 14.726986
_cell_length_b 14.726986
_cell_length_c 8.895371
_cell_angle_alpha 90.000000
_cell_angle_beta 90.000000
_cell_angle_gamma 90.000000
_cell_volume 1929.264682
_symmetry_space_group_name_H-M "P -4 C 2"
_symmetry_group_IT_number 116
_symmetry_cell_setting 'tetragonal'
loop_
_space_group_symop_operation_xyz
x,y,z
y,-x,-z
-x,-y,z
-y,x,-z
y,x,1/2-z
-y,-x,1/2-z
-x,y,1/2+z
x,-y,1/2+z
loop_
_atom_site_type_symbol
_atom_site_label
_atom_site_fract_x
_atom_site_fract_y
_atom_site_fract_z
Si Si1 0.541783 0.386657 0.904503
Si Si2 0.580716 0.820258 0.329439
Si Si3 0.928163 0.173074 0.142815
Si Si4 0.000000 0.000000 0.000000
Si Si5 0.064588 0.724365 0.829290
Si Si6 0.568095 0.922318 0.632744
O O1 0.562834 0.437167 0.750000
O O2 0.565780 0.284328 0.864943
O O3 0.439716 0.398548 0.969280
O O4 0.666811 0.849119 0.227792
O O5 0.596324 0.864748 0.490722
O O6 0.490442 0.863981 0.251638
O O7 0.838867 0.161134 0.250000
O O8 0.024502 0.198127 0.221463
O O9 0.919464 0.238115 0.997031
O O10 0.938330 0.070285 0.087763
O O11 0.979600 0.653948 0.812976
O O12 0.500000 0.000000 0.574756
#
# Coordination Sequence:
#
# PCOD9557746 Si02
#       6
#     8   8   8   2   8   8
#     4  11  24  47  74 101 142 195 244 311 389 462
#     4  11  23  43  72 108 141 186 250 303 377 460
#     4  12  25  44  68  99 139 198 243 297 365 431
#     4  12  26  44  70  88 138 200 246 284 366 436
#     4  11  24  44  69 103 147 189 246 309 371 437
#     4  10  21  40  70 102 145 189 231 305 386 444
#
# _framework density 21.769953000000001
#
# number of rings (size 3 to 8) (size 9 to 14) (size 15 to 20)
#    0.000    0.952    3.810    4.286    2.667    0.000 
#    6.857    0.000    0.000    0.000    0.000    0.000 
#    0.000    0.000    0.000    0.000    0.000    0.000 
#
# Total GULP energy -234362.983345 kJ/mol
# GULP energy per Si atom -5580.071032 kJ/mol
# Density = 2.172040 g / cm^3
# Si number density = 21.769953 Si / 1000 Ang^3
#
#
#
# Elastic Constant Matrix: (Units=GPa)
#
#
# Indices 1 2 3 4 5 6 
#
# 1 107.7683 53.0765 43.5990 0.0000 0.0000 0.0000
# 2 53.0765 107.7669 43.6017 0.0000 0.0000 0.0000
# 3 43.5990 43.6017 97.2960 0.0000 0.0000 0.0000
# 4 0.0000 0.0000 0.0000 37.1512 0.0000 0.0000
# 5 0.0000 0.0000 0.0000 0.0000 37.1513 0.0000
# 6 0.0000 0.0000 0.0000 0.0000 0.0000 23.2390
#
#
#
# Elastic Compliance Matrix: (Units=1/GPa)
#
#
# Indices 1 2 3 4 5 6 
#
# 1 0.013248 -0.005036 -0.003680 0.000000 0.000000 0.000000
# 2 -0.005036 0.013249 -0.003681 0.000000 0.000000 0.000000
# 3 -0.003680 -0.003681 0.013576 0.000000 0.000000 0.000000
# 4 0.000000 0.000000 0.000000 0.026917 0.000000 0.000000
# 5 0.000000 0.000000 0.000000 0.000000 0.026917 0.000000
# 6 0.000000 0.000000 0.000000 0.000000 0.000000 0.043031
#
#
# Mechanical properties :
#
#
# Convention : Reuss Voigt Hill
#
# Bulk Modulus (GPa) = 65.44330 65.93174 65.68752
# Shear Modulus (GPa) = 29.97163 31.01188 30.49175
#
# Velocity S-wave (km/s) = 3.71447 3.77838 3.74657
# Velocity P-wave (km/s) = 6.96584 7.02754 6.99676
#
# Compressibility (1/GPa) = 0.01528040
#
# Stress axis : x y z
#
# Youngs Moduli (GPa) = 75.48227 75.47894 73.65833
#
# Poissons Ratio (x) = 0.38012 0.27104
# Poissons Ratio (y) = 0.38013 0.27110
# Poissons Ratio (z) = 0.27776 0.27780
#
# Static dielectric constant tensor:
#      x y z
#    x 1.707250 0.000000 0.000000 
#    y 0.000000 1.707320 0.000000 
#    z 0.000000 0.000000 1.846830 
# 
# From -- ./inp_files/860.got.cif
#   From: 2010.05.17/outbox.cif.g08.bks.cpg/sg116_1_cif.got.tgz:860.got - 2010.05.20 11:11:43.
