data_PCOD9557783
_publ_section_title
;
Structure prediction by ZEFSAII (Michael W. Deem and Ramdas Pophale) SiO2 
 PCOD9557783
Probable space group: P -4 C 2
;
_chemical_formula_sum "Si O2"
_cell_formula_units_Z 56
_cell_length_a 14.899924
_cell_length_b 14.899924
_cell_length_c 11.832720
_cell_angle_alpha 90.000000
_cell_angle_beta 90.000000
_cell_angle_gamma 90.000000
_cell_volume 2626.955369
_symmetry_space_group_name_H-M "P -4 C 2"
_symmetry_group_IT_number 116
_symmetry_cell_setting 'tetragonal'
loop_
_space_group_symop_operation_xyz
x,y,z
y,-x,-z
-x,-y,z
-y,x,-z
y,x,1/2-z
-y,-x,1/2-z
-x,y,1/2+z
x,-y,1/2+z
loop_
_atom_site_type_symbol
_atom_site_label
_atom_site_fract_x
_atom_site_fract_y
_atom_site_fract_z
Si Si1 0.751441 0.530601 0.038088
Si Si2 0.322322 0.339357 0.613318
Si Si3 0.919889 0.447415 0.912260
Si Si4 0.815265 0.334758 0.724477
Si Si5 0.690675 0.009549 0.923305
Si Si6 0.225671 0.160896 0.863213
Si Si7 0.122333 0.035712 0.534505
O O1 0.695860 0.589409 0.949002
O O2 0.846544 0.507370 0.977876
O O3 0.704218 0.438496 0.073589
O O4 0.765070 0.589346 0.151117
O O5 0.336792 0.336792 0.750000
O O6 0.238432 0.276576 0.567231
O O7 0.862373 0.380487 0.833409
O O8 0.000000 0.500000 0.845943
O O9 0.978805 0.393609 0.004224
O O10 0.747805 0.252196 0.750000
O O11 0.898877 0.308657 0.644418
O O12 0.711831 0.924440 0.844871
O O13 0.776170 0.013560 0.006209
O O14 0.212258 0.212258 0.750000
O O15 0.126305 0.127307 0.894195
O O16 0.057357 0.072956 0.432445
#
# Coordination Sequence:
#
# PCOD9557783 Si02
#       7
#     8   8   8   8   8   8   8
#     4  12  25  50  73 106 149 191 250 324 388 467
#     4  11  25  45  75 105 141 194 251 315 397 468
#     4  12  27  45  73 106 148 197 253 311 385 470
#     4  12  29  46  74 113 151 195 253 319 394 452
#     4  11  24  42  68 101 145 188 245 305 373 448
#     4  10  22  38  66  97 135 188 244 292 363 446
#     4   9  20  38  60  89 136 186 231 290 356 429
#
# _framework density 21.317453
#
# number of rings (size 3 to 8) (size 9 to 14) (size 15 to 20)
#    0.000    1.000    2.857    2.571    8.000    1.429 
#    0.000    5.714    0.000    0.000    0.000    0.000 
#    0.000    0.000    0.000    0.000    0.000    0.000 
#
# Total GULP energy -312080.433708 kJ/mol
# GULP energy per Si atom -5572.864888 kJ/mol
# Density = 2.126893 g / cm^3
# Si number density = 21.317453 Si / 1000 Ang^3
#
#
#
# Elastic Constant Matrix: (Units=GPa)
#
#
# Indices 1 2 3 4 5 6 
#
# 1 132.1025 44.8856 34.8214 0.0000 0.0000 0.0000
# 2 44.8856 132.1044 34.8207 0.0000 0.0000 0.0000
# 3 34.8214 34.8207 55.1212 0.0000 0.0000 0.0000
# 4 0.0000 0.0000 0.0000 32.0051 0.0000 0.0000
# 5 0.0000 0.0000 0.0000 0.0000 32.0051 0.0000
# 6 0.0000 0.0000 0.0000 0.0000 0.0000 26.4233
#
#
#
# Elastic Compliance Matrix: (Units=1/GPa)
#
#
# Indices 1 2 3 4 5 6 
#
# 1 0.009492 -0.001973 -0.004750 0.000000 0.000000 0.000000
# 2 -0.001973 0.009492 -0.004750 0.000000 0.000000 0.000000
# 3 -0.004750 -0.004750 0.024143 0.000000 0.000000 0.000000
# 4 0.000000 0.000000 0.000000 0.031245 0.000000 0.000000
# 5 0.000000 0.000000 0.000000 0.000000 0.031245 0.000000
# 6 0.000000 0.000000 0.000000 0.000000 0.000000 0.037845
#
#
# Mechanical properties :
#
#
# Convention : Reuss Voigt Hill
#
# Bulk Modulus (GPa) = 49.55036 60.93150 55.24093
# Shear Modulus (GPa) = 28.87893 31.74004 30.30948
#
# Velocity S-wave (km/s) = 3.68463 3.86284 3.77479
# Velocity P-wave (km/s) = 6.43401 6.96709 6.70585
#
# Compressibility (1/GPa) = 0.02018149
#
# Stress axis : x y z
#
# Youngs Moduli (GPa) = 105.34703 105.34969 41.41977
#
# Poissons Ratio (x) = 0.20788 0.19675
# Poissons Ratio (y) = 0.20787 0.19674
# Poissons Ratio (z) = 0.50041 0.50039
#
# Static dielectric constant tensor:
#      x y z
#    x 1.834360 0.000000 0.000000 
#    y 0.000000 1.834360 0.000000 
#    z 0.000000 0.000000 1.785860 
# 
# From -- ./inp_files/1981.got.cif
#   From: 2010.05.17/outbox.cif.g08.bks.cpg/sg116_1_cif.got.tgz:1981.got - 2010.05.20 11:11:43.
