data_PCOD9557476
_publ_section_title
;
Structure prediction by ZEFSAII (Michael W. Deem and Ramdas Pophale) SiO2 
 PCOD9557476
Probable space group: P -4 M 2
;
_chemical_formula_sum "Si O2"
_cell_formula_units_Z 48
_cell_length_a 15.000000
_cell_length_b 15.000000
_cell_length_c 12.000000
_cell_angle_alpha 90.000000
_cell_angle_beta 90.000000
_cell_angle_gamma 90.000000
_cell_volume 2700.000000
_symmetry_space_group_name_H-M "P -4 M 2"
_symmetry_group_IT_number 115
_symmetry_cell_setting 'tetragonal'
loop_
_space_group_symop_operation_xyz
x,y,z
y,-x,-z
-x,-y,z
-y,x,-z
y,x,-z
-y,-x,-z
-x,y,z
x,-y,z
loop_
_atom_site_type_symbol
_atom_site_label
_atom_site_fract_x
_atom_site_fract_y
_atom_site_fract_z
Si Si1 0.608488 0.601627 0.372539
Si Si2 0.260141 0.103391 0.122432
Si Si3 0.607831 0.778504 0.254728
Si Si4 0.229966 0.897206 0.856928
Si Si5 0.601479 0.891235 0.713246
Si Si6 0.101497 0.392229 0.534361
O O1 0.629853 0.629853 0.500000
O O2 0.500000 0.598781 0.370974
O O3 0.640591 0.500000 0.353398
O O4 0.634511 0.676481 0.282800
O O5 0.340168 0.168967 0.158523
O O6 0.169724 0.149090 0.168231
O O7 0.273356 0.000000 0.157601
O O8 0.248587 0.103234 0.989064
O O9 0.500000 0.781694 0.239450
O O10 0.632346 0.834386 0.365658
O O11 0.320914 0.866367 0.797583
O O12 0.211085 0.000000 0.824344
O O13 0.500000 0.861456 0.737982
O O14 0.629342 0.863407 0.588646
O O15 0.598045 0.000000 0.710981
O O16 0.096576 0.500000 0.535049
O O17 0.000000 0.358762 0.548832
#
# Coordination Sequence:
#
# PCOD9557476 Si02
#       6
#     8   8   8   8   8   8
#     4   8  15  29  47  68  99 138 176 210 240 278
#     4  10  21  35  51  72  96 124 162 206 252 304
#     4  10  19  30  48  76 107 135 162 196 245 300
#     4   9  19  36  54  71  94 124 162 208 251 294
#     4   8  14  27  49  75 101 129 161 198 241 290
#     4   8  14  25  42  68 102 133 159 190 232 285
#
# _framework density 17.777778000000001
#
# number of rings (size 3 to 8) (size 9 to 14) (size 15 to 20)
#    0.000    3.167    0.000    2.000    0.000    3.333 
#    0.000    5.833    0.000    1.000    0.000    0.000 
#    0.000    4.000    0.000    0.667    0.000    0.000 
#
# Total GULP energy -267370.586800 kJ/mol
# GULP energy per Si atom -5570.220558 kJ/mol
# Density = 1.773731 g / cm^3
# Si number density = 17.777778 Si / 1000 Ang^3
#
#
#
# Elastic Constant Matrix: (Units=GPa)
#
#
# Indices 1 2 3 4 5 6 
#
# 1 75.4916 24.5376 14.1797 0.0000 0.0000 0.0000
# 2 24.5376 75.4916 14.1797 0.0000 0.0000 0.0000
# 3 14.1797 14.1797 20.7912 0.0000 0.0000 0.0000
# 4 0.0000 0.0000 0.0000 22.6940 0.0000 0.0000
# 5 0.0000 0.0000 0.0000 0.0000 22.6940 0.0000
# 6 0.0000 0.0000 0.0000 0.0000 0.0000 23.5842
#
#
#
# Elastic Compliance Matrix: (Units=1/GPa)
#
#
# Indices 1 2 3 4 5 6 
#
# 1 0.016009 -0.003616 -0.008452 0.000000 0.000000 0.000000
# 2 -0.003616 0.016009 -0.008452 0.000000 0.000000 0.000000
# 3 -0.008452 -0.008452 0.059626 0.000000 0.000000 0.000000
# 4 0.000000 0.000000 0.000000 0.044065 0.000000 0.000000
# 5 0.000000 0.000000 0.000000 0.000000 0.044065 0.000000
# 6 0.000000 0.000000 0.000000 0.000000 0.000000 0.042401
#
#
# Mechanical properties :
#
#
# Convention : Reuss Voigt Hill
#
# Bulk Modulus (GPa) = 19.76140 30.84095 25.30117
# Shear Modulus (GPa) = 17.85171 21.71961 19.78566
#
# Velocity S-wave (km/s) = 3.17228 3.49911 3.33970
# Velocity P-wave (km/s) = 4.95558 5.80610 5.39762
#
# Compressibility (1/GPa) = 0.05060371
#
# Stress axis : x y z
#
# Youngs Moduli (GPa) = 62.46299 62.46299 16.77108
#
# Poissons Ratio (x) = 0.22587 0.14176
# Poissons Ratio (y) = 0.22587 0.14176
# Poissons Ratio (z) = 0.52796 0.52796
#
# Static dielectric constant tensor:
#      x y z
#    x 1.630070 0.000000 0.000000 
#    y 0.000000 1.630070 0.000000 
#    z 0.000000 0.000000 1.617190 
# 
# From -- ./inp_files/2960.got.cif
#   From: 2010.05.17/outbox.ucp.g08.bks.cvg/sg115_2_cif.got.tgz:2960.got - 2010.06.11 11:33:38.
