data_PCOD9557170
_publ_section_title
;
Structure prediction by ZEFSAII (Michael W. Deem and Ramdas Pophale) SiO2 
 PCOD9557170
Probable space group: P -4 M 2
;
_chemical_formula_sum "Si O2"
_cell_formula_units_Z 40
_cell_length_a 9.420493
_cell_length_b 9.420493
_cell_length_c 26.200526
_cell_angle_alpha 90.000000
_cell_angle_beta 90.000000
_cell_angle_gamma 90.000000
_cell_volume 2325.183715
_symmetry_space_group_name_H-M "P -4 M 2"
_symmetry_group_IT_number 115
_symmetry_cell_setting 'tetragonal'
loop_
_space_group_symop_operation_xyz
x,y,z
y,-x,-z
-x,-y,z
-y,x,-z
y,x,-z
-y,-x,-z
-x,y,z
x,-y,z
loop_
_atom_site_type_symbol
_atom_site_label
_atom_site_fract_x
_atom_site_fract_y
_atom_site_fract_z
Si Si1 0.831962 0.832328 0.148390
Si Si2 0.332833 0.830161 0.543956
Si Si3 0.329578 0.832253 0.659781
Si Si4 0.830191 0.667107 0.748463
Si Si5 0.331578 0.168912 0.955466
O O1 0.742348 0.792202 0.198118
O O2 0.795822 0.740748 0.098719
O O3 0.000000 0.813925 0.159087
O O4 0.808279 0.000000 0.137753
O O5 0.246436 0.753564 0.500000
O O6 0.500000 0.797732 0.538710
O O7 0.289251 0.790590 0.601792
O O8 0.316845 0.000000 0.539877
O O9 0.500000 0.816403 0.664106
O O10 0.250515 0.741668 0.702140
O O11 0.297945 0.000000 0.666254
O O12 0.799014 0.500000 0.750433
O O13 0.000000 0.684886 0.741831
O O14 0.500000 0.194149 0.953937
O O15 0.308436 0.000000 0.964205
O O16 0.257312 0.257312 0.000000
#
# Coordination Sequence:
#
# PCOD9557170 Si02
#       5
#     8   8   8   8   8
#     4   9  18  34  55  76 101 137 178 215 252 300
#     4   9  19  35  53  75 103 134 170 212 257 305
#     4   9  19  36  55  74 100 136 175 213 254 303
#     4  10  21  35  52  78 109 137 168 210 259 307
#     4  10  21  36  55  80 108 138 173 213 257 304
#
# _framework density 17.202940999999999
#
# number of rings (size 3 to 8) (size 9 to 14) (size 15 to 20)
#    0.000    2.600    0.000    2.400    0.000    6.400 
#    0.000   10.000    0.000    0.000    0.000    0.000 
#    0.000    0.000    0.000    0.000    0.000    0.000 
#
# Total GULP energy -223185.019822 kJ/mol
# GULP energy per Si atom -5579.625496 kJ/mol
# Density = 1.716379 g / cm^3
# Si number density = 17.202941 Si / 1000 Ang^3
#
#
#
# Elastic Constant Matrix: (Units=GPa)
#
#
# Indices 1 2 3 4 5 6 
#
# 1 65.6909 60.0638 97.9306 0.0000 0.0000 0.0000
# 2 60.0638 65.6870 97.9280 0.0000 0.0000 0.0000
# 3 97.9306 97.9280 199.9854 0.0000 0.0000 0.0000
# 4 0.0000 0.0000 0.0000 -263.1272 0.0000 0.0000
# 5 0.0000 0.0000 0.0000 0.0000 -263.2155 0.0000
# 6 0.0000 0.0000 0.0000 0.0000 0.0000 27.8961
#
#
#
# Elastic Compliance Matrix: (Units=1/GPa)
#
#
# Indices 1 2 3 4 5 6 
#
# 1 0.105635 -0.072133 -0.016407 0.000000 0.000000 0.000000
# 2 -0.072133 0.105644 -0.016409 0.000000 0.000000 0.000000
# 3 -0.016407 -0.016409 0.021070 0.000000 0.000000 0.000000
# 4 0.000000 0.000000 0.000000 -0.003800 0.000000 0.000000
# 5 0.000000 0.000000 0.000000 0.000000 -0.003799 0.000000
# 6 0.000000 0.000000 0.000000 0.000000 0.000000 0.035847
#
#
# Mechanical properties :
#
#
# Convention : Reuss Voigt Hill
#
# Bulk Modulus (GPa) = 44.53834 93.68978 69.11406
# Shear Modulus (GPa) = 10.46074 -94.65993 -42.09960
#
# Velocity S-wave (km/s) = 2.46860 -7.42596 -4.95232
# Velocity P-wave (km/s) = 5.83708 4.35279 2.74997
#
# Compressibility (1/GPa) = 0.02245256
#
# Stress axis : x y z
#
# Youngs Moduli (GPa) = 9.46651 9.46575 47.46156
#
# Poissons Ratio (x) = 0.68279 0.77870
# Poissons Ratio (y) = 0.68284 0.77879
# Poissons Ratio (z) = 0.15532 0.15532
#
# Static dielectric constant tensor:
#      x y z
#    x 1.567560 0.000000 0.000000 
#    y 0.000000 1.567560 0.000000 
#    z 0.000000 0.000000 1.556340 
# 
# From -- ./inp_files/5076.got.cif
#   From: 2010.05.17/outbox.cif.g08.bks.cpg/sg115_3_cif.got.tgz:5076.got - 2010.05.20 11:07:42.
