data_PCOD9557124
_publ_section_title
;
Structure prediction by ZEFSAII (Michael W. Deem and Ramdas Pophale) SiO2 
 PCOD9557124
Probable space group: P -4 M 2
;
_chemical_formula_sum "Si O2"
_cell_formula_units_Z 25
_cell_length_a 11.349928
_cell_length_b 11.349928
_cell_length_c 9.787044
_cell_angle_alpha 90.000000
_cell_angle_beta 90.000000
_cell_angle_gamma 90.000000
_cell_volume 1260.775480
_symmetry_space_group_name_H-M "P -4 M 2"
_symmetry_group_IT_number 115
_symmetry_cell_setting 'tetragonal'
loop_
_space_group_symop_operation_xyz
x,y,z
y,-x,-z
-x,-y,z
-y,x,-z
y,x,-z
-y,-x,-z
-x,y,z
x,-y,z
loop_
_atom_site_type_symbol
_atom_site_label
_atom_site_fract_x
_atom_site_fract_y
_atom_site_fract_z
Si Si1 0.861331 0.742899 0.873778
Si Si2 0.500000 0.241815 0.591833
Si Si3 0.253626 0.862689 0.631412
Si Si4 0.500000 0.859350 0.283458
Si Si5 0.500000 0.500000 0.500000
O O1 0.833527 0.837095 0.755633
O O2 0.833053 0.616699 0.804571
O O3 0.000000 0.743427 0.911162
O O4 0.779955 0.779955 0.000000
O O5 0.617181 0.189797 0.658975
O O6 0.500000 0.203648 0.430741
O O7 0.500000 0.382429 0.590440
O O8 0.203910 0.796091 0.500000
O O9 0.264005 0.000000 0.601929
O O10 0.500000 0.000000 0.311465
#
# Coordination Sequence:
#
# PCOD9557124 Si02
#       5
#     8   4   8   4   1
#     4  11  24  42  64  92 131 176 220 271 334 401
#     4  12  22  41  65  98 129 165 221 281 336 389
#     4  12  24  39  64  95 129 170 218 272 329 391
#     4  10  20  41  66  89 126 171 215 273 337 393
#     4  12  20  36  64  88 126 164 204 268 330 388
#
# _framework density 19.829065
#
# number of rings (size 3 to 8) (size 9 to 14) (size 15 to 20)
#    0.000    0.640    4.800    3.360    0.000    5.120 
#    0.000    4.800    0.000    0.000    0.000    0.000 
#    0.000    0.000    0.000    0.000    0.000    0.000 
#
# Total GULP energy -139825.903025 kJ/mol
# GULP energy per Si atom -5593.036121 kJ/mol
# Density = 1.978393 g / cm^3
# Si number density = 19.829065 Si / 1000 Ang^3
#
#
#
# Elastic Constant Matrix: (Units=GPa)
#
#
# Indices 1 2 3 4 5 6 
#
# 1 87.1634 31.8957 -8.2827 0.0000 0.0000 0.0000
# 2 31.8957 87.1661 -8.2833 0.0000 0.0000 0.0000
# 3 -8.2827 -8.2833 57.9238 0.0000 0.0000 0.0000
# 4 0.0000 0.0000 0.0000 26.4721 0.0000 0.0000
# 5 0.0000 0.0000 0.0000 0.0000 26.4722 0.0000
# 6 0.0000 0.0000 0.0000 0.0000 0.0000 31.5527
#
#
#
# Elastic Compliance Matrix: (Units=1/GPa)
#
#
# Indices 1 2 3 4 5 6 
#
# 1 0.013332 -0.004762 0.001225 0.000000 0.000000 0.000000
# 2 -0.004762 0.013331 0.001226 0.000000 0.000000 0.000000
# 3 0.001225 0.001226 0.017615 0.000000 0.000000 0.000000
# 4 0.000000 0.000000 0.000000 0.037776 0.000000 0.000000
# 5 0.000000 0.000000 0.000000 0.000000 0.037775 0.000000
# 6 0.000000 0.000000 0.000000 0.000000 0.000000 0.031693
#
#
# Mechanical properties :
#
#
# Convention : Reuss Voigt Hill
#
# Bulk Modulus (GPa) = 25.21718 29.21252 27.21485
# Shear Modulus (GPa) = 29.52257 31.36098 30.44178
#
# Velocity S-wave (km/s) = 3.86275 3.98121 3.92243
# Velocity P-wave (km/s) = 5.71309 5.99145 5.85392
#
# Compressibility (1/GPa) = 0.03965550
#
# Stress axis : x y z
#
# Youngs Moduli (GPa) = 75.00946 75.01167 56.77126
#
# Poissons Ratio (x) = 0.35719 -0.06957
# Poissons Ratio (y) = 0.35718 -0.06957
# Poissons Ratio (z) = -0.09191 -0.09193
#
# Static dielectric constant tensor:
#      x y z
#    x 1.687060 0.000000 0.000000 
#    y 0.000000 1.687060 0.000000 
#    z 0.000000 0.000000 1.677760 
# 
# From -- ./inp_files/1130.got.cif
#   From: 2010.05.17/outbox.cif.g08.bks.cpg/sg115_1_cif.got.tgz:1130.got - 2010.05.20 11:07:42.
