data_PCOD9557221
_publ_section_title
;
Structure prediction by ZEFSAII (Michael W. Deem and Ramdas Pophale) SiO2 
 PCOD9557221
Probable space group: P -4 M 2
;
_chemical_formula_sum "Si O2"
_cell_formula_units_Z 44
_cell_length_a 9.307676
_cell_length_b 9.307676
_cell_length_c 29.356363
_cell_angle_alpha 90.000000
_cell_angle_beta 90.000000
_cell_angle_gamma 90.000000
_cell_volume 2543.224879
_symmetry_space_group_name_H-M "P -4 M 2"
_symmetry_group_IT_number 115
_symmetry_cell_setting 'tetragonal'
loop_
_space_group_symop_operation_xyz
x,y,z
y,-x,-z
-x,-y,z
-y,x,-z
y,x,-z
-y,-x,-z
-x,y,z
x,-y,z
loop_
_atom_site_type_symbol
_atom_site_label
_atom_site_fract_x
_atom_site_fract_y
_atom_site_fract_z
Si Si1 0.828574 0.669984 0.225564
Si Si2 0.171543 0.329714 0.958929
Si Si3 0.665697 0.325271 0.315590
Si Si4 0.670895 0.327052 0.582270
Si Si5 0.169203 0.828237 0.133747
Si Si6 0.170841 0.829160 0.500000
O O1 0.797990 0.500000 0.220676
O O2 0.755991 0.722895 0.272136
O O3 0.781592 0.751326 0.179956
O O4 0.000000 0.687216 0.229563
O O5 0.196736 0.500000 0.958124
O O6 0.213793 0.258336 0.910830
O O7 0.000000 0.305425 0.964805
O O8 0.255405 0.255405 0.000000
O O9 0.500000 0.281703 0.310201
O O10 0.668906 0.500000 0.315857
O O11 0.714930 0.283323 0.366293
O O12 0.500000 0.298137 0.577015
O O13 0.688446 0.500000 0.578242
O O14 0.759259 0.245321 0.544068
O O15 0.000000 0.794367 0.126673
O O16 0.181389 0.000000 0.139364
O O17 0.000000 0.803831 0.498976
#
# Coordination Sequence:
#
# PCOD9557221 Si02
#       6
#     8   8   8   8   8   4
#     4   9  17  29  47  72  99 127 162 201 238 282
#     4  10  21  36  54  76 101 130 166 208 252 299
#     4   8  15  29  49  73  99 125 156 197 243 290
#     4   9  18  34  56  78  98 126 168 211 248 294
#     4   9  18  33  51  70  96 132 169 202 241 291
#     4  11  24  37  48  70 104 135 164 203 252 302
#
# _framework density 17.300867
#
# number of rings (size 3 to 8) (size 9 to 14) (size 15 to 20)
#    0.000    2.818    0.000    2.182    0.000    5.455 
#    0.000    4.545    0.000    3.273    0.000    0.000 
#    0.000    0.000    0.000    0.000    0.000    0.000 
#
# Total GULP energy -245305.329865 kJ/mol
# GULP energy per Si atom -5575.121133 kJ/mol
# Density = 1.726149 g / cm^3
# Si number density = 17.300867 Si / 1000 Ang^3
#
#
#
# Elastic Constant Matrix: (Units=GPa)
#
#
# Indices 1 2 3 4 5 6 
#
# 1 47.7568 47.3649 82.3278 0.0000 0.0000 0.0000
# 2 47.3649 47.7572 82.3278 0.0000 0.0000 0.0000
# 3 82.3278 82.3278 223.2976 0.0000 0.0000 0.0000
# 4 0.0000 0.0000 0.0000 44.0062 0.0000 0.0000
# 5 0.0000 0.0000 0.0000 0.0000 44.0062 0.0000
# 6 0.0000 0.0000 0.0000 0.0000 0.0000 20.4269
#
#
#
# Elastic Compliance Matrix: (Units=1/GPa)
#
#
# Indices 1 2 3 4 5 6 
#
# 1 1.289642 -1.260573 -0.010717 0.000000 0.000000 0.000000
# 2 -1.260573 1.289618 -0.010709 0.000000 0.000000 0.000000
# 3 -0.010717 -0.010709 0.012378 0.000000 0.000000 0.000000
# 4 0.000000 0.000000 0.000000 0.022724 0.000000 0.000000
# 5 0.000000 0.000000 0.000000 0.000000 0.022724 0.000000
# 6 0.000000 0.000000 0.000000 0.000000 0.000000 0.048955
#
#
# Mechanical properties :
#
#
# Convention : Reuss Voigt Hill
#
# Bulk Modulus (GPa) = 36.17957 82.53918 59.35937
# Shear Modulus (GPa) = 0.95071 28.80727 14.87899
#
# Velocity S-wave (km/s) = 0.74210 4.08496 2.93578
# Velocity P-wave (km/s) = 4.65743 8.37024 6.77320
#
# Compressibility (1/GPa) = 0.02763991
#
# Stress axis : x y z
#
# Youngs Moduli (GPa) = 0.77541 0.77542 80.78843
#
# Poissons Ratio (x) = 0.97748 0.86581
# Poissons Ratio (y) = 0.97746 0.86518
# Poissons Ratio (z) = 0.00831 0.00830
#
# Static dielectric constant tensor:
#      x y z
#    x 1.576340 0.000000 0.000000 
#    y 0.000000 1.576340 0.000000 
#    z 0.000000 0.000000 1.579120 
# 
# From -- ./inp_files/5713.got.cif
#   From: 2010.05.17/outbox.cif.g08.bks.cpg/sg115_3_cif.got.tgz:5713.got - 2010.05.20 11:07:42.
