data_PCOD9557310
_publ_section_title
;
Structure prediction by ZEFSAII (Michael W. Deem and Ramdas Pophale) SiO2 
 PCOD9557310
Probable space group: P -4 M 2
;
_chemical_formula_sum "Si O2"
_cell_formula_units_Z 48
_cell_length_a 9.127222
_cell_length_b 9.127222
_cell_length_c 31.993773
_cell_angle_alpha 90.000000
_cell_angle_beta 90.000000
_cell_angle_gamma 90.000000
_cell_volume 2665.279058
_symmetry_space_group_name_H-M "P -4 M 2"
_symmetry_group_IT_number 115
_symmetry_cell_setting 'tetragonal'
loop_
_space_group_symop_operation_xyz
x,y,z
y,-x,-z
-x,-y,z
-y,x,-z
y,x,-z
-y,-x,-z
-x,y,z
x,-y,z
loop_
_atom_site_type_symbol
_atom_site_label
_atom_site_fract_x
_atom_site_fract_y
_atom_site_fract_z
Si Si1 0.174588 0.173933 0.170154
Si Si2 0.825626 0.825372 0.420531
Si Si3 0.674367 0.325634 0.000000
Si Si4 0.325218 0.674783 0.500000
Si Si5 0.324464 0.171679 0.744266
Si Si6 0.325531 0.174268 0.085079
Si Si7 0.326541 0.675600 0.341937
O O1 0.223584 0.251728 0.212703
O O2 0.250329 0.227176 0.127675
O O3 0.000000 0.195915 0.166437
O O4 0.202368 0.000000 0.173873
O O5 0.747373 0.746567 0.459298
O O6 0.758258 0.760477 0.378133
O O7 0.000000 0.798607 0.421993
O O8 0.801670 0.000000 0.422789
O O9 0.749909 0.272831 0.957445
O O10 0.500000 0.300780 0.996642
O O11 0.500000 0.699681 0.499829
O O12 0.500000 0.179621 0.748602
O O13 0.282571 0.263671 0.703487
O O14 0.285073 0.000000 0.737951
O O15 0.500000 0.198555 0.088392
O O16 0.300021 0.000000 0.081711
O O17 0.500000 0.703316 0.344478
O O18 0.303538 0.500000 0.347096
#
# Coordination Sequence:
#
# PCOD9557310 Si02
#       7
#     8   8   4   4   8   8   8
#     4   9  18  32  49  70  97 128 163 204 249 298
#     4  11  24  40  59  85 115 147 185 226 268 317
#     4   9  18  32  48  67  92 122 156 195 240 290
#     4  11  24  41  62  88 116 147 184 225 270 320
#     4   9  18  33  52  74 102 136 172 211 257 307
#     4   9  18  32  48  67  93 124 157 195 242 295
#     4  10  21  37  57  82 111 143 181 223 267 317
#
# _framework density 18.009371999999999
#
# number of rings (size 3 to 8) (size 9 to 14) (size 15 to 20)
#    0.000    2.333    0.000    2.000    0.000    8.667 
#    0.000    1.667    0.000    0.000    0.000    0.000 
#    0.000    0.000    0.000    0.000    0.000    0.000 
#
# Total GULP energy -267921.596217 kJ/mol
# GULP energy per Si atom -5581.699921 kJ/mol
# Density = 1.796838 g / cm^3
# Si number density = 18.009372 Si / 1000 Ang^3
#
#
#
# Elastic Constant Matrix: (Units=GPa)
#
#
# Indices 1 2 3 4 5 6 
#
# 1 63.2527 64.8859 85.3064 0.0000 0.0000 0.0000
# 2 64.8859 63.2526 85.3063 0.0000 0.0000 0.0000
# 3 85.3064 85.3063 219.3606 0.0000 0.0000 0.0000
# 4 0.0000 0.0000 0.0000 40.9797 0.0000 0.0000
# 5 0.0000 0.0000 0.0000 0.0000 40.9797 0.0000
# 6 0.0000 0.0000 0.0000 0.0000 0.0000 22.4590
#
#
#
# Elastic Compliance Matrix: (Units=1/GPa)
#
#
# Indices 1 2 3 4 5 6 
#
# 1 -0.298044 0.314228 -0.006294 0.000000 0.000000 0.000000
# 2 0.314228 -0.298044 -0.006294 0.000000 0.000000 0.000000
# 3 -0.006294 -0.006294 0.009454 0.000000 0.000000 0.000000
# 4 0.000000 0.000000 0.000000 0.024402 0.000000 0.000000
# 5 0.000000 0.000000 0.000000 0.000000 0.024402 0.000000
# 6 0.000000 0.000000 0.000000 0.000000 0.000000 0.044526
#
#
# Mechanical properties :
#
#
# Convention : Reuss Voigt Hill
#
# Bulk Modulus (GPa) = 60.07157 90.76258 75.41707
# Shear Modulus (GPa) = -4.58280 28.24149 11.82934
#
# Velocity S-wave (km/s) = -1.59694 3.96429 2.56568
# Velocity P-wave (km/s) = 5.47977 8.45346 7.12351
#
# Compressibility (1/GPa) = 0.01664681
#
# Stress axis : x y z
#
# Youngs Moduli (GPa) = -3.35521 -3.35521 105.77773
#
# Poissons Ratio (x) = 1.05430 0.66573
# Poissons Ratio (y) = 1.05430 0.66574
# Poissons Ratio (z) = -0.02112 -0.02112
#
# Static dielectric constant tensor:
#      x y z
#    x 1.603830 0.000000 0.000000 
#    y 0.000000 1.603830 0.000000 
#    z 0.000000 0.000000 1.595680 
# 
# From -- ./inp_files/6253.got.cif
#   From: 2010.05.17/outbox.cif.g08.bks.cpg/sg115_4_cif.got.tgz:6253.got - 2010.05.20 11:07:42.
