data_PCOD9557736
_publ_section_title
;
Structure prediction by ZEFSAII (Michael W. Deem and Ramdas Pophale) SiO2 
 PCOD9557736
Probable space group: P -4 C 2
;
_chemical_formula_sum "Si O2"
_cell_formula_units_Z 56
_cell_length_a 11.306476
_cell_length_b 11.306476
_cell_length_c 21.202071
_cell_angle_alpha 90.000000
_cell_angle_beta 90.000000
_cell_angle_gamma 90.000000
_cell_volume 2710.396419
_symmetry_space_group_name_H-M "P -4 C 2"
_symmetry_group_IT_number 116
_symmetry_cell_setting 'tetragonal'
loop_
_space_group_symop_operation_xyz
x,y,z
y,-x,-z
-x,-y,z
-y,x,-z
y,x,1/2-z
-y,-x,1/2-z
-x,y,1/2+z
x,-y,1/2+z
loop_
_atom_site_type_symbol
_atom_site_label
_atom_site_fract_x
_atom_site_fract_y
_atom_site_fract_z
Si Si1 0.338733 0.827404 0.789101
Si Si2 0.187885 0.052114 0.505663
Si Si3 0.551551 0.885172 0.694767
Si Si4 0.271733 0.772785 0.109103
Si Si5 0.339380 0.419760 0.990685
Si Si6 0.930128 0.771678 0.713258
Si Si7 0.109989 0.409011 0.074567
O O1 0.274935 0.725066 0.750000
O O2 0.448558 0.855683 0.743436
O O3 0.392344 0.821611 0.859219
O O4 0.241794 0.932006 0.799924
O O5 0.239510 0.109034 0.569645
O O6 0.287230 0.054369 0.452092
O O7 0.078384 0.135751 0.485688
O O8 0.606345 0.791707 0.647384
O O9 0.665298 0.911737 0.737567
O O10 0.500000 0.000000 0.659218
O O11 0.312363 0.675691 0.058771
O O12 0.160650 0.750350 0.155206
O O13 0.378006 0.549660 0.966308
O O14 0.213224 0.434762 0.024163
O O15 0.888495 0.888495 0.750000
O O16 0.000000 0.500000 0.080659
#
# Coordination Sequence:
#
# PCOD9557736 Si02
#       7
#     8   8   8   8   8   8   8
#     4  11  24  38  61  96 127 163 211 272 320 392
#     4  10  23  41  63  99 132 164 215 274 332 398
#     4   9  20  38  59  89 121 161 209 254 305 385
#     4  10  21  39  68  89 128 174 209 265 330 396
#     4  10  25  43  64  96 130 171 226 281 321 392
#     4   9  19  38  62  90 124 168 210 252 318 388
#     4  11  25  41  70  94 133 182 216 269 342 406
#
# _framework density 20.661185
#
# number of rings (size 3 to 8) (size 9 to 14) (size 15 to 20)
#    0.000    2.000    0.000    2.143   10.000    6.000 
#    0.000    0.000    0.000    3.000    0.000    0.000 
#    0.000    0.000    0.000    0.000    0.000    0.000 
#
# Total GULP energy -311809.608872 kJ/mol
# GULP energy per Si atom -5568.028730 kJ/mol
# Density = 2.061416 g / cm^3
# Si number density = 20.661185 Si / 1000 Ang^3
#
#
#
# Elastic Constant Matrix: (Units=GPa)
#
#
# Indices 1 2 3 4 5 6 
#
# 1 54.6636 19.0869 6.3372 0.0000 0.0000 0.0000
# 2 19.0869 54.6725 6.3355 0.0000 0.0000 0.0000
# 3 6.3372 6.3355 32.4980 0.0000 0.0000 0.0000
# 4 0.0000 0.0000 0.0000 10.7755 0.0000 0.0000
# 5 0.0000 0.0000 0.0000 0.0000 10.7906 0.0000
# 6 0.0000 0.0000 0.0000 0.0000 0.0000 25.4701
#
#
#
# Elastic Compliance Matrix: (Units=1/GPa)
#
#
# Indices 1 2 3 4 5 6 
#
# 1 0.021068 -0.007038 -0.002736 0.000000 0.000000 0.000000
# 2 -0.007038 0.021065 -0.002734 0.000000 0.000000 0.000000
# 3 -0.002736 -0.002734 0.031838 0.000000 0.000000 0.000000
# 4 0.000000 0.000000 0.000000 0.092803 0.000000 0.000000
# 5 0.000000 0.000000 0.000000 0.000000 0.092674 0.000000
# 6 0.000000 0.000000 0.000000 0.000000 0.000000 0.039262
#
#
# Mechanical properties :
#
#
# Convention : Reuss Voigt Hill
#
# Bulk Modulus (GPa) = 20.42746 22.81702 21.62224
# Shear Modulus (GPa) = 14.70396 16.74553 15.72474
#
# Velocity S-wave (km/s) = 2.67061 2.84999 2.76175
# Velocity P-wave (km/s) = 4.40657 4.67945 4.54506
#
# Compressibility (1/GPa) = 0.04895370
#
# Stress axis : x y z
#
# Youngs Moduli (GPa) = 47.46429 47.47279 31.40928
#
# Poissons Ratio (x) = 0.33412 0.08594
# Poissons Ratio (y) = 0.33406 0.08588
# Poissons Ratio (z) = 0.12988 0.12980
#
# Static dielectric constant tensor:
#      x y z
#    x 1.822280 0.000000 0.000000 
#    y 0.000000 1.822290 0.000000 
#    z 0.000000 0.000000 1.827880 
# 
# From -- ./inp_files/4133.got.cif
#   From: 2010.05.17/outbox.cif.g08.bks.cpg/sg116_3_cif.got.tgz:4133.got - 2010.05.20 11:11:43.
