data_PCOD9557656
_publ_section_title
;
Structure prediction by ZEFSAII (Michael W. Deem and Ramdas Pophale) SiO2 
 PCOD9557656
Probable space group: P -4 C 2
;
_chemical_formula_sum "Si O2"
_cell_formula_units_Z 40
_cell_length_a 13.665126
_cell_length_b 13.665126
_cell_length_c 8.810014
_cell_angle_alpha 90.000000
_cell_angle_beta 90.000000
_cell_angle_gamma 90.000000
_cell_volume 1645.143855
_symmetry_space_group_name_H-M "P -4 C 2"
_symmetry_group_IT_number 116
_symmetry_cell_setting 'tetragonal'
loop_
_space_group_symop_operation_xyz
x,y,z
y,-x,-z
-x,-y,z
-y,x,-z
y,x,1/2-z
-y,-x,1/2-z
-x,y,1/2+z
x,-y,1/2+z
loop_
_atom_site_type_symbol
_atom_site_label
_atom_site_fract_x
_atom_site_fract_y
_atom_site_fract_z
Si Si1 0.883257 0.745547 0.711964
Si Si2 0.025018 0.640660 0.502297
Si Si3 0.578363 0.855726 0.205046
Si Si4 0.526889 0.675763 0.330717
Si Si5 0.670437 0.707606 0.992733
O O1 0.857270 0.857270 0.750000
O O2 0.783784 0.710457 0.627941
O O3 0.968857 0.727822 0.591056
O O4 0.912604 0.684076 0.862365
O O5 0.084600 0.592247 0.640243
O O6 0.937646 0.576724 0.425714
O O7 0.497785 0.771006 0.229547
O O8 0.658158 0.780263 0.136939
O O9 0.583013 0.583013 0.250000
O O10 0.611201 0.719356 0.440245
O O11 0.429157 0.658276 0.424717
#
# Coordination Sequence:
#
# PCOD9557656 Si02
#       5
#     8   8   8   8   8
#     4  10  20  37  64  92 122 162 204 250 306 375
#     4   9  19  37  62  93 121 154 201 250 313 375
#     4   9  19  38  58  84 119 153 195 250 310 369
#     4  10  22  40  60  87 124 166 214 263 313 367
#     4  10  22  40  62  86 120 164 212 261 307 364
#
# _framework density 24.313984000000001
#
# number of rings (size 3 to 8) (size 9 to 14) (size 15 to 20)
#    0.000    2.400    0.000    1.200    0.000    8.400 
#    0.000   23.000    0.000    1.800    0.000    0.000 
#    0.000    0.000    0.000    0.000    0.000    0.000 
#
# Total GULP energy -222677.570776 kJ/mol
# GULP energy per Si atom -5566.939269 kJ/mol
# Density = 2.425864 g / cm^3
# Si number density = 24.313984 Si / 1000 Ang^3
#
#
#
# Elastic Constant Matrix: (Units=GPa)
#
#
# Indices 1 2 3 4 5 6 
#
# 1 82.8606 32.2523 40.4892 0.0000 0.0000 0.0000
# 2 32.2523 82.8606 40.4892 0.0000 0.0000 0.0000
# 3 40.4892 40.4892 172.4963 0.0000 0.0000 0.0000
# 4 0.0000 0.0000 0.0000 45.5711 0.0000 0.0000
# 5 0.0000 0.0000 0.0000 0.0000 45.5711 0.0000
# 6 0.0000 0.0000 0.0000 0.0000 0.0000 29.7517
#
#
#
# Elastic Compliance Matrix: (Units=1/GPa)
#
#
# Indices 1 2 3 4 5 6 
#
# 1 0.015082 -0.004677 -0.002442 0.000000 0.000000 0.000000
# 2 -0.004677 0.015082 -0.002442 0.000000 0.000000 0.000000
# 3 -0.002442 -0.002442 0.006944 0.000000 0.000000 0.000000
# 4 0.000000 0.000000 0.000000 0.021944 0.000000 0.000000
# 5 0.000000 0.000000 0.000000 0.000000 0.021944 0.000000
# 6 0.000000 0.000000 0.000000 0.000000 0.000000 0.033612
#
#
# Mechanical properties :
#
#
# Convention : Reuss Voigt Hill
#
# Bulk Modulus (GPa) = 55.60245 62.74209 59.17227
# Shear Modulus (GPa) = 35.78422 39.17792 37.48107
#
# Velocity S-wave (km/s) = 3.84051 4.01850 3.93051
# Velocity P-wave (km/s) = 6.52565 6.88419 6.70732
#
# Compressibility (1/GPa) = 0.01798482
#
# Stress axis : x y z
#
# Youngs Moduli (GPa) = 66.30238 66.30238 144.01343
#
# Poissons Ratio (x) = 0.31011 0.35173
# Poissons Ratio (y) = 0.31011 0.35173
# Poissons Ratio (z) = 0.16194 0.16194
#
# Static dielectric constant tensor:
#      x y z
#    x 1.981640 0.000000 0.000000 
#    y 0.000000 1.981640 0.000000 
#    z 0.000000 0.000000 2.248090 
# 
# From -- ./inp_files/801.got.cif
#   From: 2010.05.17/outbox.cif.g08.bks.cpg/sg116_1_cif.got.tgz:801.got - 2010.05.20 11:11:43.
