data_PCOD9557359
_publ_section_title
;
Structure prediction by ZEFSAII (Michael W. Deem and Ramdas Pophale) SiO2 
 PCOD9557359
Probable space group: P -4 M 2
;
_chemical_formula_sum "Si O2"
_cell_formula_units_Z 56
_cell_length_a 15.620499
_cell_length_b 15.620499
_cell_length_c 11.108750
_cell_angle_alpha 90.000000
_cell_angle_beta 90.000000
_cell_angle_gamma 90.000000
_cell_volume 2710.534878
_symmetry_space_group_name_H-M "P -4 M 2"
_symmetry_group_IT_number 115
_symmetry_cell_setting 'tetragonal'
loop_
_space_group_symop_operation_xyz
x,y,z
y,-x,-z
-x,-y,z
-y,x,-z
y,x,-z
-y,-x,-z
-x,y,z
x,-y,z
loop_
_atom_site_type_symbol
_atom_site_label
_atom_site_fract_x
_atom_site_fract_y
_atom_site_fract_z
Si Si1 0.813764 0.099732 0.117802
Si Si2 0.402635 0.271905 0.241634
Si Si3 0.091799 0.599624 0.664150
Si Si4 0.337820 0.194144 0.017480
Si Si5 0.595207 0.247326 0.774615
Si Si6 0.632508 0.092562 0.616308
Si Si7 0.900825 0.837847 0.366904
O O1 0.714265 0.119114 0.083187
O O2 0.844984 0.137583 0.247511
O O3 0.829175 0.000000 0.125502
O O4 0.864090 0.135911 0.000000
O O5 0.500000 0.294594 0.280792
O O6 0.367372 0.186443 0.306593
O O7 0.405398 0.237911 0.104832
O O8 0.329368 0.344049 0.246801
O O9 0.093179 0.500000 0.703923
O O10 0.087580 0.605074 0.521303
O O11 0.000000 0.637558 0.707150
O O12 0.264678 0.264678 0.000000
O O13 0.374804 0.186441 0.885219
O O14 0.500000 0.279313 0.799169
O O15 0.596152 0.180254 0.667020
O O16 0.735112 0.099463 0.625336
O O17 0.607831 0.000000 0.673029
O O18 0.871125 0.871125 0.500000
O O19 0.000000 0.866028 0.347733
#
# Coordination Sequence:
#
# PCOD9557359 Si02
#       7
#     8   8   8   8   8   8   8
#     4  11  23  39  61  87 123 173 223 273 334 402
#     4  10  21  38  61  89 124 164 205 258 321 394
#     4   9  19  36  59  88 119 155 205 262 318 381
#     4   9  20  38  58  83 115 152 201 255 307 377
#     4  11  23  39  63  93 125 165 211 267 333 399
#     4  10  22  39  60  85 118 160 212 266 324 390
#     4  11  24  39  59  91 129 170 221 280 340 406
#
# _framework density 20.660126999999999
#
# number of rings (size 3 to 8) (size 9 to 14) (size 15 to 20)
#    0.000    1.857    0.000    4.286    4.000    5.143 
#    0.000    0.000    0.000    5.143    0.000    2.000 
#    0.000    0.000    0.000    0.000    0.000    0.000 
#
# Total GULP energy -311826.597040 kJ/mol
# GULP energy per Si atom -5568.332090 kJ/mol
# Density = 2.061310 g / cm^3
# Si number density = 20.660127 Si / 1000 Ang^3
#
#
#
# Elastic Constant Matrix: (Units=GPa)
#
#
# Indices 1 2 3 4 5 6 
#
# 1 118.8804 36.6527 36.7252 0.0000 0.0000 0.0000
# 2 36.6527 118.8804 36.7252 0.0000 0.0000 0.0000
# 3 36.7252 36.7252 89.2657 0.0000 0.0000 0.0000
# 4 0.0000 0.0000 0.0000 24.2971 0.0000 0.0000
# 5 0.0000 0.0000 0.0000 0.0000 24.2971 0.0000
# 6 0.0000 0.0000 0.0000 0.0000 0.0000 -15.2155
#
#
#
# Elastic Compliance Matrix: (Units=1/GPa)
#
#
# Indices 1 2 3 4 5 6 
#
# 1 0.010071 -0.002091 -0.003283 0.000000 0.000000 0.000000
# 2 -0.002091 0.010071 -0.003283 0.000000 0.000000 0.000000
# 3 -0.003283 -0.003283 0.013904 0.000000 0.000000 0.000000
# 4 0.000000 0.000000 0.000000 0.041157 0.000000 0.000000
# 5 0.000000 0.000000 0.000000 0.000000 0.041157 0.000000
# 6 0.000000 0.000000 0.000000 0.000000 0.000000 -0.065722
#
#
# Mechanical properties :
#
#
# Convention : Reuss Voigt Hill
#
# Bulk Modulus (GPa) = 59.76742 60.80364 60.28553
# Shear Modulus (GPa) = 68.00139 21.13731 44.56935
#
# Velocity S-wave (km/s) = 5.74332 3.20206 4.64967
# Velocity P-wave (km/s) = 8.54241 6.57002 7.62030
#
# Compressibility (1/GPa) = 0.01673152
#
# Stress axis : x y z
#
# Youngs Moduli (GPa) = 99.29862 99.29863 71.92219
#
# Poissons Ratio (x) = 0.20760 0.23612
# Poissons Ratio (y) = 0.20760 0.23612
# Poissons Ratio (z) = 0.32600 0.32600
#
# Static dielectric constant tensor:
#      x y z
#    x 1.791610 0.000000 0.000000 
#    y 0.000000 1.791610 0.000000 
#    z 0.000000 0.000000 1.835430 
# 
# From -- ./inp_files/3086.got.cif
#   From: 2010.05.17/outbox.cif.g08.bks.cpg/sg115_2_cif.got.tgz:3086.got - 2010.05.20 11:07:42.
