data_PCOD9557864
_publ_section_title
;
Structure prediction by ZEFSAII (Michael W. Deem and Ramdas Pophale) SiO2 
 PCOD9557864
Probable space group: P -4 C 2
;
_chemical_formula_sum "Si O2"
_cell_formula_units_Z 18
_cell_length_a 5.338482
_cell_length_b 5.338482
_cell_length_c 25.352510
_cell_angle_alpha 90.000000
_cell_angle_beta 90.000000
_cell_angle_gamma 90.000000
_cell_volume 722.531072
_symmetry_space_group_name_H-M "P -4 C 2"
_symmetry_group_IT_number 116
_symmetry_cell_setting 'tetragonal'
loop_
_space_group_symop_operation_xyz
x,y,z
y,-x,-z
-x,-y,z
-y,x,-z
y,x,1/2-z
-y,-x,1/2-z
-x,y,1/2+z
x,-y,1/2+z
loop_
_atom_site_type_symbol
_atom_site_label
_atom_site_fract_x
_atom_site_fract_y
_atom_site_fract_z
Si Si1 0.741022 0.158717 0.576630
Si Si2 0.500000 0.500000 0.500000
Si Si3 0.745262 0.837410 0.307690
O O1 0.716422 0.397757 0.538945
O O2 0.690081 0.230582 0.637840
O O3 0.500000 0.000000 0.560920
O O4 0.000000 0.000000 0.572675
O O5 0.715372 0.715372 0.250000
O O6 0.500000 0.000000 0.315106
O O7 0.000000 0.000000 0.305328
#
# Coordination Sequence:
#
# PCOD9557864 Si02
#       3
#     8   2   8
#     4  11  29  51  78 114 157 207 268 328 401 474
#     4  12  32  48  82 112 164 220 272 342 392 488
#     4  10  23  48  79 114 155 199 254 324 400 478
#
# _framework density 24.912424999999999
#
# number of rings (size 3 to 8) (size 9 to 14) (size 15 to 20)
#    0.000    1.333    0.000    1.333   18.667    0.000 
#    0.000    0.000    0.000    0.000    0.000    0.000 
#    0.000    0.000    0.000    0.000    0.000    0.000 
#
# Total GULP energy -100663.585248 kJ/mol
# GULP energy per Si atom -5592.421403 kJ/mol
# Density = 2.485572 g / cm^3
# Si number density = 24.912425 Si / 1000 Ang^3
#
#
#
# Elastic Constant Matrix: (Units=GPa)
#
#
# Indices 1 2 3 4 5 6 
#
# 1 117.9488 36.0429 34.1787 0.0000 0.0000 0.0000
# 2 36.0429 117.9488 34.1787 0.0000 0.0000 0.0000
# 3 34.1787 34.1787 250.0984 0.0000 0.0000 0.0000
# 4 0.0000 0.0000 0.0000 39.5022 0.0000 0.0000
# 5 0.0000 0.0000 0.0000 0.0000 39.5022 0.0000
# 6 0.0000 0.0000 0.0000 0.0000 0.0000 44.5104
#
#
#
# Elastic Compliance Matrix: (Units=1/GPa)
#
#
# Indices 1 2 3 4 5 6 
#
# 1 0.009561 -0.002648 -0.000945 0.000000 0.000000 0.000000
# 2 -0.002648 0.009561 -0.000945 0.000000 0.000000 0.000000
# 3 -0.000945 -0.000945 0.004257 0.000000 0.000000 0.000000
# 4 0.000000 0.000000 0.000000 0.025315 0.000000 0.000000
# 5 0.000000 0.000000 0.000000 0.000000 0.025315 0.000000
# 6 0.000000 0.000000 0.000000 0.000000 0.000000 0.022467
#
#
# Mechanical properties :
#
#
# Convention : Reuss Voigt Hill
#
# Bulk Modulus (GPa) = 69.91023 77.19962 73.55492
# Shear Modulus (GPa) = 45.32321 50.14268 47.73295
#
# Velocity S-wave (km/s) = 4.26995 4.49124 4.38200
# Velocity P-wave (km/s) = 7.24109 7.61254 7.42913
#
# Compressibility (1/GPa) = 0.01430406
#
# Stress axis : x y z
#
# Youngs Moduli (GPa) = 104.58946 104.58946 234.92640
#
# Poissons Ratio (x) = 0.27695 0.22195
# Poissons Ratio (y) = 0.27695 0.22195
# Poissons Ratio (z) = 0.09881 0.09881
#
# Static dielectric constant tensor:
#      x y z
#    x 2.388470 0.000000 0.000000 
#    y 0.000000 2.388470 0.000000 
#    z 0.000000 0.000000 2.173740 
# 
# From -- ./inp_files/4230.got.cif
#   From: 2010.05.17/outbox.cif.g08.bks.cpg/sg116_3_cif.got.tgz:4230.got - 2010.05.20 11:11:43.
