data_PCOD9557648
_publ_section_title
;
Structure prediction by ZEFSAII (Michael W. Deem and Ramdas Pophale) SiO2 
 PCOD9557648
Probable space group: P -4 C 2
;
_chemical_formula_sum "Si O2"
_cell_formula_units_Z 64
_cell_length_a 11.387079
_cell_length_b 11.387079
_cell_length_c 24.972111
_cell_angle_alpha 90.000000
_cell_angle_beta 90.000000
_cell_angle_gamma 90.000000
_cell_volume 3238.022961
_symmetry_space_group_name_H-M "P -4 C 2"
_symmetry_group_IT_number 116
_symmetry_cell_setting 'tetragonal'
loop_
_space_group_symop_operation_xyz
x,y,z
y,-x,-z
-x,-y,z
-y,x,-z
y,x,1/2-z
-y,-x,1/2-z
-x,y,1/2+z
x,-y,1/2+z
loop_
_atom_site_type_symbol
_atom_site_label
_atom_site_fract_x
_atom_site_fract_y
_atom_site_fract_z
Si Si1 0.139065 0.532675 0.814401
Si Si2 0.142300 0.524108 0.547373
Si Si3 0.869757 0.555664 0.434666
Si Si4 0.719840 0.808220 0.905013
Si Si5 0.867020 0.961385 0.395440
Si Si6 0.832035 0.283471 0.300035
Si Si7 0.213659 0.800580 0.974219
Si Si8 0.102491 0.209060 0.300942
O O1 0.181263 0.536239 0.876054
O O2 0.185452 0.419486 0.784130
O O3 0.157257 0.661878 0.791423
O O4 0.000000 0.500000 0.816651
O O5 0.187871 0.500732 0.486867
O O6 0.190521 0.420117 0.584876
O O7 0.179857 0.659075 0.554350
O O8 0.000000 0.500000 0.547685
O O9 0.860719 0.692538 0.449687
O O10 0.000000 0.500000 0.432867
O O11 0.761791 0.731928 0.855221
O O12 0.772155 0.935950 0.889757
O O13 0.779337 0.775862 0.962295
O O14 0.854842 0.915547 0.455872
O O15 0.846869 0.857803 0.352470
O O16 0.000000 0.000000 0.385031
O O17 0.790974 0.209027 0.250000
O O18 0.965838 0.241302 0.310772
O O19 0.127096 0.127096 0.250000
#
# Coordination Sequence:
#
# PCOD9557648 Si02
#       8
#     8   8   8   8   8   8   8   8
#     4   9  19  38  62  86 112 157 219 249 304 383
#     4  10  20  37  58  88 130 172 211 248 319 386
#     4   9  18  35  62  85 119 165 213 263 307 378
#     4  11  24  38  62  94 128 172 209 262 320 381
#     4  12  24  35  58  99 133 160 197 257 326 392
#     4  11  23  42  63  89 123 164 210 266 321 375
#     4  11  23  38  60  94 131 172 210 257 314 394
#     4  11  23  40  63  90 123 168 206 259 323 393
#
# _framework density 19.765146999999999
#
# number of rings (size 3 to 8) (size 9 to 14) (size 15 to 20)
#    0.000    1.500    3.750    1.500    1.750    1.000 
#    2.250    0.625    0.000   14.625    0.000    0.000 
#    0.000    0.000    0.000    0.000    0.000    0.000 
#
# Total GULP energy -356519.776769 kJ/mol
# GULP energy per Si atom -5570.621512 kJ/mol
# Density = 1.972016 g / cm^3
# Si number density = 19.765147 Si / 1000 Ang^3
#
#
#
# Elastic Constant Matrix: (Units=GPa)
#
#
# Indices 1 2 3 4 5 6 
#
# 1 55.7471 13.0149 6.4975 0.0000 0.0000 0.0000
# 2 13.0149 55.7488 6.4975 0.0000 0.0000 0.0000
# 3 6.4975 6.4975 52.5477 0.0000 0.0000 0.0000
# 4 0.0000 0.0000 0.0000 17.6606 0.0000 0.0000
# 5 0.0000 0.0000 0.0000 0.0000 17.6605 0.0000
# 6 0.0000 0.0000 0.0000 0.0000 0.0000 12.2008
#
#
#
# Elastic Compliance Matrix: (Units=1/GPa)
#
#
# Indices 1 2 3 4 5 6 
#
# 1 0.019146 -0.004255 -0.001841 0.000000 0.000000 0.000000
# 2 -0.004255 0.019146 -0.001841 0.000000 0.000000 0.000000
# 3 -0.001841 -0.001841 0.019486 0.000000 0.000000 0.000000
# 4 0.000000 0.000000 0.000000 0.056623 0.000000 0.000000
# 5 0.000000 0.000000 0.000000 0.000000 0.056624 0.000000
# 6 0.000000 0.000000 0.000000 0.000000 0.000000 0.081962
#
#
# Mechanical properties :
#
#
# Convention : Reuss Voigt Hill
#
# Bulk Modulus (GPa) = 23.86513 24.00705 23.93609
# Shear Modulus (GPa) = 17.67853 18.70662 18.19258
#
# Velocity S-wave (km/s) = 2.99395 3.07977 3.03716
# Velocity P-wave (km/s) = 4.90430 4.98189 4.94325
#
# Compressibility (1/GPa) = 0.04190213
#
# Stress axis : x y z
#
# Youngs Moduli (GPa) = 52.22974 52.23133 51.31984
#
# Poissons Ratio (x) = 0.22225 0.09449
# Poissons Ratio (y) = 0.22225 0.09449
# Poissons Ratio (z) = 0.09617 0.09617
#
# Static dielectric constant tensor:
#      x y z
#    x 1.779950 0.000000 0.000000 
#    y 0.000000 1.779950 0.000000 
#    z 0.000000 0.000000 1.700300 
# 
# From -- ./inp_files/4657.got.cif
#   From: 2010.05.17/outbox.cif.g08.bks.cpg/sg116_3_cif.got.tgz:4657.got - 2010.05.20 11:11:43.
