data_PCOD9557509
_publ_section_title
;
Structure prediction by ZEFSAII (Michael W. Deem and Ramdas Pophale) SiO2 
 PCOD9557509
Probable space group: P -4 C 2
;
_chemical_formula_sum "Si O2"
_cell_formula_units_Z 48
_cell_length_a 25.841879
_cell_length_b 25.841879
_cell_length_c 5.383658
_cell_angle_alpha 90.000000
_cell_angle_beta 90.000000
_cell_angle_gamma 90.000000
_cell_volume 3595.221403
_symmetry_space_group_name_H-M "P -4 C 2"
_symmetry_group_IT_number 116
_symmetry_cell_setting 'tetragonal'
loop_
_space_group_symop_operation_xyz
x,y,z
y,-x,-z
-x,-y,z
-y,x,-z
y,x,1/2-z
-y,-x,1/2-z
-x,y,1/2+z
x,-y,1/2+z
loop_
_atom_site_type_symbol
_atom_site_label
_atom_site_fract_x
_atom_site_fract_y
_atom_site_fract_z
Si Si1 0.725084 0.709045 0.500748
Si Si2 0.532982 0.139730 0.626829
Si Si3 0.978259 0.440559 0.943489
Si Si4 0.700487 0.401805 0.474804
Si Si5 0.243615 0.407778 0.477250
Si Si6 0.530550 0.389471 0.226268
O O1 0.738148 0.738148 0.750000
O O2 0.661488 0.700970 0.510037
O O3 0.752608 0.654099 0.490409
O O4 0.737677 0.737677 0.250000
O O5 0.508142 0.143300 0.900523
O O6 0.557333 0.082826 0.599207
O O7 0.571327 0.187393 0.585281
O O8 0.000000 0.500000 0.960197
O O9 0.993529 0.416563 0.206235
O O10 0.737761 0.422883 0.254047
O O11 0.645750 0.422877 0.382182
O O12 0.718705 0.421740 0.744945
O O13 0.552581 0.447420 0.250000
O O14 0.511405 0.379447 0.507810
#
# Coordination Sequence:
#
# PCOD9557509 Si02
#       6
#     8   8   8   8   8   8
#     4   8  15  29  47  57  73  98 118 131 156 215
#     4  12  21  29  41  61  83 103 122 156 187 199
#     4  10  16  30  45  53  70 107 145 148 157 208
#     4  10  20  37  51  63  79 103 119 130 171 241
#     4  10  20  30  44  66  85  94 115 150 176 199
#     4  12  26  40  56  67  76  93 115 140 171 211
#
# _framework density 13.351055000000001
#
# number of rings (size 3 to 8) (size 9 to 14) (size 15 to 20)
#    0.000    1.667    3.333    4.000    0.000    7.667 
#    0.000    0.000    0.000    0.000    0.000    0.000 
#    0.000    0.000    0.000    0.000    0.000    0.000 
#
# Total GULP energy -267202.433643 kJ/mol
# GULP energy per Si atom -5566.717368 kJ/mol
# Density = 1.332067 g / cm^3
# Si number density = 13.351055 Si / 1000 Ang^3
#
#
#
# Elastic Constant Matrix: (Units=GPa)
#
#
# Indices 1 2 3 4 5 6 
#
# 1 23.6956 18.5136 0.0094 0.0000 0.0000 0.0000
# 2 18.5136 23.6888 0.0097 0.0000 0.0000 0.0000
# 3 0.0094 0.0097 92.1839 0.0000 0.0000 0.0000
# 4 0.0000 0.0000 0.0000 9.3275 0.0000 0.0000
# 5 0.0000 0.0000 0.0000 0.0000 9.3277 0.0000
# 6 0.0000 0.0000 0.0000 0.0000 0.0000 2.9268
#
#
#
# Elastic Compliance Matrix: (Units=1/GPa)
#
#
# Indices 1 2 3 4 5 6 
#
# 1 0.108382 -0.084704 -0.000002 0.000000 0.000000 0.000000
# 2 -0.084704 0.108414 -0.000003 0.000000 0.000000 0.000000
# 3 -0.000002 -0.000003 0.010848 0.000000 0.000000 0.000000
# 4 0.000000 0.000000 0.000000 0.107210 0.000000 0.000000
# 5 0.000000 0.000000 0.000000 0.000000 0.107208 0.000000
# 6 0.000000 0.000000 0.000000 0.000000 0.000000 0.341675
#
#
# Mechanical properties :
#
#
# Convention : Reuss Voigt Hill
#
# Bulk Modulus (GPa) = 17.17475 19.62595 18.40035
# Shear Modulus (GPa) = 5.14105 12.38543 8.76324
#
# Velocity S-wave (km/s) = 1.96444 3.04908 2.56475
# Velocity P-wave (km/s) = 4.24703 5.20842 4.75210
#
# Compressibility (1/GPa) = 0.05822501
#
# Stress axis : x y z
#
# Youngs Moduli (GPa) = 9.22659 9.22394 92.18392
#
# Poissons Ratio (x) = 0.78131 0.00020
# Poissons Ratio (y) = 0.78153 0.00025
# Poissons Ratio (z) = 0.00002 0.00003
#
# Static dielectric constant tensor:
#      x y z
#    x 1.428920 0.000000 0.000000 
#    y 0.000000 1.428920 0.000000 
#    z 0.000000 0.000000 1.544000 
# 
# From -- ./inp_files/229.got.cif
#   From: 2010.05.17/outbox.cif.g08.bks.cpg/sg116_1_cif.got.tgz:229.got - 2010.05.20 11:11:43.
