data_PCOD9557820
_publ_section_title
;
Structure prediction by ZEFSAII (Michael W. Deem and Ramdas Pophale) SiO2 
 PCOD9557820
Probable space group: P -4 C 2
;
_chemical_formula_sum "Si O2"
_cell_formula_units_Z 26
_cell_length_a 11.167879
_cell_length_b 11.167879
_cell_length_c 8.828664
_cell_angle_alpha 90.000000
_cell_angle_beta 90.000000
_cell_angle_gamma 90.000000
_cell_volume 1101.124406
_symmetry_space_group_name_H-M "P -4 C 2"
_symmetry_group_IT_number 116
_symmetry_cell_setting 'tetragonal'
loop_
_space_group_symop_operation_xyz
x,y,z
y,-x,-z
-x,-y,z
-y,x,-z
y,x,1/2-z
-y,-x,1/2-z
-x,y,1/2+z
x,-y,1/2+z
loop_
_atom_site_type_symbol
_atom_site_label
_atom_site_fract_x
_atom_site_fract_y
_atom_site_fract_z
Si Si1 0.073326 0.236105 0.847046
Si Si2 0.669500 0.856083 0.328513
Si Si3 0.000000 0.000000 0.500000
Si Si4 0.649534 0.527805 0.103910
O O1 0.182250 0.182250 0.750000
O O2 0.980778 0.320638 0.759322
O O3 0.998834 0.118259 0.899084
O O4 0.119147 0.292013 0.000719
O O5 0.761592 0.761592 0.250000
O O6 0.544355 0.785947 0.346980
O O7 0.579044 0.579044 0.250000
O O8 0.613771 0.399065 0.034235
#
# Coordination Sequence:
#
# PCOD9557820 Si02
#       4
#     8   8   2   8
#     4  12  20  32  56  90 131 174 216 264 313 398
#     4  11  21  36  60  96 127 169 219 275 333 390
#     4  12  18  28  54  80 130 160 230 240 298 380
#     4  10  22  42  71  97 124 164 231 292 342 404
#
# _framework density 23.612228000000002
#
# number of rings (size 3 to 8) (size 9 to 14) (size 15 to 20)
#    0.000    0.923    6.154    2.308    0.000    2.462 
#    0.000    0.000    0.000   42.462    0.000    0.000 
#    0.000    0.000    0.000    0.000    0.000    0.000 
#
# Total GULP energy -145131.913071 kJ/mol
# GULP energy per Si atom -5581.996657 kJ/mol
# Density = 2.355849 g / cm^3
# Si number density = 23.612228 Si / 1000 Ang^3
#
#
#
# Elastic Constant Matrix: (Units=GPa)
#
#
# Indices 1 2 3 4 5 6 
#
# 1 39.8760 44.6805 21.6159 0.0000 0.0000 0.0000
# 2 44.6805 39.8760 21.6159 0.0000 0.0000 0.0000
# 3 21.6159 21.6159 144.7171 0.0000 0.0000 0.0000
# 4 0.0000 0.0000 0.0000 9.5514 0.0000 0.0000
# 5 0.0000 0.0000 0.0000 0.0000 9.5514 0.0000
# 6 0.0000 0.0000 0.0000 0.0000 0.0000 53.4832
#
#
#
# Elastic Compliance Matrix: (Units=1/GPa)
#
#
# Indices 1 2 3 4 5 6 
#
# 1 -0.097665 0.110470 -0.001913 0.000000 0.000000 0.000000
# 2 0.110470 -0.097665 -0.001913 0.000000 0.000000 0.000000
# 3 -0.001913 -0.001913 0.007481 0.000000 0.000000 0.000000
# 4 0.000000 0.000000 0.000000 0.104696 0.000000 0.000000
# 5 0.000000 0.000000 0.000000 0.000000 0.104696 0.000000
# 6 0.000000 0.000000 0.000000 0.000000 0.000000 0.018697
#
#
# Mechanical properties :
#
#
# Convention : Reuss Voigt Hill
#
# Bulk Modulus (GPa) = 39.30857 44.47707 41.89282
# Shear Modulus (GPa) = -30.38251 23.62099 -3.38076
#
# Velocity S-wave (km/s) = -3.59099 3.16630 -1.19787
# Velocity P-wave (km/s) = 0.71409 5.67843 3.98338
#
# Compressibility (1/GPa) = 0.02543975
#
# Stress axis : x y z
#
# Youngs Moduli (GPa) = -10.23904 -10.23904 133.66543
#
# Poissons Ratio (x) = 1.13110 0.25564
# Poissons Ratio (y) = 1.13110 0.25564
# Poissons Ratio (z) = -0.01958 -0.01958
#
# Static dielectric constant tensor:
#      x y z
#    x 1.955700 0.000000 0.000000 
#    y 0.000000 1.955700 0.000000 
#    z 0.000000 0.000000 1.955460 
# 
# From -- ./inp_files/499.got.cif
#   From: 2010.05.17/outbox.cif.g08.bks.cpg/sg116_1_cif.got.tgz:499.got - 2010.05.20 11:11:43.
