data_PCOD9557351
_publ_section_title
;
Structure prediction by ZEFSAII (Michael W. Deem and Ramdas Pophale) SiO2 
 PCOD9557351
Probable space group: P -4 M 2
;
_chemical_formula_sum "Si O2"
_cell_formula_units_Z 56
_cell_length_a 14.156125
_cell_length_b 14.156125
_cell_length_c 14.242463
_cell_angle_alpha 90.000000
_cell_angle_beta 90.000000
_cell_angle_gamma 90.000000
_cell_volume 2854.130835
_symmetry_space_group_name_H-M "P -4 M 2"
_symmetry_group_IT_number 115
_symmetry_cell_setting 'tetragonal'
loop_
_space_group_symop_operation_xyz
x,y,z
y,-x,-z
-x,-y,z
-y,x,-z
y,x,-z
-y,-x,-z
-x,y,z
x,-y,z
loop_
_atom_site_type_symbol
_atom_site_label
_atom_site_fract_x
_atom_site_fract_y
_atom_site_fract_z
Si Si1 0.784115 0.890881 0.419473
Si Si2 0.285065 0.205611 0.129731
Si Si3 0.113607 0.393277 0.698403
Si Si4 0.888928 0.605527 0.027754
Si Si5 0.888201 0.398630 0.253806
Si Si6 0.393289 0.608539 0.886533
Si Si7 0.887469 0.192132 0.251506
O O1 0.826456 0.826456 0.500000
O O2 0.681087 0.860327 0.382671
O O3 0.852664 0.881492 0.328812
O O4 0.780504 0.000000 0.450451
O O5 0.350091 0.149122 0.203978
O O6 0.317442 0.170389 0.027686
O O7 0.317974 0.313816 0.143343
O O8 0.177881 0.183329 0.159307
O O9 0.147722 0.500000 0.684678
O O10 0.000000 0.394566 0.701139
O O11 0.857251 0.500000 0.997941
O O12 0.000000 0.615390 0.005222
O O13 0.881558 0.608195 0.140231
O O14 0.846133 0.500000 0.283121
O O15 0.858543 0.296563 0.291040
O O16 0.000000 0.403251 0.274836
O O17 0.500000 0.633713 0.857029
O O18 0.373273 0.500000 0.856630
O O19 0.392583 0.607418 0.000000
O O20 0.000000 0.189332 0.234632
#
# Coordination Sequence:
#
# PCOD9557351 Si02
#       7
#     8   8   8   8   8   8   8
#     4  10  21  38  61  85 106 136 178 218 261 325
#     4  11  20  29  50  74  99 139 183 215 262 319
#     4   9  18  34  56  84 114 135 161 216 280 325
#     4   9  17  29  48  74  99 127 171 222 264 308
#     4   8  16  32  50  68  96 132 167 210 262 308
#     4   9  19  33  46  67 101 136 175 224 269 312
#     4  10  22  36  49  72 105 136 173 222 270 316
#
# _framework density 19.620685000000002
#
# number of rings (size 3 to 8) (size 9 to 14) (size 15 to 20)
#    0.000    2.571    0.000    3.429    2.000    3.286 
#    0.000    0.714    0.000    5.143    0.000    2.000 
#    0.000    0.000    0.000    0.000    0.000    0.000 
#
# Total GULP energy -312444.387308 kJ/mol
# GULP energy per Si atom -5579.364059 kJ/mol
# Density = 1.957603 g / cm^3
# Si number density = 19.620685 Si / 1000 Ang^3
#
#
#
# Elastic Constant Matrix: (Units=GPa)
#
#
# Indices 1 2 3 4 5 6 
#
# 1 85.8140 20.1480 11.6418 0.0000 0.0000 0.0000
# 2 20.1480 85.8141 11.6418 0.0000 0.0000 0.0000
# 3 11.6418 11.6418 25.2329 0.0000 0.0000 0.0000
# 4 0.0000 0.0000 0.0000 20.9772 0.0000 0.0000
# 5 0.0000 0.0000 0.0000 0.0000 20.9772 0.0000
# 6 0.0000 0.0000 0.0000 0.0000 0.0000 23.6364
#
#
#
# Elastic Compliance Matrix: (Units=1/GPa)
#
#
# Indices 1 2 3 4 5 6 
#
# 1 0.012865 -0.002363 -0.004845 0.000000 0.000000 0.000000
# 2 -0.002363 0.012865 -0.004845 0.000000 0.000000 0.000000
# 3 -0.004845 -0.004845 0.044102 0.000000 0.000000 0.000000
# 4 0.000000 0.000000 0.000000 0.047671 0.000000 0.000000
# 5 0.000000 0.000000 0.000000 0.000000 0.047671 0.000000
# 6 0.000000 0.000000 0.000000 0.000000 0.000000 0.042308
#
#
# Mechanical properties :
#
#
# Convention : Reuss Voigt Hill
#
# Bulk Modulus (GPa) = 21.87015 31.52493 26.69754
# Shear Modulus (GPa) = 20.25677 23.34680 21.80179
#
# Velocity S-wave (km/s) = 3.21661 3.45325 3.33703
# Velocity P-wave (km/s) = 4.99661 5.65703 5.33704
#
# Compressibility (1/GPa) = 0.04572443
#
# Stress axis : x y z
#
# Youngs Moduli (GPa) = 77.72841 77.72853 22.67479
#
# Poissons Ratio (x) = 0.18369 0.10987
# Poissons Ratio (y) = 0.18369 0.10987
# Poissons Ratio (z) = 0.37662 0.37662
#
# Static dielectric constant tensor:
#      x y z
#    x 1.739020 0.000000 0.000000 
#    y 0.000000 1.739020 0.000000 
#    z 0.000000 0.000000 1.679530 
# 
# From -- ./inp_files/3782.got.cif
#   From: 2010.05.17/outbox.cif.g08.bks.cpg/sg115_2_cif.got.tgz:3782.got - 2010.05.20 11:07:42.
