data_PCOD9557360
_publ_section_title
;
Structure prediction by ZEFSAII (Michael W. Deem and Ramdas Pophale) SiO2 
 PCOD9557360
Probable space group: P -4 M 2
;
_chemical_formula_sum "Si O2"
_cell_formula_units_Z 26
_cell_length_a 8.085071
_cell_length_b 8.085071
_cell_length_c 21.839471
_cell_angle_alpha 90.000000
_cell_angle_beta 90.000000
_cell_angle_gamma 90.000000
_cell_volume 1427.610688
_symmetry_space_group_name_H-M "P -4 M 2"
_symmetry_group_IT_number 115
_symmetry_cell_setting 'tetragonal'
loop_
_space_group_symop_operation_xyz
x,y,z
y,-x,-z
-x,-y,z
-y,x,-z
y,x,-z
-y,-x,-z
-x,y,z
x,-y,z
loop_
_atom_site_type_symbol
_atom_site_label
_atom_site_fract_x
_atom_site_fract_y
_atom_site_fract_z
Si Si1 0.321283 0.500000 0.046967
Si Si2 0.203520 0.000000 0.773529
Si Si3 0.197637 0.321338 0.694284
Si Si4 0.812479 0.697847 0.433416
Si Si5 0.500000 0.000000 0.869928
O O1 0.500000 0.500000 0.081664
O O2 0.163173 0.500000 0.087985
O O3 0.344739 0.655262 0.000000
O O4 0.247855 0.837310 0.733724
O O5 0.330350 0.000000 0.830262
O O6 0.000000 0.000000 0.785136
O O7 0.264045 0.500000 0.715066
O O8 0.240991 0.295126 0.623236
O O9 0.000000 0.325617 0.698923
O O10 0.756099 0.756099 0.500000
O O11 0.810278 0.500000 0.433037
O O12 0.000000 0.756756 0.422794
#
# Coordination Sequence:
#
# PCOD9557360 Si02
#       5
#     4   4   8   8   2
#     4   6  18  42  60  94 138 162 204 256 291 329
#     4  10  24  40  58  94 130 164 210 259 300 376
#     4  10  21  39  58  78 115 157 200 260 325 375
#     4  11  23  36  54  78 106 144 204 265 329 394
#     4  12  20  40  72  96 132 180 212 240 306 370
#
# _framework density 18.212247999999999
#
# number of rings (size 3 to 8) (size 9 to 14) (size 15 to 20)
#    0.923    1.231    1.538    1.846    2.154    7.385 
#    2.769    0.000    0.000    0.000    0.000    0.000 
#    0.000    0.000    0.000    0.000    0.000    0.000 
#
# Total GULP energy -144770.457470 kJ/mol
# GULP energy per Si atom -5568.094518 kJ/mol
# Density = 1.817080 g / cm^3
# Si number density = 18.212248 Si / 1000 Ang^3
#
#
#
# Elastic Constant Matrix: (Units=GPa)
#
#
# Indices 1 2 3 4 5 6 
#
# 1 78.3120 64.2546 58.0414 0.0000 0.0000 0.0000
# 2 64.2546 78.3115 58.0414 0.0000 0.0000 0.0000
# 3 58.0414 58.0414 108.9901 0.0000 0.0000 0.0000
# 4 0.0000 0.0000 0.0000 30.9662 0.0000 0.0000
# 5 0.0000 0.0000 0.0000 0.0000 30.9662 0.0000
# 6 0.0000 0.0000 0.0000 0.0000 0.0000 9.6811
#
#
#
# Elastic Compliance Matrix: (Units=1/GPa)
#
#
# Indices 1 2 3 4 5 6 
#
# 1 0.041761 -0.029377 -0.006595 0.000000 0.000000 0.000000
# 2 -0.029377 0.041761 -0.006595 0.000000 0.000000 0.000000
# 3 -0.006595 -0.006595 0.016199 0.000000 0.000000 0.000000
# 4 0.000000 0.000000 0.000000 0.032293 0.000000 0.000000
# 5 0.000000 0.000000 0.000000 0.000000 0.032293 0.000000
# 6 0.000000 0.000000 0.000000 0.000000 0.000000 0.103294
#
#
# Mechanical properties :
#
#
# Convention : Reuss Voigt Hill
#
# Bulk Modulus (GPa) = 68.55152 69.58757 69.06955
# Shear Modulus (GPa) = 13.98215 20.00778 16.99497
#
# Velocity S-wave (km/s) = 2.77381 3.31809 3.05808
# Velocity P-wave (km/s) = 6.92681 7.27817 7.10467
#
# Compressibility (1/GPa) = 0.01458757
#
# Stress axis : x y z
#
# Youngs Moduli (GPa) = 23.94584 23.94558 61.73070
#
# Poissons Ratio (x) = 0.70345 0.40711
# Poissons Ratio (y) = 0.70345 0.40713
# Poissons Ratio (z) = 0.15792 0.15793
#
# Static dielectric constant tensor:
#      x y z
#    x 1.648740 0.000000 0.000000 
#    y 0.000000 1.648740 0.000000 
#    z 0.000000 0.000000 1.624820 
# 
# From -- ./inp_files/4078.got.cif
#   From: 2010.05.17/outbox.cif.g08.bks.cpg/sg115_3_cif.got.tgz:4078.got - 2010.05.20 11:07:42.
