data_PCOD9557747
_publ_section_title
;
Structure prediction by ZEFSAII (Michael W. Deem and Ramdas Pophale) SiO2 
 PCOD9557747
Probable space group: P -4 C 2
;
_chemical_formula_sum "Si O2"
_cell_formula_units_Z 24
_cell_length_a 8.737963
_cell_length_b 8.737963
_cell_length_c 14.232733
_cell_angle_alpha 90.000000
_cell_angle_beta 90.000000
_cell_angle_gamma 90.000000
_cell_volume 1086.697593
_symmetry_space_group_name_H-M "P -4 C 2"
_symmetry_group_IT_number 116
_symmetry_cell_setting 'tetragonal'
loop_
_space_group_symop_operation_xyz
x,y,z
y,-x,-z
-x,-y,z
-y,x,-z
y,x,1/2-z
-y,-x,1/2-z
-x,y,1/2+z
x,-y,1/2+z
loop_
_atom_site_type_symbol
_atom_site_label
_atom_site_fract_x
_atom_site_fract_y
_atom_site_fract_z
Si Si1 0.659873 0.088703 0.483246
Si Si2 0.220114 0.836286 0.850762
Si Si3 0.451850 0.329890 0.846105
O O1 0.719489 0.124273 0.586161
O O2 0.640197 0.247605 0.427956
O O3 0.500000 0.000000 0.489299
O O4 0.764525 0.984378 0.416368
O O5 0.144140 0.855861 0.750000
O O6 0.392621 0.769434 0.832095
O O7 0.500000 0.500000 0.874368
O O8 0.355824 0.355824 0.750000
#
# Coordination Sequence:
#
# PCOD9557747 Si02
#       3
#     8   8   8
#     4  10  26  42  70 105 145 187 235 297 361 424
#     4  11  24  45  66 101 141 184 237 292 360 426
#     4  10  21  40  72 108 131 176 236 297 345 417
#
# _framework density 22.085259000000001
#
# number of rings (size 3 to 8) (size 9 to 14) (size 15 to 20)
#    0.000    1.667    3.333    0.000    9.333    7.333 
#    0.000    1.667    0.000    0.000    0.000    0.000 
#    0.000    0.000    0.000    0.000    0.000    0.000 
#
# Total GULP energy -134243.984521 kJ/mol
# GULP energy per Si atom -5593.499355 kJ/mol
# Density = 2.203499 g / cm^3
# Si number density = 22.085259 Si / 1000 Ang^3
#
#
#
# Elastic Constant Matrix: (Units=GPa)
#
#
# Indices 1 2 3 4 5 6 
#
# 1 52.5014 -10.0253 49.5800 0.0000 0.0000 0.0000
# 2 -10.0253 52.5010 49.5798 0.0000 0.0000 0.0000
# 3 49.5800 49.5798 202.9783 0.0000 0.0000 0.0000
# 4 0.0000 0.0000 0.0000 41.2433 0.0000 0.0000
# 5 0.0000 0.0000 0.0000 0.0000 41.2397 0.0000
# 6 0.0000 0.0000 0.0000 0.0000 0.0000 11.9081
#
#
#
# Elastic Compliance Matrix: (Units=1/GPa)
#
#
# Indices 1 2 3 4 5 6 
#
# 1 0.035386 0.019393 -0.013381 0.000000 0.000000 0.000000
# 2 0.019393 0.035387 -0.013381 0.000000 0.000000 0.000000
# 3 -0.013381 -0.013381 0.011463 0.000000 0.000000 0.000000
# 4 0.000000 0.000000 0.000000 0.024246 0.000000 0.000000
# 5 0.000000 0.000000 0.000000 0.000000 0.024249 0.000000
# 6 0.000000 0.000000 0.000000 0.000000 0.000000 0.083977
#
#
# Mechanical properties :
#
#
# Convention : Reuss Voigt Hill
#
# Bulk Modulus (GPa) = 14.81473 54.02774 34.42124
# Shear Modulus (GPa) = 19.84569 33.46797 26.65683
#
# Velocity S-wave (km/s) = 3.00091 3.89703 3.47795
# Velocity P-wave (km/s) = 4.32779 6.69071 5.63451
#
# Compressibility (1/GPa) = 0.06750039
#
# Stress axis : x y z
#
# Youngs Moduli (GPa) = 28.25950 28.25929 87.23426
#
# Poissons Ratio (x) = -0.54804 1.16725
# Poissons Ratio (y) = -0.54804 1.16725
# Poissons Ratio (z) = 0.37813 0.37813
#
# Static dielectric constant tensor:
#      x y z
#    x 1.816950 0.000000 0.000000 
#    y 0.000000 1.816950 0.000000 
#    z 0.000000 0.000000 1.794840 
# 
# From -- ./inp_files/2256.got.cif
#   From: 2010.05.17/outbox.cif.g08.bks.cpg/sg116_2_cif.got.tgz:2256.got - 2010.05.20 11:11:43.
