data_PCOD9557959
_publ_section_title
;
Structure prediction by ZEFSAII (Michael W. Deem and Ramdas Pophale) SiO2 
 PCOD9557959
Probable space group: P -4 C 2
;
_chemical_formula_sum "Si O2"
_cell_formula_units_Z 40
_cell_length_a 8.441910
_cell_length_b 8.441910
_cell_length_c 22.294814
_cell_angle_alpha 90.000000
_cell_angle_beta 90.000000
_cell_angle_gamma 90.000000
_cell_volume 1588.858747
_symmetry_space_group_name_H-M "P -4 C 2"
_symmetry_group_IT_number 116
_symmetry_cell_setting 'tetragonal'
loop_
_space_group_symop_operation_xyz
x,y,z
y,-x,-z
-x,-y,z
-y,x,-z
y,x,1/2-z
-y,-x,1/2-z
-x,y,1/2+z
x,-y,1/2+z
loop_
_atom_site_type_symbol
_atom_site_label
_atom_site_fract_x
_atom_site_fract_y
_atom_site_fract_z
Si Si1 0.554188 0.670389 0.631647
Si Si2 0.647129 0.882141 0.049467
Si Si3 0.886796 0.135990 0.843243
Si Si4 0.916468 0.351633 0.268559
Si Si5 0.338114 0.090084 0.915529
O O1 0.500000 0.500000 0.656916
O O2 0.429923 0.722070 0.578855
O O3 0.564544 0.814333 0.678548
O O4 0.734478 0.648212 0.610505
O O5 0.775591 0.942497 0.096492
O O6 0.500000 0.000000 0.050105
O O7 0.723345 0.877676 0.983617
O O8 0.743438 0.031097 0.868870
O O9 0.925722 0.262709 0.792256
O O10 0.000000 0.000000 0.823170
O O11 0.783842 0.216159 0.250000
O O12 0.000000 0.500000 0.232822
O O13 0.500000 0.000000 0.927071
#
# Coordination Sequence:
#
# PCOD9557959 Si02
#       5
#     8   8   8   8   8
#     4  12  25  48  75 108 165 205 260 329 390 484
#     4  11  23  43  69 106 163 211 255 307 395 477
#     4  12  23  46  73 109 155 198 259 333 387 477
#     4  12  28  57  86 114 150 209 272 350 423 478
#     4  11  27  39  71 121 157 215 261 308 392 489
#
# _framework density 25.175305000000002
#
# number of rings (size 3 to 8) (size 9 to 14) (size 15 to 20)
#    0.000    0.400    6.000    1.200   11.200    1.600 
#    3.600    2.000    0.000    0.000    0.000    0.000 
#    0.000    0.000    0.000    0.000    0.000    0.000 
#
# Total GULP energy -222810.594579 kJ/mol
# GULP energy per Si atom -5570.264864 kJ/mol
# Density = 2.511801 g / cm^3
# Si number density = 25.175305 Si / 1000 Ang^3
#
#
#
# Elastic Constant Matrix: (Units=GPa)
#
#
# Indices 1 2 3 4 5 6 
#
# 1 116.2151 30.9079 57.4936 0.0000 0.0000 0.0000
# 2 30.9079 116.2152 57.4938 0.0000 0.0000 0.0000
# 3 57.4936 57.4938 71.2320 0.0000 0.0000 0.0000
# 4 0.0000 0.0000 0.0000 21.7457 0.0000 0.0000
# 5 0.0000 0.0000 0.0000 0.0000 21.7467 0.0000
# 6 0.0000 0.0000 0.0000 0.0000 0.0000 47.6257
#
#
#
# Elastic Compliance Matrix: (Units=1/GPa)
#
#
# Indices 1 2 3 4 5 6 
#
# 1 0.015067 0.003345 -0.014861 0.000000 0.000000 0.000000
# 2 0.003345 0.015067 -0.014861 0.000000 0.000000 0.000000
# 3 -0.014861 -0.014861 0.038028 0.000000 0.000000 0.000000
# 4 0.000000 0.000000 0.000000 0.045986 0.000000 0.000000
# 5 0.000000 0.000000 0.000000 0.000000 0.045984 0.000000
# 6 0.000000 0.000000 0.000000 0.000000 0.000000 0.020997
#
#
# Mechanical properties :
#
#
# Convention : Reuss Voigt Hill
#
# Bulk Modulus (GPa) = 64.89974 66.16144 65.53059
# Shear Modulus (GPa) = 20.91882 28.74142 24.83012
#
# Velocity S-wave (km/s) = 2.88571 3.38250 3.14393
# Velocity P-wave (km/s) = 6.07768 6.44922 6.26620
#
# Compressibility (1/GPa) = 0.01540838
#
# Stress axis : x y z
#
# Youngs Moduli (GPa) = 66.36991 66.36971 26.29646
#
# Poissons Ratio (x) = -0.22199 0.39079
# Poissons Ratio (y) = -0.22199 0.39079
# Poissons Ratio (z) = 0.98631 0.98631
#
# Static dielectric constant tensor:
#      x y z
#    x 2.033170 0.000000 0.000000 
#    y 0.000000 2.033180 0.000000 
#    z 0.000000 0.000000 2.097800 
# 
# From -- ./inp_files/4462.got.cif
#   From: 2010.05.17/outbox.cif.g08.bks.cpg/sg116_3_cif.got.tgz:4462.got - 2010.05.20 11:11:43.
