data_PCOD9557583
_publ_section_title
;
Structure prediction by ZEFSAII (Michael W. Deem and Ramdas Pophale) SiO2 
 PCOD9557583
Probable space group: P -4 C 2
;
_chemical_formula_sum "Si O2"
_cell_formula_units_Z 64
_cell_length_a 11.837247
_cell_length_b 11.837247
_cell_length_c 23.850360
_cell_angle_alpha 90.000000
_cell_angle_beta 90.000000
_cell_angle_gamma 90.000000
_cell_volume 3341.922378
_symmetry_space_group_name_H-M "P -4 C 2"
_symmetry_group_IT_number 116
_symmetry_cell_setting 'tetragonal'
loop_
_space_group_symop_operation_xyz
x,y,z
y,-x,-z
-x,-y,z
-y,x,-z
y,x,1/2-z
-y,-x,1/2-z
-x,y,1/2+z
x,-y,1/2+z
loop_
_atom_site_type_symbol
_atom_site_label
_atom_site_fract_x
_atom_site_fract_y
_atom_site_fract_z
Si Si1 0.387940 0.963283 0.858700
Si Si2 0.640707 0.619670 0.352920
Si Si3 0.432863 0.234641 0.446544
Si Si4 0.634363 0.380609 0.183778
Si Si5 0.751113 0.878875 0.514186
Si Si6 0.178331 0.197215 0.185628
Si Si7 0.877687 0.063386 0.579037
Si Si8 0.331819 0.195608 0.913119
O O1 0.419220 0.855009 0.895751
O O2 0.282956 0.925047 0.823767
O O3 0.500000 0.000000 0.825643
O O4 0.357828 0.066537 0.898676
O O5 0.623694 0.654029 0.418745
O O6 0.517063 0.640769 0.324807
O O7 0.660442 0.487644 0.339977
O O8 0.735343 0.704346 0.328067
O O9 0.370877 0.171751 0.497372
O O10 0.567055 0.247463 0.451033
O O11 0.643787 0.356214 0.250000
O O12 0.732000 0.330357 0.144208
O O13 0.821295 0.887960 0.456518
O O14 0.801458 0.783313 0.553961
O O15 0.779275 0.992547 0.547836
O O16 0.169464 0.169464 0.250000
O O17 0.159783 0.096917 0.141339
O O18 0.000000 0.000000 0.576615
#
# Coordination Sequence:
#
# PCOD9557583 Si02
#       8
#     8   8   8   8   8   8   8   8
#     4   9  17  35  58  82 110 152 203 237 286 360
#     4   9  17  34  63  89 118 157 212 241 298 368
#     4   9  19  35  58  85 112 151 200 254 297 357
#     4  10  19  34  56  91 124 168 201 247 301 373
#     4  12  20  38  61  85 116 152 205 252 302 367
#     4  11  22  39  63  93 121 154 199 257 310 365
#     4  12  23  39  66  87 111 158 207 254 309 369
#     4  10  22  35  56  84 119 158 201 244 304 365
#
# _framework density 19.150652999999998
#
# number of rings (size 3 to 8) (size 9 to 14) (size 15 to 20)
#    0.000    1.750    3.750    3.750    0.000    1.250 
#    2.250    0.000    0.000    0.000    0.000    0.000 
#    0.000    0.000    0.000    0.000    0.000    0.000 
#
# Total GULP energy -356656.615686 kJ/mol
# GULP energy per Si atom -5572.759620 kJ/mol
# Density = 1.910707 g / cm^3
# Si number density = 19.150653 Si / 1000 Ang^3
#
#
#
# Elastic Constant Matrix: (Units=GPa)
#
#
# Indices 1 2 3 4 5 6 
#
# 1 -7.2926 50.9673 6.0852 0.0000 0.0000 0.0000
# 2 50.9673 -7.2919 6.0853 0.0000 0.0000 0.0000
# 3 6.0852 6.0853 52.9487 0.0000 0.0000 0.0000
# 4 0.0000 0.0000 0.0000 8.3016 0.0000 0.0000
# 5 0.0000 0.0000 0.0000 0.0000 8.3016 0.0000
# 6 0.0000 0.0000 0.0000 0.0000 0.0000 26.9909
#
#
#
# Elastic Compliance Matrix: (Units=1/GPa)
#
#
# Indices 1 2 3 4 5 6 
#
# 1 0.003245 0.020409 -0.002718 0.000000 0.000000 0.000000
# 2 0.020409 0.003245 -0.002718 0.000000 0.000000 0.000000
# 3 -0.002718 -0.002718 0.019511 0.000000 0.000000 0.000000
# 4 0.000000 0.000000 0.000000 0.120458 0.000000 0.000000
# 5 0.000000 0.000000 0.000000 0.000000 0.120459 0.000000
# 6 0.000000 0.000000 0.000000 0.000000 0.000000 0.037050
#
#
# Mechanical properties :
#
#
# Convention : Reuss Voigt Hill
#
# Bulk Modulus (GPa) = 17.87474 18.29333 18.08403
# Shear Modulus (GPa) = 17.08402 7.06724 12.07563
#
# Velocity S-wave (km/s) = 2.99002 1.92311 2.51382
# Velocity P-wave (km/s) = 4.61241 3.80844 4.22957
#
# Compressibility (1/GPa) = 0.05594488
#
# Stress axis : x y z
#
# Youngs Moduli (GPa) = 308.20991 308.18643 51.25292
#
# Poissons Ratio (x) = -6.28985 0.13933
# Poissons Ratio (y) = -6.29033 0.13933
# Poissons Ratio (z) = 0.83787 0.83780
#
# Static dielectric constant tensor:
#      x y z
#    x 1.756230 0.000000 0.000000 
#    y 0.000000 1.756230 0.000000 
#    z 0.000000 0.000000 1.690050 
# 
# From -- ./inp_files/4654.got.cif
#   From: 2010.05.17/outbox.cif.g08.bks.cpg/sg116_3_cif.got.tgz:4654.got - 2010.05.20 11:11:43.
