data_PCOD9557877
_publ_section_title
;
Structure prediction by ZEFSAII (Michael W. Deem and Ramdas Pophale) SiO2 
 PCOD9557877
Probable space group: P -4 C 2
;
_chemical_formula_sum "Si O2"
_cell_formula_units_Z 40
_cell_length_a 8.689084
_cell_length_b 8.689084
_cell_length_c 20.763590
_cell_angle_alpha 90.000000
_cell_angle_beta 90.000000
_cell_angle_gamma 90.000000
_cell_volume 1567.654798
_symmetry_space_group_name_H-M "P -4 C 2"
_symmetry_group_IT_number 116
_symmetry_cell_setting 'tetragonal'
loop_
_space_group_symop_operation_xyz
x,y,z
y,-x,-z
-x,-y,z
-y,x,-z
y,x,1/2-z
-y,-x,1/2-z
-x,y,1/2+z
x,-y,1/2+z
loop_
_atom_site_type_symbol
_atom_site_label
_atom_site_fract_x
_atom_site_fract_y
_atom_site_fract_z
Si Si1 0.667460 0.430663 0.145561
Si Si2 0.371174 0.887761 0.260341
Si Si3 0.744529 0.694149 0.060104
Si Si4 0.837071 0.577032 0.933837
Si Si5 0.909699 0.841010 0.175245
O O1 0.500000 0.500000 0.147875
O O2 0.746496 0.467078 0.212841
O O3 0.755628 0.524539 0.090766
O O4 0.651026 0.250006 0.127390
O O5 0.204091 0.795910 0.250000
O O6 0.500000 0.000000 0.226342
O O7 0.311395 0.986729 0.321210
O O8 0.565875 0.727919 0.046076
O O9 0.793761 0.811419 0.116796
O O10 0.838531 0.694275 0.993785
O O11 0.000000 0.500000 0.921830
O O12 0.849980 0.849980 0.250000
O O13 0.000000 0.000000 0.163499
#
# Coordination Sequence:
#
# PCOD9557877 Si02
#       5
#     8   8   8   8   8
#     4  10  24  45  70 103 138 191 249 310 380 471
#     4  12  26  47  76 106 152 202 256 323 398 476
#     4  11  23  46  74  98 151 193 249 314 389 466
#     4  11  25  42  72 107 143 191 253 314 389 477
#     4  11  25  47  74 107 150 202 254 321 391 467
#
# _framework density 25.515819
#
# number of rings (size 3 to 8) (size 9 to 14) (size 15 to 20)
#    0.000    1.000    6.000    0.000    5.600    4.400 
#    0.000    0.000    0.000    0.000    0.000    0.000 
#    0.000    0.000    0.000    0.000    0.000    0.000 
#
# Total GULP energy -222835.245985 kJ/mol
# GULP energy per Si atom -5570.881150 kJ/mol
# Density = 2.545774 g / cm^3
# Si number density = 25.515819 Si / 1000 Ang^3
#
#
#
# Elastic Constant Matrix: (Units=GPa)
#
#
# Indices 1 2 3 4 5 6 
#
# 1 100.3322 28.9383 35.4721 0.0000 0.0000 0.0000
# 2 28.9383 100.3318 35.4722 0.0000 0.0000 0.0000
# 3 35.4721 35.4722 92.8915 0.0000 0.0000 0.0000
# 4 0.0000 0.0000 0.0000 24.9301 0.0000 0.0000
# 5 0.0000 0.0000 0.0000 0.0000 24.9305 0.0000
# 6 0.0000 0.0000 0.0000 0.0000 0.0000 49.1810
#
#
#
# Elastic Compliance Matrix: (Units=1/GPa)
#
#
# Indices 1 2 3 4 5 6 
#
# 1 0.011897 -0.002110 -0.003737 0.000000 0.000000 0.000000
# 2 -0.002110 0.011897 -0.003737 0.000000 0.000000 0.000000
# 3 -0.003737 -0.003737 0.013619 0.000000 0.000000 0.000000
# 4 0.000000 0.000000 0.000000 0.040112 0.000000 0.000000
# 5 0.000000 0.000000 0.000000 0.000000 0.040112 0.000000
# 6 0.000000 0.000000 0.000000 0.000000 0.000000 0.020333
#
#
# Mechanical properties :
#
#
# Convention : Reuss Voigt Hill
#
# Bulk Modulus (GPa) = 54.81233 54.81338 54.81286
# Shear Modulus (GPa) = 30.63345 32.71983 31.67664
#
# Velocity S-wave (km/s) = 3.46868 3.58486 3.52725
# Velocity P-wave (km/s) = 6.12949 6.21801 6.17391
#
# Compressibility (1/GPa) = 0.01824407
#
# Stress axis : x y z
#
# Youngs Moduli (GPa) = 84.05651 84.05605 73.42419
#
# Poissons Ratio (x) = 0.17736 0.27440
# Poissons Ratio (y) = 0.17736 0.27440
# Poissons Ratio (z) = 0.31414 0.31414
#
# Static dielectric constant tensor:
#      x y z
#    x 2.139730 0.000000 0.000000 
#    y 0.000000 2.139730 0.000000 
#    z 0.000000 0.000000 1.992680 
# 
# From -- ./inp_files/4416.got.cif
#   From: 2010.05.17/outbox.cif.g08.bks.cpg/sg116_3_cif.got.tgz:4416.got - 2010.05.20 11:11:43.
