data_PCOD9557939
_publ_section_title
;
Structure prediction by ZEFSAII (Michael W. Deem and Ramdas Pophale) SiO2 
 PCOD9557939
Probable space group: P -4 C 2
;
_chemical_formula_sum "Si O2"
_cell_formula_units_Z 60
_cell_length_a 11.684693
_cell_length_b 11.684693
_cell_length_c 19.352264
_cell_angle_alpha 90.000000
_cell_angle_beta 90.000000
_cell_angle_gamma 90.000000
_cell_volume 2642.204286
_symmetry_space_group_name_H-M "P -4 C 2"
_symmetry_group_IT_number 116
_symmetry_cell_setting 'tetragonal'
loop_
_space_group_symop_operation_xyz
x,y,z
y,-x,-z
-x,-y,z
-y,x,-z
y,x,1/2-z
-y,-x,1/2-z
-x,y,1/2+z
x,-y,1/2+z
loop_
_atom_site_type_symbol
_atom_site_label
_atom_site_fract_x
_atom_site_fract_y
_atom_site_fract_z
Si Si1 0.496484 0.757105 0.551946
Si Si2 0.554728 0.626907 0.412754
Si Si3 0.397674 0.074471 0.720484
Si Si4 0.496956 0.686757 0.768508
Si Si5 0.698020 0.973148 0.868843
Si Si6 0.500000 0.000000 0.981708
Si Si7 0.728273 0.807725 0.605123
Si Si8 0.836108 0.920918 0.477555
O O1 0.515284 0.685532 0.482367
O O2 0.391495 0.691985 0.587545
O O3 0.609874 0.739956 0.597641
O O4 0.485882 0.888174 0.529631
O O5 0.500000 0.500000 0.405458
O O6 0.513348 0.703082 0.350190
O O7 0.460066 0.194120 0.738675
O O8 0.349654 0.016831 0.791128
O O9 0.299243 0.100026 0.664656
O O10 0.500000 0.000000 0.689753
O O11 0.593975 0.593975 0.750000
O O12 0.377211 0.622790 0.750000
O O13 0.739133 0.841397 0.874956
O O14 0.605164 0.998902 0.928082
O O15 0.799837 0.053769 0.898750
O O16 0.748804 0.856272 0.528063
O O17 0.955674 0.855572 0.486170
#
# Coordination Sequence:
#
# PCOD9557939 Si02
#       8
#     8   8   8   8   8   4   8   8
#     4  12  24  40  62 102 137 176 226 297 354 416
#     4  12  23  41  67 100 136 180 241 294 354 429
#     4  12  27  44  66 101 144 186 235 291 355 434
#     4  11  23  43  69  95 134 191 241 287 353 437
#     4  11  22  43  67  95 132 184 229 280 354 423
#     4  12  24  40  64 100 140 178 228 288 356 422
#     4  11  24  42  69  98 133 183 227 294 355 422
#     4   9  20  42  71 100 129 171 233 290 345 415
#
# _framework density 22.708314000000001
#
# number of rings (size 3 to 8) (size 9 to 14) (size 15 to 20)
#    0.000    0.800    4.667    3.600    2.800    0.000 
#    0.000    2.000    0.000    3.200    0.000    0.000 
#    0.000    0.000    0.000    0.000    0.000    0.000 
#
# Total GULP energy -335476.009987 kJ/mol
# GULP energy per Si atom -5591.266833 kJ/mol
# Density = 2.265663 g / cm^3
# Si number density = 22.708314 Si / 1000 Ang^3
#
#
#
# Elastic Constant Matrix: (Units=GPa)
#
#
# Indices 1 2 3 4 5 6 
#
# 1 50.2522 6.0737 4.9871 0.0000 0.0000 0.0000
# 2 6.0737 50.2516 4.9876 0.0000 0.0000 0.0000
# 3 4.9871 4.9876 84.1902 0.0000 0.0000 0.0000
# 4 0.0000 0.0000 0.0000 15.3512 0.0000 0.0000
# 5 0.0000 0.0000 0.0000 0.0000 15.3519 0.0000
# 6 0.0000 0.0000 0.0000 0.0000 0.0000 26.6331
#
#
#
# Elastic Compliance Matrix: (Units=1/GPa)
#
#
# Indices 1 2 3 4 5 6 
#
# 1 0.020289 -0.002347 -0.001063 0.000000 0.000000 0.000000
# 2 -0.002347 0.020289 -0.001063 0.000000 0.000000 0.000000
# 3 -0.001063 -0.001063 0.012004 0.000000 0.000000 0.000000
# 4 0.000000 0.000000 0.000000 0.065142 0.000000 0.000000
# 5 0.000000 0.000000 0.000000 0.000000 0.065139 0.000000
# 6 0.000000 0.000000 0.000000 0.000000 0.000000 0.037547
#
#
# Mechanical properties :
#
#
# Convention : Reuss Voigt Hill
#
# Bulk Modulus (GPa) = 22.91658 24.08789 23.50223
# Shear Modulus (GPa) = 20.50025 22.71027 21.60526
#
# Velocity S-wave (km/s) = 3.00786 3.16584 3.08786
# Velocity P-wave (km/s) = 4.70920 4.89836 4.80472
#
# Compressibility (1/GPa) = 0.04363654
#
# Stress axis : x y z
#
# Youngs Moduli (GPa) = 49.28846 49.28773 83.30701
#
# Poissons Ratio (x) = 0.11567 0.08854
# Poissons Ratio (y) = 0.11567 0.08855
# Poissons Ratio (z) = 0.05238 0.05239
#
# Static dielectric constant tensor:
#      x y z
#    x 1.901710 0.000000 0.000000 
#    y 0.000000 1.901710 0.000000 
#    z 0.000000 0.000000 1.861480 
# 
# From -- ./inp_files/4206.got.cif
#   From: 2010.05.17/outbox.cif.g08.bks.cpg/sg116_3_cif.got.tgz:4206.got - 2010.05.20 11:11:43.
