data_PCOD9557202
_publ_section_title
;
Structure prediction by ZEFSAII (Michael W. Deem and Ramdas Pophale) SiO2 
 PCOD9557202
Probable space group: P -4 M 2
;
_chemical_formula_sum "Si O2"
_cell_formula_units_Z 40
_cell_length_a 9.191446
_cell_length_b 9.191446
_cell_length_c 26.715608
_cell_angle_alpha 90.000000
_cell_angle_beta 90.000000
_cell_angle_gamma 90.000000
_cell_volume 2257.006150
_symmetry_space_group_name_H-M "P -4 M 2"
_symmetry_group_IT_number 115
_symmetry_cell_setting 'tetragonal'
loop_
_space_group_symop_operation_xyz
x,y,z
y,-x,-z
-x,-y,z
-y,x,-z
y,x,-z
-y,-x,-z
-x,y,z
x,-y,z
loop_
_atom_site_type_symbol
_atom_site_label
_atom_site_fract_x
_atom_site_fract_y
_atom_site_fract_z
Si Si1 0.326085 0.172073 0.453652
Si Si2 0.175241 0.673149 0.139559
Si Si3 0.329211 0.325702 0.648227
Si Si4 0.323091 0.831989 0.748472
Si Si5 0.173116 0.673184 0.953143
O O1 0.246388 0.246388 0.500000
O O2 0.500000 0.197153 0.458463
O O3 0.278641 0.242091 0.400915
O O4 0.300520 0.000000 0.453322
O O5 0.204405 0.500000 0.133946
O O6 0.218515 0.720112 0.195953
O O7 0.257205 0.761787 0.097151
O O8 0.000000 0.690987 0.135381
O O9 0.500000 0.287507 0.641919
O O10 0.319505 0.500000 0.651896
O O11 0.275118 0.257699 0.700243
O O12 0.500000 0.828157 0.748942
O O13 0.279505 0.000000 0.742817
O O14 0.198838 0.500000 0.954084
O O15 0.000000 0.697956 0.956007
O O16 0.251604 0.748397 0.000000
#
# Coordination Sequence:
#
# PCOD9557202 Si02
#       5
#     8   8   8   8   8
#     4  10  21  36  53  74 101 134 171 212 260 310
#     4   9  18  34  56  81 108 138 173 212 253 300
#     4   9  17  30  50  75 101 131 169 210 251 299
#     4   8  15  29  50  76 104 133 167 207 249 295
#     4  11  24  39  55  78 106 136 173 215 259 308
#
# _framework density 17.722594000000001
#
# number of rings (size 3 to 8) (size 9 to 14) (size 15 to 20)
#    0.000    2.600    0.000    3.000    0.000    7.200 
#    0.000    5.000    0.000    3.600    0.000    0.000 
#    0.000    0.000    0.000    0.000    0.000    0.000 
#
# Total GULP energy -223112.426938 kJ/mol
# GULP energy per Si atom -5577.810673 kJ/mol
# Density = 1.768226 g / cm^3
# Si number density = 17.722594 Si / 1000 Ang^3
#
#
#
# Elastic Constant Matrix: (Units=GPa)
#
#
# Indices 1 2 3 4 5 6 
#
# 1 58.4816 58.1672 85.0910 0.0000 0.0000 0.0000
# 2 58.1672 58.4823 85.0914 0.0000 0.0000 0.0000
# 3 85.0910 85.0914 224.3060 0.0000 0.0000 0.0000
# 4 0.0000 0.0000 0.0000 758.0065 0.0000 0.0000
# 5 0.0000 0.0000 0.0000 0.0000 758.6484 0.0000
# 6 0.0000 0.0000 0.0000 0.0000 0.0000 21.8417
#
#
#
# Elastic Compliance Matrix: (Units=1/GPa)
#
#
# Indices 1 2 3 4 5 6 
#
# 1 1.598247 -1.579036 -0.007285 0.000000 0.000000 0.000000
# 2 -1.579036 1.598220 -0.007281 0.000000 0.000000 0.000000
# 3 -0.007285 -0.007281 0.009984 0.000000 0.000000 0.000000
# 4 0.000000 0.000000 0.000000 0.001319 0.000000 0.000000
# 5 0.000000 0.000000 0.000000 0.000000 0.001318 0.000000
# 6 0.000000 0.000000 0.000000 0.000000 0.000000 0.045784
#
#
# Mechanical properties :
#
#
# Convention : Reuss Voigt Hill
#
# Bulk Modulus (GPa) = 51.95319 88.66323 70.30821
# Shear Modulus (GPa) = 0.77538 315.22735 158.00136
#
# Velocity S-wave (km/s) = 0.66216 13.35117 9.45230
# Velocity P-wave (km/s) = 5.47384 16.96492 12.60499
#
# Compressibility (1/GPa) = 0.01924810
#
# Stress axis : x y z
#
# Youngs Moduli (GPa) = 0.62569 0.62570 100.16427
#
# Poissons Ratio (x) = 0.98800 0.72965
# Poissons Ratio (y) = 0.98798 0.72927
# Poissons Ratio (z) = 0.00456 0.00456
#
# Static dielectric constant tensor:
#      x y z
#    x 1.586330 0.000000 0.000000 
#    y 0.000000 1.586340 0.000000 
#    z 0.000000 0.000000 1.597550 
# 
# From -- ./inp_files/5112.got.cif
#   From: 2010.05.17/outbox.cif.g08.bks.cpg/sg115_3_cif.got.tgz:5112.got - 2010.05.20 11:07:42.
