data_PCOD9557863
_publ_section_title
;
Structure prediction by ZEFSAII (Michael W. Deem and Ramdas Pophale) SiO2 
 PCOD9557863
Probable space group: P -4 C 2
;
_chemical_formula_sum "Si O2"
_cell_formula_units_Z 18
_cell_length_a 5.341016
_cell_length_b 5.341016
_cell_length_c 25.333325
_cell_angle_alpha 90.000000
_cell_angle_beta 90.000000
_cell_angle_gamma 90.000000
_cell_volume 722.669877
_symmetry_space_group_name_H-M "P -4 C 2"
_symmetry_group_IT_number 116
_symmetry_cell_setting 'tetragonal'
loop_
_space_group_symop_operation_xyz
x,y,z
y,-x,-z
-x,-y,z
-y,x,-z
y,x,1/2-z
-y,-x,1/2-z
-x,y,1/2+z
x,-y,1/2+z
loop_
_atom_site_type_symbol
_atom_site_label
_atom_site_fract_x
_atom_site_fract_y
_atom_site_fract_z
Si Si1 0.336520 0.246912 0.191837
Si Si2 0.500000 0.500000 0.000000
Si Si3 0.761945 0.158988 0.577336
O O1 0.500000 0.500000 0.191788
O O2 0.219822 0.219822 0.250000
O O3 0.183246 0.249035 0.137493
O O4 0.500000 0.000000 0.187220
O O5 0.387360 0.709024 0.961569
O O6 0.500000 0.000000 0.576637
O O7 0.000000 0.000000 0.560712
#
# Coordination Sequence:
#
# PCOD9557863 Si02
#       3
#     8   2   8
#     4  10  23  48  78 116 157 202 257 326 401 479
#     4  12  28  52  78 112 164 216 272 350 388 488
#     4  11  28  49  79 113 156 210 269 326 405 477
#
# _framework density 24.907640000000001
#
# number of rings (size 3 to 8) (size 9 to 14) (size 15 to 20)
#    0.000    1.333    2.222    0.000    6.222   15.111 
#    0.000    0.000    0.000    0.000    0.000    0.000 
#    0.000    0.000    0.000    0.000    0.000    0.000 
#
# Total GULP energy -100788.723850 kJ/mol
# GULP energy per Si atom -5599.373547 kJ/mol
# Density = 2.485095 g / cm^3
# Si number density = 24.907640 Si / 1000 Ang^3
#
#
#
# Elastic Constant Matrix: (Units=GPa)
#
#
# Indices 1 2 3 4 5 6 
#
# 1 132.6482 48.1688 43.5247 0.0000 0.0000 0.0000
# 2 48.1688 132.6482 43.5247 0.0000 0.0000 0.0000
# 3 43.5247 43.5247 255.4564 0.0000 0.0000 0.0000
# 4 0.0000 0.0000 0.0000 153.7764 0.0000 0.0000
# 5 0.0000 0.0000 0.0000 0.0000 153.7764 0.0000
# 6 0.0000 0.0000 0.0000 0.0000 0.0000 58.0584
#
#
#
# Elastic Compliance Matrix: (Units=1/GPa)
#
#
# Indices 1 2 3 4 5 6 
#
# 1 0.008931 -0.002906 -0.001026 0.000000 0.000000 0.000000
# 2 -0.002906 0.008931 -0.001026 0.000000 0.000000 0.000000
# 3 -0.001026 -0.001026 0.004264 0.000000 0.000000 0.000000
# 4 0.000000 0.000000 0.000000 0.006503 0.000000 0.000000
# 5 0.000000 0.000000 0.000000 0.000000 0.006503 0.000000
# 6 0.000000 0.000000 0.000000 0.000000 0.000000 0.017224
#
#
# Mechanical properties :
#
#
# Convention : Reuss Voigt Hill
#
# Bulk Modulus (GPa) = 81.91561 87.90991 84.91276
# Shear Modulus (GPa) = 75.36494 98.82455 87.09475
#
# Velocity S-wave (km/s) = 5.50667 6.30575 5.91971
# Velocity P-wave (km/s) = 8.56682 9.40147 8.99383
#
# Compressibility (1/GPa) = 0.01220769
#
# Stress axis : x y z
#
# Youngs Moduli (GPa) = 111.97055 111.97055 234.50264
#
# Poissons Ratio (x) = 0.32542 0.24071
# Poissons Ratio (y) = 0.32542 0.24071
# Poissons Ratio (z) = 0.11494 0.11494
#
# Static dielectric constant tensor:
#      x y z
#    x 1.818790 0.000000 0.000000 
#    y 0.000000 1.818790 0.000000 
#    z 0.000000 0.000000 2.064150 
# 
# From -- ./inp_files/4234.got.cif
#   From: 2010.05.17/outbox.cif.g08.bks.cpg/sg116_3_cif.got.tgz:4234.got - 2010.05.20 11:11:43.
