data_PCOD9557610
_publ_section_title
;
Structure prediction by ZEFSAII (Michael W. Deem and Ramdas Pophale) SiO2 
 PCOD9557610
Probable space group: P -4 C 2
;
_chemical_formula_sum "Si O2"
_cell_formula_units_Z 48
_cell_length_a 11.888444
_cell_length_b 11.888444
_cell_length_c 18.313564
_cell_angle_alpha 90.000000
_cell_angle_beta 90.000000
_cell_angle_gamma 90.000000
_cell_volume 2588.349413
_symmetry_space_group_name_H-M "P -4 C 2"
_symmetry_group_IT_number 116
_symmetry_cell_setting 'tetragonal'
loop_
_space_group_symop_operation_xyz
x,y,z
y,-x,-z
-x,-y,z
-y,x,-z
y,x,1/2-z
-y,-x,1/2-z
-x,y,1/2+z
x,-y,1/2+z
loop_
_atom_site_type_symbol
_atom_site_label
_atom_site_fract_x
_atom_site_fract_y
_atom_site_fract_z
Si Si1 0.635399 0.017604 0.599423
Si Si2 0.938219 0.615087 0.679287
Si Si3 0.773659 0.381594 0.436678
Si Si4 0.326261 0.858539 0.751768
Si Si5 0.604398 0.815428 0.974355
Si Si6 0.736190 0.439917 0.271056
O O1 0.665399 0.068622 0.677479
O O2 0.659579 0.108520 0.537252
O O3 0.500000 0.000000 0.600029
O O4 0.678483 0.894032 0.577625
O O5 0.887543 0.599481 0.599617
O O6 0.834197 0.636474 0.733592
O O7 0.000000 0.500000 0.704326
O O8 0.047469 0.692308 0.685481
O O9 0.786406 0.479654 0.496609
O O10 0.677847 0.294388 0.458733
O O11 0.744614 0.437175 0.358340
O O12 0.221639 0.778362 0.750000
O O13 0.436324 0.775433 0.756439
O O14 0.616958 0.383042 0.250000
#
# Coordination Sequence:
#
# PCOD9557610 Si02
#       6
#     8   8   8   8   8   8
#     4  10  19  40  62  82 122 169 199 248 303 362
#     4  10  20  37  62  91 115 160 220 252 278 378
#     4  11  22  41  63  89 124 163 201 253 317 364
#     4  11  22  37  64  95 128 159 206 258 311 364
#     4  11  23  37  64  93 120 159 205 254 309 370
#     4  11  20  39  65  88 123 164 201 247 314 368
#
# _framework density 18.544637000000002
#
# number of rings (size 3 to 8) (size 9 to 14) (size 15 to 20)
#    0.000    1.333    6.667    2.000    0.000    4.667 
#    0.000    1.667    0.000    7.000    0.000    0.000 
#    0.000    0.000    0.000    0.000    0.000    0.000 
#
# Total GULP energy -267487.951312 kJ/mol
# GULP energy per Si atom -5572.665652 kJ/mol
# Density = 1.850243 g / cm^3
# Si number density = 18.544637 Si / 1000 Ang^3
#
#
#
# Elastic Constant Matrix: (Units=GPa)
#
#
# Indices 1 2 3 4 5 6 
#
# 1 75.8328 43.5483 40.1747 0.0000 0.0000 0.0000
# 2 43.5483 75.8286 40.1745 0.0000 0.0000 0.0000
# 3 40.1747 40.1745 110.4564 0.0000 0.0000 0.0000
# 4 0.0000 0.0000 0.0000 20.7822 0.0000 0.0000
# 5 0.0000 0.0000 0.0000 0.0000 20.7833 0.0000
# 6 0.0000 0.0000 0.0000 0.0000 0.0000 21.1787
#
#
#
# Elastic Compliance Matrix: (Units=1/GPa)
#
#
# Indices 1 2 3 4 5 6 
#
# 1 0.021034 -0.009942 -0.004034 0.000000 0.000000 0.000000
# 2 -0.009942 0.021035 -0.004035 0.000000 0.000000 0.000000
# 3 -0.004034 -0.004035 0.011988 0.000000 0.000000 0.000000
# 4 0.000000 0.000000 0.000000 0.048118 0.000000 0.000000
# 5 0.000000 0.000000 0.000000 0.000000 0.048116 0.000000
# 6 0.000000 0.000000 0.000000 0.000000 0.000000 0.047217
#
#
# Mechanical properties :
#
#
# Convention : Reuss Voigt Hill
#
# Bulk Modulus (GPa) = 55.44846 56.65698 56.05272
# Shear Modulus (GPa) = 20.87323 21.76351 21.31837
#
# Velocity S-wave (km/s) = 3.35859 3.42946 3.39421
# Velocity P-wave (km/s) = 6.70858 6.80438 6.75665
#
# Compressibility (1/GPa) = 0.01803476
#
# Stress axis : x y z
#
# Youngs Moduli (GPa) = 47.54293 47.53974 83.41643
#
# Poissons Ratio (x) = 0.47265 0.33651
# Poissons Ratio (y) = 0.47269 0.33655
# Poissons Ratio (z) = 0.19179 0.19180
#
# Static dielectric constant tensor:
#      x y z
#    x 1.690720 0.000000 0.000000 
#    y 0.000000 1.690720 0.000000 
#    z 0.000000 0.000000 1.657680 
# 
# From -- ./inp_files/3375.got.cif
#   From: 2010.05.17/outbox.cif.g08.bks.cpg/sg116_2_cif.got.tgz:3375.got - 2010.05.20 11:11:43.
