data_PCOD9557507
_publ_section_title
;
Structure prediction by ZEFSAII (Michael W. Deem and Ramdas Pophale) SiO2 
 PCOD9557507
Probable space group: P -4 C 2
;
_chemical_formula_sum "Si O2"
_cell_formula_units_Z 48
_cell_length_a 14.237104
_cell_length_b 14.237104
_cell_length_c 11.945402
_cell_angle_alpha 90.000000
_cell_angle_beta 90.000000
_cell_angle_gamma 90.000000
_cell_volume 2421.274815
_symmetry_space_group_name_H-M "P -4 C 2"
_symmetry_group_IT_number 116
_symmetry_cell_setting 'tetragonal'
loop_
_space_group_symop_operation_xyz
x,y,z
y,-x,-z
-x,-y,z
-y,x,-z
y,x,1/2-z
-y,-x,1/2-z
-x,y,1/2+z
x,-y,1/2+z
loop_
_atom_site_type_symbol
_atom_site_label
_atom_site_fract_x
_atom_site_fract_y
_atom_site_fract_z
Si Si1 0.653354 0.122526 0.675593
Si Si2 0.729058 0.222079 0.475287
Si Si3 0.980396 0.827502 0.556104
Si Si4 0.352494 0.120559 0.428214
Si Si5 0.827383 0.016252 0.190715
Si Si6 0.224049 0.775952 0.250000
Si Si7 0.500000 0.000000 0.556474
O O1 0.662298 0.200048 0.578881
O O2 0.631946 0.152228 0.801010
O O3 0.753325 0.068703 0.684979
O O4 0.576874 0.049528 0.633051
O O5 0.790464 0.125628 0.461898
O O6 0.792537 0.310343 0.505259
O O7 0.699661 0.234889 0.347135
O O8 0.991319 0.871907 0.682511
O O9 0.042972 0.731895 0.566260
O O10 0.011133 0.871860 0.435589
O O11 0.444235 0.074060 0.480232
O O12 0.772749 0.116208 0.203312
#
# Coordination Sequence:
#
# PCOD9557507 Si02
#       7
#     8   8   8   8   8   4   4
#     4  10  21  34  50  76 106 144 181 227 276 335
#     4  10  18  33  51  74 103 144 184 221 271 330
#     4   9  17  30  48  71  98 134 179 218 262 318
#     4  11  20  34  53  77 107 143 184 228 282 325
#     4   9  16  29  45  69  95 128 176 219 268 311
#     4  10  16  26  50  72  97 130 186 227 270 314
#     4  12  20  36  52  84 110 136 184 232 288 322
#
# _framework density 19.824266000000001
#
# number of rings (size 3 to 8) (size 9 to 14) (size 15 to 20)
#    0.000    2.000    5.000    1.000    0.000    0.000 
#    3.000    0.000    0.000    0.500    0.000    4.667 
#    0.000    0.667    0.000    3.167    0.000    0.000 
#
# Total GULP energy -267404.401367 kJ/mol
# GULP energy per Si atom -5570.925028 kJ/mol
# Density = 1.977915 g / cm^3
# Si number density = 19.824266 Si / 1000 Ang^3
#
#
#
# Elastic Constant Matrix: (Units=GPa)
#
#
# Indices 1 2 3 4 5 6 
#
# 1 23.6850 -1.5557 27.6153 0.0000 0.0000 0.0000
# 2 -1.5557 23.6850 27.6151 0.0000 0.0000 0.0000
# 3 27.6153 27.6151 216.2477 0.0000 0.0000 0.0000
# 4 0.0000 0.0000 0.0000 7.2526 0.0000 0.0000
# 5 0.0000 0.0000 0.0000 0.0000 7.2522 0.0000
# 6 0.0000 0.0000 0.0000 0.0000 0.0000 23.3913
#
#
#
# Elastic Compliance Matrix: (Units=1/GPa)
#
#
# Indices 1 2 3 4 5 6 
#
# 1 0.052974 0.013355 -0.008470 0.000000 0.000000 0.000000
# 2 0.013355 0.052974 -0.008470 0.000000 0.000000 0.000000
# 3 -0.008470 -0.008470 0.006788 0.000000 0.000000 0.000000
# 4 0.000000 0.000000 0.000000 0.137882 0.000000 0.000000
# 5 0.000000 0.000000 0.000000 0.000000 0.137890 0.000000
# 6 0.000000 0.000000 0.000000 0.000000 0.000000 0.042751
#
#
# Mechanical properties :
#
#
# Convention : Reuss Voigt Hill
#
# Bulk Modulus (GPa) = 9.47285 41.21858 25.34572
# Shear Modulus (GPa) = 10.55704 21.57541 16.06623
#
# Velocity S-wave (km/s) = 2.31017 3.30257 2.84990
# Velocity P-wave (km/s) = 3.45031 5.94809 4.86232
#
# Compressibility (1/GPa) = 0.10556483
#
# Stress axis : x y z
#
# Youngs Moduli (GPa) = 18.87715 18.87723 147.32557
#
# Poissons Ratio (x) = -0.25211 1.24791
# Poissons Ratio (y) = -0.25211 1.24790
# Poissons Ratio (z) = 0.15990 0.15990
#
# Static dielectric constant tensor:
#      x y z
#    x 1.728420 0.000000 0.000000 
#    y 0.000000 1.728420 0.000000 
#    z 0.000000 0.000000 1.836440 
# 
# From -- ./inp_files/1939.got.cif
#   From: 2010.05.17/outbox.cif.g08.bks.cpg/sg116_1_cif.got.tgz:1939.got - 2010.05.20 11:11:43.
