data_PCOD9557352
_publ_section_title
;
Structure prediction by ZEFSAII (Michael W. Deem and Ramdas Pophale) SiO2 
 PCOD9557352
Probable space group: P -4 M 2
;
_chemical_formula_sum "Si O2"
_cell_formula_units_Z 48
_cell_length_a 9.052580
_cell_length_b 9.052580
_cell_length_c 32.218642
_cell_angle_alpha 90.000000
_cell_angle_beta 90.000000
_cell_angle_gamma 90.000000
_cell_volume 2640.292087
_symmetry_space_group_name_H-M "P -4 M 2"
_symmetry_group_IT_number 115
_symmetry_cell_setting 'tetragonal'
loop_
_space_group_symop_operation_xyz
x,y,z
y,-x,-z
-x,-y,z
-y,x,-z
y,x,-z
-y,-x,-z
-x,y,z
x,-y,z
loop_
_atom_site_type_symbol
_atom_site_label
_atom_site_fract_x
_atom_site_fract_y
_atom_site_fract_z
Si Si1 0.677681 0.676527 0.364407
Si Si2 0.824184 0.675184 0.039849
Si Si3 0.678637 0.323795 0.544589
Si Si4 0.826219 0.176079 0.714822
Si Si5 0.326023 0.676937 0.793915
Si Si6 0.676795 0.174791 0.119135
O O1 0.500000 0.697140 0.362289
O O2 0.703915 0.500000 0.361019
O O3 0.731315 0.727984 0.410259
O O4 0.754528 0.759338 0.326879
O O5 0.795364 0.500000 0.040234
O O6 0.759902 0.748008 0.081367
O O7 0.000000 0.698056 0.037565
O O8 0.747802 0.747802 0.000000
O O9 0.734686 0.265315 0.500000
O O10 0.500000 0.307959 0.544292
O O11 0.707379 0.500000 0.544710
O O12 0.744284 0.243039 0.754616
O O13 0.000000 0.210214 0.717563
O O14 0.807455 0.000000 0.714076
O O15 0.500000 0.708826 0.796847
O O16 0.308472 0.500000 0.788605
O O17 0.245817 0.718830 0.836753
O O18 0.500000 0.196023 0.113825
O O19 0.706039 0.000000 0.119394
#
# Coordination Sequence:
#
# PCOD9557352 Si02
#       6
#     8   8   8   8   8   8
#     4   9  17  30  51  78 103 129 166 211 259 312
#     4  11  24  40  59  85 116 151 191 232 274 319
#     4   7  10  19  39  69 101 127 154 197 253 307
#     4  11  24  38  51  71 102 140 179 217 260 311
#     4  10  21  38  61  86 109 136 174 219 267 319
#     4  10  21  38  61  88 116 146 180 218 264 319
#
# _framework density 18.179808000000001
#
# number of rings (size 3 to 8) (size 9 to 14) (size 15 to 20)
#    0.000    2.333    0.000    4.500    0.000    9.667 
#    0.000    0.000    0.000    1.000    0.000    5.833 
#    0.000    0.000    0.000    0.000    0.000    0.000 
#
# Total GULP energy -267830.690535 kJ/mol
# GULP energy per Si atom -5579.806053 kJ/mol
# Density = 1.813843 g / cm^3
# Si number density = 18.179808 Si / 1000 Ang^3
#
#
#
# Elastic Constant Matrix: (Units=GPa)
#
#
# Indices 1 2 3 4 5 6 
#
# 1 68.8345 68.4196 87.1967 0.0000 0.0000 0.0000
# 2 68.4196 68.8347 87.1968 0.0000 0.0000 0.0000
# 3 87.1967 87.1968 224.9898 0.0000 0.0000 0.0000
# 4 0.0000 0.0000 0.0000 -39.9594 0.0000 0.0000
# 5 0.0000 0.0000 0.0000 0.0000 -39.9590 0.0000
# 6 0.0000 0.0000 0.0000 0.0000 0.0000 25.9168
#
#
#
# Elastic Compliance Matrix: (Units=1/GPa)
#
#
# Indices 1 2 3 4 5 6 
#
# 1 1.211956 -1.197599 -0.005564 0.000000 0.000000 0.000000
# 2 -1.197599 1.211951 -0.005562 0.000000 0.000000 0.000000
# 3 -0.005564 -0.005562 0.008757 0.000000 0.000000 0.000000
# 4 0.000000 0.000000 0.000000 -0.025025 0.000000 0.000000
# 5 0.000000 0.000000 0.000000 0.000000 -0.025026 0.000000
# 6 0.000000 0.000000 0.000000 0.000000 0.000000 0.038585
#
#
# Mechanical properties :
#
#
# Convention : Reuss Voigt Hill
#
# Bulk Modulus (GPa) = 65.73475 94.25390 79.99433
# Shear Modulus (GPa) = 1.03226 -2.81059 -0.88916
#
# Velocity S-wave (km/s) = 0.75435 -1.24473 -0.70011
# Velocity P-wave (km/s) = 6.08238 7.06344 6.59119
#
# Compressibility (1/GPa) = 0.01521265
#
# Stress axis : x y z
#
# Youngs Moduli (GPa) = 0.82511 0.82512 114.19862
#
# Poissons Ratio (x) = 0.98816 0.63537
# Poissons Ratio (y) = 0.98815 0.63522
# Poissons Ratio (z) = 0.00459 0.00459
#
# Static dielectric constant tensor:
#      x y z
#    x 1.602020 0.000000 0.000000 
#    y 0.000000 1.602020 0.000000 
#    z 0.000000 0.000000 1.624030 
# 
# From -- ./inp_files/5932.got.cif
#   From: 2010.05.17/outbox.cif.g08.bks.cpg/sg115_3_cif.got.tgz:5932.got - 2010.05.20 11:07:42.
