data_PCOD9557541
_publ_section_title
;
Structure prediction by ZEFSAII (Michael W. Deem and Ramdas Pophale) SiO2 
 PCOD9557541
Probable space group: P -4 C 2
;
_chemical_formula_sum "Si O2"
_cell_formula_units_Z 32
_cell_length_a 11.646608
_cell_length_b 11.646608
_cell_length_c 9.287273
_cell_angle_alpha 90.000000
_cell_angle_beta 90.000000
_cell_angle_gamma 90.000000
_cell_volume 1259.758010
_symmetry_space_group_name_H-M "P -4 C 2"
_symmetry_group_IT_number 116
_symmetry_cell_setting 'tetragonal'
loop_
_space_group_symop_operation_xyz
x,y,z
y,-x,-z
-x,-y,z
-y,x,-z
y,x,1/2-z
-y,-x,1/2-z
-x,y,1/2+z
x,-y,1/2+z
loop_
_atom_site_type_symbol
_atom_site_label
_atom_site_fract_x
_atom_site_fract_y
_atom_site_fract_z
Si Si1 0.872155 0.127846 0.750000
Si Si2 0.080291 0.642495 0.908919
Si Si3 0.808128 0.652011 0.923229
Si Si4 0.497210 0.808108 0.836404
Si Si5 0.132945 0.867056 0.250000
O O1 0.875069 0.230939 0.864167
O O2 0.002671 0.141285 0.692299
O O3 0.103137 0.574813 0.760243
O O4 0.945788 0.628718 0.942944
O O5 0.146901 0.585031 0.041863
O O6 0.758017 0.577925 0.789593
O O7 0.825623 0.781541 0.873251
O O8 0.748614 0.602949 0.067201
#
# Coordination Sequence:
#
# PCOD9557541 Si02
#       5
#     4   8   8   8   4
#     4   9  20  36  54  82 122 161 184 210 272 357
#     4  10  18  32  52  74 104 141 185 229 269 320
#     4  10  18  32  52  74 104 141 185 229 269 320
#     4  10  19  32  52  74  98 139 190 239 274 298
#     4   9  20  36  54  82 122 161 184 210 272 357
#
# _framework density 25.401703999999999
#
# number of rings (size 3 to 8) (size 9 to 14) (size 15 to 20)
#    0.000    2.250    0.000    6.000    0.000    2.000 
#    0.000    7.500    0.000   18.000    0.000    0.000 
#    0.000   70.000    0.000    0.000    0.000    0.000 
#
# Total GULP energy -178318.683037 kJ/mol
# GULP energy per Si atom -5572.458845 kJ/mol
# Density = 2.534389 g / cm^3
# Si number density = 25.401704 Si / 1000 Ang^3
#
#
#
# Elastic Constant Matrix: (Units=GPa)
#
#
# Indices 1 2 3 4 5 6 
#
# 1 90.7536 10.5525 22.8134 0.0000 0.0000 0.0000
# 2 10.5525 90.7517 22.8139 0.0000 0.0000 0.0000
# 3 22.8134 22.8139 163.6489 0.0000 0.0000 0.0000
# 4 0.0000 0.0000 0.0000 11.9162 0.0000 0.0000
# 5 0.0000 0.0000 0.0000 0.0000 11.9162 0.0000
# 6 0.0000 0.0000 0.0000 0.0000 0.0000 6.9310
#
#
#
# Elastic Compliance Matrix: (Units=1/GPa)
#
#
# Indices 1 2 3 4 5 6 
#
# 1 0.011501 -0.000968 -0.001468 0.000000 0.000000 0.000000
# 2 -0.000968 0.011501 -0.001468 0.000000 0.000000 0.000000
# 3 -0.001468 -0.001468 0.006520 0.000000 0.000000 0.000000
# 4 0.000000 0.000000 0.000000 0.083919 0.000000 0.000000
# 5 0.000000 0.000000 0.000000 0.000000 0.083919 0.000000
# 6 0.000000 0.000000 0.000000 0.000000 0.000000 0.144278
#
#
# Mechanical properties :
#
#
# Convention : Reuss Voigt Hill
#
# Bulk Modulus (GPa) = 46.05789 50.83487 48.44638
# Shear Modulus (GPa) = 14.01798 25.41766 19.71782
#
# Velocity S-wave (km/s) = 2.35170 3.16670 2.78913
# Velocity P-wave (km/s) = 5.05422 5.78157 5.43009
#
# Compressibility (1/GPa) = 0.02171181
#
# Stress axis : x y z
#
# Youngs Moduli (GPa) = 86.95271 86.95068 153.37379
#
# Poissons Ratio (x) = 0.08418 0.22519
# Poissons Ratio (y) = 0.08418 0.22520
# Poissons Ratio (z) = 0.12767 0.12767
#
# Static dielectric constant tensor:
#      x y z
#    x 2.154950 0.000000 0.000000 
#    y 0.000000 2.154950 0.000000 
#    z 0.000000 0.000000 2.009430 
# 
# From -- ./inp_files/657.got.cif
#   From: 2010.05.17/outbox.cif.g08.bks.cpg/sg116_1_cif.got.tgz:657.got - 2010.05.20 11:11:43.
