data_PCOD9557291
_publ_section_title
;
Structure prediction by ZEFSAII (Michael W. Deem and Ramdas Pophale) SiO2 
 PCOD9557291
Probable space group: P -4 M 2
;
_chemical_formula_sum "Si O2"
_cell_formula_units_Z 48
_cell_length_a 9.073276
_cell_length_b 9.073276
_cell_length_c 32.079230
_cell_angle_alpha 90.000000
_cell_angle_beta 90.000000
_cell_angle_gamma 90.000000
_cell_volume 2640.901353
_symmetry_space_group_name_H-M "P -4 M 2"
_symmetry_group_IT_number 115
_symmetry_cell_setting 'tetragonal'
loop_
_space_group_symop_operation_xyz
x,y,z
y,-x,-z
-x,-y,z
-y,x,-z
y,x,-z
-y,-x,-z
-x,y,z
x,-y,z
loop_
_atom_site_type_symbol
_atom_site_label
_atom_site_fract_x
_atom_site_fract_y
_atom_site_fract_z
Si Si1 0.824783 0.675470 0.380020
Si Si2 0.322237 0.171756 0.961170
Si Si3 0.179522 0.670924 0.130313
Si Si4 0.176840 0.325776 0.699137
Si Si5 0.824353 0.675673 0.540065
Si Si6 0.176731 0.827944 0.784960
O O1 0.800109 0.500000 0.382203
O O2 0.759603 0.740213 0.337371
O O3 0.745240 0.754458 0.418559
O O4 0.000000 0.702209 0.382047
O O5 0.500000 0.177806 0.960875
O O6 0.272896 0.227288 0.915306
O O7 0.279466 0.000000 0.965255
O O8 0.259759 0.259759 0.000000
O O9 0.222071 0.500000 0.134364
O O10 0.226737 0.757309 0.171378
O O11 0.000000 0.676027 0.129196
O O12 0.204804 0.500000 0.696221
O O13 0.221460 0.263899 0.744405
O O14 0.000000 0.302628 0.694707
O O15 0.750089 0.750089 0.500000
O O16 0.799242 0.500000 0.539394
O O17 0.000000 0.700996 0.539485
O O18 0.000000 0.822781 0.787817
O O19 0.219829 0.000000 0.779297
#
# Coordination Sequence:
#
# PCOD9557291 Si02
#       6
#     8   8   8   8   8   8
#     4  11  24  40  59  85 114 145 185 229 271 318
#     4   9  18  32  49  71  99 131 168 210 257 309
#     4   8  15  29  48  69  95 127 164 208 256 306
#     4  10  21  37  56  79 109 144 179 216 263 318
#     4  11  24  41  62  89 119 151 188 228 271 320
#     4   9  17  30  50  75 101 131 169 212 258 309
#
# _framework density 18.175613999999999
#
# number of rings (size 3 to 8) (size 9 to 14) (size 15 to 20)
#    0.000    2.333    0.000    3.500    0.000    9.333 
#    0.000    4.167    0.000    3.000    0.000    0.000 
#    0.000    0.000    0.000    0.000    0.000    0.000 
#
# Total GULP energy -267880.911651 kJ/mol
# GULP energy per Si atom -5580.852326 kJ/mol
# Density = 1.813425 g / cm^3
# Si number density = 18.175614 Si / 1000 Ang^3
#
#
#
# Elastic Constant Matrix: (Units=GPa)
#
#
# Indices 1 2 3 4 5 6 
#
# 1 68.2005 62.6993 76.8164 0.0000 0.0000 0.0000
# 2 62.6993 68.2005 76.8164 0.0000 0.0000 0.0000
# 3 76.8164 76.8164 206.4612 0.0000 0.0000 0.0000
# 4 0.0000 0.0000 0.0000 77.5837 0.0000 0.0000
# 5 0.0000 0.0000 0.0000 0.0000 77.5837 0.0000
# 6 0.0000 0.0000 0.0000 0.0000 0.0000 23.7898
#
#
#
# Elastic Compliance Matrix: (Units=1/GPa)
#
#
# Indices 1 2 3 4 5 6 
#
# 1 0.097670 -0.084108 -0.005046 0.000000 0.000000 0.000000
# 2 -0.084108 0.097670 -0.005046 0.000000 0.000000 0.000000
# 3 -0.005046 -0.005046 0.008598 0.000000 0.000000 0.000000
# 4 0.000000 0.000000 0.000000 0.012889 0.000000 0.000000
# 5 0.000000 0.000000 0.000000 0.000000 0.012889 0.000000
# 6 0.000000 0.000000 0.000000 0.000000 0.000000 0.042035
#
#
# Mechanical properties :
#
#
# Convention : Reuss Voigt Hill
#
# Bulk Modulus (GPa) = 64.35756 86.16960 75.26358
# Shear Modulus (GPa) = 10.74507 44.22679 27.48593
#
# Velocity S-wave (km/s) = 2.43406 4.93820 3.89297
# Velocity P-wave (km/s) = 6.58674 8.94577 7.85532
#
# Compressibility (1/GPa) = 0.01553819
#
# Stress axis : x y z
#
# Youngs Moduli (GPa) = 10.23859 10.23859 116.30424
#
# Poissons Ratio (x) = 0.86115 0.58683
# Poissons Ratio (y) = 0.86115 0.58683
# Poissons Ratio (z) = 0.05166 0.05166
#
# Static dielectric constant tensor:
#      x y z
#    x 1.609220 0.000000 0.000000 
#    y 0.000000 1.609220 0.000000 
#    z 0.000000 0.000000 1.613210 
# 
# From -- ./inp_files/6011.got.cif
#   From: 2010.05.17/outbox.cif.g08.bks.cpg/sg115_4_cif.got.tgz:6011.got - 2010.05.20 11:07:42.
