data_PCOD9557155
_publ_section_title
;
Structure prediction by ZEFSAII (Michael W. Deem and Ramdas Pophale) SiO2 
 PCOD9557155
Probable space group: P -4 M 2
;
_chemical_formula_sum "Si O2"
_cell_formula_units_Z 32
_cell_length_a 9.409412
_cell_length_b 9.409412
_cell_length_c 21.323548
_cell_angle_alpha 90.000000
_cell_angle_beta 90.000000
_cell_angle_gamma 90.000000
_cell_volume 1887.923698
_symmetry_space_group_name_H-M "P -4 M 2"
_symmetry_group_IT_number 115
_symmetry_cell_setting 'tetragonal'
loop_
_space_group_symop_operation_xyz
x,y,z
y,-x,-z
-x,-y,z
-y,x,-z
y,x,-z
-y,-x,-z
-x,y,z
x,-y,z
loop_
_atom_site_type_symbol
_atom_site_label
_atom_site_fract_x
_atom_site_fract_y
_atom_site_fract_z
Si Si1 0.329992 0.830328 0.236867
Si Si2 0.833005 0.329601 0.126944
Si Si3 0.169073 0.830928 0.500000
Si Si4 0.172900 0.664153 0.622534
Si Si5 0.331574 0.668427 0.000000
O O1 0.500000 0.806979 0.230721
O O2 0.244844 0.748464 0.183818
O O3 0.288137 0.784327 0.307631
O O4 0.306364 0.000000 0.231402
O O5 0.818013 0.500000 0.134303
O O6 0.000000 0.295467 0.125383
O O7 0.757767 0.291514 0.061259
O O8 0.221022 0.755675 0.563403
O O9 0.000000 0.807526 0.494462
O O10 0.215066 0.500000 0.614583
O O11 0.000000 0.667716 0.622881
O O12 0.500000 0.689746 0.012260
#
# Coordination Sequence:
#
# PCOD9557155 Si02
#       5
#     8   8   4   8   4
#     4   9  18  33  53  74  96 128 169 206 241 287
#     4  10  21  35  51  75 105 131 158 198 245 290
#     4   9  16  26  44  69  92 118 156 197 234 278
#     4   8  15  29  47  67  93 124 157 194 237 284
#     4   9  18  34  54  71  92 130 172 201 232 283
#
# _framework density 16.949838
#
# number of rings (size 3 to 8) (size 9 to 14) (size 15 to 20)
#    0.000    3.000    0.000    2.250    0.000    4.000 
#    0.000    6.250    0.000    4.875    0.000    0.000 
#    0.000    0.000    0.000    0.000    0.000    0.000 
#
# Total GULP energy -178317.020874 kJ/mol
# GULP energy per Si atom -5572.406902 kJ/mol
# Density = 1.691126 g / cm^3
# Si number density = 16.949838 Si / 1000 Ang^3
#
#
#
# Elastic Constant Matrix: (Units=GPa)
#
#
# Indices 1 2 3 4 5 6 
#
# 1 45.3233 44.4216 84.3490 0.0000 0.0000 0.0000
# 2 44.4216 45.3233 84.3490 0.0000 0.0000 0.0000
# 3 84.3490 84.3490 221.3251 0.0000 0.0000 0.0000
# 4 0.0000 0.0000 0.0000 35.7854 0.0000 0.0000
# 5 0.0000 0.0000 0.0000 0.0000 35.7857 0.0000
# 6 0.0000 0.0000 0.0000 0.0000 0.0000 21.7789
#
#
#
# Elastic Compliance Matrix: (Units=1/GPa)
#
#
# Indices 1 2 3 4 5 6 
#
# 1 0.574170 -0.534882 -0.014973 0.000000 0.000000 0.000000
# 2 -0.534882 0.574172 -0.014974 0.000000 0.000000 0.000000
# 3 -0.014973 -0.014974 0.015931 0.000000 0.000000 0.000000
# 4 0.000000 0.000000 0.000000 0.027944 0.000000 0.000000
# 5 0.000000 0.000000 0.000000 0.000000 0.027944 0.000000
# 6 0.000000 0.000000 0.000000 0.000000 0.000000 0.045916
#
#
# Mechanical properties :
#
#
# Convention : Reuss Voigt Hill
#
# Bulk Modulus (GPa) = 28.88879 82.02343 55.45611
# Shear Modulus (GPa) = 2.07704 25.26015 13.66859
#
# Velocity S-wave (km/s) = 1.10818 3.86461 2.84282
# Velocity P-wave (km/s) = 4.32644 8.27107 6.60033
#
# Compressibility (1/GPa) = 0.03461551
#
# Stress axis : x y z
#
# Youngs Moduli (GPa) = 1.74165 1.74164 62.77001
#
# Poissons Ratio (x) = 0.93157 0.93983
# Poissons Ratio (y) = 0.93158 0.93992
# Poissons Ratio (z) = 0.02608 0.02608
#
# Static dielectric constant tensor:
#      x y z
#    x 1.562800 0.000000 0.000000 
#    y 0.000000 1.562800 0.000000 
#    z 0.000000 0.000000 1.566470 
# 
# From -- ./inp_files/5042.got.cif
#   From: 2010.05.17/outbox.cif.g08.bks.cpg/sg115_3_cif.got.tgz:5042.got - 2010.05.20 11:07:42.
