data_PCOD9557994
_publ_section_title
;
Structure prediction by ZEFSAII (Michael W. Deem and Ramdas Pophale) SiO2 
 PCOD9557994
Probable space group: P -4 C 2
;
_chemical_formula_sum "Si O2"
_cell_formula_units_Z 40
_cell_length_a 14.186050
_cell_length_b 14.186050
_cell_length_c 8.975089
_cell_angle_alpha 90.000000
_cell_angle_beta 90.000000
_cell_angle_gamma 90.000000
_cell_volume 1806.182942
_symmetry_space_group_name_H-M "P -4 C 2"
_symmetry_group_IT_number 116
_symmetry_cell_setting 'tetragonal'
loop_
_space_group_symop_operation_xyz
x,y,z
y,-x,-z
-x,-y,z
-y,x,-z
y,x,1/2-z
-y,-x,1/2-z
-x,y,1/2+z
x,-y,1/2+z
loop_
_atom_site_type_symbol
_atom_site_label
_atom_site_fract_x
_atom_site_fract_y
_atom_site_fract_z
Si Si1 0.532686 0.260210 0.164674
Si Si2 0.721877 0.022923 0.459630
Si Si3 0.198046 0.186037 0.424987
Si Si4 0.304260 0.632697 0.025625
Si Si5 0.050882 0.591061 0.307248
O O1 0.590426 0.334520 0.063578
O O2 0.567819 0.272891 0.334510
O O3 0.559462 0.151968 0.129863
O O4 0.425099 0.282213 0.124044
O O5 0.802086 0.090214 0.524224
O O6 0.678174 0.059928 0.305952
O O7 0.759281 0.916660 0.449797
O O8 0.631978 0.018758 0.568408
O O9 0.206321 0.206321 0.250000
O O10 0.249773 0.268422 0.516164
O O11 0.000000 0.500000 0.237090
#
# Coordination Sequence:
#
# PCOD9557994 Si02
#       5
#     8   8   8   8   8
#     4  11  26  45  72 108 148 196 246 312 375 449
#     4  12  26  46  74 106 150 199 252 317 378 455
#     4  12  26  48  73 110 150 199 251 320 385 453
#     4  11  26  46  74 107 150 195 246 309 380 448
#     4  12  25  43  72 111 147 193 256 318 376 443
#
# _framework density 22.146152000000001
#
# number of rings (size 3 to 8) (size 9 to 14) (size 15 to 20)
#    0.000    0.400    6.000    1.800    5.600    1.600 
#    0.000    3.000    0.000    0.000    0.000    0.000 
#    0.000    0.000    0.000    0.000    0.000    0.000 
#
# Total GULP energy -223654.587248 kJ/mol
# GULP energy per Si atom -5591.364681 kJ/mol
# Density = 2.209575 g / cm^3
# Si number density = 22.146152 Si / 1000 Ang^3
#
#
#
# Elastic Constant Matrix: (Units=GPa)
#
#
# Indices 1 2 3 4 5 6 
#
# 1 104.0187 46.3852 16.7818 0.0000 0.0000 0.0000
# 2 46.3852 104.0187 16.7818 0.0000 0.0000 0.0000
# 3 16.7818 16.7818 65.6049 0.0000 0.0000 0.0000
# 4 0.0000 0.0000 0.0000 28.7017 0.0000 0.0000
# 5 0.0000 0.0000 0.0000 0.0000 28.7017 0.0000
# 6 0.0000 0.0000 0.0000 0.0000 0.0000 28.6311
#
#
#
# Elastic Compliance Matrix: (Units=1/GPa)
#
#
# Indices 1 2 3 4 5 6 
#
# 1 0.012201 -0.005150 -0.001804 0.000000 0.000000 0.000000
# 2 -0.005150 0.012201 -0.001804 0.000000 0.000000 0.000000
# 3 -0.001804 -0.001804 0.016166 0.000000 0.000000 0.000000
# 4 0.000000 0.000000 0.000000 0.034841 0.000000 0.000000
# 5 0.000000 0.000000 0.000000 0.000000 0.034841 0.000000
# 6 0.000000 0.000000 0.000000 0.000000 0.000000 0.034927
#
#
# Mechanical properties :
#
#
# Convention : Reuss Voigt Hill
#
# Bulk Modulus (GPa) = 43.37789 48.17109 45.77449
# Shear Modulus (GPa) = 29.34682 30.11981 29.73331
#
# Velocity S-wave (km/s) = 3.64420 3.69188 3.66812
# Velocity P-wave (km/s) = 6.11036 6.32234 6.21726
#
# Compressibility (1/GPa) = 0.02305322
#
# Stress axis : x y z
#
# Youngs Moduli (GPa) = 81.95952 81.95952 61.85994
#
# Poissons Ratio (x) = 0.42208 0.11158
# Poissons Ratio (y) = 0.42208 0.11158
# Poissons Ratio (z) = 0.14783 0.14783
#
# Static dielectric constant tensor:
#      x y z
#    x 1.810500 0.000000 0.000000 
#    y 0.000000 1.810500 0.000000 
#    z 0.000000 0.000000 1.865700 
# 
# From -- ./inp_files/783.got.cif
#   From: 2010.05.17/outbox.cif.g08.bks.cpg/sg116_1_cif.got.tgz:783.got - 2010.05.20 11:11:43.
