data_PCOD9557252
_publ_section_title
;
Structure prediction by ZEFSAII (Michael W. Deem and Ramdas Pophale) SiO2 
 PCOD9557252
Probable space group: P -4 M 2
;
_chemical_formula_sum "Si O2"
_cell_formula_units_Z 48
_cell_length_a 9.250708
_cell_length_b 9.250708
_cell_length_c 31.652591
_cell_angle_alpha 90.000000
_cell_angle_beta 90.000000
_cell_angle_gamma 90.000000
_cell_volume 2708.689419
_symmetry_space_group_name_H-M "P -4 M 2"
_symmetry_group_IT_number 115
_symmetry_cell_setting 'tetragonal'
loop_
_space_group_symop_operation_xyz
x,y,z
y,-x,-z
-x,-y,z
-y,x,-z
y,x,-z
-y,-x,-z
-x,y,z
x,-y,z
loop_
_atom_site_type_symbol
_atom_site_label
_atom_site_fract_x
_atom_site_fract_y
_atom_site_fract_z
Si Si1 0.328669 0.328669 0.000000
Si Si2 0.172102 0.171705 0.328000
Si Si3 0.327275 0.170633 0.836310
Si Si4 0.172912 0.329909 0.414271
Si Si5 0.328164 0.671837 0.500000
Si Si6 0.329295 0.327242 0.250944
Si Si7 0.828245 0.328255 0.913216
O O1 0.240894 0.287155 0.958258
O O2 0.306339 0.500000 0.007648
O O3 0.215801 0.241204 0.372811
O O4 0.258298 0.244439 0.289935
O O5 0.000000 0.199812 0.322483
O O6 0.193954 0.000000 0.328579
O O7 0.500000 0.189834 0.842375
O O8 0.287322 0.250534 0.792775
O O9 0.244424 0.240395 0.875480
O O10 0.297978 0.000000 0.832952
O O11 0.207550 0.500000 0.407936
O O12 0.248654 0.280420 0.457358
O O13 0.000000 0.317646 0.419156
O O14 0.500000 0.696019 0.495287
O O15 0.500000 0.297856 0.247984
O O16 0.309955 0.500000 0.256951
O O17 0.799760 0.500000 0.907160
O O18 0.000000 0.306602 0.913839
#
# Coordination Sequence:
#
# PCOD9557252 Si02
#       7
#     4   8   8   8   4   8   8
#     4   9  18  34  56  79 106 144 186 225 264 309
#     4  10  21  36  54  78 108 141 176 215 262 315
#     4  10  21  37  58  82 107 139 179 220 263 314
#     4   9  18  33  52  73 100 136 174 212 258 312
#     4   9  18  32  50  73 100 130 168 215 262 307
#     4  10  21  37  58  82 106 136 176 220 265 314
#     4  10  21  36  55  81 112 144 178 219 267 316
#
# _framework density 17.720748
#
# number of rings (size 3 to 8) (size 9 to 14) (size 15 to 20)
#    0.000    2.333    0.000    2.000    0.000    6.667 
#    0.000    3.333    0.000    0.000    0.000    0.000 
#    0.000    0.000    0.000    0.000    0.000    0.000 
#
# Total GULP energy -267985.806806 kJ/mol
# GULP energy per Si atom -5583.037642 kJ/mol
# Density = 1.768041 g / cm^3
# Si number density = 17.720748 Si / 1000 Ang^3
#
#
#
# Elastic Constant Matrix: (Units=GPa)
#
#
# Indices 1 2 3 4 5 6 
#
# 1 68.6309 66.3998 99.5865 0.0000 0.0000 0.0000
# 2 66.3998 68.6306 99.5865 0.0000 0.0000 0.0000
# 3 99.5865 99.5865 218.7351 0.0000 0.0000 0.0000
# 4 0.0000 0.0000 0.0000 276.9503 0.0000 0.0000
# 5 0.0000 0.0000 0.0000 0.0000 276.8130 0.0000
# 6 0.0000 0.0000 0.0000 0.0000 0.0000 24.7466
#
#
#
# Elastic Compliance Matrix: (Units=1/GPa)
#
#
# Indices 1 2 3 4 5 6 
#
# 1 0.235392 -0.212845 -0.010265 0.000000 0.000000 0.000000
# 2 -0.212845 0.235395 -0.010266 0.000000 0.000000 0.000000
# 3 -0.010265 -0.010266 0.013919 0.000000 0.000000 0.000000
# 4 0.000000 0.000000 0.000000 0.003611 0.000000 0.000000
# 5 0.000000 0.000000 0.000000 0.000000 0.003613 0.000000
# 6 0.000000 0.000000 0.000000 0.000000 0.000000 0.040410
#
#
# Mechanical properties :
#
#
# Convention : Reuss Voigt Hill
#
# Bulk Modulus (GPa) = 55.70329 98.57135 77.13732
# Shear Modulus (GPa) = 4.97475 121.73022 63.35248
#
# Velocity S-wave (km/s) = 1.67732 8.29715 5.98566
# Velocity P-wave (km/s) = 5.93746 12.14644 9.56005
#
# Compressibility (1/GPa) = 0.01795226
#
# Stress axis : x y z
#
# Youngs Moduli (GPa) = 4.24824 4.24818 71.84295
#
# Poissons Ratio (x) = 0.90421 0.73746
# Poissons Ratio (y) = 0.90422 0.73756
# Poissons Ratio (z) = 0.04361 0.04361
#
# Static dielectric constant tensor:
#      x y z
#    x 1.590820 0.000000 0.000000 
#    y 0.000000 1.590820 0.000000 
#    z 0.000000 0.000000 1.568440 
# 
# From -- ./inp_files/6144.got.cif
#   From: 2010.05.17/outbox.cif.g08.bks.cpg/sg115_4_cif.got.tgz:6144.got - 2010.05.20 11:07:42.
