data_PCOD9557515
_publ_section_title
;
Structure prediction by ZEFSAII (Michael W. Deem and Ramdas Pophale) SiO2 
 PCOD9557515
Probable space group: P -4 C 2
;
_chemical_formula_sum "Si O2"
_cell_formula_units_Z 30
_cell_length_a 11.956189
_cell_length_b 11.956189
_cell_length_c 11.043690
_cell_angle_alpha 90.000000
_cell_angle_beta 90.000000
_cell_angle_gamma 90.000000
_cell_volume 1578.700515
_symmetry_space_group_name_H-M "P -4 C 2"
_symmetry_group_IT_number 116
_symmetry_cell_setting 'tetragonal'
loop_
_space_group_symop_operation_xyz
x,y,z
y,-x,-z
-x,-y,z
-y,x,-z
y,x,1/2-z
-y,-x,1/2-z
-x,y,1/2+z
x,-y,1/2+z
loop_
_atom_site_type_symbol
_atom_site_label
_atom_site_fract_x
_atom_site_fract_y
_atom_site_fract_z
Si Si1 0.939702 0.778133 0.101421
Si Si2 0.818152 0.765557 0.612374
Si Si3 0.000000 0.000000 0.750000
Si Si4 0.394604 0.653652 0.513890
Si Si5 0.273184 0.273184 0.250000
O O1 0.851158 0.721270 0.192294
O O2 0.057968 0.717918 0.084666
O O3 0.981667 0.894542 0.161110
O O4 0.869694 0.797597 0.979137
O O5 0.804403 0.804403 0.750000
O O6 0.727604 0.671267 0.582991
O O7 0.526522 0.649456 0.492087
O O8 0.360817 0.705298 0.643401
#
# Coordination Sequence:
#
# PCOD9557515 Si02
#       5
#     8   8   2   8   4
#     4  10  20  36  59  93 126 169 201 254 309 376
#     4  11  23  37  63  93 128 163 213 255 317 377
#     4  10  16  34  58  86 124 174 208 236 292 372
#     4  10  24  43  70  90 113 164 222 269 312 367
#     4   9  22  40  62  91 130 154 204 263 314 372
#
# _framework density 19.002972
#
# number of rings (size 3 to 8) (size 9 to 14) (size 15 to 20)
#    0.000    1.867    1.333    1.600   11.200    1.067 
#    0.000    5.333    0.000    0.000    0.000    0.000 
#    0.000    0.000    0.000    0.000    0.000    0.000 
#
# Total GULP energy -167392.030529 kJ/mol
# GULP energy per Si atom -5579.734351 kJ/mol
# Density = 1.895972 g / cm^3
# Si number density = 19.002972 Si / 1000 Ang^3
#
#
#
# Elastic Constant Matrix: (Units=GPa)
#
#
# Indices 1 2 3 4 5 6 
#
# 1 101.6232 84.4727 55.0063 0.0000 0.0000 0.0000
# 2 84.4727 101.6232 55.0063 0.0000 0.0000 0.0000
# 3 55.0063 55.0063 132.9663 0.0000 0.0000 0.0000
# 4 0.0000 0.0000 0.0000 14.4600 0.0000 0.0000
# 5 0.0000 0.0000 0.0000 0.0000 14.4600 0.0000
# 6 0.0000 0.0000 0.0000 0.0000 0.0000 27.7103
#
#
#
# Elastic Compliance Matrix: (Units=1/GPa)
#
#
# Indices 1 2 3 4 5 6 
#
# 1 0.032710 -0.025597 -0.002943 0.000000 0.000000 0.000000
# 2 -0.025597 0.032710 -0.002943 0.000000 0.000000 0.000000
# 3 -0.002943 -0.002943 0.009955 0.000000 0.000000 0.000000
# 4 0.000000 0.000000 0.000000 0.069156 0.000000 0.000000
# 5 0.000000 0.000000 0.000000 0.000000 0.069156 0.000000
# 6 0.000000 0.000000 0.000000 0.000000 0.000000 0.036088
#
#
# Mechanical properties :
#
#
# Convention : Reuss Voigt Hill
#
# Bulk Modulus (GPa) = 80.57254 80.57591 80.57422
# Shear Modulus (GPa) = 15.77900 20.77458 18.27679
#
# Velocity S-wave (km/s) = 2.88469 3.30999 3.10463
# Velocity P-wave (km/s) = 7.32033 7.55657 7.43939
#
# Compressibility (1/GPa) = 0.01241118
#
# Stress axis : x y z
#
# Youngs Moduli (GPa) = 30.57156 30.57156 100.44875
#
# Poissons Ratio (x) = 0.78254 0.29558
# Poissons Ratio (y) = 0.78254 0.29558
# Poissons Ratio (z) = 0.08996 0.08996
#
# Static dielectric constant tensor:
#      x y z
#    x 1.675020 0.000000 0.000000 
#    y 0.000000 1.675020 0.000000 
#    z 0.000000 0.000000 1.676730 
# 
# From -- ./inp_files/1496.got.cif
#   From: 2010.05.17/outbox.cif.g08.bks.cpg/sg116_1_cif.got.tgz:1496.got - 2010.05.20 11:11:43.
