data_PCOD9557948
_publ_section_title
;
Structure prediction by ZEFSAII (Michael W. Deem and Ramdas Pophale) SiO2 
 PCOD9557948
Probable space group: P -4 C 2
;
_chemical_formula_sum "Si O2"
_cell_formula_units_Z 34
_cell_length_a 11.286382
_cell_length_b 11.286382
_cell_length_c 12.754276
_cell_angle_alpha 90.000000
_cell_angle_beta 90.000000
_cell_angle_gamma 90.000000
_cell_volume 1624.670525
_symmetry_space_group_name_H-M "P -4 C 2"
_symmetry_group_IT_number 116
_symmetry_cell_setting 'tetragonal'
loop_
_space_group_symop_operation_xyz
x,y,z
y,-x,-z
-x,-y,z
-y,x,-z
y,x,1/2-z
-y,-x,1/2-z
-x,y,1/2+z
x,-y,1/2+z
loop_
_atom_site_type_symbol
_atom_site_label
_atom_site_fract_x
_atom_site_fract_y
_atom_site_fract_z
Si Si1 0.297849 0.155134 0.828915
Si Si2 0.298487 0.340349 0.462519
Si Si3 0.748237 0.107556 0.825105
Si Si4 0.125879 0.521309 0.823847
Si Si5 0.500000 0.500000 0.000000
O O1 0.195841 0.195841 0.750000
O O2 0.413748 0.150466 0.754752
O O3 0.260812 0.024921 0.871455
O O4 0.320517 0.250469 0.920101
O O5 0.272262 0.215330 0.405580
O O6 0.222328 0.444545 0.408367
O O7 0.431792 0.389851 0.446283
O O8 0.860058 0.139943 0.750000
O O9 0.636601 0.113327 0.747681
O O10 0.000000 0.500000 0.878524
#
# Coordination Sequence:
#
# PCOD9557948 Si02
#       5
#     8   8   8   8   2
#     4  11  23  39  63  92 125 168 218 269 326 395
#     4  11  23  39  61  91 128 168 210 267 333 391
#     4   9  21  41  61  87 122 165 215 268 324 387
#     4   9  20  39  62  85 117 163 213 263 320 393
#     4  12  24  36  58  92 124 154 204 264 314 388
#
# _framework density 20.927319000000001
#
# number of rings (size 3 to 8) (size 9 to 14) (size 15 to 20)
#    0.000    1.882    0.000    2.824    0.000   10.824 
#    0.000   10.588    0.000    0.000    0.000    0.000 
#    0.000    0.000    0.000    0.000    0.000    0.000 
#
# Total GULP energy -189514.172896 kJ/mol
# GULP energy per Si atom -5573.946262 kJ/mol
# Density = 2.087969 g / cm^3
# Si number density = 20.927319 Si / 1000 Ang^3
#
#
#
# Elastic Constant Matrix: (Units=GPa)
#
#
# Indices 1 2 3 4 5 6 
#
# 1 89.2892 29.6507 24.8781 0.0000 0.0000 0.0000
# 2 29.6507 89.2907 24.8776 0.0000 0.0000 0.0000
# 3 24.8781 24.8776 55.0253 0.0000 0.0000 0.0000
# 4 0.0000 0.0000 0.0000 24.3407 0.0000 0.0000
# 5 0.0000 0.0000 0.0000 0.0000 24.3405 0.0000
# 6 0.0000 0.0000 0.0000 0.0000 0.0000 20.8143
#
#
#
# Elastic Compliance Matrix: (Units=1/GPa)
#
#
# Indices 1 2 3 4 5 6 
#
# 1 0.013568 -0.003199 -0.004688 0.000000 0.000000 0.000000
# 2 -0.003199 0.013568 -0.004688 0.000000 0.000000 0.000000
# 3 -0.004688 -0.004688 0.022412 0.000000 0.000000 0.000000
# 4 0.000000 0.000000 0.000000 0.041083 0.000000 0.000000
# 5 0.000000 0.000000 0.000000 0.000000 0.041084 0.000000
# 6 0.000000 0.000000 0.000000 0.000000 0.000000 0.048044
#
#
# Mechanical properties :
#
#
# Convention : Reuss Voigt Hill
#
# Bulk Modulus (GPa) = 40.98652 43.60199 42.29426
# Shear Modulus (GPa) = 23.46951 24.17902 23.82427
#
# Velocity S-wave (km/s) = 3.35248 3.40278 3.37772
# Velocity P-wave (km/s) = 5.88330 6.02650 5.95533
#
# Compressibility (1/GPa) = 0.02439826
#
# Stress axis : x y z
#
# Youngs Moduli (GPa) = 73.70180 73.70363 44.61833
#
# Poissons Ratio (x) = 0.23581 0.20917
# Poissons Ratio (y) = 0.23581 0.20915
# Poissons Ratio (z) = 0.34551 0.34550
#
# Static dielectric constant tensor:
#      x y z
#    x 1.802230 0.000000 0.000000 
#    y 0.000000 1.802230 0.000000 
#    z 0.000000 0.000000 1.732820 
# 
# From -- ./inp_files/1592.got.cif
#   From: 2010.05.17/outbox.cif.g08.bks.cpg/sg116_1_cif.got.tgz:1592.got - 2010.05.20 11:11:43.
