data_PCOD9557566
_publ_section_title
;
Structure prediction by ZEFSAII (Michael W. Deem and Ramdas Pophale) SiO2 
 PCOD9557566
Probable space group: P -4 C 2
;
_chemical_formula_sum "Si O2"
_cell_formula_units_Z 54
_cell_length_a 15.078937
_cell_length_b 15.078937
_cell_length_c 14.198322
_cell_angle_alpha 90.000000
_cell_angle_beta 90.000000
_cell_angle_gamma 90.000000
_cell_volume 3228.334109
_symmetry_space_group_name_H-M "P -4 C 2"
_symmetry_group_IT_number 116
_symmetry_cell_setting 'tetragonal'
loop_
_space_group_symop_operation_xyz
x,y,z
y,-x,-z
-x,-y,z
-y,x,-z
y,x,1/2-z
-y,-x,1/2-z
-x,y,1/2+z
x,-y,1/2+z
loop_
_atom_site_type_symbol
_atom_site_label
_atom_site_fract_x
_atom_site_fract_y
_atom_site_fract_z
Si Si1 0.350306 0.135161 0.859838
Si Si2 0.111820 0.903373 0.854160
Si Si3 0.932307 0.701613 0.088928
Si Si4 0.430425 0.928878 0.178621
Si Si5 0.000000 0.000000 0.500000
Si Si6 0.026575 0.242244 0.881116
Si Si7 0.814171 0.814171 0.750000
Si Si8 0.106514 0.515705 0.526517
O O1 0.404428 0.134822 0.762259
O O2 0.262612 0.189549 0.830424
O O3 0.426231 0.153773 0.937640
O O4 0.317285 0.034687 0.882853
O O5 0.076952 0.923049 0.750000
O O6 0.217817 0.897037 0.848377
O O7 0.062390 0.814159 0.886739
O O8 0.080184 0.976388 0.929889
O O9 0.880962 0.607781 0.083831
O O10 0.931586 0.743085 0.983792
O O11 0.342413 0.984723 0.153669
O O12 0.500000 0.000000 0.214095
O O13 0.464003 0.881550 0.084088
O O14 0.094507 0.196646 0.807721
O O15 0.000000 0.500000 0.534522
#
# Coordination Sequence:
#
# PCOD9557566 Si02
#       8
#     8   8   8   8   2   8   4   8
#     4  10  19  32  52  73  98 129 174 218 270 315
#     4  12  24  34  47  64  91 133 181 217 262 308
#     4  10  20  34  48  68  93 130 180 223 271 305
#     4   9  16  31  50  71  91 123 171 214 261 313
#     4  12  26  36  44  58  88 140 174 236 244 306
#     4  10  22  34  47  68 100 139 177 222 260 314
#     4  10  22  34  51  72 104 142 183 216 262 332
#     4   8  16  31  51  69  90 119 165 220 267 311
#
# _framework density 16.726893
#
# number of rings (size 3 to 8) (size 9 to 14) (size 15 to 20)
#    0.000    2.074    1.481    4.222    6.222    0.000 
#    0.000    0.000    0.000    0.000    0.000    0.000 
#    0.000    0.000    0.000   16.667   26.667    3.111 
#
# Total GULP energy -300716.895329 kJ/mol
# GULP energy per Si atom -5568.831395 kJ/mol
# Density = 1.668882 g / cm^3
# Si number density = 16.726893 Si / 1000 Ang^3
#
#
#
# Elastic Constant Matrix: (Units=GPa)
#
#
# Indices 1 2 3 4 5 6 
#
# 1 53.1391 19.8176 10.5711 0.0000 0.0000 0.0000
# 2 19.8176 53.1393 10.5711 0.0000 0.0000 0.0000
# 3 10.5711 10.5711 64.8408 0.0000 0.0000 0.0000
# 4 0.0000 0.0000 0.0000 20.9552 0.0000 0.0000
# 5 0.0000 0.0000 0.0000 0.0000 20.9552 0.0000
# 6 0.0000 0.0000 0.0000 0.0000 0.0000 6.5479
#
#
#
# Elastic Compliance Matrix: (Units=1/GPa)
#
#
# Indices 1 2 3 4 5 6 
#
# 1 0.022199 -0.007812 -0.002345 0.000000 0.000000 0.000000
# 2 -0.007812 0.022198 -0.002345 0.000000 0.000000 0.000000
# 3 -0.002345 -0.002345 0.016187 0.000000 0.000000 0.000000
# 4 0.000000 0.000000 0.000000 0.047721 0.000000 0.000000
# 5 0.000000 0.000000 0.000000 0.000000 0.047721 0.000000
# 6 0.000000 0.000000 0.000000 0.000000 0.000000 0.152720
#
#
# Mechanical properties :
#
#
# Convention : Reuss Voigt Hill
#
# Bulk Modulus (GPa) = 28.10706 28.11541 28.11123
# Shear Modulus (GPa) = 14.46710 18.36895 16.41803
#
# Velocity S-wave (km/s) = 2.94411 3.31746 3.13634
# Velocity P-wave (km/s) = 5.32889 5.61418 5.47339
#
# Compressibility (1/GPa) = 0.03557825
#
# Stress axis : x y z
#
# Youngs Moduli (GPa) = 45.04801 45.04817 61.77736
#
# Poissons Ratio (x) = 0.35192 0.14490
# Poissons Ratio (y) = 0.35192 0.14490
# Poissons Ratio (z) = 0.10566 0.10566
#
# Static dielectric constant tensor:
#      x y z
#    x 1.615340 0.000000 0.000000 
#    y 0.000000 1.615340 0.000000 
#    z 0.000000 0.000000 1.652220 
# 
# From -- ./inp_files/2744.got.cif
#   From: 2010.05.17/outbox.cif.g08.bks.cpg/sg116_2_cif.got.tgz:2744.got - 2010.05.20 11:11:43.
