data_PCOD9557417
_publ_section_title
;
Structure prediction by ZEFSAII (Michael W. Deem and Ramdas Pophale) SiO2 
 PCOD9557417
Probable space group: P -4 M 2
;
_chemical_formula_sum "Si O2"
_cell_formula_units_Z 29
_cell_length_a 7.604865
_cell_length_b 7.604865
_cell_length_c 23.045172
_cell_angle_alpha 90.000000
_cell_angle_beta 90.000000
_cell_angle_gamma 90.000000
_cell_volume 1332.793825
_symmetry_space_group_name_H-M "P -4 M 2"
_symmetry_group_IT_number 115
_symmetry_cell_setting 'tetragonal'
loop_
_space_group_symop_operation_xyz
x,y,z
y,-x,-z
-x,-y,z
-y,x,-z
y,x,-z
-y,-x,-z
-x,y,z
x,-y,z
loop_
_atom_site_type_symbol
_atom_site_label
_atom_site_fract_x
_atom_site_fract_y
_atom_site_fract_z
Si Si1 0.710689 0.701998 0.561478
Si Si2 0.285221 0.000000 0.901280
Si Si3 0.700502 0.208521 0.314091
Si Si4 0.291453 0.699517 0.812597
Si Si5 0.000000 0.000000 0.000000
O O1 0.777229 0.777229 0.500000
O O2 0.500000 0.694847 0.554918
O O3 0.778577 0.500000 0.566064
O O4 0.744174 0.785298 0.624195
O O5 0.232191 0.169394 0.862634
O O6 0.173363 0.000000 0.959704
O O7 0.500000 0.000000 0.909079
O O8 0.500000 0.284209 0.314393
O O9 0.775808 0.262218 0.252066
O O10 0.690001 0.000000 0.313303
O O11 0.500000 0.685664 0.819732
O O12 0.217258 0.500000 0.814967
#
# Coordination Sequence:
#
# PCOD9557417 Si02
#       5
#     8   4   8   8   1
#     4   8  13  22  38  60  89 131 182 233 286 344
#     4  10  24  44  64  94 128 157 199 238 275 343
#     4   9  16  25  43  74 105 137 182 234 285 341
#     4   9  18  35  60  87 117 152 190 240 293 338
#     4  12  28  44  68  96 124 168 194 228 288 324
#
# _framework density 21.758804999999999
#
# number of rings (size 3 to 8) (size 9 to 14) (size 15 to 20)
#    0.000    3.034    0.000    1.655    1.931    4.414 
#    0.000    0.000    3.034    0.000    0.000    0.000 
#    0.000    0.000    0.000    0.000    0.000    0.000 
#
# Total GULP energy -161589.152753 kJ/mol
# GULP energy per Si atom -5572.039750 kJ/mol
# Density = 2.170928 g / cm^3
# Si number density = 21.758805 Si / 1000 Ang^3
#
#
#
# Elastic Constant Matrix: (Units=GPa)
#
#
# Indices 1 2 3 4 5 6 
#
# 1 68.9575 17.1276 49.6112 0.0000 0.0000 0.0000
# 2 17.1276 68.9575 49.6112 0.0000 0.0000 0.0000
# 3 49.6112 49.6112 226.1088 0.0000 0.0000 0.0000
# 4 0.0000 0.0000 0.0000 41.0372 0.0000 0.0000
# 5 0.0000 0.0000 0.0000 0.0000 41.0372 0.0000
# 6 0.0000 0.0000 0.0000 0.0000 0.0000 2.0113
#
#
#
# Elastic Compliance Matrix: (Units=1/GPa)
#
#
# Indices 1 2 3 4 5 6 
#
# 1 0.017421 -0.001873 -0.003412 0.000000 0.000000 0.000000
# 2 -0.001873 0.017421 -0.003412 0.000000 0.000000 0.000000
# 3 -0.003412 -0.003412 0.005920 0.000000 0.000000 0.000000
# 4 0.000000 0.000000 0.000000 0.024368 0.000000 0.000000
# 5 0.000000 0.000000 0.000000 0.000000 0.024368 0.000000
# 6 0.000000 0.000000 0.000000 0.000000 0.000000 0.497201
#
#
# Mechanical properties :
#
#
# Convention : Reuss Voigt Hill
#
# Bulk Modulus (GPa) = 42.78863 66.30264 54.54564
# Shear Modulus (GPa) = 8.17152 33.32873 20.75012
#
# Velocity S-wave (km/s) = 1.94001 3.91798 3.09146
# Velocity P-wave (km/s) = 4.97251 7.14180 6.15350
#
# Compressibility (1/GPa) = 0.02337069
#
# Stress axis : x y z
#
# Youngs Moduli (GPa) = 57.40117 57.40117 168.92651
#
# Poissons Ratio (x) = 0.10749 0.57630
# Poissons Ratio (y) = 0.10749 0.57630
# Poissons Ratio (z) = 0.19583 0.19583
#
# Static dielectric constant tensor:
#      x y z
#    x 1.821400 0.000000 0.000000 
#    y 0.000000 1.821400 0.000000 
#    z 0.000000 0.000000 1.826130 
# 
# From -- ./inp_files/4598.got.cif
#   From: 2010.05.17/outbox.cif.g08.bks.cpg/sg115_3_cif.got.tgz:4598.got - 2010.05.20 11:07:42.
