data_PCOD9557136
_publ_section_title
;
Structure prediction by ZEFSAII (Michael W. Deem and Ramdas Pophale) SiO2 
 PCOD9557136
Probable space group: P -4 M 2
;
_chemical_formula_sum "Si O2"
_cell_formula_units_Z 32
_cell_length_a 9.446020
_cell_length_b 9.446020
_cell_length_c 21.226520
_cell_angle_alpha 90.000000
_cell_angle_beta 90.000000
_cell_angle_gamma 90.000000
_cell_volume 1893.984937
_symmetry_space_group_name_H-M "P -4 M 2"
_symmetry_group_IT_number 115
_symmetry_cell_setting 'tetragonal'
loop_
_space_group_symop_operation_xyz
x,y,z
y,-x,-z
-x,-y,z
-y,x,-z
y,x,-z
-y,-x,-z
-x,y,z
x,-y,z
loop_
_atom_site_type_symbol
_atom_site_label
_atom_site_fract_x
_atom_site_fract_y
_atom_site_fract_z
Si Si1 0.169271 0.833370 0.072722
Si Si2 0.172433 0.836588 0.569188
Si Si3 0.666546 0.330213 0.819294
Si Si4 0.166774 0.330820 0.693248
O O1 0.252432 0.739633 0.122433
O O2 0.000000 0.816835 0.080467
O O3 0.201980 0.000000 0.082127
O O4 0.202877 0.797124 0.000000
O O5 0.217303 0.782698 0.500000
O O6 0.214969 0.745414 0.629314
O O7 0.000000 0.835729 0.567052
O O8 0.216686 0.000000 0.576947
O O9 0.500000 0.298908 0.816316
O O10 0.683713 0.500000 0.826118
O O11 0.744120 0.288221 0.754385
O O12 0.178868 0.500000 0.685601
O O13 0.000000 0.297940 0.703338
#
# Coordination Sequence:
#
# PCOD9557136 Si02
#       4
#     8   8   8   8
#     4   9  19  36  56  77 100 126 159 200 244 290
#     4   8  14  26  45  68  92 118 151 193 240 288
#     4  10  21  35  50  71 101 134 166 201 241 287
#     4   9  17  30  48  68  91 123 162 199 236 283
#
# _framework density 16.895595
#
# number of rings (size 3 to 8) (size 9 to 14) (size 15 to 20)
#    0.000    3.000    0.000    2.250    0.000    4.000 
#    0.000    7.500    0.000    1.500    0.000    0.000 
#    0.000    0.000    0.000    0.000    0.000    0.000 
#
# Total GULP energy -178336.142237 kJ/mol
# GULP energy per Si atom -5573.004445 kJ/mol
# Density = 1.685714 g / cm^3
# Si number density = 16.895595 Si / 1000 Ang^3
#
#
#
# Elastic Constant Matrix: (Units=GPa)
#
#
# Indices 1 2 3 4 5 6 
#
# 1 51.6799 45.0095 84.3196 0.0000 0.0000 0.0000
# 2 45.0095 51.6803 84.3199 0.0000 0.0000 0.0000
# 3 84.3196 84.3199 200.9443 0.0000 0.0000 0.0000
# 4 0.0000 0.0000 0.0000 -40.8376 0.0000 0.0000
# 5 0.0000 0.0000 0.0000 0.0000 -40.8332 0.0000
# 6 0.0000 0.0000 0.0000 0.0000 0.0000 21.4731
#
#
#
# Elastic Compliance Matrix: (Units=1/GPa)
#
#
# Indices 1 2 3 4 5 6 
#
# 1 0.094243 -0.055671 -0.016186 0.000000 0.000000 0.000000
# 2 -0.055671 0.094242 -0.016185 0.000000 0.000000 0.000000
# 3 -0.016186 -0.016185 0.018560 0.000000 0.000000 0.000000
# 4 0.000000 0.000000 0.000000 -0.024487 0.000000 0.000000
# 5 0.000000 0.000000 0.000000 0.000000 -0.024490 0.000000
# 6 0.000000 0.000000 0.000000 0.000000 0.000000 0.046570
#
#
# Mechanical properties :
#
#
# Convention : Reuss Voigt Hill
#
# Bulk Modulus (GPa) = 32.29765 81.28915 56.79340
# Shear Modulus (GPa) = 12.78635 -5.99585 3.39525
#
# Velocity S-wave (km/s) = 2.75396 -1.88586 1.41912
# Velocity P-wave (km/s) = 5.41017 6.59357 6.03096
#
# Compressibility (1/GPa) = 0.03096200
#
# Stress axis : x y z
#
# Youngs Moduli (GPa) = 10.61085 10.61096 53.87950
#
# Poissons Ratio (x) = 0.59072 0.87207
# Poissons Ratio (y) = 0.59071 0.87206
# Poissons Ratio (z) = 0.17174 0.17174
#
# Static dielectric constant tensor:
#      x y z
#    x 1.559410 0.000000 0.000000 
#    y 0.000000 1.559410 0.000000 
#    z 0.000000 0.000000 1.562690 
# 
# From -- ./inp_files/4572.got.cif
#   From: 2010.05.17/outbox.cif.g08.bks.cpg/sg115_3_cif.got.tgz:4572.got - 2010.05.20 11:07:42.
