data_PCOD9557199
_publ_section_title
;
Structure prediction by ZEFSAII (Michael W. Deem and Ramdas Pophale) SiO2 
 PCOD9557199
Probable space group: P -4 M 2
;
_chemical_formula_sum "Si O2"
_cell_formula_units_Z 48
_cell_length_a 9.464607
_cell_length_b 9.464607
_cell_length_c 31.844037
_cell_angle_alpha 90.000000
_cell_angle_beta 90.000000
_cell_angle_gamma 90.000000
_cell_volume 2852.550165
_symmetry_space_group_name_H-M "P -4 M 2"
_symmetry_group_IT_number 115
_symmetry_cell_setting 'tetragonal'
loop_
_space_group_symop_operation_xyz
x,y,z
y,-x,-z
-x,-y,z
-y,x,-z
y,x,-z
-y,-x,-z
-x,y,z
x,-y,z
loop_
_atom_site_type_symbol
_atom_site_label
_atom_site_fract_x
_atom_site_fract_y
_atom_site_fract_z
Si Si1 0.171818 0.662743 0.296564
Si Si2 0.667368 0.168741 0.035910
Si Si3 0.330891 0.832759 0.131027
Si Si4 0.834294 0.831315 0.378855
Si Si5 0.168693 0.667925 0.536470
Si Si6 0.330019 0.166742 0.796987
O O1 0.215989 0.500000 0.302169
O O2 0.214513 0.755379 0.336286
O O3 0.215759 0.712221 0.250081
O O4 0.000000 0.663704 0.295609
O O5 0.500000 0.196894 0.031794
O O6 0.710417 0.209564 0.083449
O O7 0.687032 0.000000 0.032306
O O8 0.751812 0.248189 0.000000
O O9 0.500000 0.814623 0.134379
O O10 0.252188 0.745356 0.166512
O O11 0.301418 0.000000 0.135653
O O12 0.740723 0.794117 0.419153
O O13 0.000000 0.794730 0.386427
O O14 0.827135 0.000000 0.373100
O O15 0.256530 0.743471 0.500000
O O16 0.193779 0.500000 0.537454
O O17 0.000000 0.690577 0.529666
O O18 0.500000 0.180770 0.799457
O O19 0.297021 0.000000 0.800905
#
# Coordination Sequence:
#
# PCOD9557199 Si02
#       6
#     8   8   8   8   8   8
#     4   8  15  29  48  70  97 127 159 197 240 285
#     4   9  19  35  52  71  97 127 160 200 244 291
#     4   9  19  35  51  69  97 131 164 199 242 291
#     4   9  17  30  50  74  97 124 161 202 241 284
#     4  10  21  36  53  74 101 132 165 202 245 292
#     4   9  18  32  50  74 102 130 163 203 243 285
#
# _framework density 16.827048000000001
#
# number of rings (size 3 to 8) (size 9 to 14) (size 15 to 20)
#    0.000    3.000    0.000    2.500    0.000    4.667 
#    0.000    9.167    0.000    3.000    0.000    0.000 
#    0.000    0.000    0.000    0.000    0.000    0.000 
#
# Total GULP energy -267495.941881 kJ/mol
# GULP energy per Si atom -5572.832123 kJ/mol
# Density = 1.678875 g / cm^3
# Si number density = 16.827048 Si / 1000 Ang^3
#
#
#
# Elastic Constant Matrix: (Units=GPa)
#
#
# Indices 1 2 3 4 5 6 
#
# 1 43.6273 40.5622 78.0464 0.0000 0.0000 0.0000
# 2 40.5622 43.6289 78.0487 0.0000 0.0000 0.0000
# 3 78.0464 78.0487 204.4953 0.0000 0.0000 0.0000
# 4 0.0000 0.0000 0.0000 143.8687 0.0000 0.0000
# 5 0.0000 0.0000 0.0000 0.0000 143.8683 0.0000
# 6 0.0000 0.0000 0.0000 0.0000 0.0000 25.0006
#
#
#
# Elastic Compliance Matrix: (Units=1/GPa)
#
#
# Indices 1 2 3 4 5 6 
#
# 1 0.183393 -0.142768 -0.015503 0.000000 0.000000 0.000000
# 2 -0.142768 0.183395 -0.015507 0.000000 0.000000 0.000000
# 3 -0.015503 -0.015507 0.016725 0.000000 0.000000 0.000000
# 4 0.000000 0.000000 0.000000 0.006951 0.000000 0.000000
# 5 0.000000 0.000000 0.000000 0.000000 0.006951 0.000000
# 6 0.000000 0.000000 0.000000 0.000000 0.000000 0.039999
#
#
# Mechanical properties :
#
#
# Convention : Reuss Voigt Hill
#
# Bulk Modulus (GPa) = 27.81183 76.11844 51.96513
# Shear Modulus (GPa) = 6.27387 68.88715 37.58051
#
# Velocity S-wave (km/s) = 1.93301 6.40525 4.73095
# Velocity P-wave (km/s) = 4.64177 10.00185 7.79689
#
# Compressibility (1/GPa) = 0.03595592
#
# Stress axis : x y z
#
# Youngs Moduli (GPa) = 5.45277 5.45272 59.78937
#
# Poissons Ratio (x) = 0.77848 0.92691
# Poissons Ratio (y) = 0.77848 0.92717
# Poissons Ratio (z) = 0.08453 0.08456
#
# Static dielectric constant tensor:
#      x y z
#    x 1.554230 0.000000 0.000000 
#    y 0.000000 1.554230 0.000000 
#    z 0.000000 0.000000 1.560820 
# 
# From -- ./inp_files/6016.got.cif
#   From: 2010.05.17/outbox.cif.g08.bks.cpg/sg115_4_cif.got.tgz:6016.got - 2010.05.20 11:07:42.
