data_PCOD9557485
_publ_section_title
;
Structure prediction by ZEFSAII (Michael W. Deem and Ramdas Pophale) SiO2 
 PCOD9557485
Probable space group: P -4 M 2
;
_chemical_formula_sum "Si O2"
_cell_formula_units_Z 48
_cell_length_a 9.000000
_cell_length_b 9.000000
_cell_length_c 30.000000
_cell_angle_alpha 90.000000
_cell_angle_beta 90.000000
_cell_angle_gamma 90.000000
_cell_volume 2430.000000
_symmetry_space_group_name_H-M "P -4 M 2"
_symmetry_group_IT_number 115
_symmetry_cell_setting 'tetragonal'
loop_
_space_group_symop_operation_xyz
x,y,z
y,-x,-z
-x,-y,z
-y,x,-z
y,x,-z
-y,-x,-z
-x,y,z
x,-y,z
loop_
_atom_site_type_symbol
_atom_site_label
_atom_site_fract_x
_atom_site_fract_y
_atom_site_fract_z
Si Si1 0.318955 0.164795 0.710760
Si Si2 0.177955 0.664840 0.961369
Si Si3 0.321182 0.665412 0.796390
Si Si4 0.830549 0.177564 0.125194
Si Si5 0.166342 0.825981 0.447194
Si Si6 0.664888 0.678237 0.373457
O O1 0.500000 0.161867 0.710394
O O2 0.276136 0.286153 0.747038
O O3 0.267937 0.215683 0.662413
O O4 0.267549 0.000000 0.722579
O O5 0.233439 0.500000 0.970637
O O6 0.231598 0.723762 0.913988
O O7 0.000000 0.662256 0.959395
O O8 0.227098 0.772903 0.000000
O O9 0.500000 0.666242 0.798543
O O10 0.268187 0.500000 0.807637
O O11 0.257115 0.784840 0.829952
O O12 0.000000 0.207750 0.112586
O O13 0.814161 0.000000 0.130419
O O14 0.184570 0.815431 0.500000
O O15 0.289290 0.736956 0.421143
O O16 0.000000 0.771508 0.435815
O O17 0.174630 0.000000 0.435536
O O18 0.500000 0.726314 0.360541
O O19 0.667270 0.500000 0.373336
#
# Coordination Sequence:
#
# PCOD9557485 Si02
#       6
#     8   8   8   8   8   8
#     4   9  17  31  52  76 103 138 178 217 259 310
#     4  10  21  37  57  80 106 138 175 215 261 312
#     4  10  20  34  54  80 109 140 175 218 267 315
#     4  10  21  37  57  80 107 141 180 220 263 313
#     4   9  19  36  55  74  99 133 172 213 258 309
#     4  10  20  33  51  77 107 136 169 212 260 310
#
# _framework density 19.753086
#
# number of rings (size 3 to 8) (size 9 to 14) (size 15 to 20)
#    0.000    2.333    0.000    3.000    0.000    7.667 
#    0.000    3.333    0.000    5.000    0.000    0.000 
#    0.000    0.000    0.000    0.000    0.000    0.000 
#
# Total GULP energy -267553.898317 kJ/mol
# GULP energy per Si atom -5574.039548 kJ/mol
# Density = 1.970813 g / cm^3
# Si number density = 19.753086 Si / 1000 Ang^3
#
#
#
# Elastic Constant Matrix: (Units=GPa)
#
#
# Indices 1 2 3 4 5 6 
#
# 1 11.1869 20.9023 14.9838 0.0000 0.0000 0.0000
# 2 20.9023 11.1851 14.9837 0.0000 0.0000 0.0000
# 3 14.9838 14.9837 38.8542 0.0000 0.0000 0.0000
# 4 0.0000 0.0000 0.0000 13.4243 0.0000 0.0000
# 5 0.0000 0.0000 0.0000 0.0000 13.4244 0.0000
# 6 0.0000 0.0000 0.0000 0.0000 0.0000 20.0428
#
#
#
# Elastic Compliance Matrix: (Units=1/GPa)
#
#
# Indices 1 2 3 4 5 6 
#
# 1 -0.027103 0.075813 -0.018784 0.000000 0.000000 0.000000
# 2 0.075813 -0.027112 -0.018781 0.000000 0.000000 0.000000
# 3 -0.018784 -0.018781 0.040224 0.000000 0.000000 0.000000
# 4 0.000000 0.000000 0.000000 0.074492 0.000000 0.000000
# 5 0.000000 0.000000 0.000000 0.000000 0.074491 0.000000
# 6 0.000000 0.000000 0.000000 0.000000 0.000000 0.049893
#
#
# Mechanical properties :
#
#
# Convention : Reuss Voigt Hill
#
# Bulk Modulus (GPa) = 15.99906 18.10732 17.05319
# Shear Modulus (GPa) = 38.69234 10.06875 24.38054
#
# Velocity S-wave (km/s) = 4.43063 2.26017 3.51702
# Velocity P-wave (km/s) = 5.85586 3.99974 5.01443
#
# Compressibility (1/GPa) = 0.06250368
#
# Stress axis : x y z
#
# Youngs Moduli (GPa) = -36.89591 -36.88424 24.86078
#
# Poissons Ratio (x) = 2.79630 0.46699
# Poissons Ratio (y) = 2.79719 0.46692
# Poissons Ratio (z) = -0.69306 -0.69273
#
# Static dielectric constant tensor:
#      x y z
#    x 1.680670 0.000000 0.000000 
#    y 0.000000 1.680670 0.000000 
#    z 0.000000 0.000000 1.681340 
# 
# From -- ./inp_files/6020.got.cif
#   From: 2010.05.17/outbox.ucp.g08.bks.cvg/sg115_4_cif.got.tgz:6020.got - 2010.06.11 11:33:38.
