data_PCOD9557211
_publ_section_title
;
Structure prediction by ZEFSAII (Michael W. Deem and Ramdas Pophale) SiO2 
 PCOD9557211
Probable space group: P -4 M 2
;
_chemical_formula_sum "Si O2"
_cell_formula_units_Z 48
_cell_length_a 9.132548
_cell_length_b 9.132548
_cell_length_c 31.949509
_cell_angle_alpha 90.000000
_cell_angle_beta 90.000000
_cell_angle_gamma 90.000000
_cell_volume 2664.698732
_symmetry_space_group_name_H-M "P -4 M 2"
_symmetry_group_IT_number 115
_symmetry_cell_setting 'tetragonal'
loop_
_space_group_symop_operation_xyz
x,y,z
y,-x,-z
-x,-y,z
-y,x,-z
y,x,-z
-y,-x,-z
-x,y,z
x,-y,z
loop_
_atom_site_type_symbol
_atom_site_label
_atom_site_fract_x
_atom_site_fract_y
_atom_site_fract_z
Si Si1 0.174140 0.674529 0.539695
Si Si2 0.824796 0.828097 0.294248
Si Si3 0.178534 0.169933 0.045725
Si Si4 0.326475 0.175235 0.618459
Si Si5 0.171785 0.324590 0.130393
Si Si6 0.674172 0.326297 0.216127
O O1 0.247895 0.752106 0.500000
O O2 0.197209 0.500000 0.537322
O O3 0.246500 0.739339 0.581461
O O4 0.000000 0.702074 0.539796
O O5 0.785255 0.742563 0.336698
O O6 0.744652 0.760385 0.254406
O O7 0.000000 0.812500 0.288494
O O8 0.791702 0.000000 0.298843
O O9 0.225624 0.256024 0.086890
O O10 0.000000 0.174980 0.044426
O O11 0.220645 0.000000 0.049820
O O12 0.226747 0.226747 0.000000
O O13 0.500000 0.204260 0.618073
O O14 0.305586 0.000000 0.612469
O O15 0.181738 0.500000 0.127241
O O16 0.258859 0.277960 0.171654
O O17 0.000000 0.285984 0.135595
O O18 0.500000 0.308678 0.215827
O O19 0.707415 0.500000 0.220987
#
# Coordination Sequence:
#
# PCOD9557211 Si02
#       6
#     8   8   8   8   8   8
#     4  11  24  40  59  85 116 150 188 228 271 319
#     4  10  21  37  58  83 109 139 177 220 266 316
#     4   8  14  26  45  68  93 122 158 201 249 302
#     4  10  21  38  61  87 113 143 181 223 267 317
#     4   9  17  30  49  71  95 126 166 210 254 304
#     4  10  21  36  53  74 103 139 176 215 262 314
#
# _framework density 18.013293999999998
#
# number of rings (size 3 to 8) (size 9 to 14) (size 15 to 20)
#    0.000    2.333    0.000    3.000    0.000    7.667 
#    0.000    2.500    0.000    1.000    0.000    0.000 
#    0.000    0.000    0.000    0.000    0.000    0.000 
#
# Total GULP energy -267918.060972 kJ/mol
# GULP energy per Si atom -5581.626270 kJ/mol
# Density = 1.797230 g / cm^3
# Si number density = 18.013294 Si / 1000 Ang^3
#
#
#
# Elastic Constant Matrix: (Units=GPa)
#
#
# Indices 1 2 3 4 5 6 
#
# 1 69.0519 64.3359 87.8136 0.0000 0.0000 0.0000
# 2 64.3359 69.0523 87.8133 0.0000 0.0000 0.0000
# 3 87.8136 87.8133 212.2617 0.0000 0.0000 0.0000
# 4 0.0000 0.0000 0.0000 106.3860 0.0000 0.0000
# 5 0.0000 0.0000 0.0000 0.0000 106.3786 0.0000
# 6 0.0000 0.0000 0.0000 0.0000 0.0000 23.3648
#
#
#
# Elastic Compliance Matrix: (Units=1/GPa)
#
#
# Indices 1 2 3 4 5 6 
#
# 1 0.114251 -0.097784 -0.006813 0.000000 0.000000 0.000000
# 2 -0.097784 0.114249 -0.006811 0.000000 0.000000 0.000000
# 3 -0.006813 -0.006811 0.010348 0.000000 0.000000 0.000000
# 4 0.000000 0.000000 0.000000 0.009400 0.000000 0.000000
# 5 0.000000 0.000000 0.000000 0.000000 0.009400 0.000000
# 6 0.000000 0.000000 0.000000 0.000000 0.000000 0.042799
#
#
# Mechanical properties :
#
#
# Convention : Reuss Voigt Hill
#
# Bulk Modulus (GPa) = 62.37734 92.25461 77.31597
# Shear Modulus (GPa) = 9.45881 54.58609 32.02245
#
# Velocity S-wave (km/s) = 2.29400 5.51081 4.22087
# Velocity P-wave (km/s) = 6.45912 9.58217 8.17123
#
# Compressibility (1/GPa) = 0.01603146
#
# Stress axis : x y z
#
# Youngs Moduli (GPa) = 8.75263 8.75281 96.64099
#
# Poissons Ratio (x) = 0.85588 0.65839
# Poissons Ratio (y) = 0.85587 0.65827
# Poissons Ratio (z) = 0.05963 0.05962
#
# Static dielectric constant tensor:
#      x y z
#    x 1.603040 0.000000 0.000000 
#    y 0.000000 1.603040 0.000000 
#    z 0.000000 0.000000 1.597230 
# 
# From -- ./inp_files/5980.got.cif
#   From: 2010.05.17/outbox.cif.g08.bks.cpg/sg115_3_cif.got.tgz:5980.got - 2010.05.20 11:07:42.
