data_PCOD9557496
_publ_section_title
;
Structure prediction by ZEFSAII (Michael W. Deem and Ramdas Pophale) SiO2 
 PCOD9557496
Probable space group: P -4 M 2
;
_chemical_formula_sum "Si O2"
_cell_formula_units_Z 44
_cell_length_a 9.000000
_cell_length_b 9.000000
_cell_length_c 30.000000
_cell_angle_alpha 90.000000
_cell_angle_beta 90.000000
_cell_angle_gamma 90.000000
_cell_volume 2430.000000
_symmetry_space_group_name_H-M "P -4 M 2"
_symmetry_group_IT_number 115
_symmetry_cell_setting 'tetragonal'
loop_
_space_group_symop_operation_xyz
x,y,z
y,-x,-z
-x,-y,z
-y,x,-z
y,x,-z
-y,-x,-z
-x,y,z
x,-y,z
loop_
_atom_site_type_symbol
_atom_site_label
_atom_site_fract_x
_atom_site_fract_y
_atom_site_fract_z
Si Si1 0.679158 0.326548 0.049462
Si Si2 0.328407 0.318779 0.317598
Si Si3 0.323008 0.323008 0.500000
Si Si4 0.824557 0.176345 0.134292
Si Si5 0.677364 0.176529 0.773940
Si Si6 0.318784 0.828302 0.591487
O O1 0.500000 0.319375 0.050048
O O2 0.721272 0.500000 0.054021
O O3 0.744524 0.237865 0.090667
O O4 0.726422 0.273579 0.000000
O O5 0.500000 0.276595 0.318248
O O6 0.320055 0.500000 0.317586
O O7 0.252709 0.269640 0.271596
O O8 0.249842 0.268060 0.363022
O O9 0.298827 0.500000 0.503897
O O10 0.247628 0.269151 0.454444
O O11 0.768904 0.247828 0.180518
O O12 0.000000 0.212930 0.130774
O O13 0.808784 0.000000 0.136793
O O14 0.500000 0.199051 0.777702
O O15 0.704395 0.000000 0.770100
O O16 0.500000 0.819502 0.591425
O O17 0.277036 0.000000 0.592060
#
# Coordination Sequence:
#
# PCOD9557496 Si02
#       6
#     8   8   4   8   8   8
#     4   9  19  36  56  77 101 130 166 208 252 297
#     4   9  16  26  43  69  97 122 153 196 242 285
#     4   9  16  26  42  65  92 120 150 187 230 272
#     4  10  21  35  51  74 104 136 169 205 246 295
#     4   9  17  30  48  69  95 129 166 201 239 285
#     4   9  16  26  42  65  93 123 153 188 232 280
#
# _framework density 18.106995999999999
#
# number of rings (size 3 to 8) (size 9 to 14) (size 15 to 20)
#    0.000    2.818    0.000    2.182    0.000    7.273 
#    0.000    4.545    0.000    1.364    0.000    0.000 
#    0.000    0.000    0.000    0.000    0.000    0.000 
#
# Total GULP energy -245283.142064 kJ/mol
# GULP energy per Si atom -5574.616865 kJ/mol
# Density = 1.806578 g / cm^3
# Si number density = 18.106996 Si / 1000 Ang^3
#
#
#
# Elastic Constant Matrix: (Units=GPa)
#
#
# Indices 1 2 3 4 5 6 
#
# 1 21.6452 33.0031 60.5928 0.0000 0.0000 0.0000
# 2 33.0031 21.6452 60.5928 0.0000 0.0000 0.0000
# 3 60.5928 60.5928 226.8782 0.0000 0.0000 0.0000
# 4 0.0000 0.0000 0.0000 -85.2295 0.0000 0.0000
# 5 0.0000 0.0000 0.0000 0.0000 -85.2258 0.0000
# 6 0.0000 0.0000 0.0000 0.0000 0.0000 12.8725
#
#
#
# Elastic Compliance Matrix: (Units=1/GPa)
#
#
# Indices 1 2 3 4 5 6 
#
# 1 -0.021584 0.066461 -0.011985 0.000000 0.000000 0.000000
# 2 0.066461 -0.021584 -0.011985 0.000000 0.000000 0.000000
# 3 -0.011985 -0.011985 0.010810 0.000000 0.000000 0.000000
# 4 0.000000 0.000000 0.000000 -0.011733 0.000000 0.000000
# 5 0.000000 0.000000 0.000000 0.000000 -0.011734 0.000000
# 6 0.000000 0.000000 0.000000 0.000000 0.000000 0.077685
#
#
# Mechanical properties :
#
#
# Convention : Reuss Voigt Hill
#
# Bulk Modulus (GPa) = 19.00337 64.28290 41.64314
# Shear Modulus (GPa) = -109.70058 -23.78458 -66.74258
#
# Velocity S-wave (km/s) = -7.79206 -3.62823 -6.07784
# Velocity P-wave (km/s) = 8.39268 4.24578 5.11910
#
# Compressibility (1/GPa) = 0.05262225
#
# Stress axis : x y z
#
# Youngs Moduli (GPa) = -46.33100 -46.33156 92.51027
#
# Poissons Ratio (x) = 3.07924 1.10877
# Poissons Ratio (y) = 3.07920 1.10878
# Poissons Ratio (z) = -0.55530 -0.55531
#
# Static dielectric constant tensor:
#      x y z
#    x 1.610170 0.000000 0.000000 
#    y 0.000000 1.610170 0.000000 
#    z 0.000000 0.000000 1.611100 
# 
# From -- ./inp_files/5689.got.cif
#   From: 2010.05.17/outbox.ucp.g08.bks.cvg/sg115_3_cif.got.tgz:5689.got - 2010.06.11 11:33:38.
