data_PCOD9557871
_publ_section_title
;
Structure prediction by ZEFSAII (Michael W. Deem and Ramdas Pophale) SiO2 
 PCOD9557871
Probable space group: P -4 C 2
;
_chemical_formula_sum "Si O2"
_cell_formula_units_Z 40
_cell_length_a 14.050650
_cell_length_b 14.050650
_cell_length_c 9.438786
_cell_angle_alpha 90.000000
_cell_angle_beta 90.000000
_cell_angle_gamma 90.000000
_cell_volume 1863.412357
_symmetry_space_group_name_H-M "P -4 C 2"
_symmetry_group_IT_number 116
_symmetry_cell_setting 'tetragonal'
loop_
_space_group_symop_operation_xyz
x,y,z
y,-x,-z
-x,-y,z
-y,x,-z
y,x,1/2-z
-y,-x,1/2-z
-x,y,1/2+z
x,-y,1/2+z
loop_
_atom_site_type_symbol
_atom_site_label
_atom_site_fract_x
_atom_site_fract_y
_atom_site_fract_z
Si Si1 0.262798 0.737203 0.250000
Si Si2 0.500000 0.500000 0.750000
Si Si3 0.000000 0.000000 0.000000
Si Si4 0.612692 0.766047 0.200525
Si Si5 0.195421 0.908964 0.077900
Si Si6 0.538516 0.294523 0.396266
Si Si7 0.082395 0.757046 0.735671
O O1 0.227180 0.804434 0.123364
O O2 0.368861 0.739348 0.310742
O O3 0.403431 0.490555 0.652388
O O4 0.918212 0.068213 0.068007
O O5 0.691028 0.691028 0.250000
O O6 0.543807 0.771405 0.334785
O O7 0.671513 0.862810 0.186650
O O8 0.559336 0.724205 0.061943
O O9 0.230664 0.981351 0.195069
O O10 0.249103 0.928639 0.931728
O O11 0.147441 0.852560 0.750000
#
# Coordination Sequence:
#
# PCOD9557871 Si02
#       7
#     4   2   2   8   8   8   8
#     4  11  26  42  72 101 148 198 236 295 384 438
#     4  10  24  42  70 114 138 178 234 300 370 432
#     4  12  24  42  72 118 136 186 256 310 364 414
#     4  11  26  45  72 105 146 187 240 300 372 442
#     4  12  25  43  72 104 151 191 244 310 366 435
#     4  11  26  44  73 103 147 184 242 299 368 449
#     4  11  25  44  70 105 146 189 243 301 372 439
#
# _framework density 21.465994999999999
#
# number of rings (size 3 to 8) (size 9 to 14) (size 15 to 20)
#    0.000    0.800    3.000    3.600   11.200    1.600 
#    0.000    1.000    0.000    0.000    0.000    0.000 
#    0.000    0.000    0.000    0.000    0.000    0.000 
#
# Total GULP energy -223318.865508 kJ/mol
# GULP energy per Si atom -5582.971638 kJ/mol
# Density = 2.141714 g / cm^3
# Si number density = 21.465995 Si / 1000 Ang^3
#
#
#
# Elastic Constant Matrix: (Units=GPa)
#
#
# Indices 1 2 3 4 5 6 
#
# 1 48.3059 73.1955 -3.1208 0.0000 0.0000 0.0000
# 2 73.1955 48.3045 -3.1207 0.0000 0.0000 0.0000
# 3 -3.1208 -3.1207 80.4767 0.0000 0.0000 0.0000
# 4 0.0000 0.0000 0.0000 30.2298 0.0000 0.0000
# 5 0.0000 0.0000 0.0000 0.0000 30.2293 0.0000
# 6 0.0000 0.0000 0.0000 0.0000 0.0000 32.8570
#
#
#
# Elastic Compliance Matrix: (Units=1/GPa)
#
#
# Indices 1 2 3 4 5 6 
#
# 1 -0.015964 0.024212 0.000320 0.000000 0.000000 0.000000
# 2 0.024212 -0.015965 0.000320 0.000000 0.000000 0.000000
# 3 0.000320 0.000320 0.012451 0.000000 0.000000 0.000000
# 4 0.000000 0.000000 0.000000 0.033080 0.000000 0.000000
# 5 0.000000 0.000000 0.000000 0.000000 0.033080 0.000000
# 6 0.000000 0.000000 0.000000 0.000000 0.000000 0.030435
#
#
# Mechanical properties :
#
#
# Convention : Reuss Voigt Hill
#
# Bulk Modulus (GPa) = 33.08673 34.55503 33.82088
# Shear Modulus (GPa) = 133.37289 26.00544 79.68916
#
# Velocity S-wave (km/s) = 7.89095 3.48440 6.09951
# Velocity P-wave (km/s) = 9.92319 5.68511 8.08673
#
# Compressibility (1/GPa) = 0.03022360
#
# Stress axis : x y z
#
# Youngs Moduli (GPa) = -62.63901 -62.63731 80.31644
#
# Poissons Ratio (x) = 1.51655 -0.02568
# Poissons Ratio (y) = 1.51659 -0.02569
# Poissons Ratio (z) = 0.02003 0.02003
#
# Static dielectric constant tensor:
#      x y z
#    x 1.855010 0.000000 0.000000 
#    y 0.000000 1.855030 0.000000 
#    z 0.000000 0.000000 1.897560 
# 
# From -- ./inp_files/883.got.cif
#   From: 2010.05.17/outbox.cif.g08.bks.cpg/sg116_1_cif.got.tgz:883.got - 2010.05.20 11:11:43.
