data_PCOD9557827
_publ_section_title
;
Structure prediction by ZEFSAII (Michael W. Deem and Ramdas Pophale) SiO2 
 PCOD9557827
Probable space group: P -4 C 2
;
_chemical_formula_sum "Si O2"
_cell_formula_units_Z 52
_cell_length_a 17.327954
_cell_length_b 17.327954
_cell_length_c 8.912920
_cell_angle_alpha 90.000000
_cell_angle_beta 90.000000
_cell_angle_gamma 90.000000
_cell_volume 2676.175443
_symmetry_space_group_name_H-M "P -4 C 2"
_symmetry_group_IT_number 116
_symmetry_cell_setting 'tetragonal'
loop_
_space_group_symop_operation_xyz
x,y,z
y,-x,-z
-x,-y,z
-y,x,-z
y,x,1/2-z
-y,-x,1/2-z
-x,y,1/2+z
x,-y,1/2+z
loop_
_atom_site_type_symbol
_atom_site_label
_atom_site_fract_x
_atom_site_fract_y
_atom_site_fract_z
Si Si1 0.144762 0.402560 0.249378
Si Si2 0.559065 0.143578 0.088815
Si Si3 0.696635 0.738627 0.578572
Si Si4 0.703169 0.296832 0.750000
Si Si5 0.996304 0.227150 0.997778
Si Si6 0.980501 0.336179 0.256265
Si Si7 0.841043 0.169047 0.576029
O O1 0.162030 0.473629 0.357511
O O2 0.213807 0.341322 0.241887
O O3 0.067405 0.359248 0.294057
O O4 0.123827 0.438069 0.086664
O O5 0.617952 0.214105 0.097392
O O6 0.597181 0.076564 0.190732
O O7 0.711924 0.711924 0.750000
O O8 0.686637 0.682882 0.431236
O O9 0.767772 0.794284 0.522850
O O10 0.978982 0.306487 0.087117
O O11 0.066895 0.181510 0.072309
O O12 0.034724 0.256955 0.844537
O O13 0.917024 0.182094 0.973669
O O14 0.818331 0.181669 0.750000
#
# Coordination Sequence:
#
# PCOD9557827 Si02
#       7
#     8   8   8   4   8   8   8
#     4  11  25  41  65  92 138 171 216 267 333 402
#     4  11  25  40  60 100 129 166 216 265 331 403
#     4  11  22  40  66  93 129 168 223 268 331 401
#     4  10  22  44  62  92 131 181 218 264 320 396
#     4  12  25  40  64  88 119 172 223 277 341 394
#     4  12  22  41  61  91 126 166 213 264 332 405
#     4  12  24  43  61  87 125 171 229 290 344 392
#
# _framework density 19.430713999999998
#
# number of rings (size 3 to 8) (size 9 to 14) (size 15 to 20)
#    0.000    0.615    5.385    3.231    4.308    1.538 
#    0.000    0.769    0.000    0.000    0.000    0.538 
#    0.000    0.000    0.000    0.000    0.000    0.000 
#
# Total GULP energy -289537.784206 kJ/mol
# GULP energy per Si atom -5568.034312 kJ/mol
# Density = 1.938649 g / cm^3
# Si number density = 19.430714 Si / 1000 Ang^3
#
#
#
# Elastic Constant Matrix: (Units=GPa)
#
#
# Indices 1 2 3 4 5 6 
#
# 1 64.3190 50.5779 18.5394 0.0000 0.0000 0.0000
# 2 50.5779 64.3176 18.5389 0.0000 0.0000 0.0000
# 3 18.5394 18.5389 104.8732 0.0000 0.0000 0.0000
# 4 0.0000 0.0000 0.0000 30.0255 0.0000 0.0000
# 5 0.0000 0.0000 0.0000 0.0000 30.0261 0.0000
# 6 0.0000 0.0000 0.0000 0.0000 0.0000 9.2486
#
#
#
# Elastic Compliance Matrix: (Units=1/GPa)
#
#
# Indices 1 2 3 4 5 6 
#
# 1 0.041004 -0.031774 -0.001632 0.000000 0.000000 0.000000
# 2 -0.031774 0.041005 -0.001632 0.000000 0.000000 0.000000
# 3 -0.001632 -0.001632 0.010112 0.000000 0.000000 0.000000
# 4 0.000000 0.000000 0.000000 0.033305 0.000000 0.000000
# 5 0.000000 0.000000 0.000000 0.000000 0.033304 0.000000
# 6 0.000000 0.000000 0.000000 0.000000 0.000000 0.108124
#
#
# Mechanical properties :
#
#
# Convention : Reuss Voigt Hill
#
# Bulk Modulus (GPa) = 45.36036 45.42470 45.39253
# Shear Modulus (GPa) = 14.52319 23.58363 19.05341
#
# Velocity S-wave (km/s) = 2.73689 3.48764 3.13482
# Velocity P-wave (km/s) = 5.77778 6.29656 6.04274
#
# Compressibility (1/GPa) = 0.02204568
#
# Stress axis : x y z
#
# Youngs Moduli (GPa) = 24.38809 24.38755 98.89041
#
# Poissons Ratio (x) = 0.77489 0.16136
# Poissons Ratio (y) = 0.77491 0.16135
# Poissons Ratio (z) = 0.03979 0.03979
#
# Static dielectric constant tensor:
#      x y z
#    x 1.696960 0.000000 0.000000 
#    y 0.000000 1.696960 0.000000 
#    z 0.000000 0.000000 1.840120 
# 
# From -- ./inp_files/1018.got.cif
#   From: 2010.05.17/outbox.cif.g08.bks.cpg/sg116_1_cif.got.tgz:1018.got - 2010.05.20 11:11:43.
