data_PCOD9557935
_publ_section_title
;
Structure prediction by ZEFSAII (Michael W. Deem and Ramdas Pophale) SiO2 
 PCOD9557935
Probable space group: P -4 C 2
;
_chemical_formula_sum "Si O2"
_cell_formula_units_Z 38
_cell_length_a 9.263566
_cell_length_b 9.263566
_cell_length_c 22.582616
_cell_angle_alpha 90.000000
_cell_angle_beta 90.000000
_cell_angle_gamma 90.000000
_cell_volume 1937.896819
_symmetry_space_group_name_H-M "P -4 C 2"
_symmetry_group_IT_number 116
_symmetry_cell_setting 'tetragonal'
loop_
_space_group_symop_operation_xyz
x,y,z
y,-x,-z
-x,-y,z
-y,x,-z
y,x,1/2-z
-y,-x,1/2-z
-x,y,1/2+z
x,-y,1/2+z
loop_
_atom_site_type_symbol
_atom_site_label
_atom_site_fract_x
_atom_site_fract_y
_atom_site_fract_z
Si Si1 0.003094 0.243522 0.249247
Si Si2 0.500000 0.500000 0.500000
Si Si3 0.383761 0.749854 0.072390
Si Si4 0.000000 0.500000 0.344179
Si Si5 0.797875 0.082780 0.980267
Si Si6 0.349514 0.072035 0.879252
O O1 0.872988 0.127012 0.250000
O O2 0.968249 0.328386 0.188876
O O3 0.011144 0.358452 0.302451
O O4 0.149650 0.149650 0.250000
O O5 0.633566 0.490364 0.455451
O O6 0.241368 0.677339 0.104314
O O7 0.465643 0.861167 0.114985
O O8 0.323375 0.830019 0.014085
O O9 0.766518 0.017525 0.916803
O O10 0.943488 0.173491 0.978715
O O11 0.500000 0.000000 0.899180
#
# Coordination Sequence:
#
# PCOD9557935 Si02
#       6
#     8   2   8   4   8   8
#     4  11  25  44  68  97 133 181 232 282 340 404
#     4  12  28  48  64 106 140 192 224 276 374 436
#     4  11  26  42  70  98 142 178 226 285 352 421
#     4  12  26  46  68 104 142 180 232 294 348 418
#     4   9  21  37  63  99 129 167 221 280 340 398
#     4  11  22  41  68  98 137 176 227 282 341 418
#
# _framework density 19.608889000000001
#
# number of rings (size 3 to 8) (size 9 to 14) (size 15 to 20)
#    0.000    1.263    3.158    1.263   10.316    3.368 
#    0.000    0.000    0.000    0.000    0.000    0.000 
#    0.000    0.000    0.000    0.000    0.000    0.000 
#
# Total GULP energy -212016.490173 kJ/mol
# GULP energy per Si atom -5579.381320 kJ/mol
# Density = 1.956426 g / cm^3
# Si number density = 19.608889 Si / 1000 Ang^3
#
#
#
# Elastic Constant Matrix: (Units=GPa)
#
#
# Indices 1 2 3 4 5 6 
#
# 1 78.1731 50.6078 37.2266 0.0000 0.0000 0.0000
# 2 50.6078 78.1731 37.2266 0.0000 0.0000 0.0000
# 3 37.2266 37.2266 79.9593 0.0000 0.0000 0.0000
# 4 0.0000 0.0000 0.0000 -27.8512 0.0000 0.0000
# 5 0.0000 0.0000 0.0000 0.0000 -27.8512 0.0000
# 6 0.0000 0.0000 0.0000 0.0000 0.0000 38.5268
#
#
#
# Elastic Compliance Matrix: (Units=1/GPa)
#
#
# Indices 1 2 3 4 5 6 
#
# 1 0.023451 -0.012826 -0.004947 0.000000 0.000000 0.000000
# 2 -0.012826 0.023451 -0.004947 0.000000 0.000000 0.000000
# 3 -0.004947 -0.004947 0.017112 0.000000 0.000000 0.000000
# 4 0.000000 0.000000 0.000000 -0.035905 0.000000 0.000000
# 5 0.000000 0.000000 0.000000 0.000000 -0.035905 0.000000
# 6 0.000000 0.000000 0.000000 0.000000 0.000000 0.025956
#
#
# Mechanical properties :
#
#
# Convention : Reuss Voigt Hill
#
# Bulk Modulus (GPa) = 53.83377 54.04748 53.94063
# Shear Modulus (GPa) = 71.64176 3.98118 37.81147
#
# Velocity S-wave (km/s) = 6.05101 1.42643 4.39598
# Velocity P-wave (km/s) = 8.73687 5.50777 7.30303
#
# Compressibility (1/GPa) = 0.01857570
#
# Stress axis : x y z
#
# Youngs Moduli (GPa) = 42.64169 42.64169 58.43720
#
# Poissons Ratio (x) = 0.54693 0.28907
# Poissons Ratio (y) = 0.54693 0.28907
# Poissons Ratio (z) = 0.21093 0.21093
#
# Static dielectric constant tensor:
#      x y z
#    x 1.723600 0.000000 0.000000 
#    y 0.000000 1.723600 0.000000 
#    z 0.000000 0.000000 1.673930 
# 
# From -- ./inp_files/4477.got.cif
#   From: 2010.05.17/outbox.cif.g08.bks.cpg/sg116_3_cif.got.tgz:4477.got - 2010.05.20 11:11:43.
