data_PCOD9557555
_publ_section_title
;
Structure prediction by ZEFSAII (Michael W. Deem and Ramdas Pophale) SiO2 
 PCOD9557555
Probable space group: P -4 C 2
;
_chemical_formula_sum "Si O2"
_cell_formula_units_Z 64
_cell_length_a 26.125178
_cell_length_b 26.125178
_cell_length_c 5.350238
_cell_angle_alpha 90.000000
_cell_angle_beta 90.000000
_cell_angle_gamma 90.000000
_cell_volume 3651.670793
_symmetry_space_group_name_H-M "P -4 C 2"
_symmetry_group_IT_number 116
_symmetry_cell_setting 'tetragonal'
loop_
_space_group_symop_operation_xyz
x,y,z
y,-x,-z
-x,-y,z
-y,x,-z
y,x,1/2-z
-y,-x,1/2-z
-x,y,1/2+z
x,-y,1/2+z
loop_
_atom_site_type_symbol
_atom_site_label
_atom_site_fract_x
_atom_site_fract_y
_atom_site_fract_z
Si Si1 0.237948 0.032138 0.282031
Si Si2 0.157677 0.485621 0.598459
Si Si3 0.682655 0.877672 0.377052
Si Si4 0.708450 0.223244 0.116216
Si Si5 0.639860 0.682181 0.496626
Si Si6 0.846979 0.633060 0.629054
Si Si7 0.727688 0.472472 0.568505
Si Si8 0.117888 0.966938 0.793205
O O1 0.276375 0.078157 0.338669
O O2 0.178049 0.047535 0.291242
O O3 0.246220 0.991311 0.506123
O O4 0.129071 0.504355 0.842306
O O5 0.168884 0.425800 0.623597
O O6 0.210381 0.518986 0.580081
O O7 0.711548 0.823519 0.424678
O O8 0.648032 0.881325 0.628741
O O9 0.648469 0.872385 0.130780
O O10 0.760271 0.239729 0.250000
O O11 0.682288 0.272876 0.998884
O O12 0.668406 0.202659 0.324547
O O13 0.650107 0.650107 0.750000
O O14 0.584962 0.710014 0.484233
O O15 0.648577 0.648577 0.250000
O O16 0.709510 0.507518 0.337770
O O17 0.081060 0.918941 0.750000
O O18 0.108575 0.005644 0.560296
#
# Coordination Sequence:
#
# PCOD9557555 Si02
#       8
#     8   8   8   8   8   8   8   8
#     4  10  21  41  62  81 111 148 196 244 290 327
#     4  10  19  30  50  75 104 147 178 222 273 314
#     4  10  22  36  56  79 110 146 189 239 268 331
#     4   9  22  33  50  75 115 156 187 211 269 330
#     4  11  23  35  51  76 116 160 188 220 272 336
#     4  10  21  34  52  77 118 140 186 230 271 325
#     4  10  20  32  53  74 101 143 194 227 273 320
#     4  10  21  37  57  86 115 150 188 239 296 346
#
# _framework density 17.526226000000001
#
# number of rings (size 3 to 8) (size 9 to 14) (size 15 to 20)
#    0.750    1.250    0.000    4.125    7.000    0.750 
#    2.250    0.000    0.000    0.000    0.000    0.000 
#    0.000   52.500    0.000    0.000    0.000    0.000 
#
# Total GULP energy -356540.474898 kJ/mol
# GULP energy per Si atom -5570.944920 kJ/mol
# Density = 1.748634 g / cm^3
# Si number density = 17.526226 Si / 1000 Ang^3
#
#
#
# Elastic Constant Matrix: (Units=GPa)
#
#
# Indices 1 2 3 4 5 6 
#
# 1 53.7866 36.3840 25.5618 0.0000 0.0000 0.0000
# 2 36.3840 53.7902 25.5608 0.0000 0.0000 0.0000
# 3 25.5618 25.5608 134.4374 0.0000 0.0000 0.0000
# 4 0.0000 0.0000 0.0000 18.3495 0.0000 0.0000
# 5 0.0000 0.0000 0.0000 0.0000 18.3487 0.0000
# 6 0.0000 0.0000 0.0000 0.0000 0.0000 11.4183
#
#
#
# Elastic Compliance Matrix: (Units=1/GPa)
#
#
# Indices 1 2 3 4 5 6 
#
# 1 0.034945 -0.022513 -0.002364 0.000000 0.000000 0.000000
# 2 -0.022513 0.034942 -0.002363 0.000000 0.000000 0.000000
# 3 -0.002364 -0.002363 0.008337 0.000000 0.000000 0.000000
# 4 0.000000 0.000000 0.000000 0.054497 0.000000 0.000000
# 5 0.000000 0.000000 0.000000 0.000000 0.054500 0.000000
# 6 0.000000 0.000000 0.000000 0.000000 0.000000 0.087579
#
#
# Mechanical properties :
#
#
# Convention : Reuss Voigt Hill
#
# Bulk Modulus (GPa) = 42.11720 46.33637 44.22679
# Shear Modulus (GPa) = 14.82824 19.92378 17.37601
#
# Velocity S-wave (km/s) = 2.91187 3.37530 3.15211
# Velocity P-wave (km/s) = 5.94882 6.45646 6.20783
#
# Compressibility (1/GPa) = 0.02374327
#
# Stress axis : x y z
#
# Youngs Moduli (GPa) = 28.61673 28.61901 119.94553
#
# Poissons Ratio (x) = 0.64431 0.28353
# Poissons Ratio (y) = 0.64426 0.28341
# Poissons Ratio (z) = 0.06764 0.06762
#
# Static dielectric constant tensor:
#      x y z
#    x 1.576250 0.000000 0.000000 
#    y 0.000000 1.576250 0.000000 
#    z 0.000000 0.000000 1.676610 
# 
# From -- ./inp_files/268.got.cif
#   From: 2010.05.17/outbox.cif.g08.bks.cpg/sg116_1_cif.got.tgz:268.got - 2010.05.20 11:11:43.
