data_PCOD9557540
_publ_section_title
;
Structure prediction by ZEFSAII (Michael W. Deem and Ramdas Pophale) SiO2 
 PCOD9557540
Probable space group: P -4 C 2
;
_chemical_formula_sum "Si O2"
_cell_formula_units_Z 48
_cell_length_a 20.875027
_cell_length_b 20.875027
_cell_length_c 5.473648
_cell_angle_alpha 90.000000
_cell_angle_beta 90.000000
_cell_angle_gamma 90.000000
_cell_volume 2385.233812
_symmetry_space_group_name_H-M "P -4 C 2"
_symmetry_group_IT_number 116
_symmetry_cell_setting 'tetragonal'
loop_
_space_group_symop_operation_xyz
x,y,z
y,-x,-z
-x,-y,z
-y,x,-z
y,x,1/2-z
-y,-x,1/2-z
-x,y,1/2+z
x,-y,1/2+z
loop_
_atom_site_type_symbol
_atom_site_label
_atom_site_fract_x
_atom_site_fract_y
_atom_site_fract_z
Si Si1 0.673522 0.934904 0.250000
Si Si2 0.721637 0.721637 0.750000
Si Si3 0.540766 0.249136 0.750000
Si Si4 0.334026 0.334026 0.250000
Si Si5 0.197515 0.022108 0.750000
Si Si6 0.539916 0.901292 0.250000
Si Si7 0.286390 0.128290 0.750000
O O1 0.598865 0.951297 0.250000
O O2 0.682692 0.896118 0.499728
O O3 0.731862 0.986007 0.249999
O O4 0.682692 0.896118 0.000271
O O5 0.693589 0.693589 0.502180
O O6 0.710798 0.796781 0.749999
O O7 0.500000 0.255299 0.499999
O O8 0.593689 0.305578 0.750000
O O9 0.564134 0.174046 0.750000
O O10 0.215613 0.096458 0.750000
O O11 0.165661 0.000000 0.500000
O O12 0.500000 0.908649 0.500000
#
# Coordination Sequence:
#
# PCOD9557540 Si02
#       7
#     8   4   8   4   8   8   8
#     4  10  18  32  50  67  92 131 172 201 233 286
#     4  12  22  32  52  84 110 131 162 215 268 306
#     4  10  21  37  55  76 104 134 161 199 252 306
#     4  12  24  38  58  83 104 128 168 202 250 329
#     4   8  16  29  47  64  85 126 169 198 230 281
#     4  10  19  30  47  70  95 124 159 200 243 279
#     4  10  19  31  48  69  97 126 160 202 249 292
#
# _framework density 20.123813999999999
#
# number of rings (size 3 to 8) (size 9 to 14) (size 15 to 20)
#    0.000    2.000    0.000    5.000    0.000    2.667 
#    0.000    0.000    0.000   28.500    0.000    0.000 
#    0.000    0.000    0.000    0.000    0.000  202.500 
#
# Total GULP energy -267593.650297 kJ/mol
# GULP energy per Si atom -5574.867715 kJ/mol
# Density = 2.007801 g / cm^3
# Si number density = 20.123814 Si / 1000 Ang^3
#
#
#
# Elastic Constant Matrix: (Units=GPa)
#
#
# Indices 1 2 3 4 5 6 
#
# 1 43.4632 9.5879 27.0080 0.0000 0.0000 0.0000
# 2 9.5879 43.4632 27.0080 0.0000 0.0000 0.0000
# 3 27.0080 27.0080 213.1460 0.0000 0.0000 0.0000
# 4 0.0000 0.0000 0.0000 1.8474 0.0000 0.0000
# 5 0.0000 0.0000 0.0000 0.0000 1.8474 0.0000
# 6 0.0000 0.0000 0.0000 0.0000 0.0000 -9.5668
#
#
#
# Elastic Compliance Matrix: (Units=1/GPa)
#
#
# Indices 1 2 3 4 5 6 
#
# 1 0.025581 -0.003939 -0.002742 0.000000 0.000000 0.000000
# 2 -0.003939 0.025581 -0.002742 0.000000 0.000000 0.000000
# 3 -0.002742 -0.002742 0.005387 0.000000 0.000000 0.000000
# 4 0.000000 0.000000 0.000000 0.541302 0.000000 0.000000
# 5 0.000000 0.000000 0.000000 0.000000 0.541302 0.000000
# 6 0.000000 0.000000 0.000000 0.000000 0.000000 -0.104529
#
#
# Mechanical properties :
#
#
# Convention : Reuss Voigt Hill
#
# Bulk Modulus (GPa) = 26.52426 47.47558 36.99992
# Shear Modulus (GPa) = 4.69026 14.59017 9.64021
#
# Velocity S-wave (km/s) = 1.52832 2.69554 2.19108
# Velocity P-wave (km/s) = 4.04023 5.77329 4.98269
#
# Compressibility (1/GPa) = 0.03770133
#
# Stress axis : x y z
#
# Youngs Moduli (GPa) = 39.09152 39.09152 185.64671
#
# Poissons Ratio (x) = 0.15398 0.50910
# Poissons Ratio (y) = 0.15398 0.50910
# Poissons Ratio (z) = 0.10720 0.10720
#
# Static dielectric constant tensor:
#      x y z
#    x 1.756450 0.000000 0.000000 
#    y 0.000000 1.756450 0.000000 
#    z 0.000000 0.000000 1.699450 
# 
# From -- ./inp_files/188.got.cif
#   From: 2010.05.17/outbox.cif.g08.bks.cpg/sg116_1_cif.got.tgz:188.got - 2010.05.20 11:11:43.
