data_PCOD9557508
_publ_section_title
;
Structure prediction by ZEFSAII (Michael W. Deem and Ramdas Pophale) SiO2 
 PCOD9557508
Probable space group: P -4 C 2
;
_chemical_formula_sum "Si O2"
_cell_formula_units_Z 64
_cell_length_a 27.440215
_cell_length_b 27.440215
_cell_length_c 5.272041
_cell_angle_alpha 90.000000
_cell_angle_beta 90.000000
_cell_angle_gamma 90.000000
_cell_volume 3969.664456
_symmetry_space_group_name_H-M "P -4 C 2"
_symmetry_group_IT_number 116
_symmetry_cell_setting 'tetragonal'
loop_
_space_group_symop_operation_xyz
x,y,z
y,-x,-z
-x,-y,z
-y,x,-z
y,x,1/2-z
-y,-x,1/2-z
-x,y,1/2+z
x,-y,1/2+z
loop_
_atom_site_type_symbol
_atom_site_label
_atom_site_fract_x
_atom_site_fract_y
_atom_site_fract_z
Si Si1 0.704195 0.525929 0.118475
Si Si2 0.362429 0.684064 0.999016
Si Si3 0.718062 0.235986 0.000677
Si Si4 0.867335 0.675207 0.927209
Si Si5 0.821202 0.476035 0.678553
Si Si6 0.017334 0.417485 0.429437
Si Si7 0.386665 0.127514 0.066497
Si Si8 0.024155 0.693452 0.379991
O O1 0.686486 0.510953 0.398679
O O2 0.762923 0.522341 0.146338
O O3 0.691455 0.580055 0.026762
O O4 0.344583 0.655418 0.250000
O O5 0.334099 0.735936 0.997076
O O6 0.343860 0.656141 0.750000
O O7 0.745134 0.254867 0.250000
O O8 0.709193 0.178783 0.024884
O O9 0.746786 0.253215 0.750000
O O10 0.855188 0.638155 0.694922
O O11 0.918457 0.698629 0.843706
O O12 0.878558 0.650577 0.198932
O O13 0.839165 0.484521 0.390040
O O14 0.836340 0.426395 0.815495
O O15 0.074107 0.409174 0.479715
O O16 0.990685 0.442495 0.661535
O O17 0.989838 0.364660 0.393527
O O18 0.005484 0.713964 0.644315
#
# Coordination Sequence:
#
# PCOD9557508 Si02
#       8
#     8   8   8   8   8   8   8   8
#     4  10  20  35  54  75 102 128 158 196 230 269
#     4  10  20  35  54  75 105 133 156 192 237 279
#     4  10  22  36  47  69 104 133 163 197 228 290
#     4  12  20  30  52  73  86 124 159 194 250 299
#     4  10  22  36  47  66  95 124 158 201 237 281
#     4  10  16  29  43  66  90 106 138 201 264 282
#     4  12  20  30  52  70  85 117 158 201 242 314
#     4  10  16  29  43  69  94 106 145 204 261 287
#
# _framework density 16.122267999999998
#
# number of rings (size 3 to 8) (size 9 to 14) (size 15 to 20)
#    0.000    1.500    5.000    3.000    0.000    4.000 
#    0.000    0.000    0.000    2.250    0.000    0.000 
#    0.000   17.500    0.000    0.000    0.000    0.000 
#
# Total GULP energy -356813.550376 kJ/mol
# GULP energy per Si atom -5575.211725 kJ/mol
# Density = 1.608557 g / cm^3
# Si number density = 16.122268 Si / 1000 Ang^3
#
#
#
# Elastic Constant Matrix: (Units=GPa)
#
#
# Indices 1 2 3 4 5 6 
#
# 1 64.7271 1.7922 25.0132 0.0000 0.0000 0.0000
# 2 1.7922 64.7360 25.0170 0.0000 0.0000 0.0000
# 3 25.0132 25.0170 123.0792 0.0000 0.0000 0.0000
# 4 0.0000 0.0000 0.0000 3.3433 0.0000 0.0000
# 5 0.0000 0.0000 0.0000 0.0000 3.3658 0.0000
# 6 0.0000 0.0000 0.0000 0.0000 0.0000 1.1832
#
#
#
# Elastic Compliance Matrix: (Units=1/GPa)
#
#
# Indices 1 2 3 4 5 6 
#
# 1 0.016817 0.000928 -0.003606 0.000000 0.000000 0.000000
# 2 0.000928 0.016815 -0.003607 0.000000 0.000000 0.000000
# 3 -0.003606 -0.003607 0.009591 0.000000 0.000000 0.000000
# 4 0.000000 0.000000 0.000000 0.299104 0.000000 0.000000
# 5 0.000000 0.000000 0.000000 0.000000 0.297105 0.000000
# 6 0.000000 0.000000 0.000000 0.000000 0.000000 0.845148
#
#
# Mechanical properties :
#
#
# Convention : Reuss Voigt Hill
#
# Bulk Modulus (GPa) = 32.62218 39.57635 36.09926
# Shear Modulus (GPa) = 3.31704 14.95980 9.13842
#
# Velocity S-wave (km/s) = 1.43593 3.04944 2.38338
# Velocity P-wave (km/s) = 4.79868 6.08274 5.47846
#
# Compressibility (1/GPa) = 0.03065400
#
# Stress axis : x y z
#
# Youngs Moduli (GPa) = 59.46209 59.46939 104.26619
#
# Poissons Ratio (x) = -0.05519 0.37603
# Poissons Ratio (y) = -0.05519 0.37604
# Poissons Ratio (z) = 0.21445 0.21448
#
# Static dielectric constant tensor:
#      x y z
#    x 1.614250 0.000000 0.000000 
#    y 0.000000 1.614250 0.000000 
#    z 0.000000 0.000000 1.618570 
# 
# From -- ./inp_files/267.got.cif
#   From: 2010.05.17/outbox.cif.g08.bks.cpg/sg116_1_cif.got.tgz:267.got - 2010.05.20 11:11:43.
