data_PCOD9557486
_publ_section_title
;
Structure prediction by ZEFSAII (Michael W. Deem and Ramdas Pophale) SiO2 
 PCOD9557486
Probable space group: P -4 M 2
;
_chemical_formula_sum "Si O2"
_cell_formula_units_Z 48
_cell_length_a 9.000000
_cell_length_b 9.000000
_cell_length_c 30.000000
_cell_angle_alpha 90.000000
_cell_angle_beta 90.000000
_cell_angle_gamma 90.000000
_cell_volume 2430.000000
_symmetry_space_group_name_H-M "P -4 M 2"
_symmetry_group_IT_number 115
_symmetry_cell_setting 'tetragonal'
loop_
_space_group_symop_operation_xyz
x,y,z
y,-x,-z
-x,-y,z
-y,x,-z
y,x,-z
-y,-x,-z
-x,y,z
x,-y,z
loop_
_atom_site_type_symbol
_atom_site_label
_atom_site_fract_x
_atom_site_fract_y
_atom_site_fract_z
Si Si1 0.163693 0.673253 0.036548
Si Si2 0.178283 0.333946 0.888896
Si Si3 0.335065 0.180701 0.212390
Si Si4 0.175852 0.329702 0.459579
Si Si5 0.327470 0.327111 0.371260
Si Si6 0.178556 0.837152 0.705070
O O1 0.167024 0.500000 0.045417
O O2 0.206110 0.759351 0.080721
O O3 0.000000 0.713987 0.019520
O O4 0.282149 0.717852 0.000000
O O5 0.223269 0.500000 0.904621
O O6 0.229515 0.316761 0.838179
O O7 0.000000 0.330979 0.889612
O O8 0.500000 0.225416 0.228073
O O9 0.208290 0.229627 0.245767
O O10 0.333956 0.000000 0.211703
O O11 0.236608 0.236608 0.500000
O O12 0.230863 0.500000 0.463672
O O13 0.235008 0.269480 0.412987
O O14 0.000000 0.331499 0.459481
O O15 0.500000 0.318300 0.382061
O O16 0.288443 0.500000 0.363639
O O17 0.286101 0.235425 0.328237
O O18 0.000000 0.838954 0.704718
O O19 0.233093 0.000000 0.691767
#
# Coordination Sequence:
#
# PCOD9557486 Si02
#       6
#     8   8   8   8   8   8
#     4  11  24  39  55  78 107 138 175 217 261 313
#     4   9  18  34  57  83 108 136 174 218 263 313
#     4   8  15  30  52  77 106 140 177 217 260 309
#     4  10  21  37  57  80 106 137 173 214 262 314
#     4  10  21  37  57  79 104 139 182 223 264 313
#     4  10  20  33  52  80 111 142 178 220 266 315
#
# _framework density 19.753086
#
# number of rings (size 3 to 8) (size 9 to 14) (size 15 to 20)
#    0.000    2.333    0.000    3.500    0.000    8.000 
#    0.000    2.500    0.000    1.000    0.000    0.000 
#    0.000    0.000    0.000    0.000    0.000    0.000 
#
# Total GULP energy -267526.310238 kJ/mol
# GULP energy per Si atom -5573.464797 kJ/mol
# Density = 1.970813 g / cm^3
# Si number density = 19.753086 Si / 1000 Ang^3
#
#
#
# Elastic Constant Matrix: (Units=GPa)
#
#
# Indices 1 2 3 4 5 6 
#
# 1 13.3119 28.1494 24.2679 0.0000 0.0000 0.0000
# 2 28.1494 13.3133 24.2680 0.0000 0.0000 0.0000
# 3 24.2679 24.2680 61.9830 0.0000 0.0000 0.0000
# 4 0.0000 0.0000 0.0000 9.7144 0.0000 0.0000
# 5 0.0000 0.0000 0.0000 0.0000 9.7142 0.0000
# 6 0.0000 0.0000 0.0000 0.0000 0.0000 43.6302
#
#
#
# Elastic Compliance Matrix: (Units=1/GPa)
#
#
# Indices 1 2 3 4 5 6 
#
# 1 -0.011439 0.055963 -0.017432 0.000000 0.000000 0.000000
# 2 0.055963 -0.011435 -0.017434 0.000000 0.000000 0.000000
# 3 -0.017432 -0.017434 0.029784 0.000000 0.000000 0.000000
# 4 0.000000 0.000000 0.000000 0.102940 0.000000 0.000000
# 5 0.000000 0.000000 0.000000 0.000000 0.102942 0.000000
# 6 0.000000 0.000000 0.000000 0.000000 0.000000 0.022920
#
#
# Mechanical properties :
#
#
# Convention : Reuss Voigt Hill
#
# Bulk Modulus (GPa) = 20.36496 26.88652 23.62574
# Shear Modulus (GPa) = 23.82253 13.40663 18.61458
#
# Velocity S-wave (km/s) = 3.47654 2.60803 3.07312
# Velocity P-wave (km/s) = 5.14269 4.76550 4.95768
#
# Compressibility (1/GPa) = 0.04910395
#
# Stress axis : x y z
#
# Youngs Moduli (GPa) = -87.41956 -87.44729 33.57463
#
# Poissons Ratio (x) = 4.89381 0.58529
# Poissons Ratio (y) = 4.89226 0.58533
# Poissons Ratio (z) = -1.52393 -1.52452
#
# Static dielectric constant tensor:
#      x y z
#    x 1.701230 0.000000 0.000000 
#    y 0.000000 1.701220 0.000000 
#    z 0.000000 0.000000 1.844430 
# 
# From -- ./inp_files/6076.got.cif
#   From: 2010.05.17/outbox.ucp.g08.bks.cvg/sg115_4_cif.got.tgz:6076.got - 2010.06.11 11:33:38.
