data_PCOD9557999
_publ_section_title
;
Structure prediction by ZEFSAII (Michael W. Deem and Ramdas Pophale) SiO2 
 PCOD9557999
Probable space group: P -4 C 2
;
_chemical_formula_sum "Si O2"
_cell_formula_units_Z 26
_cell_length_a 10.061348
_cell_length_b 10.061348
_cell_length_c 10.859089
_cell_angle_alpha 90.000000
_cell_angle_beta 90.000000
_cell_angle_gamma 90.000000
_cell_volume 1099.273437
_symmetry_space_group_name_H-M "P -4 C 2"
_symmetry_group_IT_number 116
_symmetry_cell_setting 'tetragonal'
loop_
_space_group_symop_operation_xyz
x,y,z
y,-x,-z
-x,-y,z
-y,x,-z
y,x,1/2-z
-y,-x,1/2-z
-x,y,1/2+z
x,-y,1/2+z
loop_
_atom_site_type_symbol
_atom_site_label
_atom_site_fract_x
_atom_site_fract_y
_atom_site_fract_z
Si Si1 0.154260 0.154260 0.250000
Si Si2 0.445988 0.851438 0.358945
Si Si3 0.162596 0.162596 0.750000
Si Si4 0.500000 0.500000 0.000000
Si Si5 0.399725 0.250064 0.120040
O O1 0.244334 0.214203 0.139394
O O2 0.996903 0.175163 0.270693
O O3 0.287934 0.821141 0.341709
O O4 0.518904 0.780631 0.243860
O O5 0.464923 0.823734 0.503730
O O6 0.500000 0.000000 0.340522
O O7 0.402108 0.582482 0.915586
#
# Coordination Sequence:
#
# PCOD9557999 Si02
#       5
#     4   8   4   2   8
#     4  11  26  49  76 118 164 211 278 357 426 502
#     4  12  26  49  82 114 163 224 278 345 424 511
#     4  11  26  48  78 117 162 210 280 355 428 499
#     4  12  28  46  84 122 172 218 288 354 420 522
#     4  12  27  50  80 120 168 222 282 350 425 511
#
# _framework density 23.651986999999998
#
# number of rings (size 3 to 8) (size 9 to 14) (size 15 to 20)
#    0.000    0.308    3.077    4.615    0.000    6.769 
#    0.000    3.077    0.000    0.000    0.000    0.000 
#    0.000    0.000    0.000    0.000    0.000    0.000 
#
# Total GULP energy -144834.930725 kJ/mol
# GULP energy per Si atom -5570.574259 kJ/mol
# Density = 2.359815 g / cm^3
# Si number density = 23.651987 Si / 1000 Ang^3
#
#
#
# Elastic Constant Matrix: (Units=GPa)
#
#
# Indices 1 2 3 4 5 6 
#
# 1 139.8500 41.2321 72.3249 0.0000 0.0000 0.0000
# 2 41.2321 139.8500 72.3249 0.0000 0.0000 0.0000
# 3 72.3249 72.3249 179.4722 0.0000 0.0000 0.0000
# 4 0.0000 0.0000 0.0000 32.4671 0.0000 0.0000
# 5 0.0000 0.0000 0.0000 0.0000 32.4671 0.0000
# 6 0.0000 0.0000 0.0000 0.0000 0.0000 43.0815
#
#
#
# Elastic Compliance Matrix: (Units=1/GPa)
#
#
# Indices 1 2 3 4 5 6 
#
# 1 0.009142 -0.000998 -0.003282 0.000000 0.000000 0.000000
# 2 -0.000998 0.009142 -0.003282 0.000000 0.000000 0.000000
# 3 -0.003282 -0.003282 0.008217 0.000000 0.000000 0.000000
# 4 0.000000 0.000000 0.000000 0.030800 0.000000 0.000000
# 5 0.000000 0.000000 0.000000 0.000000 0.030800 0.000000
# 6 0.000000 0.000000 0.000000 0.000000 0.000000 0.023212
#
#
# Mechanical properties :
#
#
# Convention : Reuss Voigt Hill
#
# Bulk Modulus (GPa) = 87.89411 92.32620 90.11016
# Shear Modulus (GPa) = 38.39359 39.82249 39.10804
#
# Velocity S-wave (km/s) = 4.03335 4.10772 4.07071
# Velocity P-wave (km/s) = 7.67676 7.84971 7.76372
#
# Compressibility (1/GPa) = 0.01137733
#
# Stress axis : x y z
#
# Youngs Moduli (GPa) = 109.38459 109.38459 121.69852
#
# Poissons Ratio (x) = 0.10917 0.39940
# Poissons Ratio (y) = 0.10917 0.39940
# Poissons Ratio (z) = 0.35899 0.35899
#
# Static dielectric constant tensor:
#      x y z
#    x 1.945290 0.000000 0.000000 
#    y 0.000000 1.945290 0.000000 
#    z 0.000000 0.000000 1.848040 
# 
# From -- ./inp_files/536.got.cif
#   From: 2010.05.17/outbox.cif.g08.bks.cpg/sg116_1_cif.got.tgz:536.got - 2010.05.20 11:11:43.
