data_PCOD9557098
_publ_section_title
;
Structure prediction by ZEFSAII (Michael W. Deem and Ramdas Pophale) SiO2 
 PCOD9557098
Probable space group: P -4 M 2
;
_chemical_formula_sum "Si O2"
_cell_formula_units_Z 48
_cell_length_a 8.067585
_cell_length_b 8.067585
_cell_length_c 35.970141
_cell_angle_alpha 90.000000
_cell_angle_beta 90.000000
_cell_angle_gamma 90.000000
_cell_volume 2341.149998
_symmetry_space_group_name_H-M "P -4 M 2"
_symmetry_group_IT_number 115
_symmetry_cell_setting 'tetragonal'
loop_
_space_group_symop_operation_xyz
x,y,z
y,-x,-z
-x,-y,z
-y,x,-z
y,x,-z
-y,-x,-z
-x,y,z
x,-y,z
loop_
_atom_site_type_symbol
_atom_site_label
_atom_site_fract_x
_atom_site_fract_y
_atom_site_fract_z
Si Si1 0.500000 0.700231 0.090037
Si Si2 0.199554 0.500000 0.824496
Si Si3 0.807388 0.302565 0.304359
Si Si4 0.197794 0.191218 0.776404
Si Si5 0.318273 0.803181 0.461978
Si Si6 0.200108 0.190415 0.617048
Si Si7 0.700753 0.812614 0.959660
O O1 0.500000 0.500000 0.090055
O O2 0.500000 0.759749 0.132174
O O3 0.334053 0.753957 0.068091
O O4 0.262331 0.331006 0.804715
O O5 0.000000 0.500000 0.820018
O O6 0.805822 0.500000 0.301799
O O7 0.744531 0.231763 0.265494
O O8 0.729364 0.253389 0.343909
O O9 0.000000 0.243293 0.305672
O O10 0.000000 0.179930 0.781230
O O11 0.263201 0.000000 0.780142
O O12 0.220253 0.779748 0.500000
O O13 0.500000 0.735992 0.469378
O O14 0.258304 0.736200 0.422283
O O15 0.325949 0.000000 0.456311
O O16 0.000000 0.192917 0.616709
O O17 0.256909 0.000000 0.617920
O O18 0.500000 0.802557 0.963313
O O19 0.742055 0.000000 0.947380
O O20 0.777233 0.777233 0.000000
#
# Coordination Sequence:
#
# PCOD9557098 Si02
#       7
#     4   4   8   8   8   8   8
#     4  10  22  38  58  84 124 162 196 248 304 356
#     4  10  22  38  56  82 112 150 198 240 288 346
#     4   9  17  30  51  79 106 133 169 216 268 321
#     4   9  18  35  57  78 105 144 188 235 287 340
#     4  10  21  36  53  74 100 133 172 212 258 313
#     4   9  17  31  52  75 100 132 170 212 258 313
#     4  10  20  36  61  89 119 160 206 251 305 364
#
# _framework density 20.502744
#
# number of rings (size 3 to 8) (size 9 to 14) (size 15 to 20)
#    0.000    2.500    0.833    1.000    0.000    5.833 
#    1.500    1.667    0.000    0.000    0.000    0.000 
#    0.000    0.000    0.000    0.000    0.000    0.000 
#
# Total GULP energy -267510.030029 kJ/mol
# GULP energy per Si atom -5573.125626 kJ/mol
# Density = 2.045608 g / cm^3
# Si number density = 20.502744 Si / 1000 Ang^3
#
#
#
# Elastic Constant Matrix: (Units=GPa)
#
#
# Indices 1 2 3 4 5 6 
#
# 1 49.9444 27.1163 46.3777 0.0000 0.0000 0.0000
# 2 27.1163 49.9437 46.3774 0.0000 0.0000 0.0000
# 3 46.3777 46.3774 173.1703 0.0000 0.0000 0.0000
# 4 0.0000 0.0000 0.0000 31.6071 0.0000 0.0000
# 5 0.0000 0.0000 0.0000 0.0000 31.6071 0.0000
# 6 0.0000 0.0000 0.0000 0.0000 0.0000 6.6269
#
#
#
# Elastic Compliance Matrix: (Units=1/GPa)
#
#
# Indices 1 2 3 4 5 6 
#
# 1 0.031478 -0.012328 -0.005129 0.000000 0.000000 0.000000
# 2 -0.012328 0.031478 -0.005129 0.000000 0.000000 0.000000
# 3 -0.005129 -0.005129 0.008522 0.000000 0.000000 0.000000
# 4 0.000000 0.000000 0.000000 0.031638 0.000000 0.000000
# 5 0.000000 0.000000 0.000000 0.000000 0.031638 0.000000
# 6 0.000000 0.000000 0.000000 0.000000 0.000000 0.150900
#
#
# Mechanical properties :
#
#
# Convention : Reuss Voigt Hill
#
# Bulk Modulus (GPa) = 38.01246 56.97792 47.49519
# Shear Modulus (GPa) = 14.72342 24.18068 19.45205
#
# Velocity S-wave (km/s) = 2.68268 3.43795 3.08353
# Velocity P-wave (km/s) = 5.30812 6.60379 5.99108
#
# Compressibility (1/GPa) = 0.02630716
#
# Stress axis : x y z
#
# Youngs Moduli (GPa) = 31.76818 31.76776 117.34712
#
# Poissons Ratio (x) = 0.39164 0.60183
# Poissons Ratio (y) = 0.39164 0.60184
# Poissons Ratio (z) = 0.16293 0.16293
#
# Static dielectric constant tensor:
#      x y z
#    x 1.747090 0.000000 0.000000 
#    y 0.000000 1.747090 0.000000 
#    z 0.000000 0.000000 1.748070 
# 
# From -- ./inp_files/6172.got.cif
#   From: 2010.05.17/outbox.cif.g08.bks.cpg/sg115_4_cif.got.tgz:6172.got - 2010.05.20 11:07:42.
