data_PCOD9557370
_publ_section_title
;
Structure prediction by ZEFSAII (Michael W. Deem and Ramdas Pophale) SiO2 
 PCOD9557370
Probable space group: P -4 M 2
;
_chemical_formula_sum "Si O2"
_cell_formula_units_Z 29
_cell_length_a 8.164397
_cell_length_b 8.164397
_cell_length_c 21.383412
_cell_angle_alpha 90.000000
_cell_angle_beta 90.000000
_cell_angle_gamma 90.000000
_cell_volume 1425.362185
_symmetry_space_group_name_H-M "P -4 M 2"
_symmetry_group_IT_number 115
_symmetry_cell_setting 'tetragonal'
loop_
_space_group_symop_operation_xyz
x,y,z
y,-x,-z
-x,-y,z
-y,x,-z
y,x,-z
-y,-x,-z
-x,y,z
x,-y,z
loop_
_atom_site_type_symbol
_atom_site_label
_atom_site_fract_x
_atom_site_fract_y
_atom_site_fract_z
Si Si1 0.000000 0.000000 0.500000
Si Si2 0.702149 0.000000 0.596526
Si Si3 0.305336 0.675932 0.673929
Si Si4 0.698027 0.308777 0.931784
Si Si5 0.194941 0.182364 0.798984
O O1 0.170744 0.000000 0.539141
O O2 0.746174 0.837351 0.636494
O O3 0.500000 0.000000 0.584823
O O4 0.500000 0.670403 0.666292
O O5 0.236249 0.500000 0.652636
O O6 0.268598 0.698787 0.747268
O O7 0.500000 0.300567 0.932206
O O8 0.744385 0.500000 0.927065
O O9 0.761734 0.221683 0.870281
O O10 0.753975 0.246026 0.000000
O O11 0.000000 0.186630 0.792298
O O12 0.256545 0.000000 0.784343
#
# Coordination Sequence:
#
# PCOD9557370 Si02
#       5
#     1   4   8   8   8
#     4  12  28  44  76 104 140 176 218 252 296 384
#     4  10  24  46  68 100 140 173 211 262 311 360
#     4  10  21  39  65  93 124 165 211 259 312 371
#     4   9  19  36  55  75 104 147 201 257 315 382
#     4  11  23  35  52  82 120 156 200 257 317 380
#
# _framework density 20.345706
#
# number of rings (size 3 to 8) (size 9 to 14) (size 15 to 20)
#    0.000    1.931    1.379    2.483    1.931    8.276 
#    0.000    4.138    0.000    0.000    0.000    0.000 
#    0.000    0.000    0.000    0.000    0.000    0.000 
#
# Total GULP energy -161787.624633 kJ/mol
# GULP energy per Si atom -5578.883608 kJ/mol
# Density = 2.029940 g / cm^3
# Si number density = 20.345706 Si / 1000 Ang^3
#
#
#
# Elastic Constant Matrix: (Units=GPa)
#
#
# Indices 1 2 3 4 5 6 
#
# 1 73.9396 26.0758 37.4366 0.0000 0.0000 0.0000
# 2 26.0758 73.9397 37.4366 0.0000 0.0000 0.0000
# 3 37.4366 37.4366 101.2919 0.0000 0.0000 0.0000
# 4 0.0000 0.0000 0.0000 35.3083 0.0000 0.0000
# 5 0.0000 0.0000 0.0000 0.0000 35.3081 0.0000
# 6 0.0000 0.0000 0.0000 0.0000 0.0000 10.1136
#
#
#
# Elastic Compliance Matrix: (Units=1/GPa)
#
#
# Indices 1 2 3 4 5 6 
#
# 1 0.017358 -0.003535 -0.005109 0.000000 0.000000 0.000000
# 2 -0.003535 0.017358 -0.005109 0.000000 0.000000 0.000000
# 3 -0.005109 -0.005109 0.013649 0.000000 0.000000 0.000000
# 4 0.000000 0.000000 0.000000 0.028322 0.000000 0.000000
# 5 0.000000 0.000000 0.000000 0.000000 0.028322 0.000000
# 6 0.000000 0.000000 0.000000 0.000000 0.000000 0.098877
#
#
# Mechanical properties :
#
#
# Convention : Reuss Voigt Hill
#
# Bulk Modulus (GPa) = 47.93996 50.11881 49.02938
# Shear Modulus (GPa) = 20.97809 26.02748 23.50279
#
# Velocity S-wave (km/s) = 3.21453 3.58056 3.40247
# Velocity P-wave (km/s) = 6.11485 6.46382 6.29176
#
# Compressibility (1/GPa) = 0.02085943
#
# Stress axis : x y z
#
# Youngs Moduli (GPa) = 57.61088 57.61101 73.26634
#
# Poissons Ratio (x) = 0.20364 0.37431
# Poissons Ratio (y) = 0.20364 0.37431
# Poissons Ratio (z) = 0.29433 0.29433
#
# Static dielectric constant tensor:
#      x y z
#    x 1.733010 0.000000 0.000000 
#    y 0.000000 1.733010 0.000000 
#    z 0.000000 0.000000 1.692860 
# 
# From -- ./inp_files/4596.got.cif
#   From: 2010.05.17/outbox.cif.g08.bks.cpg/sg115_3_cif.got.tgz:4596.got - 2010.05.20 11:07:42.
