data_PCOD9557088
_publ_section_title
;
Structure prediction by ZEFSAII (Michael W. Deem and Ramdas Pophale) SiO2 
 PCOD9557088
Probable space group: P -4 M 2
;
_chemical_formula_sum "Si O2"
_cell_formula_units_Z 33
_cell_length_a 12.164471
_cell_length_b 12.164471
_cell_length_c 11.802714
_cell_angle_alpha 90.000000
_cell_angle_beta 90.000000
_cell_angle_gamma 90.000000
_cell_volume 1746.498988
_symmetry_space_group_name_H-M "P -4 M 2"
_symmetry_group_IT_number 115
_symmetry_cell_setting 'tetragonal'
loop_
_space_group_symop_operation_xyz
x,y,z
y,-x,-z
-x,-y,z
-y,x,-z
y,x,-z
-y,-x,-z
-x,y,z
x,-y,z
loop_
_atom_site_type_symbol
_atom_site_label
_atom_site_fract_x
_atom_site_fract_y
_atom_site_fract_z
Si Si1 0.000000 0.242420 0.599106
Si Si2 0.224116 0.375205 0.231125
Si Si3 0.872467 0.697233 0.001197
Si Si4 0.174747 0.627998 0.746226
Si Si5 0.000000 0.632445 0.361872
Si Si6 0.000000 0.000000 0.500000
O O1 0.102575 0.290331 0.669633
O O2 0.000000 0.301445 0.477808
O O3 0.000000 0.111666 0.575827
O O4 0.246938 0.500000 0.261761
O O5 0.196015 0.365251 0.097740
O O6 0.325518 0.297692 0.260583
O O7 0.111266 0.340305 0.293596
O O8 0.000000 0.698433 0.031662
O O9 0.818342 0.818342 0.000000
O O10 0.860123 0.644211 0.877398
O O11 0.161912 0.500000 0.714512
O O12 0.000000 0.500000 0.379946
#
# Coordination Sequence:
#
# PCOD9557088 Si02
#       6
#     4   8   8   8   4   1
#     4  12  24  43  63  88 118 156 192 247 306 362
#     4  10  21  37  60  88 120 159 201 247 296 354
#     4  10  20  36  57  88 122 159 198 245 300 359
#     4  11  23  38  60  89 121 158 200 244 294 359
#     4  10  20  37  64  89 115 155 205 250 298 359
#     4  12  28  44  64  88 122 156 192 256 308 370
#
# _framework density 18.894943000000001
#
# number of rings (size 3 to 8) (size 9 to 14) (size 15 to 20)
#    0.000    1.455    2.424    3.273    0.000    1.697 
#    2.182    0.000    0.000    4.364    0.000    3.394 
#    0.000    0.000    0.000    0.000    0.000    0.000 
#
# Total GULP energy -184242.899674 kJ/mol
# GULP energy per Si atom -5583.118172 kJ/mol
# Density = 1.885194 g / cm^3
# Si number density = 18.894943 Si / 1000 Ang^3
#
#
#
# Elastic Constant Matrix: (Units=GPa)
#
#
# Indices 1 2 3 4 5 6 
#
# 1 94.6216 61.1968 24.6527 0.0000 0.0000 0.0000
# 2 61.1968 94.6216 24.6527 0.0000 0.0000 0.0000
# 3 24.6527 24.6527 103.4081 0.0000 0.0000 0.0000
# 4 0.0000 0.0000 0.0000 21.9296 0.0000 0.0000
# 5 0.0000 0.0000 0.0000 0.0000 21.9296 0.0000
# 6 0.0000 0.0000 0.0000 0.0000 0.0000 20.8093
#
#
#
# Elastic Compliance Matrix: (Units=1/GPa)
#
#
# Indices 1 2 3 4 5 6 
#
# 1 0.018430 -0.011488 -0.001655 0.000000 0.000000 0.000000
# 2 -0.011488 0.018430 -0.001655 0.000000 0.000000 0.000000
# 3 -0.001655 -0.001655 0.010459 0.000000 0.000000 0.000000
# 4 0.000000 0.000000 0.000000 0.045601 0.000000 0.000000
# 5 0.000000 0.000000 0.000000 0.000000 0.045601 0.000000
# 6 0.000000 0.000000 0.000000 0.000000 0.000000 0.048055
#
#
# Mechanical properties :
#
#
# Convention : Reuss Voigt Hill
#
# Bulk Modulus (GPa) = 56.42436 57.07286 56.74861
# Shear Modulus (GPa) = 22.51455 25.07697 23.79576
#
# Velocity S-wave (km/s) = 3.45565 3.64700 3.55261
# Velocity P-wave (km/s) = 6.77119 6.92857 6.85033
#
# Compressibility (1/GPa) = 0.01772284
#
# Stress axis : x y z
#
# Youngs Moduli (GPa) = 54.26043 54.26043 95.60728
#
# Poissons Ratio (x) = 0.62336 0.15821
# Poissons Ratio (y) = 0.62336 0.15821
# Poissons Ratio (z) = 0.08979 0.08979
#
# Static dielectric constant tensor:
#      x y z
#    x 1.655210 0.000000 0.000000 
#    y 0.000000 1.655210 0.000000 
#    z 0.000000 0.000000 1.658820 
# 
# From -- ./inp_files/2587.got.cif
#   From: 2010.05.17/outbox.cif.g08.bks.cpg/sg115_2_cif.got.tgz:2587.got - 2010.05.20 11:07:42.
