data_PCOD9557290
_publ_section_title
;
Structure prediction by ZEFSAII (Michael W. Deem and Ramdas Pophale) SiO2 
 PCOD9557290
Probable space group: P -4 M 2
;
_chemical_formula_sum "Si O2"
_cell_formula_units_Z 40
_cell_length_a 9.147226
_cell_length_b 9.147226
_cell_length_c 26.779786
_cell_angle_alpha 90.000000
_cell_angle_beta 90.000000
_cell_angle_gamma 90.000000
_cell_volume 2240.711385
_symmetry_space_group_name_H-M "P -4 M 2"
_symmetry_group_IT_number 115
_symmetry_cell_setting 'tetragonal'
loop_
_space_group_symop_operation_xyz
x,y,z
y,-x,-z
-x,-y,z
-y,x,-z
y,x,-z
-y,-x,-z
-x,y,z
x,-y,z
loop_
_atom_site_type_symbol
_atom_site_label
_atom_site_fract_x
_atom_site_fract_y
_atom_site_fract_z
Si Si1 0.170841 0.175200 0.756684
Si Si2 0.326996 0.824648 0.859125
Si Si3 0.330687 0.178023 0.344202
Si Si4 0.325776 0.826096 0.047219
Si Si5 0.323678 0.829209 0.454094
O O1 0.263093 0.218520 0.805129
O O2 0.224296 0.243131 0.704660
O O3 0.000000 0.216984 0.763921
O O4 0.176480 0.000000 0.752634
O O5 0.500000 0.796852 0.861862
O O6 0.243238 0.741178 0.902818
O O7 0.304386 0.000000 0.864916
O O8 0.500000 0.221056 0.339067
O O9 0.275579 0.224927 0.398951
O O10 0.326569 0.000000 0.345501
O O11 0.500000 0.802242 0.045262
O O12 0.298992 0.000000 0.046202
O O13 0.249564 0.750437 0.000000
O O14 0.258734 0.741267 0.500000
O O15 0.500000 0.821739 0.454310
O O16 0.282726 0.000000 0.459014
#
# Coordination Sequence:
#
# PCOD9557290 Si02
#       5
#     8   8   8   8   8
#     4   9  17  30  50  75 101 131 169 211 254 301
#     4  10  21  37  56  79 109 143 176 211 254 304
#     4   8  15  29  48  69  95 127 164 208 255 303
#     4  11  24  40  59  84 111 140 176 216 258 304
#     4   9  18  32  49  71  99 131 168 210 257 308
#
# _framework density 17.851472000000001
#
# number of rings (size 3 to 8) (size 9 to 14) (size 15 to 20)
#    0.000    2.600    0.000    3.000    0.000    7.200 
#    0.000    5.000    0.000    3.600    0.000    0.000 
#    0.000    0.000    0.000    0.000    0.000    0.000 
#
# Total GULP energy -223097.810843 kJ/mol
# GULP energy per Si atom -5577.445271 kJ/mol
# Density = 1.781084 g / cm^3
# Si number density = 17.851472 Si / 1000 Ang^3
#
#
#
# Elastic Constant Matrix: (Units=GPa)
#
#
# Indices 1 2 3 4 5 6 
#
# 1 56.1475 51.5950 75.4533 0.0000 0.0000 0.0000
# 2 51.5950 56.1500 75.4545 0.0000 0.0000 0.0000
# 3 75.4533 75.4545 211.9546 0.0000 0.0000 0.0000
# 4 0.0000 0.0000 0.0000 202.5675 0.0000 0.0000
# 5 0.0000 0.0000 0.0000 0.0000 202.5013 0.0000
# 6 0.0000 0.0000 0.0000 0.0000 0.0000 22.0477
#
#
#
# Elastic Compliance Matrix: (Units=1/GPa)
#
#
# Indices 1 2 3 4 5 6 
#
# 1 0.119060 -0.100545 -0.006590 0.000000 0.000000 0.000000
# 2 -0.100545 0.119053 -0.006589 0.000000 0.000000 0.000000
# 3 -0.006590 -0.006589 0.009410 0.000000 0.000000 0.000000
# 4 0.000000 0.000000 0.000000 0.004937 0.000000 0.000000
# 5 0.000000 0.000000 0.000000 0.000000 0.004938 0.000000
# 6 0.000000 0.000000 0.000000 0.000000 0.000000 0.045356
#
#
# Mechanical properties :
#
#
# Convention : Reuss Voigt Hill
#
# Bulk Modulus (GPa) = 49.81872 81.02864 65.42368
# Shear Modulus (GPa) = 9.31281 93.53990 51.42635
#
# Velocity S-wave (km/s) = 2.28652 7.24657 5.37312
# Velocity P-wave (km/s) = 5.91091 10.74737 8.67308
#
# Compressibility (1/GPa) = 0.02007278
#
# Stress axis : x y z
#
# Youngs Moduli (GPa) = 8.39915 8.39960 106.27252
#
# Poissons Ratio (x) = 0.84454 0.70036
# Poissons Ratio (y) = 0.84450 0.70026
# Poissons Ratio (z) = 0.05535 0.05535
#
# Static dielectric constant tensor:
#      x y z
#    x 1.595260 0.000000 0.000000 
#    y 0.000000 1.595260 0.000000 
#    z 0.000000 0.000000 1.604250 
# 
# From -- ./inp_files/5124.got.cif
#   From: 2010.05.17/outbox.cif.g08.bks.cpg/sg115_3_cif.got.tgz:5124.got - 2010.05.20 11:07:42.
