data_PCOD9557571
_publ_section_title
;
Structure prediction by ZEFSAII (Michael W. Deem and Ramdas Pophale) SiO2 
 PCOD9557571
Probable space group: P -4 C 2
;
_chemical_formula_sum "Si O2"
_cell_formula_units_Z 64
_cell_length_a 25.837632
_cell_length_b 25.837632
_cell_length_c 5.619355
_cell_angle_alpha 90.000000
_cell_angle_beta 90.000000
_cell_angle_gamma 90.000000
_cell_volume 3751.387147
_symmetry_space_group_name_H-M "P -4 C 2"
_symmetry_group_IT_number 116
_symmetry_cell_setting 'tetragonal'
loop_
_space_group_symop_operation_xyz
x,y,z
y,-x,-z
-x,-y,z
-y,x,-z
y,x,1/2-z
-y,-x,1/2-z
-x,y,1/2+z
x,-y,1/2+z
loop_
_atom_site_type_symbol
_atom_site_label
_atom_site_fract_x
_atom_site_fract_y
_atom_site_fract_z
Si Si1 0.367596 0.079024 0.884963
Si Si2 0.904982 0.524965 0.829352
Si Si3 0.176981 0.371302 0.317587
Si Si4 0.125166 0.702118 0.482611
Si Si5 0.278551 0.761066 0.499252
Si Si6 0.170146 0.183749 0.999221
Si Si7 0.213633 0.513730 0.801708
Si Si8 0.707088 0.987482 0.385274
O O1 0.415119 0.079866 0.700267
O O2 0.317850 0.107413 0.771937
O O3 0.345303 0.021670 0.925582
O O4 0.385348 0.119474 0.084971
O O5 0.923627 0.497327 0.583551
O O6 0.842351 0.516263 0.822422
O O7 0.167725 0.336436 0.085703
O O8 0.210649 0.333855 0.486873
O O9 0.203471 0.425541 0.274887
O O10 0.144276 0.759998 0.492605
O O11 0.073188 0.697201 0.638788
O O12 0.269349 0.730652 0.250000
O O13 0.232172 0.803993 0.501027
O O14 0.269690 0.730311 0.750000
O O15 0.157114 0.157114 0.750000
O O16 0.157581 0.157581 0.250000
O O17 0.239357 0.494941 0.558100
O O18 0.733975 0.994306 0.642630
#
# Coordination Sequence:
#
# PCOD9557571 Si02
#       8
#     8   8   8   8   8   8   8   8
#     4  11  21  32  52  66  90 116 159 191 240 291
#     4  10  19  33  47  65  86 109 149 203 235 286
#     4  12  20  31  56  65  90 130 145 197 262 282
#     4  11  21  33  51  69  91 122 147 192 251 292
#     4  10  20  32  44  72  93 107 144 184 235 308
#     4  10  19  33  47  69  95 109 141 184 231 302
#     4  10  20  32  45  70  87 112 162 193 232 300
#     4  10  22  34  47  68  89 112 155 190 224 289
#
# _framework density 17.060355999999999
#
# number of rings (size 3 to 8) (size 9 to 14) (size 15 to 20)
#    0.000    1.500    6.250    3.000    0.000    0.000 
#    0.000    0.000    0.000   17.250    0.000    0.000 
#    0.000    0.000    0.000    0.000    0.000    0.000 
#
# Total GULP energy -356513.742569 kJ/mol
# GULP energy per Si atom -5570.527228 kJ/mol
# Density = 1.702153 g / cm^3
# Si number density = 17.060356 Si / 1000 Ang^3
#
#
#
# Elastic Constant Matrix: (Units=GPa)
#
#
# Indices 1 2 3 4 5 6 
#
# 1 30.6588 29.3197 11.6017 0.0000 0.0000 0.0000
# 2 29.3197 30.6571 11.6023 0.0000 0.0000 0.0000
# 3 11.6017 11.6023 140.5916 0.0000 0.0000 0.0000
# 4 0.0000 0.0000 0.0000 18.6798 0.0000 0.0000
# 5 0.0000 0.0000 0.0000 0.0000 18.6798 0.0000
# 6 0.0000 0.0000 0.0000 0.0000 0.0000 12.7944
#
#
#
# Elastic Compliance Matrix: (Units=1/GPa)
#
#
# Indices 1 2 3 4 5 6 
#
# 1 0.382230 -0.365018 -0.001419 0.000000 0.000000 0.000000
# 2 -0.365018 0.382252 -0.001424 0.000000 0.000000 0.000000
# 3 -0.001419 -0.001424 0.007347 0.000000 0.000000 0.000000
# 4 0.000000 0.000000 0.000000 0.053534 0.000000 0.000000
# 5 0.000000 0.000000 0.000000 0.000000 0.053534 0.000000
# 6 0.000000 0.000000 0.000000 0.000000 0.000000 0.078159
#
#
# Mechanical properties :
#
#
# Convention : Reuss Voigt Hill
#
# Bulk Modulus (GPa) = 27.69488 34.10611 30.90049
# Shear Modulus (GPa) = 2.93287 19.98972 11.46129
#
# Velocity S-wave (km/s) = 1.31257 3.42673 2.59474
# Velocity P-wave (km/s) = 4.30881 5.97424 5.20852
#
# Compressibility (1/GPa) = 0.03610776
#
# Stress axis : x y z
#
# Youngs Moduli (GPa) = 2.61623 2.61607 136.10297
#
# Poissons Ratio (x) = 0.95491 0.19310
# Poissons Ratio (y) = 0.95497 0.19378
# Poissons Ratio (z) = 0.00371 0.00372
#
# Static dielectric constant tensor:
#      x y z
#    x 1.582020 0.000000 0.000000 
#    y 0.000000 1.582020 0.000000 
#    z 0.000000 0.000000 1.762170 
# 
# From -- ./inp_files/292.got.cif
#   From: 2010.05.17/outbox.cif.g08.bks.cpg/sg116_1_cif.got.tgz:292.got - 2010.05.20 11:11:43.
