data_PCOD9557490
_publ_section_title
;
Structure prediction by ZEFSAII (Michael W. Deem and Ramdas Pophale) SiO2 
 PCOD9557490
Probable space group: P -4 M 2
;
_chemical_formula_sum "Si O2"
_cell_formula_units_Z 48
_cell_length_a 9.000000
_cell_length_b 9.000000
_cell_length_c 30.000000
_cell_angle_alpha 90.000000
_cell_angle_beta 90.000000
_cell_angle_gamma 90.000000
_cell_volume 2430.000000
_symmetry_space_group_name_H-M "P -4 M 2"
_symmetry_group_IT_number 115
_symmetry_cell_setting 'tetragonal'
loop_
_space_group_symop_operation_xyz
x,y,z
y,-x,-z
-x,-y,z
-y,x,-z
y,x,-z
-y,-x,-z
-x,y,z
x,-y,z
loop_
_atom_site_type_symbol
_atom_site_label
_atom_site_fract_x
_atom_site_fract_y
_atom_site_fract_z
Si Si1 0.331930 0.825782 0.538518
Si Si2 0.164989 0.170670 0.053063
Si Si3 0.831454 0.825857 0.802597
Si Si4 0.661738 0.675217 0.121678
Si Si5 0.669664 0.180972 0.284813
Si Si6 0.320770 0.171214 0.381896
O O1 0.220385 0.779616 0.500000
O O2 0.500000 0.788993 0.524462
O O3 0.282479 0.737003 0.581630
O O4 0.324153 0.000000 0.547366
O O5 0.293177 0.268287 0.073388
O O6 0.000000 0.223227 0.066495
O O7 0.180089 0.000000 0.068576
O O8 0.169818 0.169818 0.000000
O O9 0.738627 0.781384 0.844913
O O10 0.766088 0.757063 0.757804
O O11 0.000000 0.768487 0.808561
O O12 0.838528 0.000000 0.797382
O O13 0.500000 0.732969 0.135059
O O14 0.660670 0.500000 0.123002
O O15 0.500000 0.230842 0.281561
O O16 0.732487 0.219384 0.333023
O O17 0.669635 0.000000 0.284541
O O18 0.500000 0.169577 0.380773
O O19 0.274006 0.000000 0.391101
#
# Coordination Sequence:
#
# PCOD9557490 Si02
#       6
#     8   8   8   8   8   8
#     4  11  24  39  55  78 107 139 178 221 264 314
#     4   9  19  37  60  84 108 135 171 215 262 315
#     4  10  20  34  55  82 108 137 178 224 267 314
#     4  11  24  38  52  75 108 144 181 220 263 313
#     4   8  15  30  53  80 109 140 174 214 260 311
#     4   9  18  34  57  84 111 139 174 215 260 314
#
# _framework density 19.753086
#
# number of rings (size 3 to 8) (size 9 to 14) (size 15 to 20)
#    0.000    2.333    0.000    4.000    0.000    9.667 
#    0.000    5.000    0.000    1.000    0.000    0.000 
#    0.000    0.000    0.000    0.000    0.000    0.000 
#
# Total GULP energy -267521.313046 kJ/mol
# GULP energy per Si atom -5573.360688 kJ/mol
# Density = 1.970813 g / cm^3
# Si number density = 19.753086 Si / 1000 Ang^3
#
#
#
# Elastic Constant Matrix: (Units=GPa)
#
#
# Indices 1 2 3 4 5 6 
#
# 1 18.0668 18.3908 18.8979 0.0000 0.0000 0.0000
# 2 18.3908 18.0652 18.8977 0.0000 0.0000 0.0000
# 3 18.8979 18.8977 65.0600 0.0000 0.0000 0.0000
# 4 0.0000 0.0000 0.0000 12.8664 0.0000 0.0000
# 5 0.0000 0.0000 0.0000 0.0000 12.8666 0.0000
# 6 0.0000 0.0000 0.0000 0.0000 0.0000 14.8154
#
#
#
# Elastic Compliance Matrix: (Units=1/GPa)
#
#
# Indices 1 2 3 4 5 6 
#
# 1 -1.519739 1.559075 -0.011420 0.000000 0.000000 0.000000
# 2 1.559075 -1.519913 -0.011381 0.000000 0.000000 0.000000
# 3 -0.011420 -0.011381 0.021993 0.000000 0.000000 0.000000
# 4 0.000000 0.000000 0.000000 0.077722 0.000000 0.000000
# 5 0.000000 0.000000 0.000000 0.000000 0.077721 0.000000
# 6 0.000000 0.000000 0.000000 0.000000 0.000000 0.067497
#
#
# Mechanical properties :
#
#
# Convention : Reuss Voigt Hill
#
# Bulk Modulus (GPa) = 18.21853 23.72941 20.97397
# Shear Modulus (GPa) = -0.85485 11.11006 5.12760
#
# Velocity S-wave (km/s) = -0.65857 2.37417 1.61291
# Velocity P-wave (km/s) = 2.94362 4.42207 3.75630
#
# Compressibility (1/GPa) = 0.05488918
#
# Stress axis : x y z
#
# Youngs Moduli (GPa) = -0.65801 -0.65793 45.46819
#
# Poissons Ratio (x) = 1.02577 0.51925
# Poissons Ratio (y) = 1.02588 0.51747
# Poissons Ratio (z) = -0.00751 -0.00749
#
# Static dielectric constant tensor:
#      x y z
#    x 1.696620 0.000000 0.000000 
#    y 0.000000 1.696620 0.000000 
#    z 0.000000 0.000000 1.719950 
# 
# From -- ./inp_files/6019.got.cif
#   From: 2010.05.17/outbox.ucp.g08.bks.cvg/sg115_4_cif.got.tgz:6019.got - 2010.06.11 11:33:38.
