data_PCOD9557363
_publ_section_title
;
Structure prediction by ZEFSAII (Michael W. Deem and Ramdas Pophale) SiO2 
 PCOD9557363
Probable space group: P -4 M 2
;
_chemical_formula_sum "Si O2"
_cell_formula_units_Z 32
_cell_length_a 12.108000
_cell_length_b 12.108000
_cell_length_c 11.436832
_cell_angle_alpha 90.000000
_cell_angle_beta 90.000000
_cell_angle_gamma 90.000000
_cell_volume 1676.681476
_symmetry_space_group_name_H-M "P -4 M 2"
_symmetry_group_IT_number 115
_symmetry_cell_setting 'tetragonal'
loop_
_space_group_symop_operation_xyz
x,y,z
y,-x,-z
-x,-y,z
-y,x,-z
y,x,-z
-y,-x,-z
-x,y,z
x,-y,z
loop_
_atom_site_type_symbol
_atom_site_label
_atom_site_fract_x
_atom_site_fract_y
_atom_site_fract_z
Si Si1 0.688898 0.000000 0.413945
Si Si2 0.779025 0.818020 0.782930
Si Si3 0.867877 0.000000 0.609580
Si Si4 0.246199 0.372590 0.602531
Si Si5 0.263938 0.000000 0.138521
Si Si6 0.372617 0.000000 0.897914
O O1 0.803149 0.000000 0.486731
O O2 0.633562 0.117786 0.440107
O O3 0.696626 0.000000 0.273130
O O4 0.744636 0.704093 0.719118
O O5 0.884541 0.801295 0.867407
O O6 0.824120 0.893804 0.677953
O O7 0.686413 0.891021 0.845497
O O8 0.000000 0.000000 0.616694
O O9 0.320383 0.320383 0.500000
O O10 0.273858 0.500000 0.625447
O O11 0.353859 0.000000 0.037270
O O12 0.500000 0.000000 0.867150
#
# Coordination Sequence:
#
# PCOD9557363 Si02
#       6
#     4   8   4   8   4   4
#     4  10  22  39  61  94 129 160 198 249 313 380
#     4  10  22  41  63  94 126 166 204 254 314 372
#     4  11  19  37  65  99 138 159 195 243 315 400
#     4  11  23  40  59  89 127 168 208 251 312 378
#     4  10  21  39  61  90 124 159 204 247 306 369
#     4  11  25  43  66  90 124 166 214 266 311 362
#
# _framework density 19.085317
#
# number of rings (size 3 to 8) (size 9 to 14) (size 15 to 20)
#    0.000    1.500    3.750    1.125    0.000    5.250 
#   18.000    1.250    0.000    0.000    0.000    0.000 
#    0.000    0.000    0.000    0.000    0.000    0.000 
#
# Total GULP energy -178517.240748 kJ/mol
# GULP energy per Si atom -5578.663773 kJ/mol
# Density = 1.904188 g / cm^3
# Si number density = 19.085317 Si / 1000 Ang^3
#
#
#
# Elastic Constant Matrix: (Units=GPa)
#
#
# Indices 1 2 3 4 5 6 
#
# 1 151.8049 45.6581 42.3962 0.0000 0.0000 0.0000
# 2 45.6581 151.8049 42.3962 0.0000 0.0000 0.0000
# 3 42.3962 42.3962 83.1892 0.0000 0.0000 0.0000
# 4 0.0000 0.0000 0.0000 19.8047 0.0000 0.0000
# 5 0.0000 0.0000 0.0000 0.0000 19.8047 0.0000
# 6 0.0000 0.0000 0.0000 0.0000 0.0000 1.9534
#
#
#
# Elastic Compliance Matrix: (Units=1/GPa)
#
#
# Indices 1 2 3 4 5 6 
#
# 1 0.007952 -0.001469 -0.003304 0.000000 0.000000 0.000000
# 2 -0.001469 0.007952 -0.003304 0.000000 0.000000 0.000000
# 3 -0.003304 -0.003304 0.015388 0.000000 0.000000 0.000000
# 4 0.000000 0.000000 0.000000 0.050493 0.000000 0.000000
# 5 0.000000 0.000000 0.000000 0.000000 0.050493 0.000000
# 6 0.000000 0.000000 0.000000 0.000000 0.000000 0.511922
#
#
# Mechanical properties :
#
#
# Convention : Reuss Voigt Hill
#
# Bulk Modulus (GPa) = 66.05651 71.96666 69.01159
# Shear Modulus (GPa) = 7.51427 25.40249 16.45838
#
# Velocity S-wave (km/s) = 1.98639 3.65224 2.93978
# Velocity P-wave (km/s) = 6.32039 7.45486 6.91094
#
# Compressibility (1/GPa) = 0.01513855
#
# Stress axis : x y z
#
# Youngs Moduli (GPa) = 125.75528 125.75528 64.98385
#
# Poissons Ratio (x) = 0.18473 0.21470
# Poissons Ratio (y) = 0.18473 0.21470
# Poissons Ratio (z) = 0.41549 0.41549
#
# Static dielectric constant tensor:
#      x y z
#    x 1.693670 0.000000 0.000000 
#    y 0.000000 1.693670 0.000000 
#    z 0.000000 0.000000 1.683250 
# 
# From -- ./inp_files/2598.got.cif
#   From: 2010.05.17/outbox.cif.g08.bks.cpg/sg115_2_cif.got.tgz:2598.got - 2010.05.20 11:07:42.
