data_PCOD9557491
_publ_section_title
;
Structure prediction by ZEFSAII (Michael W. Deem and Ramdas Pophale) SiO2 
 PCOD9557491
Probable space group: P -4 M 2
;
_chemical_formula_sum "Si O2"
_cell_formula_units_Z 48
_cell_length_a 9.000000
_cell_length_b 9.000000
_cell_length_c 30.000000
_cell_angle_alpha 90.000000
_cell_angle_beta 90.000000
_cell_angle_gamma 90.000000
_cell_volume 2430.000000
_symmetry_space_group_name_H-M "P -4 M 2"
_symmetry_group_IT_number 115
_symmetry_cell_setting 'tetragonal'
loop_
_space_group_symop_operation_xyz
x,y,z
y,-x,-z
-x,-y,z
-y,x,-z
y,x,-z
-y,-x,-z
-x,y,z
x,-y,z
loop_
_atom_site_type_symbol
_atom_site_label
_atom_site_fract_x
_atom_site_fract_y
_atom_site_fract_z
Si Si1 0.177273 0.167372 0.699939
Si Si2 0.167354 0.674033 0.961781
Si Si3 0.171135 0.818616 0.796210
Si Si4 0.178814 0.333347 0.116232
Si Si5 0.171474 0.834696 0.446932
Si Si6 0.675236 0.662102 0.376534
O O1 0.225302 0.230183 0.747692
O O2 0.222702 0.264221 0.658764
O O3 0.000000 0.158201 0.702957
O O4 0.235562 0.000000 0.694053
O O5 0.174277 0.500000 0.952766
O O6 0.214234 0.762697 0.918393
O O7 0.000000 0.711258 0.976426
O O8 0.280019 0.719982 0.000000
O O9 0.280355 0.772712 0.835145
O O10 0.000000 0.771960 0.804380
O O11 0.168631 0.000000 0.794759
O O12 0.230434 0.500000 0.105364
O O13 0.000000 0.334187 0.115050
O O14 0.173606 0.826395 0.500000
O O15 0.267300 0.709657 0.424510
O O16 0.000000 0.821103 0.432259
O O17 0.223660 0.000000 0.433871
O O18 0.500000 0.660890 0.376098
O O19 0.733409 0.500000 0.364306
#
# Coordination Sequence:
#
# PCOD9557491 Si02
#       6
#     8   8   8   8   8   8
#     4   9  18  34  57  82 105 134 178 227 269 312
#     4  11  24  40  58  81 108 140 180 222 265 316
#     4   8  15  30  53  80 108 138 175 221 268 311
#     4  10  20  34  55  84 114 143 177 216 261 316
#     4   9  19  37  60  83 104 129 168 217 264 313
#     4  11  24  37  49  73 110 146 178 214 259 313
#
# _framework density 19.753086
#
# number of rings (size 3 to 8) (size 9 to 14) (size 15 to 20)
#    0.000    2.333    0.000    4.000    0.000    9.667 
#    0.000    5.000    0.000    1.000    0.000    0.000 
#    0.000    0.000    0.000    0.000    0.000    0.000 
#
# Total GULP energy -267551.121454 kJ/mol
# GULP energy per Si atom -5573.981697 kJ/mol
# Density = 1.970813 g / cm^3
# Si number density = 19.753086 Si / 1000 Ang^3
#
#
#
# Elastic Constant Matrix: (Units=GPa)
#
#
# Indices 1 2 3 4 5 6 
#
# 1 16.2840 23.7557 18.3308 0.0000 0.0000 0.0000
# 2 23.7557 16.2855 18.3306 0.0000 0.0000 0.0000
# 3 18.3308 18.3306 56.0066 0.0000 0.0000 0.0000
# 4 0.0000 0.0000 0.0000 49.9493 0.0000 0.0000
# 5 0.0000 0.0000 0.0000 0.0000 49.9480 0.0000
# 6 0.0000 0.0000 0.0000 0.0000 0.0000 7.0480
#
#
#
# Elastic Compliance Matrix: (Units=1/GPa)
#
#
# Indices 1 2 3 4 5 6 
#
# 1 -0.049099 0.084757 -0.011670 0.000000 0.000000 0.000000
# 2 0.084757 -0.049091 -0.011673 0.000000 0.000000 0.000000
# 3 -0.011670 -0.011673 0.025495 0.000000 0.000000 0.000000
# 4 0.000000 0.000000 0.000000 0.020020 0.000000 0.000000
# 5 0.000000 0.000000 0.000000 0.000000 0.020021 0.000000
# 6 0.000000 0.000000 0.000000 0.000000 0.000000 0.141885
#
#
# Mechanical properties :
#
#
# Convention : Reuss Voigt Hill
#
# Bulk Modulus (GPa) = 19.94769 23.26781 21.60775
# Shear Modulus (GPa) = 1604.40122 23.26632 813.83377
#
# Velocity S-wave (km/s) = 28.53053 3.43572 20.31989
# Velocity P-wave (km/s) = 33.09747 5.24822 23.69584
#
# Compressibility (1/GPa) = 0.05013113
#
# Stress axis : x y z
#
# Youngs Moduli (GPa) = -20.36711 -20.37033 39.22283
#
# Poissons Ratio (x) = 1.72652 0.45775
# Poissons Ratio (y) = 1.72625 0.45786
# Poissons Ratio (z) = -0.23769 -0.23779
#
# Static dielectric constant tensor:
#      x y z
#    x 1.661220 0.000000 0.000000 
#    y 0.000000 1.661220 0.000000 
#    z 0.000000 0.000000 1.712970 
# 
# From -- ./inp_files/6084.got.cif
#   From: 2010.05.17/outbox.ucp.g08.bks.cvg/sg115_4_cif.got.tgz:6084.got - 2010.06.11 11:33:38.
