data_PCOD9557336
_publ_section_title
;
Structure prediction by ZEFSAII (Michael W. Deem and Ramdas Pophale) SiO2 
 PCOD9557336
Probable space group: P -4 M 2
;
_chemical_formula_sum "Si O2"
_cell_formula_units_Z 48
_cell_length_a 9.071376
_cell_length_b 9.071376
_cell_length_c 31.518016
_cell_angle_alpha 90.000000
_cell_angle_beta 90.000000
_cell_angle_gamma 90.000000
_cell_volume 2593.613204
_symmetry_space_group_name_H-M "P -4 M 2"
_symmetry_group_IT_number 115
_symmetry_cell_setting 'tetragonal'
loop_
_space_group_symop_operation_xyz
x,y,z
y,-x,-z
-x,-y,z
-y,x,-z
y,x,-z
-y,-x,-z
-x,y,z
x,-y,z
loop_
_atom_site_type_symbol
_atom_site_label
_atom_site_fract_x
_atom_site_fract_y
_atom_site_fract_z
Si Si1 0.823803 0.325597 0.878987
Si Si2 0.175619 0.675620 0.459241
Si Si3 0.175179 0.174555 0.209254
Si Si4 0.675434 0.175119 0.377974
Si Si5 0.674449 0.176301 0.702396
Si Si6 0.825276 0.675297 0.040521
O O1 0.796796 0.500000 0.880880
O O2 0.781348 0.261708 0.833030
O O3 0.740269 0.244441 0.916742
O O4 0.000000 0.301067 0.883886
O O5 0.250309 0.749692 0.500000
O O6 0.200985 0.500000 0.459774
O O7 0.244635 0.745451 0.417049
O O8 0.000000 0.700818 0.460082
O O9 0.216995 0.263874 0.251254
O O10 0.000000 0.194814 0.202003
O O11 0.200589 0.000000 0.216733
O O12 0.500000 0.199160 0.380737
O O13 0.738122 0.240936 0.334396
O O14 0.702934 0.000000 0.379807
O O15 0.500000 0.203747 0.699691
O O16 0.698616 0.000000 0.697060
O O17 0.801777 0.500000 0.038591
O O18 0.000000 0.703667 0.039999
O O19 0.750845 0.750845 0.000000
#
# Coordination Sequence:
#
# PCOD9557336 Si02
#       6
#     8   8   8   8   8   8
#     4  10  21  37  58  85 116 149 187 231 279 333
#     4  11  24  41  62  89 119 151 190 234 281 336
#     4   9  18  34  56  81 112 152 194 234 278 330
#     4  11  24  40  59  85 116 151 193 238 284 337
#     4  10  21  37  58  85 116 150 190 236 285 338
#     4  11  24  40  59  84 113 146 186 231 279 333
#
# _framework density 18.507000999999999
#
# number of rings (size 3 to 8) (size 9 to 14) (size 15 to 20)
#    0.000    1.667    0.000    4.000    0.000   13.333 
#    0.000    3.333    0.000    0.000    0.000    0.000 
#    0.000    0.000    0.000    0.000    0.000    0.000 
#
# Total GULP energy -268374.674246 kJ/mol
# GULP energy per Si atom -5591.139047 kJ/mol
# Density = 1.846488 g / cm^3
# Si number density = 18.507001 Si / 1000 Ang^3
#
#
#
# Elastic Constant Matrix: (Units=GPa)
#
#
# Indices 1 2 3 4 5 6 
#
# 1 110.7478 106.2490 109.6356 0.0000 0.0000 0.0000
# 2 106.2490 110.7477 109.6357 0.0000 0.0000 0.0000
# 3 109.6356 109.6357 199.5275 0.0000 0.0000 0.0000
# 4 0.0000 0.0000 0.0000 98.3626 0.0000 0.0000
# 5 0.0000 0.0000 0.0000 0.0000 98.3582 0.0000
# 6 0.0000 0.0000 0.0000 0.0000 0.0000 28.5247
#
#
#
# Elastic Compliance Matrix: (Units=1/GPa)
#
#
# Indices 1 2 3 4 5 6 
#
# 1 0.116323 -0.105962 -0.005693 0.000000 0.000000 0.000000
# 2 -0.105962 0.116323 -0.005694 0.000000 0.000000 0.000000
# 3 -0.005693 -0.005694 0.011269 0.000000 0.000000 0.000000
# 4 0.000000 0.000000 0.000000 0.010166 0.000000 0.000000
# 5 0.000000 0.000000 0.000000 0.000000 0.010167 0.000000
# 6 0.000000 0.000000 0.000000 0.000000 0.000000 0.035057
#
#
# Mechanical properties :
#
#
# Convention : Reuss Voigt Hill
#
# Bulk Modulus (GPa) = 108.48380 119.11817 113.80099
# Shear Modulus (GPa) = 9.30970 51.41596 30.36283
#
# Velocity S-wave (km/s) = 2.24528 5.27657 4.05484
# Velocity P-wave (km/s) = 8.09115 10.08100 9.14038
#
# Compressibility (1/GPa) = 0.00921797
#
# Stress axis : x y z
#
# Youngs Moduli (GPa) = 8.59678 8.59673 88.74269
#
# Poissons Ratio (x) = 0.91092 0.50522
# Poissons Ratio (y) = 0.91093 0.50526
# Poissons Ratio (z) = 0.04894 0.04895
#
# Static dielectric constant tensor:
#      x y z
#    x 1.617200 0.000000 0.000000 
#    y 0.000000 1.617200 0.000000 
#    z 0.000000 0.000000 1.597310 
# 
# From -- ./inp_files/6126.got.cif
#   From: 2010.05.17/outbox.cif.g08.bks.cpg/sg115_4_cif.got.tgz:6126.got - 2010.05.20 11:07:42.
