data_PCOD9557922
_publ_section_title
;
Structure prediction by ZEFSAII (Michael W. Deem and Ramdas Pophale) SiO2 
 PCOD9557922
Probable space group: P -4 C 2
;
_chemical_formula_sum "Si O2"
_cell_formula_units_Z 40
_cell_length_a 8.500887
_cell_length_b 8.500887
_cell_length_c 25.370544
_cell_angle_alpha 90.000000
_cell_angle_beta 90.000000
_cell_angle_gamma 90.000000
_cell_volume 1833.404386
_symmetry_space_group_name_H-M "P -4 C 2"
_symmetry_group_IT_number 116
_symmetry_cell_setting 'tetragonal'
loop_
_space_group_symop_operation_xyz
x,y,z
y,-x,-z
-x,-y,z
-y,x,-z
y,x,1/2-z
-y,-x,1/2-z
-x,y,1/2+z
x,-y,1/2+z
loop_
_atom_site_type_symbol
_atom_site_label
_atom_site_fract_x
_atom_site_fract_y
_atom_site_fract_z
Si Si1 0.688040 0.504309 0.864189
Si Si2 0.742435 0.538216 0.482523
Si Si3 0.925261 0.791903 0.526836
Si Si4 0.181643 0.817674 0.812789
Si Si5 0.177278 0.839863 0.352143
O O1 0.500000 0.500000 0.870513
O O2 0.767421 0.504037 0.922093
O O3 0.741088 0.341861 0.836132
O O4 0.734132 0.675074 0.839756
O O5 0.668909 0.394747 0.514199
O O6 0.886132 0.616387 0.511860
O O7 0.864211 0.828104 0.584764
O O8 0.103382 0.840726 0.518183
O O9 0.190613 0.809388 0.750000
O O10 0.999381 0.820104 0.830737
O O11 0.243766 0.991949 0.830634
#
# Coordination Sequence:
#
# PCOD9557922 Si02
#       5
#     8   8   8   8   8
#     4  12  24  44  70 104 142 183 227 285 352 424
#     4  11  20  39  61  89 138 176 214 257 329 419
#     4  11  21  34  59 100 131 169 222 274 334 415
#     4  11  26  49  71  99 134 179 242 303 353 414
#     4  11  22  46  72  97 138 186 232 289 356 418
#
# _framework density 21.817333999999999
#
# number of rings (size 3 to 8) (size 9 to 14) (size 15 to 20)
#    0.000    0.800    4.000    6.600    0.000    2.000 
#   10.800    4.000    0.000    0.000    0.000    0.000 
#    0.000    0.000    0.000    0.000    0.000    0.000 
#
# Total GULP energy -223367.443613 kJ/mol
# GULP energy per Si atom -5584.186090 kJ/mol
# Density = 2.176768 g / cm^3
# Si number density = 21.817334 Si / 1000 Ang^3
#
#
#
# Elastic Constant Matrix: (Units=GPa)
#
#
# Indices 1 2 3 4 5 6 
#
# 1 72.5977 73.4382 32.2968 0.0000 0.0000 0.0000
# 2 73.4382 72.5978 32.2969 0.0000 0.0000 0.0000
# 3 32.2968 32.2969 120.7207 0.0000 0.0000 0.0000
# 4 0.0000 0.0000 0.0000 18.4754 0.0000 0.0000
# 5 0.0000 0.0000 0.0000 0.0000 18.4753 0.0000
# 6 0.0000 0.0000 0.0000 0.0000 0.0000 44.9997
#
#
#
# Elastic Compliance Matrix: (Units=1/GPa)
#
#
# Indices 1 2 3 4 5 6 
#
# 1 -0.590999 0.598765 -0.002078 0.000000 0.000000 0.000000
# 2 0.598765 -0.590998 -0.002078 0.000000 0.000000 0.000000
# 3 -0.002078 -0.002078 0.009395 0.000000 0.000000 0.000000
# 4 0.000000 0.000000 0.000000 0.054126 0.000000 0.000000
# 5 0.000000 0.000000 0.000000 0.000000 0.054126 0.000000
# 6 0.000000 0.000000 0.000000 0.000000 0.000000 0.022222
#
#
# Mechanical properties :
#
#
# Convention : Reuss Voigt Hill
#
# Bulk Modulus (GPa) = 60.17806 60.22000 60.19903
# Shear Modulus (GPa) = -2.24638 24.91571 11.33467
#
# Velocity S-wave (km/s) = -1.01581 3.38304 2.28178
# Velocity P-wave (km/s) = 5.12511 6.55147 5.88169
#
# Compressibility (1/GPa) = 0.01661735
#
# Stress axis : x y z
#
# Youngs Moduli (GPa) = -1.69205 -1.69205 106.43533
#
# Poissons Ratio (x) = 1.01314 0.22117
# Poissons Ratio (y) = 1.01314 0.22115
# Poissons Ratio (z) = -0.00352 -0.00352
#
# Static dielectric constant tensor:
#      x y z
#    x 1.853540 0.000000 0.000000 
#    y 0.000000 1.853540 0.000000 
#    z 0.000000 0.000000 1.737200 
# 
# From -- ./inp_files/4404.got.cif
#   From: 2010.05.17/outbox.cif.g08.bks.cpg/sg116_3_cif.got.tgz:4404.got - 2010.05.20 11:11:43.
