data_PCOD9557582
_publ_section_title
;
Structure prediction by ZEFSAII (Michael W. Deem and Ramdas Pophale) SiO2 
 PCOD9557582
Probable space group: P -4 C 2
;
_chemical_formula_sum "Si O2"
_cell_formula_units_Z 26
_cell_length_a 10.301247
_cell_length_b 10.301247
_cell_length_c 9.991706
_cell_angle_alpha 90.000000
_cell_angle_beta 90.000000
_cell_angle_gamma 90.000000
_cell_volume 1060.276774
_symmetry_space_group_name_H-M "P -4 C 2"
_symmetry_group_IT_number 116
_symmetry_cell_setting 'tetragonal'
loop_
_space_group_symop_operation_xyz
x,y,z
y,-x,-z
-x,-y,z
-y,x,-z
y,x,1/2-z
-y,-x,1/2-z
-x,y,1/2+z
x,-y,1/2+z
loop_
_atom_site_type_symbol
_atom_site_label
_atom_site_fract_x
_atom_site_fract_y
_atom_site_fract_z
Si Si1 0.197395 0.347363 0.439283
Si Si2 0.260902 0.901612 0.079278
Si Si3 0.531064 0.847170 0.795508
Si Si4 0.000000 0.000000 0.000000
O O1 0.263795 0.207859 0.463455
O O2 0.214119 0.422678 0.301298
O O3 0.225373 0.438373 0.566789
O O4 0.041551 0.322623 0.451468
O O5 0.338047 0.851386 0.206621
O O6 0.108609 0.932715 0.090790
O O7 0.500000 0.000000 0.818072
#
# Coordination Sequence:
#
# PCOD9557582 Si02
#       4
#     8   8   8   2
#     4  10  20  36  57  84 114 150 191 235 286 346
#     4   9  18  34  56  82 117 152 185 232 290 348
#     4  10  19  34  55  80 113 150 190 229 278 344
#     4   8  16  32  50  84 120 146 178 228 292 354
#
# _framework density 24.521901
#
# number of rings (size 3 to 8) (size 9 to 14) (size 15 to 20)
#    0.000    2.462    0.000    3.692    0.000    0.000 
#    0.000   44.615    0.000    0.923    0.000   12.923 
#    0.000    0.000    0.000    0.000    0.000    0.000 
#
# Total GULP energy -145370.709394 kJ/mol
# GULP energy per Si atom -5591.181131 kJ/mol
# Density = 2.446609 g / cm^3
# Si number density = 24.521901 Si / 1000 Ang^3
#
#
#
# Elastic Constant Matrix: (Units=GPa)
#
#
# Indices 1 2 3 4 5 6 
#
# 1 83.1704 9.2506 18.5035 0.0000 0.0000 0.0000
# 2 9.2506 83.1704 18.5035 0.0000 0.0000 0.0000
# 3 18.5035 18.5035 117.7381 0.0000 0.0000 0.0000
# 4 0.0000 0.0000 0.0000 22.7645 0.0000 0.0000
# 5 0.0000 0.0000 0.0000 0.0000 22.7645 0.0000
# 6 0.0000 0.0000 0.0000 0.0000 0.0000 8.0296
#
#
#
# Elastic Compliance Matrix: (Units=1/GPa)
#
#
# Indices 1 2 3 4 5 6 
#
# 1 0.012537 -0.000991 -0.001815 0.000000 0.000000 0.000000
# 2 -0.000991 0.012537 -0.001815 0.000000 0.000000 0.000000
# 3 -0.001815 -0.001815 0.009064 0.000000 0.000000 0.000000
# 4 0.000000 0.000000 0.000000 0.043928 0.000000 0.000000
# 5 0.000000 0.000000 0.000000 0.000000 0.043928 0.000000
# 6 0.000000 0.000000 0.000000 0.000000 0.000000 0.124539
#
#
# Mechanical properties :
#
#
# Convention : Reuss Voigt Hill
#
# Bulk Modulus (GPa) = 40.16301 41.84378 41.00340
# Shear Modulus (GPa) = 18.93416 26.56648 22.75032
#
# Velocity S-wave (km/s) = 2.78174 3.29504 3.04921
# Velocity P-wave (km/s) = 5.17024 5.61937 5.39948
#
# Compressibility (1/GPa) = 0.02489853
#
# Stress axis : x y z
#
# Youngs Moduli (GPa) = 79.76124 79.76124 110.32895
#
# Poissons Ratio (x) = 0.07902 0.20021
# Poissons Ratio (y) = 0.07902 0.20021
# Poissons Ratio (z) = 0.14474 0.14474
#
# Static dielectric constant tensor:
#      x y z
#    x 1.955280 0.000000 0.000000 
#    y 0.000000 1.955280 0.000000 
#    z 0.000000 0.000000 1.960030 
# 
# From -- ./inp_files/505.got.cif
#   From: 2010.05.17/outbox.cif.g08.bks.cpg/sg116_1_cif.got.tgz:505.got - 2010.05.20 11:11:43.
