data_PCOD9557132
_publ_section_title
;
Structure prediction by ZEFSAII (Michael W. Deem and Ramdas Pophale) SiO2 
 PCOD9557132
Probable space group: P -4 M 2
;
_chemical_formula_sum "Si O2"
_cell_formula_units_Z 48
_cell_length_a 9.336954
_cell_length_b 9.336954
_cell_length_c 32.232874
_cell_angle_alpha 90.000000
_cell_angle_beta 90.000000
_cell_angle_gamma 90.000000
_cell_volume 2810.020375
_symmetry_space_group_name_H-M "P -4 M 2"
_symmetry_group_IT_number 115
_symmetry_cell_setting 'tetragonal'
loop_
_space_group_symop_operation_xyz
x,y,z
y,-x,-z
-x,-y,z
-y,x,-z
y,x,-z
-y,-x,-z
-x,y,z
x,-y,z
loop_
_atom_site_type_symbol
_atom_site_label
_atom_site_fract_x
_atom_site_fract_y
_atom_site_fract_z
Si Si1 0.329657 0.670344 0.000000
Si Si2 0.671743 0.668814 0.334514
Si Si3 0.829960 0.170417 0.166750
Si Si4 0.831264 0.671202 0.749428
Si Si5 0.828885 0.827680 0.591004
Si Si6 0.170264 0.670404 0.083371
Si Si7 0.828543 0.828543 0.500000
O O1 0.250097 0.718469 0.041706
O O2 0.500000 0.694070 0.004691
O O3 0.500000 0.687743 0.338879
O O4 0.702545 0.500000 0.333918
O O5 0.714210 0.741832 0.290974
O O6 0.750672 0.745669 0.372369
O O7 0.748782 0.215613 0.208439
O O8 0.781646 0.250395 0.125136
O O9 0.000000 0.196011 0.171767
O O10 0.808272 0.000000 0.161681
O O11 0.817795 0.500000 0.754625
O O12 0.000000 0.703545 0.742671
O O13 0.777383 0.777318 0.545063
O O14 0.000000 0.800474 0.594298
O O15 0.810322 0.000000 0.593324
O O16 0.193600 0.500000 0.088012
O O17 0.000000 0.694596 0.078651
O O18 0.000000 0.806505 0.500208
#
# Coordination Sequence:
#
# PCOD9557132 Si02
#       7
#     4   8   8   8   8   8   4
#     4   9  18  32  48  67  92 122 156 191 224 262
#     4  10  21  35  49  69 100 134 165 199 241 289
#     4   9  18  32  49  70  95 120 149 189 235 281
#     4   9  18  33  51  69  91 122 160 199 237 280
#     4   9  17  31  53  77  98 124 161 203 245 289
#     4   9  18  32  48  67  93 123 152 184 226 274
#     4   7  12  26  48  73  98 122 154 199 244 285
#
# _framework density 17.081726
#
# number of rings (size 3 to 8) (size 9 to 14) (size 15 to 20)
#    0.000    3.000    0.000    1.500    0.000    4.000 
#    0.000    2.500    0.000    4.000    0.000    0.000 
#    0.000    0.000    0.000    0.000    0.000    0.000 
#
# Total GULP energy -267450.009535 kJ/mol
# GULP energy per Si atom -5571.875199 kJ/mol
# Density = 1.704285 g / cm^3
# Si number density = 17.081726 Si / 1000 Ang^3
#
#
#
# Elastic Constant Matrix: (Units=GPa)
#
#
# Indices 1 2 3 4 5 6 
#
# 1 38.0170 37.0692 75.6662 0.0000 0.0000 0.0000
# 2 37.0692 38.0167 75.6662 0.0000 0.0000 0.0000
# 3 75.6662 75.6662 233.6444 0.0000 0.0000 0.0000
# 4 0.0000 0.0000 0.0000 712.3339 0.0000 0.0000
# 5 0.0000 0.0000 0.0000 0.0000 711.3634 0.0000
# 6 0.0000 0.0000 0.0000 0.0000 0.0000 19.7737
#
#
#
# Elastic Compliance Matrix: (Units=1/GPa)
#
#
# Indices 1 2 3 4 5 6 
#
# 1 0.546812 -0.508470 -0.012417 0.000000 0.000000 0.000000
# 2 -0.508470 0.546825 -0.012421 0.000000 0.000000 0.000000
# 3 -0.012417 -0.012421 0.012324 0.000000 0.000000 0.000000
# 4 0.000000 0.000000 0.000000 0.001404 0.000000 0.000000
# 5 0.000000 0.000000 0.000000 0.000000 0.001406 0.000000
# 6 0.000000 0.000000 0.000000 0.000000 0.000000 0.050572
#
#
# Mechanical properties :
#
#
# Convention : Reuss Voigt Hill
#
# Bulk Modulus (GPa) = 25.41693 76.27568 50.84631
# Shear Modulus (GPa) = 2.23307 296.77930 149.50618
#
# Velocity S-wave (km/s) = 1.14461 13.19538 9.36558
# Velocity P-wave (km/s) = 4.08151 16.64054 12.11541
#
# Compressibility (1/GPa) = 0.03934386
#
# Stress axis : x y z
#
# Youngs Moduli (GPa) = 1.82878 1.82874 81.14282
#
# Poissons Ratio (x) = 0.92986 1.00756
# Poissons Ratio (y) = 0.92988 1.00789
# Poissons Ratio (z) = 0.02271 0.02272
#
# Static dielectric constant tensor:
#      x y z
#    x 1.567070 0.000000 0.000000 
#    y 0.000000 1.567070 0.000000 
#    z 0.000000 0.000000 1.573480 
# 
# From -- ./inp_files/6220.got.cif
#   From: 2010.05.17/outbox.cif.g08.bks.cpg/sg115_4_cif.got.tgz:6220.got - 2010.05.20 11:07:42.
