data_PCOD9557066
_publ_section_title
;
Structure prediction by ZEFSAII (Michael W. Deem and Ramdas Pophale) SiO2 
 PCOD9557066
Probable space group: P -4 M 2
;
_chemical_formula_sum "Si O2"
_cell_formula_units_Z 48
_cell_length_a 8.206733
_cell_length_b 8.206733
_cell_length_c 35.297248
_cell_angle_alpha 90.000000
_cell_angle_beta 90.000000
_cell_angle_gamma 90.000000
_cell_volume 2377.286120
_symmetry_space_group_name_H-M "P -4 M 2"
_symmetry_group_IT_number 115
_symmetry_cell_setting 'tetragonal'
loop_
_space_group_symop_operation_xyz
x,y,z
y,-x,-z
-x,-y,z
-y,x,-z
y,x,-z
-y,-x,-z
-x,y,z
x,-y,z
loop_
_atom_site_type_symbol
_atom_site_label
_atom_site_fract_x
_atom_site_fract_y
_atom_site_fract_z
Si Si1 0.805261 0.317610 0.539162
Si Si2 0.699737 0.500000 0.748578
Si Si3 0.688051 0.804779 0.040945
Si Si4 0.194921 0.812956 0.380739
Si Si5 0.500000 0.300595 0.163449
Si Si6 0.695460 0.178667 0.880608
Si Si7 0.693482 0.186388 0.701894
O O1 0.772329 0.227671 0.500000
O O2 0.744925 0.500000 0.534072
O O3 0.740298 0.252248 0.579241
O O4 0.000000 0.317125 0.543701
O O5 0.500000 0.500000 0.746561
O O6 0.745179 0.500000 0.792598
O O7 0.756608 0.333546 0.728037
O O8 0.500000 0.756189 0.047262
O O9 0.792962 0.734826 0.075323
O O10 0.698737 0.000000 0.041605
O O11 0.743427 0.743427 0.000000
O O12 0.235080 0.722343 0.341908
O O13 0.000000 0.817726 0.383037
O O14 0.254617 0.000000 0.377009
O O15 0.500000 0.500000 0.161629
O O16 0.335676 0.242734 0.142470
O O17 0.500000 0.177186 0.876166
O O18 0.757302 0.000000 0.868577
O O19 0.500000 0.176305 0.708424
O O20 0.759033 0.000000 0.707526
#
# Coordination Sequence:
#
# PCOD9557066 Si02
#       7
#     8   4   8   8   4   8   8
#     4  10  21  35  51  73 100 132 172 214 257 311
#     4   9  18  32  53  81 111 143 179 225 283 337
#     4  11  23  37  55  81 113 150 191 235 287 343
#     4   9  18  33  53  75 100 133 171 213 264 318
#     4   9  18  34  55  81 113 145 185 237 287 341
#     4  10  20  35  57  83 110 146 192 237 288 345
#     4   9  18  32  51  77 107 138 176 221 272 333
#
# _framework density 20.191091
#
# number of rings (size 3 to 8) (size 9 to 14) (size 15 to 20)
#    0.000    2.333    0.833    1.500    1.167    5.667 
#    0.000    5.000    0.000    2.000    0.000    2.333 
#    0.000    0.000    0.000    0.000    0.000    0.000 
#
# Total GULP energy -267694.379310 kJ/mol
# GULP energy per Si atom -5576.966236 kJ/mol
# Density = 2.014513 g / cm^3
# Si number density = 20.191091 Si / 1000 Ang^3
#
#
#
# Elastic Constant Matrix: (Units=GPa)
#
#
# Indices 1 2 3 4 5 6 
#
# 1 50.9241 34.0216 40.8611 0.0000 0.0000 0.0000
# 2 34.0216 50.9241 40.8611 0.0000 0.0000 0.0000
# 3 40.8611 40.8611 145.2253 0.0000 0.0000 0.0000
# 4 0.0000 0.0000 0.0000 44.2313 0.0000 0.0000
# 5 0.0000 0.0000 0.0000 0.0000 44.2313 0.0000
# 6 0.0000 0.0000 0.0000 0.0000 0.0000 10.7349
#
#
#
# Elastic Compliance Matrix: (Units=1/GPa)
#
#
# Indices 1 2 3 4 5 6 
#
# 1 0.037652 -0.021511 -0.004542 0.000000 0.000000 0.000000
# 2 -0.021511 0.037652 -0.004542 0.000000 0.000000 0.000000
# 3 -0.004542 -0.004542 0.009442 0.000000 0.000000 0.000000
# 4 0.000000 0.000000 0.000000 0.022608 0.000000 0.000000
# 5 0.000000 0.000000 0.000000 0.000000 0.022608 0.000000
# 6 0.000000 0.000000 0.000000 0.000000 0.000000 0.093154
#
#
# Mechanical properties :
#
#
# Convention : Reuss Voigt Hill
#
# Bulk Modulus (GPa) = 42.44834 53.17345 47.81090
# Shear Modulus (GPa) = 17.11410 28.59481 22.85446
#
# Velocity S-wave (km/s) = 2.91453 3.76734 3.36803
# Velocity P-wave (km/s) = 5.69165 6.73172 6.23342
#
# Compressibility (1/GPa) = 0.02355805
#
# Stress axis : x y z
#
# Youngs Moduli (GPa) = 26.55896 26.55896 105.91480
#
# Poissons Ratio (x) = 0.57130 0.48103
# Poissons Ratio (y) = 0.57130 0.48103
# Poissons Ratio (z) = 0.12062 0.12062
#
# Static dielectric constant tensor:
#      x y z
#    x 1.734640 0.000000 0.000000 
#    y 0.000000 1.734640 0.000000 
#    z 0.000000 0.000000 1.699960 
# 
# From -- ./inp_files/6162.got.cif
#   From: 2010.05.17/outbox.cif.g08.bks.cpg/sg115_4_cif.got.tgz:6162.got - 2010.05.20 11:07:42.
