data_PCOD9557721
_publ_section_title
;
Structure prediction by ZEFSAII (Michael W. Deem and Ramdas Pophale) SiO2 
 PCOD9557721
Probable space group: P -4 C 2
;
_chemical_formula_sum "Si O2"
_cell_formula_units_Z 48
_cell_length_a 8.546509
_cell_length_b 8.546509
_cell_length_c 27.692236
_cell_angle_alpha 90.000000
_cell_angle_beta 90.000000
_cell_angle_gamma 90.000000
_cell_volume 2022.718901
_symmetry_space_group_name_H-M "P -4 C 2"
_symmetry_group_IT_number 116
_symmetry_cell_setting 'tetragonal'
loop_
_space_group_symop_operation_xyz
x,y,z
y,-x,-z
-x,-y,z
-y,x,-z
y,x,1/2-z
-y,-x,1/2-z
-x,y,1/2+z
x,-y,1/2+z
loop_
_atom_site_type_symbol
_atom_site_label
_atom_site_fract_x
_atom_site_fract_y
_atom_site_fract_z
Si Si1 0.645193 0.152181 0.181909
Si Si2 0.636141 0.624393 0.350303
Si Si3 0.119189 0.759321 0.574372
Si Si4 0.903313 0.783672 0.911318
Si Si5 0.259064 0.404369 0.990157
Si Si6 0.556583 0.840764 0.791874
O O1 0.481793 0.216339 0.162307
O O2 0.727344 0.046313 0.142144
O O3 0.764642 0.296290 0.182906
O O4 0.613232 0.116920 0.237799
O O5 0.500000 0.500000 0.366584
O O6 0.677972 0.761916 0.387556
O O7 0.574017 0.708977 0.301305
O O8 0.128009 0.649506 0.527935
O O9 0.942463 0.800545 0.590289
O O10 0.184200 0.933233 0.562022
O O11 0.802824 0.650500 0.938094
O O12 0.307258 0.584313 0.995519
O O13 0.500000 0.000000 0.815182
#
# Coordination Sequence:
#
# PCOD9557721 Si02
#       6
#     8   8   8   8   8   8
#     4  10  22  39  63  94 131 174 226 280 335 406
#     4  10  22  39  65  97 130 173 226 281 338 401
#     4  11  25  43  70  99 139 184 225 281 339 414
#     4  11  25  45  66 100 141 182 227 275 349 413
#     4  11  26  44  70 104 139 176 226 279 335 405
#     4  10  21  38  63  93 130 173 224 283 345 397
#
# _framework density 23.730437999999999
#
# number of rings (size 3 to 8) (size 9 to 14) (size 15 to 20)
#    0.000    1.500    0.000    3.500    9.333    7.333 
#    0.000    0.000    0.000    2.000    0.000    0.000 
#    0.000    0.000    0.000    0.000    0.000    0.000 
#
# Total GULP energy -268135.340174 kJ/mol
# GULP energy per Si atom -5586.152920 kJ/mol
# Density = 2.367643 g / cm^3
# Si number density = 23.730438 Si / 1000 Ang^3
#
#
#
# Elastic Constant Matrix: (Units=GPa)
#
#
# Indices 1 2 3 4 5 6 
#
# 1 73.1026 50.1019 21.8997 0.0000 0.0000 0.0000
# 2 50.1019 73.1026 21.8997 0.0000 0.0000 0.0000
# 3 21.8997 21.8997 79.2131 0.0000 0.0000 0.0000
# 4 0.0000 0.0000 0.0000 64.8732 0.0000 0.0000
# 5 0.0000 0.0000 0.0000 0.0000 64.8732 0.0000
# 6 0.0000 0.0000 0.0000 0.0000 0.0000 49.3094
#
#
#
# Elastic Compliance Matrix: (Units=1/GPa)
#
#
# Indices 1 2 3 4 5 6 
#
# 1 0.026239 -0.017238 -0.002489 0.000000 0.000000 0.000000
# 2 -0.017238 0.026239 -0.002489 0.000000 0.000000 0.000000
# 3 -0.002489 -0.002489 0.014000 0.000000 0.000000 0.000000
# 4 0.000000 0.000000 0.000000 0.015415 0.000000 0.000000
# 5 0.000000 0.000000 0.000000 0.000000 0.015415 0.000000
# 6 0.000000 0.000000 0.000000 0.000000 0.000000 0.020280
#
#
# Mechanical properties :
#
#
# Convention : Reuss Voigt Hill
#
# Bulk Modulus (GPa) = 45.35448 45.91343 45.63396
# Shear Modulus (GPa) = 29.52166 44.57895 37.05031
#
# Velocity S-wave (km/s) = 3.53092 4.33893 3.95561
# Velocity P-wave (km/s) = 5.98140 6.67021 6.33517
#
# Compressibility (1/GPa) = 0.02204854
#
# Stress axis : x y z
#
# Youngs Moduli (GPa) = 38.11108 38.11108 71.42766
#
# Poissons Ratio (x) = 0.65695 0.17775
# Poissons Ratio (y) = 0.65695 0.17775
# Poissons Ratio (z) = 0.09484 0.09484
#
# Static dielectric constant tensor:
#      x y z
#    x 1.875320 0.000000 0.000000 
#    y 0.000000 1.875320 0.000000 
#    z 0.000000 0.000000 1.926200 
# 
# From -- ./inp_files/5242.got.cif
#   From: 2010.05.17/outbox.cif.g08.bks.cpg/sg116_3_cif.got.tgz:5242.got - 2010.05.20 11:11:43.
