data_PCOD9557322
_publ_section_title
;
Structure prediction by ZEFSAII (Michael W. Deem and Ramdas Pophale) SiO2 
 PCOD9557322
Probable space group: P -4 M 2
;
_chemical_formula_sum "Si O2"
_cell_formula_units_Z 32
_cell_length_a 9.212939
_cell_length_b 9.212939
_cell_length_c 20.867146
_cell_angle_alpha 90.000000
_cell_angle_beta 90.000000
_cell_angle_gamma 90.000000
_cell_volume 1771.166731
_symmetry_space_group_name_H-M "P -4 M 2"
_symmetry_group_IT_number 115
_symmetry_cell_setting 'tetragonal'
loop_
_space_group_symop_operation_xyz
x,y,z
y,-x,-z
-x,-y,z
-y,x,-z
y,x,-z
-y,-x,-z
-x,y,z
x,-y,z
loop_
_atom_site_type_symbol
_atom_site_label
_atom_site_fract_x
_atom_site_fract_y
_atom_site_fract_z
Si Si1 0.171776 0.672943 0.558782
Si Si2 0.829138 0.173068 0.810022
Si Si3 0.671895 0.672822 0.925846
Si Si4 0.673682 0.328840 0.308015
O O1 0.240317 0.759684 0.500000
O O2 0.193541 0.500000 0.548392
O O3 0.251245 0.711671 0.625144
O O4 0.000000 0.699630 0.564105
O O5 0.764659 0.238742 0.875240
O O6 0.744836 0.244128 0.750698
O O7 0.000000 0.206213 0.804996
O O8 0.810532 0.000000 0.809306
O O9 0.500000 0.700748 0.916132
O O10 0.694007 0.500000 0.916699
O O11 0.706664 0.706664 0.000000
O O12 0.500000 0.312268 0.298534
O O13 0.705610 0.500000 0.311386
#
# Coordination Sequence:
#
# PCOD9557322 Si02
#       4
#     8   8   8   8
#     4  10  21  37  58  84 113 146 183 223 271 326
#     4  11  24  38  53  79 115 150 183 223 273 328
#     4   9  19  37  60  84 109 140 182 229 274 324
#     4  10  21  38  61  85 108 140 185 233 276 322
#
# _framework density 18.067184999999998
#
# number of rings (size 3 to 8) (size 9 to 14) (size 15 to 20)
#    0.000    2.000    0.000    3.750    0.000   10.500 
#    0.000    3.750    0.000    0.000    0.000    0.000 
#    0.000    0.000    0.000    0.000    0.000    0.000 
#
# Total GULP energy -178806.604096 kJ/mol
# GULP energy per Si atom -5587.706378 kJ/mol
# Density = 1.802606 g / cm^3
# Si number density = 18.067185 Si / 1000 Ang^3
#
#
#
# Elastic Constant Matrix: (Units=GPa)
#
#
# Indices 1 2 3 4 5 6 
#
# 1 97.1321 86.8137 103.1525 0.0000 0.0000 0.0000
# 2 86.8137 97.1327 103.1511 0.0000 0.0000 0.0000
# 3 103.1525 103.1511 167.6966 0.0000 0.0000 0.0000
# 4 0.0000 0.0000 0.0000 -115.1218 0.0000 0.0000
# 5 0.0000 0.0000 0.0000 0.0000 -115.0999 0.0000
# 6 0.0000 0.0000 0.0000 0.0000 0.0000 32.4949
#
#
#
# Elastic Compliance Matrix: (Units=1/GPa)
#
#
# Indices 1 2 3 4 5 6 
#
# 1 0.057222 -0.039691 -0.010784 0.000000 0.000000 0.000000
# 2 -0.039691 0.057218 -0.010781 0.000000 0.000000 0.000000
# 3 -0.010784 -0.010781 0.019228 0.000000 0.000000 0.000000
# 4 0.000000 0.000000 0.000000 -0.008686 0.000000 0.000000
# 5 0.000000 0.000000 0.000000 0.000000 -0.008688 0.000000
# 6 0.000000 0.000000 0.000000 0.000000 0.000000 0.030774
#
#
# Mechanical properties :
#
#
# Convention : Reuss Voigt Hill
#
# Bulk Modulus (GPa) = 89.63138 105.35510 97.49324
# Shear Modulus (GPa) = 18.29497 -34.95577 -8.33040
#
# Velocity S-wave (km/s) = 3.18560 -4.40337 -2.14960
# Velocity P-wave (km/s) = 7.95289 5.70847 6.92225
#
# Compressibility (1/GPa) = 0.01115681
#
# Stress axis : x y z
#
# Youngs Moduli (GPa) = 17.47574 17.47687 52.00732
#
# Poissons Ratio (x) = 0.69367 0.56085
# Poissons Ratio (y) = 0.69363 0.56069
# Poissons Ratio (z) = 0.18846 0.18842
#
# Static dielectric constant tensor:
#      x y z
#    x 1.597500 0.000000 0.000000 
#    y 0.000000 1.597500 0.000000 
#    z 0.000000 0.000000 1.584750 
# 
# From -- ./inp_files/4574.got.cif
#   From: 2010.05.17/outbox.cif.g08.bks.cpg/sg115_3_cif.got.tgz:4574.got - 2010.05.20 11:07:42.
