data_PCOD9557988
_publ_section_title
;
Structure prediction by ZEFSAII (Michael W. Deem and Ramdas Pophale) SiO2 
 PCOD9557988
Probable space group: P -4 C 2
;
_chemical_formula_sum "Si O2"
_cell_formula_units_Z 20
_cell_length_a 7.028710
_cell_length_b 7.028710
_cell_length_c 20.421504
_cell_angle_alpha 90.000000
_cell_angle_beta 90.000000
_cell_angle_gamma 90.000000
_cell_volume 1008.878748
_symmetry_space_group_name_H-M "P -4 C 2"
_symmetry_group_IT_number 116
_symmetry_cell_setting 'tetragonal'
loop_
_space_group_symop_operation_xyz
x,y,z
y,-x,-z
-x,-y,z
-y,x,-z
y,x,1/2-z
-y,-x,1/2-z
-x,y,1/2+z
x,-y,1/2+z
loop_
_atom_site_type_symbol
_atom_site_label
_atom_site_fract_x
_atom_site_fract_y
_atom_site_fract_z
Si Si1 0.009501 0.285011 0.719228
Si Si2 0.000000 0.500000 0.969405
Si Si3 0.810866 0.870462 0.926128
O O1 0.194991 0.194991 0.750000
O O2 0.041722 0.266322 0.641551
O O3 0.000000 0.500000 0.738726
O O4 0.837097 0.162904 0.750000
O O5 0.126245 0.352062 0.926806
O O6 0.106603 0.649335 0.017963
O O7 0.000000 0.000000 0.936066
#
# Coordination Sequence:
#
# PCOD9557988 Si02
#       3
#     8   4   8
#     4  11  25  45  72 104 141 186 230 293 353 416
#     4  12  24  44  72  98 142 188 226 292 352 412
#     4  12  24  46  68 102 143 179 236 293 349 416
#
# _framework density 19.823989000000001
#
# number of rings (size 3 to 8) (size 9 to 14) (size 15 to 20)
#    0.000    0.400   10.000    0.000    2.800    1.600 
#    0.000    4.000    0.000    0.000    0.000    0.000 
#    0.000    0.000    0.000    0.000    0.000    0.000 
#
# Total GULP energy -111451.787497 kJ/mol
# GULP energy per Si atom -5572.589375 kJ/mol
# Density = 1.977887 g / cm^3
# Si number density = 19.823989 Si / 1000 Ang^3
#
#
#
# Elastic Constant Matrix: (Units=GPa)
#
#
# Indices 1 2 3 4 5 6 
#
# 1 163.1229 75.1634 25.4251 0.0000 0.0000 0.0000
# 2 75.1634 163.1239 25.4245 0.0000 0.0000 0.0000
# 3 25.4251 25.4245 62.4593 0.0000 0.0000 0.0000
# 4 0.0000 0.0000 0.0000 52.2101 0.0000 0.0000
# 5 0.0000 0.0000 0.0000 0.0000 52.2015 0.0000
# 6 0.0000 0.0000 0.0000 0.0000 0.0000 8.3016
#
#
#
# Elastic Compliance Matrix: (Units=1/GPa)
#
#
# Indices 1 2 3 4 5 6 
#
# 1 0.007982 -0.003386 -0.001871 0.000000 0.000000 0.000000
# 2 -0.003386 0.007982 -0.001871 0.000000 0.000000 0.000000
# 3 -0.001871 -0.001871 0.017533 0.000000 0.000000 0.000000
# 4 0.000000 0.000000 0.000000 0.019153 0.000000 0.000000
# 5 0.000000 0.000000 0.000000 0.000000 0.019157 0.000000
# 6 0.000000 0.000000 0.000000 0.000000 0.000000 0.120459
#
#
# Mechanical properties :
#
#
# Convention : Reuss Voigt Hill
#
# Bulk Modulus (GPa) = 51.96966 71.19245 61.58105
# Shear Modulus (GPa) = 23.48115 40.05552 31.76834
#
# Velocity S-wave (km/s) = 3.44536 4.49994 4.00749
# Velocity P-wave (km/s) = 6.48844 7.93659 7.24877
#
# Compressibility (1/GPa) = 0.01924200
#
# Stress axis : x y z
#
# Youngs Moduli (GPa) = 125.27615 125.27737 57.03374
#
# Poissons Ratio (x) = 0.42425 0.10670
# Poissons Ratio (y) = 0.42425 0.10669
# Poissons Ratio (z) = 0.23438 0.23436
#
# Static dielectric constant tensor:
#      x y z
#    x 1.679440 0.000000 0.000000 
#    y 0.000000 1.679440 0.000000 
#    z 0.000000 0.000000 1.876950 
# 
# From -- ./inp_files/4243.got.cif
#   From: 2010.05.17/outbox.cif.g08.bks.cpg/sg116_3_cif.got.tgz:4243.got - 2010.05.20 11:11:43.
