data_PCOD9557597
_publ_section_title
;
Structure prediction by ZEFSAII (Michael W. Deem and Ramdas Pophale) SiO2 
 PCOD9557597
Probable space group: P -4 C 2
;
_chemical_formula_sum "Si O2"
_cell_formula_units_Z 48
_cell_length_a 8.460531
_cell_length_b 8.460531
_cell_length_c 30.090239
_cell_angle_alpha 90.000000
_cell_angle_beta 90.000000
_cell_angle_gamma 90.000000
_cell_volume 2153.876904
_symmetry_space_group_name_H-M "P -4 C 2"
_symmetry_group_IT_number 116
_symmetry_cell_setting 'tetragonal'
loop_
_space_group_symop_operation_xyz
x,y,z
y,-x,-z
-x,-y,z
-y,x,-z
y,x,1/2-z
-y,-x,1/2-z
-x,y,1/2+z
x,-y,1/2+z
loop_
_atom_site_type_symbol
_atom_site_label
_atom_site_fract_x
_atom_site_fract_y
_atom_site_fract_z
Si Si1 0.158113 0.895077 0.937443
Si Si2 0.552221 0.316778 0.054696
Si Si3 0.827290 0.816171 0.697400
Si Si4 0.646756 0.870920 0.984936
Si Si5 0.182529 0.165315 0.333820
Si Si6 0.497153 0.807373 0.152539
O O1 0.183066 0.842010 0.887238
O O2 0.320156 0.973483 0.955931
O O3 0.114540 0.767719 0.974327
O O4 0.000000 0.000000 0.936036
O O5 0.500000 0.500000 0.050295
O O6 0.739055 0.310773 0.050947
O O7 0.499222 0.249909 0.101713
O O8 0.494131 0.207140 0.013826
O O9 0.807545 0.807545 0.750000
O O10 0.668939 0.752711 0.673687
O O11 0.999443 0.746798 0.683749
O O12 0.833939 0.001315 0.683299
O O13 0.247851 0.340807 0.323250
O O14 0.500000 0.000000 0.152801
#
# Coordination Sequence:
#
# PCOD9557597 Si02
#       6
#     8   8   8   8   8   8
#     4  12  22  36  58  97 128 160 227 280 331 386
#     4  12  25  44  57  85 133 186 222 266 344 400
#     4  10  20  38  70 101 130 168 220 286 358 429
#     4  12  23  38  57  87 128 172 224 273 309 398
#     4  10  19  36  63 102 130 170 217 284 347 411
#     4  10  23  39  71  96 128 178 226 278 349 419
#
# _framework density 22.285395999999999
#
# number of rings (size 3 to 8) (size 9 to 14) (size 15 to 20)
#    0.000    1.000    6.667    2.000    4.667    0.000 
#    0.000    0.000   18.333    0.000    0.000    0.000 
#    0.000    0.000    0.000    0.000    0.000    0.000 
#
# Total GULP energy -267664.358203 kJ/mol
# GULP energy per Si atom -5576.340796 kJ/mol
# Density = 2.223467 g / cm^3
# Si number density = 22.285396 Si / 1000 Ang^3
#
#
#
# Elastic Constant Matrix: (Units=GPa)
#
#
# Indices 1 2 3 4 5 6 
#
# 1 67.4031 54.6377 29.8095 0.0000 0.0000 0.0000
# 2 54.6377 67.4031 29.8095 0.0000 0.0000 0.0000
# 3 29.8095 29.8095 108.9321 0.0000 0.0000 0.0000
# 4 0.0000 0.0000 0.0000 -281.6656 0.0000 0.0000
# 5 0.0000 0.0000 0.0000 0.0000 -281.6656 0.0000
# 6 0.0000 0.0000 0.0000 0.0000 0.0000 12.4895
#
#
#
# Elastic Compliance Matrix: (Units=1/GPa)
#
#
# Indices 1 2 3 4 5 6 
#
# 1 0.043898 -0.034439 -0.002588 0.000000 0.000000 0.000000
# 2 -0.034439 0.043898 -0.002588 0.000000 0.000000 0.000000
# 3 -0.002588 -0.002588 0.010597 0.000000 0.000000 0.000000
# 4 0.000000 0.000000 0.000000 -0.003550 0.000000 0.000000
# 5 0.000000 0.000000 0.000000 0.000000 -0.003550 0.000000
# 6 0.000000 0.000000 0.000000 0.000000 0.000000 0.080067
#
#
# Mechanical properties :
#
#
# Convention : Reuss Voigt Hill
#
# Bulk Modulus (GPa) = 52.19152 52.47241 52.33196
# Shear Modulus (GPa) = 19.45698 -101.53623 -41.03962
#
# Velocity S-wave (km/s) = 2.95800 -6.75727 -4.29598
# Velocity P-wave (km/s) = 5.92763 6.10608 1.03618
#
# Compressibility (1/GPa) = 0.01916020
#
# Stress axis : x y z
#
# Youngs Moduli (GPa) = 22.78027 22.78027 94.36970
#
# Poissons Ratio (x) = 0.78453 0.24426
# Poissons Ratio (y) = 0.78453 0.24426
# Poissons Ratio (z) = 0.05896 0.05896
#
# Static dielectric constant tensor:
#      x y z
#    x 2.029840 0.000000 0.000000 
#    y 0.000000 2.029840 0.000000 
#    z 0.000000 0.000000 1.727660 
# 
# From -- ./inp_files/5249.got.cif
#   From: 2010.05.17/outbox.cif.g08.bks.cpg/sg116_3_cif.got.tgz:5249.got - 2010.05.20 11:11:43.
