data_PCOD9557084
_publ_section_title
;
Structure prediction by ZEFSAII (Michael W. Deem and Ramdas Pophale) SiO2 
 PCOD9557084
Probable space group: P -4 M 2
;
_chemical_formula_sum "Si O2"
_cell_formula_units_Z 48
_cell_length_a 21.576459
_cell_length_b 21.576459
_cell_length_c 5.252848
_cell_angle_alpha 90.000000
_cell_angle_beta 90.000000
_cell_angle_gamma 90.000000
_cell_volume 2445.429679
_symmetry_space_group_name_H-M "P -4 M 2"
_symmetry_group_IT_number 115
_symmetry_cell_setting 'tetragonal'
loop_
_space_group_symop_operation_xyz
x,y,z
y,-x,-z
-x,-y,z
-y,x,-z
y,x,-z
-y,-x,-z
-x,y,z
x,-y,z
loop_
_atom_site_type_symbol
_atom_site_label
_atom_site_fract_x
_atom_site_fract_y
_atom_site_fract_z
Si Si1 0.567911 0.194914 0.728873
Si Si2 0.612766 0.929900 0.941432
Si Si3 0.693207 0.931261 0.437914
Si Si4 0.745381 0.650823 0.625562
Si Si5 0.759171 0.185948 0.238593
Si Si6 0.675175 0.430086 0.962909
O O1 0.500000 0.191753 0.604358
O O2 0.573897 0.133088 0.898257
O O3 0.626195 0.198473 0.542441
O O4 0.572456 0.262782 0.862599
O O5 0.666868 0.924188 0.725156
O O6 0.585669 0.000000 0.898567
O O7 0.637925 0.929308 0.228978
O O8 0.741415 0.882019 0.328572
O O9 0.720495 0.000000 0.425134
O O10 0.694582 0.694582 0.500000
O O11 0.778201 0.694528 0.834132
O O12 0.707473 0.590108 0.701808
O O13 0.783150 0.216851 0.500000
O O14 0.803902 0.196099 0.000000
O O15 0.650759 0.500000 0.969116
O O16 0.621881 0.378120 0.000000
#
# Coordination Sequence:
#
# PCOD9557084 Si02
#       6
#     8   8   8   8   8   8
#     4  11  23  38  58  83 110 146 191 238 288 352
#     4  10  21  38  58  83 117 155 193 233 276 341
#     4  10  20  36  57  79 116 158 191 226 282 342
#     4  11  21  35  58  79 110 138 181 237 296 353
#     4  11  22  33  57  89 119 146 189 241 286 339
#     4  11  23  39  58  79 106 141 189 245 305 364
#
# _framework density 19.628453
#
# number of rings (size 3 to 8) (size 9 to 14) (size 15 to 20)
#    0.000    1.333    3.333    3.000    4.667    0.500 
#    0.000    0.000    0.000    3.000    0.000    0.000 
#    0.000    2.000    0.000    0.000    0.000    0.000 
#
# Total GULP energy -267249.379365 kJ/mol
# GULP energy per Si atom -5567.695403 kJ/mol
# Density = 1.958378 g / cm^3
# Si number density = 19.628453 Si / 1000 Ang^3
#
#
#
# Elastic Constant Matrix: (Units=GPa)
#
#
# Indices 1 2 3 4 5 6 
#
# 1 83.3943 40.0972 3.2225 0.0000 0.0000 0.0000
# 2 40.0972 83.3963 3.2233 0.0000 0.0000 0.0000
# 3 3.2225 3.2233 53.8556 0.0000 0.0000 0.0000
# 4 0.0000 0.0000 0.0000 22.2151 0.0000 0.0000
# 5 0.0000 0.0000 0.0000 0.0000 22.2162 0.0000
# 6 0.0000 0.0000 0.0000 0.0000 0.0000 12.5905
#
#
#
# Elastic Compliance Matrix: (Units=1/GPa)
#
#
# Indices 1 2 3 4 5 6 
#
# 1 0.015610 -0.007486 -0.000486 0.000000 0.000000 0.000000
# 2 -0.007486 0.015609 -0.000486 0.000000 0.000000 0.000000
# 3 -0.000486 -0.000486 0.018626 0.000000 0.000000 0.000000
# 4 0.000000 0.000000 0.000000 0.045015 0.000000 0.000000
# 5 0.000000 0.000000 0.000000 0.000000 0.045012 0.000000
# 6 0.000000 0.000000 0.000000 0.000000 0.000000 0.079425
#
#
# Mechanical properties :
#
#
# Convention : Reuss Voigt Hill
#
# Bulk Modulus (GPa) = 30.36930 34.85911 32.61421
# Shear Modulus (GPa) = 20.22736 23.01123 21.61929
#
# Velocity S-wave (km/s) = 3.21364 3.42766 3.32237
# Velocity P-wave (km/s) = 5.41070 5.78474 5.60084
#
# Compressibility (1/GPa) = 0.03292799
#
# Stress axis : x y z
#
# Youngs Moduli (GPa) = 64.06340 64.06486 53.68742
#
# Poissons Ratio (x) = 0.47961 0.02609
# Poissons Ratio (y) = 0.47960 0.02611
# Poissons Ratio (z) = 0.03113 0.03115
#
# Static dielectric constant tensor:
#      x y z
#    x 1.723070 0.000000 0.000000 
#    y 0.000000 1.723070 0.000000 
#    z 0.000000 0.000000 1.797470 
# 
# From -- ./inp_files/629.got.cif
#   From: 2010.05.17/outbox.cif.g08.bks.cpg/sg115_1_cif.got.tgz:629.got - 2010.05.20 11:07:42.
