data_PCOD9557448
_publ_section_title
;
Structure prediction by ZEFSAII (Michael W. Deem and Ramdas Pophale) SiO2 
 PCOD9557448
Probable space group: P -4 M 2
;
_chemical_formula_sum "Si O2"
_cell_formula_units_Z 44
_cell_length_a 9.360917
_cell_length_b 9.360917
_cell_length_c 29.190456
_cell_angle_alpha 90.000000
_cell_angle_beta 90.000000
_cell_angle_gamma 90.000000
_cell_volume 2557.865289
_symmetry_space_group_name_H-M "P -4 M 2"
_symmetry_group_IT_number 115
_symmetry_cell_setting 'tetragonal'
loop_
_space_group_symop_operation_xyz
x,y,z
y,-x,-z
-x,-y,z
-y,x,-z
y,x,-z
-y,-x,-z
-x,y,z
x,-y,z
loop_
_atom_site_type_symbol
_atom_site_label
_atom_site_fract_x
_atom_site_fract_y
_atom_site_fract_z
Si Si1 0.671020 0.832941 0.960233
Si Si2 0.329946 0.169905 0.225481
Si Si3 0.335390 0.173765 0.589759
Si Si4 0.169892 0.169892 0.500000
Si Si5 0.170079 0.328199 0.307193
Si Si6 0.828973 0.329819 0.144160
O O1 0.500000 0.820203 0.963608
O O2 0.709646 0.790160 0.908184
O O3 0.707607 0.000000 0.965329
O O4 0.744490 0.744490 0.000000
O O5 0.500000 0.194309 0.225125
O O6 0.258460 0.244771 0.269354
O O7 0.257559 0.240218 0.180988
O O8 0.304200 0.000000 0.226349
O O9 0.500000 0.217253 0.584072
O O10 0.244042 0.222688 0.546490
O O11 0.287493 0.214666 0.640913
O O12 0.332432 0.000000 0.589786
O O13 0.000000 0.193576 0.503697
O O14 0.188492 0.500000 0.302677
O O15 0.000000 0.300263 0.301804
O O16 0.803322 0.500000 0.150233
O O17 0.000000 0.308427 0.149618
#
# Coordination Sequence:
#
# PCOD9557448 Si02
#       6
#     8   8   8   4   8   8
#     4   9  19  35  54  78 107 136 168 208 250 293
#     4  11  24  37  49  73 107 135 162 203 255 305
#     4   8  15  29  48  70  96 125 158 197 241 288
#     4   9  16  26  44  71  98 124 158 197 234 278
#     4   9  18  34  56  77  96 126 170 212 248 294
#     4   9  19  37  58  77  99 132 174 212 246 292
#
# _framework density 17.201841999999999
#
# number of rings (size 3 to 8) (size 9 to 14) (size 15 to 20)
#    0.000    2.818    0.000    3.273    0.000    6.909 
#    0.000    8.182    0.000    3.545    0.000    0.000 
#    0.000    0.000    0.000    0.000    0.000    0.000 
#
# Total GULP energy -245308.891329 kJ/mol
# GULP energy per Si atom -5575.202076 kJ/mol
# Density = 1.716269 g / cm^3
# Si number density = 17.201842 Si / 1000 Ang^3
#
#
#
# Elastic Constant Matrix: (Units=GPa)
#
#
# Indices 1 2 3 4 5 6 
#
# 1 52.7705 50.7338 82.7132 0.0000 0.0000 0.0000
# 2 50.7338 52.7705 82.7132 0.0000 0.0000 0.0000
# 3 82.7132 82.7132 198.3773 0.0000 0.0000 0.0000
# 4 0.0000 0.0000 0.0000 41.4732 0.0000 0.0000
# 5 0.0000 0.0000 0.0000 0.0000 41.4732 0.0000
# 6 0.0000 0.0000 0.0000 0.0000 0.0000 42.2298
#
#
#
# Elastic Compliance Matrix: (Units=1/GPa)
#
#
# Indices 1 2 3 4 5 6 
#
# 1 0.259974 -0.231014 -0.012075 0.000000 0.000000 0.000000
# 2 -0.231014 0.259974 -0.012075 0.000000 0.000000 0.000000
# 3 -0.012075 -0.012075 0.015110 0.000000 0.000000 0.000000
# 4 0.000000 0.000000 0.000000 0.024112 0.000000 0.000000
# 5 0.000000 0.000000 0.000000 0.000000 0.024112 0.000000
# 6 0.000000 0.000000 0.000000 0.000000 0.000000 0.023680
#
#
# Mechanical properties :
#
#
# Convention : Reuss Voigt Hill
#
# Bulk Modulus (GPa) = 40.43519 81.80430 61.11975
# Shear Modulus (GPa) = 4.44234 30.88577 17.66405
#
# Velocity S-wave (km/s) = 1.60875 4.24192 3.20796
# Velocity P-wave (km/s) = 5.19693 8.46467 7.02349
#
# Compressibility (1/GPa) = 0.02473093
#
# Stress axis : x y z
#
# Youngs Moduli (GPa) = 3.84654 3.84654 66.18053
#
# Poissons Ratio (x) = 0.88860 0.79913
# Poissons Ratio (y) = 0.88860 0.79913
# Poissons Ratio (z) = 0.04645 0.04645
#
# Static dielectric constant tensor:
#      x y z
#    x 1.567810 0.000000 0.000000 
#    y 0.000000 1.567810 0.000000 
#    z 0.000000 0.000000 1.584680 
# 
# From -- ./inp_files/5769.got.cif
#   From: 2010.05.17/outbox.cif.g08.bks.cpg/sg115_3_cif.got.tgz:5769.got - 2010.05.20 11:07:42.
