data_PCOD9557607
_publ_section_title
;
Structure prediction by ZEFSAII (Michael W. Deem and Ramdas Pophale) SiO2 
 PCOD9557607
Probable space group: P -4 C 2
;
_chemical_formula_sum "Si O2"
_cell_formula_units_Z 60
_cell_length_a 15.456043
_cell_length_b 15.456043
_cell_length_c 12.900556
_cell_angle_alpha 90.000000
_cell_angle_beta 90.000000
_cell_angle_gamma 90.000000
_cell_volume 3081.804344
_symmetry_space_group_name_H-M "P -4 C 2"
_symmetry_group_IT_number 116
_symmetry_cell_setting 'tetragonal'
loop_
_space_group_symop_operation_xyz
x,y,z
y,-x,-z
-x,-y,z
-y,x,-z
y,x,1/2-z
-y,-x,1/2-z
-x,y,1/2+z
x,-y,1/2+z
loop_
_atom_site_type_symbol
_atom_site_label
_atom_site_fract_x
_atom_site_fract_y
_atom_site_fract_z
Si Si1 0.406320 0.520094 0.857262
Si Si2 0.451105 0.081726 0.212614
Si Si3 0.790233 0.115750 0.345261
Si Si4 0.254149 0.066092 0.271999
Si Si5 0.829426 0.596516 0.654597
Si Si6 0.797971 0.177151 0.574739
Si Si7 0.648353 0.351648 0.250000
Si Si8 0.762825 0.603133 0.437131
O O1 0.500000 0.500000 0.900740
O O2 0.429119 0.570882 0.750000
O O3 0.369190 0.424713 0.835703
O O4 0.334193 0.574904 0.913903
O O5 0.357292 0.053520 0.256052
O O6 0.521149 0.114481 0.295710
O O7 0.431535 0.166656 0.144433
O O8 0.500000 0.000000 0.159423
O O9 0.825064 0.174937 0.250000
O O10 0.686431 0.120783 0.359940
O O11 0.825240 0.143231 0.459834
O O12 0.800524 0.017490 0.306702
O O13 0.238071 0.135165 0.363971
O O14 0.220802 0.102081 0.160410
O O15 0.745287 0.627923 0.717397
O O16 0.792342 0.565262 0.546005
O O17 0.706954 0.227182 0.560394
#
# Coordination Sequence:
#
# PCOD9557607 Si02
#       8
#     8   8   8   8   8   8   4   8
#     4   9  20  37  59  84 119 168 217 264 305 368
#     4  11  22  41  66  96 129 165 213 272 330 388
#     4  11  23  41  68  96 130 170 205 263 329 392
#     4  10  22  43  69  93 132 166 215 274 316 397
#     4  11  22  41  59  93 129 164 213 257 327 383
#     4   9  23  42  66  97 125 172 218 260 334 398
#     4  10  19  40  56  78 128 163 204 262 308 378
#     4  10  22  40  63  90 127 168 216 267 320 394
#
# _framework density 19.469113
#
# number of rings (size 3 to 8) (size 9 to 14) (size 15 to 20)
#    0.000    2.000    3.333    0.000    5.600    0.533 
#   14.400    2.000    0.000    0.000    0.000    0.000 
#    0.000    0.000    0.000    0.000    0.000    0.000 
#
# Total GULP energy -334193.534690 kJ/mol
# GULP energy per Si atom -5569.892245 kJ/mol
# Density = 1.942480 g / cm^3
# Si number density = 19.469113 Si / 1000 Ang^3
#
#
#
# Elastic Constant Matrix: (Units=GPa)
#
#
# Indices 1 2 3 4 5 6 
#
# 1 68.7466 5.2616 20.5272 0.0000 0.0000 0.0000
# 2 5.2616 68.7447 20.5278 0.0000 0.0000 0.0000
# 3 20.5272 20.5278 103.7151 0.0000 0.0000 0.0000
# 4 0.0000 0.0000 0.0000 31.0915 0.0000 0.0000
# 5 0.0000 0.0000 0.0000 0.0000 31.0884 0.0000
# 6 0.0000 0.0000 0.0000 0.0000 0.0000 26.2273
#
#
#
# Elastic Compliance Matrix: (Units=1/GPa)
#
#
# Indices 1 2 3 4 5 6 
#
# 1 0.015465 -0.000287 -0.003004 0.000000 0.000000 0.000000
# 2 -0.000287 0.015466 -0.003004 0.000000 0.000000 0.000000
# 3 -0.003004 -0.003004 0.010831 0.000000 0.000000 0.000000
# 4 0.000000 0.000000 0.000000 0.032163 0.000000 0.000000
# 5 0.000000 0.000000 0.000000 0.000000 0.032166 0.000000
# 6 0.000000 0.000000 0.000000 0.000000 0.000000 0.038128
#
#
# Mechanical properties :
#
#
# Convention : Reuss Voigt Hill
#
# Bulk Modulus (GPa) = 34.27984 37.09328 35.68656
# Shear Modulus (GPa) = 30.02402 30.67411 30.34906
#
# Velocity S-wave (km/s) = 3.93126 3.97360 3.95249
# Velocity P-wave (km/s) = 6.18482 6.33612 6.26092
#
# Compressibility (1/GPa) = 0.02917167
#
# Stress axis : x y z
#
# Youngs Moduli (GPa) = 64.66171 64.65954 92.32760
#
# Poissons Ratio (x) = 0.01853 0.27736
# Poissons Ratio (y) = 0.01853 0.27738
# Poissons Ratio (z) = 0.19425 0.19426
#
# Static dielectric constant tensor:
#      x y z
#    x 1.624360 0.000000 0.000000 
#    y 0.000000 1.624350 0.000000 
#    z 0.000000 0.000000 1.711970 
# 
# From -- ./inp_files/2788.got.cif
#   From: 2010.05.17/outbox.cif.g08.bks.cpg/sg116_2_cif.got.tgz:2788.got - 2010.05.20 11:11:43.
