data_PCOD9557468
_publ_section_title
;
Structure prediction by ZEFSAII (Michael W. Deem and Ramdas Pophale) SiO2 
 PCOD9557468
Probable space group: P -4 M 2
;
_chemical_formula_sum "Si O2"
_cell_formula_units_Z 40
_cell_length_a 9.800775
_cell_length_b 9.800775
_cell_length_c 26.238881
_cell_angle_alpha 90.000000
_cell_angle_beta 90.000000
_cell_angle_gamma 90.000000
_cell_volume 2520.380716
_symmetry_space_group_name_H-M "P -4 M 2"
_symmetry_group_IT_number 115
_symmetry_cell_setting 'tetragonal'
loop_
_space_group_symop_operation_xyz
x,y,z
y,-x,-z
-x,-y,z
-y,x,-z
y,x,-z
-y,-x,-z
-x,y,z
x,-y,z
loop_
_atom_site_type_symbol
_atom_site_label
_atom_site_fract_x
_atom_site_fract_y
_atom_site_fract_z
Si Si1 0.838589 0.338571 0.461724
Si Si2 0.157271 0.833502 0.056439
Si Si3 0.161527 0.338032 0.342962
Si Si4 0.343611 0.166021 0.149585
Si Si5 0.162056 0.663481 0.734876
O O1 0.749937 0.250064 0.500000
O O2 0.813956 0.500000 0.469371
O O3 0.808301 0.307539 0.402385
O O4 0.000000 0.314417 0.469608
O O5 0.248068 0.786911 0.103702
O O6 0.000000 0.791238 0.062823
O O7 0.158159 0.000000 0.055891
O O8 0.207333 0.792668 0.000000
O O9 0.184627 0.500000 0.335272
O O10 0.252879 0.248891 0.305583
O O11 0.000000 0.312540 0.334797
O O12 0.500000 0.209480 0.141847
O O13 0.300325 0.203462 0.206936
O O14 0.343207 0.000000 0.148858
O O15 0.180502 0.500000 0.729286
O O16 0.000000 0.690859 0.729162
#
# Coordination Sequence:
#
# PCOD9557468 Si02
#       5
#     8   8   8   8   8
#     4   9  19  35  52  71  96 124 154 189 228 270
#     4   8  13  21  35  57  82 107 140 181 219 257
#     4   9  19  35  51  68  94 126 156 187 227 274
#     4   8  14  25  40  59  86 117 145 177 220 266
#     4   9  18  31  47  70  96 120 153 195 232 270
#
# _framework density 15.870618
#
# number of rings (size 3 to 8) (size 9 to 14) (size 15 to 20)
#    0.000    3.400    0.000    3.000    0.000    3.600 
#    0.000    8.000    0.000    1.200    0.000    2.800 
#    0.000    0.000    0.000    0.000    0.000    0.000 
#
# Total GULP energy -222678.459416 kJ/mol
# GULP energy per Si atom -5566.961485 kJ/mol
# Density = 1.583450 g / cm^3
# Si number density = 15.870618 Si / 1000 Ang^3
#
#
#
# Elastic Constant Matrix: (Units=GPa)
#
#
# Indices 1 2 3 4 5 6 
#
# 1 53.7936 47.8485 89.2479 0.0000 0.0000 0.0000
# 2 47.8485 53.7938 89.2480 0.0000 0.0000 0.0000
# 3 89.2479 89.2480 182.4600 0.0000 0.0000 0.0000
# 4 0.0000 0.0000 0.0000 -67.3960 0.0000 0.0000
# 5 0.0000 0.0000 0.0000 0.0000 -67.3793 0.0000
# 6 0.0000 0.0000 0.0000 0.0000 0.0000 24.9592
#
#
#
# Elastic Compliance Matrix: (Units=1/GPa)
#
#
# Indices 1 2 3 4 5 6 
#
# 1 0.118986 -0.049218 -0.034126 0.000000 0.000000 0.000000
# 2 -0.049218 0.118986 -0.034126 0.000000 0.000000 0.000000
# 3 -0.034126 -0.034126 0.038865 0.000000 0.000000 0.000000
# 4 0.000000 0.000000 0.000000 -0.014838 0.000000 0.000000
# 5 0.000000 0.000000 0.000000 0.000000 -0.014841 0.000000
# 6 0.000000 0.000000 0.000000 0.000000 0.000000 0.040065
#
#
# Mechanical properties :
#
#
# Convention : Reuss Voigt Hill
#
# Bulk Modulus (GPa) = 23.86829 82.52625 53.19727
# Shear Modulus (GPa) = 9.32613 -17.71634 -4.19511
#
# Velocity S-wave (km/s) = 2.42675 -3.34473 -1.62759
# Velocity P-wave (km/s) = 4.78791 6.09885 5.48270
#
# Compressibility (1/GPa) = 0.04189660
#
# Stress axis : x y z
#
# Youngs Moduli (GPa) = 8.40436 8.40438 25.73008
#
# Poissons Ratio (x) = 0.41365 0.87806
# Poissons Ratio (y) = 0.41365 0.87806
# Poissons Ratio (z) = 0.28681 0.28681
#
# Static dielectric constant tensor:
#      x y z
#    x 1.516840 0.000000 0.000000 
#    y 0.000000 1.516840 0.000000 
#    z 0.000000 0.000000 1.533060 
# 
# From -- ./inp_files/5122.got.cif
#   From: 2010.05.17/outbox.cif.g08.bks.cpg/sg115_3_cif.got.tgz:5122.got - 2010.05.20 11:07:42.
