data_PCOD9557442
_publ_section_title
;
Structure prediction by ZEFSAII (Michael W. Deem and Ramdas Pophale) SiO2 
 PCOD9557442
Probable space group: P -4 M 2
;
_chemical_formula_sum "Si O2"
_cell_formula_units_Z 21
_cell_length_a 8.040734
_cell_length_b 8.040734
_cell_length_c 15.586015
_cell_angle_alpha 90.000000
_cell_angle_beta 90.000000
_cell_angle_gamma 90.000000
_cell_volume 1007.688913
_symmetry_space_group_name_H-M "P -4 M 2"
_symmetry_group_IT_number 115
_symmetry_cell_setting 'tetragonal'
loop_
_space_group_symop_operation_xyz
x,y,z
y,-x,-z
-x,-y,z
-y,x,-z
y,x,-z
-y,-x,-z
-x,y,z
x,-y,z
loop_
_atom_site_type_symbol
_atom_site_label
_atom_site_fract_x
_atom_site_fract_y
_atom_site_fract_z
Si Si1 0.198160 0.694066 0.094537
Si Si2 0.815512 0.500000 0.375779
Si Si3 0.185695 0.695005 0.726861
Si Si4 0.500000 0.500000 0.500000
O O1 0.242374 0.500000 0.104330
O O2 0.283916 0.794118 0.170932
O O3 0.000000 0.711671 0.104143
O O4 0.248350 0.751651 0.000000
O O5 0.792712 0.664293 0.317520
O O6 0.666282 0.500000 0.443221
O O7 0.000000 0.500000 0.414391
O O8 0.203992 0.500000 0.705294
O O9 0.000000 0.749685 0.701481
#
# Coordination Sequence:
#
# PCOD9557442 Si02
#       4
#     8   4   8   1
#     4  11  23  37  56  89 133 184 238 287 336 391
#     4  12  26  48  78 107 139 180 223 276 344 415
#     4  11  23  42  70 102 139 185 233 281 339 404
#     4  12  28  52  76 108 146 172 216 276 352 416
#
# _framework density 20.839766000000001
#
# number of rings (size 3 to 8) (size 9 to 14) (size 15 to 20)
#    0.000    0.762    3.810    3.429    0.000   11.429 
#    0.000    0.000    0.000    0.000    0.000    0.000 
#    0.000    0.000    0.000    0.000    0.000    0.000 
#
# Total GULP energy -117533.206753 kJ/mol
# GULP energy per Si atom -5596.819369 kJ/mol
# Density = 2.079233 g / cm^3
# Si number density = 20.839766 Si / 1000 Ang^3
#
#
#
# Elastic Constant Matrix: (Units=GPa)
#
#
# Indices 1 2 3 4 5 6 
#
# 1 115.4354 53.2553 29.6173 0.0000 0.0000 0.0000
# 2 53.2553 115.4333 29.6179 0.0000 0.0000 0.0000
# 3 29.6173 29.6179 78.8547 0.0000 0.0000 0.0000
# 4 0.0000 0.0000 0.0000 -17.8722 0.0000 0.0000
# 5 0.0000 0.0000 0.0000 0.0000 -17.8709 0.0000
# 6 0.0000 0.0000 0.0000 0.0000 0.0000 -4.7391
#
#
#
# Elastic Compliance Matrix: (Units=1/GPa)
#
#
# Indices 1 2 3 4 5 6 
#
# 1 0.011456 -0.004627 -0.002565 0.000000 0.000000 0.000000
# 2 -0.004627 0.011456 -0.002565 0.000000 0.000000 0.000000
# 3 -0.002565 -0.002565 0.014608 0.000000 0.000000 0.000000
# 4 0.000000 0.000000 0.000000 -0.055953 0.000000 0.000000
# 5 0.000000 0.000000 0.000000 0.000000 -0.055957 0.000000
# 6 0.000000 0.000000 0.000000 0.000000 0.000000 -0.211010
#
#
# Mechanical properties :
#
#
# Convention : Reuss Voigt Hill
#
# Bulk Modulus (GPa) = 55.53621 59.41161 57.47391
# Shear Modulus (GPa) = -19.23930 5.05242 -7.09344
#
# Velocity S-wave (km/s) = -3.04172 1.55874 -1.84694
# Velocity P-wave (km/s) = 3.79090 5.64006 4.80527
#
# Compressibility (1/GPa) = 0.01800627
#
# Stress axis : x y z
#
# Youngs Moduli (GPa) = 87.29427 87.29221 68.45451
#
# Poissons Ratio (x) = 0.40390 0.17557
# Poissons Ratio (y) = 0.40391 0.17558
# Poissons Ratio (z) = 0.22389 0.22390
#
# Static dielectric constant tensor:
#      x y z
#    x 1.740800 0.000000 0.000000 
#    y 0.000000 1.740800 0.000000 
#    z 0.000000 0.000000 1.717550 
# 
# From -- ./inp_files/3348.got.cif
#   From: 2010.05.17/outbox.cif.g08.bks.cpg/sg115_2_cif.got.tgz:3348.got - 2010.05.20 11:07:42.
