data_PCOD9557553
_publ_section_title
;
Structure prediction by ZEFSAII (Michael W. Deem and Ramdas Pophale) SiO2 
 PCOD9557553
Probable space group: P -4 C 2
;
_chemical_formula_sum "Si O2"
_cell_formula_units_Z 52
_cell_length_a 21.694574
_cell_length_b 21.694574
_cell_length_c 5.251624
_cell_angle_alpha 90.000000
_cell_angle_beta 90.000000
_cell_angle_gamma 90.000000
_cell_volume 2471.700683
_symmetry_space_group_name_H-M "P -4 C 2"
_symmetry_group_IT_number 116
_symmetry_cell_setting 'tetragonal'
loop_
_space_group_symop_operation_xyz
x,y,z
y,-x,-z
-x,-y,z
-y,x,-z
y,x,1/2-z
-y,-x,1/2-z
-x,y,1/2+z
x,-y,1/2+z
loop_
_atom_site_type_symbol
_atom_site_label
_atom_site_fract_x
_atom_site_fract_y
_atom_site_fract_z
Si Si1 0.367255 0.464839 0.228369
Si Si2 0.588605 0.030922 0.004742
Si Si3 0.762835 0.414165 0.782446
Si Si4 0.256328 0.169333 0.624229
Si Si5 0.034708 0.262368 0.052008
Si Si6 0.161576 0.395400 0.763964
Si Si7 0.281676 0.281676 0.250000
O O1 0.398688 0.398688 0.250000
O O2 0.387278 0.506328 0.463413
O O3 0.293538 0.460283 0.250413
O O4 0.663038 0.028870 0.964323
O O5 0.578906 0.096039 0.143364
O O6 0.567051 0.980782 0.215240
O O7 0.794935 0.405907 0.508952
O O8 0.730300 0.349263 0.859241
O O9 0.811175 0.425800 0.009162
O O10 0.193086 0.193086 0.750000
O O11 0.247329 0.106768 0.467941
O O12 0.320356 0.156607 0.781759
O O13 0.272608 0.228488 0.455395
O O14 0.997517 0.239649 0.806732
#
# Coordination Sequence:
#
# PCOD9557553 Si02
#       7
#     8   8   8   8   8   8   4
#     4  12  27  47  71  96 124 161 199 246 296 346
#     4   9  16  28  45  70 110 157 199 232 271 335
#     4  11  21  38  57  86 122 149 192 232 298 351
#     4  10  19  29  48  75 107 142 192 226 276 343
#     4   9  19  30  42  60  98 146 182 222 275 333
#     4  10  20  31  53  82 118 158 193 235 291 346
#     4  10  20  32  54  82 113 146 177 234 276 336
#
# _framework density 21.038148
#
# number of rings (size 3 to 8) (size 9 to 14) (size 15 to 20)
#    0.000    1.846    2.308    2.308    2.154    4.615 
#    0.000    0.000    0.000    0.000    0.000    0.000 
#    0.000   44.923    0.000    0.000    0.000    0.000 
#
# Total GULP energy -290293.957493 kJ/mol
# GULP energy per Si atom -5582.576106 kJ/mol
# Density = 2.099026 g / cm^3
# Si number density = 21.038148 Si / 1000 Ang^3
#
#
#
# Elastic Constant Matrix: (Units=GPa)
#
#
# Indices 1 2 3 4 5 6 
#
# 1 30.8162 18.6250 -2.3393 0.0000 0.0000 0.0000
# 2 18.6250 30.8162 -2.3393 0.0000 0.0000 0.0000
# 3 -2.3393 -2.3393 67.8438 0.0000 0.0000 0.0000
# 4 0.0000 0.0000 0.0000 -32.6076 0.0000 0.0000
# 5 0.0000 0.0000 0.0000 0.0000 -32.6076 0.0000
# 6 0.0000 0.0000 0.0000 0.0000 0.0000 16.2455
#
#
#
# Elastic Compliance Matrix: (Units=1/GPa)
#
#
# Indices 1 2 3 4 5 6 
#
# 1 0.051159 -0.030867 0.000700 0.000000 0.000000 0.000000
# 2 -0.030867 0.051159 0.000700 0.000000 0.000000 0.000000
# 3 0.000700 0.000700 0.014788 0.000000 0.000000 0.000000
# 4 0.000000 0.000000 0.000000 -0.030668 0.000000 0.000000
# 5 0.000000 0.000000 0.000000 0.000000 -0.030668 0.000000
# 6 0.000000 0.000000 0.000000 0.000000 0.000000 0.061556
#
#
# Mechanical properties :
#
#
# Convention : Reuss Voigt Hill
#
# Bulk Modulus (GPa) = 17.19061 17.48544 17.33803
# Shear Modulus (GPa) = 25.55558 -2.09195 11.73182
#
# Velocity S-wave (km/s) = 3.48907 -0.99826 2.36401
# Velocity P-wave (km/s) = 4.94170 2.64588 3.96365
#
# Compressibility (1/GPa) = 0.05817129
#
# Stress axis : x y z
#
# Youngs Moduli (GPa) = 19.54683 19.54683 67.62247
#
# Poissons Ratio (x) = 0.60335 -0.04731
# Poissons Ratio (y) = 0.60335 -0.04731
# Poissons Ratio (z) = -0.01368 -0.01368
#
# Static dielectric constant tensor:
#      x y z
#    x 1.796100 0.000000 0.000000 
#    y 0.000000 1.796100 0.000000 
#    z 0.000000 0.000000 1.810120 
# 
# From -- ./inp_files/198.got.cif
#   From: 2010.05.17/outbox.cif.g08.bks.cpg/sg116_1_cif.got.tgz:198.got - 2010.05.20 11:11:43.
