data_PCOD9557151
_publ_section_title
;
Structure prediction by ZEFSAII (Michael W. Deem and Ramdas Pophale) SiO2 
 PCOD9557151
Probable space group: P -4 M 2
;
_chemical_formula_sum "Si O2"
_cell_formula_units_Z 48
_cell_length_a 9.492959
_cell_length_b 9.492959
_cell_length_c 31.752777
_cell_angle_alpha 90.000000
_cell_angle_beta 90.000000
_cell_angle_gamma 90.000000
_cell_volume 2861.441844
_symmetry_space_group_name_H-M "P -4 M 2"
_symmetry_group_IT_number 115
_symmetry_cell_setting 'tetragonal'
loop_
_space_group_symop_operation_xyz
x,y,z
y,-x,-z
-x,-y,z
-y,x,-z
y,x,-z
-y,-x,-z
-x,y,z
x,-y,z
loop_
_atom_site_type_symbol
_atom_site_label
_atom_site_fract_x
_atom_site_fract_y
_atom_site_fract_z
Si Si1 0.828633 0.662340 0.369939
Si Si2 0.831721 0.834413 0.048826
Si Si3 0.669488 0.166461 0.535913
Si Si4 0.832184 0.166758 0.711945
Si Si5 0.166120 0.331973 0.795925
Si Si6 0.331178 0.665736 0.119879
O O1 0.785070 0.500000 0.364410
O O2 0.786168 0.711105 0.416707
O O3 0.783349 0.754668 0.330334
O O4 0.000000 0.663997 0.370491
O O5 0.747729 0.739327 0.081330
O O6 0.000000 0.817961 0.054455
O O7 0.798671 0.000000 0.055503
O O8 0.800024 0.800024 0.000000
O O9 0.746164 0.253837 0.500000
O O10 0.500000 0.180818 0.533201
O O11 0.701980 0.000000 0.531609
O O12 0.789936 0.250545 0.753781
O O13 0.000000 0.183439 0.706687
O O14 0.803302 0.000000 0.717516
O O15 0.180512 0.500000 0.789576
O O16 0.256562 0.291504 0.836635
O O17 0.000000 0.302428 0.803574
O O18 0.500000 0.682157 0.114795
O O19 0.299515 0.500000 0.121968
#
# Coordination Sequence:
#
# PCOD9557151 Si02
#       6
#     8   8   8   8   8   8
#     4   8  15  29  47  66  91 122 153 188 234 286
#     4   9  19  36  56  77 101 130 165 204 245 290
#     4   9  18  32  49  70  96 126 161 200 241 287
#     4   9  17  29  47  71  94 117 152 197 239 281
#     4   9  18  33  50  67  93 130 164 194 237 290
#     4  10  21  35  51  74 103 133 166 204 244 287
#
# _framework density 16.774761000000002
#
# number of rings (size 3 to 8) (size 9 to 14) (size 15 to 20)
#    0.000    3.000    0.000    2.000    0.000    4.333 
#    0.000    6.667    0.000    3.000    0.000    0.000 
#    0.000    0.000    0.000    0.000    0.000    0.000 
#
# Total GULP energy -267509.290505 kJ/mol
# GULP energy per Si atom -5573.110219 kJ/mol
# Density = 1.673658 g / cm^3
# Si number density = 16.774761 Si / 1000 Ang^3
#
#
#
# Elastic Constant Matrix: (Units=GPa)
#
#
# Indices 1 2 3 4 5 6 
#
# 1 48.1434 43.6567 83.0387 0.0000 0.0000 0.0000
# 2 43.6567 48.1419 83.0380 0.0000 0.0000 0.0000
# 3 83.0387 83.0380 198.3017 0.0000 0.0000 0.0000
# 4 0.0000 0.0000 0.0000 620.2973 0.0000 0.0000
# 5 0.0000 0.0000 0.0000 0.0000 620.6471 0.0000
# 6 0.0000 0.0000 0.0000 0.0000 0.0000 23.0965
#
#
#
# Elastic Compliance Matrix: (Units=1/GPa)
#
#
# Indices 1 2 3 4 5 6 
#
# 1 0.133921 -0.088991 -0.018814 0.000000 0.000000 0.000000
# 2 -0.088991 0.133929 -0.018817 0.000000 0.000000 0.000000
# 3 -0.018814 -0.018817 0.020801 0.000000 0.000000 0.000000
# 4 0.000000 0.000000 0.000000 0.001612 0.000000 0.000000
# 5 0.000000 0.000000 0.000000 0.000000 0.001611 0.000000
# 6 0.000000 0.000000 0.000000 0.000000 0.000000 0.043297
#
#
# Mechanical properties :
#
#
# Convention : Reuss Voigt Hill
#
# Bulk Modulus (GPa) = 28.24480 79.33930 53.79205
# Shear Modulus (GPa) = 8.33031 258.46507 133.39769
#
# Velocity S-wave (km/s) = 2.23086 12.42635 8.92723
# Velocity P-wave (km/s) = 4.84870 15.91493 11.76425
#
# Compressibility (1/GPa) = 0.03540475
#
# Stress axis : x y z
#
# Youngs Moduli (GPa) = 7.46711 7.46664 48.07474
#
# Poissons Ratio (x) = 0.66447 0.90450
# Poissons Ratio (y) = 0.66451 0.90463
# Poissons Ratio (z) = 0.14049 0.14050
#
# Static dielectric constant tensor:
#      x y z
#    x 1.554320 0.000000 0.000000 
#    y 0.000000 1.554320 0.000000 
#    z 0.000000 0.000000 1.552800 
# 
# From -- ./inp_files/5930.got.cif
#   From: 2010.05.17/outbox.cif.g08.bks.cpg/sg115_3_cif.got.tgz:5930.got - 2010.05.20 11:07:42.
