data_PCOD9557557
_publ_section_title
;
Structure prediction by ZEFSAII (Michael W. Deem and Ramdas Pophale) SiO2 
 PCOD9557557
Probable space group: P -4 C 2
;
_chemical_formula_sum "Si O2"
_cell_formula_units_Z 56
_cell_length_a 21.003631
_cell_length_b 21.003631
_cell_length_c 9.269854
_cell_angle_alpha 90.000000
_cell_angle_beta 90.000000
_cell_angle_gamma 90.000000
_cell_volume 4089.419407
_symmetry_space_group_name_H-M "P -4 C 2"
_symmetry_group_IT_number 116
_symmetry_cell_setting 'tetragonal'
loop_
_space_group_symop_operation_xyz
x,y,z
y,-x,-z
-x,-y,z
-y,x,-z
y,x,1/2-z
-y,-x,1/2-z
-x,y,1/2+z
x,-y,1/2+z
loop_
_atom_site_type_symbol
_atom_site_label
_atom_site_fract_x
_atom_site_fract_y
_atom_site_fract_z
Si Si1 0.703700 0.121904 0.431438
Si Si2 0.121082 0.697878 0.403789
Si Si3 0.148501 0.934221 0.828340
Si Si4 0.782537 0.993852 0.054574
Si Si5 0.200318 0.787026 0.590745
Si Si6 0.930438 0.434354 0.049784
Si Si7 0.068167 0.561416 0.398340
O O1 0.705449 0.137363 0.263265
O O2 0.741543 0.056771 0.465084
O O3 0.744421 0.174816 0.512137
O O4 0.630232 0.109433 0.473730
O O5 0.175241 0.726798 0.504071
O O6 0.108108 0.624162 0.432076
O O7 0.055639 0.738017 0.424467
O O8 0.081916 0.918085 0.750000
O O9 0.195472 0.961454 0.703886
O O10 0.171268 0.865014 0.888803
O O11 0.156803 0.982731 0.960625
O O12 0.225354 0.774647 0.750000
O O13 0.937892 0.443841 0.223525
O O14 0.904386 0.497701 0.971853
O O15 0.999307 0.427326 0.972897
#
# Coordination Sequence:
#
# PCOD9557557 Si02
#       7
#     8   8   8   8   8   8   8
#     4  11  19  32  46  68  89 113 142 181 229 263
#     4  10  21  31  48  66  89 115 146 180 226 266
#     4  10  20  33  47  67  80 101 138 177 226 282
#     4  11  18  31  47  65  83 106 133 177 224 270
#     4  10  20  31  48  69  88 104 144 187 221 270
#     4  10  20  29  45  63  93 120 147 180 215 270
#     4  10  19  31  42  66  90 122 149 176 217 265
#
# _framework density 13.693875
#
# number of rings (size 3 to 8) (size 9 to 14) (size 15 to 20)
#    0.000    1.714    5.714    2.143    0.000    2.286 
#    0.000    0.714    0.000    1.286    0.000    0.000 
#    0.000    0.000    0.000    0.000    0.000    0.714 
#
# Total GULP energy -311865.176682 kJ/mol
# GULP energy per Si atom -5569.021012 kJ/mol
# Density = 1.366271 g / cm^3
# Si number density = 13.693875 Si / 1000 Ang^3
#
#
#
# Elastic Constant Matrix: (Units=GPa)
#
#
# Indices 1 2 3 4 5 6 
#
# 1 71.2926 49.0804 49.2214 0.0000 0.0000 0.0000
# 2 49.0804 71.2920 49.2211 0.0000 0.0000 0.0000
# 3 49.2214 49.2211 84.5303 0.0000 0.0000 0.0000
# 4 0.0000 0.0000 0.0000 22.2683 0.0000 0.0000
# 5 0.0000 0.0000 0.0000 0.0000 22.2685 0.0000
# 6 0.0000 0.0000 0.0000 0.0000 0.0000 11.6313
#
#
#
# Elastic Compliance Matrix: (Units=1/GPa)
#
#
# Indices 1 2 3 4 5 6 
#
# 1 0.030441 -0.014580 -0.009235 0.000000 0.000000 0.000000
# 2 -0.014580 0.030441 -0.009235 0.000000 0.000000 0.000000
# 3 -0.009235 -0.009235 0.022585 0.000000 0.000000 0.000000
# 4 0.000000 0.000000 0.000000 0.044907 0.000000 0.000000
# 5 0.000000 0.000000 0.000000 0.000000 0.044907 0.000000
# 6 0.000000 0.000000 0.000000 0.000000 0.000000 0.085975
#
#
# Mechanical properties :
#
#
# Convention : Reuss Voigt Hill
#
# Bulk Modulus (GPa) = 57.58809 58.01788 57.80298
# Shear Modulus (GPa) = 15.09911 16.53973 15.81942
#
# Velocity S-wave (km/s) = 3.32417 3.47914 3.40254
# Velocity P-wave (km/s) = 7.54180 7.65500 7.59861
#
# Compressibility (1/GPa) = 0.01736470
#
# Stress axis : x y z
#
# Youngs Moduli (GPa) = 32.85092 32.85071 44.27637
#
# Poissons Ratio (x) = 0.47897 0.40891
# Poissons Ratio (y) = 0.47898 0.40891
# Poissons Ratio (z) = 0.30339 0.30339
#
# Static dielectric constant tensor:
#      x y z
#    x 1.451760 0.000000 0.000000 
#    y 0.000000 1.451760 0.000000 
#    z 0.000000 0.000000 1.482910 
# 
# From -- ./inp_files/1114.got.cif
#   From: 2010.05.17/outbox.cif.g08.bks.cpg/sg116_1_cif.got.tgz:1114.got - 2010.05.20 11:11:43.
