data_PCOD9557562
_publ_section_title
;
Structure prediction by ZEFSAII (Michael W. Deem and Ramdas Pophale) SiO2 
 PCOD9557562
Probable space group: P -4 C 2
;
_chemical_formula_sum "Si O2"
_cell_formula_units_Z 48
_cell_length_a 21.169972
_cell_length_b 21.169972
_cell_length_c 5.347005
_cell_angle_alpha 90.000000
_cell_angle_beta 90.000000
_cell_angle_gamma 90.000000
_cell_volume 2396.355010
_symmetry_space_group_name_H-M "P -4 C 2"
_symmetry_group_IT_number 116
_symmetry_cell_setting 'tetragonal'
loop_
_space_group_symop_operation_xyz
x,y,z
y,-x,-z
-x,-y,z
-y,x,-z
y,x,1/2-z
-y,-x,1/2-z
-x,y,1/2+z
x,-y,1/2+z
loop_
_atom_site_type_symbol
_atom_site_label
_atom_site_fract_x
_atom_site_fract_y
_atom_site_fract_z
Si Si1 0.336892 0.884103 0.494635
Si Si2 0.850102 0.767245 0.906669
Si Si3 0.237055 0.469880 0.975714
Si Si4 0.478300 0.093712 0.967494
Si Si5 0.039379 0.756277 0.732685
Si Si6 0.238007 0.669612 0.662140
O O1 0.283596 0.883330 0.279019
O O2 0.405327 0.900813 0.393648
O O3 0.314675 0.934424 0.706306
O O4 0.340791 0.814615 0.620529
O O5 0.826230 0.826230 0.750000
O O6 0.894403 0.785873 0.139085
O O7 0.790340 0.728431 0.008085
O O8 0.265061 0.496195 0.719812
O O9 0.163424 0.491683 0.981436
O O10 0.240338 0.394895 0.007728
O O11 0.482455 0.064525 0.242547
O O12 0.995163 0.770921 0.493649
O O13 0.305966 0.694035 0.750000
#
# Coordination Sequence:
#
# PCOD9557562 Si02
#       6
#     8   8   8   8   8   8
#     4  11  21  36  59  81 115 152 193 244 299 368
#     4  11  22  36  61  91 125 151 193 242 312 372
#     4  10  19  33  50  71 110 153 194 229 292 369
#     4  10  19  31  52  76 101 146 196 235 292 349
#     4  11  24  42  59  82 115 162 199 236 287 353
#     4  11  21  31  52  89 123 150 186 249 318 375
#
# _framework density 20.030422000000002
#
# number of rings (size 3 to 8) (size 9 to 14) (size 15 to 20)
#    0.000    1.333    6.667    2.000    2.333    0.000 
#    0.000    0.000    0.000    3.000    0.000    0.000 
#    0.000    4.000    0.000    0.000    0.000    0.000 
#
# Total GULP energy -267599.113752 kJ/mol
# GULP energy per Si atom -5574.981537 kJ/mol
# Density = 1.998483 g / cm^3
# Si number density = 20.030422 Si / 1000 Ang^3
#
#
#
# Elastic Constant Matrix: (Units=GPa)
#
#
# Indices 1 2 3 4 5 6 
#
# 1 17.4263 3.5034 1.5033 0.0000 0.0000 0.0000
# 2 3.5034 17.4297 1.5053 0.0000 0.0000 0.0000
# 3 1.5033 1.5053 118.3507 0.0000 0.0000 0.0000
# 4 0.0000 0.0000 0.0000 33.6012 0.0000 0.0000
# 5 0.0000 0.0000 0.0000 0.0000 33.6010 0.0000
# 6 0.0000 0.0000 0.0000 0.0000 0.0000 8.1592
#
#
#
# Elastic Compliance Matrix: (Units=1/GPa)
#
#
# Indices 1 2 3 4 5 6 
#
# 1 0.059845 -0.011976 -0.000608 0.000000 0.000000 0.000000
# 2 -0.011976 0.059833 -0.000609 0.000000 0.000000 0.000000
# 3 -0.000608 -0.000609 0.008465 0.000000 0.000000 0.000000
# 4 0.000000 0.000000 0.000000 0.029761 0.000000 0.000000
# 5 0.000000 0.000000 0.000000 0.000000 0.029761 0.000000
# 6 0.000000 0.000000 0.000000 0.000000 0.000000 0.122562
#
#
# Mechanical properties :
#
#
# Convention : Reuss Voigt Hill
#
# Bulk Modulus (GPa) = 9.82737 18.47007 14.14872
# Shear Modulus (GPa) = 13.49415 24.85193 19.17304
#
# Velocity S-wave (km/s) = 2.59836 3.52619 3.09721
# Velocity P-wave (km/s) = 3.73079 5.08131 4.45750
#
# Compressibility (1/GPa) = 0.10175663
#
# Stress axis : x y z
#
# Youngs Moduli (GPa) = 16.70996 16.71315 118.13446
#
# Poissons Ratio (x) = 0.20016 0.07180
# Poissons Ratio (y) = 0.20012 0.07193
# Poissons Ratio (z) = 0.01016 0.01018
#
# Static dielectric constant tensor:
#      x y z
#    x 1.714820 0.000000 0.000000 
#    y 0.000000 1.714820 0.000000 
#    z 0.000000 0.000000 1.853060 
# 
# From -- ./inp_files/179.got.cif
#   From: 2010.05.17/outbox.cif.g08.bks.cpg/sg116_1_cif.got.tgz:179.got - 2010.05.20 11:11:43.
