data_PCOD9557449
_publ_section_title
;
Structure prediction by ZEFSAII (Michael W. Deem and Ramdas Pophale) SiO2 
 PCOD9557449
Probable space group: P -4 M 2
;
_chemical_formula_sum "Si O2"
_cell_formula_units_Z 48
_cell_length_a 9.414428
_cell_length_b 9.414428
_cell_length_c 31.808363
_cell_angle_alpha 90.000000
_cell_angle_beta 90.000000
_cell_angle_gamma 90.000000
_cell_volume 2819.221480
_symmetry_space_group_name_H-M "P -4 M 2"
_symmetry_group_IT_number 115
_symmetry_cell_setting 'tetragonal'
loop_
_space_group_symop_operation_xyz
x,y,z
y,-x,-z
-x,-y,z
-y,x,-z
y,x,-z
-y,-x,-z
-x,y,z
x,-y,z
loop_
_atom_site_type_symbol
_atom_site_label
_atom_site_fract_x
_atom_site_fract_y
_atom_site_fract_z
Si Si1 0.829343 0.831049 0.194620
Si Si2 0.832474 0.832733 0.950394
Si Si3 0.668552 0.668879 0.120797
Si Si4 0.168724 0.330843 0.628699
Si Si5 0.827255 0.836489 0.710735
Si Si6 0.664367 0.326782 0.546210
O O1 0.746017 0.743182 0.159995
O O2 0.789512 0.786408 0.242276
O O3 0.000000 0.812828 0.190350
O O4 0.801213 0.000000 0.189784
O O5 0.737166 0.736129 0.920924
O O6 0.000000 0.807541 0.941971
O O7 0.805572 0.000000 0.941922
O O8 0.808288 0.808288 0.000000
O O9 0.500000 0.695299 0.122281
O O10 0.692385 0.500000 0.121492
O O11 0.190302 0.500000 0.632435
O O12 0.220489 0.256201 0.671314
O O13 0.246221 0.280474 0.586423
O O14 0.000000 0.305644 0.624650
O O15 0.000000 0.834156 0.710849
O O16 0.783512 0.000000 0.705164
O O17 0.718153 0.281848 0.500000
O O18 0.500000 0.284182 0.550998
O O19 0.667070 0.500000 0.545149
#
# Coordination Sequence:
#
# PCOD9557449 Si02
#       6
#     8   8   8   8   8   8
#     4   9  18  34  56  77  95 123 167 210 244 286
#     4   9  19  37  60  83 104 129 167 211 248 287
#     4  11  24  37  49  73 109 141 167 200 245 293
#     4   9  16  26  43  67  90 112 144 186 227 268
#     4   8  15  29  48  69  93 120 149 185 232 283
#     4   8  14  26  43  60  81 114 152 184 219 268
#
# _framework density 17.025976
#
# number of rings (size 3 to 8) (size 9 to 14) (size 15 to 20)
#    0.000    3.000    0.000    3.000    0.000    5.333 
#    0.000    5.833    0.000    4.500    0.000    0.000 
#    0.000    0.000    0.000    0.000    0.000    0.000 
#
# Total GULP energy -267472.320183 kJ/mol
# GULP energy per Si atom -5572.340004 kJ/mol
# Density = 1.698722 g / cm^3
# Si number density = 17.025976 Si / 1000 Ang^3
#
#
#
# Elastic Constant Matrix: (Units=GPa)
#
#
# Indices 1 2 3 4 5 6 
#
# 1 54.5663 53.3616 78.0311 0.0000 0.0000 0.0000
# 2 53.3616 54.5664 78.0311 0.0000 0.0000 0.0000
# 3 78.0311 78.0311 156.5451 0.0000 0.0000 0.0000
# 4 0.0000 0.0000 0.0000 57.5401 0.0000 0.0000
# 5 0.0000 0.0000 0.0000 0.0000 57.5410 0.0000
# 6 0.0000 0.0000 0.0000 0.0000 0.0000 21.2564
#
#
#
# Elastic Compliance Matrix: (Units=1/GPa)
#
#
# Indices 1 2 3 4 5 6 
#
# 1 0.431626 -0.398443 -0.016540 0.000000 0.000000 0.000000
# 2 -0.398443 0.431623 -0.016539 0.000000 0.000000 0.000000
# 3 -0.016540 -0.016539 0.022876 0.000000 0.000000 0.000000
# 4 0.000000 0.000000 0.000000 0.017379 0.000000 0.000000
# 5 0.000000 0.000000 0.000000 0.000000 0.017379 0.000000
# 6 0.000000 0.000000 0.000000 0.000000 0.000000 0.047045
#
#
# Mechanical properties :
#
#
# Convention : Reuss Voigt Hill
#
# Bulk Modulus (GPa) = 43.32551 76.05838 59.69195
# Shear Modulus (GPa) = 2.71936 31.01775 16.86856
#
# Velocity S-wave (km/s) = 1.26517 4.27287 3.15104
# Velocity P-wave (km/s) = 5.25701 8.31338 6.95516
#
# Compressibility (1/GPa) = 0.02308109
#
# Stress axis : x y z
#
# Youngs Moduli (GPa) = 2.31682 2.31684 43.71315
#
# Poissons Ratio (x) = 0.92313 0.72303
# Poissons Ratio (y) = 0.92312 0.72296
# Poissons Ratio (z) = 0.03832 0.03832
#
# Static dielectric constant tensor:
#      x y z
#    x 1.562880 0.000000 0.000000 
#    y 0.000000 1.562880 0.000000 
#    z 0.000000 0.000000 1.585730 
# 
# From -- ./inp_files/6104.got.cif
#   From: 2010.05.17/outbox.cif.g08.bks.cpg/sg115_4_cif.got.tgz:6104.got - 2010.05.20 11:07:42.
