data_PCOD9557219
_publ_section_title
;
Structure prediction by ZEFSAII (Michael W. Deem and Ramdas Pophale) SiO2 
 PCOD9557219
Probable space group: P -4 M 2
;
_chemical_formula_sum "Si O2"
_cell_formula_units_Z 48
_cell_length_a 9.290048
_cell_length_b 9.290048
_cell_length_c 32.298027
_cell_angle_alpha 90.000000
_cell_angle_beta 90.000000
_cell_angle_gamma 90.000000
_cell_volume 2787.480957
_symmetry_space_group_name_H-M "P -4 M 2"
_symmetry_group_IT_number 115
_symmetry_cell_setting 'tetragonal'
loop_
_space_group_symop_operation_xyz
x,y,z
y,-x,-z
-x,-y,z
-y,x,-z
y,x,-z
-y,-x,-z
-x,y,z
x,-y,z
loop_
_atom_site_type_symbol
_atom_site_label
_atom_site_fract_x
_atom_site_fract_y
_atom_site_fract_z
Si Si1 0.172814 0.172814 0.500000
Si Si2 0.168305 0.175453 0.589861
Si Si3 0.670615 0.670615 0.000000
Si Si4 0.328412 0.170771 0.672435
Si Si5 0.327927 0.330354 0.243847
Si Si6 0.671765 0.170592 0.159582
Si Si7 0.170564 0.328446 0.084746
O O1 0.226357 0.225277 0.544822
O O2 0.000000 0.194680 0.501246
O O3 0.252863 0.223269 0.630469
O O4 0.000000 0.213931 0.593408
O O5 0.175064 0.000000 0.589036
O O6 0.711917 0.758590 0.959185
O O7 0.692732 0.500000 0.992413
O O8 0.500000 0.190317 0.668348
O O9 0.281398 0.250860 0.714129
O O10 0.300288 0.000000 0.676760
O O11 0.500000 0.317041 0.248864
O O12 0.294829 0.500000 0.237567
O O13 0.284974 0.242093 0.203216
O O14 0.500000 0.195643 0.154418
O O15 0.755251 0.243703 0.121955
O O16 0.696341 0.000000 0.160475
O O17 0.195235 0.500000 0.090415
O O18 0.000000 0.303259 0.083996
#
# Coordination Sequence:
#
# PCOD9557219 Si02
#       7
#     4   8   4   8   8   8   8
#     4   7  10  18  34  56  80 107 142 180 214 257
#     4   8  13  22  38  60  84 111 144 180 219 266
#     4   9  18  34  56  79 104 138 178 213 242 279
#     4   9  17  28  43  65  90 114 144 186 232 273
#     4   9  18  33  51  68  89 122 160 193 230 282
#     4  10  21  36  54  76 101 130 165 205 248 293
#     4  10  21  36  55  80 108 137 169 205 245 289
#
# _framework density 17.219850000000001
#
# number of rings (size 3 to 8) (size 9 to 14) (size 15 to 20)
#    0.000    3.000    0.000    2.000    0.000    4.000 
#    0.000    3.333    0.000    1.000    0.000    2.333 
#    0.000    0.000    0.000    0.000    0.000    0.000 
#
# Total GULP energy -267427.367394 kJ/mol
# GULP energy per Si atom -5571.403487 kJ/mol
# Density = 1.718066 g / cm^3
# Si number density = 17.219850 Si / 1000 Ang^3
#
#
#
# Elastic Constant Matrix: (Units=GPa)
#
#
# Indices 1 2 3 4 5 6 
#
# 1 36.7186 39.4138 77.2307 0.0000 0.0000 0.0000
# 2 39.4138 36.7186 77.2307 0.0000 0.0000 0.0000
# 3 77.2307 77.2307 231.5782 0.0000 0.0000 0.0000
# 4 0.0000 0.0000 0.0000 30.5871 0.0000 0.0000
# 5 0.0000 0.0000 0.0000 0.0000 30.5871 0.0000
# 6 0.0000 0.0000 0.0000 0.0000 0.0000 15.7951
#
#
#
# Elastic Compliance Matrix: (Units=1/GPa)
#
#
# Indices 1 2 3 4 5 6 
#
# 1 -0.165202 0.205820 -0.013546 0.000000 0.000000 0.000000
# 2 0.205820 -0.165202 -0.013546 0.000000 0.000000 0.000000
# 3 -0.013546 -0.013546 0.013353 0.000000 0.000000 0.000000
# 4 0.000000 0.000000 0.000000 0.032694 0.000000 0.000000
# 5 0.000000 0.000000 0.000000 0.000000 0.032694 0.000000
# 6 0.000000 0.000000 0.000000 0.000000 0.000000 0.063311
#
#
# Mechanical properties :
#
#
# Convention : Reuss Voigt Hill
#
# Bulk Modulus (GPa) = 24.74950 76.97398 50.86174
# Shear Modulus (GPa) = -9.39247 22.80321 6.70537
#
# Velocity S-wave (km/s) = -2.33801 3.64296 1.97546
# Velocity P-wave (km/s) = 2.66749 7.90523 5.89950
#
# Compressibility (1/GPa) = 0.04040486
#
# Stress axis : x y z
#
# Youngs Moduli (GPa) = -6.05319 -6.05319 74.88854
#
# Poissons Ratio (x) = 1.24587 1.01443
# Poissons Ratio (y) = 1.24587 1.01443
# Poissons Ratio (z) = -0.08200 -0.08200
#
# Static dielectric constant tensor:
#      x y z
#    x 1.575220 0.000000 0.000000 
#    y 0.000000 1.575220 0.000000 
#    z 0.000000 0.000000 1.586920 
# 
# From -- ./inp_files/6277.got.cif
#   From: 2010.05.17/outbox.cif.g08.bks.cpg/sg115_4_cif.got.tgz:6277.got - 2010.05.20 11:07:42.
