data_PCOD9557824
_publ_section_title
;
Structure prediction by ZEFSAII (Michael W. Deem and Ramdas Pophale) SiO2 
 PCOD9557824
Probable space group: P -4 C 2
;
_chemical_formula_sum "Si O2"
_cell_formula_units_Z 42
_cell_length_a 10.294102
_cell_length_b 10.294102
_cell_length_c 20.760339
_cell_angle_alpha 90.000000
_cell_angle_beta 90.000000
_cell_angle_gamma 90.000000
_cell_volume 2199.942730
_symmetry_space_group_name_H-M "P -4 C 2"
_symmetry_group_IT_number 116
_symmetry_cell_setting 'tetragonal'
loop_
_space_group_symop_operation_xyz
x,y,z
y,-x,-z
-x,-y,z
-y,x,-z
y,x,1/2-z
-y,-x,1/2-z
-x,y,1/2+z
x,-y,1/2+z
loop_
_atom_site_type_symbol
_atom_site_label
_atom_site_fract_x
_atom_site_fract_y
_atom_site_fract_z
Si Si1 0.163472 0.163472 0.250000
Si Si2 0.000000 0.000000 0.350587
Si Si3 0.357458 0.023820 0.031160
Si Si4 0.819161 0.802775 0.572854
Si Si5 0.424616 0.130736 0.171471
Si Si6 0.334601 0.675515 0.182109
Si Si7 0.500000 0.500000 0.750000
O O1 0.308413 0.151107 0.221649
O O2 0.108342 0.073511 0.307772
O O3 0.916392 0.098439 0.393191
O O4 0.301292 0.881530 0.044435
O O5 0.500000 0.000000 0.003659
O O6 0.371813 0.099929 0.099369
O O7 0.266650 0.099700 0.982204
O O8 0.763786 0.701502 0.625130
O O9 0.531730 0.245196 0.169843
O O10 0.500000 0.000000 0.190857
O O11 0.274592 0.725409 0.250000
O O12 0.379593 0.529140 0.201618
#
# Coordination Sequence:
#
# PCOD9557824 Si02
#       7
#     4   4   8   8   8   8   2
#     4  11  23  36  66 100 124 168 217 263 342 398
#     4  11  24  39  60 104 131 163 216 270 347 392
#     4  11  24  45  65  95 128 185 223 264 334 385
#     4  12  23  44  66  92 140 171 221 284 320 400
#     4  11  21  43  65  90 132 169 214 270 326 390
#     4  10  22  43  67  92 130 170 216 271 329 385
#     4   8  22  40  62  96 116 170 216 252 340 372
#
# _framework density 19.091407
#
# number of rings (size 3 to 8) (size 9 to 14) (size 15 to 20)
#    0.571    0.571    5.714    1.714    5.333    0.000 
#    6.857    0.000    0.000    0.000    0.000    0.000 
#    0.000    0.000    0.000    0.000    0.000    0.000 
#
# Total GULP energy -233996.003977 kJ/mol
# GULP energy per Si atom -5571.333428 kJ/mol
# Density = 1.904795 g / cm^3
# Si number density = 19.091407 Si / 1000 Ang^3
#
#
#
# Elastic Constant Matrix: (Units=GPa)
#
#
# Indices 1 2 3 4 5 6 
#
# 1 55.9988 11.6929 29.6587 0.0000 0.0000 0.0000
# 2 11.6929 55.9987 29.6587 0.0000 0.0000 0.0000
# 3 29.6587 29.6587 86.0592 0.0000 0.0000 0.0000
# 4 0.0000 0.0000 0.0000 30.1729 0.0000 0.0000
# 5 0.0000 0.0000 0.0000 0.0000 30.1725 0.0000
# 6 0.0000 0.0000 0.0000 0.0000 0.0000 47.6590
#
#
#
# Elastic Compliance Matrix: (Units=1/GPa)
#
#
# Indices 1 2 3 4 5 6 
#
# 1 0.021867 -0.000703 -0.007294 0.000000 0.000000 0.000000
# 2 -0.000703 0.021867 -0.007294 0.000000 0.000000 0.000000
# 3 -0.007294 -0.007294 0.016647 0.000000 0.000000 0.000000
# 4 0.000000 0.000000 0.000000 0.033142 0.000000 0.000000
# 5 0.000000 0.000000 0.000000 0.000000 0.033143 0.000000
# 6 0.000000 0.000000 0.000000 0.000000 0.000000 0.020982
#
#
# Mechanical properties :
#
#
# Convention : Reuss Voigt Hill
#
# Bulk Modulus (GPa) = 33.55645 37.78636 35.67140
# Shear Modulus (GPa) = 26.57245 30.07065 28.32155
#
# Velocity S-wave (km/s) = 3.73480 3.97304 3.85576
# Velocity P-wave (km/s) = 6.01774 6.39391 6.20868
#
# Compressibility (1/GPa) = 0.02980053
#
# Stress axis : x y z
#
# Youngs Moduli (GPa) = 45.73016 45.73010 60.06967
#
# Poissons Ratio (x) = 0.03215 0.43814
# Poissons Ratio (y) = 0.03215 0.43814
# Poissons Ratio (z) = 0.33355 0.33355
#
# Static dielectric constant tensor:
#      x y z
#    x 1.698580 0.000000 0.000000 
#    y 0.000000 1.698580 0.000000 
#    z 0.000000 0.000000 1.693000 
# 
# From -- ./inp_files/3338.got.cif
#   From: 2010.05.17/outbox.cif.g08.bks.cpg/sg116_2_cif.got.tgz:3338.got - 2010.05.20 11:11:43.
