data_PCOD9557220
_publ_section_title
;
Structure prediction by ZEFSAII (Michael W. Deem and Ramdas Pophale) SiO2 
 PCOD9557220
Probable space group: P -4 M 2
;
_chemical_formula_sum "Si O2"
_cell_formula_units_Z 44
_cell_length_a 9.301637
_cell_length_b 9.301637
_cell_length_c 29.324748
_cell_angle_alpha 90.000000
_cell_angle_beta 90.000000
_cell_angle_gamma 90.000000
_cell_volume 2537.190419
_symmetry_space_group_name_H-M "P -4 M 2"
_symmetry_group_IT_number 115
_symmetry_cell_setting 'tetragonal'
loop_
_space_group_symop_operation_xyz
x,y,z
y,-x,-z
-x,-y,z
-y,x,-z
y,x,-z
-y,-x,-z
-x,y,z
x,-y,z
loop_
_atom_site_type_symbol
_atom_site_label
_atom_site_fract_x
_atom_site_fract_y
_atom_site_fract_z
Si Si1 0.829629 0.671573 0.958857
Si Si2 0.171918 0.330079 0.226743
Si Si3 0.334509 0.175306 0.591766
Si Si4 0.171220 0.171220 0.500000
Si Si5 0.175410 0.165557 0.317950
Si Si6 0.671633 0.330588 0.133877
O O1 0.804842 0.500000 0.964609
O O2 0.759080 0.714107 0.910605
O O3 0.000000 0.696535 0.958241
O O4 0.755221 0.755221 0.000000
O O5 0.200043 0.500000 0.233929
O O6 0.219867 0.242543 0.271173
O O7 0.248994 0.285443 0.180099
O O8 0.000000 0.312585 0.221735
O O9 0.500000 0.221261 0.592402
O O10 0.254661 0.218105 0.545330
O O11 0.251010 0.223103 0.637088
O O12 0.332878 0.000000 0.592306
O O13 0.000000 0.193142 0.506571
O O14 0.000000 0.167836 0.318279
O O15 0.220681 0.000000 0.319477
O O16 0.500000 0.315794 0.139998
O O17 0.702721 0.500000 0.126171
#
# Coordination Sequence:
#
# PCOD9557220 Si02
#       6
#     8   8   8   4   8   8
#     4  10  21  36  54  76 101 130 165 205 249 297
#     4   9  17  29  46  69  96 125 158 196 236 279
#     4   9  16  26  42  64  90 120 152 187 228 274
#     4   9  16  26  42  65  90 114 144 185 230 272
#     4   9  16  26  42  66  95 124 154 190 233 279
#     4   9  18  33  52  72  96 129 166 201 239 287
#
# _framework density 17.342016999999998
#
# number of rings (size 3 to 8) (size 9 to 14) (size 15 to 20)
#    0.000    2.818    0.000    1.636    0.000    6.909 
#    0.000    1.818    0.000    1.364    0.000    0.000 
#    0.000    0.000    0.000    0.000    0.000    0.000 
#
# Total GULP energy -245331.616911 kJ/mol
# GULP energy per Si atom -5575.718566 kJ/mol
# Density = 1.730255 g / cm^3
# Si number density = 17.342017 Si / 1000 Ang^3
#
#
#
# Elastic Constant Matrix: (Units=GPa)
#
#
# Indices 1 2 3 4 5 6 
#
# 1 55.7484 43.6955 85.5336 0.0000 0.0000 0.0000
# 2 43.6955 55.7484 85.5336 0.0000 0.0000 0.0000
# 3 85.5336 85.5336 227.0523 0.0000 0.0000 0.0000
# 4 0.0000 0.0000 0.0000 53.1452 0.0000 0.0000
# 5 0.0000 0.0000 0.0000 0.0000 53.1452 0.0000
# 6 0.0000 0.0000 0.0000 0.0000 0.0000 12.6331
#
#
#
# Elastic Compliance Matrix: (Units=1/GPa)
#
#
# Indices 1 2 3 4 5 6 
#
# 1 0.055769 -0.027198 -0.010763 0.000000 0.000000 0.000000
# 2 -0.027198 0.055769 -0.010763 0.000000 0.000000 0.000000
# 3 -0.010763 -0.010763 0.012513 0.000000 0.000000 0.000000
# 4 0.000000 0.000000 0.000000 0.018816 0.000000 0.000000
# 5 0.000000 0.000000 0.000000 0.000000 0.018816 0.000000
# 6 0.000000 0.000000 0.000000 0.000000 0.000000 0.079157
#
#
# Mechanical properties :
#
#
# Convention : Reuss Voigt Hill
#
# Bulk Modulus (GPa) = 37.58960 85.34160 61.46560
# Shear Modulus (GPa) = 14.40268 32.03715 23.21992
#
# Velocity S-wave (km/s) = 2.88498 4.30277 3.66312
# Velocity P-wave (km/s) = 5.72887 8.60249 7.30831
#
# Compressibility (1/GPa) = 0.02660310
#
# Stress axis : x y z
#
# Youngs Moduli (GPa) = 17.93106 17.93106 79.91419
#
# Poissons Ratio (x) = 0.48769 0.86012
# Poissons Ratio (y) = 0.48769 0.86012
# Poissons Ratio (z) = 0.19299 0.19299
#
# Static dielectric constant tensor:
#      x y z
#    x 1.579120 0.000000 0.000000 
#    y 0.000000 1.579120 0.000000 
#    z 0.000000 0.000000 1.565920 
# 
# From -- ./inp_files/5766.got.cif
#   From: 2010.05.17/outbox.cif.g08.bks.cpg/sg115_3_cif.got.tgz:5766.got - 2010.05.20 11:07:42.
