data_PCOD9557950
_publ_section_title
;
Structure prediction by ZEFSAII (Michael W. Deem and Ramdas Pophale) SiO2 
 PCOD9557950
Probable space group: P -4 C 2
;
_chemical_formula_sum "Si O2"
_cell_formula_units_Z 60
_cell_length_a 11.647882
_cell_length_b 11.647882
_cell_length_c 25.279415
_cell_angle_alpha 90.000000
_cell_angle_beta 90.000000
_cell_angle_gamma 90.000000
_cell_volume 3429.737992
_symmetry_space_group_name_H-M "P -4 C 2"
_symmetry_group_IT_number 116
_symmetry_cell_setting 'tetragonal'
loop_
_space_group_symop_operation_xyz
x,y,z
y,-x,-z
-x,-y,z
-y,x,-z
y,x,1/2-z
-y,-x,1/2-z
-x,y,1/2+z
x,-y,1/2+z
loop_
_atom_site_type_symbol
_atom_site_label
_atom_site_fract_x
_atom_site_fract_y
_atom_site_fract_z
Si Si1 0.500000 0.500000 0.668747
Si Si2 0.134431 0.134430 0.000000
Si Si3 0.745485 0.500002 0.273787
Si Si4 0.248198 0.500000 0.645316
Si Si5 0.739518 0.135758 0.201830
Si Si6 0.135754 0.739522 0.798169
Si Si7 0.136823 0.262017 0.108793
Si Si8 0.262019 0.863178 0.391207
O O1 0.500002 0.383980 0.703898
O O2 0.384123 0.499999 0.634616
O O3 0.217741 0.156666 0.950705
O O4 0.156666 0.217740 0.049296
O O5 0.000000 0.147955 0.984140
O O6 0.755432 0.500000 0.209850
O O7 0.806289 0.385343 0.294353
O O8 0.806290 0.614663 0.294351
O O9 0.188197 0.613378 0.622588
O O10 0.188194 0.386625 0.622587
O O11 0.813249 0.186752 0.250000
O O12 0.802424 0.173813 0.148510
O O13 0.729324 0.000002 0.206269
O O14 0.186745 0.813255 0.750000
O O15 0.173809 0.802426 0.851490
O O16 0.000000 0.263400 0.117985
#
# Coordination Sequence:
#
# PCOD9557950 Si02
#       8
#     4   8   8   8   8   8   8   8
#     4  12  21  40  66  85 122 177 218 254 297 372
#     4   9  20  42  68  89 118 166 216 257 310 378
#     4  12  22  40  60  91 128 169 213 254 308 371
#     4  12  22  38  63  91 122 163 214 259 312 368
#     4  12  24  37  58  91 129 164 205 258 315 376
#     4  12  24  37  58  91 129 164 205 258 315 376
#     4  11  23  40  63  92 126 165 210 259 314 376
#     4  11  23  40  63  92 126 165 210 259 314 376
#
# _framework density 17.494047999999999
#
# number of rings (size 3 to 8) (size 9 to 14) (size 15 to 20)
#    0.000    0.667    5.333    3.600    0.000    4.000 
#    0.000    2.667    0.000    3.200    0.000    0.000 
#    0.000    0.000    0.000    0.000    0.000    0.000 
#
# Total GULP energy -335407.979467 kJ/mol
# GULP energy per Si atom -5590.132991 kJ/mol
# Density = 1.745423 g / cm^3
# Si number density = 17.494048 Si / 1000 Ang^3
#
#
#
# Elastic Constant Matrix: (Units=GPa)
#
#
# Indices 1 2 3 4 5 6 
#
# 1 164.7632 79.9457 62.3576 0.0000 0.0000 0.0000
# 2 79.9457 164.7632 62.3576 0.0000 0.0000 0.0000
# 3 62.3576 62.3576 91.9549 0.0000 0.0000 0.0000
# 4 0.0000 0.0000 0.0000 -112.4395 0.0000 0.0000
# 5 0.0000 0.0000 0.0000 0.0000 -112.4395 0.0000
# 6 0.0000 0.0000 0.0000 0.0000 0.0000 10.5626
#
#
#
# Elastic Compliance Matrix: (Units=1/GPa)
#
#
# Indices 1 2 3 4 5 6 
#
# 1 0.009017 -0.002773 -0.004235 0.000000 0.000000 0.000000
# 2 -0.002773 0.009017 -0.004235 0.000000 0.000000 0.000000
# 3 -0.004235 -0.004235 0.016618 0.000000 0.000000 0.000000
# 4 0.000000 0.000000 0.000000 -0.008894 0.000000 0.000000
# 5 0.000000 0.000000 0.000000 0.000000 -0.008894 0.000000
# 6 0.000000 0.000000 0.000000 0.000000 0.000000 0.094674
#
#
# Mechanical properties :
#
#
# Convention : Reuss Voigt Hill
#
# Bulk Modulus (GPa) = 82.17747 92.31144 87.24446
# Shear Modulus (GPa) = 36.21087 -28.40859 3.90114
#
# Velocity S-wave (km/s) = 4.55455 -4.03414 1.49493
# Velocity P-wave (km/s) = 8.64494 5.58416 7.27729
#
# Compressibility (1/GPa) = 0.01216879
#
# Stress axis : x y z
#
# Youngs Moduli (GPa) = 110.89711 110.89711 60.17457
#
# Poissons Ratio (x) = 0.30748 0.25482
# Poissons Ratio (y) = 0.30748 0.25482
# Poissons Ratio (z) = 0.46962 0.46962
#
# Static dielectric constant tensor:
#      x y z
#    x 1.628860 0.000000 0.000000 
#    y 0.000000 1.628860 0.000000 
#    z 0.000000 0.000000 1.572360 
# 
# From -- ./inp_files/4210.got.cif
#   From: 2010.05.17/outbox.cif.g08.bks.cpg/sg116_3_cif.got.tgz:4210.got - 2010.05.20 11:11:43.
