data_PCOD9557928
_publ_section_title
;
Structure prediction by ZEFSAII (Michael W. Deem and Ramdas Pophale) SiO2 
 PCOD9557928
Probable space group: P -4 C 2
;
_chemical_formula_sum "Si O2"
_cell_formula_units_Z 48
_cell_length_a 16.973720
_cell_length_b 16.973720
_cell_length_c 9.940791
_cell_angle_alpha 90.000000
_cell_angle_beta 90.000000
_cell_angle_gamma 90.000000
_cell_volume 2864.013169
_symmetry_space_group_name_H-M "P -4 C 2"
_symmetry_group_IT_number 116
_symmetry_cell_setting 'tetragonal'
loop_
_space_group_symop_operation_xyz
x,y,z
y,-x,-z
-x,-y,z
-y,x,-z
y,x,1/2-z
-y,-x,1/2-z
-x,y,1/2+z
x,-y,1/2+z
loop_
_atom_site_type_symbol
_atom_site_label
_atom_site_fract_x
_atom_site_fract_y
_atom_site_fract_z
Si Si1 0.629113 0.497905 0.721603
Si Si2 0.923095 0.790969 0.090568
Si Si3 0.076902 0.209339 0.409155
Si Si4 0.737535 0.503242 0.971452
Si Si5 0.337454 0.207373 0.088880
Si Si6 0.207438 0.662975 0.587545
O O1 0.566262 0.566262 0.750000
O O2 0.584287 0.415714 0.750000
O O3 0.662861 0.500335 0.571951
O O4 0.701604 0.508260 0.822782
O O5 0.942149 0.787237 0.249850
O O6 0.866114 0.866303 0.070841
O O7 0.869425 0.714917 0.056427
O O8 0.000021 0.795034 0.999900
O O9 0.130455 0.285670 0.442721
O O10 0.785933 0.580160 0.013391
O O11 0.785476 0.421967 0.979623
O O12 0.348041 0.208596 0.250895
O O13 0.283468 0.283051 0.053833
#
# Coordination Sequence:
#
# PCOD9557928 Si02
#       6
#     8   8   8   8   8   8
#     4  11  22  32  46  72 103 136 178 232 285 322
#     4   9  19  37  60  84 111 141 173 213 263 320
#     4   9  19  37  60  84 111 141 173 213 263 320
#     4  12  20  33  53  72 104 142 184 224 268 317
#     4   9  18  35  55  74 103 145 185 220 263 316
#     4   9  18  35  55  74 103 145 185 220 263 316
#
# _framework density 16.759699000000001
#
# number of rings (size 3 to 8) (size 9 to 14) (size 15 to 20)
#    0.000    2.167    1.667    5.000    0.000    2.333 
#    3.000    2.500    0.000    4.000    0.000    0.000 
#    0.000    0.000    0.000    0.000    0.000    0.000 
#
# Total GULP energy -267839.353008 kJ/mol
# GULP energy per Si atom -5579.986521 kJ/mol
# Density = 1.672155 g / cm^3
# Si number density = 16.759699 Si / 1000 Ang^3
#
#
#
# Elastic Constant Matrix: (Units=GPa)
#
#
# Indices 1 2 3 4 5 6 
#
# 1 129.0738 64.5364 41.7469 0.0000 0.0000 0.0000
# 2 64.5364 129.0743 41.7467 0.0000 0.0000 0.0000
# 3 41.7469 41.7467 29.6734 0.0000 0.0000 0.0000
# 4 0.0000 0.0000 0.0000 30.2672 0.0000 0.0000
# 5 0.0000 0.0000 0.0000 0.0000 30.2671 0.0000
# 6 0.0000 0.0000 0.0000 0.0000 0.0000 9.6262
#
#
#
# Elastic Compliance Matrix: (Units=1/GPa)
#
#
# Indices 1 2 3 4 5 6 
#
# 1 0.014314 -0.001181 -0.018476 0.000000 0.000000 0.000000
# 2 -0.001181 0.014314 -0.018476 0.000000 0.000000 0.000000
# 3 -0.018476 -0.018476 0.085687 0.000000 0.000000 0.000000
# 4 0.000000 0.000000 0.000000 0.033039 0.000000 0.000000
# 5 0.000000 0.000000 0.000000 0.000000 0.033039 0.000000
# 6 0.000000 0.000000 0.000000 0.000000 0.000000 0.103884
#
#
# Mechanical properties :
#
#
# Convention : Reuss Voigt Hill
#
# Bulk Modulus (GPa) = 26.28235 64.87573 45.57904
# Shear Modulus (GPa) = 13.39669 23.35152 18.37410
#
# Velocity S-wave (km/s) = 2.83033 3.73676 3.31467
# Velocity P-wave (km/s) = 5.13779 7.57702 6.47334
#
# Compressibility (1/GPa) = 0.03804835
#
# Stress axis : x y z
#
# Youngs Moduli (GPa) = 69.86213 69.86313 11.67032
#
# Poissons Ratio (x) = 0.08251 0.21563
# Poissons Ratio (y) = 0.08251 0.21562
# Poissons Ratio (z) = 1.29080 1.29079
#
# Static dielectric constant tensor:
#      x y z
#    x 1.559840 0.000000 0.000000 
#    y 0.000000 1.559840 0.000000 
#    z 0.000000 0.000000 1.546130 
# 
# From -- ./inp_files/966.got.cif
#   From: 2010.05.17/outbox.cif.g08.bks.cpg/sg116_1_cif.got.tgz:966.got - 2010.05.20 11:11:43.
