data_PCOD9557962
_publ_section_title
;
Structure prediction by ZEFSAII (Michael W. Deem and Ramdas Pophale) SiO2 
 PCOD9557962
Probable space group: P -4 C 2
;
_chemical_formula_sum "Si O2"
_cell_formula_units_Z 40
_cell_length_a 8.847343
_cell_length_b 8.847343
_cell_length_c 23.068751
_cell_angle_alpha 90.000000
_cell_angle_beta 90.000000
_cell_angle_gamma 90.000000
_cell_volume 1805.717515
_symmetry_space_group_name_H-M "P -4 C 2"
_symmetry_group_IT_number 116
_symmetry_cell_setting 'tetragonal'
loop_
_space_group_symop_operation_xyz
x,y,z
y,-x,-z
-x,-y,z
-y,x,-z
y,x,1/2-z
-y,-x,1/2-z
-x,y,1/2+z
x,-y,1/2+z
loop_
_atom_site_type_symbol
_atom_site_label
_atom_site_fract_x
_atom_site_fract_y
_atom_site_fract_z
Si Si1 0.902910 0.632139 0.114535
Si Si2 0.591069 0.851568 0.606147
Si Si3 0.790190 0.146428 0.997907
Si Si4 0.115205 0.139841 0.683249
Si Si5 0.366629 0.381964 0.315202
O O1 0.767349 0.573427 0.153543
O O2 0.000000 0.500000 0.086074
O O3 0.019579 0.726084 0.153976
O O4 0.821893 0.730307 0.065813
O O5 0.677701 0.792764 0.547933
O O6 0.733629 0.889752 0.647208
O O7 0.473473 0.753837 0.645071
O O8 0.500000 0.000000 0.588333
O O9 0.962508 0.202124 0.001588
O O10 0.161199 0.161199 0.750000
O O11 0.000000 0.000000 0.680187
O O12 0.500000 0.500000 0.309561
O O13 0.326211 0.326211 0.250000
#
# Coordination Sequence:
#
# PCOD9557962 Si02
#       5
#     8   8   8   8   8
#     4  12  26  45  72 105 141 193 244 301 370 445
#     4  12  25  44  73 107 142 194 241 308 377 447
#     4  11  23  45  74 105 143 184 245 311 371 445
#     4  11  25  42  70 106 140 183 247 305 364 445
#     4  11  28  48  70 104 151 194 238 302 379 456
#
# _framework density 22.151859000000002
#
# number of rings (size 3 to 8) (size 9 to 14) (size 15 to 20)
#    0.000    0.600    2.000    5.400   11.200    0.000 
#    0.000    0.000    0.000    0.000    0.000    0.000 
#    0.000    0.000    0.000    0.000    0.000    0.000 
#
# Total GULP energy -223483.769925 kJ/mol
# GULP energy per Si atom -5587.094248 kJ/mol
# Density = 2.210144 g / cm^3
# Si number density = 22.151859 Si / 1000 Ang^3
#
#
#
# Elastic Constant Matrix: (Units=GPa)
#
#
# Indices 1 2 3 4 5 6 
#
# 1 63.6669 2.1740 18.3021 0.0000 0.0000 0.0000
# 2 2.1740 63.6669 18.3021 0.0000 0.0000 0.0000
# 3 18.3021 18.3021 120.6903 0.0000 0.0000 0.0000
# 4 0.0000 0.0000 0.0000 35.3590 0.0000 0.0000
# 5 0.0000 0.0000 0.0000 0.0000 35.3590 0.0000
# 6 0.0000 0.0000 0.0000 0.0000 0.0000 34.9031
#
#
#
# Elastic Compliance Matrix: (Units=1/GPa)
#
#
# Indices 1 2 3 4 5 6 
#
# 1 0.016424 0.000162 -0.002515 0.000000 0.000000 0.000000
# 2 0.000162 0.016424 -0.002515 0.000000 0.000000 0.000000
# 3 -0.002515 -0.002515 0.009049 0.000000 0.000000 0.000000
# 4 0.000000 0.000000 0.000000 0.028281 0.000000 0.000000
# 5 0.000000 0.000000 0.000000 0.000000 0.028281 0.000000
# 6 0.000000 0.000000 0.000000 0.000000 0.000000 0.028651
#
#
# Mechanical properties :
#
#
# Convention : Reuss Voigt Hill
#
# Bulk Modulus (GPa) = 31.09407 36.17561 33.63484
# Shear Modulus (GPa) = 33.88285 35.07394 34.47840
#
# Velocity S-wave (km/s) = 3.91522 3.98344 3.94947
# Velocity P-wave (km/s) = 5.87416 6.12562 6.00121
#
# Compressibility (1/GPa) = 0.03216047
#
# Stress axis : x y z
#
# Youngs Moduli (GPa) = 60.88550 60.88550 110.51527
#
# Poissons Ratio (x) = -0.00988 0.27797
# Poissons Ratio (y) = -0.00988 0.27797
# Poissons Ratio (z) = 0.15314 0.15314
#
# Static dielectric constant tensor:
#      x y z
#    x 1.786250 0.000000 0.000000 
#    y 0.000000 1.786250 0.000000 
#    z 0.000000 0.000000 1.841140 
# 
# From -- ./inp_files/4402.got.cif
#   From: 2010.05.17/outbox.cif.g08.bks.cpg/sg116_3_cif.got.tgz:4402.got - 2010.05.20 11:11:43.
