data_PCOD9557233
_publ_section_title
;
Structure prediction by ZEFSAII (Michael W. Deem and Ramdas Pophale) SiO2 
 PCOD9557233
Probable space group: P -4 M 2
;
_chemical_formula_sum "Si O2"
_cell_formula_units_Z 44
_cell_length_a 9.357058
_cell_length_b 9.357058
_cell_length_c 29.253129
_cell_angle_alpha 90.000000
_cell_angle_beta 90.000000
_cell_angle_gamma 90.000000
_cell_volume 2561.244090
_symmetry_space_group_name_H-M "P -4 M 2"
_symmetry_group_IT_number 115
_symmetry_cell_setting 'tetragonal'
loop_
_space_group_symop_operation_xyz
x,y,z
y,-x,-z
-x,-y,z
-y,x,-z
y,x,-z
-y,-x,-z
-x,y,z
x,-y,z
loop_
_atom_site_type_symbol
_atom_site_label
_atom_site_fract_x
_atom_site_fract_y
_atom_site_fract_z
Si Si1 0.169151 0.170038 0.865954
Si Si2 0.669928 0.330073 0.500000
Si Si3 0.829724 0.330525 0.040610
Si Si4 0.170163 0.330412 0.408194
Si Si5 0.174075 0.664383 0.774749
Si Si6 0.169193 0.170901 0.315989
O O1 0.257441 0.208094 0.911091
O O2 0.217217 0.254506 0.820938
O O3 0.000000 0.198359 0.873653
O O4 0.184150 0.000000 0.857884
O O5 0.500000 0.306424 0.494615
O O6 0.717282 0.249976 0.545893
O O7 0.804426 0.500000 0.042088
O O8 0.000000 0.307048 0.033455
O O9 0.742970 0.257031 0.000000
O O10 0.196035 0.500000 0.402409
O O11 0.215452 0.248028 0.362512
O O12 0.000000 0.309339 0.413793
O O13 0.219762 0.500000 0.774923
O O14 0.219727 0.745166 0.728730
O O15 0.000000 0.667342 0.774492
O O16 0.000000 0.198257 0.309280
O O17 0.187316 0.000000 0.320910
#
# Coordination Sequence:
#
# PCOD9557233 Si02
#       6
#     8   4   8   8   8   8
#     4   9  17  31  52  74  96 126 163 201 241 287
#     4   9  18  32  48  65  88 120 154 187 226 274
#     4  10  21  36  54  77 104 134 169 208 250 297
#     4   9  18  32  48  67  92 121 153 189 230 276
#     4   9  17  29  47  72  98 123 156 198 239 280
#     4   9  17  30  48  69  93 121 153 190 233 279
#
# _framework density 17.179152999999999
#
# number of rings (size 3 to 8) (size 9 to 14) (size 15 to 20)
#    0.000    2.818    0.000    1.091    0.000    5.455 
#    0.000    2.727    0.000    5.455    0.000    0.000 
#    0.000    0.000    0.000    0.000    0.000    0.000 
#
# Total GULP energy -245336.702157 kJ/mol
# GULP energy per Si atom -5575.834140 kJ/mol
# Density = 1.714005 g / cm^3
# Si number density = 17.179153 Si / 1000 Ang^3
#
#
#
# Elastic Constant Matrix: (Units=GPa)
#
#
# Indices 1 2 3 4 5 6 
#
# 1 48.9956 45.5968 86.1019 0.0000 0.0000 0.0000
# 2 45.5968 48.9965 86.1009 0.0000 0.0000 0.0000
# 3 86.1019 86.1009 224.5526 0.0000 0.0000 0.0000
# 4 0.0000 0.0000 0.0000 -16.7544 0.0000 0.0000
# 5 0.0000 0.0000 0.0000 0.0000 -16.7492 0.0000
# 6 0.0000 0.0000 0.0000 0.0000 0.0000 15.2007
#
#
#
# Elastic Compliance Matrix: (Units=1/GPa)
#
#
# Indices 1 2 3 4 5 6 
#
# 1 0.164605 -0.129587 -0.013428 0.000000 0.000000 0.000000
# 2 -0.129587 0.164587 -0.013420 0.000000 0.000000 0.000000
# 3 -0.013428 -0.013420 0.014747 0.000000 0.000000 0.000000
# 4 0.000000 0.000000 0.000000 -0.059686 0.000000 0.000000
# 5 0.000000 0.000000 0.000000 0.000000 -0.059704 0.000000
# 6 0.000000 0.000000 0.000000 0.000000 0.000000 0.065787
#
#
# Mechanical properties :
#
#
# Convention : Reuss Voigt Hill
#
# Bulk Modulus (GPa) = 32.18473 84.23823 58.21148
# Shear Modulus (GPa) = 8.14914 3.32241 5.73577
#
# Velocity S-wave (km/s) = 2.18035 1.39218 1.82922
# Velocity P-wave (km/s) = 5.01139 7.19207 6.19838
#
# Compressibility (1/GPa) = 0.03107064
#
# Stress axis : x y z
#
# Youngs Moduli (GPa) = 6.07516 6.07580 67.80814
#
# Poissons Ratio (x) = 0.78735 0.91050
# Poissons Ratio (y) = 0.78726 0.90996
# Poissons Ratio (z) = 0.08157 0.08154
#
# Static dielectric constant tensor:
#      x y z
#    x 1.571660 0.000000 0.000000 
#    y 0.000000 1.571660 0.000000 
#    z 0.000000 0.000000 1.557290 
# 
# From -- ./inp_files/5687.got.cif
#   From: 2010.05.17/outbox.cif.g08.bks.cpg/sg115_3_cif.got.tgz:5687.got - 2010.05.20 11:07:42.
