data_PCOD9557632
_publ_section_title
;
Structure prediction by ZEFSAII (Michael W. Deem and Ramdas Pophale) SiO2 
 PCOD9557632
Probable space group: P -4 C 2
;
_chemical_formula_sum "Si O2"
_cell_formula_units_Z 40
_cell_length_a 14.682825
_cell_length_b 14.682825
_cell_length_c 9.234713
_cell_angle_alpha 90.000000
_cell_angle_beta 90.000000
_cell_angle_gamma 90.000000
_cell_volume 1990.868834
_symmetry_space_group_name_H-M "P -4 C 2"
_symmetry_group_IT_number 116
_symmetry_cell_setting 'tetragonal'
loop_
_space_group_symop_operation_xyz
x,y,z
y,-x,-z
-x,-y,z
-y,x,-z
y,x,1/2-z
-y,-x,1/2-z
-x,y,1/2+z
x,-y,1/2+z
loop_
_atom_site_type_symbol
_atom_site_label
_atom_site_fract_x
_atom_site_fract_y
_atom_site_fract_z
Si Si1 0.714860 0.367775 0.966854
Si Si2 0.759850 0.940469 0.376248
Si Si3 0.392940 0.817840 0.987383
Si Si4 0.754866 0.523345 0.732200
Si Si5 0.232208 0.116012 0.051846
O O1 0.693727 0.417563 0.120319
O O2 0.648893 0.281512 0.943511
O O3 0.714267 0.444531 0.839892
O O4 0.811945 0.314358 0.972355
O O5 0.670370 0.901359 0.452158
O O6 0.749388 0.932721 0.204611
O O7 0.833206 0.864325 0.425732
O O8 0.777754 0.041794 0.427739
O O9 0.478975 0.823653 0.882741
O O10 0.413436 0.807398 0.155271
#
# Coordination Sequence:
#
# PCOD9557632 Si02
#       5
#     8   8   8   8   8
#     4  10  20  38  60  84 116 155 193 234 287 343
#     4  10  22  40  61  86 118 153 190 234 283 338
#     4  10  20  38  60  84 116 155 193 234 287 343
#     4  10  20  34  61  87 112 152 198 234 284 343
#     4  10  22  40  61  86 118 153 190 234 283 338
#
# _framework density 20.091729000000001
#
# number of rings (size 3 to 8) (size 9 to 14) (size 15 to 20)
#    0.000    2.000    2.000    1.200    2.800    1.200 
#    0.000    8.000    0.000   42.000    0.000    0.000 
#    0.000    0.000    0.000    0.000    0.000    0.000 
#
# Total GULP energy -222904.877733 kJ/mol
# GULP energy per Si atom -5572.621943 kJ/mol
# Density = 2.004600 g / cm^3
# Si number density = 20.091729 Si / 1000 Ang^3
#
#
#
# Elastic Constant Matrix: (Units=GPa)
#
#
# Indices 1 2 3 4 5 6 
#
# 1 50.6996 -8.4285 9.0626 0.0000 0.0000 0.0000
# 2 -8.4285 50.6996 9.0626 0.0000 0.0000 0.0000
# 3 9.0626 9.0626 100.4149 0.0000 0.0000 0.0000
# 4 0.0000 0.0000 0.0000 29.4098 0.0000 0.0000
# 5 0.0000 0.0000 0.0000 0.0000 29.4098 0.0000
# 6 0.0000 0.0000 0.0000 0.0000 0.0000 1.2503
#
#
#
# Elastic Compliance Matrix: (Units=1/GPa)
#
#
# Indices 1 2 3 4 5 6 
#
# 1 0.020761 0.003848 -0.002221 0.000000 0.000000 0.000000
# 2 0.003848 0.020761 -0.002221 0.000000 0.000000 0.000000
# 3 -0.002221 -0.002221 0.010360 0.000000 0.000000 0.000000
# 4 0.000000 0.000000 0.000000 0.034002 0.000000 0.000000
# 5 0.000000 0.000000 0.000000 0.000000 0.034002 0.000000
# 6 0.000000 0.000000 0.000000 0.000000 0.000000 0.799829
#
#
# Mechanical properties :
#
#
# Convention : Reuss Voigt Hill
#
# Bulk Modulus (GPa) = 19.72626 24.57861 22.15243
# Shear Modulus (GPa) = 5.33163 24.82179 15.07671
#
# Velocity S-wave (km/s) = 1.63077 3.51867 2.74230
# Velocity P-wave (km/s) = 3.65859 5.36356 4.59092
#
# Compressibility (1/GPa) = 0.05069385
#
# Stress axis : x y z
#
# Youngs Moduli (GPa) = 48.16772 48.16772 96.52894
#
# Poissons Ratio (x) = -0.18537 0.21439
# Poissons Ratio (y) = -0.18537 0.21439
# Poissons Ratio (z) = 0.10698 0.10698
#
# Static dielectric constant tensor:
#      x y z
#    x 1.742270 0.000000 0.000000 
#    y 0.000000 1.742270 0.000000 
#    z 0.000000 0.000000 1.720650 
# 
# From -- ./inp_files/765.got.cif
#   From: 2010.05.17/outbox.cif.g08.bks.cpg/sg116_1_cif.got.tgz:765.got - 2010.05.20 11:11:43.
