data_PCOD9557260
_publ_section_title
;
Structure prediction by ZEFSAII (Michael W. Deem and Ramdas Pophale) SiO2 
 PCOD9557260
Probable space group: P -4 M 2
;
_chemical_formula_sum "Si O2"
_cell_formula_units_Z 44
_cell_length_a 9.309522
_cell_length_b 9.309522
_cell_length_c 29.348369
_cell_angle_alpha 90.000000
_cell_angle_beta 90.000000
_cell_angle_gamma 90.000000
_cell_volume 2543.540962
_symmetry_space_group_name_H-M "P -4 M 2"
_symmetry_group_IT_number 115
_symmetry_cell_setting 'tetragonal'
loop_
_space_group_symop_operation_xyz
x,y,z
y,-x,-z
-x,-y,z
-y,x,-z
y,x,-z
-y,-x,-z
-x,y,z
x,-y,z
loop_
_atom_site_type_symbol
_atom_site_label
_atom_site_fract_x
_atom_site_fract_y
_atom_site_fract_z
Si Si1 0.330646 0.672737 0.284135
Si Si2 0.827898 0.168232 0.634646
Si Si3 0.171375 0.670307 0.541019
Si Si4 0.827723 0.827723 0.000000
Si Si5 0.669688 0.328294 0.819083
Si Si6 0.827847 0.828812 0.900576
O O1 0.500000 0.706864 0.290135
O O2 0.316870 0.500000 0.287458
O O3 0.237706 0.749367 0.322353
O O4 0.288131 0.714431 0.232481
O O5 0.789632 0.253381 0.588578
O O6 0.000000 0.180935 0.640587
O O7 0.792663 0.000000 0.629926
O O8 0.258074 0.741927 0.500000
O O9 0.197788 0.500000 0.543668
O O10 0.000000 0.692177 0.533828
O O11 0.775281 0.775439 0.049348
O O12 0.000000 0.805962 0.000213
O O13 0.500000 0.297478 0.823311
O O14 0.687909 0.500000 0.822934
O O15 0.754538 0.249505 0.858666
O O16 0.000000 0.808785 0.898762
O O17 0.801167 0.000000 0.897980
#
# Coordination Sequence:
#
# PCOD9557260 Si02
#       6
#     8   8   8   4   8   8
#     4   9  19  36  55  73  97 133 173 209 247 295
#     4  10  21  36  55  80 108 136 167 207 254 300
#     4  10  21  37  57  80 106 138 174 209 248 295
#     4   7  12  26  46  67  94 126 158 197 246 295
#     4   9  19  35  51  69  98 134 168 203 247 298
#     4   9  17  30  50  74  97 124 162 206 249 296
#
# _framework density 17.298719999999999
#
# number of rings (size 3 to 8) (size 9 to 14) (size 15 to 20)
#    0.000    2.818    0.000    3.273    0.000    5.455 
#    0.000    6.364    0.000    4.364    0.000    0.000 
#    0.000    0.000    0.000    0.000    0.000    0.000 
#
# Total GULP energy -245274.688873 kJ/mol
# GULP energy per Si atom -5574.424747 kJ/mol
# Density = 1.725935 g / cm^3
# Si number density = 17.298720 Si / 1000 Ang^3
#
#
#
# Elastic Constant Matrix: (Units=GPa)
#
#
# Indices 1 2 3 4 5 6 
#
# 1 52.3645 45.1740 82.5785 0.0000 0.0000 0.0000
# 2 45.1740 52.3637 82.5794 0.0000 0.0000 0.0000
# 3 82.5785 82.5794 210.9911 0.0000 0.0000 0.0000
# 4 0.0000 0.0000 0.0000 53.6838 0.0000 0.0000
# 5 0.0000 0.0000 0.0000 0.0000 53.6830 0.0000
# 6 0.0000 0.0000 0.0000 0.0000 0.0000 30.6282
#
#
#
# Elastic Compliance Matrix: (Units=1/GPa)
#
#
# Indices 1 2 3 4 5 6 
#
# 1 0.084735 -0.054341 -0.011896 0.000000 0.000000 0.000000
# 2 -0.054341 0.084741 -0.011899 0.000000 0.000000 0.000000
# 3 -0.011896 -0.011899 0.014052 0.000000 0.000000 0.000000
# 4 0.000000 0.000000 0.000000 0.018628 0.000000 0.000000
# 5 0.000000 0.000000 0.000000 0.000000 0.018628 0.000000
# 6 0.000000 0.000000 0.000000 0.000000 0.000000 0.032650
#
#
# Mechanical properties :
#
#
# Convention : Reuss Voigt Hill
#
# Bulk Modulus (GPa) = 36.68565 81.82035 59.25300
# Shear Modulus (GPa) = 11.93915 34.62482 23.28198
#
# Velocity S-wave (km/s) = 2.62997 4.47876 3.67260
# Velocity P-wave (km/s) = 5.52046 8.61086 7.23265
#
# Compressibility (1/GPa) = 0.02725861
#
# Stress axis : x y z
#
# Youngs Moduli (GPa) = 11.80147 11.80061 71.16280
#
# Poissons Ratio (x) = 0.64126 0.84653
# Poissons Ratio (y) = 0.64130 0.84674
# Poissons Ratio (z) = 0.14039 0.14041
#
# Static dielectric constant tensor:
#      x y z
#    x 1.571530 0.000000 0.000000 
#    y 0.000000 1.571530 0.000000 
#    z 0.000000 0.000000 1.586080 
# 
# From -- ./inp_files/5754.got.cif
#   From: 2010.05.17/outbox.cif.g08.bks.cpg/sg115_3_cif.got.tgz:5754.got - 2010.05.20 11:07:42.
