data_PCOD9557353
_publ_section_title
;
Structure prediction by ZEFSAII (Michael W. Deem and Ramdas Pophale) SiO2 
 PCOD9557353
Probable space group: P -4 M 2
;
_chemical_formula_sum "Si O2"
_cell_formula_units_Z 48
_cell_length_a 9.151219
_cell_length_b 9.151219
_cell_length_c 31.901193
_cell_angle_alpha 90.000000
_cell_angle_beta 90.000000
_cell_angle_gamma 90.000000
_cell_volume 2671.559321
_symmetry_space_group_name_H-M "P -4 M 2"
_symmetry_group_IT_number 115
_symmetry_cell_setting 'tetragonal'
loop_
_space_group_symop_operation_xyz
x,y,z
y,-x,-z
-x,-y,z
-y,x,-z
y,x,-z
-y,-x,-z
-x,y,z
x,-y,z
loop_
_atom_site_type_symbol
_atom_site_label
_atom_site_fract_x
_atom_site_fract_y
_atom_site_fract_z
Si Si1 0.323780 0.173367 0.677165
Si Si2 0.327475 0.825834 0.244657
Si Si3 0.672934 0.325431 0.078458
Si Si4 0.826365 0.173636 0.000000
Si Si5 0.330671 0.822136 0.583850
Si Si6 0.172415 0.674689 0.166326
Si Si7 0.173711 0.826290 0.500000
O O1 0.500000 0.189147 0.679709
O O2 0.246304 0.262181 0.713549
O O3 0.277799 0.221474 0.630204
O O4 0.292505 0.000000 0.681903
O O5 0.500000 0.794765 0.241410
O O6 0.244950 0.758631 0.204782
O O7 0.306911 0.000000 0.245913
O O8 0.500000 0.295578 0.080100
O O9 0.691912 0.500000 0.071608
O O10 0.748226 0.288652 0.122687
O O11 0.748010 0.239392 0.040770
O O12 0.000000 0.199138 0.002644
O O13 0.500000 0.780369 0.579986
O O14 0.244805 0.770557 0.543012
O O15 0.324964 0.000000 0.584058
O O16 0.189030 0.500000 0.173050
O O17 0.000000 0.706377 0.163559
O O18 0.000000 0.801589 0.502388
#
# Coordination Sequence:
#
# PCOD9557353 Si02
#       7
#     8   8   8   4   8   8   4
#     4   9  18  34  56  78  99 130 175 220 261 310
#     4  11  24  38  52  76 110 143 175 214 263 317
#     4  10  21  38  61  87 113 144 183 225 270 319
#     4  11  24  39  56  82 116 153 190 227 270 318
#     4   8  15  29  48  70  97 128 162 203 252 304
#     4  10  21  38  61  86 110 140 180 222 265 317
#     4   9  16  26  44  71  98 126 164 205 244 294
#
# _framework density 17.967036
#
# number of rings (size 3 to 8) (size 9 to 14) (size 15 to 20)
#    0.000    2.333    0.000    3.500    0.000    8.667 
#    0.000    2.500    0.000    3.250    0.000    0.000 
#    0.000    0.000    0.000    0.000    0.000    0.000 
#
# Total GULP energy -267912.049725 kJ/mol
# GULP energy per Si atom -5581.501036 kJ/mol
# Density = 1.792614 g / cm^3
# Si number density = 17.967036 Si / 1000 Ang^3
#
#
#
# Elastic Constant Matrix: (Units=GPa)
#
#
# Indices 1 2 3 4 5 6 
#
# 1 73.0464 67.7407 93.3771 0.0000 0.0000 0.0000
# 2 67.7407 73.0462 93.3770 0.0000 0.0000 0.0000
# 3 93.3771 93.3770 211.0212 0.0000 0.0000 0.0000
# 4 0.0000 0.0000 0.0000 35.4548 0.0000 0.0000
# 5 0.0000 0.0000 0.0000 0.0000 35.4546 0.0000
# 6 0.0000 0.0000 0.0000 0.0000 0.0000 25.5352
#
#
#
# Elastic Compliance Matrix: (Units=1/GPa)
#
#
# Indices 1 2 3 4 5 6 
#
# 1 0.102839 -0.085641 -0.007610 0.000000 0.000000 0.000000
# 2 -0.085641 0.102839 -0.007610 0.000000 0.000000 0.000000
# 3 -0.007610 -0.007610 0.011474 0.000000 0.000000 0.000000
# 4 0.000000 0.000000 0.000000 0.028205 0.000000 0.000000
# 5 0.000000 0.000000 0.000000 0.000000 0.028205 0.000000
# 6 0.000000 0.000000 0.000000 0.000000 0.000000 0.039162
#
#
# Mechanical properties :
#
#
# Convention : Reuss Voigt Hill
#
# Bulk Modulus (GPa) = 64.81308 96.23371 80.52340
# Shear Modulus (GPa) = 9.62303 26.13020 17.87661
#
# Velocity S-wave (km/s) = 2.31680 3.81772 3.15773
# Velocity P-wave (km/s) = 6.58091 8.55049 7.62952
#
# Compressibility (1/GPa) = 0.01542898
#
# Stress axis : x y z
#
# Youngs Moduli (GPa) = 9.72398 9.72398 87.15647
#
# Poissons Ratio (x) = 0.83277 0.66326
# Poissons Ratio (y) = 0.83277 0.66324
# Poissons Ratio (z) = 0.07400 0.07400
#
# Static dielectric constant tensor:
#      x y z
#    x 1.599790 0.000000 0.000000 
#    y 0.000000 1.599790 0.000000 
#    z 0.000000 0.000000 1.600570 
# 
# From -- ./inp_files/6153.got.cif
#   From: 2010.05.17/outbox.cif.g08.bks.cpg/sg115_4_cif.got.tgz:6153.got - 2010.05.20 11:07:42.
