data_PCOD9557444
_publ_section_title
;
Structure prediction by ZEFSAII (Michael W. Deem and Ramdas Pophale) SiO2 
 PCOD9557444
Probable space group: P -4 M 2
;
_chemical_formula_sum "Si O2"
_cell_formula_units_Z 40
_cell_length_a 8.241129
_cell_length_b 8.241129
_cell_length_c 28.712882
_cell_angle_alpha 90.000000
_cell_angle_beta 90.000000
_cell_angle_gamma 90.000000
_cell_volume 1950.070043
_symmetry_space_group_name_H-M "P -4 M 2"
_symmetry_group_IT_number 115
_symmetry_cell_setting 'tetragonal'
loop_
_space_group_symop_operation_xyz
x,y,z
y,-x,-z
-x,-y,z
-y,x,-z
y,x,-z
-y,-x,-z
-x,y,z
x,-y,z
loop_
_atom_site_type_symbol
_atom_site_label
_atom_site_fract_x
_atom_site_fract_y
_atom_site_fract_z
Si Si1 0.693839 0.814368 0.549664
Si Si2 0.188743 0.000000 0.797402
Si Si3 0.191279 0.195988 0.052542
Si Si4 0.323430 0.193052 0.354728
Si Si5 0.682041 0.307766 0.148623
Si Si6 0.314205 0.000000 0.695087
O O1 0.765522 0.765522 0.500000
O O2 0.500000 0.805481 0.546579
O O3 0.751818 0.704544 0.592171
O O4 0.740953 0.000000 0.560574
O O5 0.225835 0.164185 0.826162
O O6 0.291912 0.000000 0.750378
O O7 0.000000 0.000000 0.784518
O O8 0.292052 0.274787 0.093786
O O9 0.000000 0.237307 0.058325
O O10 0.203179 0.000000 0.056032
O O11 0.240926 0.240926 0.000000
O O12 0.500000 0.255501 0.338087
O O13 0.166513 0.243231 0.325360
O O14 0.328370 0.000000 0.353967
O O15 0.500000 0.251201 0.162267
O O16 0.691177 0.500000 0.157509
O O17 0.500000 0.000000 0.680704
#
# Coordination Sequence:
#
# PCOD9557444 Si02
#       6
#     8   4   8   8   8   4
#     4  11  23  38  59  91 130 176 224 271 327 390
#     4  12  26  46  72  96 126 168 218 274 328 387
#     4   9  18  34  58  89 126 170 216 262 319 386
#     4  11  24  43  68  98 133 173 218 270 326 390
#     4  11  24  41  63  94 132 170 212 267 329 393
#     4  12  26  46  72 100 130 170 214 268 334 397
#
# _framework density 20.512086
#
# number of rings (size 3 to 8) (size 9 to 14) (size 15 to 20)
#    0.000    1.200    2.000    4.800    0.000    8.400 
#    0.000    3.000    0.000    0.000    0.000    0.000 
#    0.000    0.000    0.000    0.000    0.000    0.000 
#
# Total GULP energy -223612.410123 kJ/mol
# GULP energy per Si atom -5590.310253 kJ/mol
# Density = 2.046540 g / cm^3
# Si number density = 20.512086 Si / 1000 Ang^3
#
#
#
# Elastic Constant Matrix: (Units=GPa)
#
#
# Indices 1 2 3 4 5 6 
#
# 1 91.9925 37.6185 15.0861 0.0000 0.0000 0.0000
# 2 37.6185 91.9925 15.0861 0.0000 0.0000 0.0000
# 3 15.0861 15.0861 67.1756 0.0000 0.0000 0.0000
# 4 0.0000 0.0000 0.0000 2825.2337 0.0000 0.0000
# 5 0.0000 0.0000 0.0000 0.0000 2825.2337 0.0000
# 6 0.0000 0.0000 0.0000 0.0000 0.0000 38.3888
#
#
#
# Elastic Compliance Matrix: (Units=1/GPa)
#
#
# Indices 1 2 3 4 5 6 
#
# 1 0.013266 -0.005125 -0.001828 0.000000 0.000000 0.000000
# 2 -0.005125 0.013266 -0.001828 0.000000 0.000000 0.000000
# 3 -0.001828 -0.001828 0.015708 0.000000 0.000000 0.000000
# 4 0.000000 0.000000 0.000000 0.000354 0.000000 0.000000
# 5 0.000000 0.000000 0.000000 0.000000 0.000354 0.000000
# 6 0.000000 0.000000 0.000000 0.000000 0.000000 0.026049
#
#
# Mechanical properties :
#
#
# Convention : Reuss Voigt Hill
#
# Bulk Modulus (GPa) = 40.52453 42.97133 41.74793
# Shear Modulus (GPa) = 52.75064 1149.99592 601.37328
#
# Velocity S-wave (km/s) = 5.07668 23.70359 17.14107
# Velocity P-wave (km/s) = 7.35954 27.75143 20.30153
#
# Compressibility (1/GPa) = 0.02467641
#
# Stress axis : x y z
#
# Youngs Moduli (GPa) = 75.38027 75.38027 63.66370
#
# Poissons Ratio (x) = 0.38633 0.11640
# Poissons Ratio (y) = 0.38633 0.11640
# Poissons Ratio (z) = 0.13782 0.13782
#
# Static dielectric constant tensor:
#      x y z
#    x 0.913410 0.000000 0.000000 
#    y 0.000000 0.913410 0.000000 
#    z 0.000000 0.000000 1.707250 
# 
# From -- ./inp_files/5503.got.cif
#   From: 2010.05.17/outbox.cif.g08.bks.cpg/sg115_3_cif.got.tgz:5503.got - 2010.05.20 11:07:42.
