data_PCOD9557196
_publ_section_title
;
Structure prediction by ZEFSAII (Michael W. Deem and Ramdas Pophale) SiO2 
 PCOD9557196
Probable space group: P -4 M 2
;
_chemical_formula_sum "Si O2"
_cell_formula_units_Z 44
_cell_length_a 9.319104
_cell_length_b 9.319104
_cell_length_c 29.334440
_cell_angle_alpha 90.000000
_cell_angle_beta 90.000000
_cell_angle_gamma 90.000000
_cell_volume 2547.569957
_symmetry_space_group_name_H-M "P -4 M 2"
_symmetry_group_IT_number 115
_symmetry_cell_setting 'tetragonal'
loop_
_space_group_symop_operation_xyz
x,y,z
y,-x,-z
-x,-y,z
-y,x,-z
y,x,-z
-y,-x,-z
-x,y,z
x,-y,z
loop_
_atom_site_type_symbol
_atom_site_label
_atom_site_fract_x
_atom_site_fract_y
_atom_site_fract_z
Si Si1 0.165904 0.174861 0.049938
Si Si2 0.170087 0.171351 0.315231
Si Si3 0.329536 0.329536 0.500000
Si Si4 0.328331 0.168523 0.140799
Si Si5 0.670080 0.671449 0.766789
Si Si6 0.171552 0.331217 0.592151
O O1 0.255114 0.218719 0.094036
O O2 0.000000 0.218623 0.055109
O O3 0.168111 0.000000 0.048376
O O4 0.221102 0.221102 0.000000
O O5 0.245042 0.255359 0.274311
O O6 0.240991 0.213222 0.363458
O O7 0.000000 0.196660 0.315856
O O8 0.194242 0.000000 0.309295
O O9 0.305804 0.500000 0.494293
O O10 0.248544 0.283642 0.545798
O O11 0.500000 0.178226 0.135915
O O12 0.285704 0.258591 0.185121
O O13 0.291960 0.000000 0.147828
O O14 0.500000 0.696622 0.767493
O O15 0.694269 0.500000 0.761064
O O16 0.205483 0.500000 0.599611
O O17 0.000000 0.319195 0.586422
#
# Coordination Sequence:
#
# PCOD9557196 Si02
#       6
#     8   8   4   8   8   8
#     4   8  14  26  45  68  93 122 157 196 238 286
#     4  10  21  36  54  77 103 131 166 208 253 300
#     4   9  18  32  50  73 100 130 166 205 242 285
#     4   9  17  30  49  71  94 123 161 202 242 289
#     4  10  21  36  53  73  99 132 168 206 250 300
#     4   9  18  33  52  73  99 132 167 202 243 293
#
# _framework density 17.271360000000001
#
# number of rings (size 3 to 8) (size 9 to 14) (size 15 to 20)
#    0.000    2.818    0.000    1.636    0.000    4.364 
#    0.000    4.545    0.000    1.091    0.000    0.000 
#    0.000    0.000    0.000    0.000    0.000    0.000 
#
# Total GULP energy -245319.262749 kJ/mol
# GULP energy per Si atom -5575.437790 kJ/mol
# Density = 1.723205 g / cm^3
# Si number density = 17.271360 Si / 1000 Ang^3
#
#
#
# Elastic Constant Matrix: (Units=GPa)
#
#
# Indices 1 2 3 4 5 6 
#
# 1 47.4310 46.4010 83.0595 0.0000 0.0000 0.0000
# 2 46.4010 47.4310 83.0595 0.0000 0.0000 0.0000
# 3 83.0595 83.0595 224.9110 0.0000 0.0000 0.0000
# 4 0.0000 0.0000 0.0000 47.3425 0.0000 0.0000
# 5 0.0000 0.0000 0.0000 0.0000 47.3425 0.0000
# 6 0.0000 0.0000 0.0000 0.0000 0.0000 17.8231
#
#
#
# Elastic Compliance Matrix: (Units=1/GPa)
#
#
# Indices 1 2 3 4 5 6 
#
# 1 0.500800 -0.470016 -0.011369 0.000000 0.000000 0.000000
# 2 -0.470016 0.500800 -0.011369 0.000000 0.000000 0.000000
# 3 -0.011369 -0.011369 0.012843 0.000000 0.000000 0.000000
# 4 0.000000 0.000000 0.000000 0.021123 0.000000 0.000000
# 5 0.000000 0.000000 0.000000 0.000000 0.021123 0.000000
# 6 0.000000 0.000000 0.000000 0.000000 0.000000 0.056107
#
#
# Mechanical properties :
#
#
# Convention : Reuss Voigt Hill
#
# Bulk Modulus (GPa) = 34.55787 82.75698 58.65743
# Shear Modulus (GPa) = 2.37198 29.65182 16.01190
#
# Velocity S-wave (km/s) = 1.17318 4.14795 3.04810
# Velocity P-wave (km/s) = 4.67839 8.42380 6.81351
#
# Compressibility (1/GPa) = 0.02893697
#
# Stress axis : x y z
#
# Youngs Moduli (GPa) = 1.99681 1.99681 77.86355
#
# Poissons Ratio (x) = 0.93853 0.88519
# Poissons Ratio (y) = 0.93853 0.88519
# Poissons Ratio (z) = 0.02270 0.02270
#
# Static dielectric constant tensor:
#      x y z
#    x 1.577410 0.000000 0.000000 
#    y 0.000000 1.577410 0.000000 
#    z 0.000000 0.000000 1.570440 
# 
# From -- ./inp_files/5693.got.cif
#   From: 2010.05.17/outbox.cif.g08.bks.cpg/sg115_3_cif.got.tgz:5693.got - 2010.05.20 11:07:42.
