data_PCOD9557497
_publ_section_title
;
Structure prediction by ZEFSAII (Michael W. Deem and Ramdas Pophale) SiO2 
 PCOD9557497
Probable space group: P -4 M 2
;
_chemical_formula_sum "Si O2"
_cell_formula_units_Z 48
_cell_length_a 9.000000
_cell_length_b 9.000000
_cell_length_c 30.000000
_cell_angle_alpha 90.000000
_cell_angle_beta 90.000000
_cell_angle_gamma 90.000000
_cell_volume 2430.000000
_symmetry_space_group_name_H-M "P -4 M 2"
_symmetry_group_IT_number 115
_symmetry_cell_setting 'tetragonal'
loop_
_space_group_symop_operation_xyz
x,y,z
y,-x,-z
-x,-y,z
-y,x,-z
y,x,-z
-y,-x,-z
-x,y,z
x,-y,z
loop_
_atom_site_type_symbol
_atom_site_label
_atom_site_fract_x
_atom_site_fract_y
_atom_site_fract_z
Si Si1 0.829667 0.826440 0.195177
Si Si2 0.164883 0.830007 0.946995
Si Si3 0.338385 0.675107 0.879940
Si Si4 0.324733 0.670763 0.371441
Si Si5 0.173401 0.322333 0.282623
Si Si6 0.821581 0.169621 0.548613
O O1 0.740918 0.785352 0.151778
O O2 0.762893 0.743922 0.237603
O O3 0.000000 0.775399 0.189311
O O4 0.830749 0.000000 0.203636
O O5 0.294861 0.730184 0.928490
O O6 0.000000 0.777864 0.933286
O O7 0.181992 0.000000 0.930849
O O8 0.166817 0.833184 0.000000
O O9 0.500000 0.732935 0.866178
O O10 0.339144 0.500000 0.877592
O O11 0.500000 0.669793 0.367080
O O12 0.272893 0.500000 0.377042
O O13 0.253671 0.732378 0.326530
O O14 0.272622 0.763306 0.413105
O O15 0.184916 0.500000 0.280909
O O16 0.000000 0.281512 0.285239
O O17 0.774961 0.225040 0.500000
O O18 0.000000 0.165643 0.547837
O O19 0.769231 0.000000 0.555715
#
# Coordination Sequence:
#
# PCOD9557497 Si02
#       6
#     8   8   8   8   8   8
#     4  10  21  37  58  83 108 136 175 222 268 315
#     4   9  19  37  60  84 109 139 178 223 268 315
#     4  11  24  38  53  78 112 147 181 219 264 314
#     4  10  21  35  52  78 111 143 174 212 260 314
#     4   9  18  34  55  77 104 141 181 217 257 310
#     4   9  19  36  56  77 102 135 177 223 267 311
#
# _framework density 19.753086
#
# number of rings (size 3 to 8) (size 9 to 14) (size 15 to 20)
#    0.000    2.333    0.000    3.000    0.000    8.667 
#    0.000    8.333    0.000    0.000    0.000    0.000 
#    0.000    0.000    0.000    0.000    0.000    0.000 
#
# Total GULP energy -267527.098671 kJ/mol
# GULP energy per Si atom -5573.481222 kJ/mol
# Density = 1.970813 g / cm^3
# Si number density = 19.753086 Si / 1000 Ang^3
#
#
#
# Elastic Constant Matrix: (Units=GPa)
#
#
# Indices 1 2 3 4 5 6 
#
# 1 10.2170 21.8139 29.5320 0.0000 0.0000 0.0000
# 2 21.8139 10.2171 29.5319 0.0000 0.0000 0.0000
# 3 29.5320 29.5319 90.6490 0.0000 0.0000 0.0000
# 4 0.0000 0.0000 0.0000 25.3701 0.0000 0.0000
# 5 0.0000 0.0000 0.0000 0.0000 25.3704 0.0000
# 6 0.0000 0.0000 0.0000 0.0000 0.0000 -13.8783
#
#
#
# Elastic Compliance Matrix: (Units=1/GPa)
#
#
# Indices 1 2 3 4 5 6 
#
# 1 -0.004019 0.082212 -0.025474 0.000000 0.000000 0.000000
# 2 0.082212 -0.004018 -0.025474 0.000000 0.000000 0.000000
# 3 -0.025474 -0.025474 0.027630 0.000000 0.000000 0.000000
# 4 0.000000 0.000000 0.000000 0.039416 0.000000 0.000000
# 5 0.000000 0.000000 0.000000 0.000000 0.039416 0.000000
# 6 0.000000 0.000000 0.000000 0.000000 0.000000 -0.072055
#
#
# Mechanical properties :
#
#
# Convention : Reuss Voigt Hill
#
# Bulk Modulus (GPa) = 12.17736 30.31540 21.24638
# Shear Modulus (GPa) = -569.12179 9.38614 -279.86783
#
# Velocity S-wave (km/s) = -16.99245 2.18221 -11.91598
# Velocity P-wave (km/s) = 19.46312 4.66153 13.36194
#
# Compressibility (1/GPa) = 0.08211959
#
# Stress axis : x y z
#
# Youngs Moduli (GPa) = -248.78916 -248.85920 36.19309
#
# Poissons Ratio (x) = 20.45919 0.92197
# Poissons Ratio (y) = 20.45343 0.92199
# Poissons Ratio (z) = -6.33759 -6.33950
#
# Static dielectric constant tensor:
#      x y z
#    x 1.699520 0.000000 0.000000 
#    y 0.000000 1.699520 0.000000 
#    z 0.000000 0.000000 1.731640 
# 
# From -- ./inp_files/6001.got.cif
#   From: 2010.05.17/outbox.ucp.g08.bks.cvg/sg115_4_cif.got.tgz:6001.got - 2010.06.11 11:33:38.
