data_PCOD9557661
_publ_section_title
;
Structure prediction by ZEFSAII (Michael W. Deem and Ramdas Pophale) SiO2 
 PCOD9557661
Probable space group: P -4 C 2
;
_chemical_formula_sum "Si O2"
_cell_formula_units_Z 40
_cell_length_a 15.340671
_cell_length_b 15.340671
_cell_length_c 9.082650
_cell_angle_alpha 90.000000
_cell_angle_beta 90.000000
_cell_angle_gamma 90.000000
_cell_volume 2137.476216
_symmetry_space_group_name_H-M "P -4 C 2"
_symmetry_group_IT_number 116
_symmetry_cell_setting 'tetragonal'
loop_
_space_group_symop_operation_xyz
x,y,z
y,-x,-z
-x,-y,z
-y,x,-z
y,x,1/2-z
-y,-x,1/2-z
-x,y,1/2+z
x,-y,1/2+z
loop_
_atom_site_type_symbol
_atom_site_label
_atom_site_fract_x
_atom_site_fract_y
_atom_site_fract_z
Si Si1 0.591488 0.301045 0.660056
Si Si2 0.228767 0.794327 0.584522
Si Si3 0.790263 0.511043 0.061733
Si Si4 0.335694 0.897117 0.068056
Si Si5 0.921402 0.652792 0.589726
O O1 0.610998 0.389003 0.750000
O O2 0.686497 0.268983 0.603159
O O3 0.552725 0.233674 0.781139
O O4 0.528815 0.294246 0.520153
O O5 0.193631 0.806370 0.750000
O O6 0.153768 0.748619 0.490728
O O7 0.269572 0.877285 0.503822
O O8 0.861134 0.433354 0.072173
O O9 0.830274 0.585558 0.959283
O O10 0.326847 0.922071 0.237666
O O11 0.358533 0.982004 0.972387
#
# Coordination Sequence:
#
# PCOD9557661 Si02
#       5
#     8   8   8   8   8
#     4  10  20  38  60  87 117 162 210 255 321 375
#     4  10  20  39  61  84 126 167 209 251 311 382
#     4  11  21  36  60  90 119 159 204 262 316 379
#     4  12  22  38  58  91 129 162 208 258 321 381
#     4  11  25  35  60  94 128 163 206 263 319 374
#
# _framework density 18.713659
#
# number of rings (size 3 to 8) (size 9 to 14) (size 15 to 20)
#    0.000    1.200    6.000    2.400    2.800    1.600 
#    0.000    1.000    0.000    2.400    0.000    4.200 
#    0.000    0.000    0.000    0.000    0.000    0.000 
#
# Total GULP energy -223149.314522 kJ/mol
# GULP energy per Si atom -5578.732863 kJ/mol
# Density = 1.867107 g / cm^3
# Si number density = 18.713659 Si / 1000 Ang^3
#
#
#
# Elastic Constant Matrix: (Units=GPa)
#
#
# Indices 1 2 3 4 5 6 
#
# 1 30.8782 32.0026 6.1016 0.0000 0.0000 0.0000
# 2 32.0026 30.8771 6.1017 0.0000 0.0000 0.0000
# 3 6.1016 6.1017 97.7968 0.0000 0.0000 0.0000
# 4 0.0000 0.0000 0.0000 27.2152 0.0000 0.0000
# 5 0.0000 0.0000 0.0000 0.0000 27.2162 0.0000
# 6 0.0000 0.0000 0.0000 0.0000 0.0000 19.5257
#
#
#
# Elastic Compliance Matrix: (Units=1/GPa)
#
#
# Indices 1 2 3 4 5 6 
#
# 1 -0.436413 0.452519 -0.001005 0.000000 0.000000 0.000000
# 2 0.452519 -0.436429 -0.001003 0.000000 0.000000 0.000000
# 3 -0.001005 -0.001003 0.010351 0.000000 0.000000 0.000000
# 4 0.000000 0.000000 0.000000 0.036744 0.000000 0.000000
# 5 0.000000 0.000000 0.000000 0.000000 0.036743 0.000000
# 6 0.000000 0.000000 0.000000 0.000000 0.000000 0.051215
#
#
# Mechanical properties :
#
#
# Convention : Reuss Voigt Hill
#
# Bulk Modulus (GPa) = 25.95418 27.55153 26.75286
# Shear Modulus (GPa) = -3.07510 22.48117 9.70304
#
# Velocity S-wave (km/s) = -1.28328 3.46977 2.27953
# Velocity P-wave (km/s) = 3.42104 5.55041 4.61034
#
# Compressibility (1/GPa) = 0.03852943
#
# Stress axis : x y z
#
# Youngs Moduli (GPa) = -2.29141 -2.29133 96.61266
#
# Poissons Ratio (x) = 1.03687 0.09714
# Poissons Ratio (y) = 1.03691 0.09693
# Poissons Ratio (z) = -0.00230 -0.00230
#
# Static dielectric constant tensor:
#      x y z
#    x 1.645170 0.000000 0.000000 
#    y 0.000000 1.645170 0.000000 
#    z 0.000000 0.000000 1.662810 
# 
# From -- ./inp_files/769.got.cif
#   From: 2010.05.17/outbox.cif.g08.bks.cpg/sg116_1_cif.got.tgz:769.got - 2010.05.20 11:11:43.
