data_PCOD9557062
_publ_section_title
;
Structure prediction by ZEFSAII (Michael W. Deem and Ramdas Pophale) SiO2 
 PCOD9557062
Probable space group: P -4 M 2
;
_chemical_formula_sum "Si O2"
_cell_formula_units_Z 48
_cell_length_a 9.052267
_cell_length_b 9.052267
_cell_length_c 32.107702
_cell_angle_alpha 90.000000
_cell_angle_beta 90.000000
_cell_angle_gamma 90.000000
_cell_volume 2631.018694
_symmetry_space_group_name_H-M "P -4 M 2"
_symmetry_group_IT_number 115
_symmetry_cell_setting 'tetragonal'
loop_
_space_group_symop_operation_xyz
x,y,z
y,-x,-z
-x,-y,z
-y,x,-z
y,x,-z
-y,-x,-z
-x,y,z
x,-y,z
loop_
_atom_site_type_symbol
_atom_site_label
_atom_site_fract_x
_atom_site_fract_y
_atom_site_fract_z
Si Si1 0.671627 0.319882 0.045484
Si Si2 0.824063 0.324023 0.459851
Si Si3 0.326656 0.822545 0.869675
Si Si4 0.674487 0.822541 0.699726
Si Si5 0.179947 0.830535 0.214703
Si Si6 0.675799 0.824460 0.379740
O O1 0.500000 0.277956 0.049489
O O2 0.677246 0.500000 0.044212
O O3 0.757806 0.271906 0.086533
O O4 0.728933 0.271068 0.000000
O O5 0.750223 0.249778 0.500000
O O6 0.798874 0.500000 0.460555
O O7 0.754028 0.254725 0.418468
O O8 0.000000 0.298466 0.460332
O O9 0.500000 0.783736 0.864959
O O10 0.239486 0.770255 0.828922
O O11 0.317196 0.000000 0.871508
O O12 0.500000 0.793495 0.697225
O O13 0.737299 0.776809 0.744776
O O14 0.759314 0.741214 0.662819
O O15 0.696010 0.000000 0.695514
O O16 0.000000 0.828345 0.213791
O O17 0.227194 0.000000 0.218776
O O18 0.500000 0.799547 0.381700
O O19 0.702596 0.000000 0.381755
#
# Coordination Sequence:
#
# PCOD9557062 Si02
#       6
#     8   8   8   8   8   8
#     4   8  14  26  44  64  87 118 155 193 237 293
#     4  11  24  41  62  89 118 149 188 230 271 318
#     4   9  16  27  45  68  91 117 155 202 245 288
#     4  10  20  35  57  83 107 135 177 224 266 313
#     4   9  17  30  49  72  99 132 167 204 251 306
#     4  11  24  40  58  83 115 149 184 222 267 320
#
# _framework density 18.243884999999999
#
# number of rings (size 3 to 8) (size 9 to 14) (size 15 to 20)
#    0.000    2.333    0.000    3.500    0.000    9.667 
#    0.000    1.667    0.000    4.500    0.000    0.000 
#    0.000    0.000    0.000    0.000    0.000    0.000 
#
# Total GULP energy -267881.722716 kJ/mol
# GULP energy per Si atom -5580.869223 kJ/mol
# Density = 1.820236 g / cm^3
# Si number density = 18.243885 Si / 1000 Ang^3
#
#
#
# Elastic Constant Matrix: (Units=GPa)
#
#
# Indices 1 2 3 4 5 6 
#
# 1 72.3142 65.1479 74.3299 0.0000 0.0000 0.0000
# 2 65.1479 72.3149 74.3300 0.0000 0.0000 0.0000
# 3 74.3299 74.3300 199.4340 0.0000 0.0000 0.0000
# 4 0.0000 0.0000 0.0000 34.7248 0.0000 0.0000
# 5 0.0000 0.0000 0.0000 0.0000 34.7247 0.0000
# 6 0.0000 0.0000 0.0000 0.0000 0.0000 19.9873
#
#
#
# Elastic Compliance Matrix: (Units=1/GPa)
#
#
# Indices 1 2 3 4 5 6 
#
# 1 0.075861 -0.063674 -0.004542 0.000000 0.000000 0.000000
# 2 -0.063674 0.075860 -0.004542 0.000000 0.000000 0.000000
# 3 -0.004542 -0.004542 0.008400 0.000000 0.000000 0.000000
# 4 0.000000 0.000000 0.000000 0.028798 0.000000 0.000000
# 5 0.000000 0.000000 0.000000 0.000000 0.028798 0.000000
# 6 0.000000 0.000000 0.000000 0.000000 0.000000 0.050032
#
#
# Mechanical properties :
#
#
# Convention : Reuss Voigt Hill
#
# Bulk Modulus (GPa) = 68.46891 85.74208 77.10549
# Shear Modulus (GPa) = 11.95791 26.57103 19.26447
#
# Velocity S-wave (km/s) = 2.56295 3.82047 3.25305
# Velocity P-wave (km/s) = 6.80952 8.15849 7.51434
#
# Compressibility (1/GPa) = 0.01460517
#
# Stress axis : x y z
#
# Youngs Moduli (GPa) = 13.18198 13.18215 119.04916
#
# Poissons Ratio (x) = 0.83936 0.54075
# Poissons Ratio (y) = 0.83935 0.54071
# Poissons Ratio (z) = 0.05988 0.05987
#
# Static dielectric constant tensor:
#      x y z
#    x 1.614380 0.000000 0.000000 
#    y 0.000000 1.614380 0.000000 
#    z 0.000000 0.000000 1.613390 
# 
# From -- ./inp_files/6005.got.cif
#   From: 2010.05.17/outbox.cif.g08.bks.cpg/sg115_4_cif.got.tgz:6005.got - 2010.05.20 11:07:42.
