data_PCOD9557440
_publ_section_title
;
Structure prediction by ZEFSAII (Michael W. Deem and Ramdas Pophale) SiO2 
 PCOD9557440
Probable space group: P -4 M 2
;
_chemical_formula_sum "Si O2"
_cell_formula_units_Z 48
_cell_length_a 7.863183
_cell_length_b 7.863183
_cell_length_c 36.672783
_cell_angle_alpha 90.000000
_cell_angle_beta 90.000000
_cell_angle_gamma 90.000000
_cell_volume 2267.465223
_symmetry_space_group_name_H-M "P -4 M 2"
_symmetry_group_IT_number 115
_symmetry_cell_setting 'tetragonal'
loop_
_space_group_symop_operation_xyz
x,y,z
y,-x,-z
-x,-y,z
-y,x,-z
y,x,-z
-y,-x,-z
-x,y,z
x,-y,z
loop_
_atom_site_type_symbol
_atom_site_label
_atom_site_fract_x
_atom_site_fract_y
_atom_site_fract_z
Si Si1 0.295742 0.305298 0.193915
Si Si2 0.306259 0.295798 0.459589
Si Si3 0.798050 0.000000 0.592946
Si Si4 0.307358 0.201310 0.274069
Si Si5 0.790215 0.000000 0.676074
Si Si6 0.297373 0.191317 0.960759
Si Si7 0.303986 0.795425 0.883798
O O1 0.500000 0.307215 0.193655
O O2 0.231200 0.500000 0.194514
O O3 0.246144 0.224758 0.232350
O O4 0.243365 0.223734 0.155376
O O5 0.243348 0.243348 0.500000
O O6 0.500000 0.231959 0.453001
O O7 0.316711 0.500000 0.461604
O O8 0.168770 0.252066 0.429229
O O9 0.731991 0.000000 0.634316
O O10 0.000000 0.000000 0.595383
O O11 0.500000 0.272872 0.277505
O O12 0.167851 0.268015 0.302179
O O13 0.320063 0.000000 0.280429
O O14 0.000000 0.000000 0.676674
O O15 0.500000 0.182668 0.955001
O O16 0.230290 0.268366 0.922539
O O17 0.228685 0.000000 0.964205
O O18 0.273205 0.273205 0.000000
O O19 0.500000 0.730876 0.881035
O O20 0.308896 0.000000 0.887298
#
# Coordination Sequence:
#
# PCOD9557440 Si02
#       7
#     8   8   4   8   4   8   8
#     4   9  17  29  47  73  99 121 155 206 257 304
#     4   9  20  39  60  83 117 161 200 239 297 359
#     4  11  23  35  57  91 121 149 197 255 297 345
#     4   9  18  34  54  72  99 140 178 217 266 321
#     4   9  20  37  53  77 109 145 185 223 271 335
#     4   9  18  32  48  67  92 123 159 197 240 294
#     4   8  15  28  45  65  91 121 152 192 244 300
#
# _framework density 21.169011999999999
#
# number of rings (size 3 to 8) (size 9 to 14) (size 15 to 20)
#    0.000    3.000    0.000    1.750    2.333    2.000 
#    0.000    5.833    0.000    5.000    0.000    0.000 
#    0.000    0.000    0.000    0.000    0.000    0.000 
#
# Total GULP energy -267402.700675 kJ/mol
# GULP energy per Si atom -5570.889597 kJ/mol
# Density = 2.112083 g / cm^3
# Si number density = 21.169012 Si / 1000 Ang^3
#
#
#
# Elastic Constant Matrix: (Units=GPa)
#
#
# Indices 1 2 3 4 5 6 
#
# 1 45.3395 14.0111 51.6854 0.0000 0.0000 0.0000
# 2 14.0111 45.3395 51.6854 0.0000 0.0000 0.0000
# 3 51.6854 51.6854 235.9730 0.0000 0.0000 0.0000
# 4 0.0000 0.0000 0.0000 11.7349 0.0000 0.0000
# 5 0.0000 0.0000 0.0000 0.0000 11.7349 0.0000
# 6 0.0000 0.0000 0.0000 0.0000 0.0000 22.4888
#
#
#
# Elastic Compliance Matrix: (Units=1/GPa)
#
#
# Indices 1 2 3 4 5 6 
#
# 1 0.029580 -0.002339 -0.005967 0.000000 0.000000 0.000000
# 2 -0.002339 0.029580 -0.005967 0.000000 0.000000 0.000000
# 3 -0.005967 -0.005967 0.006852 0.000000 0.000000 0.000000
# 4 0.000000 0.000000 0.000000 0.085216 0.000000 0.000000
# 5 0.000000 0.000000 0.000000 0.000000 0.085216 0.000000
# 6 0.000000 0.000000 0.000000 0.000000 0.000000 0.044467
#
#
# Mechanical properties :
#
#
# Convention : Reuss Voigt Hill
#
# Bulk Modulus (GPa) = 26.69006 62.37955 44.53481
# Shear Modulus (GPa) = 15.53059 23.14307 19.33683
#
# Velocity S-wave (km/s) = 2.71153 3.31002 3.02561
# Velocity P-wave (km/s) = 4.73695 6.64377 5.76968
#
# Compressibility (1/GPa) = 0.03746713
#
# Stress axis : x y z
#
# Youngs Moduli (GPa) = 33.80607 33.80607 145.95274
#
# Poissons Ratio (x) = 0.07909 0.87085
# Poissons Ratio (y) = 0.07909 0.87085
# Poissons Ratio (z) = 0.20171 0.20171
#
# Static dielectric constant tensor:
#      x y z
#    x 8.879280 0.000000 0.000000 
#    y 0.000000 8.879280 0.000000 
#    z 0.000000 0.000000 1.806210 
# 
# From -- ./inp_files/6196.got.cif
#   From: 2010.05.17/outbox.cif.g08.bks.cpg/sg115_4_cif.got.tgz:6196.got - 2010.05.20 11:07:42.
