data_PCOD9557781
_publ_section_title
;
Structure prediction by ZEFSAII (Michael W. Deem and Ramdas Pophale) SiO2 
 PCOD9557781
Probable space group: P -4 C 2
;
_chemical_formula_sum "Si O2"
_cell_formula_units_Z 36
_cell_length_a 11.497533
_cell_length_b 11.497533
_cell_length_c 13.073854
_cell_angle_alpha 90.000000
_cell_angle_beta 90.000000
_cell_angle_gamma 90.000000
_cell_volume 1728.275448
_symmetry_space_group_name_H-M "P -4 C 2"
_symmetry_group_IT_number 116
_symmetry_cell_setting 'tetragonal'
loop_
_space_group_symop_operation_xyz
x,y,z
y,-x,-z
-x,-y,z
-y,x,-z
y,x,1/2-z
-y,-x,1/2-z
-x,y,1/2+z
x,-y,1/2+z
loop_
_atom_site_type_symbol
_atom_site_label
_atom_site_fract_x
_atom_site_fract_y
_atom_site_fract_z
Si Si1 0.305842 0.305842 0.250000
Si Si2 0.157300 0.324654 0.444446
Si Si3 0.282238 0.466154 0.606917
Si Si4 0.766144 0.905204 0.564593
Si Si5 0.000000 0.000000 0.500000
Si Si6 0.500000 0.500000 0.000000
Si Si7 0.253697 0.746304 0.250000
O O1 0.194678 0.321399 0.325212
O O2 0.412330 0.299656 0.332804
O O3 0.203069 0.438460 0.506708
O O4 0.222043 0.208347 0.490882
O O5 0.018418 0.310631 0.461944
O O6 0.410753 0.430889 0.568760
O O7 0.244625 0.371757 0.687715
O O8 0.895466 0.956088 0.567815
O O9 0.740930 0.853590 0.674063
#
# Coordination Sequence:
#
# PCOD9557781 Si02
#       7
#     4   8   8   8   2   2   4
#     4  12  24  41  68  95 122 174 226 264 324 403
#     4  10  23  42  65  95 136 168 221 270 338 389
#     4  11  23  40  64  95 120 164 216 280 318 377
#     4   9  20  40  63  94 130 173 211 273 321 392
#     4   8  16  34  64  88 120 170 228 254 304 372
#     4  12  20  42  72  80 118 160 220 270 308 372
#     4  10  22  38  64  94 130 160 218 260 330 386
#
# _framework density 20.830013999999998
#
# number of rings (size 3 to 8) (size 9 to 14) (size 15 to 20)
#    0.000    1.778    2.222    1.333    0.000    7.556 
#    0.000    6.667    0.000    0.000    0.000    0.000 
#    0.000    0.000    0.000    0.000    0.000    0.000 
#
# Total GULP energy -200460.209880 kJ/mol
# GULP energy per Si atom -5568.339163 kJ/mol
# Density = 2.078260 g / cm^3
# Si number density = 20.830014 Si / 1000 Ang^3
#
#
#
# Elastic Constant Matrix: (Units=GPa)
#
#
# Indices 1 2 3 4 5 6 
#
# 1 82.2261 27.0315 28.4263 0.0000 0.0000 0.0000
# 2 27.0315 82.2272 28.4258 0.0000 0.0000 0.0000
# 3 28.4263 28.4258 95.1836 0.0000 0.0000 0.0000
# 4 0.0000 0.0000 0.0000 7.8071 0.0000 0.0000
# 5 0.0000 0.0000 0.0000 0.0000 7.8082 0.0000
# 6 0.0000 0.0000 0.0000 0.0000 0.0000 -117.5173
#
#
#
# Elastic Compliance Matrix: (Units=1/GPa)
#
#
# Indices 1 2 3 4 5 6 
#
# 1 0.014477 -0.003640 -0.003236 0.000000 0.000000 0.000000
# 2 -0.003640 0.014477 -0.003236 0.000000 0.000000 0.000000
# 3 -0.003236 -0.003236 0.012439 0.000000 0.000000 0.000000
# 4 0.000000 0.000000 0.000000 0.128088 0.000000 0.000000
# 5 0.000000 0.000000 0.000000 0.000000 0.128071 0.000000
# 6 0.000000 0.000000 0.000000 0.000000 0.000000 -0.008509
#
#
# Mechanical properties :
#
#
# Convention : Reuss Voigt Hill
#
# Bulk Modulus (GPa) = 47.24316 47.48934 47.36625
# Shear Modulus (GPa) = 15.80655 -8.66351 3.57152
#
# Velocity S-wave (km/s) = 2.75768 -2.04161 1.31085
# Velocity P-wave (km/s) = 5.73318 4.15818 5.00798
#
# Compressibility (1/GPa) = 0.02116708
#
# Stress axis : x y z
#
# Youngs Moduli (GPa) = 69.07400 69.07530 80.39219
#
# Poissons Ratio (x) = 0.25147 0.26018
# Poissons Ratio (y) = 0.25146 0.26017
# Poissons Ratio (z) = 0.22355 0.22354
#
# Static dielectric constant tensor:
#      x y z
#    x 1.781120 0.000000 0.000000 
#    y 0.000000 1.781120 0.000000 
#    z 0.000000 0.000000 1.713170 
# 
# From -- ./inp_files/1784.got.cif
#   From: 2010.05.17/outbox.cif.g08.bks.cpg/sg116_1_cif.got.tgz:1784.got - 2010.05.20 11:11:43.
