data_PCOD9557058
_publ_section_title
;
Structure prediction by ZEFSAII (Michael W. Deem and Ramdas Pophale) SiO2 
 PCOD9557058
Probable space group: P -4 M 2
;
_chemical_formula_sum "Si O2"
_cell_formula_units_Z 48
_cell_length_a 9.227997
_cell_length_b 9.227997
_cell_length_c 31.613838
_cell_angle_alpha 90.000000
_cell_angle_beta 90.000000
_cell_angle_gamma 90.000000
_cell_volume 2692.105733
_symmetry_space_group_name_H-M "P -4 M 2"
_symmetry_group_IT_number 115
_symmetry_cell_setting 'tetragonal'
loop_
_space_group_symop_operation_xyz
x,y,z
y,-x,-z
-x,-y,z
-y,x,-z
y,x,-z
-y,-x,-z
-x,y,z
x,-y,z
loop_
_atom_site_type_symbol
_atom_site_label
_atom_site_fract_x
_atom_site_fract_y
_atom_site_fract_z
Si Si1 0.172679 0.671676 0.961259
Si Si2 0.333442 0.823628 0.788916
Si Si3 0.828205 0.172186 0.549067
Si Si4 0.174195 0.828866 0.296825
Si Si5 0.172213 0.172552 0.874172
Si Si6 0.671241 0.327534 0.625179
O O1 0.197346 0.500000 0.959892
O O2 0.215019 0.744379 0.916718
O O3 0.000000 0.697033 0.966740
O O4 0.256571 0.743430 0.000000
O O5 0.500000 0.776154 0.786420
O O6 0.244329 0.780105 0.747397
O O7 0.258206 0.778229 0.832612
O O8 0.332182 0.000000 0.789316
O O9 0.794803 0.205198 0.500000
O O10 0.735921 0.262565 0.582076
O O11 0.000000 0.198549 0.555627
O O12 0.804318 0.000000 0.555465
O O13 0.252506 0.752588 0.335793
O O14 0.000000 0.810484 0.301224
O O15 0.204106 0.000000 0.296238
O O16 0.000000 0.193627 0.867268
O O17 0.196034 0.000000 0.880049
O O18 0.500000 0.297561 0.627862
O O19 0.693044 0.500000 0.626418
#
# Coordination Sequence:
#
# PCOD9557058 Si02
#       6
#     8   8   8   8   8   8
#     4  10  21  36  54  77 105 138 177 219 263 313
#     4   9  17  30  51  79 107 135 171 216 264 313
#     4   9  19  37  60  84 108 136 175 221 265 312
#     4  10  20  35  57  82 106 136 178 224 266 311
#     4   9  17  31  52  76 102 133 171 215 261 310
#     4  11  24  38  52  76 111 146 179 217 263 316
#
# _framework density 17.829906999999999
#
# number of rings (size 3 to 8) (size 9 to 14) (size 15 to 20)
#    0.000    2.333    0.000    3.000    0.000    9.000 
#    0.000    5.000    0.000    3.000    0.000    0.000 
#    0.000    0.000    0.000    0.000    0.000    0.000 
#
# Total GULP energy -267974.401008 kJ/mol
# GULP energy per Si atom -5582.800021 kJ/mol
# Density = 1.778933 g / cm^3
# Si number density = 17.829907 Si / 1000 Ang^3
#
#
#
# Elastic Constant Matrix: (Units=GPa)
#
#
# Indices 1 2 3 4 5 6 
#
# 1 82.6892 73.6382 99.1366 0.0000 0.0000 0.0000
# 2 73.6382 82.6893 99.1372 0.0000 0.0000 0.0000
# 3 99.1366 99.1372 188.5526 0.0000 0.0000 0.0000
# 4 0.0000 0.0000 0.0000 -19.6894 0.0000 0.0000
# 5 0.0000 0.0000 0.0000 0.0000 -19.6909 0.0000
# 6 0.0000 0.0000 0.0000 0.0000 0.0000 23.5467
#
#
#
# Elastic Compliance Matrix: (Units=1/GPa)
#
#
# Indices 1 2 3 4 5 6 
#
# 1 0.064842 -0.045641 -0.010095 0.000000 0.000000 0.000000
# 2 -0.045641 0.064844 -0.010096 0.000000 0.000000 0.000000
# 3 -0.010095 -0.010096 0.015920 0.000000 0.000000 0.000000
# 4 0.000000 0.000000 0.000000 -0.050789 0.000000 0.000000
# 5 0.000000 0.000000 0.000000 0.000000 -0.050785 0.000000
# 6 0.000000 0.000000 0.000000 0.000000 0.000000 0.042469
#
#
# Mechanical properties :
#
#
# Convention : Reuss Voigt Hill
#
# Bulk Modulus (GPa) = 71.73684 99.75059 85.74371
# Shear Modulus (GPa) = 22.44035 2.30122 12.37079
#
# Velocity S-wave (km/s) = 3.55149 1.13730 2.63691
# Velocity P-wave (km/s) = 7.55902 7.60209 7.58059
#
# Compressibility (1/GPa) = 0.01393984
#
# Stress axis : x y z
#
# Youngs Moduli (GPa) = 15.42206 15.42175 62.81497
#
# Poissons Ratio (x) = 0.70387 0.63413
# Poissons Ratio (y) = 0.70388 0.63420
# Poissons Ratio (z) = 0.15569 0.15570
#
# Static dielectric constant tensor:
#      x y z
#    x 1.590460 0.000000 0.000000 
#    y 0.000000 1.590460 0.000000 
#    z 0.000000 0.000000 1.582020 
# 
# From -- ./inp_files/6115.got.cif
#   From: 2010.05.17/outbox.cif.g08.bks.cpg/sg115_4_cif.got.tgz:6115.got - 2010.05.20 11:07:42.
