data_PCOD9557573
_publ_section_title
;
Structure prediction by ZEFSAII (Michael W. Deem and Ramdas Pophale) SiO2 
 PCOD9557573
Probable space group: P -4 C 2
;
_chemical_formula_sum "Si O2"
_cell_formula_units_Z 40
_cell_length_a 11.518907
_cell_length_b 11.518907
_cell_length_c 16.111437
_cell_angle_alpha 90.000000
_cell_angle_beta 90.000000
_cell_angle_gamma 90.000000
_cell_volume 2137.749538
_symmetry_space_group_name_H-M "P -4 C 2"
_symmetry_group_IT_number 116
_symmetry_cell_setting 'tetragonal'
loop_
_space_group_symop_operation_xyz
x,y,z
y,-x,-z
-x,-y,z
-y,x,-z
y,x,1/2-z
-y,-x,1/2-z
-x,y,1/2+z
x,-y,1/2+z
loop_
_atom_site_type_symbol
_atom_site_label
_atom_site_fract_x
_atom_site_fract_y
_atom_site_fract_z
Si Si1 0.441168 0.657908 0.109302
Si Si2 0.160513 0.739428 0.670014
Si Si3 0.935205 0.376988 0.111226
Si Si4 0.734566 0.514235 0.703831
Si Si5 0.671937 0.745422 0.019374
O O1 0.467706 0.706159 0.200480
O O2 0.373193 0.539437 0.140347
O O3 0.558454 0.679136 0.056654
O O4 0.343882 0.717829 0.050919
O O5 0.179638 0.820363 0.750000
O O6 0.215003 0.613690 0.693488
O O7 0.238196 0.773657 0.591537
O O8 0.029384 0.716576 0.640200
O O9 0.834137 0.395398 0.178711
O O10 0.000000 0.500000 0.104150
O O11 0.864900 0.357133 0.026839
#
# Coordination Sequence:
#
# PCOD9557573 Si02
#       5
#     8   8   8   8   8
#     4  10  19  33  54  87 120 156 187 232 296 354
#     4  11  21  39  56  86 120 159 201 244 301 360
#     4   9  20  39  58  82 117 152 201 249 284 354
#     4   9  19  36  56  84 124 157 197 231 295 368
#     4  11  21  36  57  88 120 152 198 237 298 358
#
# _framework density 18.711265000000001
#
# number of rings (size 3 to 8) (size 9 to 14) (size 15 to 20)
#    0.000    2.000    2.000    3.600    0.000    2.800 
#    7.200    0.000    0.000    0.600    0.000    0.000 
#    0.000    0.000    0.000    0.000    0.000    0.000 
#
# Total GULP energy -222815.776758 kJ/mol
# GULP energy per Si atom -5570.394419 kJ/mol
# Density = 1.866868 g / cm^3
# Si number density = 18.711265 Si / 1000 Ang^3
#
#
#
# Elastic Constant Matrix: (Units=GPa)
#
#
# Indices 1 2 3 4 5 6 
#
# 1 76.3561 28.8332 33.7633 0.0000 0.0000 0.0000
# 2 28.8332 76.3560 33.7633 0.0000 0.0000 0.0000
# 3 33.7633 33.7633 122.1121 0.0000 0.0000 0.0000
# 4 0.0000 0.0000 0.0000 20.3820 0.0000 0.0000
# 5 0.0000 0.0000 0.0000 0.0000 20.3810 0.0000
# 6 0.0000 0.0000 0.0000 0.0000 0.0000 11.3104
#
#
#
# Elastic Compliance Matrix: (Units=1/GPa)
#
#
# Indices 1 2 3 4 5 6 
#
# 1 0.016300 -0.004742 -0.003196 0.000000 0.000000 0.000000
# 2 -0.004742 0.016300 -0.003196 0.000000 0.000000 0.000000
# 3 -0.003196 -0.003196 0.009956 0.000000 0.000000 0.000000
# 4 0.000000 0.000000 0.000000 0.049063 0.000000 0.000000
# 5 0.000000 0.000000 0.000000 0.000000 0.049065 0.000000
# 6 0.000000 0.000000 0.000000 0.000000 0.000000 0.088414
#
#
# Mechanical properties :
#
#
# Convention : Reuss Voigt Hill
#
# Bulk Modulus (GPa) = 49.28600 51.94930 50.61765
# Shear Modulus (GPa) = 19.37008 22.31232 20.84120
#
# Velocity S-wave (km/s) = 3.22096 3.45694 3.34103
# Velocity P-wave (km/s) = 6.34273 6.61497 6.48028
#
# Compressibility (1/GPa) = 0.02028974
#
# Stress axis : x y z
#
# Youngs Moduli (GPa) = 61.34846 61.34834 100.43764
#
# Poissons Ratio (x) = 0.29092 0.32098
# Poissons Ratio (y) = 0.29092 0.32098
# Poissons Ratio (z) = 0.19606 0.19606
#
# Static dielectric constant tensor:
#      x y z
#    x 1.678780 0.000000 0.000000 
#    y 0.000000 1.678780 0.000000 
#    z 0.000000 0.000000 1.647850 
# 
# From -- ./inp_files/2577.got.cif
#   From: 2010.05.17/outbox.cif.g08.bks.cpg/sg116_2_cif.got.tgz:2577.got - 2010.05.20 11:11:43.
