data_PCOD9557116
_publ_section_title
;
Structure prediction by ZEFSAII (Michael W. Deem and Ramdas Pophale) SiO2 
 PCOD9557116
Probable space group: P -4 M 2
;
_chemical_formula_sum "Si O2"
_cell_formula_units_Z 29
_cell_length_a 7.646441
_cell_length_b 7.646441
_cell_length_c 22.617066
_cell_angle_alpha 90.000000
_cell_angle_beta 90.000000
_cell_angle_gamma 90.000000
_cell_volume 1322.375971
_symmetry_space_group_name_H-M "P -4 M 2"
_symmetry_group_IT_number 115
_symmetry_cell_setting 'tetragonal'
loop_
_space_group_symop_operation_xyz
x,y,z
y,-x,-z
-x,-y,z
-y,x,-z
y,x,-z
-y,-x,-z
-x,y,z
x,-y,z
loop_
_atom_site_type_symbol
_atom_site_label
_atom_site_fract_x
_atom_site_fract_y
_atom_site_fract_z
Si Si1 0.500000 0.500000 0.500000
Si Si2 0.296427 0.798804 0.321303
Si Si3 0.787744 0.790491 0.063593
Si Si4 0.812890 0.500000 0.408275
Si Si5 0.792892 0.211271 0.190856
O O1 0.664839 0.500000 0.456991
O O2 0.500000 0.801095 0.337454
O O3 0.204327 0.667855 0.365693
O O4 0.283265 0.732972 0.253475
O O5 0.230466 0.000000 0.323078
O O6 0.725070 0.722178 0.127278
O O7 0.000000 0.770315 0.063980
O O8 0.754854 0.000000 0.063189
O O9 0.722950 0.722950 0.000000
O O10 0.000000 0.500000 0.438273
O O11 0.000000 0.247262 0.193264
O O12 0.770180 0.000000 0.189103
#
# Coordination Sequence:
#
# PCOD9557116 Si02
#       5
#     1   8   8   4   8
#     4  12  28  52  68 104 140 160 210 244 292 368
#     4  10  20  37  62  93 130 168 211 262 312 367
#     4   7   9  14  27  53  93 139 188 248 313 366
#     4  12  26  46  74 100 132 173 205 250 303 357
#     4   8  13  22  40  71 108 146 198 259 312 367
#
# _framework density 21.930219999999998
#
# number of rings (size 3 to 8) (size 9 to 14) (size 15 to 20)
#    0.000    3.034    1.379    3.310    0.000    2.759 
#    0.000    0.000    0.000    0.000    3.586    0.000 
#    0.000    0.000    0.000    0.000    0.000    0.000 
#
# Total GULP energy -161716.069062 kJ/mol
# GULP energy per Si atom -5576.416175 kJ/mol
# Density = 2.188031 g / cm^3
# Si number density = 21.930220 Si / 1000 Ang^3
#
#
#
# Elastic Constant Matrix: (Units=GPa)
#
#
# Indices 1 2 3 4 5 6 
#
# 1 71.8338 13.7546 56.4198 0.0000 0.0000 0.0000
# 2 13.7546 71.8338 56.4198 0.0000 0.0000 0.0000
# 3 56.4198 56.4198 138.7440 0.0000 0.0000 0.0000
# 4 0.0000 0.0000 0.0000 13.4340 0.0000 0.0000
# 5 0.0000 0.0000 0.0000 0.0000 13.4340 0.0000
# 6 0.0000 0.0000 0.0000 0.0000 0.0000 -8.0611
#
#
#
# Elastic Compliance Matrix: (Units=1/GPa)
#
#
# Indices 1 2 3 4 5 6 
#
# 1 0.021203 0.003985 -0.010242 0.000000 0.000000 0.000000
# 2 0.003985 0.021203 -0.010242 0.000000 0.000000 0.000000
# 3 -0.010242 -0.010242 0.015538 0.000000 0.000000 0.000000
# 4 0.000000 0.000000 0.000000 0.074438 0.000000 0.000000
# 5 0.000000 0.000000 0.000000 0.000000 0.074438 0.000000
# 6 0.000000 0.000000 0.000000 0.000000 0.000000 -0.124053
#
#
# Mechanical properties :
#
#
# Convention : Reuss Voigt Hill
#
# Bulk Modulus (GPa) = 40.09170 59.51113 49.80142
# Shear Modulus (GPa) = 40.29651 14.14920 27.22286
#
# Velocity S-wave (km/s) = 4.29124 2.54282 3.52709
# Velocity P-wave (km/s) = 6.54784 5.98471 6.27260
#
# Compressibility (1/GPa) = 0.02494282
#
# Stress axis : x y z
#
# Youngs Moduli (GPa) = 47.16400 47.16400 64.36018
#
# Poissons Ratio (x) = -0.18794 0.65920
# Poissons Ratio (y) = -0.18794 0.65920
# Poissons Ratio (z) = 0.48307 0.48307
#
# Static dielectric constant tensor:
#      x y z
#    x 1.816850 0.000000 0.000000 
#    y 0.000000 1.816850 0.000000 
#    z 0.000000 0.000000 1.808840 
# 
# From -- ./inp_files/4540.got.cif
#   From: 2010.05.17/outbox.cif.g08.bks.cpg/sg115_3_cif.got.tgz:4540.got - 2010.05.20 11:07:42.
