data_PCOD9557276
_publ_section_title
;
Structure prediction by ZEFSAII (Michael W. Deem and Ramdas Pophale) SiO2 
 PCOD9557276
Probable space group: P -4 M 2
;
_chemical_formula_sum "Si O2"
_cell_formula_units_Z 48
_cell_length_a 9.181722
_cell_length_b 9.181722
_cell_length_c 31.770980
_cell_angle_alpha 90.000000
_cell_angle_beta 90.000000
_cell_angle_gamma 90.000000
_cell_volume 2678.421298
_symmetry_space_group_name_H-M "P -4 M 2"
_symmetry_group_IT_number 115
_symmetry_cell_setting 'tetragonal'
loop_
_space_group_symop_operation_xyz
x,y,z
y,-x,-z
-x,-y,z
-y,x,-z
y,x,-z
-y,-x,-z
-x,y,z
x,-y,z
loop_
_atom_site_type_symbol
_atom_site_label
_atom_site_fract_x
_atom_site_fract_y
_atom_site_fract_z
Si Si1 0.675356 0.329818 0.046642
Si Si2 0.830229 0.824833 0.123242
Si Si3 0.824379 0.171009 0.217574
Si Si4 0.673491 0.173786 0.539617
Si Si5 0.669956 0.325538 0.705309
Si Si6 0.172710 0.325667 0.618063
O O1 0.500000 0.321275 0.047308
O O2 0.715256 0.500000 0.050655
O O3 0.741291 0.242755 0.085244
O O4 0.722302 0.277699 0.000000
O O5 0.780157 0.781902 0.170306
O O6 0.000000 0.783536 0.119035
O O7 0.822448 0.000000 0.121748
O O8 0.752550 0.264284 0.254084
O O9 0.000000 0.181016 0.219504
O O10 0.786323 0.000000 0.222853
O O11 0.748191 0.251810 0.500000
O O12 0.500000 0.200658 0.539444
O O13 0.745334 0.239167 0.581555
O O14 0.696603 0.000000 0.537290
O O15 0.500000 0.289164 0.699582
O O16 0.681620 0.500000 0.710793
O O17 0.760068 0.287058 0.663410
O O18 0.193656 0.500000 0.611810
O O19 0.000000 0.296884 0.617082
#
# Coordination Sequence:
#
# PCOD9557276 Si02
#       6
#     8   8   8   8   8   8
#     4   9  19  35  52  72 101 135 170 210 257 310
#     4   9  19  35  53  75 103 134 171 215 261 311
#     4   9  19  36  55  75 103 139 176 215 262 314
#     4  11  24  40  59  85 115 147 184 224 268 319
#     4  10  21  36  55  81 111 142 178 220 266 316
#     4  10  21  38  60  84 110 143 183 224 267 316
#
# _framework density 17.921004
#
# number of rings (size 3 to 8) (size 9 to 14) (size 15 to 20)
#    0.000    2.333    0.000    3.500    0.000    9.000 
#    0.000    7.500    0.000    0.000    0.000    0.000 
#    0.000    0.000    0.000    0.000    0.000    0.000 
#
# Total GULP energy -267936.813178 kJ/mol
# GULP energy per Si atom -5582.016941 kJ/mol
# Density = 1.788022 g / cm^3
# Si number density = 17.921004 Si / 1000 Ang^3
#
#
#
# Elastic Constant Matrix: (Units=GPa)
#
#
# Indices 1 2 3 4 5 6 
#
# 1 64.7350 52.9519 75.4892 0.0000 0.0000 0.0000
# 2 52.9519 64.7355 75.4889 0.0000 0.0000 0.0000
# 3 75.4892 75.4889 184.5763 0.0000 0.0000 0.0000
# 4 0.0000 0.0000 0.0000 39.5797 0.0000 0.0000
# 5 0.0000 0.0000 0.0000 0.0000 39.5796 0.0000
# 6 0.0000 0.0000 0.0000 0.0000 0.0000 32.3202
#
#
#
# Elastic Compliance Matrix: (Units=1/GPa)
#
#
# Indices 1 2 3 4 5 6 
#
# 1 0.051371 -0.033494 -0.007312 0.000000 0.000000 0.000000
# 2 -0.033494 0.051370 -0.007311 0.000000 0.000000 0.000000
# 3 -0.007312 -0.007311 0.011398 0.000000 0.000000 0.000000
# 4 0.000000 0.000000 0.000000 0.025265 0.000000 0.000000
# 5 0.000000 0.000000 0.000000 0.000000 0.025266 0.000000
# 6 0.000000 0.000000 0.000000 0.000000 0.000000 0.030940
#
#
# Mechanical properties :
#
#
# Convention : Reuss Voigt Hill
#
# Bulk Modulus (GPa) = 55.84635 80.21187 68.02911
# Shear Modulus (GPa) = 16.78903 29.63705 23.21304
#
# Velocity S-wave (km/s) = 3.06410 4.07106 3.60293
# Velocity P-wave (km/s) = 6.61426 8.18253 7.43983
#
# Compressibility (1/GPa) = 0.01790627
#
# Stress axis : x y z
#
# Youngs Moduli (GPa) = 19.46609 19.46650 87.73315
#
# Poissons Ratio (x) = 0.65202 0.64146
# Poissons Ratio (y) = 0.65200 0.64141
# Poissons Ratio (z) = 0.14233 0.14232
#
# Static dielectric constant tensor:
#      x y z
#    x 1.596000 0.000000 0.000000 
#    y 0.000000 1.596000 0.000000 
#    z 0.000000 0.000000 1.593470 
# 
# From -- ./inp_files/6008.got.cif
#   From: 2010.05.17/outbox.cif.g08.bks.cpg/sg115_4_cif.got.tgz:6008.got - 2010.05.20 11:07:42.
