data_PCOD9557492
_publ_section_title
;
Structure prediction by ZEFSAII (Michael W. Deem and Ramdas Pophale) SiO2 
 PCOD9557492
Probable space group: P -4 M 2
;
_chemical_formula_sum "Si O2"
_cell_formula_units_Z 40
_cell_length_a 9.000000
_cell_length_b 9.000000
_cell_length_c 27.000000
_cell_angle_alpha 90.000000
_cell_angle_beta 90.000000
_cell_angle_gamma 90.000000
_cell_volume 2187.000000
_symmetry_space_group_name_H-M "P -4 M 2"
_symmetry_group_IT_number 115
_symmetry_cell_setting 'tetragonal'
loop_
_space_group_symop_operation_xyz
x,y,z
y,-x,-z
-x,-y,z
-y,x,-z
y,x,-z
-y,-x,-z
-x,y,z
x,-y,z
loop_
_atom_site_type_symbol
_atom_site_label
_atom_site_fract_x
_atom_site_fract_y
_atom_site_fract_z
Si Si1 0.178238 0.821763 0.000000
Si Si2 0.323583 0.674505 0.797159
Si Si3 0.178196 0.822380 0.892221
Si Si4 0.181134 0.670865 0.398636
Si Si5 0.820840 0.172995 0.297491
Si Si6 0.177027 0.177027 0.500000
O O1 0.232311 0.767501 0.946511
O O2 0.000000 0.799355 0.000131
O O3 0.500000 0.695438 0.797676
O O4 0.290290 0.500000 0.795200
O O5 0.254693 0.743250 0.846652
O O6 0.256616 0.752612 0.748998
O O7 0.000000 0.800686 0.889617
O O8 0.203740 0.000000 0.889239
O O9 0.226449 0.500000 0.395617
O O10 0.229190 0.758104 0.349708
O O11 0.230029 0.743897 0.450073
O O12 0.000000 0.676138 0.399106
O O13 0.000000 0.185578 0.295181
O O14 0.782207 0.000000 0.295354
O O15 0.000000 0.200545 0.505237
#
# Coordination Sequence:
#
# PCOD9557492 Si02
#       6
#     4   8   8   8   8   4
#     4   7  12  26  50  79 106 128 158 207 258 299
#     4  11  24  38  50  70 104 142 175 209 254 307
#     4   9  17  32  56  82 104 130 168 212 256 303
#     4   9  17  30  50  76 104 133 166 206 252 301
#     4  10  20  35  57  82 103 128 169 218 264 309
#     4   9  16  28  48  73 100 130 166 207 246 288
#
# _framework density 18.289895000000001
#
# number of rings (size 3 to 8) (size 9 to 14) (size 15 to 20)
#    0.000    2.600    0.000    3.600    0.000    8.000 
#    0.000    2.000    0.000    8.700    0.000    0.000 
#    0.000    0.000    0.000    0.000    0.000    0.000 
#
# Total GULP energy -223061.793786 kJ/mol
# GULP energy per Si atom -5576.544845 kJ/mol
# Density = 1.824827 g / cm^3
# Si number density = 18.289895 Si / 1000 Ang^3
#
#
#
# Elastic Constant Matrix: (Units=GPa)
#
#
# Indices 1 2 3 4 5 6 
#
# 1 6.0343 34.7615 28.3342 0.0000 0.0000 0.0000
# 2 34.7615 6.0346 28.3342 0.0000 0.0000 0.0000
# 3 28.3342 28.3342 160.9153 0.0000 0.0000 0.0000
# 4 0.0000 0.0000 0.0000 -44.3942 0.0000 0.0000
# 5 0.0000 0.0000 0.0000 0.0000 -44.3927 0.0000
# 6 0.0000 0.0000 0.0000 0.0000 0.0000 19.2889
#
#
#
# Elastic Compliance Matrix: (Units=1/GPa)
#
#
# Indices 1 2 3 4 5 6 
#
# 1 -0.001181 0.033630 -0.005714 0.000000 0.000000 0.000000
# 2 0.033630 -0.001181 -0.005714 0.000000 0.000000 0.000000
# 3 -0.005714 -0.005714 0.008227 0.000000 0.000000 0.000000
# 4 0.000000 0.000000 0.000000 -0.022525 0.000000 0.000000
# 5 0.000000 0.000000 0.000000 0.000000 -0.022526 0.000000
# 6 0.000000 0.000000 0.000000 0.000000 0.000000 0.051843
#
#
# Mechanical properties :
#
#
# Convention : Reuss Voigt Hill
#
# Bulk Modulus (GPa) = 19.89266 39.53822 29.71544
# Shear Modulus (GPa) = -333.52715 -8.46266 -170.99491
#
# Velocity S-wave (km/s) = -13.51857 -2.15337 -9.67959
# Velocity P-wave (km/s) = 15.25678 3.93469 10.42323
#
# Compressibility (1/GPa) = 0.05026980
#
# Stress axis : x y z
#
# Youngs Moduli (GPa) = -846.81815 -847.04922 121.55711
#
# Poissons Ratio (x) = 28.48596 0.69453
# Poissons Ratio (y) = 28.47819 0.69454
# Poissons Ratio (z) = -4.83840 -4.83977
#
# Static dielectric constant tensor:
#      x y z
#    x 1.609060 0.000000 0.000000 
#    y 0.000000 1.609060 0.000000 
#    z 0.000000 0.000000 1.625220 
# 
# From -- ./inp_files/5569.got.cif
#   From: 2010.05.17/outbox.ucp.g08.bks.cvg/sg115_3_cif.got.tgz:5569.got - 2010.06.11 11:33:38.
