data_PCOD9557367
_publ_section_title
;
Structure prediction by ZEFSAII (Michael W. Deem and Ramdas Pophale) SiO2 
 PCOD9557367
Probable space group: P -4 M 2
;
_chemical_formula_sum "Si O2"
_cell_formula_units_Z 17
_cell_length_a 7.867007
_cell_length_b 7.867007
_cell_length_c 13.564055
_cell_angle_alpha 90.000000
_cell_angle_beta 90.000000
_cell_angle_gamma 90.000000
_cell_volume 839.476639
_symmetry_space_group_name_H-M "P -4 M 2"
_symmetry_group_IT_number 115
_symmetry_cell_setting 'tetragonal'
loop_
_space_group_symop_operation_xyz
x,y,z
y,-x,-z
-x,-y,z
-y,x,-z
y,x,-z
-y,-x,-z
-x,y,z
x,-y,z
loop_
_atom_site_type_symbol
_atom_site_label
_atom_site_fract_x
_atom_site_fract_y
_atom_site_fract_z
Si Si1 0.802131 0.697232 0.782835
Si Si2 0.000000 0.000000 0.500000
Si Si3 0.298742 0.701259 0.000000
Si Si4 0.000000 0.314096 0.352152
O O1 0.741560 0.500000 0.775631
O O2 0.787955 0.749740 0.897688
O O3 0.706550 0.833095 0.716107
O O4 0.000000 0.700379 0.754298
O O5 0.000000 0.834557 0.431530
O O6 0.500000 0.730166 0.985955
O O7 0.000000 0.500000 0.398846
#
# Coordination Sequence:
#
# PCOD9557367 Si02
#       4
#     8   1   4   4
#     4  10  21  39  64  97 137 176 216 260 308 376
#     4  12  28  52  64 102 124 152 216 276 340 398
#     4   9  18  32  53  90 138 180 219 255 296 366
#     4  12  26  46  73  95 126 167 209 270 333 388
#
# _framework density 20.250709000000001
#
# number of rings (size 3 to 8) (size 9 to 14) (size 15 to 20)
#    0.000    1.647    2.353    1.412    3.294    4.706 
#    0.000    0.000    0.000    0.000    0.000    0.000 
#    0.000    0.000    0.000    0.000    0.000    0.000 
#
# Total GULP energy -94990.076764 kJ/mol
# GULP energy per Si atom -5587.651574 kJ/mol
# Density = 2.020462 g / cm^3
# Si number density = 20.250709 Si / 1000 Ang^3
#
#
#
# Elastic Constant Matrix: (Units=GPa)
#
#
# Indices 1 2 3 4 5 6 
#
# 1 102.9456 39.2061 50.8697 0.0000 0.0000 0.0000
# 2 39.2061 102.9448 50.8697 0.0000 0.0000 0.0000
# 3 50.8697 50.8697 90.3582 0.0000 0.0000 0.0000
# 4 0.0000 0.0000 0.0000 265.8263 0.0000 0.0000
# 5 0.0000 0.0000 0.0000 0.0000 265.7879 0.0000
# 6 0.0000 0.0000 0.0000 0.0000 0.0000 15.1074
#
#
#
# Elastic Compliance Matrix: (Units=1/GPa)
#
#
# Indices 1 2 3 4 5 6 
#
# 1 0.013735 -0.001953 -0.006633 0.000000 0.000000 0.000000
# 2 -0.001953 0.013736 -0.006633 0.000000 0.000000 0.000000
# 3 -0.006633 -0.006633 0.018536 0.000000 0.000000 0.000000
# 4 0.000000 0.000000 0.000000 0.003762 0.000000 0.000000
# 5 0.000000 0.000000 0.000000 0.000000 0.003762 0.000000
# 6 0.000000 0.000000 0.000000 0.000000 0.000000 0.066193
#
#
# Mechanical properties :
#
#
# Convention : Reuss Voigt Hill
#
# Bulk Modulus (GPa) = 64.23615 64.23774 64.23695
# Shear Modulus (GPa) = 32.18499 119.69787 75.94143
#
# Velocity S-wave (km/s) = 3.99096 7.69651 6.13042
# Velocity P-wave (km/s) = 7.28192 10.52482 9.04981
#
# Compressibility (1/GPa) = 0.01556756
#
# Stress axis : x y z
#
# Youngs Moduli (GPa) = 72.80428 72.80341 53.95020
#
# Poissons Ratio (x) = 0.14221 0.35785
# Poissons Ratio (y) = 0.14222 0.35786
# Poissons Ratio (z) = 0.48291 0.48291
#
# Static dielectric constant tensor:
#      x y z
#    x 1.703520 0.000000 0.000000 
#    y 0.000000 1.703520 0.000000 
#    z 0.000000 0.000000 1.684490 
# 
# From -- ./inp_files/2230.got.cif
#   From: 2010.05.17/outbox.cif.g08.bks.cpg/sg115_2_cif.got.tgz:2230.got - 2010.05.20 11:07:42.
