data_PCOD9557262
_publ_section_title
;
Structure prediction by ZEFSAII (Michael W. Deem and Ramdas Pophale) SiO2 
 PCOD9557262
Probable space group: P -4 M 2
;
_chemical_formula_sum "Si O2"
_cell_formula_units_Z 48
_cell_length_a 9.255451
_cell_length_b 9.255451
_cell_length_c 31.593897
_cell_angle_alpha 90.000000
_cell_angle_beta 90.000000
_cell_angle_gamma 90.000000
_cell_volume 2706.439790
_symmetry_space_group_name_H-M "P -4 M 2"
_symmetry_group_IT_number 115
_symmetry_cell_setting 'tetragonal'
loop_
_space_group_symop_operation_xyz
x,y,z
y,-x,-z
-x,-y,z
-y,x,-z
y,x,-z
-y,-x,-z
-x,y,z
x,-y,z
loop_
_atom_site_type_symbol
_atom_site_label
_atom_site_fract_x
_atom_site_fract_y
_atom_site_fract_z
Si Si1 0.327925 0.828892 0.461554
Si Si2 0.828622 0.827814 0.296643
Si Si3 0.329095 0.672250 0.626335
Si Si4 0.325979 0.829866 0.867004
Si Si5 0.669337 0.826905 0.209510
Si Si6 0.668821 0.826402 0.962141
O O1 0.240273 0.759727 0.500000
O O2 0.500000 0.807338 0.468720
O O3 0.290418 0.749932 0.417613
O O4 0.301368 0.000000 0.458155
O O5 0.758529 0.741189 0.335136
O O6 0.753287 0.786626 0.252431
O O7 0.000000 0.803126 0.294233
O O8 0.804450 0.000000 0.302989
O O9 0.500000 0.700280 0.623077
O O10 0.308826 0.500000 0.633288
O O11 0.500000 0.817573 0.864561
O O12 0.251514 0.738068 0.830680
O O13 0.282664 0.784202 0.914675
O O14 0.290440 0.000000 0.861803
O O15 0.500000 0.792841 0.213702
O O16 0.683939 0.000000 0.204299
O O17 0.500000 0.787273 0.966326
O O18 0.678510 0.000000 0.964070
O O19 0.756819 0.756819 0.000000
#
# Coordination Sequence:
#
# PCOD9557262 Si02
#       6
#     8   8   8   8   8   8
#     4  10  21  37  58  83 111 145 183 223 268 316
#     4  10  21  37  57  80 107 141 179 218 263 315
#     4  10  21  37  58  83 110 142 180 221 266 316
#     4   9  19  36  55  75 103 139 176 215 261 312
#     4  10  21  36  55  80 108 138 174 217 264 314
#     4   9  19  35  53  75 104 137 174 216 261 311
#
# _framework density 17.735478000000001
#
# number of rings (size 3 to 8) (size 9 to 14) (size 15 to 20)
#    0.000    2.333    0.000    3.000    0.000    7.333 
#    0.000    5.000    0.000    0.000    0.000    0.000 
#    0.000    0.000    0.000    0.000    0.000    0.000 
#
# Total GULP energy -267978.623960 kJ/mol
# GULP energy per Si atom -5582.887999 kJ/mol
# Density = 1.769511 g / cm^3
# Si number density = 17.735478 Si / 1000 Ang^3
#
#
#
# Elastic Constant Matrix: (Units=GPa)
#
#
# Indices 1 2 3 4 5 6 
#
# 1 69.2498 61.7292 92.2010 0.0000 0.0000 0.0000
# 2 61.7292 69.2498 92.2010 0.0000 0.0000 0.0000
# 3 92.2010 92.2010 199.2606 0.0000 0.0000 0.0000
# 4 0.0000 0.0000 0.0000 40.5530 0.0000 0.0000
# 5 0.0000 0.0000 0.0000 0.0000 40.5530 0.0000
# 6 0.0000 0.0000 0.0000 0.0000 0.0000 31.8047
#
#
#
# Elastic Compliance Matrix: (Units=1/GPa)
#
#
# Indices 1 2 3 4 5 6 
#
# 1 0.077437 -0.055532 -0.010135 0.000000 0.000000 0.000000
# 2 -0.055532 0.077437 -0.010135 0.000000 0.000000 0.000000
# 3 -0.010135 -0.010135 0.014398 0.000000 0.000000 0.000000
# 4 0.000000 0.000000 0.000000 0.024659 0.000000 0.000000
# 5 0.000000 0.000000 0.000000 0.000000 0.024659 0.000000
# 6 0.000000 0.000000 0.000000 0.000000 0.000000 0.031442
#
#
# Mechanical properties :
#
#
# Convention : Reuss Voigt Hill
#
# Bulk Modulus (GPa) = 56.60929 92.22474 74.41702
# Shear Modulus (GPa) = 12.26915 28.69072 20.47993
#
# Velocity S-wave (km/s) = 2.63304 4.02643 3.40184
# Velocity P-wave (km/s) = 6.42120 8.58657 7.58159
#
# Compressibility (1/GPa) = 0.01766494
#
# Stress axis : x y z
#
# Youngs Moduli (GPa) = 12.91379 12.91379 69.45307
#
# Poissons Ratio (x) = 0.71713 0.70394
# Poissons Ratio (y) = 0.71713 0.70394
# Poissons Ratio (z) = 0.13089 0.13089
#
# Static dielectric constant tensor:
#      x y z
#    x 1.589340 0.000000 0.000000 
#    y 0.000000 1.589340 0.000000 
#    z 0.000000 0.000000 1.574080 
# 
# From -- ./inp_files/5898.got.cif
#   From: 2010.05.17/outbox.cif.g08.bks.cpg/sg115_3_cif.got.tgz:5898.got - 2010.05.20 11:07:42.
