data_PCOD9557029
_publ_section_title
;
Structure prediction by ZEFSAII (Michael W. Deem and Ramdas Pophale) SiO2 
 PCOD9557029
Probable space group: P -4 M 2
;
_chemical_formula_sum "Si O2"
_cell_formula_units_Z 48
_cell_length_a 8.324272
_cell_length_b 8.324272
_cell_length_c 35.072648
_cell_angle_alpha 90.000000
_cell_angle_beta 90.000000
_cell_angle_gamma 90.000000
_cell_volume 2430.306686
_symmetry_space_group_name_H-M "P -4 M 2"
_symmetry_group_IT_number 115
_symmetry_cell_setting 'tetragonal'
loop_
_space_group_symop_operation_xyz
x,y,z
y,-x,-z
-x,-y,z
-y,x,-z
y,x,-z
-y,-x,-z
-x,y,z
x,-y,z
loop_
_atom_site_type_symbol
_atom_site_label
_atom_site_fract_x
_atom_site_fract_y
_atom_site_fract_z
Si Si1 0.813021 0.323281 0.536763
Si Si2 0.694986 0.500000 0.747549
Si Si3 0.813557 0.686155 0.038642
Si Si4 0.180259 0.692038 0.386311
Si Si5 0.500000 0.194714 0.165483
Si Si6 0.810111 0.184399 0.879299
Si Si7 0.695953 0.187231 0.699482
O O1 0.785124 0.214876 0.500000
O O2 0.760407 0.500000 0.524326
O O3 0.730898 0.279582 0.576360
O O4 0.000000 0.323690 0.545422
O O5 0.500000 0.500000 0.747062
O O6 0.755692 0.500000 0.790632
O O7 0.747748 0.334034 0.726603
O O8 0.798289 0.500000 0.049151
O O9 0.770903 0.785025 0.076301
O O10 0.000000 0.721462 0.029979
O O11 0.719637 0.719637 0.000000
O O12 0.173784 0.500000 0.383481
O O13 0.228800 0.747521 0.343999
O O14 0.000000 0.754071 0.393179
O O15 0.333968 0.253794 0.145562
O O16 0.500000 0.000000 0.162251
O O17 0.000000 0.174151 0.871708
O O18 0.744818 0.000000 0.873727
O O19 0.500000 0.185274 0.700588
O O20 0.745028 0.000000 0.707731
#
# Coordination Sequence:
#
# PCOD9557029 Si02
#       7
#     8   4   8   8   4   8   8
#     4  11  24  38  52  75 106 140 180 223 266 319
#     4  10  20  34  56  84 110 144 184 222 282 342
#     4  10  21  35  53  80 112 145 183 229 280 332
#     4   9  18  34  57  82 106 136 176 222 270 321
#     4  10  22  38  56  80 110 146 186 236 288 336
#     4   9  19  37  58  77 104 147 193 233 278 338
#     4   8  16  32  54  82 113 141 177 225 274 334
#
# _framework density 19.750592000000001
#
# number of rings (size 3 to 8) (size 9 to 14) (size 15 to 20)
#    0.000    2.500    0.000    2.500    2.333    6.000 
#    0.000    0.833    0.000    1.000    0.000    0.000 
#    0.000    0.000    0.000    0.000    0.000    0.000 
#
# Total GULP energy -267392.949069 kJ/mol
# GULP energy per Si atom -5570.686439 kJ/mol
# Density = 1.970564 g / cm^3
# Si number density = 19.750592 Si / 1000 Ang^3
#
#
#
# Elastic Constant Matrix: (Units=GPa)
#
#
# Indices 1 2 3 4 5 6 
#
# 1 41.8677 24.3385 39.1851 0.0000 0.0000 0.0000
# 2 24.3385 41.8677 39.1851 0.0000 0.0000 0.0000
# 3 39.1851 39.1851 104.5706 0.0000 0.0000 0.0000
# 4 0.0000 0.0000 0.0000 41.8663 0.0000 0.0000
# 5 0.0000 0.0000 0.0000 0.0000 41.8663 0.0000
# 6 0.0000 0.0000 0.0000 0.0000 0.0000 22.8955
#
#
#
# Elastic Compliance Matrix: (Units=1/GPa)
#
#
# Indices 1 2 3 4 5 6 
#
# 1 0.042096 -0.014951 -0.010172 0.000000 0.000000 0.000000
# 2 -0.014951 0.042096 -0.010172 0.000000 0.000000 0.000000
# 3 -0.010172 -0.010172 0.017186 0.000000 0.000000 0.000000
# 4 0.000000 0.000000 0.000000 0.023886 0.000000 0.000000
# 5 0.000000 0.000000 0.000000 0.000000 0.023886 0.000000
# 6 0.000000 0.000000 0.000000 0.000000 0.000000 0.043677
#
#
# Mechanical properties :
#
#
# Convention : Reuss Voigt Hill
#
# Bulk Modulus (GPa) = 32.47930 43.74704 38.11317
# Shear Modulus (GPa) = 18.26949 27.03209 22.65079
#
# Velocity S-wave (km/s) = 3.04470 3.70357 3.39018
# Velocity P-wave (km/s) = 5.37035 6.36289 5.88757
#
# Compressibility (1/GPa) = 0.03078884
#
# Stress axis : x y z
#
# Youngs Moduli (GPa) = 23.75497 23.75497 58.18601
#
# Poissons Ratio (x) = 0.35517 0.59187
# Poissons Ratio (y) = 0.35517 0.59187
# Poissons Ratio (z) = 0.24163 0.24163
#
# Static dielectric constant tensor:
#      x y z
#    x 1.730560 0.000000 0.000000 
#    y 0.000000 1.730560 0.000000 
#    z 0.000000 0.000000 1.672220 
# 
# From -- ./inp_files/6161.got.cif
#   From: 2010.05.17/outbox.cif.g08.bks.cpg/sg115_4_cif.got.tgz:6161.got - 2010.05.20 11:07:42.
