data_PCOD9557828
_publ_section_title
;
Structure prediction by ZEFSAII (Michael W. Deem and Ramdas Pophale) SiO2 
 PCOD9557828
Probable space group: P -4 C 2
;
_chemical_formula_sum "Si O2"
_cell_formula_units_Z 36
_cell_length_a 11.861444
_cell_length_b 11.861444
_cell_length_c 12.482994
_cell_angle_alpha 90.000000
_cell_angle_beta 90.000000
_cell_angle_gamma 90.000000
_cell_volume 1756.280532
_symmetry_space_group_name_H-M "P -4 C 2"
_symmetry_group_IT_number 116
_symmetry_cell_setting 'tetragonal'
loop_
_space_group_symop_operation_xyz
x,y,z
y,-x,-z
-x,-y,z
-y,x,-z
y,x,1/2-z
-y,-x,1/2-z
-x,y,1/2+z
x,-y,1/2+z
loop_
_atom_site_type_symbol
_atom_site_label
_atom_site_fract_x
_atom_site_fract_y
_atom_site_fract_z
Si Si1 0.340451 0.209513 0.009027
Si Si2 0.074339 0.803998 0.152780
Si Si3 0.122536 0.688999 0.767799
Si Si4 0.277242 0.446459 0.119607
Si Si5 0.500000 0.500000 0.250000
Si Si6 0.000000 0.000000 0.000000
O O1 0.331964 0.119372 0.105573
O O2 0.307019 0.330109 0.059401
O O3 0.256450 0.170514 0.916183
O O4 0.463980 0.223762 0.960270
O O5 0.125075 0.874926 0.250000
O O6 0.008706 0.889811 0.074502
O O7 0.991979 0.712277 0.205624
O O8 0.198932 0.801069 0.750000
O O9 0.191346 0.587960 0.713317
O O10 0.389841 0.495315 0.174842
#
# Coordination Sequence:
#
# PCOD9557828 Si02
#       6
#     8   8   8   8   2   2
#     4  11  24  42  67  99 139 180 231 294 365 431
#     4  12  25  41  70  99 133 184 239 290 359 436
#     4  10  22  44  62  95 136 174 228 300 345 419
#     4  11  23  41  68 100 136 180 232 294 356 434
#     4  12  20  42  76 100 132 190 232 298 348 424
#     4  12  22  44  72  98 128 188 246 296 352 426
#
# _framework density 20.497862000000001
#
# number of rings (size 3 to 8) (size 9 to 14) (size 15 to 20)
#    0.000    0.889    3.333    7.000    1.556    0.889 
#    0.000    2.222    0.000    0.000    0.000    0.000 
#    0.000    0.000    0.000    0.000    0.000    0.000 
#
# Total GULP energy -201385.908766 kJ/mol
# GULP energy per Si atom -5594.053021 kJ/mol
# Density = 2.045121 g / cm^3
# Si number density = 20.497862 Si / 1000 Ang^3
#
#
#
# Elastic Constant Matrix: (Units=GPa)
#
#
# Indices 1 2 3 4 5 6 
#
# 1 43.2678 44.5127 36.2275 0.0000 0.0000 0.0000
# 2 44.5127 43.2670 36.2268 0.0000 0.0000 0.0000
# 3 36.2275 36.2268 127.2476 0.0000 0.0000 0.0000
# 4 0.0000 0.0000 0.0000 23.0158 0.0000 0.0000
# 5 0.0000 0.0000 0.0000 0.0000 23.0151 0.0000
# 6 0.0000 0.0000 0.0000 0.0000 0.0000 24.7508
#
#
#
# Elastic Compliance Matrix: (Units=1/GPa)
#
#
# Indices 1 2 3 4 5 6 
#
# 1 -0.394063 0.408957 -0.004238 0.000000 0.000000 0.000000
# 2 0.408957 -0.394067 -0.004241 0.000000 0.000000 0.000000
# 3 -0.004238 -0.004241 0.010273 0.000000 0.000000 0.000000
# 4 0.000000 0.000000 0.000000 0.043448 0.000000 0.000000
# 5 0.000000 0.000000 0.000000 0.000000 0.043450 0.000000
# 6 0.000000 0.000000 0.000000 0.000000 0.000000 0.040403
#
#
# Mechanical properties :
#
#
# Convention : Reuss Voigt Hill
#
# Bulk Modulus (GPa) = 43.29504 49.74629 46.52067
# Shear Modulus (GPa) = -3.46305 20.61069 8.57382
#
# Velocity S-wave (km/s) = -1.30121 3.17441 2.04740
# Velocity P-wave (km/s) = 4.34857 6.14472 5.32295
#
# Compressibility (1/GPa) = 0.02309733
#
# Stress axis : x y z
#
# Youngs Moduli (GPa) = -2.53767 -2.53764 97.34541
#
# Poissons Ratio (x) = 1.03778 0.41255
# Poissons Ratio (y) = 1.03780 0.41286
# Poissons Ratio (z) = -0.01075 -0.01076
#
# Static dielectric constant tensor:
#      x y z
#    x 1.723130 0.000000 0.000000 
#    y 0.000000 1.723140 0.000000 
#    z 0.000000 0.000000 1.731760 
# 
# From -- ./inp_files/1763.got.cif
#   From: 2010.05.17/outbox.cif.g08.bks.cpg/sg116_1_cif.got.tgz:1763.got - 2010.05.20 11:11:43.
