data_PCOD9557726
_publ_section_title
;
Structure prediction by ZEFSAII (Michael W. Deem and Ramdas Pophale) SiO2 
 PCOD9557726
Probable space group: P -4 C 2
;
_chemical_formula_sum "Si O2"
_cell_formula_units_Z 56
_cell_length_a 15.655647
_cell_length_b 15.655647
_cell_length_c 12.088176
_cell_angle_alpha 90.000000
_cell_angle_beta 90.000000
_cell_angle_gamma 90.000000
_cell_volume 2962.803270
_symmetry_space_group_name_H-M "P -4 C 2"
_symmetry_group_IT_number 116
_symmetry_cell_setting 'tetragonal'
loop_
_space_group_symop_operation_xyz
x,y,z
y,-x,-z
-x,-y,z
-y,x,-z
y,x,1/2-z
-y,-x,1/2-z
-x,y,1/2+z
x,-y,1/2+z
loop_
_atom_site_type_symbol
_atom_site_label
_atom_site_fract_x
_atom_site_fract_y
_atom_site_fract_z
Si Si1 0.057191 0.247559 0.048260
Si Si2 0.127136 0.202016 0.507328
Si Si3 0.708216 0.606295 0.335935
Si Si4 0.591948 0.964771 0.612895
Si Si5 0.299470 0.885837 0.714196
Si Si6 0.274058 0.330281 0.577868
Si Si7 0.774687 0.580754 0.795794
O O1 0.103621 0.264807 0.163426
O O2 0.963182 0.209740 0.067216
O O3 0.114227 0.178540 0.983295
O O4 0.049718 0.337225 0.982625
O O5 0.108035 0.226466 0.379397
O O6 0.190217 0.275274 0.550637
O O7 0.635986 0.635986 0.250000
O O8 0.794813 0.655359 0.299944
O O9 0.691081 0.633028 0.462509
O O10 0.730170 0.507081 0.329456
O O11 0.579091 0.875320 0.676550
O O12 0.500000 0.000000 0.572893
O O13 0.633526 0.038226 0.689317
O O14 0.245816 0.400445 0.667513
O O15 0.343004 0.268426 0.634463
#
# Coordination Sequence:
#
# PCOD9557726 Si02
#       7
#     8   8   8   8   8   8   8
#     4  11  22  38  64  86 131 168 210 267 315 390
#     4  10  21  40  61  91 125 167 214 257 315 389
#     4  11  24  40  67  95 127 170 219 263 330 389
#     4  11  22  39  59 100 124 160 215 270 330 384
#     4  10  21  39  60  91 126 164 207 261 325 382
#     4  10  23  43  65  93 129 174 210 264 332 389
#     4  11  23  42  69  93 132 169 216 269 329 392
#
# _framework density 18.901018000000001
#
# number of rings (size 3 to 8) (size 9 to 14) (size 15 to 20)
#    0.000    1.429    2.857    3.000    2.000    0.857 
#    0.000    1.429    0.000    3.429    0.000    0.000 
#    0.000    0.000    0.000    0.000    0.000    0.000 
#
# Total GULP energy -312797.372295 kJ/mol
# GULP energy per Si atom -5585.667362 kJ/mol
# Density = 1.885800 g / cm^3
# Si number density = 18.901018 Si / 1000 Ang^3
#
#
#
# Elastic Constant Matrix: (Units=GPa)
#
#
# Indices 1 2 3 4 5 6 
#
# 1 66.1766 39.9479 18.4952 0.0000 0.0000 0.0000
# 2 39.9479 66.1766 18.4952 0.0000 0.0000 0.0000
# 3 18.4952 18.4952 89.7617 0.0000 0.0000 0.0000
# 4 0.0000 0.0000 0.0000 20.8790 0.0000 0.0000
# 5 0.0000 0.0000 0.0000 0.0000 20.8790 0.0000
# 6 0.0000 0.0000 0.0000 0.0000 0.0000 36.9886
#
#
#
# Elastic Compliance Matrix: (Units=1/GPa)
#
#
# Indices 1 2 3 4 5 6 
#
# 1 0.024139 -0.013987 -0.002092 0.000000 0.000000 0.000000
# 2 -0.013987 0.024139 -0.002092 0.000000 0.000000 0.000000
# 3 -0.002092 -0.002092 0.012003 0.000000 0.000000 0.000000
# 4 0.000000 0.000000 0.000000 0.047895 0.000000 0.000000
# 5 0.000000 0.000000 0.000000 0.000000 0.047895 0.000000
# 6 0.000000 0.000000 0.000000 0.000000 0.000000 0.027035
#
#
# Mechanical properties :
#
#
# Convention : Reuss Voigt Hill
#
# Bulk Modulus (GPa) = 41.77206 41.77684 41.77445
# Shear Modulus (GPa) = 21.98504 25.42776 23.70640
#
# Velocity S-wave (km/s) = 3.41422 3.67183 3.54537
# Velocity P-wave (km/s) = 6.13930 6.33462 6.23772
#
# Compressibility (1/GPa) = 0.02393945
#
# Stress axis : x y z
#
# Youngs Moduli (GPa) = 41.42651 41.42651 83.31503
#
# Poissons Ratio (x) = 0.57944 0.17428
# Poissons Ratio (y) = 0.57944 0.17428
# Poissons Ratio (z) = 0.08666 0.08666
#
# Static dielectric constant tensor:
#      x y z
#    x 1.645010 0.000000 0.000000 
#    y 0.000000 1.645010 0.000000 
#    z 0.000000 0.000000 1.651140 
# 
# From -- ./inp_files/2009.got.cif
#   From: 2010.05.17/outbox.cif.g08.bks.cpg/sg116_2_cif.got.tgz:2009.got - 2010.05.20 11:11:43.
