data_PCOD9557992
_publ_section_title
;
Structure prediction by ZEFSAII (Michael W. Deem and Ramdas Pophale) SiO2 
 PCOD9557992
Probable space group: P -4 C 2
;
_chemical_formula_sum "Si O2"
_cell_formula_units_Z 14
_cell_length_a 5.172753
_cell_length_b 5.172753
_cell_length_c 21.526655
_cell_angle_alpha 90.000000
_cell_angle_beta 90.000000
_cell_angle_gamma 90.000000
_cell_volume 575.996750
_symmetry_space_group_name_H-M "P -4 C 2"
_symmetry_group_IT_number 116
_symmetry_cell_setting 'tetragonal'
loop_
_space_group_symop_operation_xyz
x,y,z
y,-x,-z
-x,-y,z
-y,x,-z
y,x,1/2-z
-y,-x,1/2-z
-x,y,1/2+z
x,-y,1/2+z
loop_
_atom_site_type_symbol
_atom_site_label
_atom_site_fract_x
_atom_site_fract_y
_atom_site_fract_z
Si Si1 0.000000 0.000000 0.000000
Si Si2 0.741993 0.177280 0.320450
Si Si3 0.000000 0.500000 0.917329
O O1 0.934372 0.252115 0.959146
O O2 0.721319 0.278682 0.250000
O O3 0.780174 0.401720 0.370251
O O4 0.500000 0.000000 0.335062
O O5 0.000000 0.000000 0.322867
#
# Coordination Sequence:
#
# PCOD9557992 Si02
#       3
#     2   8   4
#     4  12  32  48  82 104 168 220 268 334 392 496
#     4  11  25  48  80 119 157 203 262 342 413 478
#     4  12  28  56  74 120 156 218 278 328 408 492
#
# _framework density 24.305693999999999
#
# number of rings (size 3 to 8) (size 9 to 14) (size 15 to 20)
#    0.000    0.571    5.714    0.000    4.000    8.000 
#    0.000    0.000    0.000    0.000    0.000    0.000 
#    0.000    0.000    0.000    0.000    0.000    0.000 
#
# Total GULP energy -78548.254319 kJ/mol
# GULP energy per Si atom -5610.589594 kJ/mol
# Density = 2.425037 g / cm^3
# Si number density = 24.305694 Si / 1000 Ang^3
#
#
#
# Elastic Constant Matrix: (Units=GPa)
#
#
# Indices 1 2 3 4 5 6 
#
# 1 193.2858 88.0654 87.3632 0.0000 0.0000 0.0000
# 2 88.0654 193.2851 87.3631 0.0000 0.0000 0.0000
# 3 87.3632 87.3631 197.6530 0.0000 0.0000 0.0000
# 4 0.0000 0.0000 0.0000 760.1520 0.0000 0.0000
# 5 0.0000 0.0000 0.0000 0.0000 760.1856 0.0000
# 6 0.0000 0.0000 0.0000 0.0000 0.0000 59.5338
#
#
#
# Elastic Compliance Matrix: (Units=1/GPa)
#
#
# Indices 1 2 3 4 5 6 
#
# 1 0.007201 -0.002302 -0.002165 0.000000 0.000000 0.000000
# 2 -0.002302 0.007201 -0.002165 0.000000 0.000000 0.000000
# 3 -0.002165 -0.002165 0.006974 0.000000 0.000000 0.000000
# 4 0.000000 0.000000 0.000000 0.001316 0.000000 0.000000
# 5 0.000000 0.000000 0.000000 0.000000 0.001315 0.000000
# 6 0.000000 0.000000 0.000000 0.000000 0.000000 0.016797
#
#
# Mechanical properties :
#
#
# Convention : Reuss Voigt Hill
#
# Bulk Modulus (GPa) = 123.30280 123.31193 123.30736
# Shear Modulus (GPa) = 88.06772 337.40311 212.73542
#
# Velocity S-wave (km/s) = 6.02595 11.79482 9.36563
# Velocity P-wave (km/s) = 9.96274 15.37317 12.95358
#
# Compressibility (1/GPa) = 0.00811012
#
# Stress axis : x y z
#
# Youngs Moduli (GPa) = 138.86079 138.86025 143.39817
#
# Poissons Ratio (x) = 0.31972 0.31051
# Poissons Ratio (y) = 0.31972 0.31051
# Poissons Ratio (z) = 0.30069 0.30069
#
# Static dielectric constant tensor:
#      x y z
#    x 1.378870 0.000000 0.000000 
#    y 0.000000 1.378890 0.000000 
#    z 0.000000 0.000000 1.946660 
# 
# From -- ./inp_files/3541.got.cif
#   From: 2010.05.17/outbox.cif.g08.bks.cpg/sg116_2_cif.got.tgz:3541.got - 2010.05.20 11:11:43.
