data_PCOD9557441
_publ_section_title
;
Structure prediction by ZEFSAII (Michael W. Deem and Ramdas Pophale) SiO2 
 PCOD9557441
Probable space group: P -4 M 2
;
_chemical_formula_sum "Si O2"
_cell_formula_units_Z 44
_cell_length_a 8.001663
_cell_length_b 8.001663
_cell_length_c 33.588905
_cell_angle_alpha 90.000000
_cell_angle_beta 90.000000
_cell_angle_gamma 90.000000
_cell_volume 2150.583746
_symmetry_space_group_name_H-M "P -4 M 2"
_symmetry_group_IT_number 115
_symmetry_cell_setting 'tetragonal'
loop_
_space_group_symop_operation_xyz
x,y,z
y,-x,-z
-x,-y,z
-y,x,-z
y,x,-z
-y,-x,-z
-x,y,z
x,-y,z
loop_
_atom_site_type_symbol
_atom_site_label
_atom_site_fract_x
_atom_site_fract_y
_atom_site_fract_z
Si Si1 0.309067 0.299163 0.955156
Si Si2 0.197327 0.197327 0.500000
Si Si3 0.690196 0.198241 0.756908
Si Si4 0.307894 0.799060 0.414533
Si Si5 0.801184 0.000000 0.099477
Si Si6 0.000000 0.794091 0.809494
Si Si7 0.308900 0.700307 0.330385
O O1 0.500000 0.236652 0.947699
O O2 0.318841 0.500000 0.955569
O O3 0.167778 0.249947 0.923897
O O4 0.252696 0.252696 0.000000
O O5 0.269338 0.250285 0.542717
O O6 0.000000 0.227568 0.502148
O O7 0.500000 0.267094 0.761677
O O8 0.746690 0.225025 0.711204
O O9 0.832795 0.262957 0.786457
O O10 0.678679 0.000000 0.763521
O O11 0.500000 0.745700 0.411143
O O12 0.226967 0.751106 0.372394
O O13 0.298952 0.000000 0.416449
O O14 0.737983 0.000000 0.144824
O O15 0.000000 0.000000 0.101433
O O16 0.000000 0.000000 0.808597
O O17 0.500000 0.765825 0.329026
O O18 0.314290 0.500000 0.330895
#
# Coordination Sequence:
#
# PCOD9557441 Si02
#       7
#     8   4   8   8   4   4   8
#     4   9  20  39  60  83 117 161 202 246 301 353
#     4   9  18  32  46  63  90 122 156 195 240 292
#     4   9  18  34  55  75 101 139 180 222 268 324
#     4   9  18  31  46  65  91 122 154 192 244 303
#     4  11  23  35  57  91 123 153 199 251 297 357
#     4   9  20  37  53  79 113 147 183 225 279 337
#     4   9  18  32  49  72  99 124 159 210 260 309
#
# _framework density 20.45956
#
# number of rings (size 3 to 8) (size 9 to 14) (size 15 to 20)
#    0.000    2.818    0.000    0.818    2.545    2.545 
#    0.000    3.636    0.000    2.182    0.000    0.000 
#    0.000    0.000    0.000    0.000    0.000    0.000 
#
# Total GULP energy -245125.865195 kJ/mol
# GULP energy per Si atom -5571.042391 kJ/mol
# Density = 2.041299 g / cm^3
# Si number density = 20.459560 Si / 1000 Ang^3
#
#
#
# Elastic Constant Matrix: (Units=GPa)
#
#
# Indices 1 2 3 4 5 6 
#
# 1 50.1816 13.9557 57.6576 0.0000 0.0000 0.0000
# 2 13.9557 50.1816 57.6576 0.0000 0.0000 0.0000
# 3 57.6576 57.6576 218.5433 0.0000 0.0000 0.0000
# 4 0.0000 0.0000 0.0000 42.8390 0.0000 0.0000
# 5 0.0000 0.0000 0.0000 0.0000 42.8390 0.0000
# 6 0.0000 0.0000 0.0000 0.0000 0.0000 14.2215
#
#
#
# Elastic Compliance Matrix: (Units=1/GPa)
#
#
# Indices 1 2 3 4 5 6 
#
# 1 0.028633 0.001028 -0.007825 0.000000 0.000000 0.000000
# 2 0.001028 0.028633 -0.007825 0.000000 0.000000 0.000000
# 3 -0.007825 -0.007825 0.008705 0.000000 0.000000 0.000000
# 4 0.000000 0.000000 0.000000 0.023343 0.000000 0.000000
# 5 0.000000 0.000000 0.000000 0.000000 0.023343 0.000000
# 6 0.000000 0.000000 0.000000 0.000000 0.000000 0.070316
#
#
# Mechanical properties :
#
#
# Convention : Reuss Voigt Hill
#
# Bulk Modulus (GPa) = 27.22894 64.16089 45.69491
# Shear Modulus (GPa) = 22.27569 32.62228 27.44898
#
# Velocity S-wave (km/s) = 3.30323 3.99742 3.66679
# Velocity P-wave (km/s) = 5.28072 7.26180 6.34901
#
# Compressibility (1/GPa) = 0.03672564
#
# Stress axis : x y z
#
# Youngs Moduli (GPa) = 34.92485 34.92485 114.87829
#
# Poissons Ratio (x) = -0.03591 0.89897
# Poissons Ratio (y) = -0.03591 0.89897
# Poissons Ratio (z) = 0.27330 0.27330
#
# Static dielectric constant tensor:
#      x y z
#    x 1.767670 0.000000 0.000000 
#    y 0.000000 1.767670 0.000000 
#    z 0.000000 0.000000 1.765190 
# 
# From -- ./inp_files/5847.got.cif
#   From: 2010.05.17/outbox.cif.g08.bks.cpg/sg115_3_cif.got.tgz:5847.got - 2010.05.20 11:07:42.
