data_PCOD9557218
_publ_section_title
;
Structure prediction by ZEFSAII (Michael W. Deem and Ramdas Pophale) SiO2 
 PCOD9557218
Probable space group: P -4 M 2
;
_chemical_formula_sum "Si O2"
_cell_formula_units_Z 48
_cell_length_a 9.432329
_cell_length_b 9.432329
_cell_length_c 31.859756
_cell_angle_alpha 90.000000
_cell_angle_beta 90.000000
_cell_angle_gamma 90.000000
_cell_volume 2834.525227
_symmetry_space_group_name_H-M "P -4 M 2"
_symmetry_group_IT_number 115
_symmetry_cell_setting 'tetragonal'
loop_
_space_group_symop_operation_xyz
x,y,z
y,-x,-z
-x,-y,z
-y,x,-z
y,x,-z
-y,-x,-z
-x,y,z
x,-y,z
loop_
_atom_site_type_symbol
_atom_site_label
_atom_site_fract_x
_atom_site_fract_y
_atom_site_fract_z
Si Si1 0.668775 0.831724 0.036553
Si Si2 0.837353 0.672816 0.205218
Si Si3 0.169837 0.167409 0.547466
Si Si4 0.667278 0.331494 0.878046
Si Si5 0.329552 0.666897 0.380135
Si Si6 0.336312 0.672777 0.286247
O O1 0.500000 0.808998 0.029231
O O2 0.703776 0.758409 0.080990
O O3 0.694100 0.000000 0.037963
O O4 0.757501 0.757501 0.000000
O O5 0.835551 0.500000 0.206072
O O6 0.753441 0.713336 0.163220
O O7 0.759420 0.720974 0.247625
O O8 0.000000 0.718763 0.203909
O O9 0.211085 0.211085 0.500000
O O10 0.246960 0.254850 0.583322
O O11 0.000000 0.183871 0.550584
O O12 0.201206 0.000000 0.551964
O O13 0.500000 0.302074 0.885966
O O14 0.679958 0.500000 0.870051
O O15 0.500000 0.679923 0.382717
O O16 0.294991 0.500000 0.384074
O O17 0.288505 0.715397 0.332979
O O18 0.500000 0.715772 0.280050
O O19 0.335636 0.500000 0.286449
#
# Coordination Sequence:
#
# PCOD9557218 Si02
#       6
#     8   8   8   8   8   8
#     4  10  21  36  54  76 101 130 165 204 245 290
#     4   9  16  25  41  68  97 123 156 198 238 277
#     4   9  19  35  51  67  91 125 163 200 239 287
#     4   9  17  30  49  71  95 125 159 195 238 286
#     4   9  18  31  48  73 101 126 156 198 245 290
#     4   8  14  26  43  64  94 127 154 186 234 287
#
# _framework density 16.934051
#
# number of rings (size 3 to 8) (size 9 to 14) (size 15 to 20)
#    0.000    3.000    0.000    2.500    0.000    5.667 
#    0.000    5.833    0.000    1.000    0.000    2.333 
#    0.000    0.000    0.000    0.000    0.000    0.000 
#
# Total GULP energy -267501.931266 kJ/mol
# GULP energy per Si atom -5572.956901 kJ/mol
# Density = 1.689551 g / cm^3
# Si number density = 16.934051 Si / 1000 Ang^3
#
#
#
# Elastic Constant Matrix: (Units=GPa)
#
#
# Indices 1 2 3 4 5 6 
#
# 1 47.8057 39.4159 79.9250 0.0000 0.0000 0.0000
# 2 39.4159 47.8057 79.9250 0.0000 0.0000 0.0000
# 3 79.9250 79.9250 203.4009 0.0000 0.0000 0.0000
# 4 0.0000 0.0000 0.0000 -13.8491 0.0000 0.0000
# 5 0.0000 0.0000 0.0000 0.0000 -13.8491 0.0000
# 6 0.0000 0.0000 0.0000 0.0000 0.0000 19.9373
#
#
#
# Elastic Compliance Matrix: (Units=1/GPa)
#
#
# Indices 1 2 3 4 5 6 
#
# 1 0.080080 -0.039113 -0.016098 0.000000 0.000000 0.000000
# 2 -0.039113 0.080080 -0.016098 0.000000 0.000000 0.000000
# 3 -0.016098 -0.016098 0.017567 0.000000 0.000000 0.000000
# 4 0.000000 0.000000 0.000000 -0.072207 0.000000 0.000000
# 5 0.000000 0.000000 0.000000 0.000000 -0.072207 0.000000
# 6 0.000000 0.000000 0.000000 0.000000 0.000000 0.050157
#
#
# Mechanical properties :
#
#
# Convention : Reuss Voigt Hill
#
# Bulk Modulus (GPa) = 28.48121 77.50492 52.99306
# Shear Modulus (GPa) = 21.02674 5.09756 13.06215
#
# Velocity S-wave (km/s) = 3.52758 1.73689 2.78034
# Velocity P-wave (km/s) = 5.78335 7.06331 6.45514
#
# Compressibility (1/GPa) = 0.03511087
#
# Stress axis : x y z
#
# Youngs Moduli (GPa) = 12.48748 12.48748 56.92330
#
# Poissons Ratio (x) = 0.48842 0.91634
# Poissons Ratio (y) = 0.48842 0.91634
# Poissons Ratio (z) = 0.20102 0.20102
#
# Static dielectric constant tensor:
#      x y z
#    x 1.557790 0.000000 0.000000 
#    y 0.000000 1.557790 0.000000 
#    z 0.000000 0.000000 1.562890 
# 
# From -- ./inp_files/6036.got.cif
#   From: 2010.05.17/outbox.cif.g08.bks.cpg/sg115_4_cif.got.tgz:6036.got - 2010.05.20 11:07:42.
