data_PCOD9557643
_publ_section_title
;
Structure prediction by ZEFSAII (Michael W. Deem and Ramdas Pophale) SiO2 
 PCOD9557643
Probable space group: P -4 C 2
;
_chemical_formula_sum "Si O2"
_cell_formula_units_Z 48
_cell_length_a 13.185336
_cell_length_b 13.185336
_cell_length_c 16.101011
_cell_angle_alpha 90.000000
_cell_angle_beta 90.000000
_cell_angle_gamma 90.000000
_cell_volume 2799.210441
_symmetry_space_group_name_H-M "P -4 C 2"
_symmetry_group_IT_number 116
_symmetry_cell_setting 'tetragonal'
loop_
_space_group_symop_operation_xyz
x,y,z
y,-x,-z
-x,-y,z
-y,x,-z
y,x,1/2-z
-y,-x,1/2-z
-x,y,1/2+z
x,-y,1/2+z
loop_
_atom_site_type_symbol
_atom_site_label
_atom_site_fract_x
_atom_site_fract_y
_atom_site_fract_z
Si Si1 0.606651 0.849372 0.065944
Si Si2 0.095460 0.936653 0.652589
Si Si3 0.743818 0.823403 0.440034
Si Si4 0.515149 0.122116 0.900867
Si Si5 0.118151 0.533630 0.281767
Si Si6 0.291573 0.061376 0.606308
O O1 0.707144 0.780493 0.065783
O O2 0.541299 0.833080 0.149745
O O3 0.641243 0.968272 0.068825
O O4 0.540604 0.835237 0.982793
O O5 0.082489 0.917512 0.750000
O O6 0.111989 0.830823 0.606024
O O7 0.193441 0.005947 0.640688
O O8 0.000000 0.000000 0.620287
O O9 0.633372 0.847331 0.402889
O O10 0.737331 0.860985 0.534524
O O11 0.471790 0.158071 0.811886
O O12 0.500000 0.000000 0.904645
O O13 0.115444 0.644191 0.322338
O O14 0.000000 0.500000 0.276221
#
# Coordination Sequence:
#
# PCOD9557643 Si02
#       6
#     8   8   8   8   8   8
#     4  10  20  37  54  85 118 140 196 247 291 348
#     4  10  25  38  51  82 126 164 200 230 282 358
#     4  11  23  34  62  82 115 157 196 239 306 351
#     4  11  20  35  61  83 111 152 198 245 297 347
#     4   9  19  34  57  82 112 146 192 253 284 329
#     4  10  20  37  55  80 116 158 190 240 281 344
#
# _framework density 17.147691999999999
#
# number of rings (size 3 to 8) (size 9 to 14) (size 15 to 20)
#    0.000    1.833    3.333    0.500   14.000    0.000 
#    3.000    0.000    0.000    0.500    0.000    0.000 
#    5.000    0.000    0.000    0.000    0.000    0.000 
#
# Total GULP energy -267764.259785 kJ/mol
# GULP energy per Si atom -5578.422079 kJ/mol
# Density = 1.710866 g / cm^3
# Si number density = 17.147692 Si / 1000 Ang^3
#
#
#
# Elastic Constant Matrix: (Units=GPa)
#
#
# Indices 1 2 3 4 5 6 
#
# 1 79.7603 48.2144 41.1180 0.0000 0.0000 0.0000
# 2 48.2144 79.7600 41.1180 0.0000 0.0000 0.0000
# 3 41.1180 41.1180 125.3412 0.0000 0.0000 0.0000
# 4 0.0000 0.0000 0.0000 39.7505 0.0000 0.0000
# 5 0.0000 0.0000 0.0000 0.0000 39.7542 0.0000
# 6 0.0000 0.0000 0.0000 0.0000 0.0000 17.8705
#
#
#
# Elastic Compliance Matrix: (Units=1/GPa)
#
#
# Indices 1 2 3 4 5 6 
#
# 1 0.020801 -0.010899 -0.003248 0.000000 0.000000 0.000000
# 2 -0.010899 0.020801 -0.003248 0.000000 0.000000 0.000000
# 3 -0.003248 -0.003248 0.010109 0.000000 0.000000 0.000000
# 4 0.000000 0.000000 0.000000 0.025157 0.000000 0.000000
# 5 0.000000 0.000000 0.000000 0.000000 0.025155 0.000000
# 6 0.000000 0.000000 0.000000 0.000000 0.000000 0.055958
#
#
# Mechanical properties :
#
#
# Convention : Reuss Voigt Hill
#
# Bulk Modulus (GPa) = 59.10362 60.64027 59.87195
# Shear Modulus (GPa) = 25.20021 29.76911 27.48466
#
# Velocity S-wave (km/s) = 3.83769 4.17110 4.00787
# Velocity P-wave (km/s) = 7.36067 7.65753 7.51056
#
# Compressibility (1/GPa) = 0.01691944
#
# Stress axis : x y z
#
# Youngs Moduli (GPa) = 48.07558 48.07537 98.91892
#
# Poissons Ratio (x) = 0.52399 0.32130
# Poissons Ratio (y) = 0.52399 0.32130
# Poissons Ratio (z) = 0.15615 0.15615
#
# Static dielectric constant tensor:
#      x y z
#    x 1.567180 0.000000 0.000000 
#    y 0.000000 1.567180 0.000000 
#    z 0.000000 0.000000 1.598060 
# 
# From -- ./inp_files/3381.got.cif
#   From: 2010.05.17/outbox.cif.g08.bks.cpg/sg116_2_cif.got.tgz:3381.got - 2010.05.20 11:11:43.
