data_PCOD9557567
_publ_section_title
;
Structure prediction by ZEFSAII (Michael W. Deem and Ramdas Pophale) SiO2 
 PCOD9557567
Probable space group: P -4 C 2
;
_chemical_formula_sum "Si O2"
_cell_formula_units_Z 40
_cell_length_a 10.951754
_cell_length_b 10.951754
_cell_length_c 15.064258
_cell_angle_alpha 90.000000
_cell_angle_beta 90.000000
_cell_angle_gamma 90.000000
_cell_volume 1806.820899
_symmetry_space_group_name_H-M "P -4 C 2"
_symmetry_group_IT_number 116
_symmetry_cell_setting 'tetragonal'
loop_
_space_group_symop_operation_xyz
x,y,z
y,-x,-z
-x,-y,z
-y,x,-z
y,x,1/2-z
-y,-x,1/2-z
-x,y,1/2+z
x,-y,1/2+z
loop_
_atom_site_type_symbol
_atom_site_label
_atom_site_fract_x
_atom_site_fract_y
_atom_site_fract_z
Si Si1 0.470024 0.147373 0.566658
Si Si2 0.299786 0.165613 0.176340
Si Si3 0.174618 0.091359 0.005035
Si Si4 0.423737 0.877472 0.392453
Si Si5 0.880561 0.298921 0.282273
O O1 0.573844 0.198483 0.630388
O O2 0.493242 0.191559 0.466337
O O3 0.346038 0.163807 0.621272
O O4 0.500000 0.000000 0.563214
O O5 0.257332 0.257332 0.250000
O O6 0.204386 0.160929 0.095594
O O7 0.305572 0.027329 0.214937
O O8 0.294109 0.096433 0.942648
O O9 0.048592 0.145216 0.969105
O O10 0.388631 0.830206 0.295355
O O11 0.500000 0.000000 0.375187
O O12 0.831422 0.168579 0.250000
#
# Coordination Sequence:
#
# PCOD9557567 Si02
#       5
#     8   8   8   8   8
#     4   8  18  35  51  74 105 141 183 215 248 304
#     4  10  19  32  52  77 107 141 177 216 259 308
#     4  10  20  33  48  75 113 145 174 211 261 317
#     4  10  19  33  53  73 104 145 179 214 255 304
#     4  11  21  34  54  81 108 134 171 218 264 314
#
# _framework density 22.138331000000001
#
# number of rings (size 3 to 8) (size 9 to 14) (size 15 to 20)
#    0.000    2.200    0.000    5.400    0.000    2.000 
#    0.000    2.000    0.000    0.600    0.000    0.000 
#    0.000    7.200    0.000    0.000    0.000    0.000 
#
# Total GULP energy -223210.882490 kJ/mol
# GULP energy per Si atom -5580.272062 kJ/mol
# Density = 2.208794 g / cm^3
# Si number density = 22.138331 Si / 1000 Ang^3
#
#
#
# Elastic Constant Matrix: (Units=GPa)
#
#
# Indices 1 2 3 4 5 6 
#
# 1 33.9740 -8.2407 0.6745 0.0000 0.0000 0.0000
# 2 -8.2407 33.9748 0.6745 0.0000 0.0000 0.0000
# 3 0.6745 0.6745 77.3883 0.0000 0.0000 0.0000
# 4 0.0000 0.0000 0.0000 28.9493 0.0000 0.0000
# 5 0.0000 0.0000 0.0000 0.0000 28.9490 0.0000
# 6 0.0000 0.0000 0.0000 0.0000 0.0000 11.2997
#
#
#
# Elastic Compliance Matrix: (Units=1/GPa)
#
#
# Indices 1 2 3 4 5 6 
#
# 1 0.031283 0.007595 -0.000339 0.000000 0.000000 0.000000
# 2 0.007595 0.031282 -0.000339 0.000000 0.000000 0.000000
# 3 -0.000339 -0.000339 0.012928 0.000000 0.000000 0.000000
# 4 0.000000 0.000000 0.000000 0.034543 0.000000 0.000000
# 5 0.000000 0.000000 0.000000 0.000000 0.034544 0.000000
# 6 0.000000 0.000000 0.000000 0.000000 0.000000 0.088498
#
#
# Mechanical properties :
#
#
# Convention : Reuss Voigt Hill
#
# Bulk Modulus (GPa) = 11.19484 14.61708 12.90596
# Shear Modulus (GPa) = 20.07871 23.98818 22.03344
#
# Velocity S-wave (km/s) = 3.01485 3.29532 3.15820
# Velocity P-wave (km/s) = 4.14571 4.59301 4.37508
#
# Compressibility (1/GPa) = 0.08932691
#
# Stress axis : x y z
#
# Youngs Moduli (GPa) = 31.96613 31.96687 77.35295
#
# Poissons Ratio (x) = -0.24277 0.02621
# Poissons Ratio (y) = -0.24277 0.02621
# Poissons Ratio (z) = 0.01083 0.01083
#
# Static dielectric constant tensor:
#      x y z
#    x 1.841340 0.000000 0.000000 
#    y 0.000000 1.841340 0.000000 
#    z 0.000000 0.000000 1.876430 
# 
# From -- ./inp_files/2550.got.cif
#   From: 2010.05.17/outbox.cif.g08.bks.cpg/sg116_2_cif.got.tgz:2550.got - 2010.05.20 11:11:43.
