data_PCOD9557722
_publ_section_title
;
Structure prediction by ZEFSAII (Michael W. Deem and Ramdas Pophale) SiO2 
 PCOD9557722
Probable space group: P -4 C 2
;
_chemical_formula_sum "Si O2"
_cell_formula_units_Z 40
_cell_length_a 14.807677
_cell_length_b 14.807677
_cell_length_c 8.800468
_cell_angle_alpha 90.000000
_cell_angle_beta 90.000000
_cell_angle_gamma 90.000000
_cell_volume 1929.654841
_symmetry_space_group_name_H-M "P -4 C 2"
_symmetry_group_IT_number 116
_symmetry_cell_setting 'tetragonal'
loop_
_space_group_symop_operation_xyz
x,y,z
y,-x,-z
-x,-y,z
-y,x,-z
y,x,1/2-z
-y,-x,1/2-z
-x,y,1/2+z
x,-y,1/2+z
loop_
_atom_site_type_symbol
_atom_site_label
_atom_site_fract_x
_atom_site_fract_y
_atom_site_fract_z
Si Si1 0.384821 0.423277 0.930735
Si Si2 0.868072 0.509488 0.812636
Si Si3 0.158624 0.367423 0.565706
Si Si4 0.757505 0.292185 0.577285
Si Si5 0.625640 0.053208 0.934076
O O1 0.403519 0.403519 0.750000
O O2 0.385325 0.529669 0.971487
O O3 0.295308 0.377476 0.003715
O O4 0.808594 0.578797 0.714326
O O5 0.173874 0.561979 0.928096
O O6 0.082658 0.551753 0.689043
O O7 0.933047 0.573987 0.908067
O O8 0.210596 0.277400 0.526521
O O9 0.051214 0.349320 0.580149
O O10 0.725369 0.274632 0.750000
O O11 0.865633 0.302704 0.574893
#
# Coordination Sequence:
#
# PCOD9557722 Si02
#       5
#     8   8   8   8   8
#     4  11  25  44  61  82 121 169 211 250 292 359
#     4  10  21  38  64  90 121 162 201 258 320 368
#     4  11  22  39  61  91 126 161 206 256 314 370
#     4  12  27  39  62  93 122 166 204 256 309 370
#     4  11  22  39  61  91 126 161 206 256 314 370
#
# _framework density 20.729096999999999
#
# number of rings (size 3 to 8) (size 9 to 14) (size 15 to 20)
#    0.000    1.000    2.000    7.200    8.400    0.000 
#    0.000    0.000    0.000    0.600    0.000    1.400 
#    0.000    0.000    0.000    0.000    0.000    0.000 
#
# Total GULP energy -223602.204692 kJ/mol
# GULP energy per Si atom -5590.055117 kJ/mol
# Density = 2.068192 g / cm^3
# Si number density = 20.729097 Si / 1000 Ang^3
#
#
#
# Elastic Constant Matrix: (Units=GPa)
#
#
# Indices 1 2 3 4 5 6 
#
# 1 110.1392 39.7663 22.4013 0.0000 0.0000 0.0000
# 2 39.7663 110.1390 22.4015 0.0000 0.0000 0.0000
# 3 22.4013 22.4015 125.0700 0.0000 0.0000 0.0000
# 4 0.0000 0.0000 0.0000 21.5537 0.0000 0.0000
# 5 0.0000 0.0000 0.0000 0.0000 21.5535 0.0000
# 6 0.0000 0.0000 0.0000 0.0000 0.0000 36.5664
#
#
#
# Elastic Compliance Matrix: (Units=1/GPa)
#
#
# Indices 1 2 3 4 5 6 
#
# 1 0.010629 -0.003581 -0.001262 0.000000 0.000000 0.000000
# 2 -0.003581 0.010629 -0.001262 0.000000 0.000000 0.000000
# 3 -0.001262 -0.001262 0.008448 0.000000 0.000000 0.000000
# 4 0.000000 0.000000 0.000000 0.046396 0.000000 0.000000
# 5 0.000000 0.000000 0.000000 0.000000 0.046396 0.000000
# 6 0.000000 0.000000 0.000000 0.000000 0.000000 0.027348
#
#
# Mechanical properties :
#
#
# Convention : Reuss Voigt Hill
#
# Bulk Modulus (GPa) = 57.16095 57.16519 57.16307
# Shear Modulus (GPa) = 29.78168 33.31998 31.55083
#
# Velocity S-wave (km/s) = 3.79451 4.01359 3.90559
# Velocity P-wave (km/s) = 6.84345 7.00826 6.92634
#
# Compressibility (1/GPa) = 0.01749446
#
# Stress axis : x y z
#
# Youngs Moduli (GPa) = 94.08140 94.08119 118.37482
#
# Poissons Ratio (x) = 0.33690 0.14944
# Poissons Ratio (y) = 0.33690 0.14944
# Poissons Ratio (z) = 0.11877 0.11877
#
# Static dielectric constant tensor:
#      x y z
#    x 1.788130 0.000000 0.000000 
#    y 0.000000 1.788130 0.000000 
#    z 0.000000 0.000000 1.810030 
# 
# From -- ./inp_files/766.got.cif
#   From: 2010.05.17/outbox.cif.g08.bks.cpg/sg116_1_cif.got.tgz:766.got - 2010.05.20 11:11:43.
