data_PCOD9557470
_publ_section_title
;
Structure prediction by ZEFSAII (Michael W. Deem and Ramdas Pophale) SiO2 
 PCOD9557470
Probable space group: P -4 M 2
;
_chemical_formula_sum "Si O2"
_cell_formula_units_Z 40
_cell_length_a 7.603654
_cell_length_b 7.603654
_cell_length_c 31.535984
_cell_angle_alpha 90.000000
_cell_angle_beta 90.000000
_cell_angle_gamma 90.000000
_cell_volume 1823.270391
_symmetry_space_group_name_H-M "P -4 M 2"
_symmetry_group_IT_number 115
_symmetry_cell_setting 'tetragonal'
loop_
_space_group_symop_operation_xyz
x,y,z
y,-x,-z
-x,-y,z
-y,x,-z
y,x,-z
-y,-x,-z
-x,y,z
x,-y,z
loop_
_atom_site_type_symbol
_atom_site_label
_atom_site_fract_x
_atom_site_fract_y
_atom_site_fract_z
Si Si1 0.195678 0.291980 0.546586
Si Si2 0.296497 0.712124 0.045198
Si Si3 0.783911 0.000000 0.799111
Si Si4 0.299930 0.790190 0.138008
Si Si5 0.297428 0.215860 0.362785
Si Si6 0.000000 0.785252 0.298060
O O1 0.273885 0.273885 0.500000
O O2 0.183527 0.500000 0.554123
O O3 0.278052 0.228811 0.590812
O O4 0.000000 0.215945 0.543425
O O5 0.500000 0.773505 0.047474
O O6 0.297068 0.500000 0.042158
O O7 0.221666 0.758008 0.090997
O O8 0.222877 0.777124 0.000000
O O9 0.725161 0.829070 0.825449
O O10 0.726634 0.000000 0.750460
O O11 0.000000 0.000000 0.799247
O O12 0.500000 0.718623 0.140000
O O13 0.311780 0.000000 0.142824
O O14 0.500000 0.269210 0.356029
O O15 0.170409 0.269437 0.324952
O O16 0.295243 0.000000 0.364935
O O17 0.000000 0.000000 0.297463
#
# Coordination Sequence:
#
# PCOD9557470 Si02
#       6
#     8   8   4   8   8   4
#     4   9  18  30  44  67  96 124 156 194 236 290
#     4   8  14  27  47  68  90 118 154 193 232 281
#     4   9  18  30  43  65  95 125 165 207 241 302
#     4   9  17  30  46  64  93 126 154 197 252 298
#     4   8  15  27  41  63  96 123 154 204 248 292
#     4   9  16  26  44  65  89 127 165 199 249 298
#
# _framework density 21.938597999999999
#
# number of rings (size 3 to 8) (size 9 to 14) (size 15 to 20)
#    0.000    3.400    0.000    1.800    1.400    1.200 
#    1.800    4.500    0.000    0.000    0.000    2.800 
#    0.000    3.200    0.000    0.000    0.000    0.000 
#
# Total GULP energy -222883.536338 kJ/mol
# GULP energy per Si atom -5572.088408 kJ/mol
# Density = 2.188867 g / cm^3
# Si number density = 21.938598 Si / 1000 Ang^3
#
#
#
# Elastic Constant Matrix: (Units=GPa)
#
#
# Indices 1 2 3 4 5 6 
#
# 1 65.6007 10.9557 51.7430 0.0000 0.0000 0.0000
# 2 10.9557 65.6008 51.7430 0.0000 0.0000 0.0000
# 3 51.7430 51.7430 268.5395 0.0000 0.0000 0.0000
# 4 0.0000 0.0000 0.0000 22.1798 0.0000 0.0000
# 5 0.0000 0.0000 0.0000 0.0000 22.1801 0.0000
# 6 0.0000 0.0000 0.0000 0.0000 0.0000 3.9248
#
#
#
# Elastic Compliance Matrix: (Units=1/GPa)
#
#
# Indices 1 2 3 4 5 6 
#
# 1 0.017981 -0.000319 -0.003403 0.000000 0.000000 0.000000
# 2 -0.000319 0.017981 -0.003403 0.000000 0.000000 0.000000
# 3 -0.003403 -0.003403 0.005035 0.000000 0.000000 0.000000
# 4 0.000000 0.000000 0.000000 0.045086 0.000000 0.000000
# 5 0.000000 0.000000 0.000000 0.000000 0.045085 0.000000
# 6 0.000000 0.000000 0.000000 0.000000 0.000000 0.254788
#
#
# Mechanical properties :
#
#
# Convention : Reuss Voigt Hill
#
# Bulk Modulus (GPa) = 37.38658 69.84713 53.61686
# Shear Modulus (GPa) = 12.22123 28.67690 20.44907
#
# Velocity S-wave (km/s) = 2.36278 3.61937 3.05635
# Velocity P-wave (km/s) = 4.95198 7.02660 6.07845
#
# Compressibility (1/GPa) = 0.02674757
#
# Stress axis : x y z
#
# Youngs Moduli (GPa) = 55.61327 55.61335 198.59543
#
# Poissons Ratio (x) = 0.01772 0.67588
# Poissons Ratio (y) = 0.01772 0.67588
# Poissons Ratio (z) = 0.18927 0.18927
#
# Static dielectric constant tensor:
#      x y z
#    x 1.888880 0.000000 0.000000 
#    y 0.000000 1.888880 0.000000 
#    z 0.000000 0.000000 1.818510 
# 
# From -- ./inp_files/5562.got.cif
#   From: 2010.05.17/outbox.cif.g08.bks.cpg/sg115_3_cif.got.tgz:5562.got - 2010.05.20 11:07:42.
