data_PCOD9557112
_publ_section_title
;
Structure prediction by ZEFSAII (Michael W. Deem and Ramdas Pophale) SiO2 
 PCOD9557112
Probable space group: P -4 M 2
;
_chemical_formula_sum "Si O2"
_cell_formula_units_Z 56
_cell_length_a 14.535660
_cell_length_b 14.535660
_cell_length_c 12.808172
_cell_angle_alpha 90.000000
_cell_angle_beta 90.000000
_cell_angle_gamma 90.000000
_cell_volume 2706.179893
_symmetry_space_group_name_H-M "P -4 M 2"
_symmetry_group_IT_number 115
_symmetry_cell_setting 'tetragonal'
loop_
_space_group_symop_operation_xyz
x,y,z
y,-x,-z
-x,-y,z
-y,x,-z
y,x,-z
-y,-x,-z
-x,y,z
x,-y,z
loop_
_atom_site_type_symbol
_atom_site_label
_atom_site_fract_x
_atom_site_fract_y
_atom_site_fract_z
Si Si1 0.245017 0.104050 0.754413
Si Si2 0.896341 0.338540 0.027393
Si Si3 0.792463 0.611476 0.394680
Si Si4 0.892444 0.608961 0.608928
Si Si5 0.262854 0.890506 0.203125
Si Si6 0.388967 0.395124 0.697328
Si Si7 0.601854 0.704204 0.913783
O O1 0.266928 0.097693 0.877742
O O2 0.329261 0.150622 0.690468
O O3 0.159657 0.172860 0.753737
O O4 0.229901 0.000000 0.715666
O O5 0.813861 0.400614 0.071830
O O6 0.000000 0.379068 0.015382
O O7 0.870154 0.293541 0.915990
O O8 0.802635 0.500000 0.376022
O O9 0.833808 0.633703 0.507540
O O10 0.684124 0.634052 0.385459
O O11 0.886100 0.500000 0.622794
O O12 0.863414 0.657516 0.715557
O O13 0.000000 0.631698 0.589190
O O14 0.250429 0.000000 0.206688
O O15 0.500000 0.403664 0.694326
O O16 0.352089 0.500000 0.687413
O O17 0.367374 0.342152 0.805560
O O18 0.500000 0.667362 0.934451
O O19 0.670447 0.670447 0.000000
#
# Coordination Sequence:
#
# PCOD9557112 Si02
#       7
#     8   8   8   8   8   8   8
#     4  11  22  37  62  94 125 159 203 257 320 386
#     4  10  22  39  59  87 124 165 208 260 320 376
#     4  10  20  37  61  91 125 161 207 261 319 380
#     4   9  19  38  64  91 121 163 213 264 321 383
#     4  10  22  41  62  86 123 166 209 261 317 382
#     4   9  18  33  54  86 126 163 203 251 304 368
#     4  11  21  34  54  84 125 168 207 250 305 378
#
# _framework density 20.693377999999999
#
# number of rings (size 3 to 8) (size 9 to 14) (size 15 to 20)
#    0.000    2.000    1.429    2.143    0.000    3.286 
#    0.000    3.571    0.000    3.429    0.000    2.000 
#    0.000    6.857    0.000    0.000    0.000    0.000 
#
# Total GULP energy -312328.699116 kJ/mol
# GULP energy per Si atom -5577.298199 kJ/mol
# Density = 2.064628 g / cm^3
# Si number density = 20.693378 Si / 1000 Ang^3
#
#
#
# Elastic Constant Matrix: (Units=GPa)
#
#
# Indices 1 2 3 4 5 6 
#
# 1 91.3059 37.0103 52.9854 0.0000 0.0000 0.0000
# 2 37.0103 91.3059 52.9854 0.0000 0.0000 0.0000
# 3 52.9854 52.9854 117.8943 0.0000 0.0000 0.0000
# 4 0.0000 0.0000 0.0000 22.2998 0.0000 0.0000
# 5 0.0000 0.0000 0.0000 0.0000 22.2998 0.0000
# 6 0.0000 0.0000 0.0000 0.0000 0.0000 25.8308
#
#
#
# Elastic Compliance Matrix: (Units=1/GPa)
#
#
# Indices 1 2 3 4 5 6 
#
# 1 0.015405 -0.003012 -0.005570 0.000000 0.000000 0.000000
# 2 -0.003012 0.015405 -0.005570 0.000000 0.000000 0.000000
# 3 -0.005570 -0.005570 0.013489 0.000000 0.000000 0.000000
# 4 0.000000 0.000000 0.000000 0.044843 0.000000 0.000000
# 5 0.000000 0.000000 0.000000 0.000000 0.044843 0.000000
# 6 0.000000 0.000000 0.000000 0.000000 0.000000 0.038714
#
#
# Mechanical properties :
#
#
# Convention : Reuss Voigt Hill
#
# Bulk Modulus (GPa) = 62.51738 65.16315 63.84027
# Shear Modulus (GPa) = 24.23235 24.58775 24.41005
#
# Velocity S-wave (km/s) = 3.42573 3.45076 3.43827
# Velocity P-wave (km/s) = 6.77675 6.88732 6.83226
#
# Compressibility (1/GPa) = 0.01599555
#
# Stress axis : x y z
#
# Youngs Moduli (GPa) = 64.91212 64.91212 74.13592
#
# Poissons Ratio (x) = 0.19553 0.41293
# Poissons Ratio (y) = 0.19553 0.41293
# Poissons Ratio (z) = 0.36155 0.36155
#
# Static dielectric constant tensor:
#      x y z
#    x 1.770540 0.000000 0.000000 
#    y 0.000000 1.770540 0.000000 
#    z 0.000000 0.000000 1.743760 
# 
# From -- ./inp_files/3100.got.cif
#   From: 2010.05.17/outbox.cif.g08.bks.cpg/sg115_2_cif.got.tgz:3100.got - 2010.05.20 11:07:42.
