data_PCOD9557433
_publ_section_title
;
Structure prediction by ZEFSAII (Michael W. Deem and Ramdas Pophale) SiO2 
 PCOD9557433
Probable space group: P -4 M 2
;
_chemical_formula_sum "Si O2"
_cell_formula_units_Z 42
_cell_length_a 11.611051
_cell_length_b 11.611051
_cell_length_c 21.348455
_cell_angle_alpha 90.000000
_cell_angle_beta 90.000000
_cell_angle_gamma 90.000000
_cell_volume 2878.124097
_symmetry_space_group_name_H-M "P -4 M 2"
_symmetry_group_IT_number 115
_symmetry_cell_setting 'tetragonal'
loop_
_space_group_symop_operation_xyz
x,y,z
y,-x,-z
-x,-y,z
-y,x,-z
y,x,-z
-y,-x,-z
-x,y,z
x,-y,z
loop_
_atom_site_type_symbol
_atom_site_label
_atom_site_fract_x
_atom_site_fract_y
_atom_site_fract_z
Si Si1 0.634296 0.640311 0.432691
Si Si2 0.638636 0.238194 0.169694
Si Si3 0.241134 0.363944 0.057855
Si Si4 0.359713 0.366458 0.295458
Si Si5 0.253481 0.000000 0.122752
Si Si6 0.000000 0.000000 0.904794
Si Si7 0.247395 0.000000 0.970659
O O1 0.681770 0.681770 0.500000
O O2 0.500000 0.674874 0.431938
O O3 0.636003 0.500000 0.434045
O O4 0.683254 0.671307 0.364513
O O5 0.500000 0.237599 0.164872
O O6 0.692819 0.326990 0.120348
O O7 0.671622 0.282192 0.238957
O O8 0.687057 0.113531 0.150365
O O9 0.231090 0.500000 0.052239
O O10 0.115242 0.306796 0.054642
O O11 0.312272 0.312272 0.000000
O O12 0.500000 0.368038 0.298220
O O13 0.325053 0.500000 0.283768
O O14 0.116960 0.000000 0.134981
O O15 0.259339 0.000000 0.046351
O O16 0.116563 0.000000 0.946046
#
# Coordination Sequence:
#
# PCOD9557433 Si02
#       7
#     8   8   8   8   4   2   4
#     4   7   9  15  31  56  85 120 161 194 213 243
#     4  11  22  34  48  69  98 129 157 191 237 293
#     4  12  24  36  52  72  96 123 156 196 237 290
#     4   8  14  25  40  60  93 133 161 181 218 276
#     4  12  22  36  55  71  86 111 158 206 254 284
#     4  12  21  40  64  72  84 110 153 214 261 294
#     4  12  22  40  57  75  88 112 160 214 256 279
#
# _framework density 14.592839
#
# number of rings (size 3 to 8) (size 9 to 14) (size 15 to 20)
#    0.000    1.905    3.810    4.286    0.000    2.857 
#    0.000    0.000    0.000    0.000    0.000    0.000 
#    0.000    3.048    0.000   20.571    0.000    5.143 
#
# Total GULP energy -233948.373528 kJ/mol
# GULP energy per Si atom -5570.199370 kJ/mol
# Density = 1.455963 g / cm^3
# Si number density = 14.592839 Si / 1000 Ang^3
#
#
#
# Elastic Constant Matrix: (Units=GPa)
#
#
# Indices 1 2 3 4 5 6 
#
# 1 88.7802 36.5530 40.1393 0.0000 0.0000 0.0000
# 2 36.5530 88.7802 40.1393 0.0000 0.0000 0.0000
# 3 40.1393 40.1393 131.9830 0.0000 0.0000 0.0000
# 4 0.0000 0.0000 0.0000 -1.4747 0.0000 0.0000
# 5 0.0000 0.0000 0.0000 0.0000 -1.4747 0.0000
# 6 0.0000 0.0000 0.0000 0.0000 0.0000 8.0057
#
#
#
# Elastic Compliance Matrix: (Units=1/GPa)
#
#
# Indices 1 2 3 4 5 6 
#
# 1 0.014528 -0.004619 -0.003014 0.000000 0.000000 0.000000
# 2 -0.004619 0.014528 -0.003014 0.000000 0.000000 0.000000
# 3 -0.003014 -0.003014 0.009410 0.000000 0.000000 0.000000
# 4 0.000000 0.000000 0.000000 -0.678097 0.000000 0.000000
# 5 0.000000 0.000000 0.000000 0.000000 -0.678097 0.000000
# 6 0.000000 0.000000 0.000000 0.000000 0.000000 0.124911
#
#
# Mechanical properties :
#
#
# Convention : Reuss Voigt Hill
#
# Bulk Modulus (GPa) = 58.22945 60.35627 59.29286
# Shear Modulus (GPa) = -4.28890 13.85870 4.78490
#
# Velocity S-wave (km/s) = -1.71622 3.08505 1.81275
# Velocity P-wave (km/s) = 6.00518 7.35799 6.71573
#
# Compressibility (1/GPa) = 0.01717344
#
# Stress axis : x y z
#
# Youngs Moduli (GPa) = 68.83232 68.83232 106.27290
#
# Poissons Ratio (x) = 0.31794 0.32026
# Poissons Ratio (y) = 0.31794 0.32026
# Poissons Ratio (z) = 0.20743 0.20743
#
# Static dielectric constant tensor:
#      x y z
#    x 1.473550 0.000000 0.000000 
#    y 0.000000 1.473550 0.000000 
#    z 0.000000 0.000000 1.520060 
# 
# From -- ./inp_files/4789.got.cif
#   From: 2010.05.17/outbox.cif.g08.bks.cpg/sg115_3_cif.got.tgz:4789.got - 2010.05.20 11:07:42.
