data_PCOD9557895
_publ_section_title
;
Structure prediction by ZEFSAII (Michael W. Deem and Ramdas Pophale) SiO2 
 PCOD9557895
Probable space group: P -4 C 2
;
_chemical_formula_sum "Si O2"
_cell_formula_units_Z 34
_cell_length_a 11.165832
_cell_length_b 11.165832
_cell_length_c 11.357688
_cell_angle_alpha 90.000000
_cell_angle_beta 90.000000
_cell_angle_gamma 90.000000
_cell_volume 1416.028886
_symmetry_space_group_name_H-M "P -4 C 2"
_symmetry_group_IT_number 116
_symmetry_cell_setting 'tetragonal'
loop_
_space_group_symop_operation_xyz
x,y,z
y,-x,-z
-x,-y,z
-y,x,-z
y,x,1/2-z
-y,-x,1/2-z
-x,y,1/2+z
x,-y,1/2+z
loop_
_atom_site_type_symbol
_atom_site_label
_atom_site_fract_x
_atom_site_fract_y
_atom_site_fract_z
Si Si1 0.000000 0.000000 0.500000
Si Si2 0.207564 0.941991 0.657006
Si Si3 0.413036 0.103916 0.641158
Si Si4 0.516603 0.692785 0.817442
Si Si5 0.292317 0.296659 0.472701
O O1 0.116957 0.017972 0.577803
O O2 0.126268 0.873733 0.750000
O O3 0.266952 0.836299 0.580812
O O4 0.307075 0.031159 0.706808
O O5 0.479047 0.193020 0.730956
O O6 0.351446 0.182952 0.539581
O O7 0.500000 0.000000 0.594737
O O8 0.587648 0.587648 0.750000
O O9 0.386367 0.666712 0.871054
O O10 0.598741 0.717963 0.931912
#
# Coordination Sequence:
#
# PCOD9557895 Si02
#       5
#     2   8   8   8   8
#     4  12  26  44  64 102 144 184 238 296 360 422
#     4  12  26  41  70 103 144 191 242 296 360 426
#     4  11  24  44  72 103 141 190 243 296 356 440
#     4  10  25  46  73 102 141 185 241 302 367 435
#     4  11  24  46  71 104 142 191 237 301 364 435
#
# _framework density 24.010811
#
# number of rings (size 3 to 8) (size 9 to 14) (size 15 to 20)
#    0.000    0.941    2.353    3.176    3.294    8.941 
#    0.000    5.882    0.000    0.000    0.000    0.000 
#    0.000    0.000    0.000    0.000    0.000    0.000 
#
# Total GULP energy -190614.706353 kJ/mol
# GULP energy per Si atom -5606.314893 kJ/mol
# Density = 2.395616 g / cm^3
# Si number density = 24.010811 Si / 1000 Ang^3
#
#
#
# Elastic Constant Matrix: (Units=GPa)
#
#
# Indices 1 2 3 4 5 6 
#
# 1 97.8930 33.3780 18.7233 0.0000 0.0000 0.0000
# 2 33.3780 97.8929 18.7233 0.0000 0.0000 0.0000
# 3 18.7233 18.7233 81.6989 0.0000 0.0000 0.0000
# 4 0.0000 0.0000 0.0000 22.7218 0.0000 0.0000
# 5 0.0000 0.0000 0.0000 0.0000 22.7206 0.0000
# 6 0.0000 0.0000 0.0000 0.0000 0.0000 62.1923
#
#
#
# Elastic Compliance Matrix: (Units=1/GPa)
#
#
# Indices 1 2 3 4 5 6 
#
# 1 0.011825 -0.003675 -0.001868 0.000000 0.000000 0.000000
# 2 -0.003675 0.011825 -0.001868 0.000000 0.000000 0.000000
# 3 -0.001868 -0.001868 0.013096 0.000000 0.000000 0.000000
# 4 0.000000 0.000000 0.000000 0.044011 0.000000 0.000000
# 5 0.000000 0.000000 0.000000 0.000000 0.044013 0.000000
# 6 0.000000 0.000000 0.000000 0.000000 0.000000 0.016079
#
#
# Mechanical properties :
#
#
# Convention : Reuss Voigt Hill
#
# Bulk Modulus (GPa) = 45.60819 46.57043 46.08931
# Shear Modulus (GPa) = 30.67866 35.30429 32.99147
#
# Velocity S-wave (km/s) = 3.57837 3.83867 3.71081
# Velocity P-wave (km/s) = 6.00908 6.25179 6.13164
#
# Compressibility (1/GPa) = 0.02192588
#
# Stress axis : x y z
#
# Youngs Moduli (GPa) = 84.56321 84.56310 76.35786
#
# Poissons Ratio (x) = 0.31075 0.14263
# Poissons Ratio (y) = 0.31075 0.14263
# Poissons Ratio (z) = 0.15796 0.15796
#
# Static dielectric constant tensor:
#      x y z
#    x 1.918420 0.000000 0.000000 
#    y 0.000000 1.918420 0.000000 
#    z 0.000000 0.000000 1.902360 
# 
# From -- ./inp_files/1590.got.cif
#   From: 2010.05.17/outbox.cif.g08.bks.cpg/sg116_1_cif.got.tgz:1590.got - 2010.05.20 11:11:43.
