data_PCOD9557004
_publ_section_title
;
Structure prediction by ZEFSAII (Michael W. Deem and Ramdas Pophale) SiO2 
 PCOD9557004
Probable space group: P -4 M 2
;
_chemical_formula_sum "Si O2"
_cell_formula_units_Z 48
_cell_length_a 7.879695
_cell_length_b 7.879695
_cell_length_c 36.674344
_cell_angle_alpha 90.000000
_cell_angle_beta 90.000000
_cell_angle_gamma 90.000000
_cell_volume 2277.095103
_symmetry_space_group_name_H-M "P -4 M 2"
_symmetry_group_IT_number 115
_symmetry_cell_setting 'tetragonal'
loop_
_space_group_symop_operation_xyz
x,y,z
y,-x,-z
-x,-y,z
-y,x,-z
y,x,-z
-y,-x,-z
-x,y,z
x,-y,z
loop_
_atom_site_type_symbol
_atom_site_label
_atom_site_fract_x
_atom_site_fract_y
_atom_site_fract_z
Si Si1 0.297143 0.307188 0.195391
Si Si2 0.306269 0.293184 0.458671
Si Si3 0.705065 0.000000 0.591820
Si Si4 0.307345 0.201253 0.275104
Si Si5 0.795180 0.000000 0.676334
Si Si6 0.308076 0.202698 0.960346
Si Si7 0.298773 0.796755 0.882532
O O1 0.500000 0.314428 0.197133
O O2 0.228413 0.500000 0.194763
O O3 0.244097 0.225789 0.233497
O O4 0.258204 0.224896 0.156259
O O5 0.251279 0.251279 0.500000
O O6 0.500000 0.234104 0.452384
O O7 0.311187 0.500000 0.457751
O O8 0.168440 0.234749 0.429441
O O9 0.500000 0.000000 0.589690
O O10 0.754350 0.000000 0.633866
O O11 0.500000 0.271593 0.278716
O O12 0.168629 0.270422 0.303153
O O13 0.320045 0.000000 0.281157
O O14 0.000000 0.000000 0.680308
O O15 0.500000 0.269795 0.961736
O O16 0.228790 0.264339 0.921870
O O17 0.315224 0.000000 0.956548
O O18 0.233101 0.233101 0.000000
O O19 0.500000 0.747723 0.882569
O O20 0.290607 0.000000 0.882059
#
# Coordination Sequence:
#
# PCOD9557004 Si02
#       7
#     8   8   4   8   4   8   8
#     4   9  17  29  48  75  99 118 153 205 251 296
#     4   8  15  31  54  78 109 146 178 218 275 326
#     4  10  20  34  54  82 110 138 184 230 266 322
#     4   9  19  36  54  70  97 138 173 208 259 315
#     4  10  22  38  52  72 106 140 176 216 262 314
#     4   9  18  32  48  67  93 125 161 197 238 292
#     4   8  15  28  45  66  93 122 150 190 245 298
#
# _framework density 21.079488000000001
#
# number of rings (size 3 to 8) (size 9 to 14) (size 15 to 20)
#    0.000    3.167    0.000    1.500    1.167    2.333 
#    1.500    2.500    0.000    3.000    0.000    0.000 
#    0.000    0.000    0.000    0.000    0.000    0.000 
#
# Total GULP energy -267324.486774 kJ/mol
# GULP energy per Si atom -5569.260141 kJ/mol
# Density = 2.103151 g / cm^3
# Si number density = 21.079488 Si / 1000 Ang^3
#
#
#
# Elastic Constant Matrix: (Units=GPa)
#
#
# Indices 1 2 3 4 5 6 
#
# 1 43.8433 17.9438 52.0348 0.0000 0.0000 0.0000
# 2 17.9438 43.8433 52.0348 0.0000 0.0000 0.0000
# 3 52.0348 52.0348 225.7598 0.0000 0.0000 0.0000
# 4 0.0000 0.0000 0.0000 25.4153 0.0000 0.0000
# 5 0.0000 0.0000 0.0000 0.0000 25.4153 0.0000
# 6 0.0000 0.0000 0.0000 0.0000 0.0000 5.9345
#
#
#
# Elastic Compliance Matrix: (Units=1/GPa)
#
#
# Indices 1 2 3 4 5 6 
#
# 1 0.032533 -0.006078 -0.006098 0.000000 0.000000 0.000000
# 2 -0.006078 0.032533 -0.006098 0.000000 0.000000 0.000000
# 3 -0.006098 -0.006098 0.007240 0.000000 0.000000 0.000000
# 4 0.000000 0.000000 0.000000 0.039346 0.000000 0.000000
# 5 0.000000 0.000000 0.000000 0.000000 0.039346 0.000000
# 6 0.000000 0.000000 0.000000 0.000000 0.000000 0.168506
#
#
# Mechanical properties :
#
#
# Convention : Reuss Voigt Hill
#
# Bulk Modulus (GPa) = 27.96425 61.94147 44.95286
# Shear Modulus (GPa) = 13.58805 24.11521 18.85163
#
# Velocity S-wave (km/s) = 2.54167 3.38600 2.99375
# Velocity P-wave (km/s) = 4.68064 6.68843 5.77250
#
# Compressibility (1/GPa) = 0.03575994
#
# Stress axis : x y z
#
# Youngs Moduli (GPa) = 30.73819 30.73819 138.11602
#
# Poissons Ratio (x) = 0.18683 0.84216
# Poissons Ratio (y) = 0.18683 0.84216
# Poissons Ratio (z) = 0.18743 0.18743
#
# Static dielectric constant tensor:
#      x y z
#    x 1.778670 0.000000 0.000000 
#    y 0.000000 1.778670 0.000000 
#    z 0.000000 0.000000 1.780100 
# 
# From -- ./inp_files/6197.got.cif
#   From: 2010.05.17/outbox.cif.g08.bks.cpg/sg115_4_cif.got.tgz:6197.got - 2010.05.20 11:07:42.
