data_PCOD9557090
_publ_section_title
;
Structure prediction by ZEFSAII (Michael W. Deem and Ramdas Pophale) SiO2 
 PCOD9557090
Probable space group: P -4 M 2
;
_chemical_formula_sum "Si O2"
_cell_formula_units_Z 40
_cell_length_a 14.286745
_cell_length_b 14.286745
_cell_length_c 9.171310
_cell_angle_alpha 90.000000
_cell_angle_beta 90.000000
_cell_angle_gamma 90.000000
_cell_volume 1871.966014
_symmetry_space_group_name_H-M "P -4 M 2"
_symmetry_group_IT_number 115
_symmetry_cell_setting 'tetragonal'
loop_
_space_group_symop_operation_xyz
x,y,z
y,-x,-z
-x,-y,z
-y,x,-z
y,x,-z
-y,-x,-z
-x,y,z
x,-y,z
loop_
_atom_site_type_symbol
_atom_site_label
_atom_site_fract_x
_atom_site_fract_y
_atom_site_fract_z
Si Si1 0.397901 0.292599 0.370115
Si Si2 0.104868 0.337386 0.511205
Si Si3 0.110935 0.294562 0.173266
Si Si4 0.184064 0.611493 0.900886
Si Si5 0.897339 0.791098 0.765883
O O1 0.338438 0.338438 0.500000
O O2 0.500000 0.336771 0.370153
O O3 0.400223 0.184929 0.421388
O O4 0.368734 0.276621 0.200232
O O5 0.120205 0.326604 0.340149
O O6 0.112233 0.237638 0.595813
O O7 0.000000 0.372426 0.535848
O O8 0.147316 0.187461 0.174203
O O9 0.000000 0.300256 0.136406
O O10 0.175739 0.357930 0.069163
O O11 0.165782 0.500000 0.888670
O O12 0.111226 0.687717 0.837094
O O13 0.000000 0.831131 0.792757
#
# Coordination Sequence:
#
# PCOD9557090 Si02
#       5
#     8   8   8   8   8
#     4  10  21  39  63  89 119 155 195 243 300 366
#     4   9  19  36  58  84 117 159 207 258 306 350
#     4  11  22  36  57  86 123 164 203 248 301 360
#     4  10  22  39  58  81 113 153 194 242 303 360
#     4  10  20  36  58  83 117 161 206 254 303 355
#
# _framework density 21.367909999999998
#
# number of rings (size 3 to 8) (size 9 to 14) (size 15 to 20)
#    0.000    2.000    0.000    4.200    0.000    4.200 
#    0.000    8.000    0.000    6.000    0.000    0.000 
#    0.000    3.200    0.000    0.000    0.000    0.000 
#
# Total GULP energy -222672.590404 kJ/mol
# GULP energy per Si atom -5566.814760 kJ/mol
# Density = 2.131928 g / cm^3
# Si number density = 21.367910 Si / 1000 Ang^3
#
#
#
# Elastic Constant Matrix: (Units=GPa)
#
#
# Indices 1 2 3 4 5 6 
#
# 1 66.0551 20.4870 16.5863 0.0000 0.0000 0.0000
# 2 20.4870 66.0551 16.5863 0.0000 0.0000 0.0000
# 3 16.5863 16.5863 110.0929 0.0000 0.0000 0.0000
# 4 0.0000 0.0000 0.0000 26.9336 0.0000 0.0000
# 5 0.0000 0.0000 0.0000 0.0000 26.9336 0.0000
# 6 0.0000 0.0000 0.0000 0.0000 0.0000 -3.4704
#
#
#
# Elastic Compliance Matrix: (Units=1/GPa)
#
#
# Indices 1 2 3 4 5 6 
#
# 1 0.017104 -0.004841 -0.001848 0.000000 0.000000 0.000000
# 2 -0.004841 0.017104 -0.001848 0.000000 0.000000 0.000000
# 3 -0.001848 -0.001848 0.009640 0.000000 0.000000 0.000000
# 4 0.000000 0.000000 0.000000 0.037128 0.000000 0.000000
# 5 0.000000 0.000000 0.000000 0.000000 0.037128 0.000000
# 6 0.000000 0.000000 0.000000 0.000000 0.000000 -0.288153
#
#
# Mechanical properties :
#
#
# Convention : Reuss Voigt Hill
#
# Bulk Modulus (GPa) = 37.34654 38.83581 38.09117
# Shear Modulus (GPa) = -34.71020 22.64892 -6.03064
#
# Velocity S-wave (km/s) = -4.03477 3.25922 -1.68179
# Velocity P-wave (km/s) = 2.04695 5.69013 3.75417
#
# Compressibility (1/GPa) = 0.02677625
#
# Stress axis : x y z
#
# Youngs Moduli (GPa) = 58.46505 58.46505 103.73516
#
# Poissons Ratio (x) = 0.28303 0.19166
# Poissons Ratio (y) = 0.28303 0.19166
# Poissons Ratio (z) = 0.10802 0.10802
#
# Static dielectric constant tensor:
#      x y z
#    x 1.768800 0.000000 0.000000 
#    y 0.000000 1.768800 0.000000 
#    z 0.000000 0.000000 1.938170 
# 
# From -- ./inp_files/1583.got.cif
#   From: 2010.05.17/outbox.cif.g08.bks.cpg/sg115_1_cif.got.tgz:1583.got - 2010.05.20 11:07:42.
