data_PCOD9557350
_publ_section_title
;
Structure prediction by ZEFSAII (Michael W. Deem and Ramdas Pophale) SiO2 
 PCOD9557350
Probable space group: P -4 M 2
;
_chemical_formula_sum "Si O2"
_cell_formula_units_Z 56
_cell_length_a 14.675095
_cell_length_b 14.675095
_cell_length_c 11.678824
_cell_angle_alpha 90.000000
_cell_angle_beta 90.000000
_cell_angle_gamma 90.000000
_cell_volume 2515.133005
_symmetry_space_group_name_H-M "P -4 M 2"
_symmetry_group_IT_number 115
_symmetry_cell_setting 'tetragonal'
loop_
_space_group_symop_operation_xyz
x,y,z
y,-x,-z
-x,-y,z
-y,x,-z
y,x,-z
-y,-x,-z
-x,y,z
x,-y,z
loop_
_atom_site_type_symbol
_atom_site_label
_atom_site_fract_x
_atom_site_fract_y
_atom_site_fract_z
Si Si1 0.898612 0.851180 0.370938
Si Si2 0.774900 0.658819 0.079508
Si Si3 0.836585 0.107826 0.873574
Si Si4 0.101697 0.605765 0.876779
Si Si5 0.597445 0.289353 0.680711
Si Si6 0.896308 0.644549 0.433214
Si Si7 0.211909 0.389064 0.656691
O O1 0.864458 0.864458 0.500000
O O2 0.861695 0.883639 0.247046
O O3 0.899618 0.741378 0.369150
O O4 0.000000 0.889075 0.374624
O O5 0.830067 0.747396 0.120811
O O6 0.732409 0.606334 0.185067
O O7 0.693315 0.693315 0.000000
O O8 0.848580 0.610809 0.998263
O O9 0.817406 0.000000 0.860029
O O10 0.881156 0.118845 0.000000
O O11 0.090814 0.500000 0.847457
O O12 0.170438 0.640044 0.779304
O O13 0.000000 0.647804 0.878754
O O14 0.500000 0.334900 0.654852
O O15 0.596174 0.189303 0.624450
O O16 0.688228 0.344005 0.642844
O O17 0.860820 0.647928 0.564114
O O18 0.000000 0.607919 0.429615
O O19 0.218091 0.500000 0.648047
#
# Coordination Sequence:
#
# PCOD9557350 Si02
#       7
#     8   8   8   8   8   8   8
#     4  10  21  38  60  88 127 173 225 280 339 410
#     4  11  21  39  62  89 131 173 222 280 339 411
#     4  10  22  38  60  89 126 174 225 282 345 412
#     4  10  21  38  64  97 131 172 225 284 347 416
#     4  12  25  42  69 100 135 180 227 279 338 404
#     4  11  24  42  67  97 131 171 219 277 342 407
#     4  11  24  44  68  98 139 180 224 278 340 415
#
# _framework density 22.265224
#
# number of rings (size 3 to 8) (size 9 to 14) (size 15 to 20)
#    0.000    1.286    2.857    3.000    0.000    3.429 
#    0.000    2.857    0.000    1.714    0.000    0.000 
#    0.000    0.000    0.000    0.000    0.000    0.000 
#
# Total GULP energy -312193.679417 kJ/mol
# GULP energy per Si atom -5574.887132 kJ/mol
# Density = 2.221455 g / cm^3
# Si number density = 22.265224 Si / 1000 Ang^3
#
#
#
# Elastic Constant Matrix: (Units=GPa)
#
#
# Indices 1 2 3 4 5 6 
#
# 1 82.5612 21.3490 14.3646 0.0000 0.0000 0.0000
# 2 21.3490 82.5614 14.3649 0.0000 0.0000 0.0000
# 3 14.3646 14.3649 139.5041 0.0000 0.0000 0.0000
# 4 0.0000 0.0000 0.0000 20.6696 0.0000 0.0000
# 5 0.0000 0.0000 0.0000 0.0000 20.6702 0.0000
# 6 0.0000 0.0000 0.0000 0.0000 0.0000 -0.6218
#
#
#
# Elastic Compliance Matrix: (Units=1/GPa)
#
#
# Indices 1 2 3 4 5 6 
#
# 1 0.013121 -0.003215 -0.001020 0.000000 0.000000 0.000000
# 2 -0.003215 0.013121 -0.001020 0.000000 0.000000 0.000000
# 3 -0.001020 -0.001020 0.007378 0.000000 0.000000 0.000000
# 4 0.000000 0.000000 0.000000 0.048380 0.000000 0.000000
# 5 0.000000 0.000000 0.000000 0.000000 0.048379 0.000000
# 6 0.000000 0.000000 0.000000 0.000000 0.000000 -1.608281
#
#
# Mechanical properties :
#
#
# Convention : Reuss Voigt Hill
#
# Bulk Modulus (GPa) = 43.27182 44.97598 44.12390
# Shear Modulus (GPa) = -3.42539 25.11350 10.84405
#
# Velocity S-wave (km/s) = -1.24169 3.36210 2.20929
# Velocity P-wave (km/s) = 4.17387 5.94269 5.13502
#
# Compressibility (1/GPa) = 0.02310973
#
# Stress axis : x y z
#
# Youngs Moduli (GPa) = 76.21286 76.21300 135.53251
#
# Poissons Ratio (x) = 0.24506 0.13824
# Poissons Ratio (y) = 0.24506 0.13824
# Poissons Ratio (z) = 0.07774 0.07774
#
# Static dielectric constant tensor:
#      x y z
#    x 1.830750 0.000000 0.000000 
#    y 0.000000 1.830750 0.000000 
#    z 0.000000 0.000000 1.937350 
# 
# From -- ./inp_files/3092.got.cif
#   From: 2010.05.17/outbox.cif.g08.bks.cpg/sg115_2_cif.got.tgz:3092.got - 2010.05.20 11:07:42.
