data_PCOD9557404
_publ_section_title
;
Structure prediction by ZEFSAII (Michael W. Deem and Ramdas Pophale) SiO2 
 PCOD9557404
Probable space group: P -4 M 2
;
_chemical_formula_sum "Si O2"
_cell_formula_units_Z 37
_cell_length_a 7.576044
_cell_length_b 7.576044
_cell_length_c 28.759902
_cell_angle_alpha 90.000000
_cell_angle_beta 90.000000
_cell_angle_gamma 90.000000
_cell_volume 1650.716067
_symmetry_space_group_name_H-M "P -4 M 2"
_symmetry_group_IT_number 115
_symmetry_cell_setting 'tetragonal'
loop_
_space_group_symop_operation_xyz
x,y,z
y,-x,-z
-x,-y,z
-y,x,-z
y,x,-z
-y,-x,-z
-x,y,z
x,-y,z
loop_
_atom_site_type_symbol
_atom_site_label
_atom_site_fract_x
_atom_site_fract_y
_atom_site_fract_z
Si Si1 0.193540 0.785677 0.149545
Si Si2 0.785307 0.210730 0.549988
Si Si3 0.500000 0.500000 0.000000
Si Si4 0.500000 0.785992 0.079121
Si Si5 0.787390 0.795146 0.350253
Si Si6 0.291330 0.797410 0.249829
O O1 0.335518 0.734864 0.111702
O O2 0.218701 0.717941 0.202213
O O3 0.000000 0.739611 0.133133
O O4 0.208680 0.000000 0.153516
O O5 0.720516 0.279485 0.500000
O O6 0.720500 0.277091 0.600189
O O7 0.000000 0.230211 0.550704
O O8 0.750557 0.000000 0.549107
O O9 0.500000 0.672757 0.032620
O O10 0.500000 0.000000 0.071709
O O11 0.741251 0.714372 0.300375
O O12 0.000000 0.797120 0.352673
O O13 0.724978 0.000000 0.348804
O O14 0.500000 0.806524 0.243070
O O15 0.220555 0.000000 0.253067
#
# Coordination Sequence:
#
# PCOD9557404 Si02
#       6
#     8   8   1   4   8   8
#     4   9  16  29  52  78 107 147 190 231 278 333
#     4   7   9  13  20  30  49  84 131 183 242 308
#     4  12  28  44  68  96 124 164 196 240 290 320
#     4  10  22  42  62  88 122 154 196 239 279 330
#     4   8  12  16  23  39  65 101 148 197 250 317
#     4   9  14  20  32  55  89 127 166 212 265 323
#
# _framework density 22.414515999999999
#
# number of rings (size 3 to 8) (size 9 to 14) (size 15 to 20)
#    0.000    3.459    1.081    2.595    0.000    3.459 
#    0.000    0.000    0.000    0.000    0.000    0.000 
#    0.000    0.000    3.676    0.000   27.892    0.000 
#
# Total GULP energy -206187.110903 kJ/mol
# GULP energy per Si atom -5572.624619 kJ/mol
# Density = 2.236350 g / cm^3
# Si number density = 22.414516 Si / 1000 Ang^3
#
#
#
# Elastic Constant Matrix: (Units=GPa)
#
#
# Indices 1 2 3 4 5 6 
#
# 1 76.2914 11.0323 53.5409 0.0000 0.0000 0.0000
# 2 11.0323 76.2915 53.5410 0.0000 0.0000 0.0000
# 3 53.5409 53.5410 235.1350 0.0000 0.0000 0.0000
# 4 0.0000 0.0000 0.0000 6.3016 0.0000 0.0000
# 5 0.0000 0.0000 0.0000 0.0000 6.3015 0.0000
# 6 0.0000 0.0000 0.0000 0.0000 0.0000 -5.3711
#
#
#
# Elastic Compliance Matrix: (Units=1/GPa)
#
#
# Indices 1 2 3 4 5 6 
#
# 1 0.015606 0.000282 -0.003618 0.000000 0.000000 0.000000
# 2 0.000282 0.015606 -0.003618 0.000000 0.000000 0.000000
# 3 -0.003618 -0.003618 0.005900 0.000000 0.000000 0.000000
# 4 0.000000 0.000000 0.000000 0.158690 0.000000 0.000000
# 5 0.000000 0.000000 0.000000 0.000000 0.158691 0.000000
# 6 0.000000 0.000000 0.000000 0.000000 0.000000 -0.186182
#
#
# Mechanical properties :
#
#
# Convention : Reuss Voigt Hill
#
# Bulk Modulus (GPa) = 43.09348 69.32736 56.21042
# Shear Modulus (GPa) = 26.32229 19.41998 22.87114
#
# Velocity S-wave (km/s) = 3.43058 2.94666 3.19779
# Velocity P-wave (km/s) = 5.91264 6.52487 6.22628
#
# Compressibility (1/GPa) = 0.02320536
#
# Stress axis : x y z
#
# Youngs Moduli (GPa) = 64.07898 64.07906 169.47962
#
# Poissons Ratio (x) = -0.01808 0.61313
# Poissons Ratio (y) = -0.01808 0.61313
# Poissons Ratio (z) = 0.23182 0.23182
#
# Static dielectric constant tensor:
#      x y z
#    x 1.862110 0.000000 0.000000 
#    y 0.000000 1.862110 0.000000 
#    z 0.000000 0.000000 1.854590 
# 
# From -- ./inp_files/5212.got.cif
#   From: 2010.05.17/outbox.cif.g08.bks.cpg/sg115_3_cif.got.tgz:5212.got - 2010.05.20 11:07:42.
