data_PCOD9557361
_publ_section_title
;
Structure prediction by ZEFSAII (Michael W. Deem and Ramdas Pophale) SiO2 
 PCOD9557361
Probable space group: P -4 M 2
;
_chemical_formula_sum "Si O2"
_cell_formula_units_Z 32
_cell_length_a 12.232827
_cell_length_b 12.232827
_cell_length_c 11.193245
_cell_angle_alpha 90.000000
_cell_angle_beta 90.000000
_cell_angle_gamma 90.000000
_cell_volume 1674.980200
_symmetry_space_group_name_H-M "P -4 M 2"
_symmetry_group_IT_number 115
_symmetry_cell_setting 'tetragonal'
loop_
_space_group_symop_operation_xyz
x,y,z
y,-x,-z
-x,-y,z
-y,x,-z
y,x,-z
-y,-x,-z
-x,y,z
x,-y,z
loop_
_atom_site_type_symbol
_atom_site_label
_atom_site_fract_x
_atom_site_fract_y
_atom_site_fract_z
Si Si1 0.126326 0.268247 0.588775
Si Si2 0.200173 0.500000 0.179515
Si Si3 0.500000 0.177341 0.537305
Si Si4 0.274348 0.323006 0.793502
Si Si5 0.874246 0.500000 0.925092
Si Si6 0.628466 0.500000 0.617703
O O1 0.188441 0.188441 0.500000
O O2 0.134566 0.390900 0.529640
O O3 0.187903 0.255347 0.715454
O O4 0.000000 0.242961 0.602039
O O5 0.161277 0.500000 0.319128
O O6 0.264563 0.615700 0.160302
O O7 0.118849 0.500000 0.068046
O O8 0.500000 0.307269 0.507387
O O9 0.199828 0.397250 0.880470
O O10 0.326133 0.399236 0.691673
O O11 0.000000 0.500000 0.875939
O O12 0.500000 0.500000 0.622281
#
# Coordination Sequence:
#
# PCOD9557361 Si02
#       6
#     8   4   4   8   4   4
#     4  11  22  39  63  91 126 166 207 254 308 379
#     4  12  21  39  61  89 120 157 210 268 314 355
#     4  10  22  37  59  92 127 161 201 253 314 375
#     4  10  21  39  59  87 121 160 209 253 311 371
#     4  11  25  41  60  83 121 173 215 254 310 379
#     4   9  17  31  55  85 125 161 188 234 302 392
#
# _framework density 19.104704000000002
#
# number of rings (size 3 to 8) (size 9 to 14) (size 15 to 20)
#    0.000    1.500    3.750    2.625    0.000    1.250 
#    4.500    1.250    0.000    0.000    0.000    0.000 
#    0.000    2.000    0.000    0.000    0.000    0.000 
#
# Total GULP energy -178236.835940 kJ/mol
# GULP energy per Si atom -5569.901123 kJ/mol
# Density = 1.906122 g / cm^3
# Si number density = 19.104704 Si / 1000 Ang^3
#
#
#
# Elastic Constant Matrix: (Units=GPa)
#
#
# Indices 1 2 3 4 5 6 
#
# 1 132.8094 30.6081 26.3064 0.0000 0.0000 0.0000
# 2 30.6081 132.8094 26.3064 0.0000 0.0000 0.0000
# 3 26.3064 26.3064 100.7957 0.0000 0.0000 0.0000
# 4 0.0000 0.0000 0.0000 20.4425 0.0000 0.0000
# 5 0.0000 0.0000 0.0000 0.0000 20.4425 0.0000
# 6 0.0000 0.0000 0.0000 0.0000 0.0000 2.4457
#
#
#
# Elastic Compliance Matrix: (Units=1/GPa)
#
#
# Indices 1 2 3 4 5 6 
#
# 1 0.008233 -0.001552 -0.001744 0.000000 0.000000 0.000000
# 2 -0.001552 0.008233 -0.001744 0.000000 0.000000 0.000000
# 3 -0.001744 -0.001744 0.010831 0.000000 0.000000 0.000000
# 4 0.000000 0.000000 0.000000 0.048918 0.000000 0.000000
# 5 0.000000 0.000000 0.000000 0.000000 0.048918 0.000000
# 6 0.000000 0.000000 0.000000 0.000000 0.000000 0.408874
#
#
# Mechanical properties :
#
#
# Convention : Reuss Voigt Hill
#
# Bulk Modulus (GPa) = 58.07815 59.20627 58.64221
# Shear Modulus (GPa) = 9.09382 27.54570 18.31976
#
# Velocity S-wave (km/s) = 2.18411 3.80126 3.09999
# Velocity P-wave (km/s) = 6.06847 7.09393 6.60114
#
# Compressibility (1/GPa) = 0.01721818
#
# Stress axis : x y z
#
# Youngs Moduli (GPa) = 121.46790 121.46790 92.32627
#
# Poissons Ratio (x) = 0.18852 0.16098
# Poissons Ratio (y) = 0.18852 0.16098
# Poissons Ratio (z) = 0.21179 0.21179
#
# Static dielectric constant tensor:
#      x y z
#    x 1.706540 0.000000 0.000000 
#    y 0.000000 1.706540 0.000000 
#    z 0.000000 0.000000 1.693290 
# 
# From -- ./inp_files/2604.got.cif
#   From: 2010.05.17/outbox.cif.g08.bks.cpg/sg115_2_cif.got.tgz:2604.got - 2010.05.20 11:07:42.
