data_PCOD9557578
_publ_section_title
;
Structure prediction by ZEFSAII (Michael W. Deem and Ramdas Pophale) SiO2 
 PCOD9557578
Probable space group: P -4 C 2
;
_chemical_formula_sum "Si O2"
_cell_formula_units_Z 64
_cell_length_a 17.787201
_cell_length_b 17.787201
_cell_length_c 12.793054
_cell_angle_alpha 90.000000
_cell_angle_beta 90.000000
_cell_angle_gamma 90.000000
_cell_volume 4047.524242
_symmetry_space_group_name_H-M "P -4 C 2"
_symmetry_group_IT_number 116
_symmetry_cell_setting 'tetragonal'
loop_
_space_group_symop_operation_xyz
x,y,z
y,-x,-z
-x,-y,z
-y,x,-z
y,x,1/2-z
-y,-x,1/2-z
-x,y,1/2+z
x,-y,1/2+z
loop_
_atom_site_type_symbol
_atom_site_label
_atom_site_fract_x
_atom_site_fract_y
_atom_site_fract_z
Si Si1 0.319060 0.446223 0.393451
Si Si2 0.561696 0.677536 0.455560
Si Si3 0.085314 0.584780 0.807673
Si Si4 0.853540 0.566560 0.079141
Si Si5 0.832803 0.601558 0.508416
Si Si6 0.787140 0.668496 0.718886
Si Si7 0.088527 0.590154 0.354773
Si Si8 0.542607 0.341665 0.280636
O O1 0.378419 0.383017 0.421305
O O2 0.332845 0.533898 0.425844
O O3 0.241747 0.422479 0.445586
O O4 0.318860 0.462459 0.270489
O O5 0.582660 0.764533 0.437546
O O6 0.482588 0.657750 0.400605
O O7 0.118258 0.596444 0.691314
O O8 0.114965 0.626452 0.912107
O O9 0.106687 0.497479 0.831186
O O10 0.996042 0.597151 0.812439
O O11 0.860801 0.474892 0.068046
O O12 0.899918 0.598068 0.979795
O O13 0.814787 0.661248 0.598877
O O14 0.745557 0.745557 0.750000
O O15 0.854726 0.644702 0.794783
O O16 0.723934 0.603490 0.730753
O O17 0.579050 0.420951 0.250000
#
# Coordination Sequence:
#
# PCOD9557578 Si02
#       8
#     8   8   8   8   8   8   8   8
#     4  11  22  31  47  61  90 118 174 210 269 301
#     4  11  21  33  45  64  84 127 160 221 255 309
#     4  10  20  33  53  74  99 126 158 224 268 311
#     4  10  19  34  50  67  99 123 164 212 269 318
#     4  10  20  34  49  70  93 128 164 209 260 320
#     4  11  21  35  54  70  99 135 174 211 252 317
#     4  10  21  31  53  76  96 126 165 210 270 317
#     4  11  21  33  45  61  85 122 164 219 267 301
#
# _framework density 15.812135
#
# number of rings (size 3 to 8) (size 9 to 14) (size 15 to 20)
#    0.000    1.500    3.750    4.125    5.250    3.250 
#    0.000    0.000    0.000    0.000    0.000    0.000 
#    0.000    0.000    0.000    0.000    0.000    9.375 
#
# Total GULP energy -356530.991509 kJ/mol
# GULP energy per Si atom -5570.796742 kJ/mol
# Density = 1.577615 g / cm^3
# Si number density = 15.812135 Si / 1000 Ang^3
#
#
#
# Elastic Constant Matrix: (Units=GPa)
#
#
# Indices 1 2 3 4 5 6 
#
# 1 51.1629 30.9291 33.8679 0.0000 0.0000 0.0000
# 2 30.9291 51.1617 33.8673 0.0000 0.0000 0.0000
# 3 33.8679 33.8673 100.7633 0.0000 0.0000 0.0000
# 4 0.0000 0.0000 0.0000 19.5016 0.0000 0.0000
# 5 0.0000 0.0000 0.0000 0.0000 19.5020 0.0000
# 6 0.0000 0.0000 0.0000 0.0000 0.0000 13.1894
#
#
#
# Elastic Compliance Matrix: (Units=1/GPa)
#
#
# Indices 1 2 3 4 5 6 
#
# 1 0.033140 -0.016284 -0.005666 0.000000 0.000000 0.000000
# 2 -0.016284 0.033140 -0.005666 0.000000 0.000000 0.000000
# 3 -0.005666 -0.005666 0.013733 0.000000 0.000000 0.000000
# 4 0.000000 0.000000 0.000000 0.051278 0.000000 0.000000
# 5 0.000000 0.000000 0.000000 0.000000 0.051277 0.000000
# 6 0.000000 0.000000 0.000000 0.000000 0.000000 0.075819
#
#
# Mechanical properties :
#
#
# Convention : Reuss Voigt Hill
#
# Bulk Modulus (GPa) = 40.35014 44.49074 42.42044
# Shear Modulus (GPa) = 15.53388 17.40015 16.46702
#
# Velocity S-wave (km/s) = 3.13773 3.32087 3.23060
# Velocity P-wave (km/s) = 6.22101 6.54999 6.38762
#
# Compressibility (1/GPa) = 0.02478306
#
# Stress axis : x y z
#
# Youngs Moduli (GPa) = 30.17529 30.17466 72.81843
#
# Poissons Ratio (x) = 0.49136 0.41256
# Poissons Ratio (y) = 0.49137 0.41256
# Poissons Ratio (z) = 0.17096 0.17096
#
# Static dielectric constant tensor:
#      x y z
#    x 1.533370 0.000000 0.000000 
#    y 0.000000 1.533370 0.000000 
#    z 0.000000 0.000000 1.588880 
# 
# From -- ./inp_files/2094.got.cif
#   From: 2010.05.17/outbox.cif.g08.bks.cpg/sg116_2_cif.got.tgz:2094.got - 2010.05.20 11:11:43.
