data_PCOD9557951
_publ_section_title
;
Structure prediction by ZEFSAII (Michael W. Deem and Ramdas Pophale) SiO2 
 PCOD9557951
Probable space group: P -4 C 2
;
_chemical_formula_sum "Si O2"
_cell_formula_units_Z 58
_cell_length_a 17.598363
_cell_length_b 17.598363
_cell_length_c 8.812361
_cell_angle_alpha 90.000000
_cell_angle_beta 90.000000
_cell_angle_gamma 90.000000
_cell_volume 2729.209178
_symmetry_space_group_name_H-M "P -4 C 2"
_symmetry_group_IT_number 116
_symmetry_cell_setting 'tetragonal'
loop_
_space_group_symop_operation_xyz
x,y,z
y,-x,-z
-x,-y,z
-y,x,-z
y,x,1/2-z
-y,-x,1/2-z
-x,y,1/2+z
x,-y,1/2+z
loop_
_atom_site_type_symbol
_atom_site_label
_atom_site_fract_x
_atom_site_fract_y
_atom_site_fract_z
Si Si1 0.606592 0.785538 0.606837
Si Si2 0.947627 0.574099 0.491802
Si Si3 0.141860 0.179228 0.425313
Si Si4 0.219232 0.544150 0.047552
Si Si5 0.055830 0.668482 0.293941
Si Si6 0.000000 0.000000 0.750000
Si Si7 0.973518 0.831819 0.887515
Si Si8 0.698371 0.268739 0.572156
O O1 0.569988 0.778727 0.775808
O O2 0.542757 0.761534 0.484051
O O3 0.642205 0.871207 0.605811
O O4 0.675674 0.732679 0.555264
O O5 0.863565 0.544803 0.466761
O O6 0.937789 0.628476 0.634215
O O7 0.000000 0.500000 0.518342
O O8 0.982971 0.626636 0.364062
O O9 0.157939 0.157939 0.250000
O O10 0.163083 0.102386 0.513901
O O11 0.190852 0.254226 0.457660
O O12 0.053520 0.192451 0.458112
O O13 0.263617 0.609233 0.958589
O O14 0.045854 0.758864 0.283431
O O15 0.994431 0.917908 0.833294
O O16 0.712058 0.287943 0.750000
#
# Coordination Sequence:
#
# PCOD9557951 Si02
#       8
#     8   8   8   8   8   2   8   8
#     4  11  23  44  66 105 138 185 230 285 362 426
#     4  11  23  40  65  99 135 175 227 282 366 432
#     4  11  25  43  64  89 125 174 236 300 361 427
#     4  11  24  41  69 100 142 183 231 291 347 440
#     4  11  25  39  67  91 133 177 227 298 352 444
#     4  12  28  46  66  84 128 178 244 318 358 430
#     4  12  25  45  63  90 123 178 241 299 366 412
#     4  11  24  45  71 103 140 186 235 290 359 436
#
# _framework density 21.251577999999999
#
# number of rings (size 3 to 8) (size 9 to 14) (size 15 to 20)
#    0.000    0.828    3.448    3.310    3.862    3.310 
#    0.000    0.000    0.000    0.414    0.000    2.897 
#    0.000    0.000    0.000    0.000    0.000    0.000 
#
# Total GULP energy -323657.159335 kJ/mol
# GULP energy per Si atom -5580.295851 kJ/mol
# Density = 2.120321 g / cm^3
# Si number density = 21.251578 Si / 1000 Ang^3
#
#
#
# Elastic Constant Matrix: (Units=GPa)
#
#
# Indices 1 2 3 4 5 6 
#
# 1 -205.4603 272.3009 14.4497 0.0000 0.0000 0.0000
# 2 272.3009 -205.4624 14.4469 0.0000 0.0000 0.0000
# 3 14.4497 14.4469 47.9158 0.0000 0.0000 0.0000
# 4 0.0000 0.0000 0.0000 19.1056 0.0000 0.0000
# 5 0.0000 0.0000 0.0000 0.0000 19.1056 0.0000
# 6 0.0000 0.0000 0.0000 0.0000 0.0000 21.3771
#
#
#
# Elastic Compliance Matrix: (Units=1/GPa)
#
#
# Indices 1 2 3 4 5 6 
#
# 1 0.007555 0.009649 -0.005188 0.000000 0.000000 0.000000
# 2 0.009649 0.007555 -0.005188 0.000000 0.000000 0.000000
# 3 -0.005188 -0.005188 0.023998 0.000000 0.000000 0.000000
# 4 0.000000 0.000000 0.000000 0.052341 0.000000 0.000000
# 5 0.000000 0.000000 0.000000 0.000000 0.052341 0.000000
# 6 0.000000 0.000000 0.000000 0.000000 0.000000 0.046779
#
#
# Mechanical properties :
#
#
# Convention : Reuss Voigt Hill
#
# Bulk Modulus (GPa) = 26.55624 26.59868 26.57746
# Shear Modulus (GPa) = 24.44088 -32.36265 -3.96088
#
# Velocity S-wave (km/s) = 3.39495 -3.90659 -1.36669
# Velocity P-wave (km/s) = 5.28118 2.79379 3.16904
#
# Compressibility (1/GPa) = 0.03765593
#
# Stress axis : x y z
#
# Youngs Moduli (GPa) = 132.35511 132.35540 41.66939
#
# Poissons Ratio (x) = -1.27703 0.21616
# Poissons Ratio (y) = -1.27703 0.21617
# Poissons Ratio (z) = 0.68660 0.68661
#
# Static dielectric constant tensor:
#      x y z
#    x 1.806900 0.000000 0.000000 
#    y 0.000000 1.806900 0.000000 
#    z 0.000000 0.000000 1.885750 
# 
# From -- ./inp_files/1045.got.cif
#   From: 2010.05.17/outbox.cif.g08.bks.cpg/sg116_1_cif.got.tgz:1045.got - 2010.05.20 11:11:43.
