data_PCOD9557946
_publ_section_title
;
Structure prediction by ZEFSAII (Michael W. Deem and Ramdas Pophale) SiO2 
 PCOD9557946
Probable space group: P -4 C 2
;
_chemical_formula_sum "Si O2"
_cell_formula_units_Z 38
_cell_length_a 8.610203
_cell_length_b 8.610203
_cell_length_c 21.698914
_cell_angle_alpha 90.000000
_cell_angle_beta 90.000000
_cell_angle_gamma 90.000000
_cell_volume 1608.661915
_symmetry_space_group_name_H-M "P -4 C 2"
_symmetry_group_IT_number 116
_symmetry_cell_setting 'tetragonal'
loop_
_space_group_symop_operation_xyz
x,y,z
y,-x,-z
-x,-y,z
-y,x,-z
y,x,1/2-z
-y,-x,1/2-z
-x,y,1/2+z
x,-y,1/2+z
loop_
_atom_site_type_symbol
_atom_site_label
_atom_site_fract_x
_atom_site_fract_y
_atom_site_fract_z
Si Si1 0.000000 0.000000 0.750000
Si Si2 0.500000 0.000000 0.256879
Si Si3 0.039224 0.767057 0.475588
Si Si4 0.445402 0.322258 0.833079
Si Si5 0.911580 0.250448 0.335580
Si Si6 0.725455 0.550605 0.028272
O O1 0.917976 0.893971 0.695683
O O2 0.512808 0.166410 0.293021
O O3 0.649194 0.987134 0.211969
O O4 0.012164 0.751272 0.402940
O O5 0.114267 0.618370 0.505899
O O6 0.899841 0.830143 0.516355
O O7 0.500000 0.500000 0.816515
O O8 0.258546 0.325480 0.837970
O O9 0.508508 0.285299 0.900882
O O10 0.677002 0.407068 0.985870
#
# Coordination Sequence:
#
# PCOD9557946 Si02
#       6
#     2   4   8   8   8   8
#     4  12  24  48  76  96 162 208 256 336 388 496
#     4  12  30  50  80 120 150 236 258 332 428 472
#     4  11  26  46  73 112 151 201 257 334 411 497
#     4  12  26  52  83 119 170 210 281 347 415 517
#     4  12  27  52  74 113 162 203 276 343 404 505
#     4  11  22  45  78 118 156 201 252 343 421 479
#
# _framework density 23.622115000000001
#
# number of rings (size 3 to 8) (size 9 to 14) (size 15 to 20)
#    0.000    0.421    6.316    1.263    2.947    9.263 
#    0.000    0.000    0.000    0.000    0.000    0.000 
#    0.000    0.000    0.000    0.000    0.000    0.000 
#
# Total GULP energy -211997.441394 kJ/mol
# GULP energy per Si atom -5578.880037 kJ/mol
# Density = 2.356835 g / cm^3
# Si number density = 23.622115 Si / 1000 Ang^3
#
#
#
# Elastic Constant Matrix: (Units=GPa)
#
#
# Indices 1 2 3 4 5 6 
#
# 1 -33.0688 138.5654 31.4852 0.0000 0.0000 0.0000
# 2 138.5654 -33.0688 31.4852 0.0000 0.0000 0.0000
# 3 31.4852 31.4852 198.4302 0.0000 0.0000 0.0000
# 4 0.0000 0.0000 0.0000 -685.9357 0.0000 0.0000
# 5 0.0000 0.0000 0.0000 0.0000 -685.9357 0.0000
# 6 0.0000 0.0000 0.0000 0.0000 0.0000 66.7068
#
#
#
# Elastic Compliance Matrix: (Units=1/GPa)
#
#
# Indices 1 2 3 4 5 6 
#
# 1 0.002322 0.008148 -0.001661 0.000000 0.000000 0.000000
# 2 0.008148 0.002322 -0.001661 0.000000 0.000000 0.000000
# 3 -0.001661 -0.001661 0.005567 0.000000 0.000000 0.000000
# 4 0.000000 0.000000 0.000000 -0.001458 0.000000 0.000000
# 5 0.000000 0.000000 0.000000 0.000000 -0.001458 0.000000
# 6 0.000000 0.000000 0.000000 0.000000 0.000000 0.014991
#
#
# Mechanical properties :
#
#
# Convention : Reuss Voigt Hill
#
# Bulk Modulus (GPa) = 50.34607 59.48491 54.91549
# Shear Modulus (GPa) = 259.66274 -265.64911 -2.99319
#
# Velocity S-wave (km/s) = 10.49582 -10.61612 -1.12688
# Velocity P-wave (km/s) = 12.97083 11.18180 4.64810
#
# Compressibility (1/GPa) = 0.01986252
#
# Stress axis : x y z
#
# Youngs Moduli (GPa) = 430.63441 430.63441 179.63691
#
# Poissons Ratio (x) = -3.50902 0.29845
# Poissons Ratio (y) = -3.50902 0.29845
# Poissons Ratio (z) = 0.71545 0.71545
#
# Static dielectric constant tensor:
#      x y z
#    x 2.140490 0.000000 0.000000 
#    y 0.000000 2.140490 0.000000 
#    z 0.000000 0.000000 1.839250 
# 
# From -- ./inp_files/4474.got.cif
#   From: 2010.05.17/outbox.cif.g08.bks.cpg/sg116_3_cif.got.tgz:4474.got - 2010.05.20 11:11:43.
