data_PCOD9557628
_publ_section_title
;
Structure prediction by ZEFSAII (Michael W. Deem and Ramdas Pophale) SiO2 
 PCOD9557628
Probable space group: P -4 C 2
;
_chemical_formula_sum "Si O2"
_cell_formula_units_Z 44
_cell_length_a 12.994433
_cell_length_b 12.994433
_cell_length_c 9.811960
_cell_angle_alpha 90.000000
_cell_angle_beta 90.000000
_cell_angle_gamma 90.000000
_cell_volume 1656.801341
_symmetry_space_group_name_H-M "P -4 C 2"
_symmetry_group_IT_number 116
_symmetry_cell_setting 'tetragonal'
loop_
_space_group_symop_operation_xyz
x,y,z
y,-x,-z
-x,-y,z
-y,x,-z
y,x,1/2-z
-y,-x,1/2-z
-x,y,1/2+z
x,-y,1/2+z
loop_
_atom_site_type_symbol
_atom_site_label
_atom_site_fract_x
_atom_site_fract_y
_atom_site_fract_z
Si Si1 0.316503 0.173795 0.550292
Si Si2 0.463558 0.762837 0.297444
Si Si3 0.095079 0.876050 0.979577
Si Si4 0.954840 0.674044 0.377086
Si Si5 0.622096 0.281194 0.574497
Si Si6 0.000000 0.500000 0.169333
O O1 0.374400 0.210617 0.685798
O O2 0.192463 0.166112 0.562055
O O3 0.328121 0.262333 0.435375
O O4 0.344546 0.053209 0.523868
O O5 0.427997 0.696755 0.427298
O O6 0.492492 0.875267 0.362971
O O7 0.546605 0.704588 0.201659
O O8 0.064586 0.794932 0.863604
O O9 0.991099 0.881839 0.067326
O O10 0.843050 0.636050 0.419554
O O11 0.990270 0.605765 0.253985
#
# Coordination Sequence:
#
# PCOD9557628 Si02
#       6
#     8   8   8   8   8   4
#     4   9  17  32  54  81 113 152 199 241 289 356
#     4  10  20  34  55  83 115 151 193 242 297 354
#     4   8  13  23  44  75 109 148 191 235 283 345
#     4   8  15  28  48  79 111 148 193 242 289 345
#     4  10  20  35  57  86 118 153 194 244 299 357
#     4   8  16  28  46  74 110 144 188 238 290 340
#
# _framework density 26.557195
#
# number of rings (size 3 to 8) (size 9 to 14) (size 15 to 20)
#    0.000    3.091    0.000    0.545    0.000    4.364 
#    0.000    0.909    0.000    7.091    0.000  344.909 
#    0.000    0.000    0.000    0.000    0.000   14.000 
#
# Total GULP energy -245012.158331 kJ/mol
# GULP energy per Si atom -5568.458144 kJ/mol
# Density = 2.649675 g / cm^3
# Si number density = 26.557195 Si / 1000 Ang^3
#
#
#
# Elastic Constant Matrix: (Units=GPa)
#
#
# Indices 1 2 3 4 5 6 
#
# 1 43.0260 25.2789 31.2013 0.0000 0.0000 0.0000
# 2 25.2789 43.0260 31.2013 0.0000 0.0000 0.0000
# 3 31.2013 31.2013 99.6445 0.0000 0.0000 0.0000
# 4 0.0000 0.0000 0.0000 -190.9438 0.0000 0.0000
# 5 0.0000 0.0000 0.0000 0.0000 -190.9438 0.0000
# 6 0.0000 0.0000 0.0000 0.0000 0.0000 29.1428
#
#
#
# Elastic Compliance Matrix: (Units=1/GPa)
#
#
# Indices 1 2 3 4 5 6 
#
# 1 0.038427 -0.017920 -0.006421 0.000000 0.000000 0.000000
# 2 -0.017920 0.038427 -0.006421 0.000000 0.000000 0.000000
# 3 -0.006421 -0.006421 0.014057 0.000000 0.000000 0.000000
# 4 0.000000 0.000000 0.000000 -0.005237 0.000000 0.000000
# 5 0.000000 0.000000 0.000000 0.000000 -0.005237 0.000000
# 6 0.000000 0.000000 0.000000 0.000000 0.000000 0.034314
#
#
# Mechanical properties :
#
#
# Convention : Reuss Voigt Hill
#
# Bulk Modulus (GPa) = 34.03047 40.11774 37.07411
# Shear Modulus (GPa) = 26.87152 -64.01462 -18.57155
#
# Velocity S-wave (km/s) = 3.18439 -4.91495 -2.64730
# Velocity P-wave (km/s) = 5.13442 4.13159 2.15548
#
# Compressibility (1/GPa) = 0.02938543
#
# Stress axis : x y z
#
# Youngs Moduli (GPa) = 26.02345 26.02345 71.13924
#
# Poissons Ratio (x) = 0.46635 0.45679
# Poissons Ratio (y) = 0.46635 0.45679
# Poissons Ratio (z) = 0.16710 0.16710
#
# Static dielectric constant tensor:
#      x y z
#    x 2.248450 0.000000 0.000000 
#    y 0.000000 2.248450 0.000000 
#    z 0.000000 0.000000 2.092890 
# 
# From -- ./inp_files/1841.got.cif
#   From: 2010.05.17/outbox.cif.g08.bks.cpg/sg116_1_cif.got.tgz:1841.got - 2010.05.20 11:11:43.
