data_PCOD9557422
_publ_section_title
;
Structure prediction by ZEFSAII (Michael W. Deem and Ramdas Pophale) SiO2 
 PCOD9557422
Probable space group: P -4 M 2
;
_chemical_formula_sum "Si O2"
_cell_formula_units_Z 64
_cell_length_a 20.452819
_cell_length_b 20.452819
_cell_length_c 7.522170
_cell_angle_alpha 90.000000
_cell_angle_beta 90.000000
_cell_angle_gamma 90.000000
_cell_volume 3146.657644
_symmetry_space_group_name_H-M "P -4 M 2"
_symmetry_group_IT_number 115
_symmetry_cell_setting 'tetragonal'
loop_
_space_group_symop_operation_xyz
x,y,z
y,-x,-z
-x,-y,z
-y,x,-z
y,x,-z
-y,-x,-z
-x,y,z
x,-y,z
loop_
_atom_site_type_symbol
_atom_site_label
_atom_site_fract_x
_atom_site_fract_y
_atom_site_fract_z
Si Si1 0.428756 0.204218 0.724889
Si Si2 0.925467 0.819183 0.717054
Si Si3 0.346088 0.571687 0.099884
Si Si4 0.074504 0.821995 0.283205
Si Si5 0.821337 0.714786 0.282921
Si Si6 0.212307 0.571749 0.703998
Si Si7 0.285875 0.181315 0.283305
Si Si8 0.638083 0.427119 0.644454
O O1 0.500000 0.177226 0.782145
O O2 0.426307 0.278677 0.794464
O O3 0.359696 0.173883 0.780771
O O4 0.429305 0.203744 0.509980
O O5 0.885787 0.884112 0.770621
O O6 0.926349 0.820226 0.500106
O O7 0.881243 0.757162 0.771139
O O8 0.000000 0.816760 0.778199
O O9 0.348447 0.500000 0.012681
O O10 0.409439 0.578853 0.226279
O O11 0.360188 0.639813 0.000000
O O12 0.117540 0.759493 0.228335
O O13 0.000000 0.821651 0.221924
O O14 0.755555 0.754230 0.230223
O O15 0.819476 0.713249 0.499715
O O16 0.191135 0.500000 0.772491
O O17 0.181888 0.638711 0.775474
O O18 0.290295 0.576819 0.728651
O O19 0.629842 0.370159 0.500000
O O20 0.632388 0.500000 0.569646
#
# Coordination Sequence:
#
# PCOD9557422 Si02
#       8
#     8   8   8   8   8   8   8   8
#     4   9  16  27  41  55  70  92 128 172 212 251
#     4   8  13  20  29  45  70 103 140 165 187 229
#     4  11  22  33  41  52  74 104 132 162 210 272
#     4   8  13  20  30  48  73 100 132 166 198 231
#     4   8  13  21  35  51  66  92 126 162 202 242
#     4   9  16  25  39  57  71  86 122 179 224 246
#     4   8  13  20  33  49  67  92 123 166 208 240
#     4  11  20  29  41  56  72  94 128 171 211 249
#
# _framework density 20.339040000000001
#
# number of rings (size 3 to 8) (size 9 to 14) (size 15 to 20)
#    0.000    3.000    1.250    3.000    1.750    1.750 
#    0.000    1.250    0.000    0.750    0.000    5.250 
#    0.000    0.000    0.000   10.125    0.000   42.125 
#
# Total GULP energy -356417.415841 kJ/mol
# GULP energy per Si atom -5569.022123 kJ/mol
# Density = 2.029275 g / cm^3
# Si number density = 20.339040 Si / 1000 Ang^3
#
#
#
# Elastic Constant Matrix: (Units=GPa)
#
#
# Indices 1 2 3 4 5 6 
#
# 1 162.0141 87.3091 5.0438 0.0000 0.0000 0.0000
# 2 87.3091 162.0138 5.0439 0.0000 0.0000 0.0000
# 3 5.0438 5.0439 34.8058 0.0000 0.0000 0.0000
# 4 0.0000 0.0000 0.0000 -0.5093 0.0000 0.0000
# 5 0.0000 0.0000 0.0000 0.0000 -0.5091 0.0000
# 6 0.0000 0.0000 0.0000 0.0000 0.0000 16.6868
#
#
#
# Elastic Compliance Matrix: (Units=1/GPa)
#
#
# Indices 1 2 3 4 5 6 
#
# 1 0.008710 -0.004676 -0.000585 0.000000 0.000000 0.000000
# 2 -0.004676 0.008710 -0.000585 0.000000 0.000000 0.000000
# 3 -0.000585 -0.000585 0.028900 0.000000 0.000000 0.000000
# 4 0.000000 0.000000 0.000000 -1.963621 0.000000 0.000000
# 5 0.000000 0.000000 0.000000 0.000000 -1.964291 0.000000
# 6 0.000000 0.000000 0.000000 0.000000 0.000000 0.059928
#
#
# Mechanical properties :
#
#
# Convention : Reuss Voigt Hill
#
# Bulk Modulus (GPa) = 28.87610 61.51416 45.19513
# Shear Modulus (GPa) = -1.31633 20.56281 9.62324
#
# Velocity S-wave (km/s) = -0.80536 3.18308 2.17754
# Velocity P-wave (km/s) = 3.65560 6.61962 5.34709
#
# Compressibility (1/GPa) = 0.03463072
#
# Stress axis : x y z
#
# Youngs Moduli (GPa) = 114.80721 114.80700 34.60168
#
# Poissons Ratio (x) = 0.53681 0.02023
# Poissons Ratio (y) = 0.53681 0.02023
# Poissons Ratio (z) = 0.06712 0.06712
#
# Static dielectric constant tensor:
#      x y z
#    x 1.698580 0.000000 0.000000 
#    y 0.000000 1.698580 0.000000 
#    z 0.000000 0.000000 1.965640 
# 
# From -- ./inp_files/2169.got.cif
#   From: 2010.05.17/outbox.cif.g08.bks.cpg/sg115_2_cif.got.tgz:2169.got - 2010.05.20 11:07:42.
