data_PCOD9557092
_publ_section_title
;
Structure prediction by ZEFSAII (Michael W. Deem and Ramdas Pophale) SiO2 
 PCOD9557092
Probable space group: P -4 M 2
;
_chemical_formula_sum "Si O2"
_cell_formula_units_Z 44
_cell_length_a 7.976230
_cell_length_b 7.976230
_cell_length_c 33.489024
_cell_angle_alpha 90.000000
_cell_angle_beta 90.000000
_cell_angle_gamma 90.000000
_cell_volume 2130.579912
_symmetry_space_group_name_H-M "P -4 M 2"
_symmetry_group_IT_number 115
_symmetry_cell_setting 'tetragonal'
loop_
_space_group_symop_operation_xyz
x,y,z
y,-x,-z
-x,-y,z
-y,x,-z
y,x,-z
-y,-x,-z
-x,y,z
x,-y,z
loop_
_atom_site_type_symbol
_atom_site_label
_atom_site_fract_x
_atom_site_fract_y
_atom_site_fract_z
Si Si1 0.797860 0.682213 0.702127
Si Si2 0.300693 0.000000 0.649626
Si Si3 0.310748 0.299720 0.041987
Si Si4 0.804103 0.794799 0.212288
Si Si5 0.000000 0.702329 0.440411
Si Si6 0.811340 0.800299 0.872957
Si Si7 0.699674 0.699674 0.500000
O O1 0.739583 0.500000 0.687732
O O2 0.739744 0.711561 0.747746
O O3 0.000000 0.681165 0.703696
O O4 0.749199 0.835486 0.674214
O O5 0.500000 0.000000 0.646737
O O6 0.230015 0.000000 0.604629
O O7 0.500000 0.233473 0.046206
O O8 0.317586 0.500000 0.036077
O O9 0.226785 0.271462 0.084422
O O10 0.234405 0.234405 0.000000
O O11 0.738051 0.734986 0.169016
O O12 0.000000 0.748940 0.217109
O O13 0.797232 0.000000 0.210457
O O14 0.169941 0.743955 0.464655
O O15 0.000000 0.500000 0.438164
O O16 0.000000 0.732117 0.876438
O O17 0.820994 0.000000 0.867006
O O18 0.721731 0.500000 0.509631
#
# Coordination Sequence:
#
# PCOD9557092 Si02
#       7
#     8   4   8   8   4   8   4
#     4  10  20  36  59  85 114 154 202 247 294 351
#     4  11  23  39  59  85 125 165 197 245 304 358
#     4   9  19  35  50  64  90 130 169 206 255 316
#     4   8  14  29  53  75 102 139 176 222 277 332
#     4   9  20  38  60  88 117 157 207 244 293 359
#     4   9  18  31  50  78 102 124 162 212 266 320
#     4   9  18  37  62  86 120 161 202 255 312 364
#
# _framework density 20.651653
#
# number of rings (size 3 to 8) (size 9 to 14) (size 15 to 20)
#    0.000    2.818    0.909    1.909    0.000    3.455 
#    3.273    7.273    0.000    0.000    0.000    0.000 
#    0.000    0.000    0.000    0.000    0.000    0.000 
#
# Total GULP energy -245116.370719 kJ/mol
# GULP energy per Si atom -5570.826607 kJ/mol
# Density = 2.060465 g / cm^3
# Si number density = 20.651653 Si / 1000 Ang^3
#
#
#
# Elastic Constant Matrix: (Units=GPa)
#
#
# Indices 1 2 3 4 5 6 
#
# 1 62.8521 18.6800 54.9638 0.0000 0.0000 0.0000
# 2 18.6800 62.8521 54.9638 0.0000 0.0000 0.0000
# 3 54.9638 54.9638 202.1175 0.0000 0.0000 0.0000
# 4 0.0000 0.0000 0.0000 34.1190 0.0000 0.0000
# 5 0.0000 0.0000 0.0000 0.0000 34.1190 0.0000
# 6 0.0000 0.0000 0.0000 0.0000 0.0000 10.2998
#
#
#
# Elastic Compliance Matrix: (Units=1/GPa)
#
#
# Indices 1 2 3 4 5 6 
#
# 1 0.021002 -0.001637 -0.005266 0.000000 0.000000 0.000000
# 2 -0.001637 0.021002 -0.005266 0.000000 0.000000 0.000000
# 3 -0.005266 -0.005266 0.007812 0.000000 0.000000 0.000000
# 4 0.000000 0.000000 0.000000 0.029309 0.000000 0.000000
# 5 0.000000 0.000000 0.000000 0.000000 0.029309 0.000000
# 6 0.000000 0.000000 0.000000 0.000000 0.000000 0.097089
#
#
# Mechanical properties :
#
#
# Convention : Reuss Voigt Hill
#
# Bulk Modulus (GPa) = 39.24994 65.00413 52.12703
# Shear Modulus (GPa) = 20.97720 28.98850 24.98285
#
# Velocity S-wave (km/s) = 3.19056 3.75065 3.48189
# Velocity P-wave (km/s) = 5.71138 7.09234 6.43899
#
# Compressibility (1/GPa) = 0.02547775
#
# Stress axis : x y z
#
# Youngs Moduli (GPa) = 47.61435 47.61435 128.01118
#
# Poissons Ratio (x) = 0.07793 0.67414
# Poissons Ratio (y) = 0.07793 0.67414
# Poissons Ratio (z) = 0.25075 0.25075
#
# Static dielectric constant tensor:
#      x y z
#    x 1.741070 0.000000 0.000000 
#    y 0.000000 1.741070 0.000000 
#    z 0.000000 0.000000 1.775450 
# 
# From -- ./inp_files/5872.got.cif
#   From: 2010.05.17/outbox.cif.g08.bks.cpg/sg115_3_cif.got.tgz:5872.got - 2010.05.20 11:07:42.
