data_PCOD9557299
_publ_section_title
;
Structure prediction by ZEFSAII (Michael W. Deem and Ramdas Pophale) SiO2 
 PCOD9557299
Probable space group: P -4 M 2
;
_chemical_formula_sum "Si O2"
_cell_formula_units_Z 44
_cell_length_a 9.239289
_cell_length_b 9.239289
_cell_length_c 29.459519
_cell_angle_alpha 90.000000
_cell_angle_beta 90.000000
_cell_angle_gamma 90.000000
_cell_volume 2514.795967
_symmetry_space_group_name_H-M "P -4 M 2"
_symmetry_group_IT_number 115
_symmetry_cell_setting 'tetragonal'
loop_
_space_group_symop_operation_xyz
x,y,z
y,-x,-z
-x,-y,z
-y,x,-z
y,x,-z
-y,-x,-z
-x,y,z
x,-y,z
loop_
_atom_site_type_symbol
_atom_site_label
_atom_site_fract_x
_atom_site_fract_y
_atom_site_fract_z
Si Si1 0.176463 0.167715 0.049725
Si Si2 0.172693 0.329438 0.323039
Si Si3 0.327778 0.327778 0.500000
Si Si4 0.170866 0.326654 0.140694
Si Si5 0.323611 0.666594 0.768532
Si Si6 0.171489 0.173080 0.583457
O O1 0.222814 0.256009 0.093787
O O2 0.000000 0.171368 0.048372
O O3 0.219173 0.000000 0.054589
O O4 0.223269 0.223269 0.000000
O O5 0.205733 0.500000 0.330683
O O6 0.252970 0.279401 0.277549
O O7 0.211059 0.238796 0.367628
O O8 0.000000 0.318087 0.315937
O O9 0.302527 0.500000 0.498346
O O10 0.252256 0.259103 0.544013
O O11 0.185717 0.500000 0.137377
O O12 0.254414 0.275551 0.185483
O O13 0.000000 0.294495 0.146034
O O14 0.500000 0.671621 0.768913
O O15 0.278986 0.500000 0.768108
O O16 0.000000 0.200860 0.582351
O O17 0.193303 0.000000 0.576742
#
# Coordination Sequence:
#
# PCOD9557299 Si02
#       6
#     8   8   4   8   8   8
#     4   8  14  26  44  64  86 114 148 185 227 276
#     4   9  17  31  52  75  98 127 164 203 241 284
#     4  11  24  39  56  80 108 139 176 213 248 292
#     4   9  16  27  45  67  88 113 150 192 230 273
#     4   9  17  29  46  68  94 124 157 194 236 282
#     4  10  21  37  57  81 108 137 169 207 253 301
#
# _framework density 17.496447
#
# number of rings (size 3 to 8) (size 9 to 14) (size 15 to 20)
#    0.000    2.818    0.000    2.182    0.000    5.818 
#    0.000    3.636    0.000    7.091    0.000    0.000 
#    0.000    0.000    0.000    0.000    0.000    0.000 
#
# Total GULP energy -245294.281431 kJ/mol
# GULP energy per Si atom -5574.870033 kJ/mol
# Density = 1.745662 g / cm^3
# Si number density = 17.496447 Si / 1000 Ang^3
#
#
#
# Elastic Constant Matrix: (Units=GPa)
#
#
# Indices 1 2 3 4 5 6 
#
# 1 52.3216 47.5035 82.5787 0.0000 0.0000 0.0000
# 2 47.5035 52.3216 82.5787 0.0000 0.0000 0.0000
# 3 82.5787 82.5787 222.5640 0.0000 0.0000 0.0000
# 4 0.0000 0.0000 0.0000 40.3064 0.0000 0.0000
# 5 0.0000 0.0000 0.0000 0.0000 40.3064 0.0000
# 6 0.0000 0.0000 0.0000 0.0000 0.0000 14.9779
#
#
#
# Elastic Compliance Matrix: (Units=1/GPa)
#
#
# Indices 1 2 3 4 5 6 
#
# 1 0.116746 -0.090803 -0.009626 0.000000 0.000000 0.000000
# 2 -0.090803 0.116746 -0.009626 0.000000 0.000000 0.000000
# 3 -0.009626 -0.009626 0.011636 0.000000 0.000000 0.000000
# 4 0.000000 0.000000 0.000000 0.024810 0.000000 0.000000
# 5 0.000000 0.000000 0.000000 0.000000 0.024810 0.000000
# 6 0.000000 0.000000 0.000000 0.000000 0.000000 0.066765
#
#
# Mechanical properties :
#
#
# Convention : Reuss Voigt Hill
#
# Bulk Modulus (GPa) = 39.96947 83.61434 61.79190
# Shear Modulus (GPa) = 8.47512 26.75456 17.61484
#
# Velocity S-wave (km/s) = 2.20328 3.91467 3.17640
# Velocity P-wave (km/s) = 5.41909 8.26595 6.98901
#
# Compressibility (1/GPa) = 0.02501910
#
# Stress axis : x y z
#
# Youngs Moduli (GPa) = 8.56559 8.56559 85.94008
#
# Poissons Ratio (x) = 0.77778 0.82723
# Poissons Ratio (y) = 0.77778 0.82723
# Poissons Ratio (z) = 0.08245 0.08245
#
# Static dielectric constant tensor:
#      x y z
#    x 1.586100 0.000000 0.000000 
#    y 0.000000 1.586100 0.000000 
#    z 0.000000 0.000000 1.586700 
# 
# From -- ./inp_files/5698.got.cif
#   From: 2010.05.17/outbox.cif.g08.bks.cpg/sg115_3_cif.got.tgz:5698.got - 2010.05.20 11:07:42.
