data_PCOD9557805
_publ_section_title
;
Structure prediction by ZEFSAII (Michael W. Deem and Ramdas Pophale) SiO2 
 PCOD9557805
Probable space group: P -4 C 2
;
_chemical_formula_sum "Si O2"
_cell_formula_units_Z 32
_cell_length_a 13.086070
_cell_length_b 13.086070
_cell_length_c 8.984350
_cell_angle_alpha 90.000000
_cell_angle_beta 90.000000
_cell_angle_gamma 90.000000
_cell_volume 1538.527065
_symmetry_space_group_name_H-M "P -4 C 2"
_symmetry_group_IT_number 116
_symmetry_cell_setting 'tetragonal'
loop_
_space_group_symop_operation_xyz
x,y,z
y,-x,-z
-x,-y,z
-y,x,-z
y,x,1/2-z
-y,-x,1/2-z
-x,y,1/2+z
x,-y,1/2+z
loop_
_atom_site_type_symbol
_atom_site_label
_atom_site_fract_x
_atom_site_fract_y
_atom_site_fract_z
Si Si1 0.686682 0.142213 0.221274
Si Si2 0.034597 0.617624 0.575773
Si Si3 0.214486 0.545093 0.778419
Si Si4 0.515757 0.652840 0.969324
O O1 0.777800 0.222201 0.250000
O O2 0.576191 0.195667 0.221982
O O3 0.678441 0.058851 0.352283
O O4 0.679063 0.084644 0.061019
O O5 0.116561 0.599836 0.709198
O O6 0.000000 0.500000 0.530922
O O7 0.254458 0.568925 0.942610
O O8 0.304010 0.555121 0.659191
O O9 0.595392 0.566084 0.924882
#
# Coordination Sequence:
#
# PCOD9557805 Si02
#       4
#     8   8   8   8
#     4  11  23  42  66  96 125 163 213 268 326 389
#     4  10  22  41  67  96 129 165 211 270 321 371
#     4  11  21  37  60  88 127 172 219 254 313 376
#     4  11  22  35  52  86 136 180 214 257 305 371
#
# _framework density 20.799112999999998
#
# number of rings (size 3 to 8) (size 9 to 14) (size 15 to 20)
#    0.000    1.250    2.500    5.250    3.500    2.000 
#    0.000    1.250    0.000    2.250    0.000    0.000 
#    0.000    0.000    0.000    0.000    0.000    0.000 
#
# Total GULP energy -178606.921384 kJ/mol
# GULP energy per Si atom -5581.466293 kJ/mol
# Density = 2.075177 g / cm^3
# Si number density = 20.799113 Si / 1000 Ang^3
#
#
#
# Elastic Constant Matrix: (Units=GPa)
#
#
# Indices 1 2 3 4 5 6 
#
# 1 94.2741 57.6223 33.9322 0.0000 0.0000 0.0000
# 2 57.6223 94.2721 33.9308 0.0000 0.0000 0.0000
# 3 33.9322 33.9308 87.4656 0.0000 0.0000 0.0000
# 4 0.0000 0.0000 0.0000 31.1787 0.0000 0.0000
# 5 0.0000 0.0000 0.0000 0.0000 31.1789 0.0000
# 6 0.0000 0.0000 0.0000 0.0000 0.0000 39.3106
#
#
#
# Elastic Compliance Matrix: (Units=1/GPa)
#
#
# Indices 1 2 3 4 5 6 
#
# 1 0.017624 -0.009660 -0.003090 0.000000 0.000000 0.000000
# 2 -0.009660 0.017624 -0.003089 0.000000 0.000000 0.000000
# 3 -0.003090 -0.003089 0.013830 0.000000 0.000000 0.000000
# 4 0.000000 0.000000 0.000000 0.032073 0.000000 0.000000
# 5 0.000000 0.000000 0.000000 0.000000 0.032073 0.000000
# 6 0.000000 0.000000 0.000000 0.000000 0.000000 0.025438
#
#
# Mechanical properties :
#
#
# Convention : Reuss Voigt Hill
#
# Bulk Modulus (GPa) = 57.47198 58.55361 58.01280
# Shear Modulus (GPa) = 28.38624 30.36875 29.37749
#
# Velocity S-wave (km/s) = 3.69830 3.82527 3.76232
# Velocity P-wave (km/s) = 6.77706 6.90821 6.84295
#
# Compressibility (1/GPa) = 0.01739978
#
# Stress axis : x y z
#
# Youngs Moduli (GPa) = 56.74059 56.73987 72.30587
#
# Poissons Ratio (x) = 0.54813 0.22340
# Poissons Ratio (y) = 0.54814 0.22338
# Poissons Ratio (z) = 0.17531 0.17529
#
# Static dielectric constant tensor:
#      x y z
#    x 1.780140 0.000000 0.000000 
#    y 0.000000 1.780140 0.000000 
#    z 0.000000 0.000000 1.874200 
# 
# From -- ./inp_files/588.got.cif
#   From: 2010.05.17/outbox.cif.g08.bks.cpg/sg116_1_cif.got.tgz:588.got - 2010.05.20 11:11:43.
