data_PCOD9557395
_publ_section_title
;
Structure prediction by ZEFSAII (Michael W. Deem and Ramdas Pophale) SiO2 
 PCOD9557395
Probable space group: P -4 M 2
;
_chemical_formula_sum "Si O2"
_cell_formula_units_Z 52
_cell_length_a 21.523114
_cell_length_b 21.523114
_cell_length_c 5.567317
_cell_angle_alpha 90.000000
_cell_angle_beta 90.000000
_cell_angle_gamma 90.000000
_cell_volume 2579.028625
_symmetry_space_group_name_H-M "P -4 M 2"
_symmetry_group_IT_number 115
_symmetry_cell_setting 'tetragonal'
loop_
_space_group_symop_operation_xyz
x,y,z
y,-x,-z
-x,-y,z
-y,x,-z
y,x,-z
-y,-x,-z
-x,y,z
x,-y,z
loop_
_atom_site_type_symbol
_atom_site_label
_atom_site_fract_x
_atom_site_fract_y
_atom_site_fract_z
Si Si1 0.177213 0.726205 0.614106
Si Si2 0.072477 0.759793 0.261145
Si Si3 0.109399 0.367885 0.052298
Si Si4 0.760458 0.571363 0.046746
Si Si5 0.274436 0.621356 0.546003
Si Si6 0.926218 0.568644 0.553115
Si Si7 0.822659 0.822659 0.000000
O O1 0.224117 0.775884 0.500000
O O2 0.110191 0.735680 0.494998
O O3 0.210055 0.661081 0.566190
O O4 0.176038 0.755191 0.876251
O O5 0.078370 0.699211 0.091404
O O6 0.000000 0.774610 0.298211
O O7 0.115331 0.816798 0.162225
O O8 0.088823 0.405697 0.289244
O O9 0.183496 0.378860 0.054909
O O10 0.091111 0.393154 0.790656
O O11 0.782749 0.500000 0.025634
O O12 0.721571 0.587554 0.804989
O O13 0.728385 0.579547 0.306933
O O14 0.329025 0.670976 0.500000
O O15 0.897222 0.500000 0.575508
O O16 0.000000 0.564059 0.561395
#
# Coordination Sequence:
#
# PCOD9557395 Si02
#       7
#     8   8   8   8   8   8   4
#     4   9  20  37  59  86 123 156 206 261 326 385
#     4  11  23  39  62  91 124 161 210 267 324 391
#     4  12  24  40  57  88 121 171 214 264 317 382
#     4  12  24  40  61  93 133 175 217 267 327 385
#     4  11  23  40  65  92 128 172 223 272 327 384
#     4  11  23  39  56  77 115 167 223 272 305 351
#     4  10  22  40  62  93 120 158 202 266 333 396
#
# _framework density 20.162631000000001
#
# number of rings (size 3 to 8) (size 9 to 14) (size 15 to 20)
#    0.000    1.077    1.538    5.538    6.462    1.846 
#    0.000    0.000    0.000    0.231    0.000    0.000 
#    0.000   21.538    0.000    0.000    0.000    0.000 
#
# Total GULP energy -289839.330225 kJ/mol
# GULP energy per Si atom -5573.833274 kJ/mol
# Density = 2.011674 g / cm^3
# Si number density = 20.162631 Si / 1000 Ang^3
#
#
#
# Elastic Constant Matrix: (Units=GPa)
#
#
# Indices 1 2 3 4 5 6 
#
# 1 69.4536 21.8604 34.3222 0.0000 0.0000 0.0000
# 2 21.8604 69.4538 34.3227 0.0000 0.0000 0.0000
# 3 34.3222 34.3227 144.8319 0.0000 0.0000 0.0000
# 4 0.0000 0.0000 0.0000 30.4480 0.0000 0.0000
# 5 0.0000 0.0000 0.0000 0.0000 30.4484 0.0000
# 6 0.0000 0.0000 0.0000 0.0000 0.0000 16.5346
#
#
#
# Elastic Compliance Matrix: (Units=1/GPa)
#
#
# Indices 1 2 3 4 5 6 
#
# 1 0.017168 -0.003843 -0.003158 0.000000 0.000000 0.000000
# 2 -0.003843 0.017168 -0.003158 0.000000 0.000000 0.000000
# 3 -0.003158 -0.003158 0.008401 0.000000 0.000000 0.000000
# 4 0.000000 0.000000 0.000000 0.032843 0.000000 0.000000
# 5 0.000000 0.000000 0.000000 0.000000 0.032842 0.000000
# 6 0.000000 0.000000 0.000000 0.000000 0.000000 0.060479
#
#
# Mechanical properties :
#
#
# Convention : Reuss Voigt Hill
#
# Bulk Modulus (GPa) = 44.60267 51.63888 48.12078
# Shear Modulus (GPa) = 25.42031 28.36847 26.89439
#
# Velocity S-wave (km/s) = 3.55458 3.75505 3.65618
# Velocity P-wave (km/s) = 6.24629 6.66838 6.46078
#
# Compressibility (1/GPa) = 0.02242018
#
# Stress axis : x y z
#
# Youngs Moduli (GPa) = 58.24722 58.24717 119.03017
#
# Poissons Ratio (x) = 0.22385 0.37587
# Poissons Ratio (y) = 0.22385 0.37588
# Poissons Ratio (z) = 0.18393 0.18393
#
# Static dielectric constant tensor:
#      x y z
#    x 1.758630 0.000000 0.000000 
#    y 0.000000 1.758630 0.000000 
#    z 0.000000 0.000000 1.937550 
# 
# From -- ./inp_files/692.got.cif
#   From: 2010.05.17/outbox.cif.g08.bks.cpg/sg115_1_cif.got.tgz:692.got - 2010.05.20 11:07:42.
