data_PCOD9557043
_publ_section_title
;
Structure prediction by ZEFSAII (Michael W. Deem and Ramdas Pophale) SiO2 
 PCOD9557043
Probable space group: P -4 M 2
;
_chemical_formula_sum "Si O2"
_cell_formula_units_Z 32
_cell_length_a 7.859060
_cell_length_b 7.859060
_cell_length_c 24.986723
_cell_angle_alpha 90.000000
_cell_angle_beta 90.000000
_cell_angle_gamma 90.000000
_cell_volume 1543.300551
_symmetry_space_group_name_H-M "P -4 M 2"
_symmetry_group_IT_number 115
_symmetry_cell_setting 'tetragonal'
loop_
_space_group_symop_operation_xyz
x,y,z
y,-x,-z
-x,-y,z
-y,x,-z
y,x,-z
-y,-x,-z
-x,y,z
x,-y,z
loop_
_atom_site_type_symbol
_atom_site_label
_atom_site_fract_x
_atom_site_fract_y
_atom_site_fract_z
Si Si1 0.197548 0.805612 0.171012
Si Si2 0.700276 0.000000 0.645980
Si Si3 0.281596 0.000000 0.519441
Si Si4 0.702782 0.307367 0.943645
Si Si5 0.203989 0.682681 0.717608
O O1 0.215718 0.728876 0.112358
O O2 0.289318 0.725475 0.222243
O O3 0.000000 0.806771 0.186191
O O4 0.257265 0.000000 0.164814
O O5 0.741753 0.000000 0.583471
O O6 0.761216 0.165850 0.677422
O O7 0.500000 0.000000 0.650407
O O8 0.169729 0.830272 0.500000
O O9 0.500000 0.000000 0.509315
O O10 0.500000 0.315701 0.952124
O O11 0.769063 0.500000 0.936391
O O12 0.768820 0.231181 0.000000
O O13 0.262147 0.500000 0.696796
O O14 0.000000 0.679779 0.723990
#
# Coordination Sequence:
#
# PCOD9557043 Si02
#       5
#     8   4   4   8   8
#     4  10  20  35  54  78 112 148 191 250 309 374
#     4  11  24  42  64  97 139 171 212 272 319 383
#     4  10  25  47  74 109 149 196 245 296 356 416
#     4   9  19  35  52  71  99 139 189 244 305 377
#     4  10  21  38  63  91 123 168 214 261 320 382
#
# _framework density 20.734780000000001
#
# number of rings (size 3 to 8) (size 9 to 14) (size 15 to 20)
#    0.000    2.125    1.250    1.875    3.500    5.750 
#    0.000    6.250    0.000    0.000    0.000    0.000 
#    0.000    0.000    0.000    0.000    0.000    0.000 
#
# Total GULP energy -178144.828188 kJ/mol
# GULP energy per Si atom -5567.025881 kJ/mol
# Density = 2.068759 g / cm^3
# Si number density = 20.734780 Si / 1000 Ang^3
#
#
#
# Elastic Constant Matrix: (Units=GPa)
#
#
# Indices 1 2 3 4 5 6 
#
# 1 87.4285 27.8613 55.7786 0.0000 0.0000 0.0000
# 2 27.8613 87.4290 55.7780 0.0000 0.0000 0.0000
# 3 55.7786 55.7780 139.9687 0.0000 0.0000 0.0000
# 4 0.0000 0.0000 0.0000 35.2114 0.0000 0.0000
# 5 0.0000 0.0000 0.0000 0.0000 35.2111 0.0000
# 6 0.0000 0.0000 0.0000 0.0000 0.0000 7.2946
#
#
#
# Elastic Compliance Matrix: (Units=1/GPa)
#
#
# Indices 1 2 3 4 5 6 
#
# 1 0.015453 -0.001335 -0.005626 0.000000 0.000000 0.000000
# 2 -0.001335 0.015452 -0.005626 0.000000 0.000000 0.000000
# 3 -0.005626 -0.005626 0.011628 0.000000 0.000000 0.000000
# 4 0.000000 0.000000 0.000000 0.028400 0.000000 0.000000
# 5 0.000000 0.000000 0.000000 0.000000 0.028400 0.000000
# 6 0.000000 0.000000 0.000000 0.000000 0.000000 0.137087
#
#
# Mechanical properties :
#
#
# Convention : Reuss Voigt Hill
#
# Bulk Modulus (GPa) = 57.60453 65.96244 61.78349
# Shear Modulus (GPa) = 18.69989 27.23732 22.96860
#
# Velocity S-wave (km/s) = 3.00636 3.62830 3.33187
# Velocity P-wave (km/s) = 6.31608 7.03095 6.68308
#
# Compressibility (1/GPa) = 0.01735975
#
# Stress axis : x y z
#
# Youngs Moduli (GPa) = 64.71365 64.71459 85.99672
#
# Poissons Ratio (x) = 0.08640 0.48381
# Poissons Ratio (y) = 0.08640 0.48380
# Poissons Ratio (z) = 0.36408 0.36407
#
# Static dielectric constant tensor:
#      x y z
#    x 1.776240 0.000000 0.000000 
#    y 0.000000 1.776240 0.000000 
#    z 0.000000 0.000000 1.773660 
# 
# From -- ./inp_files/5029.got.cif
#   From: 2010.05.17/outbox.cif.g08.bks.cpg/sg115_3_cif.got.tgz:5029.got - 2010.05.20 11:07:42.
