data_PCOD9557011
_publ_section_title
;
Structure prediction by ZEFSAII (Michael W. Deem and Ramdas Pophale) SiO2 
 PCOD9557011
Probable space group: P -4 M 2
;
_chemical_formula_sum "Si O2"
_cell_formula_units_Z 48
_cell_length_a 14.307801
_cell_length_b 14.307801
_cell_length_c 12.597125
_cell_angle_alpha 90.000000
_cell_angle_beta 90.000000
_cell_angle_gamma 90.000000
_cell_volume 2578.797385
_symmetry_space_group_name_H-M "P -4 M 2"
_symmetry_group_IT_number 115
_symmetry_cell_setting 'tetragonal'
loop_
_space_group_symop_operation_xyz
x,y,z
y,-x,-z
-x,-y,z
-y,x,-z
y,x,-z
-y,-x,-z
-x,y,z
x,-y,z
loop_
_atom_site_type_symbol
_atom_site_label
_atom_site_fract_x
_atom_site_fract_y
_atom_site_fract_z
Si Si1 0.320548 0.895969 0.351597
Si Si2 0.869477 0.897243 0.625015
Si Si3 0.894384 0.613180 0.014672
Si Si4 0.389900 0.756787 0.177207
Si Si5 0.230639 0.393515 0.208684
Si Si6 0.104864 0.650209 0.398812
O O1 0.207058 0.896300 0.336121
O O2 0.370508 0.821346 0.278828
O O3 0.345359 0.877499 0.474952
O O4 0.354180 0.000000 0.325314
O O5 0.895176 0.895176 0.500000
O O6 0.758338 0.898047 0.634013
O O7 0.900674 0.000000 0.666935
O O8 0.900005 0.500000 0.012150
O O9 0.820547 0.638843 0.923623
O O10 0.000000 0.649000 0.998867
O O11 0.850931 0.639630 0.128166
O O12 0.500000 0.733294 0.168157
O O13 0.321120 0.669601 0.191132
O O14 0.253535 0.500000 0.180557
O O15 0.185680 0.391799 0.326090
O O16 0.000000 0.610621 0.381225
#
# Coordination Sequence:
#
# PCOD9557011 Si02
#       6
#     8   8   8   8   8   8
#     4  10  20  34  55  82 112 148 187 228 281 341
#     4   9  16  28  48  76 112 148 179 217 271 337
#     4   9  19  37  61  86 108 134 171 218 274 330
#     4  11  23  39  57  79 112 149 189 235 278 327
#     4  11  22  37  59  83 110 145 187 236 283 327
#     4   9  18  33  54  82 114 146 183 230 283 337
#
# _framework density 18.613326000000001
#
# number of rings (size 3 to 8) (size 9 to 14) (size 15 to 20)
#    0.000    2.167    1.667    3.000    0.000    4.167 
#    0.000    1.667    0.000    3.000    0.000    2.333 
#    0.000    2.667    0.000    0.000    0.000    0.000 
#
# Total GULP energy -267449.476386 kJ/mol
# GULP energy per Si atom -5571.864091 kJ/mol
# Density = 1.857096 g / cm^3
# Si number density = 18.613326 Si / 1000 Ang^3
#
#
#
# Elastic Constant Matrix: (Units=GPa)
#
#
# Indices 1 2 3 4 5 6 
#
# 1 92.5794 39.2431 29.5799 0.0000 0.0000 0.0000
# 2 39.2431 92.5794 29.5799 0.0000 0.0000 0.0000
# 3 29.5799 29.5799 55.5866 0.0000 0.0000 0.0000
# 4 0.0000 0.0000 0.0000 19.9751 0.0000 0.0000
# 5 0.0000 0.0000 0.0000 0.0000 19.9751 0.0000
# 6 0.0000 0.0000 0.0000 0.0000 0.0000 -115.5216
#
#
#
# Elastic Compliance Matrix: (Units=1/GPa)
#
#
# Indices 1 2 3 4 5 6 
#
# 1 0.014357 -0.004391 -0.005303 0.000000 0.000000 0.000000
# 2 -0.004391 0.014357 -0.005303 0.000000 0.000000 0.000000
# 3 -0.005303 -0.005303 0.023634 0.000000 0.000000 0.000000
# 4 0.000000 0.000000 0.000000 0.050062 0.000000 0.000000
# 5 0.000000 0.000000 0.000000 0.000000 0.050062 0.000000
# 6 0.000000 0.000000 0.000000 0.000000 0.000000 -0.008656
#
#
# Mechanical properties :
#
#
# Convention : Reuss Voigt Hill
#
# Bulk Modulus (GPa) = 44.73689 48.61678 46.67683
# Shear Modulus (GPa) = 27.58402 -5.62476 10.97963
#
# Velocity S-wave (km/s) = 3.85379 -1.74025 2.43138
# Velocity P-wave (km/s) = 6.62490 4.70511 5.74575
#
# Compressibility (1/GPa) = 0.02235292
#
# Stress axis : x y z
#
# Youngs Moduli (GPa) = 69.65007 69.65007 42.31166
#
# Poissons Ratio (x) = 0.30587 0.22439
# Poissons Ratio (y) = 0.30587 0.22439
# Poissons Ratio (z) = 0.36938 0.36938
#
# Static dielectric constant tensor:
#      x y z
#    x 1.675090 0.000000 0.000000 
#    y 0.000000 1.675090 0.000000 
#    z 0.000000 0.000000 1.651850 
# 
# From -- ./inp_files/2974.got.cif
#   From: 2010.05.17/outbox.cif.g08.bks.cpg/sg115_2_cif.got.tgz:2974.got - 2010.05.20 11:07:42.
