data_PCOD9557535
_publ_section_title
;
Structure prediction by ZEFSAII (Michael W. Deem and Ramdas Pophale) SiO2 
 PCOD9557535
Probable space group: P -4 C 2
;
_chemical_formula_sum "Si O2"
_cell_formula_units_Z 48
_cell_length_a 21.417801
_cell_length_b 21.417801
_cell_length_c 5.370008
_cell_angle_alpha 90.000000
_cell_angle_beta 90.000000
_cell_angle_gamma 90.000000
_cell_volume 2463.341882
_symmetry_space_group_name_H-M "P -4 C 2"
_symmetry_group_IT_number 116
_symmetry_cell_setting 'tetragonal'
loop_
_space_group_symop_operation_xyz
x,y,z
y,-x,-z
-x,-y,z
-y,x,-z
y,x,1/2-z
-y,-x,1/2-z
-x,y,1/2+z
x,-y,1/2+z
loop_
_atom_site_type_symbol
_atom_site_label
_atom_site_fract_x
_atom_site_fract_y
_atom_site_fract_z
Si Si1 0.758351 0.858428 0.138265
Si Si2 0.648127 0.648127 0.250000
Si Si3 0.767826 0.767826 0.750000
Si Si4 0.631890 0.533803 0.920680
Si Si5 0.782422 0.658014 0.121316
Si Si6 0.853076 0.959617 0.250307
Si Si7 0.468557 0.217598 0.632289
O O1 0.808019 0.808019 0.250000
O O2 0.690123 0.838681 0.231437
O O3 0.786964 0.923798 0.215299
O O4 0.760455 0.838323 0.849708
O O5 0.628265 0.605418 0.017698
O O6 0.722305 0.636490 0.283056
O O7 0.714723 0.756788 0.547055
O O8 0.607135 0.494248 0.160116
O O9 0.706840 0.526191 0.879349
O O10 0.800112 0.601163 0.946368
O O11 0.907289 0.907289 0.250000
O O12 0.858751 0.996245 0.509372
O O13 0.487715 0.195412 0.904990
#
# Coordination Sequence:
#
# PCOD9557535 Si02
#       7
#     8   4   4   8   8   8   8
#     4   9  20  35  53  83 114 145 183 234 288 322
#     4  10  18  32  50  73  92 132 183 212 276 348
#     4  10  18  30  56  74 111 146 182 235 282 336
#     4   9  19  32  44  64  93 126 165 221 271 324
#     4  10  19  31  50  80 105 140 183 229 281 351
#     4  11  25  41  64  87 121 161 199 236 269 306
#     4   9  19  31  45  68 105 141 172 216 279 344
#
# _framework density 19.485723
#
# number of rings (size 3 to 8) (size 9 to 14) (size 15 to 20)
#    0.000    2.333    2.500    0.500    9.333    5.667 
#    0.000    0.000    0.000    1.500    0.000    0.000 
#    0.000    4.000    0.000    0.000    0.000    0.000 
#
# Total GULP energy -267531.888750 kJ/mol
# GULP energy per Si atom -5573.581016 kJ/mol
# Density = 1.944137 g / cm^3
# Si number density = 19.485723 Si / 1000 Ang^3
#
#
#
# Elastic Constant Matrix: (Units=GPa)
#
#
# Indices 1 2 3 4 5 6 
#
# 1 46.3145 31.5566 11.2185 0.0000 0.0000 0.0000
# 2 31.5566 46.3145 11.2185 0.0000 0.0000 0.0000
# 3 11.2185 11.2185 71.7207 0.0000 0.0000 0.0000
# 4 0.0000 0.0000 0.0000 18.5982 0.0000 0.0000
# 5 0.0000 0.0000 0.0000 0.0000 18.5982 0.0000
# 6 0.0000 0.0000 0.0000 0.0000 0.0000 18.2487
#
#
#
# Elastic Compliance Matrix: (Units=1/GPa)
#
#
# Indices 1 2 3 4 5 6 
#
# 1 0.040604 -0.027156 -0.002103 0.000000 0.000000 0.000000
# 2 -0.027156 0.040604 -0.002103 0.000000 0.000000 0.000000
# 3 -0.002103 -0.002103 0.014601 0.000000 0.000000 0.000000
# 4 0.000000 0.000000 0.000000 0.053769 0.000000 0.000000
# 5 0.000000 0.000000 0.000000 0.000000 0.053769 0.000000
# 6 0.000000 0.000000 0.000000 0.000000 0.000000 0.054798
#
#
# Mechanical properties :
#
#
# Convention : Reuss Voigt Hill
#
# Bulk Modulus (GPa) = 30.22730 30.25965 30.24347
# Shear Modulus (GPa) = 15.06480 18.44608 16.75544
#
# Velocity S-wave (km/s) = 2.78352 3.08010 2.93556
# Velocity P-wave (km/s) = 5.08693 5.31152 5.20044
#
# Compressibility (1/GPa) = 0.03308268
#
# Stress axis : x y z
#
# Youngs Moduli (GPa) = 24.62801 24.62801 68.48832
#
# Poissons Ratio (x) = 0.66881 0.14406
# Poissons Ratio (y) = 0.66881 0.14406
# Poissons Ratio (z) = 0.05180 0.05180
#
# Static dielectric constant tensor:
#      x y z
#    x 1.712690 0.000000 0.000000 
#    y 0.000000 1.712690 0.000000 
#    z 0.000000 0.000000 1.840830 
# 
# From -- ./inp_files/185.got.cif
#   From: 2010.05.17/outbox.cif.g08.bks.cpg/sg116_1_cif.got.tgz:185.got - 2010.05.20 11:11:43.
