data_PCOD9557668
_publ_section_title
;
Structure prediction by ZEFSAII (Michael W. Deem and Ramdas Pophale) SiO2 
 PCOD9557668
Probable space group: P -4 C 2
;
_chemical_formula_sum "Si O2"
_cell_formula_units_Z 48
_cell_length_a 12.221489
_cell_length_b 12.221489
_cell_length_c 16.874892
_cell_angle_alpha 90.000000
_cell_angle_beta 90.000000
_cell_angle_gamma 90.000000
_cell_volume 2520.514757
_symmetry_space_group_name_H-M "P -4 C 2"
_symmetry_group_IT_number 116
_symmetry_cell_setting 'tetragonal'
loop_
_space_group_symop_operation_xyz
x,y,z
y,-x,-z
-x,-y,z
-y,x,-z
y,x,1/2-z
-y,-x,1/2-z
-x,y,1/2+z
x,-y,1/2+z
loop_
_atom_site_type_symbol
_atom_site_label
_atom_site_fract_x
_atom_site_fract_y
_atom_site_fract_z
Si Si1 0.370294 0.202475 0.239835
Si Si2 0.348333 0.906336 0.454128
Si Si3 0.226597 0.303393 0.926048
Si Si4 0.408551 0.851720 0.916757
Si Si5 0.462772 0.622566 0.168178
Si Si6 0.371866 0.990626 0.620032
O O1 0.249149 0.249149 0.250000
O O2 0.416062 0.194464 0.328646
O O3 0.439276 0.292632 0.189699
O O4 0.368272 0.086186 0.196357
O O5 0.265358 0.820706 0.417147
O O6 0.469252 0.853889 0.451764
O O7 0.317483 0.930700 0.545116
O O8 0.363257 0.023811 0.412739
O O9 0.319056 0.384577 0.893778
O O10 0.113863 0.327069 0.878995
O O11 0.207736 0.332762 0.018649
O O12 0.500000 0.500000 0.143891
O O13 0.397769 0.602232 0.250000
O O14 0.500000 0.000000 0.599036
#
# Coordination Sequence:
#
# PCOD9557668 Si02
#       6
#     8   8   8   8   8   8
#     4  12  23  38  63  86 134 176 209 270 329 397
#     4  10  20  39  60  89 123 156 219 277 313 395
#     4  11  22  40  66  90 129 170 221 283 321 404
#     4  10  22  39  59  91 122 170 216 258 334 396
#     4  11  22  38  57  94 139 168 209 264 338 406
#     4  11  21  41  64  92 126 177 226 263 331 403
#
# _framework density 19.04373
#
# number of rings (size 3 to 8) (size 9 to 14) (size 15 to 20)
#    0.000    1.167    6.667    2.000    2.333    1.333 
#    0.000    0.833    0.000   18.000    0.000    0.000 
#    0.000    0.000    0.000    0.000    0.000    0.000 
#
# Total GULP energy -267931.332643 kJ/mol
# GULP energy per Si atom -5581.902763 kJ/mol
# Density = 1.900039 g / cm^3
# Si number density = 19.043730 Si / 1000 Ang^3
#
#
#
# Elastic Constant Matrix: (Units=GPa)
#
#
# Indices 1 2 3 4 5 6 
#
# 1 91.9657 53.7258 26.3896 0.0000 0.0000 0.0000
# 2 53.7258 91.9654 26.3895 0.0000 0.0000 0.0000
# 3 26.3896 26.3895 51.8969 0.0000 0.0000 0.0000
# 4 0.0000 0.0000 0.0000 19.6960 0.0000 0.0000
# 5 0.0000 0.0000 0.0000 0.0000 19.6961 0.0000
# 6 0.0000 0.0000 0.0000 0.0000 0.0000 35.4543
#
#
#
# Elastic Compliance Matrix: (Units=1/GPa)
#
#
# Indices 1 2 3 4 5 6 
#
# 1 0.017282 -0.008869 -0.004278 0.000000 0.000000 0.000000
# 2 -0.008869 0.017282 -0.004278 0.000000 0.000000 0.000000
# 3 -0.004278 -0.004278 0.023620 0.000000 0.000000 0.000000
# 4 0.000000 0.000000 0.000000 0.050772 0.000000 0.000000
# 5 0.000000 0.000000 0.000000 0.000000 0.050772 0.000000
# 6 0.000000 0.000000 0.000000 0.000000 0.000000 0.028205
#
#
# Mechanical properties :
#
#
# Convention : Reuss Voigt Hill
#
# Bulk Modulus (GPa) = 42.85584 49.87086 46.36335
# Shear Modulus (GPa) = 21.68617 23.59083 22.63850
#
# Velocity S-wave (km/s) = 3.37821 3.52344 3.45159
# Velocity P-wave (km/s) = 6.14566 6.54196 6.34690
#
# Compressibility (1/GPa) = 0.02333404
#
# Stress axis : x y z
#
# Youngs Moduli (GPa) = 57.86293 57.86272 42.33680
#
# Poissons Ratio (x) = 0.51316 0.18113
# Poissons Ratio (y) = 0.51316 0.18113
# Poissons Ratio (z) = 0.24756 0.24756
#
# Static dielectric constant tensor:
#      x y z
#    x 1.675850 0.000000 0.000000 
#    y 0.000000 1.675850 0.000000 
#    z 0.000000 0.000000 1.700800 
# 
# From -- ./inp_files/3402.got.cif
#   From: 2010.05.17/outbox.cif.g08.bks.cpg/sg116_2_cif.got.tgz:3402.got - 2010.05.20 11:11:43.
