data_PCOD9557032
_publ_section_title
;
Structure prediction by ZEFSAII (Michael W. Deem and Ramdas Pophale) SiO2 
 PCOD9557032
Probable space group: P -4 M 2
;
_chemical_formula_sum "Si O2"
_cell_formula_units_Z 40
_cell_length_a 15.217029
_cell_length_b 15.217029
_cell_length_c 7.565157
_cell_angle_alpha 90.000000
_cell_angle_beta 90.000000
_cell_angle_gamma 90.000000
_cell_volume 1751.772410
_symmetry_space_group_name_H-M "P -4 M 2"
_symmetry_group_IT_number 115
_symmetry_cell_setting 'tetragonal'
loop_
_space_group_symop_operation_xyz
x,y,z
y,-x,-z
-x,-y,z
-y,x,-z
y,x,-z
-y,-x,-z
-x,y,z
x,-y,z
loop_
_atom_site_type_symbol
_atom_site_label
_atom_site_fract_x
_atom_site_fract_y
_atom_site_fract_z
Si Si1 0.597345 0.598565 0.272792
Si Si2 0.100174 0.771461 0.241069
Si Si3 0.406467 0.792353 0.303858
Si Si4 0.207252 0.402097 0.121022
Si Si5 0.235752 0.097825 0.339594
O O1 0.500000 0.602267 0.178211
O O2 0.597231 0.500000 0.352871
O O3 0.596951 0.692349 0.371430
O O4 0.690067 0.604671 0.172665
O O5 0.149452 0.679576 0.192870
O O6 0.090606 0.786451 0.452724
O O7 0.168985 0.850908 0.210003
O O8 0.000000 0.774040 0.169975
O O9 0.500000 0.830645 0.359966
O O10 0.323694 0.846526 0.356930
O O11 0.402324 0.792645 0.091120
O O12 0.176446 0.500000 0.179938
O O13 0.250917 0.000000 0.271330
#
# Coordination Sequence:
#
# PCOD9557032 Si02
#       5
#     8   8   8   8   8
#     4   9  17  30  52  84 119 152 184 217 257 311
#     4  10  22  40  60  81 106 139 181 230 283 333
#     4  10  20  34  56  86 117 149 184 221 262 314
#     4  10  20  34  56  86 117 149 184 221 262 314
#     4  10  22  40  60  81 106 139 181 230 283 333
#
# _framework density 22.834016999999999
#
# number of rings (size 3 to 8) (size 9 to 14) (size 15 to 20)
#    0.000    2.200    2.000    0.600    0.000    5.200 
#    0.000   12.000    0.000    1.200    0.000    8.400 
#    0.000    0.000    0.000    0.000    0.000    0.000 
#
# Total GULP energy -222909.357099 kJ/mol
# GULP energy per Si atom -5572.733927 kJ/mol
# Density = 2.278205 g / cm^3
# Si number density = 22.834017 Si / 1000 Ang^3
#
#
#
# Elastic Constant Matrix: (Units=GPa)
#
#
# Indices 1 2 3 4 5 6 
#
# 1 148.0243 73.1965 -9.1617 0.0000 0.0000 0.0000
# 2 73.1965 148.0243 -9.1617 0.0000 0.0000 0.0000
# 3 -9.1617 -9.1617 47.8887 0.0000 0.0000 0.0000
# 4 0.0000 0.0000 0.0000 12.2184 0.0000 0.0000
# 5 0.0000 0.0000 0.0000 0.0000 12.2184 0.0000
# 6 0.0000 0.0000 0.0000 0.0000 0.0000 -25.0558
#
#
#
# Elastic Compliance Matrix: (Units=1/GPa)
#
#
# Indices 1 2 3 4 5 6 
#
# 1 0.008979 -0.004385 0.000879 0.000000 0.000000 0.000000
# 2 -0.004385 0.008979 0.000879 0.000000 0.000000 0.000000
# 3 0.000879 0.000879 0.021218 0.000000 0.000000 0.000000
# 4 0.000000 0.000000 0.000000 0.081844 0.000000 0.000000
# 5 0.000000 0.000000 0.000000 0.000000 0.081844 0.000000
# 6 0.000000 0.000000 0.000000 0.000000 0.000000 -0.039911
#
#
# Mechanical properties :
#
#
# Convention : Reuss Voigt Hill
#
# Bulk Modulus (GPa) = 29.48183 50.40924 39.94554
# Shear Modulus (GPa) = 27.85301 19.14717 23.50009
#
# Velocity S-wave (km/s) = 3.49636 2.89889 3.21155
# Velocity P-wave (km/s) = 5.40729 5.77313 5.59320
#
# Compressibility (1/GPa) = 0.03391920
#
# Stress axis : x y z
#
# Youngs Moduli (GPa) = 111.37610 111.37610 47.12988
#
# Poissons Ratio (x) = 0.48843 -0.04141
# Poissons Ratio (y) = 0.48843 -0.04141
# Poissons Ratio (z) = -0.09787 -0.09787
#
# Static dielectric constant tensor:
#      x y z
#    x 1.864870 0.000000 0.000000 
#    y 0.000000 1.864870 0.000000 
#    z 0.000000 0.000000 2.031970 
# 
# From -- ./inp_files/1587.got.cif
#   From: 2010.05.17/outbox.cif.g08.bks.cpg/sg115_1_cif.got.tgz:1587.got - 2010.05.20 11:07:42.
