data_PCOD9557046
_publ_section_title
;
Structure prediction by ZEFSAII (Michael W. Deem and Ramdas Pophale) SiO2 
 PCOD9557046
Probable space group: P -4 M 2
;
_chemical_formula_sum "Si O2"
_cell_formula_units_Z 40
_cell_length_a 8.062914
_cell_length_b 8.062914
_cell_length_c 30.325196
_cell_angle_alpha 90.000000
_cell_angle_beta 90.000000
_cell_angle_gamma 90.000000
_cell_volume 1971.458646
_symmetry_space_group_name_H-M "P -4 M 2"
_symmetry_group_IT_number 115
_symmetry_cell_setting 'tetragonal'
loop_
_space_group_symop_operation_xyz
x,y,z
y,-x,-z
-x,-y,z
-y,x,-z
y,x,-z
-y,-x,-z
-x,y,z
x,-y,z
loop_
_atom_site_type_symbol
_atom_site_label
_atom_site_fract_x
_atom_site_fract_y
_atom_site_fract_z
Si Si1 0.696770 0.193146 0.048025
Si Si2 0.297328 0.500000 0.205132
Si Si3 0.801593 0.310159 0.451757
Si Si4 0.820790 0.301915 0.640295
Si Si5 0.500000 0.703709 0.693053
Si Si6 0.296772 0.805710 0.144582
O O1 0.500000 0.213752 0.050209
O O2 0.759803 0.254628 0.095615
O O3 0.738813 0.000000 0.048401
O O4 0.744636 0.255364 0.000000
O O5 0.500000 0.500000 0.204247
O O6 0.246292 0.500000 0.256033
O O7 0.244206 0.668276 0.180002
O O8 0.747478 0.252523 0.500000
O O9 0.746412 0.500000 0.445299
O O10 0.730734 0.205313 0.411467
O O11 0.000000 0.303292 0.449515
O O12 0.822917 0.500000 0.646777
O O13 0.663676 0.237217 0.667370
O O14 0.000000 0.234780 0.654250
O O15 0.500000 0.500000 0.691828
O O16 0.500000 0.807982 0.144723
O O17 0.247374 0.000000 0.151584
#
# Coordination Sequence:
#
# PCOD9557046 Si02
#       6
#     8   4   8   8   4   8
#     4   9  18  30  44  67  97 129 167 209 255 313
#     4   9  16  26  46  71  99 139 179 215 275 336
#     4  11  23  37  55  81 111 145 184 223 273 333
#     4  10  20  35  55  78 108 145 183 227 282 338
#     4   9  18  32  49  75 107 139 183 235 277 332
#     4   8  15  27  41  64 101 134 167 217 269 325
#
# _framework density 20.289546000000001
#
# number of rings (size 3 to 8) (size 9 to 14) (size 15 to 20)
#    0.000    2.600    1.000    2.400    1.400    5.200 
#    0.000    4.000    0.000    0.000    0.000    2.800 
#    0.000    3.200    0.000    0.000    0.000    0.000 
#
# Total GULP energy -222987.336109 kJ/mol
# GULP energy per Si atom -5574.683403 kJ/mol
# Density = 2.024337 g / cm^3
# Si number density = 20.289546 Si / 1000 Ang^3
#
#
#
# Elastic Constant Matrix: (Units=GPa)
#
#
# Indices 1 2 3 4 5 6 
#
# 1 59.6535 26.8267 47.1359 0.0000 0.0000 0.0000
# 2 26.8267 59.6553 47.1355 0.0000 0.0000 0.0000
# 3 47.1359 47.1355 172.9822 0.0000 0.0000 0.0000
# 4 0.0000 0.0000 0.0000 41.6366 0.0000 0.0000
# 5 0.0000 0.0000 0.0000 0.0000 41.6354 0.0000
# 6 0.0000 0.0000 0.0000 0.0000 0.0000 1.5959
#
#
#
# Elastic Compliance Matrix: (Units=1/GPa)
#
#
# Indices 1 2 3 4 5 6 
#
# 1 0.023456 -0.007006 -0.004482 0.000000 0.000000 0.000000
# 2 -0.007006 0.023455 -0.004482 0.000000 0.000000 0.000000
# 3 -0.004482 -0.004482 0.008224 0.000000 0.000000 0.000000
# 4 0.000000 0.000000 0.000000 0.024017 0.000000 0.000000
# 5 0.000000 0.000000 0.000000 0.000000 0.024018 0.000000
# 6 0.000000 0.000000 0.000000 0.000000 0.000000 0.626623
#
#
# Mechanical properties :
#
#
# Convention : Reuss Voigt Hill
#
# Bulk Modulus (GPa) = 43.11618 59.38749 51.25183
# Shear Modulus (GPa) = 6.49801 28.38643 17.44222
#
# Velocity S-wave (km/s) = 1.79153 3.74447 2.93519
# Velocity P-wave (km/s) = 5.05728 6.93024 6.06648
#
# Compressibility (1/GPa) = 0.02319315
#
# Stress axis : x y z
#
# Youngs Moduli (GPa) = 42.63278 42.63457 121.60047
#
# Poissons Ratio (x) = 0.29872 0.54506
# Poissons Ratio (y) = 0.29870 0.54502
# Poissons Ratio (z) = 0.19110 0.19109
#
# Static dielectric constant tensor:
#      x y z
#    x 1.735680 0.000000 0.000000 
#    y 0.000000 1.735680 0.000000 
#    z 0.000000 0.000000 1.725690 
# 
# From -- ./inp_files/5522.got.cif
#   From: 2010.05.17/outbox.cif.g08.bks.cpg/sg115_3_cif.got.tgz:5522.got - 2010.05.20 11:07:42.
