data_PCOD9557477
_publ_section_title
;
Structure prediction by ZEFSAII (Michael W. Deem and Ramdas Pophale) SiO2 
 PCOD9557477
Probable space group: P -4 M 2
;
_chemical_formula_sum "Si O2"
_cell_formula_units_Z 56
_cell_length_a 15.000000
_cell_length_b 15.000000
_cell_length_c 15.000000
_cell_angle_alpha 90.000000
_cell_angle_beta 90.000000
_cell_angle_gamma 90.000000
_cell_volume 3375.000000
_symmetry_space_group_name_H-M "P -4 M 2"
_symmetry_group_IT_number 115
_symmetry_cell_setting 'tetragonal'
loop_
_space_group_symop_operation_xyz
x,y,z
y,-x,-z
-x,-y,z
-y,x,-z
y,x,-z
-y,-x,-z
-x,y,z
x,-y,z
loop_
_atom_site_type_symbol
_atom_site_label
_atom_site_fract_x
_atom_site_fract_y
_atom_site_fract_z
Si Si1 0.307456 0.748255 0.256198
Si Si2 0.102201 0.603514 0.629631
Si Si3 0.127817 0.601614 0.429218
Si Si4 0.900527 0.393644 0.062444
Si Si5 0.099718 0.290746 0.249976
Si Si6 0.607943 0.270166 0.059268
Si Si7 0.401196 0.661004 0.596876
O O1 0.343583 0.837456 0.302033
O O2 0.198880 0.753063 0.253963
O O3 0.347252 0.733181 0.157318
O O4 0.344632 0.670914 0.323624
O O5 0.132880 0.500000 0.625827
O O6 0.106139 0.638389 0.527489
O O7 0.000000 0.604540 0.658160
O O8 0.095157 0.500000 0.425292
O O9 0.096629 0.654233 0.342432
O O10 0.234079 0.598534 0.423564
O O11 0.895761 0.500000 0.074181
O O12 0.892971 0.350166 0.160247
O O13 0.000000 0.371446 0.027515
O O14 0.820922 0.369364 0.995314
O O15 0.000000 0.245726 0.243613
O O16 0.500000 0.276782 0.066362
O O17 0.650421 0.349580 0.000000
O O18 0.381652 0.618349 0.500000
O O19 0.500000 0.632799 0.626959
#
# Coordination Sequence:
#
# PCOD9557477 Si02
#       7
#     8   8   8   8   8   8   8
#     4  11  22  37  56  80 112 145 184 227 278 326
#     4  10  20  34  54  80 109 143 184 229 277 327
#     4   9  17  30  50  77 109 140 175 223 275 321
#     4   9  18  34  57  83 107 132 174 232 286 331
#     4  10  19  31  53  82 109 139 177 221 277 335
#     4  11  23  39  56  76 106 146 189 231 276 326
#     4  10  20  34  53  77 109 148 186 222 262 318
#
# _framework density 16.592593000000001
#
# number of rings (size 3 to 8) (size 9 to 14) (size 15 to 20)
#    0.000    2.000    2.857    1.286    0.000    4.000 
#    0.000    1.429    0.000    0.429    0.000    0.000 
#    0.000    2.857    0.000    0.000    0.000    0.143 
#
# Total GULP energy -311775.989784 kJ/mol
# GULP energy per Si atom -5567.428389 kJ/mol
# Density = 1.655483 g / cm^3
# Si number density = 16.592593 Si / 1000 Ang^3
#
#
#
# Elastic Constant Matrix: (Units=GPa)
#
#
# Indices 1 2 3 4 5 6 
#
# 1 80.1485 33.4569 48.7349 0.0000 0.0000 0.0000
# 2 33.4569 80.1468 48.7350 0.0000 0.0000 0.0000
# 3 48.7349 48.7350 126.4939 0.0000 0.0000 0.0000
# 4 0.0000 0.0000 0.0000 5.6885 0.0000 0.0000
# 5 0.0000 0.0000 0.0000 0.0000 5.6905 0.0000
# 6 0.0000 0.0000 0.0000 0.0000 0.0000 14.9076
#
#
#
# Elastic Compliance Matrix: (Units=1/GPa)
#
#
# Indices 1 2 3 4 5 6 
#
# 1 0.017283 -0.004134 -0.005066 0.000000 0.000000 0.000000
# 2 -0.004134 0.017283 -0.005066 0.000000 0.000000 0.000000
# 3 -0.005066 -0.005066 0.011809 0.000000 0.000000 0.000000
# 4 0.000000 0.000000 0.000000 0.175792 0.000000 0.000000
# 5 0.000000 0.000000 0.000000 0.000000 0.175732 0.000000
# 6 0.000000 0.000000 0.000000 0.000000 0.000000 0.067080
#
#
# Mechanical properties :
#
#
# Convention : Reuss Voigt Hill
#
# Bulk Modulus (GPa) = 56.04398 60.96030 58.50214
# Shear Modulus (GPa) = 10.01082 15.64816 12.82949
#
# Velocity S-wave (km/s) = 2.45894 3.07429 2.78367
# Velocity P-wave (km/s) = 6.47392 7.03000 6.75769
#
# Compressibility (1/GPa) = 0.01784313
#
# Stress axis : x y z
#
# Youngs Moduli (GPa) = 57.86048 57.85882 84.68059
#
# Poissons Ratio (x) = 0.23920 0.42898
# Poissons Ratio (y) = 0.23921 0.42900
# Poissons Ratio (z) = 0.29311 0.29312
#
# Static dielectric constant tensor:
#      x y z
#    x 1.582130 0.000000 0.000000 
#    y 0.000000 1.582130 0.000000 
#    z 0.000000 0.000000 1.543490 
# 
# From -- ./inp_files/3848.got.cif
#   From: 2010.05.17/outbox.ucp.g08.bks.cvg/sg115_2_cif.got.tgz:3848.got - 2010.06.11 11:33:38.
