data_PCOD9557341
_publ_section_title
;
Structure prediction by ZEFSAII (Michael W. Deem and Ramdas Pophale) SiO2 
 PCOD9557341
Probable space group: P -4 M 2
;
_chemical_formula_sum "Si O2"
_cell_formula_units_Z 33
_cell_length_a 8.145231
_cell_length_b 8.145231
_cell_length_c 24.533048
_cell_angle_alpha 90.000000
_cell_angle_beta 90.000000
_cell_angle_gamma 90.000000
_cell_volume 1627.639870
_symmetry_space_group_name_H-M "P -4 M 2"
_symmetry_group_IT_number 115
_symmetry_cell_setting 'tetragonal'
loop_
_space_group_symop_operation_xyz
x,y,z
y,-x,-z
-x,-y,z
-y,x,-z
y,x,-z
-y,-x,-z
-x,y,z
x,-y,z
loop_
_atom_site_type_symbol
_atom_site_label
_atom_site_fract_x
_atom_site_fract_y
_atom_site_fract_z
Si Si1 0.679722 0.303209 0.844150
Si Si2 0.688763 0.688763 0.500000
Si Si3 0.198654 0.810218 0.270710
Si Si4 0.000000 0.000000 0.000000
Si Si5 0.701188 0.000000 0.084179
Si Si6 0.804994 0.184217 0.612907
O O1 0.500000 0.241953 0.862781
O O2 0.675835 0.500000 0.845202
O O3 0.710386 0.249759 0.782046
O O4 0.836761 0.257947 0.880568
O O5 0.716743 0.500000 0.486429
O O6 0.729868 0.781703 0.444599
O O7 0.258414 0.744412 0.329720
O O8 0.000000 0.811063 0.274106
O O9 0.253698 0.000000 0.262841
O O10 0.830125 0.000000 0.034664
O O11 0.500000 0.000000 0.072939
O O12 0.000000 0.172336 0.621821
O O13 0.736568 0.000000 0.606762
#
# Coordination Sequence:
#
# PCOD9557341 Si02
#       6
#     8   4   8   1   4   8
#     4  10  21  37  60  90 126 168 205 248 309 367
#     4  11  24  37  48  68 102 143 188 241 296 358
#     4   9  18  33  56  85 117 148 190 246 303 366
#     4  12  28  44  76 104 124 180 224 258 300 364
#     4  10  24  46  66  96 138 170 211 265 310 357
#     4   9  19  36  56  78 103 139 186 241 298 358
#
# _framework density 20.274756
#
# number of rings (size 3 to 8) (size 9 to 14) (size 15 to 20)
#    0.000    2.303    1.212    2.182    1.697    6.303 
#    0.000    7.273    0.000    0.000    0.000    0.000 
#    0.000    0.000    0.000    0.000    0.000    0.000 
#
# Total GULP energy -183910.065407 kJ/mol
# GULP energy per Si atom -5573.032285 kJ/mol
# Density = 2.022861 g / cm^3
# Si number density = 20.274756 Si / 1000 Ang^3
#
#
#
# Elastic Constant Matrix: (Units=GPa)
#
#
# Indices 1 2 3 4 5 6 
#
# 1 71.1743 14.7914 46.5557 0.0000 0.0000 0.0000
# 2 14.7914 71.1743 46.5557 0.0000 0.0000 0.0000
# 3 46.5557 46.5557 135.6509 0.0000 0.0000 0.0000
# 4 0.0000 0.0000 0.0000 -31.2124 0.0000 0.0000
# 5 0.0000 0.0000 0.0000 0.0000 -31.2124 0.0000
# 6 0.0000 0.0000 0.0000 0.0000 0.0000 16.0405
#
#
#
# Elastic Compliance Matrix: (Units=1/GPa)
#
#
# Indices 1 2 3 4 5 6 
#
# 1 0.018126 0.000390 -0.006354 0.000000 0.000000 0.000000
# 2 0.000390 0.018126 -0.006354 0.000000 0.000000 0.000000
# 3 -0.006354 -0.006354 0.011734 0.000000 0.000000 0.000000
# 4 0.000000 0.000000 0.000000 -0.032039 0.000000 0.000000
# 5 0.000000 0.000000 0.000000 0.000000 -0.032039 0.000000
# 6 0.000000 0.000000 0.000000 0.000000 0.000000 0.062342
#
#
# Mechanical properties :
#
#
# Convention : Reuss Voigt Hill
#
# Bulk Modulus (GPa) = 42.83357 54.86720 48.85038
# Shear Modulus (GPa) = 63.55650 2.06294 32.80972
#
# Velocity S-wave (km/s) = 5.60497 1.00980 4.02712
# Velocity P-wave (km/s) = 7.94103 5.33668 6.76536
#
# Compressibility (1/GPa) = 0.02334618
#
# Stress axis : x y z
#
# Youngs Moduli (GPa) = 55.17075 55.17075 85.22545
#
# Poissons Ratio (x) = -0.02150 0.54156
# Poissons Ratio (y) = -0.02150 0.54156
# Poissons Ratio (z) = 0.35058 0.35058
#
# Static dielectric constant tensor:
#      x y z
#    x 1.743070 0.000000 0.000000 
#    y 0.000000 1.743070 0.000000 
#    z 0.000000 0.000000 1.695430 
# 
# From -- ./inp_files/4688.got.cif
#   From: 2010.05.17/outbox.cif.g08.bks.cpg/sg115_3_cif.got.tgz:4688.got - 2010.05.20 11:07:42.
