data_PCOD9557354
_publ_section_title
;
Structure prediction by ZEFSAII (Michael W. Deem and Ramdas Pophale) SiO2 
 PCOD9557354
Probable space group: P -4 M 2
;
_chemical_formula_sum "Si O2"
_cell_formula_units_Z 40
_cell_length_a 9.125906
_cell_length_b 9.125906
_cell_length_c 26.181392
_cell_angle_alpha 90.000000
_cell_angle_beta 90.000000
_cell_angle_gamma 90.000000
_cell_volume 2180.442886
_symmetry_space_group_name_H-M "P -4 M 2"
_symmetry_group_IT_number 115
_symmetry_cell_setting 'tetragonal'
loop_
_space_group_symop_operation_xyz
x,y,z
y,-x,-z
-x,-y,z
-y,x,-z
y,x,-z
-y,-x,-z
-x,y,z
x,-y,z
loop_
_atom_site_type_symbol
_atom_site_label
_atom_site_fract_x
_atom_site_fract_y
_atom_site_fract_z
Si Si1 0.825163 0.171720 0.346999
Si Si2 0.173573 0.675262 0.855339
Si Si3 0.326364 0.324934 0.558547
Si Si4 0.174628 0.674199 0.048480
Si Si5 0.327871 0.324610 0.748507
O O1 0.759968 0.235124 0.399358
O O2 0.756208 0.258790 0.299691
O O3 0.000000 0.188054 0.346803
O O4 0.789010 0.000000 0.342180
O O5 0.193895 0.500000 0.862995
O O6 0.252977 0.761067 0.900545
O O7 0.243784 0.713570 0.800695
O O8 0.000000 0.704792 0.855378
O O9 0.287279 0.287279 0.500000
O O10 0.500000 0.295785 0.565340
O O11 0.305990 0.500000 0.564580
O O12 0.202443 0.500000 0.048810
O O13 0.000000 0.697068 0.045414
O O14 0.252386 0.747615 0.000000
O O15 0.500000 0.290959 0.753445
O O16 0.313385 0.500000 0.741003
#
# Coordination Sequence:
#
# PCOD9557354 Si02
#       5
#     8   8   8   8   8
#     4  11  24  38  53  79 115 151 186 227 277 331
#     4  10  21  38  61  88 116 147 185 229 279 335
#     4   9  19  37  60  84 109 140 182 230 278 331
#     4  11  24  40  59  85 116 151 191 233 279 331
#     4  10  21  38  61  86 111 144 188 234 279 330
#
# _framework density 18.344897
#
# number of rings (size 3 to 8) (size 9 to 14) (size 15 to 20)
#    0.000    1.800    0.000    4.200    0.000   12.400 
#    0.000    3.000    0.000    0.000    0.000    0.000 
#    0.000    0.000    0.000    0.000    0.000    0.000 
#
# Total GULP energy -223591.651664 kJ/mol
# GULP energy per Si atom -5589.791292 kJ/mol
# Density = 1.830314 g / cm^3
# Si number density = 18.344897 Si / 1000 Ang^3
#
#
#
# Elastic Constant Matrix: (Units=GPa)
#
#
# Indices 1 2 3 4 5 6 
#
# 1 98.5307 85.7630 93.9411 0.0000 0.0000 0.0000
# 2 85.7630 98.5301 93.9414 0.0000 0.0000 0.0000
# 3 93.9411 93.9414 167.3134 0.0000 0.0000 0.0000
# 4 0.0000 0.0000 0.0000 211.3027 0.0000 0.0000
# 5 0.0000 0.0000 0.0000 0.0000 211.3397 0.0000
# 6 0.0000 0.0000 0.0000 0.0000 0.0000 32.4082
#
#
#
# Elastic Compliance Matrix: (Units=1/GPa)
#
#
# Indices 1 2 3 4 5 6 
#
# 1 0.045507 -0.032817 -0.007125 0.000000 0.000000 0.000000
# 2 -0.032817 0.045508 -0.007125 0.000000 0.000000 0.000000
# 3 -0.007125 -0.007125 0.013978 0.000000 0.000000 0.000000
# 4 0.000000 0.000000 0.000000 0.004733 0.000000 0.000000
# 5 0.000000 0.000000 0.000000 0.000000 0.004732 0.000000
# 6 0.000000 0.000000 0.000000 0.000000 0.000000 0.030856
#
#
# Mechanical properties :
#
#
# Convention : Reuss Voigt Hill
#
# Bulk Modulus (GPa) = 92.10173 101.29614 96.69893
# Shear Modulus (GPa) = 20.57052 97.05869 58.81461
#
# Velocity S-wave (km/s) = 3.35225 7.28166 5.66834
# Velocity P-wave (km/s) = 8.08072 11.22650 9.78091
#
# Compressibility (1/GPa) = 0.01085756
#
# Stress axis : x y z
#
# Youngs Moduli (GPa) = 21.97482 21.97432 71.54262
#
# Poissons Ratio (x) = 0.72114 0.50971
# Poissons Ratio (y) = 0.72115 0.50976
# Poissons Ratio (z) = 0.15656 0.15657
#
# Static dielectric constant tensor:
#      x y z
#    x 1.608950 0.000000 0.000000 
#    y 0.000000 1.608950 0.000000 
#    z 0.000000 0.000000 1.594030 
# 
# From -- ./inp_files/5057.got.cif
#   From: 2010.05.17/outbox.cif.g08.bks.cpg/sg115_3_cif.got.tgz:5057.got - 2010.05.20 11:07:42.
