data_PCOD9557428
_publ_section_title
;
Structure prediction by ZEFSAII (Michael W. Deem and Ramdas Pophale) SiO2 
 PCOD9557428
Probable space group: P -4 M 2
;
_chemical_formula_sum "Si O2"
_cell_formula_units_Z 32
_cell_length_a 13.471827
_cell_length_b 13.471827
_cell_length_c 9.215573
_cell_angle_alpha 90.000000
_cell_angle_beta 90.000000
_cell_angle_gamma 90.000000
_cell_volume 1672.535475
_symmetry_space_group_name_H-M "P -4 M 2"
_symmetry_group_IT_number 115
_symmetry_cell_setting 'tetragonal'
loop_
_space_group_symop_operation_xyz
x,y,z
y,-x,-z
-x,-y,z
-y,x,-z
y,x,-z
-y,-x,-z
-x,y,z
x,-y,z
loop_
_atom_site_type_symbol
_atom_site_label
_atom_site_fract_x
_atom_site_fract_y
_atom_site_fract_z
Si Si1 0.289043 0.112193 0.356522
Si Si2 0.260844 0.385788 0.114157
Si Si3 0.387057 0.691573 0.355567
Si Si4 0.744852 0.886811 0.701535
O O1 0.367734 0.195036 0.306771
O O2 0.290475 0.110239 0.532914
O O3 0.184002 0.158280 0.304179
O O4 0.304610 0.000000 0.305425
O O5 0.245305 0.500000 0.064638
O O6 0.344795 0.383548 0.238487
O O7 0.165902 0.335902 0.194028
O O8 0.308467 0.308467 0.000000
O O9 0.324019 0.675982 0.500000
O O10 0.500000 0.673803 0.388268
O O11 0.764618 0.000000 0.745597
#
# Coordination Sequence:
#
# PCOD9557428 Si02
#       4
#     8   8   8   8
#     4   9  17  33  57  87 118 144 180 233 289 345
#     4  11  23  39  56  80 115 156 200 242 288 345
#     4  11  21  35  54  81 113 146 192 246 295 345
#     4   9  18  35  58  85 114 146 187 233 283 345
#
# _framework density 19.132629999999999
#
# number of rings (size 3 to 8) (size 9 to 14) (size 15 to 20)
#    0.000    2.000    5.000    1.500    0.000    4.500 
#    0.000   10.000    0.000    6.000    0.000    0.000 
#    0.000    0.000    0.000    0.000    0.000    0.000 
#
# Total GULP energy -178200.344325 kJ/mol
# GULP energy per Si atom -5568.760760 kJ/mol
# Density = 1.908908 g / cm^3
# Si number density = 19.132630 Si / 1000 Ang^3
#
#
#
# Elastic Constant Matrix: (Units=GPa)
#
#
# Indices 1 2 3 4 5 6 
#
# 1 97.8758 15.2093 20.8401 0.0000 0.0000 0.0000
# 2 15.2093 97.8800 20.8397 0.0000 0.0000 0.0000
# 3 20.8401 20.8397 38.1752 0.0000 0.0000 0.0000
# 4 0.0000 0.0000 0.0000 5.7332 0.0000 0.0000
# 5 0.0000 0.0000 0.0000 0.0000 5.7367 0.0000
# 6 0.0000 0.0000 0.0000 0.0000 0.0000 5.2910
#
#
#
# Elastic Compliance Matrix: (Units=1/GPa)
#
#
# Indices 1 2 3 4 5 6 
#
# 1 0.011584 -0.000513 -0.006043 0.000000 0.000000 0.000000
# 2 -0.000513 0.011583 -0.006043 0.000000 0.000000 0.000000
# 3 -0.006043 -0.006043 0.032793 0.000000 0.000000 0.000000
# 4 0.000000 0.000000 0.000000 0.174424 0.000000 0.000000
# 5 0.000000 0.000000 0.000000 0.000000 0.174315 0.000000
# 6 0.000000 0.000000 0.000000 0.000000 0.000000 0.189001
#
#
# Mechanical properties :
#
#
# Convention : Reuss Voigt Hill
#
# Bulk Modulus (GPa) = 32.50934 38.63436 35.57185
# Shear Modulus (GPa) = 7.94722 15.15497 11.55110
#
# Velocity S-wave (km/s) = 2.04029 2.81748 2.45977
# Velocity P-wave (km/s) = 4.75172 5.55167 5.16720
#
# Compressibility (1/GPa) = 0.03076039
#
# Stress axis : x y z
#
# Youngs Moduli (GPa) = 86.32921 86.33386 30.49442
#
# Poissons Ratio (x) = 0.04431 0.18429
# Poissons Ratio (y) = 0.04431 0.18427
# Poissons Ratio (z) = 0.52172 0.52171
#
# Static dielectric constant tensor:
#      x y z
#    x 1.665590 0.000000 0.000000 
#    y 0.000000 1.665590 0.000000 
#    z 0.000000 0.000000 1.724120 
# 
# From -- ./inp_files/1331.got.cif
#   From: 2010.05.17/outbox.cif.g08.bks.cpg/sg115_1_cif.got.tgz:1331.got - 2010.05.20 11:07:42.
