data_PCOD9557366
_publ_section_title
;
Structure prediction by ZEFSAII (Michael W. Deem and Ramdas Pophale) SiO2 
 PCOD9557366
Probable space group: P -4 M 2
;
_chemical_formula_sum "Si O2"
_cell_formula_units_Z 34
_cell_length_a 12.408085
_cell_length_b 12.408085
_cell_length_c 10.793656
_cell_angle_alpha 90.000000
_cell_angle_beta 90.000000
_cell_angle_gamma 90.000000
_cell_volume 1661.797466
_symmetry_space_group_name_H-M "P -4 M 2"
_symmetry_group_IT_number 115
_symmetry_cell_setting 'tetragonal'
loop_
_space_group_symop_operation_xyz
x,y,z
y,-x,-z
-x,-y,z
-y,x,-z
y,x,-z
-y,-x,-z
-x,y,z
x,-y,z
loop_
_atom_site_type_symbol
_atom_site_label
_atom_site_fract_x
_atom_site_fract_y
_atom_site_fract_z
Si Si1 0.184950 0.384439 0.575973
Si Si2 0.381633 0.708862 0.695003
Si Si3 0.000000 0.000000 0.000000
Si Si4 0.372796 0.796148 0.958263
Si Si5 0.772854 0.000000 0.367919
Si Si6 0.751606 0.000000 0.076286
Si Si7 0.000000 0.000000 0.500000
O O1 0.131688 0.500000 0.599312
O O2 0.233080 0.386473 0.437833
O O3 0.280490 0.368953 0.675899
O O4 0.105237 0.285413 0.580640
O O5 0.500000 0.657278 0.715314
O O6 0.364606 0.790790 0.808389
O O7 0.000000 0.119158 0.940119
O O8 0.500000 0.801783 0.990201
O O9 0.306112 0.895330 0.016345
O O10 0.314209 0.685792 0.000000
O O11 0.742758 0.000000 0.223601
O O12 0.895907 0.000000 0.410740
#
# Coordination Sequence:
#
# PCOD9557366 Si02
#       7
#     8   8   1   8   4   4   1
#     4  10  21  39  64  94 125 160 205 259 317 374
#     4   9  20  39  61  91 127 166 209 252 308 374
#     4  12  26  48  68  90 120 170 212 264 306 372
#     4  11  24  42  65  94 131 174 217 264 318 383
#     4  12  26  42  64  94 123 160 203 261 318 376
#     4  12  26  46  66  94 129 169 220 264 319 379
#     4  12  26  48  68  90 124 162 208 262 324 376
#
# _framework density 20.459773999999999
#
# number of rings (size 3 to 8) (size 9 to 14) (size 15 to 20)
#    0.000    1.412    1.176    3.882    0.000    6.353 
#    4.235    8.235    0.000    0.000    0.000    0.000 
#    0.000    0.000    0.000    0.000    0.000    0.000 
#
# Total GULP energy -189647.260904 kJ/mol
# GULP energy per Si atom -5577.860615 kJ/mol
# Density = 2.041321 g / cm^3
# Si number density = 20.459774 Si / 1000 Ang^3
#
#
#
# Elastic Constant Matrix: (Units=GPa)
#
#
# Indices 1 2 3 4 5 6 
#
# 1 114.2557 67.8841 26.0536 0.0000 0.0000 0.0000
# 2 67.8841 114.2582 26.0526 0.0000 0.0000 0.0000
# 3 26.0536 26.0526 78.5309 0.0000 0.0000 0.0000
# 4 0.0000 0.0000 0.0000 34.0998 0.0000 0.0000
# 5 0.0000 0.0000 0.0000 0.0000 34.1096 0.0000
# 6 0.0000 0.0000 0.0000 0.0000 0.0000 79.4553
#
#
#
# Elastic Compliance Matrix: (Units=1/GPa)
#
#
# Indices 1 2 3 4 5 6 
#
# 1 0.013815 -0.007749 -0.002013 0.000000 0.000000 0.000000
# 2 -0.007749 0.013815 -0.002012 0.000000 0.000000 0.000000
# 3 -0.002013 -0.002012 0.014069 0.000000 0.000000 0.000000
# 4 0.000000 0.000000 0.000000 0.029326 0.000000 0.000000
# 5 0.000000 0.000000 0.000000 0.000000 0.029317 0.000000
# 6 0.000000 0.000000 0.000000 0.000000 0.000000 0.012586
#
#
# Mechanical properties :
#
#
# Convention : Reuss Voigt Hill
#
# Bulk Modulus (GPa) = 55.09234 60.78060 57.93647
# Shear Modulus (GPa) = 35.08118 42.00324 38.54221
#
# Velocity S-wave (km/s) = 4.14532 4.53588 4.34499
# Velocity P-wave (km/s) = 7.06379 7.56334 7.31783
#
# Compressibility (1/GPa) = 0.01815134
#
# Stress axis : x y z
#
# Youngs Moduli (GPa) = 72.38322 72.38539 71.07777
#
# Poissons Ratio (x) = 0.56093 0.14305
# Poissons Ratio (y) = 0.56091 0.14302
# Poissons Ratio (z) = 0.14568 0.14565
#
# Static dielectric constant tensor:
#      x y z
#    x 1.657840 0.000000 0.000000 
#    y 0.000000 1.657900 0.000000 
#    z 0.000000 0.000000 1.779330 
# 
# From -- ./inp_files/2679.got.cif
#   From: 2010.05.17/outbox.cif.g08.bks.cpg/sg115_2_cif.got.tgz:2679.got - 2010.05.20 11:07:42.
