data_PCOD9557732
_publ_section_title
;
Structure prediction by ZEFSAII (Michael W. Deem and Ramdas Pophale) SiO2 
 PCOD9557732
Probable space group: P -4 C 2
;
_chemical_formula_sum "Si O2"
_cell_formula_units_Z 40
_cell_length_a 14.208800
_cell_length_b 14.208800
_cell_length_c 9.273912
_cell_angle_alpha 90.000000
_cell_angle_beta 90.000000
_cell_angle_gamma 90.000000
_cell_volume 1872.310070
_symmetry_space_group_name_H-M "P -4 C 2"
_symmetry_group_IT_number 116
_symmetry_cell_setting 'tetragonal'
loop_
_space_group_symop_operation_xyz
x,y,z
y,-x,-z
-x,-y,z
-y,x,-z
y,x,1/2-z
-y,-x,1/2-z
-x,y,1/2+z
x,-y,1/2+z
loop_
_atom_site_type_symbol
_atom_site_label
_atom_site_fract_x
_atom_site_fract_y
_atom_site_fract_z
Si Si1 0.055333 0.595888 0.391406
Si Si2 0.495364 0.774405 0.452951
Si Si3 0.681222 0.892775 0.914792
Si Si4 0.503597 0.350591 0.204963
Si Si5 0.920891 0.890914 0.581523
O O1 0.145009 0.562866 0.485157
O O2 0.084720 0.653967 0.250729
O O3 0.000000 0.500000 0.345761
O O4 0.983698 0.653999 0.490469
O O5 0.389006 0.811225 0.464946
O O6 0.512906 0.747544 0.287845
O O7 0.505971 0.677448 0.539171
O O8 0.790669 0.870687 0.930057
O O9 0.422735 0.422735 0.250000
O O10 0.601409 0.398592 0.250000
O O11 0.919912 0.919912 0.750000
O O12 0.026832 0.879440 0.519052
#
# Coordination Sequence:
#
# PCOD9557732 Si02
#       5
#     8   8   8   8   8
#     4  10  21  39  65  95 135 172 212 271 346 386
#     4  11  22  42  67  98 132 174 220 271 328 381
#     4  11  23  41  67  97 129 170 223 273 324 396
#     4  11  24  44  65  92 134 180 217 261 326 388
#     4  11  24  46  69  94 134 179 217 269 343 402
#
# _framework density 21.363985
#
# number of rings (size 3 to 8) (size 9 to 14) (size 15 to 20)
#    0.000    1.200    2.000    5.400    2.800    2.400 
#   10.800    0.000    0.000    0.000    0.000    0.000 
#    0.000    0.000    0.000    0.000    0.000    0.000 
#
# Total GULP energy -223666.495532 kJ/mol
# GULP energy per Si atom -5591.662388 kJ/mol
# Density = 2.131536 g / cm^3
# Si number density = 21.363985 Si / 1000 Ang^3
#
#
#
# Elastic Constant Matrix: (Units=GPa)
#
#
# Indices 1 2 3 4 5 6 
#
# 1 75.1098 -1.2207 14.1342 0.0000 0.0000 0.0000
# 2 -1.2207 75.1104 14.1340 0.0000 0.0000 0.0000
# 3 14.1342 14.1340 90.5448 0.0000 0.0000 0.0000
# 4 0.0000 0.0000 0.0000 23.5656 0.0000 0.0000
# 5 0.0000 0.0000 0.0000 0.0000 23.5662 0.0000
# 6 0.0000 0.0000 0.0000 0.0000 0.0000 12.3607
#
#
#
# Elastic Compliance Matrix: (Units=1/GPa)
#
#
# Indices 1 2 3 4 5 6 
#
# 1 0.013747 0.000646 -0.002247 0.000000 0.000000 0.000000
# 2 0.000646 0.013747 -0.002247 0.000000 0.000000 0.000000
# 3 -0.002247 -0.002247 0.011746 0.000000 0.000000 0.000000
# 4 0.000000 0.000000 0.000000 0.042435 0.000000 0.000000
# 5 0.000000 0.000000 0.000000 0.000000 0.042434 0.000000
# 6 0.000000 0.000000 0.000000 0.000000 0.000000 0.080901
#
#
# Mechanical properties :
#
#
# Convention : Reuss Voigt Hill
#
# Bulk Modulus (GPa) = 31.70061 32.76221 32.23141
# Shear Modulus (GPa) = 22.39948 26.14634 24.27291
#
# Velocity S-wave (km/s) = 3.24152 3.50215 3.37435
# Velocity P-wave (km/s) = 5.37406 5.63223 5.50466
#
# Compressibility (1/GPa) = 0.03154513
#
# Stress axis : x y z
#
# Youngs Moduli (GPa) = 72.74230 72.74293 85.13744
#
# Poissons Ratio (x) = -0.04701 0.19129
# Poissons Ratio (y) = -0.04701 0.19129
# Poissons Ratio (z) = 0.16344 0.16344
#
# Static dielectric constant tensor:
#      x y z
#    x 1.758900 0.000000 0.000000 
#    y 0.000000 1.758900 0.000000 
#    z 0.000000 0.000000 1.727680 
# 
# From -- ./inp_files/813.got.cif
#   From: 2010.05.17/outbox.cif.g08.bks.cpg/sg116_1_cif.got.tgz:813.got - 2010.05.20 11:11:43.
