data_PCOD9557382
_publ_section_title
;
Structure prediction by ZEFSAII (Michael W. Deem and Ramdas Pophale) SiO2 
 PCOD9557382
Probable space group: P -4 M 2
;
_chemical_formula_sum "Si O2"
_cell_formula_units_Z 48
_cell_length_a 21.411634
_cell_length_b 21.411634
_cell_length_c 5.191652
_cell_angle_alpha 90.000000
_cell_angle_beta 90.000000
_cell_angle_gamma 90.000000
_cell_volume 2380.154759
_symmetry_space_group_name_H-M "P -4 M 2"
_symmetry_group_IT_number 115
_symmetry_cell_setting 'tetragonal'
loop_
_space_group_symop_operation_xyz
x,y,z
y,-x,-z
-x,-y,z
-y,x,-z
y,x,-z
-y,-x,-z
-x,y,z
x,-y,z
loop_
_atom_site_type_symbol
_atom_site_label
_atom_site_fract_x
_atom_site_fract_y
_atom_site_fract_z
Si Si1 0.253009 0.500000 0.100862
Si Si2 0.629554 0.874404 0.214693
Si Si3 0.239188 0.866723 0.534288
Si Si4 0.625481 0.318370 0.736826
Si Si5 0.669247 0.000000 0.969616
Si Si6 0.000000 0.246550 0.534339
Si Si7 0.168991 0.500000 0.592145
Si Si8 0.211280 0.693016 0.121632
O O1 0.296457 0.441868 0.177960
O O2 0.196522 0.500000 0.306171
O O3 0.224416 0.500000 0.811212
O O4 0.696164 0.869700 0.367730
O O5 0.564698 0.869182 0.367078
O O6 0.631445 0.937398 0.044483
O O7 0.635263 0.811992 0.044139
O O8 0.189418 0.810583 0.500000
O O9 0.269613 0.850854 0.807478
O O10 0.210956 0.935219 0.511099
O O11 0.634806 0.365195 0.500000
O O12 0.662531 0.254261 0.658571
O O13 0.655970 0.344030 0.000000
O O14 0.726087 0.000000 0.177249
O O15 0.696873 0.000000 0.679684
O O16 0.255258 0.744743 0.000000
#
# Coordination Sequence:
#
# PCOD9557382 Si02
#       8
#     4   8   8   8   4   4   4   8
#     4  12  24  42  62  88 120 158 192 243 309 366
#     4  11  23  39  57  88 121 163 204 252 302 361
#     4  11  21  36  61  89 122 158 206 261 312 366
#     4  11  24  39  60  89 121 151 192 249 305 367
#     4  10  22  39  60  80 122 163 205 249 290 359
#     4  10  22  38  58  88 122 158 201 255 312 368
#     4  12  26  39  60  88 124 165 204 245 299 364
#     4  11  20  32  59  89 117 148 199 251 308 352
#
# _framework density 20.166758000000002
#
# number of rings (size 3 to 8) (size 9 to 14) (size 15 to 20)
#    0.000    1.000    5.000    2.500    4.667    0.333 
#    0.000    0.000    0.000    3.750    0.000    0.000 
#    0.000    1.667    0.000    0.000    0.000    0.417 
#
# Total GULP energy -267355.687261 kJ/mol
# GULP energy per Si atom -5569.910151 kJ/mol
# Density = 2.012086 g / cm^3
# Si number density = 20.166758 Si / 1000 Ang^3
#
#
#
# Elastic Constant Matrix: (Units=GPa)
#
#
# Indices 1 2 3 4 5 6 
#
# 1 83.9744 43.3969 5.4095 0.0000 0.0000 0.0000
# 2 43.3969 83.9762 5.4097 0.0000 0.0000 0.0000
# 3 5.4095 5.4097 58.9351 0.0000 0.0000 0.0000
# 4 0.0000 0.0000 0.0000 22.1022 0.0000 0.0000
# 5 0.0000 0.0000 0.0000 0.0000 22.1023 0.0000
# 6 0.0000 0.0000 0.0000 0.0000 0.0000 23.6732
#
#
#
# Elastic Compliance Matrix: (Units=1/GPa)
#
#
# Indices 1 2 3 4 5 6 
#
# 1 0.016278 -0.008365 -0.000726 0.000000 0.000000 0.000000
# 2 -0.008365 0.016278 -0.000726 0.000000 0.000000 0.000000
# 3 -0.000726 -0.000726 0.017101 0.000000 0.000000 0.000000
# 4 0.000000 0.000000 0.000000 0.045244 0.000000 0.000000
# 5 0.000000 0.000000 0.000000 0.000000 0.045244 0.000000
# 6 0.000000 0.000000 0.000000 0.000000 0.000000 0.042242
#
#
# Mechanical properties :
#
#
# Convention : Reuss Voigt Hill
#
# Bulk Modulus (GPa) = 33.30963 37.25756 35.28360
# Shear Modulus (GPa) = 23.58144 25.08685 24.33415
#
# Velocity S-wave (km/s) = 3.42325 3.53082 3.47745
# Velocity P-wave (km/s) = 5.67255 5.92766 5.80150
#
# Compressibility (1/GPa) = 0.03002135
#
# Stress axis : x y z
#
# Youngs Moduli (GPa) = 61.43134 61.43263 58.47557
#
# Poissons Ratio (x) = 0.51391 0.04247
# Poissons Ratio (y) = 0.51390 0.04247
# Poissons Ratio (z) = 0.04462 0.04462
#
# Static dielectric constant tensor:
#      x y z
#    x 1.767710 0.000000 0.000000 
#    y 0.000000 1.767720 0.000000 
#    z 0.000000 0.000000 1.813470 
# 
# From -- ./inp_files/673.got.cif
#   From: 2010.05.17/outbox.cif.g08.bks.cpg/sg115_1_cif.got.tgz:673.got - 2010.05.20 11:07:42.
