data_PCOD9557403
_publ_section_title
;
Structure prediction by ZEFSAII (Michael W. Deem and Ramdas Pophale) SiO2 
 PCOD9557403
Probable space group: P -4 M 2
;
_chemical_formula_sum "Si O2"
_cell_formula_units_Z 34
_cell_length_a 7.657688
_cell_length_b 7.657688
_cell_length_c 28.726930
_cell_angle_alpha 90.000000
_cell_angle_beta 90.000000
_cell_angle_gamma 90.000000
_cell_volume 1684.552504
_symmetry_space_group_name_H-M "P -4 M 2"
_symmetry_group_IT_number 115
_symmetry_cell_setting 'tetragonal'
loop_
_space_group_symop_operation_xyz
x,y,z
y,-x,-z
-x,-y,z
-y,x,-z
y,x,-z
-y,-x,-z
-x,y,z
x,-y,z
loop_
_atom_site_type_symbol
_atom_site_label
_atom_site_fract_x
_atom_site_fract_y
_atom_site_fract_z
Si Si1 0.500000 0.500000 0.500000
Si Si2 0.212361 0.191165 0.852406
Si Si3 0.500000 0.787763 0.578402
Si Si4 0.201199 0.706939 0.752337
Si Si5 0.800347 0.209254 0.650312
Si Si6 0.500000 0.500000 0.000000
Si Si7 0.211889 0.500000 0.921775
O O1 0.500000 0.672208 0.532295
O O2 0.279214 0.217459 0.799689
O O3 0.260941 0.335823 0.889422
O O4 0.000000 0.202826 0.848661
O O5 0.260447 0.000000 0.869003
O O6 0.330421 0.739393 0.609416
O O7 0.500000 0.000000 0.571043
O O8 0.197228 0.500000 0.759345
O O9 0.274500 0.743476 0.701293
O O10 0.000000 0.772393 0.749041
O O11 0.000000 0.278111 0.645877
O O12 0.809929 0.000000 0.648988
O O13 0.327838 0.500000 0.967716
O O14 0.000000 0.500000 0.929649
#
# Coordination Sequence:
#
# PCOD9557403 Si02
#       7
#     1   8   4   8   8   1   4
#     4  12  28  44  64  86 104 144 192 244 312 354
#     4   9  16  30  56  87 120 156 191 230 277 335
#     4  10  24  44  61  85 116 144 190 246 293 348
#     4   9  15  25  48  86 125 159 193 225 265 326
#     4   9  18  34  57  85 118 155 191 229 277 335
#     4  12  28  44  64  86 108 144 188 252 312 346
#     4  10  22  42  61  83 113 144 189 242 293 348
#
# _framework density 20.183402999999998
#
# number of rings (size 3 to 8) (size 9 to 14) (size 15 to 20)
#    0.000    2.588    1.176    0.706    1.647    4.706 
#    0.000    1.176    0.000    0.000    0.000    0.000 
#    0.000    0.000    0.000    0.000    0.000    0.000 
#
# Total GULP energy -189684.436037 kJ/mol
# GULP energy per Si atom -5578.954001 kJ/mol
# Density = 2.013746 g / cm^3
# Si number density = 20.183403 Si / 1000 Ang^3
#
#
#
# Elastic Constant Matrix: (Units=GPa)
#
#
# Indices 1 2 3 4 5 6 
#
# 1 91.9633 31.3509 68.0887 0.0000 0.0000 0.0000
# 2 31.3509 91.9633 68.0887 0.0000 0.0000 0.0000
# 3 68.0887 68.0887 173.3392 0.0000 0.0000 0.0000
# 4 0.0000 0.0000 0.0000 69.1588 0.0000 0.0000
# 5 0.0000 0.0000 0.0000 0.0000 69.1588 0.0000
# 6 0.0000 0.0000 0.0000 0.0000 0.0000 5.4445
#
#
#
# Elastic Compliance Matrix: (Units=1/GPa)
#
#
# Indices 1 2 3 4 5 6 
#
# 1 0.015410 -0.001088 -0.005626 0.000000 0.000000 0.000000
# 2 -0.001088 0.015410 -0.005626 0.000000 0.000000 0.000000
# 3 -0.005626 -0.005626 0.010189 0.000000 0.000000 0.000000
# 4 0.000000 0.000000 0.000000 0.014459 0.000000 0.000000
# 5 0.000000 0.000000 0.000000 0.000000 0.014459 0.000000
# 6 0.000000 0.000000 0.000000 0.000000 0.000000 0.183670
#
#
# Mechanical properties :
#
#
# Convention : Reuss Voigt Hill
#
# Bulk Modulus (GPa) = 61.23849 76.92472 69.08160
# Shear Modulus (GPa) = 17.62298 41.40157 29.51227
#
# Velocity S-wave (km/s) = 2.95810 4.53401 3.82803
# Velocity P-wave (km/s) = 6.48645 8.09970 7.33755
#
# Compressibility (1/GPa) = 0.01632960
#
# Stress axis : x y z
#
# Youngs Moduli (GPa) = 64.89241 64.89241 98.14792
#
# Poissons Ratio (x) = 0.07061 0.55216
# Poissons Ratio (y) = 0.07061 0.55216
# Poissons Ratio (z) = 0.36507 0.36507
#
# Static dielectric constant tensor:
#      x y z
#    x 1.736920 0.000000 0.000000 
#    y 0.000000 1.736920 0.000000 
#    z 0.000000 0.000000 1.687730 
# 
# From -- ./inp_files/4754.got.cif
#   From: 2010.05.17/outbox.cif.g08.bks.cpg/sg115_3_cif.got.tgz:4754.got - 2010.05.20 11:07:42.
