data_PCOD9557972
_publ_section_title
;
Structure prediction by ZEFSAII (Michael W. Deem and Ramdas Pophale) SiO2 
 PCOD9557972
Probable space group: P -4 C 2
;
_chemical_formula_sum "Si O2"
_cell_formula_units_Z 40
_cell_length_a 8.393447
_cell_length_b 8.393447
_cell_length_c 23.263477
_cell_angle_alpha 90.000000
_cell_angle_beta 90.000000
_cell_angle_gamma 90.000000
_cell_volume 1638.910851
_symmetry_space_group_name_H-M "P -4 C 2"
_symmetry_group_IT_number 116
_symmetry_cell_setting 'tetragonal'
loop_
_space_group_symop_operation_xyz
x,y,z
y,-x,-z
-x,-y,z
-y,x,-z
y,x,1/2-z
-y,-x,1/2-z
-x,y,1/2+z
x,-y,1/2+z
loop_
_atom_site_type_symbol
_atom_site_label
_atom_site_fract_x
_atom_site_fract_y
_atom_site_fract_z
Si Si1 0.268682 0.297222 0.626615
Si Si2 0.630272 0.731101 0.335426
Si Si3 0.537728 0.174098 0.220101
Si Si4 0.182549 0.062204 0.417966
Si Si5 0.261936 0.619652 0.489825
O O1 0.303635 0.484964 0.622756
O O2 0.295239 0.225198 0.690510
O O3 0.371298 0.212777 0.577232
O O4 0.090139 0.275316 0.605725
O O5 0.536905 0.824801 0.284533
O O6 0.691189 0.569275 0.308984
O O7 0.779908 0.812981 0.366407
O O8 0.500000 0.000000 0.197968
O O9 0.276418 0.137054 0.472455
O O10 0.000000 0.000000 0.426529
O O11 0.433406 0.708256 0.497335
#
# Coordination Sequence:
#
# PCOD9557972 Si02
#       5
#     8   8   8   8   8
#     4  12  25  43  72 108 150 205 262 336 406 495
#     4  11  24  47  75 106 155 207 273 330 414 505
#     4  11  24  45  74 111 150 205 270 341 411 489
#     4  12  27  48  74 114 163 209 266 343 426 492
#     4  11  26  47  75 106 149 208 276 337 405 498
#
# _framework density 24.406454
#
# number of rings (size 3 to 8) (size 9 to 14) (size 15 to 20)
#    0.000    0.600    2.000    5.400    5.600    1.600 
#    0.000    6.000    0.000    0.000    0.000    0.000 
#    0.000    0.000    0.000    0.000    0.000    0.000 
#
# Total GULP energy -223183.989250 kJ/mol
# GULP energy per Si atom -5579.599731 kJ/mol
# Density = 2.435090 g / cm^3
# Si number density = 24.406454 Si / 1000 Ang^3
#
#
#
# Elastic Constant Matrix: (Units=GPa)
#
#
# Indices 1 2 3 4 5 6 
#
# 1 114.8680 23.4941 29.0428 0.0000 0.0000 0.0000
# 2 23.4941 114.8680 29.0428 0.0000 0.0000 0.0000
# 3 29.0428 29.0428 156.4669 0.0000 0.0000 0.0000
# 4 0.0000 0.0000 0.0000 26.1650 0.0000 0.0000
# 5 0.0000 0.0000 0.0000 0.0000 26.1650 0.0000
# 6 0.0000 0.0000 0.0000 0.0000 0.0000 44.2815
#
#
#
# Elastic Compliance Matrix: (Units=1/GPa)
#
#
# Indices 1 2 3 4 5 6 
#
# 1 0.009391 -0.001553 -0.001455 0.000000 0.000000 0.000000
# 2 -0.001553 0.009391 -0.001455 0.000000 0.000000 0.000000
# 3 -0.001455 -0.001455 0.006931 0.000000 0.000000 0.000000
# 4 0.000000 0.000000 0.000000 0.038219 0.000000 0.000000
# 5 0.000000 0.000000 0.000000 0.000000 0.038219 0.000000
# 6 0.000000 0.000000 0.000000 0.000000 0.000000 0.022583
#
#
# Mechanical properties :
#
#
# Convention : Reuss Voigt Hill
#
# Bulk Modulus (GPa) = 59.56625 61.04026 60.30326
# Shear Modulus (GPa) = 35.90516 39.63050 37.76783
#
# Velocity S-wave (km/s) = 3.83970 4.03398 3.93803
# Velocity P-wave (km/s) = 6.64203 6.83824 6.74085
#
# Compressibility (1/GPa) = 0.01678803
#
# Stress axis : x y z
#
# Youngs Moduli (GPa) = 106.48359 106.48359 144.27440
#
# Poissons Ratio (x) = 0.16536 0.20990
# Poissons Ratio (y) = 0.16536 0.20990
# Poissons Ratio (z) = 0.15492 0.15492
#
# Static dielectric constant tensor:
#      x y z
#    x 1.951550 0.000000 0.000000 
#    y 0.000000 1.951550 0.000000 
#    z 0.000000 0.000000 2.175170 
# 
# From -- ./inp_files/4423.got.cif
#   From: 2010.05.17/outbox.cif.g08.bks.cpg/sg116_3_cif.got.tgz:4423.got - 2010.05.20 11:11:43.
