data_PCOD9557345
_publ_section_title
;
Structure prediction by ZEFSAII (Michael W. Deem and Ramdas Pophale) SiO2 
 PCOD9557345
Probable space group: P -4 M 2
;
_chemical_formula_sum "Si O2"
_cell_formula_units_Z 34
_cell_length_a 12.151020
_cell_length_b 12.151020
_cell_length_c 10.903175
_cell_angle_alpha 90.000000
_cell_angle_beta 90.000000
_cell_angle_gamma 90.000000
_cell_volume 1609.824209
_symmetry_space_group_name_H-M "P -4 M 2"
_symmetry_group_IT_number 115
_symmetry_cell_setting 'tetragonal'
loop_
_space_group_symop_operation_xyz
x,y,z
y,-x,-z
-x,-y,z
-y,x,-z
y,x,-z
-y,-x,-z
-x,y,z
x,-y,z
loop_
_atom_site_type_symbol
_atom_site_label
_atom_site_fract_x
_atom_site_fract_y
_atom_site_fract_z
Si Si1 0.129307 0.684618 0.285832
Si Si2 0.730509 0.500000 0.416126
Si Si3 0.500000 0.735585 0.298170
Si Si4 0.500000 0.500000 0.727188
Si Si5 0.802133 0.628418 0.009937
Si Si6 0.284535 0.125180 0.236293
O O1 0.198112 0.606095 0.376309
O O2 0.180152 0.806752 0.283458
O O3 0.000000 0.680494 0.311513
O O4 0.153513 0.641512 0.147563
O O5 0.703941 0.500000 0.558923
O O6 0.616463 0.500000 0.343295
O O7 0.500000 0.623479 0.218348
O O8 0.608237 0.807307 0.277742
O O9 0.808351 0.500000 0.977868
O O10 0.868989 0.701621 0.911707
O O11 0.680147 0.680147 0.000000
O O12 0.286011 0.000000 0.277603
#
# Coordination Sequence:
#
# PCOD9557345 Si02
#       6
#     8   4   4   2   8   8
#     4  11  24  41  63  91 124 165 210 256 307 367
#     4  12  24  41  65  94 126 161 203 253 314 378
#     4  12  24  41  65  94 126 161 203 253 314 378
#     4  12  25  44  68  93 130 165 196 252 317 382
#     4  10  21  38  58  90 126 164 203 250 313 373
#     4  11  24  41  63  91 124 165 210 256 307 367
#
# _framework density 21.120317
#
# number of rings (size 3 to 8) (size 9 to 14) (size 15 to 20)
#    0.000    0.941    4.706    2.471    0.000    3.529 
#    0.000    0.000    0.000    4.235    0.000    3.294 
#    0.000    0.000    0.000    0.000    0.000    0.000 
#
# Total GULP energy -190068.974896 kJ/mol
# GULP energy per Si atom -5590.263968 kJ/mol
# Density = 2.107225 g / cm^3
# Si number density = 21.120317 Si / 1000 Ang^3
#
#
#
# Elastic Constant Matrix: (Units=GPa)
#
#
# Indices 1 2 3 4 5 6 
#
# 1 154.3835 49.6947 2.1328 0.0000 0.0000 0.0000
# 2 49.6947 154.3835 2.1328 0.0000 0.0000 0.0000
# 3 2.1328 2.1328 12.9124 0.0000 0.0000 0.0000
# 4 0.0000 0.0000 0.0000 13.8682 0.0000 0.0000
# 5 0.0000 0.0000 0.0000 0.0000 13.8682 0.0000
# 6 0.0000 0.0000 0.0000 0.0000 0.0000 11.3319
#
#
#
# Elastic Compliance Matrix: (Units=1/GPa)
#
#
# Indices 1 2 3 4 5 6 
#
# 1 0.007235 -0.002318 -0.000812 0.000000 0.000000 0.000000
# 2 -0.002318 0.007235 -0.000812 0.000000 0.000000 0.000000
# 3 -0.000812 -0.000812 0.077713 0.000000 0.000000 0.000000
# 4 0.000000 0.000000 0.000000 0.072108 0.000000 0.000000
# 5 0.000000 0.000000 0.000000 0.000000 0.072108 0.000000
# 6 0.000000 0.000000 0.000000 0.000000 0.000000 0.088246
#
#
# Mechanical properties :
#
#
# Convention : Reuss Voigt Hill
#
# Bulk Modulus (GPa) = 11.86262 47.73335 29.79798
# Shear Modulus (GPa) = 13.86474 25.66159 19.76317
#
# Velocity S-wave (km/s) = 2.56494 3.48949 3.06231
# Velocity P-wave (km/s) = 3.79483 6.23580 5.16168
#
# Compressibility (1/GPa) = 0.08429841
#
# Stress axis : x y z
#
# Youngs Moduli (GPa) = 138.22490 138.22490 12.86785
#
# Poissons Ratio (x) = 0.32034 0.01045
# Poissons Ratio (y) = 0.32034 0.01045
# Poissons Ratio (z) = 0.11226 0.11226
#
# Static dielectric constant tensor:
#      x y z
#    x 1.746860 0.000000 0.000000 
#    y 0.000000 1.746860 0.000000 
#    z 0.000000 0.000000 1.808300 
# 
# From -- ./inp_files/2669.got.cif
#   From: 2010.05.17/outbox.cif.g08.bks.cpg/sg115_2_cif.got.tgz:2669.got - 2010.05.20 11:07:42.
