data_PCOD9557481
_publ_section_title
;
Structure prediction by ZEFSAII (Michael W. Deem and Ramdas Pophale) SiO2 
 PCOD9557481
Probable space group: P -4 M 2
;
_chemical_formula_sum "Si O2"
_cell_formula_units_Z 40
_cell_length_a 9.000000
_cell_length_b 9.000000
_cell_length_c 27.000000
_cell_angle_alpha 90.000000
_cell_angle_beta 90.000000
_cell_angle_gamma 90.000000
_cell_volume 2187.000000
_symmetry_space_group_name_H-M "P -4 M 2"
_symmetry_group_IT_number 115
_symmetry_cell_setting 'tetragonal'
loop_
_space_group_symop_operation_xyz
x,y,z
y,-x,-z
-x,-y,z
-y,x,-z
y,x,-z
-y,-x,-z
-x,y,z
x,-y,z
loop_
_atom_site_type_symbol
_atom_site_label
_atom_site_fract_x
_atom_site_fract_y
_atom_site_fract_z
Si Si1 0.179118 0.671608 0.546905
Si Si2 0.676588 0.824811 0.047657
Si Si3 0.181090 0.172012 0.243858
Si Si4 0.326087 0.178782 0.857456
Si Si5 0.818788 0.828005 0.647577
O O1 0.241659 0.758342 0.500000
O O2 0.221554 0.500000 0.543531
O O3 0.230056 0.738618 0.599448
O O4 0.000000 0.682020 0.546128
O O5 0.500000 0.802316 0.048370
O O6 0.746867 0.761170 0.097743
O O7 0.706946 0.000000 0.044152
O O8 0.744834 0.744834 0.000000
O O9 0.227113 0.264886 0.196153
O O10 0.229497 0.227847 0.298153
O O11 0.000000 0.173423 0.245681
O O12 0.226364 0.000000 0.237602
O O13 0.500000 0.212150 0.861754
O O14 0.307470 0.000000 0.860619
O O15 0.000000 0.825947 0.648892
O O16 0.773614 0.000000 0.642194
#
# Coordination Sequence:
#
# PCOD9557481 Si02
#       5
#     8   8   8   8   8
#     4  10  20  33  50  73 100 132 170 211 258 310
#     4  11  24  40  58  81 107 137 175 216 259 307
#     4   8  14  27  49  75 102 134 172 213 255 297
#     4  10  20  34  54  81 111 142 175 210 251 301
#     4   8  14  27  49  74  98 128 169 215 258 299
#
# _framework density 18.289895000000001
#
# number of rings (size 3 to 8) (size 9 to 14) (size 15 to 20)
#    0.000    2.600    0.000    3.600    0.000    6.400 
#    0.000    2.000    0.000    7.200    0.000    0.000 
#    0.000    0.000    0.000    0.000    0.000    0.000 
#
# Total GULP energy -223097.492859 kJ/mol
# GULP energy per Si atom -5577.437321 kJ/mol
# Density = 1.824827 g / cm^3
# Si number density = 18.289895 Si / 1000 Ang^3
#
#
#
# Elastic Constant Matrix: (Units=GPa)
#
#
# Indices 1 2 3 4 5 6 
#
# 1 24.9849 37.0196 36.3269 0.0000 0.0000 0.0000
# 2 37.0196 24.9810 36.3247 0.0000 0.0000 0.0000
# 3 36.3269 36.3247 155.1922 0.0000 0.0000 0.0000
# 4 0.0000 0.0000 0.0000 -28.4077 0.0000 0.0000
# 5 0.0000 0.0000 0.0000 0.0000 -28.4093 0.0000
# 6 0.0000 0.0000 0.0000 0.0000 0.0000 15.3690
#
#
#
# Elastic Compliance Matrix: (Units=1/GPa)
#
#
# Indices 1 2 3 4 5 6 
#
# 1 -0.030425 0.052651 -0.005202 0.000000 0.000000 0.000000
# 2 0.052651 -0.030430 -0.005202 0.000000 0.000000 0.000000
# 3 -0.005202 -0.005202 0.008879 0.000000 0.000000 0.000000
# 4 0.000000 0.000000 0.000000 -0.035202 0.000000 0.000000
# 5 0.000000 0.000000 0.000000 0.000000 -0.035200 0.000000
# 6 0.000000 0.000000 0.000000 0.000000 0.000000 0.065066
#
#
# Mechanical properties :
#
#
# Convention : Reuss Voigt Hill
#
# Bulk Modulus (GPa) = 30.75157 47.16673 38.95915
# Shear Modulus (GPa) = -38.17722 -1.92380 -20.05051
#
# Velocity S-wave (km/s) = -4.57370 -1.02670 -3.31458
# Velocity P-wave (km/s) = 3.32290 4.94357 2.58817
#
# Compressibility (1/GPa) = 0.03251866
#
# Stress axis : x y z
#
# Youngs Moduli (GPa) = -32.86756 -32.86189 112.62729
#
# Poissons Ratio (x) = 1.73023 0.58588
# Poissons Ratio (y) = 1.73053 0.58587
# Poissons Ratio (z) = -0.17097 -0.17094
#
# Static dielectric constant tensor:
#      x y z
#    x 1.613040 0.000000 0.000000 
#    y 0.000000 1.613040 0.000000 
#    z 0.000000 0.000000 1.621380 
# 
# From -- ./inp_files/5424.got.cif
#   From: 2010.05.17/outbox.ucp.g08.bks.cvg/sg115_3_cif.got.tgz:5424.got - 2010.06.11 11:33:38.
