data_PCOD9557248
_publ_section_title
;
Structure prediction by ZEFSAII (Michael W. Deem and Ramdas Pophale) SiO2 
 PCOD9557248
Probable space group: P -4 M 2
;
_chemical_formula_sum "Si O2"
_cell_formula_units_Z 37
_cell_length_a 8.593472
_cell_length_b 8.593472
_cell_length_c 27.163061
_cell_angle_alpha 90.000000
_cell_angle_beta 90.000000
_cell_angle_gamma 90.000000
_cell_volume 2005.931237
_symmetry_space_group_name_H-M "P -4 M 2"
_symmetry_group_IT_number 115
_symmetry_cell_setting 'tetragonal'
loop_
_space_group_symop_operation_xyz
x,y,z
y,-x,-z
-x,-y,z
-y,x,-z
y,x,-z
-y,-x,-z
-x,y,z
x,-y,z
loop_
_atom_site_type_symbol
_atom_site_label
_atom_site_fract_x
_atom_site_fract_y
_atom_site_fract_z
Si Si1 0.679170 0.813654 0.141973
Si Si2 0.814602 0.323577 0.549642
Si Si3 0.000000 0.178740 0.095392
Si Si4 0.679678 0.685060 0.750989
Si Si5 0.679284 0.185152 0.648784
Si Si6 0.000000 0.000000 0.000000
O O1 0.500000 0.755554 0.131073
O O2 0.712644 0.772985 0.198950
O O3 0.832598 0.753744 0.112370
O O4 0.672306 0.000000 0.134824
O O5 0.756039 0.243961 0.500000
O O6 0.755517 0.500000 0.550193
O O7 0.761823 0.243356 0.599884
O O8 0.000000 0.324658 0.548278
O O9 0.000000 0.146810 0.036753
O O10 0.000000 0.000000 0.116292
O O11 0.500000 0.739527 0.757654
O O12 0.676348 0.500000 0.743549
O O13 0.745576 0.758457 0.701058
O O14 0.500000 0.241763 0.647191
O O15 0.678830 0.000000 0.648560
#
# Coordination Sequence:
#
# PCOD9557248 Si02
#       6
#     8   8   4   8   8   1
#     4   9  17  30  50  76 103 139 185 225 268 329
#     4  11  24  40  58  79 102 131 171 221 271 329
#     4   8  16  30  51  76 105 144 179 228 279 316
#     4   9  18  32  50  74 107 143 176 219 273 326
#     4  10  21  36  54  78 106 139 177 219 268 328
#     4   8  16  32  52  80 104 144 184 220 274 320
#
# _framework density 18.4453
#
# number of rings (size 3 to 8) (size 9 to 14) (size 15 to 20)
#    0.324    2.162    0.000    1.946    1.514    6.486 
#    0.000    2.162    0.000    2.595    0.000    0.000 
#    0.000    0.000    0.000    0.000    0.000    0.000 
#
# Total GULP energy -206004.267769 kJ/mol
# GULP energy per Si atom -5567.682913 kJ/mol
# Density = 1.840332 g / cm^3
# Si number density = 18.445300 Si / 1000 Ang^3
#
#
#
# Elastic Constant Matrix: (Units=GPa)
#
#
# Indices 1 2 3 4 5 6 
#
# 1 46.1340 22.4901 45.2847 0.0000 0.0000 0.0000
# 2 22.4901 46.1340 45.2847 0.0000 0.0000 0.0000
# 3 45.2847 45.2847 132.8015 0.0000 0.0000 0.0000
# 4 0.0000 0.0000 0.0000 22.3482 0.0000 0.0000
# 5 0.0000 0.0000 0.0000 0.0000 22.3482 0.0000
# 6 0.0000 0.0000 0.0000 0.0000 0.0000 15.8453
#
#
#
# Elastic Compliance Matrix: (Units=1/GPa)
#
#
# Indices 1 2 3 4 5 6 
#
# 1 0.034396 -0.007899 -0.009035 0.000000 0.000000 0.000000
# 2 -0.007899 0.034396 -0.009035 0.000000 0.000000 0.000000
# 3 -0.009035 -0.009035 0.013692 0.000000 0.000000 0.000000
# 4 0.000000 0.000000 0.000000 0.044746 0.000000 0.000000
# 5 0.000000 0.000000 0.000000 0.000000 0.044746 0.000000
# 6 0.000000 0.000000 0.000000 0.000000 0.000000 0.063110
#
#
# Mechanical properties :
#
#
# Convention : Reuss Voigt Hill
#
# Bulk Modulus (GPa) = 32.73911 50.13203 41.43557
# Shear Modulus (GPa) = 16.82336 19.57568 18.19952
#
# Velocity S-wave (km/s) = 3.02332 3.26127 3.14455
# Velocity P-wave (km/s) = 5.47495 6.43575 5.97470
#
# Compressibility (1/GPa) = 0.03054451
#
# Stress axis : x y z
#
# Youngs Moduli (GPa) = 29.07357 29.07357 73.03533
#
# Poissons Ratio (x) = 0.22964 0.65989
# Poissons Ratio (y) = 0.22964 0.65989
# Poissons Ratio (z) = 0.26269 0.26269
#
# Static dielectric constant tensor:
#      x y z
#    x 1.656200 0.000000 0.000000 
#    y 0.000000 1.656200 0.000000 
#    z 0.000000 0.000000 1.670530 
# 
# From -- ./inp_files/5174.got.cif
#   From: 2010.05.17/outbox.cif.g08.bks.cpg/sg115_3_cif.got.tgz:5174.got - 2010.05.20 11:07:42.
