data_PCOD9557834
_publ_section_title
;
Structure prediction by ZEFSAII (Michael W. Deem and Ramdas Pophale) SiO2 
 PCOD9557834
Probable space group: P -4 C 2
;
_chemical_formula_sum "Si O2"
_cell_formula_units_Z 24
_cell_length_a 8.655601
_cell_length_b 8.655601
_cell_length_c 14.117707
_cell_angle_alpha 90.000000
_cell_angle_beta 90.000000
_cell_angle_gamma 90.000000
_cell_volume 1057.690543
_symmetry_space_group_name_H-M "P -4 C 2"
_symmetry_group_IT_number 116
_symmetry_cell_setting 'tetragonal'
loop_
_space_group_symop_operation_xyz
x,y,z
y,-x,-z
-x,-y,z
-y,x,-z
y,x,1/2-z
-y,-x,1/2-z
-x,y,1/2+z
x,-y,1/2+z
loop_
_atom_site_type_symbol
_atom_site_label
_atom_site_fract_x
_atom_site_fract_y
_atom_site_fract_z
Si Si1 0.000000 0.500000 0.242455
Si Si2 0.528349 0.217539 0.594310
Si Si3 0.288564 0.839435 0.410461
Si Si4 0.500000 0.500000 0.000000
Si Si5 0.000000 0.000000 0.000000
O O1 0.875191 0.576584 0.313607
O O2 0.909500 0.376916 0.178891
O O3 0.598071 0.138937 0.500963
O O4 0.342524 0.243231 0.599360
O O5 0.590325 0.390378 0.572941
O O6 0.135224 0.932495 0.435073
#
# Coordination Sequence:
#
# PCOD9557834 Si02
#       5
#     4   8   8   2   2
#     4  12  22  40  68  98 132 170 218 280 344 408
#     4  10  22  45  68  93 132 175 226 280 335 407
#     4  11  24  44  67  95 134 179 224 279 344 414
#     4   8  20  44  70  92 124 174 224 276 334 396
#     4  12  24  44  66  92 136 178 216 276 354 420
#
# _framework density 22.690949
#
# number of rings (size 3 to 8) (size 9 to 14) (size 15 to 20)
#    0.000    1.333    0.000    6.000    0.000    0.000 
#    0.000   61.667    0.000    0.000    0.000    0.000 
#    0.000    0.000    0.000    0.000    0.000    0.000 
#
# Total GULP energy -133937.346496 kJ/mol
# GULP energy per Si atom -5580.722771 kJ/mol
# Density = 2.263930 g / cm^3
# Si number density = 22.690949 Si / 1000 Ang^3
#
#
#
# Elastic Constant Matrix: (Units=GPa)
#
#
# Indices 1 2 3 4 5 6 
#
# 1 102.2536 38.0334 52.0448 0.0000 0.0000 0.0000
# 2 38.0334 102.2536 52.0448 0.0000 0.0000 0.0000
# 3 52.0448 52.0448 156.5343 0.0000 0.0000 0.0000
# 4 0.0000 0.0000 0.0000 -11.7701 0.0000 0.0000
# 5 0.0000 0.0000 0.0000 0.0000 -11.7701 0.0000
# 6 0.0000 0.0000 0.0000 0.0000 0.0000 42.1135
#
#
#
# Elastic Compliance Matrix: (Units=1/GPa)
#
#
# Indices 1 2 3 4 5 6 
#
# 1 0.012517 -0.003054 -0.003146 0.000000 0.000000 0.000000
# 2 -0.003054 0.012517 -0.003146 0.000000 0.000000 0.000000
# 3 -0.003146 -0.003146 0.008480 0.000000 0.000000 0.000000
# 4 0.000000 0.000000 0.000000 -0.084961 0.000000 0.000000
# 5 0.000000 0.000000 0.000000 0.000000 -0.084961 0.000000
# 6 0.000000 0.000000 0.000000 0.000000 0.000000 0.023745
#
#
# Mechanical properties :
#
#
# Convention : Reuss Voigt Hill
#
# Bulk Modulus (GPa) = 67.47141 71.69860 69.58500
# Shear Modulus (GPa) = -56.16190 18.30921 -18.92634
#
# Velocity S-wave (km/s) = -4.98041 2.84367 -2.89120
# Velocity P-wave (km/s) = 1.80920 6.51525 4.42579
#
# Compressibility (1/GPa) = 0.01482109
#
# Stress axis : x y z
#
# Youngs Moduli (GPa) = 79.89123 79.89123 117.91826
#
# Poissons Ratio (x) = 0.24402 0.37099
# Poissons Ratio (y) = 0.24402 0.37099
# Poissons Ratio (z) = 0.25135 0.25135
#
# Static dielectric constant tensor:
#      x y z
#    x 1.952560 0.000000 0.000000 
#    y 0.000000 1.952560 0.000000 
#    z 0.000000 0.000000 1.814970 
# 
# From -- ./inp_files/2349.got.cif
#   From: 2010.05.17/outbox.cif.g08.bks.cpg/sg116_2_cif.got.tgz:2349.got - 2010.05.20 11:11:43.
