data_PCOD9557926
_publ_section_title
;
Structure prediction by ZEFSAII (Michael W. Deem and Ramdas Pophale) SiO2 
 PCOD9557926
Probable space group: P -4 C 2
;
_chemical_formula_sum "Si O2"
_cell_formula_units_Z 50
_cell_length_a 13.904047
_cell_length_b 13.904047
_cell_length_c 11.638941
_cell_angle_alpha 90.000000
_cell_angle_beta 90.000000
_cell_angle_gamma 90.000000
_cell_volume 2250.069439
_symmetry_space_group_name_H-M "P -4 C 2"
_symmetry_group_IT_number 116
_symmetry_cell_setting 'tetragonal'
loop_
_space_group_symop_operation_xyz
x,y,z
y,-x,-z
-x,-y,z
-y,x,-z
y,x,1/2-z
-y,-x,1/2-z
-x,y,1/2+z
x,-y,1/2+z
loop_
_atom_site_type_symbol
_atom_site_label
_atom_site_fract_x
_atom_site_fract_y
_atom_site_fract_z
Si Si1 0.356867 0.928732 0.794765
Si Si2 0.000000 0.000000 0.000000
Si Si3 0.727360 0.272641 0.250000
Si Si4 0.236412 0.322070 0.500480
Si Si5 0.267128 0.732872 0.750000
Si Si6 0.486557 0.885266 0.976135
Si Si7 0.082605 0.322161 0.863266
Si Si8 0.212824 0.959607 0.465866
O O1 0.288334 0.844999 0.754105
O O2 0.450134 0.876293 0.845667
O O3 0.293015 0.993751 0.881431
O O4 0.385027 0.000893 0.696116
O O5 0.020425 0.898243 0.065132
O O6 0.678324 0.291361 0.375362
O O7 0.711398 0.160624 0.226448
O O8 0.293025 0.307588 0.379085
O O9 0.176818 0.421736 0.493752
O O10 0.152676 0.239243 0.512434
O O11 0.500000 0.000000 0.984838
O O12 0.391070 0.862698 0.048214
O O13 0.022986 0.236215 0.920652
#
# Coordination Sequence:
#
# PCOD9557926 Si02
#       8
#     8   2   4   8   4   8   8   8
#     4  11  22  39  64  91 134 179 232 295 347 405
#     4  12  24  36  62  72 140 206 252 250 320 382
#     4  12  24  42  60  93 140 173 218 274 340 418
#     4  12  24  43  65  91 135 176 230 304 348 403
#     4  12  24  42  60  93 140 173 218 274 340 418
#     4  11  21  41  65  98 128 173 241 296 368 413
#     4  11  22  39  64  91 134 179 232 295 347 405
#     4  11  22  41  53  90 123 186 246 291 316 383
#
# _framework density 22.221537000000001
#
# number of rings (size 3 to 8) (size 9 to 14) (size 15 to 20)
#    0.000    0.640    6.400    3.840    0.000    4.480 
#    0.000    0.800    0.000    0.000    0.000    0.000 
#    0.000   44.800    0.000    0.000    0.000    0.000 
#
# Total GULP energy -278770.678810 kJ/mol
# GULP energy per Si atom -5575.413576 kJ/mol
# Density = 2.217096 g / cm^3
# Si number density = 22.221537 Si / 1000 Ang^3
#
#
#
# Elastic Constant Matrix: (Units=GPa)
#
#
# Indices 1 2 3 4 5 6 
#
# 1 71.1022 10.7382 17.7184 0.0000 0.0000 0.0000
# 2 10.7382 71.1018 17.7184 0.0000 0.0000 0.0000
# 3 17.7184 17.7184 123.7364 0.0000 0.0000 0.0000
# 4 0.0000 0.0000 0.0000 24.8101 0.0000 0.0000
# 5 0.0000 0.0000 0.0000 0.0000 24.8096 0.0000
# 6 0.0000 0.0000 0.0000 0.0000 0.0000 21.8835
#
#
#
# Elastic Compliance Matrix: (Units=1/GPa)
#
#
# Indices 1 2 3 4 5 6 
#
# 1 0.014796 -0.001770 -0.001865 0.000000 0.000000 0.000000
# 2 -0.001770 0.014796 -0.001865 0.000000 0.000000 0.000000
# 3 -0.001865 -0.001865 0.008616 0.000000 0.000000 0.000000
# 4 0.000000 0.000000 0.000000 0.040306 0.000000 0.000000
# 5 0.000000 0.000000 0.000000 0.000000 0.040307 0.000000
# 6 0.000000 0.000000 0.000000 0.000000 0.000000 0.045697
#
#
# Mechanical properties :
#
#
# Convention : Reuss Voigt Hill
#
# Bulk Modulus (GPa) = 36.75417 39.81004 38.28210
# Shear Modulus (GPa) = 27.08727 28.95168 28.01947
#
# Velocity S-wave (km/s) = 3.49515 3.61344 3.55479
# Velocity P-wave (km/s) = 5.73271 5.94670 5.84068
#
# Compressibility (1/GPa) = 0.02720780
#
# Stress axis : x y z
#
# Youngs Moduli (GPa) = 67.58408 67.58376 116.06437
#
# Poissons Ratio (x) = 0.11961 0.21650
# Poissons Ratio (y) = 0.11961 0.21650
# Poissons Ratio (z) = 0.12607 0.12607
#
# Static dielectric constant tensor:
#      x y z
#    x 1.809490 0.000000 0.000000 
#    y 0.000000 1.809490 0.000000 
#    z 0.000000 0.000000 2.022390 
# 
# From -- ./inp_files/1975.got.cif
#   From: 2010.05.17/outbox.cif.g08.bks.cpg/sg116_1_cif.got.tgz:1975.got - 2010.05.20 11:11:43.
