data_PCOD9557326
_publ_section_title
;
Structure prediction by ZEFSAII (Michael W. Deem and Ramdas Pophale) SiO2 
 PCOD9557326
Probable space group: P -4 M 2
;
_chemical_formula_sum "Si O2"
_cell_formula_units_Z 48
_cell_length_a 9.088621
_cell_length_b 9.088621
_cell_length_c 31.495159
_cell_angle_alpha 90.000000
_cell_angle_beta 90.000000
_cell_angle_gamma 90.000000
_cell_volume 2601.595617
_symmetry_space_group_name_H-M "P -4 M 2"
_symmetry_group_IT_number 115
_symmetry_cell_setting 'tetragonal'
loop_
_space_group_symop_operation_xyz
x,y,z
y,-x,-z
-x,-y,z
-y,x,-z
y,x,-z
-y,-x,-z
-x,y,z
x,-y,z
loop_
_atom_site_type_symbol
_atom_site_label
_atom_site_fract_x
_atom_site_fract_y
_atom_site_fract_z
Si Si1 0.325785 0.674985 0.209214
Si Si2 0.675253 0.174703 0.540541
Si Si3 0.674175 0.824055 0.378927
Si Si4 0.673993 0.824720 0.960026
Si Si5 0.175837 0.174310 0.128727
Si Si6 0.173678 0.824036 0.289647
O O1 0.500000 0.703519 0.212139
O O2 0.302534 0.500000 0.206940
O O3 0.260048 0.750556 0.167384
O O4 0.245761 0.740461 0.250386
O O5 0.752960 0.247041 0.500000
O O6 0.500000 0.197254 0.537811
O O7 0.738785 0.248680 0.582900
O O8 0.703756 0.000000 0.541242
O O9 0.500000 0.794089 0.378105
O O10 0.747140 0.785590 0.333840
O O11 0.693937 0.000000 0.385307
O O12 0.500000 0.798924 0.956132
O O13 0.754287 0.782193 0.916302
O O14 0.697668 0.000000 0.966138
O O15 0.739897 0.739897 0.000000
O O16 0.000000 0.196961 0.134410
O O17 0.203326 0.000000 0.128069
O O18 0.000000 0.792852 0.292392
O O19 0.191344 0.000000 0.283200
#
# Coordination Sequence:
#
# PCOD9557326 Si02
#       6
#     8   8   8   8   8   8
#     4  11  24  39  56  82 116 152 189 231 282 337
#     4  11  24  40  59  85 116 151 192 236 284 338
#     4  10  21  38  61  88 117 150 189 233 282 336
#     4  10  21  37  58  84 114 149 188 230 279 334
#     4  10  21  38  61  86 111 144 188 235 282 334
#     4  10  21  38  61  87 114 148 191 235 281 335
#
# _framework density 18.450216000000001
#
# number of rings (size 3 to 8) (size 9 to 14) (size 15 to 20)
#    0.000    1.667    0.000    4.000    0.000   12.000 
#    0.000    0.000    0.000    0.000    0.000    0.000 
#    0.000    0.000    0.000    0.000    0.000    0.000 
#
# Total GULP energy -268388.371931 kJ/mol
# GULP energy per Si atom -5591.424415 kJ/mol
# Density = 1.840822 g / cm^3
# Si number density = 18.450216 Si / 1000 Ang^3
#
#
#
# Elastic Constant Matrix: (Units=GPa)
#
#
# Indices 1 2 3 4 5 6 
#
# 1 106.4408 99.4286 111.1227 0.0000 0.0000 0.0000
# 2 99.4286 106.4406 111.1232 0.0000 0.0000 0.0000
# 3 111.1227 111.1232 206.4007 0.0000 0.0000 0.0000
# 4 0.0000 0.0000 0.0000 113.7775 0.0000 0.0000
# 5 0.0000 0.0000 0.0000 0.0000 113.7841 0.0000
# 6 0.0000 0.0000 0.0000 0.0000 0.0000 31.5173
#
#
#
# Elastic Compliance Matrix: (Units=1/GPa)
#
#
# Indices 1 2 3 4 5 6 
#
# 1 0.077104 -0.065506 -0.006244 0.000000 0.000000 0.000000
# 2 -0.065506 0.077105 -0.006245 0.000000 0.000000 0.000000
# 3 -0.006244 -0.006245 0.011569 0.000000 0.000000 0.000000
# 4 0.000000 0.000000 0.000000 0.008789 0.000000 0.000000
# 5 0.000000 0.000000 0.000000 0.000000 0.008789 0.000000
# 6 0.000000 0.000000 0.000000 0.000000 0.000000 0.031729
#
#
# Mechanical properties :
#
#
# Convention : Reuss Voigt Hill
#
# Bulk Modulus (GPa) = 102.16482 118.07014 110.11748
# Shear Modulus (GPa) = 13.35692 58.32296 35.83994
#
# Velocity S-wave (km/s) = 2.69354 5.62846 4.41219
# Velocity P-wave (km/s) = 8.07261 10.31370 9.26119
#
# Compressibility (1/GPa) = 0.00978811
#
# Stress axis : x y z
#
# Youngs Moduli (GPa) = 12.96948 12.96926 86.43811
#
# Poissons Ratio (x) = 0.84956 0.53973
# Poissons Ratio (y) = 0.84958 0.53982
# Poissons Ratio (z) = 0.08098 0.08100
#
# Static dielectric constant tensor:
#      x y z
#    x 1.614540 0.000000 0.000000 
#    y 0.000000 1.614540 0.000000 
#    z 0.000000 0.000000 1.589090 
# 
# From -- ./inp_files/5972.got.cif
#   From: 2010.05.17/outbox.cif.g08.bks.cpg/sg115_3_cif.got.tgz:5972.got - 2010.05.20 11:07:42.
