data_PCOD9557001
_publ_section_title
;
Structure prediction by ZEFSAII (Michael W. Deem and Ramdas Pophale) SiO2 
 PCOD9557001
Probable space group: P -4 M 2
;
_chemical_formula_sum "Si O2"
_cell_formula_units_Z 44
_cell_length_a 9.116485
_cell_length_b 9.116485
_cell_length_c 29.128351
_cell_angle_alpha 90.000000
_cell_angle_beta 90.000000
_cell_angle_gamma 90.000000
_cell_volume 2420.865954
_symmetry_space_group_name_H-M "P -4 M 2"
_symmetry_group_IT_number 115
_symmetry_cell_setting 'tetragonal'
loop_
_space_group_symop_operation_xyz
x,y,z
y,-x,-z
-x,-y,z
-y,x,-z
y,x,-z
-y,-x,-z
-x,y,z
x,-y,z
loop_
_atom_site_type_symbol
_atom_site_label
_atom_site_fract_x
_atom_site_fract_y
_atom_site_fract_z
Si Si1 0.176283 0.173577 0.913041
Si Si2 0.178474 0.331205 0.818861
Si Si3 0.673808 0.674871 0.638592
Si Si4 0.826336 0.674787 0.543045
Si Si5 0.826462 0.175614 0.275048
Si Si6 0.325619 0.325619 0.000000
O O1 0.222642 0.245054 0.864683
O O2 0.000000 0.193664 0.917876
O O3 0.205153 0.000000 0.912941
O O4 0.256232 0.251061 0.955173
O O5 0.226953 0.500000 0.820180
O O6 0.224522 0.252361 0.771938
O O7 0.000000 0.330443 0.818605
O O8 0.500000 0.700199 0.636220
O O9 0.698757 0.500000 0.644598
O O10 0.748720 0.718645 0.590598
O O11 0.744145 0.758952 0.681195
O O12 0.758914 0.758914 0.500000
O O13 0.801654 0.500000 0.536874
O O14 0.000000 0.699920 0.546429
O O15 0.000000 0.201171 0.271639
O O16 0.803232 0.000000 0.279952
O O17 0.299745 0.500000 0.998658
#
# Coordination Sequence:
#
# PCOD9557001 Si02
#       6
#     8   8   8   8   8   4
#     4  10  20  35  57  84 111 140 178 223 270 322
#     4   9  17  31  54  82 111 144 180 220 268 321
#     4  10  21  37  57  80 107 142 183 225 270 321
#     4  10  21  37  58  83 110 142 180 222 270 324
#     4  10  20  34  54  81 112 145 182 225 271 319
#     4  11  24  39  54  76 108 145 184 225 270 320
#
# _framework density 18.175315000000001
#
# number of rings (size 3 to 8) (size 9 to 14) (size 15 to 20)
#    0.000    2.091    0.000    3.273    0.000    9.091 
#    0.000    0.909    0.000    5.455    0.000    0.000 
#    0.000    0.000    0.000    0.000    0.000    0.000 
#
# Total GULP energy -245770.735135 kJ/mol
# GULP energy per Si atom -5585.698526 kJ/mol
# Density = 1.813395 g / cm^3
# Si number density = 18.175315 Si / 1000 Ang^3
#
#
#
# Elastic Constant Matrix: (Units=GPa)
#
#
# Indices 1 2 3 4 5 6 
#
# 1 83.7588 77.3792 98.1149 0.0000 0.0000 0.0000
# 2 77.3792 83.7588 98.1149 0.0000 0.0000 0.0000
# 3 98.1149 98.1149 224.2350 0.0000 0.0000 0.0000
# 4 0.0000 0.0000 0.0000 53.1287 0.0000 0.0000
# 5 0.0000 0.0000 0.0000 0.0000 53.1287 0.0000
# 6 0.0000 0.0000 0.0000 0.0000 0.0000 25.8121
#
#
#
# Elastic Compliance Matrix: (Units=1/GPa)
#
#
# Indices 1 2 3 4 5 6 
#
# 1 0.085016 -0.071732 -0.005813 0.000000 0.000000 0.000000
# 2 -0.071732 0.085016 -0.005813 0.000000 0.000000 0.000000
# 3 -0.005813 -0.005813 0.009546 0.000000 0.000000 0.000000
# 4 0.000000 0.000000 0.000000 0.018822 0.000000 0.000000
# 5 0.000000 0.000000 0.000000 0.000000 0.018822 0.000000
# 6 0.000000 0.000000 0.000000 0.000000 0.000000 0.038741
#
#
# Mechanical properties :
#
#
# Convention : Reuss Voigt Hill
#
# Bulk Modulus (GPa) = 77.73353 104.33005 91.03179
# Shear Modulus (GPa) = 11.71051 34.29016 23.00033
#
# Velocity S-wave (km/s) = 2.54108 4.34825 3.56121
# Velocity P-wave (km/s) = 7.17433 9.09596 8.19169
#
# Compressibility (1/GPa) = 0.01286446
#
# Stress axis : x y z
#
# Youngs Moduli (GPa) = 11.76246 11.76246 104.75315
#
# Poissons Ratio (x) = 0.84374 0.60889
# Poissons Ratio (y) = 0.84374 0.60889
# Poissons Ratio (z) = 0.06837 0.06837
#
# Static dielectric constant tensor:
#      x y z
#    x 1.608130 0.000000 0.000000 
#    y 0.000000 1.608130 0.000000 
#    z 0.000000 0.000000 1.585840 
# 
# From -- ./inp_files/5683.got.cif
#   From: 2010.05.17/outbox.cif.g08.bks.cpg/sg115_3_cif.got.tgz:5683.got - 2010.05.20 11:07:42.
