data_PCOD9557241
_publ_section_title
;
Structure prediction by ZEFSAII (Michael W. Deem and Ramdas Pophale) SiO2 
 PCOD9557241
Probable space group: P -4 M 2
;
_chemical_formula_sum "Si O2"
_cell_formula_units_Z 40
_cell_length_a 9.345357
_cell_length_b 9.345357
_cell_length_c 26.423720
_cell_angle_alpha 90.000000
_cell_angle_beta 90.000000
_cell_angle_gamma 90.000000
_cell_volume 2307.734016
_symmetry_space_group_name_H-M "P -4 M 2"
_symmetry_group_IT_number 115
_symmetry_cell_setting 'tetragonal'
loop_
_space_group_symop_operation_xyz
x,y,z
y,-x,-z
-x,-y,z
-y,x,-z
y,x,-z
-y,-x,-z
-x,y,z
x,-y,z
loop_
_atom_site_type_symbol
_atom_site_label
_atom_site_fract_x
_atom_site_fract_y
_atom_site_fract_z
Si Si1 0.829784 0.330086 0.398402
Si Si2 0.329827 0.670174 0.500000
Si Si3 0.170948 0.831585 0.703754
Si Si4 0.169304 0.169304 0.000000
Si Si5 0.330327 0.829273 0.193572
Si Si6 0.330386 0.829561 0.896653
O O1 0.804404 0.500000 0.392308
O O2 0.749617 0.281810 0.449112
O O3 0.784741 0.249149 0.347503
O O4 0.000000 0.308211 0.404639
O O5 0.500000 0.693944 0.494299
O O6 0.212135 0.741422 0.753032
O O7 0.000000 0.818904 0.697031
O O8 0.203843 0.000000 0.712230
O O9 0.208202 0.259441 0.049503
O O10 0.000000 0.190720 0.989732
O O11 0.500000 0.804608 0.194725
O O12 0.256785 0.744522 0.148122
O O13 0.305874 0.000000 0.186702
O O14 0.500000 0.804040 0.897614
O O15 0.306535 0.000000 0.888948
#
# Coordination Sequence:
#
# PCOD9557241 Si02
#       6
#     8   4   8   4   8   8
#     4   9  18  32  49  70  96 126 161 201 245 293
#     4   9  18  32  48  67  94 128 162 195 238 294
#     4   9  18  33  52  73  98 129 165 206 252 300
#     4   9  18  34  56  79 104 138 178 215 252 299
#     4  10  21  36  54  77 105 137 173 213 257 305
#     4  10  21  36  55  80 108 138 173 212 255 304
#
# _framework density 17.333017999999999
#
# number of rings (size 3 to 8) (size 9 to 14) (size 15 to 20)
#    0.000    2.600    0.000    1.200    0.000    5.600 
#    0.000    4.000    0.000    0.000    0.000    0.000 
#    0.000    0.000    0.000    0.000    0.000    0.000 
#
# Total GULP energy -223171.885386 kJ/mol
# GULP energy per Si atom -5579.297135 kJ/mol
# Density = 1.729357 g / cm^3
# Si number density = 17.333018 Si / 1000 Ang^3
#
#
#
# Elastic Constant Matrix: (Units=GPa)
#
#
# Indices 1 2 3 4 5 6 
#
# 1 56.7269 56.6205 95.0980 0.0000 0.0000 0.0000
# 2 56.6205 56.7265 95.0980 0.0000 0.0000 0.0000
# 3 95.0980 95.0980 220.7416 0.0000 0.0000 0.0000
# 4 0.0000 0.0000 0.0000 -95.8421 0.0000 0.0000
# 5 0.0000 0.0000 0.0000 0.0000 -95.8804 0.0000
# 6 0.0000 0.0000 0.0000 0.0000 0.0000 20.5735
#
#
#
# Elastic Compliance Matrix: (Units=1/GPa)
#
#
# Indices 1 2 3 4 5 6 
#
# 1 4.726316 -4.694534 -0.013691 0.000000 0.000000 0.000000
# 2 -4.694534 4.726429 -0.013741 0.000000 0.000000 0.000000
# 3 -0.013691 -0.013741 0.016349 0.000000 0.000000 0.000000
# 4 0.000000 0.000000 0.000000 -0.010434 0.000000 0.000000
# 5 0.000000 0.000000 0.000000 0.000000 -0.010430 0.000000
# 6 0.000000 0.000000 0.000000 0.000000 0.000000 0.048606
#
#
# Mechanical properties :
#
#
# Convention : Reuss Voigt Hill
#
# Bulk Modulus (GPa) = 39.74572 91.98091 65.86332
# Shear Modulus (GPa) = 0.26386 -28.40459 -14.07036
#
# Velocity S-wave (km/s) = 0.39059 -4.05255 -2.85224
# Velocity P-wave (km/s) = 4.81496 5.59326 5.21864
#
# Compressibility (1/GPa) = 0.02515994
#
# Stress axis : x y z
#
# Youngs Moduli (GPa) = 0.21158 0.21158 61.16756
#
# Poissons Ratio (x) = 0.99325 0.83747
# Poissons Ratio (y) = 0.99328 0.84052
# Poissons Ratio (z) = 0.00290 0.00291
#
# Static dielectric constant tensor:
#      x y z
#    x 1.577360 0.000000 0.000000 
#    y 0.000000 1.577360 0.000000 
#    z 0.000000 0.000000 1.557280 
# 
# From -- ./inp_files/5527.got.cif
#   From: 2010.05.17/outbox.cif.g08.bks.cpg/sg115_3_cif.got.tgz:5527.got - 2010.05.20 11:07:42.
