data_PCOD9557830
_publ_section_title
;
Structure prediction by ZEFSAII (Michael W. Deem and Ramdas Pophale) SiO2 
 PCOD9557830
Probable space group: P -4 C 2
;
_chemical_formula_sum "Si O2"
_cell_formula_units_Z 20
_cell_length_a 8.801057
_cell_length_b 8.801057
_cell_length_c 11.489428
_cell_angle_alpha 90.000000
_cell_angle_beta 90.000000
_cell_angle_gamma 90.000000
_cell_volume 889.955057
_symmetry_space_group_name_H-M "P -4 C 2"
_symmetry_group_IT_number 116
_symmetry_cell_setting 'tetragonal'
loop_
_space_group_symop_operation_xyz
x,y,z
y,-x,-z
-x,-y,z
-y,x,-z
y,x,1/2-z
-y,-x,1/2-z
-x,y,1/2+z
x,-y,1/2+z
loop_
_atom_site_type_symbol
_atom_site_label
_atom_site_fract_x
_atom_site_fract_y
_atom_site_fract_z
Si Si1 0.766629 0.079145 0.967239
Si Si2 0.726370 0.726370 0.250000
Si Si3 0.712707 0.471063 0.442780
O O1 0.735360 0.128343 0.834752
O O2 0.618210 0.133075 0.035466
O O3 0.908532 0.181942 0.010801
O O4 0.722559 0.578365 0.331840
O O5 0.580591 0.342240 0.450260
#
# Coordination Sequence:
#
# PCOD9557830 Si02
#       3
#     8   4   8
#     4  10  23  44  67  98 133 170 222 269 320 397
#     4  10  22  44  66  88 134 181 210 275 338 368
#     4   9  20  40  64  93 130 168 217 266 319 389
#
# _framework density 22.473047999999999
#
# number of rings (size 3 to 8) (size 9 to 14) (size 15 to 20)
#    0.000    2.400    0.000    0.000    0.000   22.400 
#    0.000   64.000    0.000    0.000    0.000    0.000 
#    0.000    0.000    0.000    0.000    0.000    0.000 
#
# Total GULP energy -111679.921105 kJ/mol
# GULP energy per Si atom -5583.996055 kJ/mol
# Density = 2.242190 g / cm^3
# Si number density = 22.473048 Si / 1000 Ang^3
#
#
#
# Elastic Constant Matrix: (Units=GPa)
#
#
# Indices 1 2 3 4 5 6 
#
# 1 77.3072 78.7472 37.1931 0.0000 0.0000 0.0000
# 2 78.7472 77.3072 37.1931 0.0000 0.0000 0.0000
# 3 37.1931 37.1931 126.4927 0.0000 0.0000 0.0000
# 4 0.0000 0.0000 0.0000 5.6968 0.0000 0.0000
# 5 0.0000 0.0000 0.0000 0.0000 5.6968 0.0000
# 6 0.0000 0.0000 0.0000 0.0000 0.0000 60.4824
#
#
#
# Elastic Compliance Matrix: (Units=1/GPa)
#
#
# Indices 1 2 3 4 5 6 
#
# 1 -0.343504 0.350956 -0.002191 0.000000 0.000000 0.000000
# 2 0.350956 -0.343504 -0.002191 0.000000 0.000000 0.000000
# 3 -0.002191 -0.002191 0.009194 0.000000 0.000000 0.000000
# 4 0.000000 0.000000 0.000000 0.175538 0.000000 0.000000
# 5 0.000000 0.000000 0.000000 0.000000 0.175538 0.000000
# 6 0.000000 0.000000 0.000000 0.000000 0.000000 0.016534
#
#
# Mechanical properties :
#
#
# Convention : Reuss Voigt Hill
#
# Bulk Modulus (GPa) = 65.21403 65.26375 65.23889
# Shear Modulus (GPa) = -5.00881 22.90677 8.94898
#
# Velocity S-wave (km/s) = -1.49454 3.19611 1.99768
# Velocity P-wave (km/s) = 5.10917 6.53637 5.86633
#
# Compressibility (1/GPa) = 0.01533412
#
# Stress axis : x y z
#
# Youngs Moduli (GPa) = -2.91118 -2.91118 108.76387
#
# Poissons Ratio (x) = 1.02170 0.23833
# Poissons Ratio (y) = 1.02170 0.23833
# Poissons Ratio (z) = -0.00638 -0.00638
#
# Static dielectric constant tensor:
#      x y z
#    x 1.885280 0.000000 0.000000 
#    y 0.000000 1.885280 0.000000 
#    z 0.000000 0.000000 1.822330 
# 
# From -- ./inp_files/1238.got.cif
#   From: 2010.05.17/outbox.cif.g08.bks.cpg/sg116_1_cif.got.tgz:1238.got - 2010.05.20 11:11:43.
