data_PCOD9557733
_publ_section_title
;
Structure prediction by ZEFSAII (Michael W. Deem and Ramdas Pophale) SiO2 
 PCOD9557733
Probable space group: P -4 C 2
;
_chemical_formula_sum "Si O2"
_cell_formula_units_Z 40
_cell_length_a 14.447414
_cell_length_b 14.447414
_cell_length_c 9.319136
_cell_angle_alpha 90.000000
_cell_angle_beta 90.000000
_cell_angle_gamma 90.000000
_cell_volume 1945.162488
_symmetry_space_group_name_H-M "P -4 C 2"
_symmetry_group_IT_number 116
_symmetry_cell_setting 'tetragonal'
loop_
_space_group_symop_operation_xyz
x,y,z
y,-x,-z
-x,-y,z
-y,x,-z
y,x,1/2-z
-y,-x,1/2-z
-x,y,1/2+z
x,-y,1/2+z
loop_
_atom_site_type_symbol
_atom_site_label
_atom_site_fract_x
_atom_site_fract_y
_atom_site_fract_z
Si Si1 0.566199 0.089382 0.677796
Si Si2 0.727399 0.955598 0.724129
Si Si3 0.179089 0.584513 0.133881
Si Si4 0.854423 0.986262 0.471663
Si Si5 0.438195 0.389618 0.910333
O O1 0.511748 0.159978 0.781168
O O2 0.579533 0.129615 0.519858
O O3 0.500000 0.000000 0.666915
O O4 0.662169 0.046678 0.733380
O O5 0.665071 0.869378 0.773550
O O6 0.769620 0.948840 0.566211
O O7 0.812758 0.969269 0.829990
O O8 0.286641 0.599599 0.104621
O O9 0.930628 0.907572 0.446666
O O10 0.430769 0.430769 0.750000
O O11 0.386810 0.458442 0.021614
#
# Coordination Sequence:
#
# PCOD9557733 Si02
#       5
#     8   8   8   8   8
#     4  10  21  39  65  96 135 173 211 270 348 393
#     4  11  22  42  66  96 134 173 221 274 332 391
#     4  11  23  41  67 101 129 172 223 278 331 403
#     4  11  24  43  65  92 132 180 218 263 330 396
#     4  11  24  45  69  93 134 180 220 275 348 409
#
# _framework density 20.563835000000001
#
# number of rings (size 3 to 8) (size 9 to 14) (size 15 to 20)
#    0.000    1.200    2.000    5.400    2.800    3.200 
#    3.600    0.000    0.000    0.000    0.000    0.000 
#    0.000    0.000    0.000    0.000    0.000    0.000 
#
# Total GULP energy -223469.703546 kJ/mol
# GULP energy per Si atom -5586.742589 kJ/mol
# Density = 2.051703 g / cm^3
# Si number density = 20.563835 Si / 1000 Ang^3
#
#
#
# Elastic Constant Matrix: (Units=GPa)
#
#
# Indices 1 2 3 4 5 6 
#
# 1 52.6962 17.4169 25.9622 0.0000 0.0000 0.0000
# 2 17.4169 52.6962 25.9622 0.0000 0.0000 0.0000
# 3 25.9622 25.9622 81.9137 0.0000 0.0000 0.0000
# 4 0.0000 0.0000 0.0000 17.8679 0.0000 0.0000
# 5 0.0000 0.0000 0.0000 0.0000 17.8679 0.0000
# 6 0.0000 0.0000 0.0000 0.0000 0.0000 19.5616
#
#
#
# Elastic Compliance Matrix: (Units=1/GPa)
#
#
# Indices 1 2 3 4 5 6 
#
# 1 0.023491 -0.004854 -0.005907 0.000000 0.000000 0.000000
# 2 -0.004854 0.023491 -0.005907 0.000000 0.000000 0.000000
# 3 -0.005907 -0.005907 0.015952 0.000000 0.000000 0.000000
# 4 0.000000 0.000000 0.000000 0.055966 0.000000 0.000000
# 5 0.000000 0.000000 0.000000 0.000000 0.055966 0.000000
# 6 0.000000 0.000000 0.000000 0.000000 0.000000 0.051121
#
#
# Mechanical properties :
#
#
# Convention : Reuss Voigt Hill
#
# Bulk Modulus (GPa) = 33.78502 36.22096 35.00299
# Shear Modulus (GPa) = 18.57420 18.92379 18.74900
#
# Velocity S-wave (km/s) = 3.00867 3.03685 3.02279
# Velocity P-wave (km/s) = 5.34176 5.47254 5.40755
#
# Compressibility (1/GPa) = 0.02959892
#
# Stress axis : x y z
#
# Youngs Moduli (GPa) = 42.56907 42.56907 62.68658
#
# Poissons Ratio (x) = 0.20663 0.37029
# Poissons Ratio (y) = 0.20663 0.37029
# Poissons Ratio (z) = 0.25146 0.25146
#
# Static dielectric constant tensor:
#      x y z
#    x 1.740560 0.000000 0.000000 
#    y 0.000000 1.740560 0.000000 
#    z 0.000000 0.000000 1.715960 
# 
# From -- ./inp_files/775.got.cif
#   From: 2010.05.17/outbox.cif.g08.bks.cpg/sg116_1_cif.got.tgz:775.got - 2010.05.20 11:11:43.
