data_PCOD9557302
_publ_section_title
;
Structure prediction by ZEFSAII (Michael W. Deem and Ramdas Pophale) SiO2 
 PCOD9557302
Probable space group: P -4 M 2
;
_chemical_formula_sum "Si O2"
_cell_formula_units_Z 40
_cell_length_a 9.154835
_cell_length_b 9.154835
_cell_length_c 26.746688
_cell_angle_alpha 90.000000
_cell_angle_beta 90.000000
_cell_angle_gamma 90.000000
_cell_volume 2241.666772
_symmetry_space_group_name_H-M "P -4 M 2"
_symmetry_group_IT_number 115
_symmetry_cell_setting 'tetragonal'
loop_
_space_group_symop_operation_xyz
x,y,z
y,-x,-z
-x,-y,z
-y,x,-z
y,x,-z
-y,-x,-z
-x,y,z
x,-y,z
loop_
_atom_site_type_symbol
_atom_site_label
_atom_site_fract_x
_atom_site_fract_y
_atom_site_fract_z
Si Si1 0.825058 0.672945 0.640716
Si Si2 0.178091 0.332142 0.154706
Si Si3 0.173744 0.325922 0.452805
Si Si4 0.169308 0.821721 0.945106
Si Si5 0.825217 0.171475 0.743801
O O1 0.797355 0.500000 0.638199
O O2 0.740148 0.756375 0.597253
O O3 0.784153 0.737102 0.694913
O O4 0.000000 0.695759 0.634315
O O5 0.222211 0.500000 0.156666
O O6 0.227739 0.258086 0.103173
O O7 0.223063 0.249279 0.205055
O O8 0.000000 0.325997 0.154025
O O9 0.249110 0.249110 0.500000
O O10 0.197345 0.500000 0.455096
O O11 0.000000 0.298959 0.453596
O O12 0.000000 0.778940 0.939560
O O13 0.172215 0.000000 0.946225
O O14 0.224623 0.775377 0.000000
O O15 0.000000 0.180379 0.749931
O O16 0.788182 0.000000 0.735844
#
# Coordination Sequence:
#
# PCOD9557302 Si02
#       5
#     8   8   8   8   8
#     4  10  21  37  57  81 108 138 174 215 258 305
#     4   9  16  25  40  65  95 123 155 200 248 291
#     4  11  24  40  59  84 112 142 177 215 255 302
#     4   8  13  22  38  60  85 115 153 195 239 290
#     4   9  17  30  49  72  99 132 167 203 247 298
#
# _framework density 17.843865000000001
#
# number of rings (size 3 to 8) (size 9 to 14) (size 15 to 20)
#    0.000    2.600    0.000    3.000    0.000    8.400 
#    0.000    2.000    0.000    1.200    0.000    5.600 
#    0.000    0.000    0.000    0.000    0.000    0.000 
#
# Total GULP energy -223111.210060 kJ/mol
# GULP energy per Si atom -5577.780252 kJ/mol
# Density = 1.780325 g / cm^3
# Si number density = 17.843865 Si / 1000 Ang^3
#
#
#
# Elastic Constant Matrix: (Units=GPa)
#
#
# Indices 1 2 3 4 5 6 
#
# 1 65.0834 54.7945 84.2066 0.0000 0.0000 0.0000
# 2 54.7945 65.0836 84.2066 0.0000 0.0000 0.0000
# 3 84.2066 84.2066 217.9471 0.0000 0.0000 0.0000
# 4 0.0000 0.0000 0.0000 -12.6109 0.0000 0.0000
# 5 0.0000 0.0000 0.0000 0.0000 -12.6108 0.0000
# 6 0.0000 0.0000 0.0000 0.0000 0.0000 15.3540
#
#
#
# Elastic Compliance Matrix: (Units=1/GPa)
#
#
# Indices 1 2 3 4 5 6 
#
# 1 0.057718 -0.039473 -0.007049 0.000000 0.000000 0.000000
# 2 -0.039473 0.057718 -0.007049 0.000000 0.000000 0.000000
# 3 -0.007049 -0.007049 0.010035 0.000000 0.000000 0.000000
# 4 0.000000 0.000000 0.000000 -0.079297 0.000000 0.000000
# 5 0.000000 0.000000 0.000000 0.000000 -0.079297 0.000000
# 6 0.000000 0.000000 0.000000 0.000000 0.000000 0.065129
#
#
# Mechanical properties :
#
#
# Convention : Reuss Voigt Hill
#
# Bulk Modulus (GPa) = 54.55944 88.28106 71.42025
# Shear Modulus (GPa) = 34.42089 6.35357 20.38723
#
# Velocity S-wave (km/s) = 4.39681 1.88901 3.38381
# Velocity P-wave (km/s) = 7.51121 7.37153 7.44170
#
# Compressibility (1/GPa) = 0.01832863
#
# Stress axis : x y z
#
# Youngs Moduli (GPa) = 17.32547 17.32555 99.64769
#
# Poissons Ratio (x) = 0.68390 0.70244
# Poissons Ratio (y) = 0.68389 0.70243
# Poissons Ratio (z) = 0.12213 0.12213
#
# Static dielectric constant tensor:
#      x y z
#    x 1.593200 0.000000 0.000000 
#    y 0.000000 1.593200 0.000000 
#    z 0.000000 0.000000 1.599460 
# 
# From -- ./inp_files/5433.got.cif
#   From: 2010.05.17/outbox.cif.g08.bks.cpg/sg115_3_cif.got.tgz:5433.got - 2010.05.20 11:07:42.
