data_PCOD9557080
_publ_section_title
;
Structure prediction by ZEFSAII (Michael W. Deem and Ramdas Pophale) SiO2 
 PCOD9557080
Probable space group: P -4 M 2
;
_chemical_formula_sum "Si O2"
_cell_formula_units_Z 44
_cell_length_a 7.923298
_cell_length_b 7.923298
_cell_length_c 33.399436
_cell_angle_alpha 90.000000
_cell_angle_beta 90.000000
_cell_angle_gamma 90.000000
_cell_volume 2096.771543
_symmetry_space_group_name_H-M "P -4 M 2"
_symmetry_group_IT_number 115
_symmetry_cell_setting 'tetragonal'
loop_
_space_group_symop_operation_xyz
x,y,z
y,-x,-z
-x,-y,z
-y,x,-z
y,x,-z
-y,-x,-z
-x,y,z
x,-y,z
loop_
_atom_site_type_symbol
_atom_site_label
_atom_site_fract_x
_atom_site_fract_y
_atom_site_fract_z
Si Si1 0.500000 0.203594 0.267323
Si Si2 0.205806 0.304631 0.127832
Si Si3 0.295723 0.500000 0.640081
Si Si4 0.809960 0.701165 0.042870
Si Si5 0.298387 0.298387 0.500000
Si Si6 0.814353 0.706286 0.412811
Si Si7 0.198949 0.190621 0.784475
O O1 0.500000 0.243025 0.314031
O O2 0.668098 0.269928 0.245155
O O3 0.500000 0.000000 0.262528
O O4 0.257206 0.500000 0.131922
O O5 0.267499 0.234557 0.084848
O O6 0.249032 0.217381 0.169419
O O7 0.000000 0.299272 0.124924
O O8 0.500000 0.500000 0.638680
O O9 0.236229 0.665154 0.616059
O O10 0.819151 0.500000 0.048972
O O11 0.000000 0.769370 0.039266
O O12 0.727499 0.727499 0.000000
O O13 0.271793 0.500000 0.504039
O O14 0.215738 0.240133 0.458709
O O15 0.808313 0.500000 0.413490
O O16 0.000000 0.757670 0.399160
O O17 0.000000 0.176943 0.776216
O O18 0.271625 0.000000 0.780933
#
# Coordination Sequence:
#
# PCOD9557080 Si02
#       7
#     4   8   4   8   4   8   8
#     4  10  22  38  54  76 106 136 172 220 270 326
#     4   8  15  30  51  72  97 127 161 206 258 306
#     4  10  20  36  54  78 108 144 184 226 268 322
#     4   9  18  32  48  69  99 134 169 205 249 307
#     4   9  14  26  50  75 102 140 178 217 268 319
#     4   9  17  30  51  80 110 143 184 226 271 322
#     4   9  18  34  55  76  99 130 169 215 270 326
#
# _framework density 20.984643999999999
#
# number of rings (size 3 to 8) (size 9 to 14) (size 15 to 20)
#    0.000    3.000    0.909    1.091    0.000    2.545 
#    1.636    2.727    0.000    1.364    0.000    0.000 
#    0.000    0.000    0.000    0.000    0.000    0.000 
#
# Total GULP energy -245254.115777 kJ/mol
# GULP energy per Si atom -5573.957177 kJ/mol
# Density = 2.093688 g / cm^3
# Si number density = 20.984644 Si / 1000 Ang^3
#
#
#
# Elastic Constant Matrix: (Units=GPa)
#
#
# Indices 1 2 3 4 5 6 
#
# 1 49.8911 26.1304 48.3888 0.0000 0.0000 0.0000
# 2 26.1304 49.8911 48.3888 0.0000 0.0000 0.0000
# 3 48.3888 48.3888 185.0099 0.0000 0.0000 0.0000
# 4 0.0000 0.0000 0.0000 18.1290 0.0000 0.0000
# 5 0.0000 0.0000 0.0000 0.0000 18.1290 0.0000
# 6 0.0000 0.0000 0.0000 0.0000 0.0000 3.5220
#
#
#
# Elastic Compliance Matrix: (Units=1/GPa)
#
#
# Indices 1 2 3 4 5 6 
#
# 1 0.030903 -0.011183 -0.005158 0.000000 0.000000 0.000000
# 2 -0.011183 0.030903 -0.005158 0.000000 0.000000 0.000000
# 3 -0.005158 -0.005158 0.008103 0.000000 0.000000 0.000000
# 4 0.000000 0.000000 0.000000 0.055160 0.000000 0.000000
# 5 0.000000 0.000000 0.000000 0.000000 0.055160 0.000000
# 6 0.000000 0.000000 0.000000 0.000000 0.000000 0.283930
#
#
# Mechanical properties :
#
#
# Convention : Reuss Voigt Hill
#
# Bulk Modulus (GPa) = 37.15761 58.95649 48.05705
# Shear Modulus (GPa) = 9.68751 18.74825 14.21788
#
# Velocity S-wave (km/s) = 2.15093 2.99227 2.60578
# Velocity P-wave (km/s) = 4.89021 6.33200 5.65723
#
# Compressibility (1/GPa) = 0.02691239
#
# Stress axis : x y z
#
# Youngs Moduli (GPa) = 32.35904 32.35904 123.40949
#
# Poissons Ratio (x) = 0.36188 0.63651
# Poissons Ratio (y) = 0.36188 0.63651
# Poissons Ratio (z) = 0.16690 0.16690
#
# Static dielectric constant tensor:
#      x y z
#    x 1.778890 0.000000 0.000000 
#    y 0.000000 1.778890 0.000000 
#    z 0.000000 0.000000 1.743440 
# 
# From -- ./inp_files/5881.got.cif
#   From: 2010.05.17/outbox.cif.g08.bks.cpg/sg115_3_cif.got.tgz:5881.got - 2010.05.20 11:07:42.
