data_PCOD9557108
_publ_section_title
;
Structure prediction by ZEFSAII (Michael W. Deem and Ramdas Pophale) SiO2 
 PCOD9557108
Probable space group: P -4 M 2
;
_chemical_formula_sum "Si O2"
_cell_formula_units_Z 48
_cell_length_a 20.934551
_cell_length_b 20.934551
_cell_length_c 5.156534
_cell_angle_alpha 90.000000
_cell_angle_beta 90.000000
_cell_angle_gamma 90.000000
_cell_volume 2259.879003
_symmetry_space_group_name_H-M "P -4 M 2"
_symmetry_group_IT_number 115
_symmetry_cell_setting 'tetragonal'
loop_
_space_group_symop_operation_xyz
x,y,z
y,-x,-z
-x,-y,z
-y,x,-z
y,x,-z
-y,-x,-z
-x,y,z
x,-y,z
loop_
_atom_site_type_symbol
_atom_site_label
_atom_site_fract_x
_atom_site_fract_y
_atom_site_fract_z
Si Si1 0.652905 0.756530 0.497603
Si Si2 0.072489 0.431081 0.238230
Si Si3 0.793755 0.427001 0.999577
Si Si4 0.706586 0.070836 0.765067
Si Si5 0.828813 0.746843 0.835452
Si Si6 0.072521 0.166996 0.594281
O O1 0.688288 0.688288 0.500000
O O2 0.617052 0.770048 0.763869
O O3 0.709469 0.806431 0.419095
O O4 0.603232 0.768345 0.265045
O O5 0.081399 0.500000 0.380084
O O6 0.129127 0.429585 0.028694
O O7 0.076576 0.362094 0.381050
O O8 0.000000 0.432580 0.133663
O O9 0.771479 0.500000 0.028566
O O10 0.772611 0.072775 0.605474
O O11 0.706372 0.000000 0.887769
O O12 0.707206 0.124272 0.983766
O O13 0.870526 0.809107 0.776873
O O14 0.767102 0.767102 0.000000
O O15 0.098716 0.098716 0.500000
O O16 0.000000 0.162617 0.694891
#
# Coordination Sequence:
#
# PCOD9557108 Si02
#       6
#     8   8   8   8   8   8
#     4  12  25  41  66  99 137 175 221 274 331 392
#     4   9  18  35  58  86 124 170 218 266 315 381
#     4  11  23  43  66  95 136 182 226 269 328 395
#     4  10  20  37  58  84 116 158 213 269 333 402
#     4  12  22  36  60  87 123 161 212 277 342 413
#     4  11  23  39  59  83 116 157 215 287 358 430
#
# _framework density 21.240076999999999
#
# number of rings (size 3 to 8) (size 9 to 14) (size 15 to 20)
#    0.000    1.167    3.333    4.000    0.000    0.167 
#    0.000    1.667    0.000    4.000    0.000    0.000 
#    0.000   23.333    0.000    0.000    0.000    0.000 
#
# Total GULP energy -267779.084042 kJ/mol
# GULP energy per Si atom -5578.730918 kJ/mol
# Density = 2.119173 g / cm^3
# Si number density = 21.240077 Si / 1000 Ang^3
#
#
#
# Elastic Constant Matrix: (Units=GPa)
#
#
# Indices 1 2 3 4 5 6 
#
# 1 111.5661 45.9059 15.4566 0.0000 0.0000 0.0000
# 2 45.9059 111.5661 15.4566 0.0000 0.0000 0.0000
# 3 15.4566 15.4566 47.6145 0.0000 0.0000 0.0000
# 4 0.0000 0.0000 0.0000 21.0685 0.0000 0.0000
# 5 0.0000 0.0000 0.0000 0.0000 21.0685 0.0000
# 6 0.0000 0.0000 0.0000 0.0000 0.0000 26.2989
#
#
#
# Elastic Compliance Matrix: (Units=1/GPa)
#
#
# Indices 1 2 3 4 5 6 
#
# 1 0.011006 -0.004224 -0.002202 0.000000 0.000000 0.000000
# 2 -0.004224 0.011006 -0.002202 0.000000 0.000000 0.000000
# 3 -0.002202 -0.002202 0.022431 0.000000 0.000000 0.000000
# 4 0.000000 0.000000 0.000000 0.047464 0.000000 0.000000
# 5 0.000000 0.000000 0.000000 0.000000 0.047464 0.000000
# 6 0.000000 0.000000 0.000000 0.000000 0.000000 0.038024
#
#
# Mechanical properties :
#
#
# Convention : Reuss Voigt Hill
#
# Bulk Modulus (GPa) = 36.77883 47.15391 41.96637
# Shear Modulus (GPa) = 24.54416 26.61568 25.57992
#
# Velocity S-wave (km/s) = 3.40304 3.54374 3.47410
# Velocity P-wave (km/s) = 5.72663 6.24442 5.99112
#
# Compressibility (1/GPa) = 0.02718956
#
# Stress axis : x y z
#
# Youngs Moduli (GPa) = 90.85757 90.85757 44.58027
#
# Poissons Ratio (x) = 0.38375 0.09815
# Poissons Ratio (y) = 0.38375 0.09815
# Poissons Ratio (z) = 0.20005 0.20005
#
# Static dielectric constant tensor:
#      x y z
#    x 1.819460 0.000000 0.000000 
#    y 0.000000 1.819460 0.000000 
#    z 0.000000 0.000000 1.823300 
# 
# From -- ./inp_files/639.got.cif
#   From: 2010.05.17/outbox.cif.g08.bks.cpg/sg115_1_cif.got.tgz:639.got - 2010.05.20 11:07:42.
