data_PCOD9557752
_publ_section_title
;
Structure prediction by ZEFSAII (Michael W. Deem and Ramdas Pophale) SiO2 
 PCOD9557752
Probable space group: P -4 C 2
;
_chemical_formula_sum "Si O2"
_cell_formula_units_Z 34
_cell_length_a 10.564350
_cell_length_b 10.564350
_cell_length_c 14.261506
_cell_angle_alpha 90.000000
_cell_angle_beta 90.000000
_cell_angle_gamma 90.000000
_cell_volume 1591.662378
_symmetry_space_group_name_H-M "P -4 C 2"
_symmetry_group_IT_number 116
_symmetry_cell_setting 'tetragonal'
loop_
_space_group_symop_operation_xyz
x,y,z
y,-x,-z
-x,-y,z
-y,x,-z
y,x,1/2-z
-y,-x,1/2-z
-x,y,1/2+z
x,-y,1/2+z
loop_
_atom_site_type_symbol
_atom_site_label
_atom_site_fract_x
_atom_site_fract_y
_atom_site_fract_z
Si Si1 0.643746 0.120899 0.960721
Si Si2 0.305621 0.305621 0.750000
Si Si3 0.000000 0.000000 0.500000
Si Si4 0.221509 0.854283 0.428743
Si Si5 0.582790 0.206140 0.760073
Si Si6 0.500000 0.000000 0.626390
O O1 0.571628 0.166152 0.868986
O O2 0.697264 0.980750 0.939181
O O3 0.756217 0.219483 0.984457
O O4 0.566088 0.098867 0.055903
O O5 0.221753 0.260285 0.662449
O O6 0.453518 0.278390 0.734088
O O7 0.077069 0.904851 0.433757
O O8 0.703339 0.296661 0.750000
O O9 0.589865 0.081061 0.695026
#
# Coordination Sequence:
#
# PCOD9557752 Si02
#       6
#     8   4   2   8   8   4
#     4  11  23  43  71  99 140 179 237 289 353 412
#     4  12  23  45  66  98 144 186 231 290 341 428
#     4   8  20  38  64 108 140 178 232 292 362 432
#     4  10  21  41  67 101 138 180 229 297 355 412
#     4  12  27  45  70 104 139 187 238 288 353 428
#     4  12  22  44  70 100 136 190 232 290 348 414
#
# _framework density 21.361312999999999
#
# number of rings (size 3 to 8) (size 9 to 14) (size 15 to 20)
#    0.000    0.941    2.353    5.294    0.000    0.471 
#    0.000    0.000    5.176    0.000    0.000    0.000 
#    0.000    0.000    0.000    0.000    0.000    0.000 
#
# Total GULP energy -189944.957245 kJ/mol
# GULP energy per Si atom -5586.616390 kJ/mol
# Density = 2.131269 g / cm^3
# Si number density = 21.361313 Si / 1000 Ang^3
#
#
#
# Elastic Constant Matrix: (Units=GPa)
#
#
# Indices 1 2 3 4 5 6 
#
# 1 71.1126 28.0276 37.8560 0.0000 0.0000 0.0000
# 2 28.0276 71.1134 37.8562 0.0000 0.0000 0.0000
# 3 37.8560 37.8562 118.9126 0.0000 0.0000 0.0000
# 4 0.0000 0.0000 0.0000 38.4818 0.0000 0.0000
# 5 0.0000 0.0000 0.0000 0.0000 38.4818 0.0000
# 6 0.0000 0.0000 0.0000 0.0000 0.0000 33.6547
#
#
#
# Elastic Compliance Matrix: (Units=1/GPa)
#
#
# Indices 1 2 3 4 5 6 
#
# 1 0.018268 -0.004942 -0.004243 0.000000 0.000000 0.000000
# 2 -0.004942 0.018268 -0.004243 0.000000 0.000000 0.000000
# 3 -0.004243 -0.004243 0.011111 0.000000 0.000000 0.000000
# 4 0.000000 0.000000 0.000000 0.025986 0.000000 0.000000
# 5 0.000000 0.000000 0.000000 0.000000 0.025986 0.000000
# 6 0.000000 0.000000 0.000000 0.000000 0.000000 0.029714
#
#
# Mechanical properties :
#
#
# Convention : Reuss Voigt Hill
#
# Bulk Modulus (GPa) = 48.09116 52.06870 50.07993
# Shear Modulus (GPa) = 30.65266 32.61692 31.63479
#
# Velocity S-wave (km/s) = 3.79220 3.91182 3.85247
# Velocity P-wave (km/s) = 6.46037 6.69561 6.57904
#
# Compressibility (1/GPa) = 0.02079384
#
# Stress axis : x y z
#
# Youngs Moduli (GPa) = 54.73959 54.74023 90.00243
#
# Poissons Ratio (x) = 0.27050 0.38184
# Poissons Ratio (y) = 0.27050 0.38184
# Poissons Ratio (z) = 0.23224 0.23224
#
# Static dielectric constant tensor:
#      x y z
#    x 1.808700 0.000000 0.000000 
#    y 0.000000 1.808700 0.000000 
#    z 0.000000 0.000000 1.752620 
# 
# From -- ./inp_files/1648.got.cif
#   From: 2010.05.17/outbox.cif.g08.bks.cpg/sg116_1_cif.got.tgz:1648.got - 2010.05.20 11:11:43.
