data_PCOD9557898
_publ_section_title
;
Structure prediction by ZEFSAII (Michael W. Deem and Ramdas Pophale) SiO2 
 PCOD9557898
Probable space group: P -4 C 2
;
_chemical_formula_sum "Si O2"
_cell_formula_units_Z 28
_cell_length_a 7.809272
_cell_length_b 7.809272
_cell_length_c 22.508086
_cell_angle_alpha 90.000000
_cell_angle_beta 90.000000
_cell_angle_gamma 90.000000
_cell_volume 1372.649529
_symmetry_space_group_name_H-M "P -4 C 2"
_symmetry_group_IT_number 116
_symmetry_cell_setting 'tetragonal'
loop_
_space_group_symop_operation_xyz
x,y,z
y,-x,-z
-x,-y,z
-y,x,-z
y,x,1/2-z
-y,-x,1/2-z
-x,y,1/2+z
x,-y,1/2+z
loop_
_atom_site_type_symbol
_atom_site_label
_atom_site_fract_x
_atom_site_fract_y
_atom_site_fract_z
Si Si1 0.500000 0.500000 0.750000
Si Si2 0.500000 0.500000 0.500000
Si Si3 0.074478 0.824593 0.098094
Si Si4 0.141731 0.646546 0.500849
Si Si5 0.152508 0.616571 0.212310
O O1 0.506287 0.672467 0.788725
O O2 0.320182 0.571008 0.525744
O O3 0.095328 0.683880 0.148618
O O4 0.934299 0.773693 0.049283
O O5 0.251254 0.836924 0.060876
O O6 0.000000 0.000000 0.124591
O O7 0.000000 0.500000 0.493201
O O8 0.218365 0.781636 0.250000
O O9 0.000000 0.500000 0.238310
#
# Coordination Sequence:
#
# PCOD9557898 Si02
#       5
#     2   2   8   8   8
#     4   8  24  54  68 104 158 168 268 314 346 440
#     4  12  24  38  72  92 150 200 246 272 372 426
#     4  12  23  44  70 103 152 190 238 310 361 441
#     4  12  23  43  64 106 148 195 249 294 361 439
#     4  10  25  49  77 106 143 191 249 307 370 435
#
# _framework density 20.398505
#
# number of rings (size 3 to 8) (size 9 to 14) (size 15 to 20)
#    0.857    0.000    5.714    0.857    0.000    5.143 
#    5.143    0.000    0.000    0.000    0.000    0.000 
#    0.000    0.000    0.000    0.000    0.000    0.000 
#
# Total GULP energy -155969.270284 kJ/mol
# GULP energy per Si atom -5570.331082 kJ/mol
# Density = 2.035208 g / cm^3
# Si number density = 20.398505 Si / 1000 Ang^3
#
#
#
# Elastic Constant Matrix: (Units=GPa)
#
#
# Indices 1 2 3 4 5 6 
#
# 1 119.0038 35.4658 8.3728 0.0000 0.0000 0.0000
# 2 35.4658 119.0034 8.3730 0.0000 0.0000 0.0000
# 3 8.3728 8.3730 42.6465 0.0000 0.0000 0.0000
# 4 0.0000 0.0000 0.0000 11.1265 0.0000 0.0000
# 5 0.0000 0.0000 0.0000 0.0000 11.1232 0.0000
# 6 0.0000 0.0000 0.0000 0.0000 0.0000 59.6653
#
#
#
# Elastic Compliance Matrix: (Units=1/GPa)
#
#
# Indices 1 2 3 4 5 6 
#
# 1 0.009293 -0.002678 -0.001299 0.000000 0.000000 0.000000
# 2 -0.002678 0.009293 -0.001299 0.000000 0.000000 0.000000
# 3 -0.001299 -0.001299 0.023958 0.000000 0.000000 0.000000
# 4 0.000000 0.000000 0.000000 0.089876 0.000000 0.000000
# 5 0.000000 0.000000 0.000000 0.000000 0.089902 0.000000
# 6 0.000000 0.000000 0.000000 0.000000 0.000000 0.016760
#
#
# Mechanical properties :
#
#
# Convention : Reuss Voigt Hill
#
# Bulk Modulus (GPa) = 31.25682 42.78630 37.02156
# Shear Modulus (GPa) = 19.20886 31.61248 25.41067
#
# Velocity S-wave (km/s) = 3.07201 3.94095 3.53329
# Velocity P-wave (km/s) = 5.28577 6.45979 5.90204
#
# Compressibility (1/GPa) = 0.03199302
#
# Stress axis : x y z
#
# Youngs Moduli (GPa) = 107.61279 107.61238 41.73886
#
# Poissons Ratio (x) = 0.28819 0.05420
# Poissons Ratio (y) = 0.28819 0.05421
# Poissons Ratio (z) = 0.13975 0.13975
#
# Static dielectric constant tensor:
#      x y z
#    x 1.769090 0.000000 0.000000 
#    y 0.000000 1.769090 0.000000 
#    z 0.000000 0.000000 1.693520 
# 
# From -- ./inp_files/3698.got.cif
#   From: 2010.05.17/outbox.cif.g08.bks.cpg/sg116_2_cif.got.tgz:3698.got - 2010.05.20 11:11:43.
