data_PCOD9557674
_publ_section_title
;
Structure prediction by ZEFSAII (Michael W. Deem and Ramdas Pophale) SiO2 
 PCOD9557674
Probable space group: P -4 C 2
;
_chemical_formula_sum "Si O2"
_cell_formula_units_Z 54
_cell_length_a 14.679703
_cell_length_b 14.679703
_cell_length_c 11.226632
_cell_angle_alpha 90.000000
_cell_angle_beta 90.000000
_cell_angle_gamma 90.000000
_cell_volume 2419.268246
_symmetry_space_group_name_H-M "P -4 C 2"
_symmetry_group_IT_number 116
_symmetry_cell_setting 'tetragonal'
loop_
_space_group_symop_operation_xyz
x,y,z
y,-x,-z
-x,-y,z
-y,x,-z
y,x,1/2-z
-y,-x,1/2-z
-x,y,1/2+z
x,-y,1/2+z
loop_
_atom_site_type_symbol
_atom_site_label
_atom_site_fract_x
_atom_site_fract_y
_atom_site_fract_z
Si Si1 0.753897 0.658448 0.893395
Si Si2 0.399671 0.813926 0.851712
Si Si3 0.921156 0.674691 0.737728
Si Si4 0.529868 0.310791 0.650075
Si Si5 0.233777 0.099282 0.223042
Si Si6 0.000000 0.500000 0.229642
Si Si7 0.500000 0.500000 0.500000
Si Si8 0.828166 0.653583 0.496759
O O1 0.831622 0.695072 0.808607
O O2 0.701070 0.577396 0.829924
O O3 0.696630 0.742226 0.937609
O O4 0.792505 0.610067 0.011059
O O5 0.428241 0.722031 0.778678
O O6 0.299421 0.842192 0.809092
O O7 0.459874 0.905413 0.828344
O O8 0.900750 0.641052 0.603289
O O9 0.994742 0.752731 0.745331
O O10 0.966151 0.586948 0.802189
O O11 0.533539 0.410691 0.581163
O O12 0.572791 0.225255 0.573374
O O13 0.133921 0.133921 0.250000
O O14 0.276522 0.125347 0.095365
#
# Coordination Sequence:
#
# PCOD9557674 Si02
#       8
#     8   8   8   8   8   4   2   8
#     4  12  23  43  68  93 146 183 233 301 360 423
#     4  10  22  40  65  97 138 183 229 296 364 425
#     4  11  25  40  68 106 134 184 232 300 372 441
#     4  11  24  43  66  98 137 191 257 300 353 427
#     4  10  22  42  68  99 137 179 228 284 369 456
#     4  10  20  40  62 100 138 170 230 294 370 418
#     4  12  24  48  70 100 138 220 258 308 356 438
#     4  11  24  44  68  97 141 185 240 299 362 425
#
# _framework density 22.320796999999999
#
# number of rings (size 3 to 8) (size 9 to 14) (size 15 to 20)
#    0.000    1.185    4.444    1.333    4.148    0.593 
#    0.000    1.481    0.000    1.778    0.000    4.148 
#    0.000    0.000    0.000    0.000    0.000    0.000 
#
# Total GULP energy -300920.601225 kJ/mol
# GULP energy per Si atom -5572.603726 kJ/mol
# Density = 2.226999 g / cm^3
# Si number density = 22.320797 Si / 1000 Ang^3
#
#
#
# Elastic Constant Matrix: (Units=GPa)
#
#
# Indices 1 2 3 4 5 6 
#
# 1 90.5012 42.8402 30.1484 0.0000 0.0000 0.0000
# 2 42.8402 90.5012 30.1484 0.0000 0.0000 0.0000
# 3 30.1484 30.1484 96.8656 0.0000 0.0000 0.0000
# 4 0.0000 0.0000 0.0000 -13.8135 0.0000 0.0000
# 5 0.0000 0.0000 0.0000 0.0000 -13.8135 0.0000
# 6 0.0000 0.0000 0.0000 0.0000 0.0000 32.5147
#
#
#
# Elastic Compliance Matrix: (Units=1/GPa)
#
#
# Indices 1 2 3 4 5 6 
#
# 1 0.014855 -0.006127 -0.002716 0.000000 0.000000 0.000000
# 2 -0.006127 0.014855 -0.002716 0.000000 0.000000 0.000000
# 3 -0.002716 -0.002716 0.012015 0.000000 0.000000 0.000000
# 4 0.000000 0.000000 0.000000 -0.072393 0.000000 0.000000
# 5 0.000000 0.000000 0.000000 0.000000 -0.072393 0.000000
# 6 0.000000 0.000000 0.000000 0.000000 0.000000 0.030755
#
#
# Mechanical properties :
#
#
# Convention : Reuss Voigt Hill
#
# Bulk Modulus (GPa) = 53.75045 53.79354 53.77199
# Shear Modulus (GPa) = -116.31906 12.62626 -51.84640
#
# Velocity S-wave (km/s) = -7.22672 2.38097 -4.82476
# Velocity P-wave (km/s) = 6.74544 5.63127 2.62581
#
# Compressibility (1/GPa) = 0.01860450
#
# Stress axis : x y z
#
# Youngs Moduli (GPa) = 67.31865 67.31865 83.23252
#
# Poissons Ratio (x) = 0.41245 0.22610
# Poissons Ratio (y) = 0.41245 0.22610
# Poissons Ratio (z) = 0.18287 0.18287
#
# Static dielectric constant tensor:
#      x y z
#    x 2.064960 0.000000 0.000000 
#    y 0.000000 2.064960 0.000000 
#    z 0.000000 0.000000 1.902230 
# 
# From -- ./inp_files/2031.got.cif
#   From: 2010.05.17/outbox.cif.g08.bks.cpg/sg116_2_cif.got.tgz:2031.got - 2010.05.20 11:11:43.
