data_PCOD9557955
_publ_section_title
;
Structure prediction by ZEFSAII (Michael W. Deem and Ramdas Pophale) SiO2 
 PCOD9557955
Probable space group: P -4 C 2
;
_chemical_formula_sum "Si O2"
_cell_formula_units_Z 40
_cell_length_a 15.441269
_cell_length_b 15.441269
_cell_length_c 7.620834
_cell_angle_alpha 90.000000
_cell_angle_beta 90.000000
_cell_angle_gamma 90.000000
_cell_volume 1817.056700
_symmetry_space_group_name_H-M "P -4 C 2"
_symmetry_group_IT_number 116
_symmetry_cell_setting 'tetragonal'
loop_
_space_group_symop_operation_xyz
x,y,z
y,-x,-z
-x,-y,z
-y,x,-z
y,x,1/2-z
-y,-x,1/2-z
-x,y,1/2+z
x,-y,1/2+z
loop_
_atom_site_type_symbol
_atom_site_label
_atom_site_fract_x
_atom_site_fract_y
_atom_site_fract_z
Si Si1 0.259608 0.705127 0.955512
Si Si2 0.361532 0.091872 0.956458
Si Si3 0.365216 0.469221 0.454991
Si Si4 0.587993 0.790674 0.634988
Si Si5 0.070566 0.424422 0.156708
O O1 0.278138 0.721863 0.750000
O O2 0.158932 0.714031 0.996717
O O3 0.297675 0.608383 0.994571
O O4 0.316010 0.762257 0.084025
O O5 0.406461 0.141214 0.792282
O O6 0.412652 0.092951 0.141480
O O7 0.345685 0.992002 0.907183
O O8 0.410002 0.546041 0.576128
O O9 0.296901 0.530243 0.345119
O O10 0.564739 0.845439 0.460970
O O11 0.000000 0.500000 0.131945
#
# Coordination Sequence:
#
# PCOD9557955 Si02
#       5
#     8   8   8   8   8
#     4  11  23  42  68  96 134 183 233 296 352 414
#     4  12  25  42  67  95 130 171 226 282 359 424
#     4   9  21  42  66  90 125 181 245 301 347 394
#     4  11  24  44  68  97 135 181 232 291 357 412
#     4  12  25  41  65  98 131 171 226 291 347 422
#
# _framework density 22.013622000000002
#
# number of rings (size 3 to 8) (size 9 to 14) (size 15 to 20)
#    0.000    1.000    4.000    2.400    2.800    4.000 
#    0.000   16.000    0.000    0.000    0.000    0.000 
#    0.000    0.800    2.400    0.600    0.800    0.000 
#
# Total GULP energy -222791.802358 kJ/mol
# GULP energy per Si atom -5569.795059 kJ/mol
# Density = 2.196352 g / cm^3
# Si number density = 22.013622 Si / 1000 Ang^3
#
#
#
# Elastic Constant Matrix: (Units=GPa)
#
#
# Indices 1 2 3 4 5 6 
#
# 1 84.3101 15.4652 25.3221 0.0000 0.0000 0.0000
# 2 15.4652 84.3099 25.3221 0.0000 0.0000 0.0000
# 3 25.3221 25.3221 143.4500 0.0000 0.0000 0.0000
# 4 0.0000 0.0000 0.0000 40.9822 0.0000 0.0000
# 5 0.0000 0.0000 0.0000 0.0000 40.9820 0.0000
# 6 0.0000 0.0000 0.0000 0.0000 0.0000 25.2020
#
#
#
# Elastic Compliance Matrix: (Units=1/GPa)
#
#
# Indices 1 2 3 4 5 6 
#
# 1 0.012767 -0.001758 -0.001943 0.000000 0.000000 0.000000
# 2 -0.001758 0.012767 -0.001943 0.000000 0.000000 0.000000
# 3 -0.001943 -0.001943 0.007657 0.000000 0.000000 0.000000
# 4 0.000000 0.000000 0.000000 0.024401 0.000000 0.000000
# 5 0.000000 0.000000 0.000000 0.000000 0.024401 0.000000
# 6 0.000000 0.000000 0.000000 0.000000 0.000000 0.039679
#
#
# Mechanical properties :
#
#
# Convention : Reuss Voigt Hill
#
# Bulk Modulus (GPa) = 45.65852 49.36543 47.51198
# Shear Modulus (GPa) = 35.64731 37.83061 36.73896
#
# Velocity S-wave (km/s) = 4.02845 4.14999 4.08967
# Velocity P-wave (km/s) = 6.51337 6.74068 6.62800
#
# Compressibility (1/GPa) = 0.02190172
#
# Stress axis : x y z
#
# Youngs Moduli (GPa) = 78.32599 78.32573 130.59691
#
# Poissons Ratio (x) = 0.13772 0.25379
# Poissons Ratio (y) = 0.13772 0.25379
# Poissons Ratio (z) = 0.15221 0.15221
#
# Static dielectric constant tensor:
#      x y z
#    x 1.892570 0.000000 0.000000 
#    y 0.000000 1.892570 0.000000 
#    z 0.000000 0.000000 1.934460 
# 
# From -- ./inp_files/791.got.cif
#   From: 2010.05.17/outbox.cif.g08.bks.cpg/sg116_1_cif.got.tgz:791.got - 2010.05.20 11:11:43.
