data_PCOD9557845
_publ_section_title
;
Structure prediction by ZEFSAII (Michael W. Deem and Ramdas Pophale) SiO2 
 PCOD9557845
Probable space group: P -4 C 2
;
_chemical_formula_sum "Si O2"
_cell_formula_units_Z 38
_cell_length_a 9.377615
_cell_length_b 9.377615
_cell_length_c 21.408306
_cell_angle_alpha 90.000000
_cell_angle_beta 90.000000
_cell_angle_gamma 90.000000
_cell_volume 1882.639217
_symmetry_space_group_name_H-M "P -4 C 2"
_symmetry_group_IT_number 116
_symmetry_cell_setting 'tetragonal'
loop_
_space_group_symop_operation_xyz
x,y,z
y,-x,-z
-x,-y,z
-y,x,-z
y,x,1/2-z
-y,-x,1/2-z
-x,y,1/2+z
x,-y,1/2+z
loop_
_atom_site_type_symbol
_atom_site_label
_atom_site_fract_x
_atom_site_fract_y
_atom_site_fract_z
Si Si1 0.951613 0.231455 0.294554
Si Si2 0.644708 0.316293 0.505089
Si Si3 0.000000 0.500000 0.206231
Si Si4 0.155321 0.694377 0.122620
Si Si5 0.000000 0.000000 0.500000
Si Si6 0.168490 0.845198 0.900825
O O1 0.894684 0.105317 0.250000
O O2 0.000033 0.363350 0.251763
O O3 0.810043 0.248069 0.338402
O O4 0.082733 0.197547 0.339486
O O5 0.475686 0.313139 0.514740
O O6 0.675752 0.217512 0.445779
O O7 0.729790 0.269904 0.566932
O O8 0.869116 0.453337 0.160669
O O9 0.995327 0.756124 0.113683
O O10 0.050975 0.123928 0.454453
#
# Coordination Sequence:
#
# PCOD9557845 Si02
#       6
#     8   8   4   8   2   8
#     4  10  23  40  66  98 136 173 223 277 333 395
#     4  11  26  44  66  97 136 178 219 274 342 406
#     4  10  24  40  58  98 132 180 216 266 334 392
#     4  11  22  42  66  96 134 168 224 283 320 400
#     4  12  20  40  62 112 128 156 212 294 344 376
#     4  12  21  41  69  98 132 169 219 276 345 389
#
# _framework density 20.184429000000002
#
# number of rings (size 3 to 8) (size 9 to 14) (size 15 to 20)
#    0.000    1.053    4.211    1.263    2.947    5.895 
#    0.000    0.000    0.000    0.000    0.000    0.000 
#    0.000    0.000    0.000    0.000    0.000    0.000 
#
# Total GULP energy -212099.413514 kJ/mol
# GULP energy per Si atom -5581.563514 kJ/mol
# Density = 2.013849 g / cm^3
# Si number density = 20.184429 Si / 1000 Ang^3
#
#
#
# Elastic Constant Matrix: (Units=GPa)
#
#
# Indices 1 2 3 4 5 6 
#
# 1 83.9455 70.0233 61.6640 0.0000 0.0000 0.0000
# 2 70.0233 83.9454 61.6637 0.0000 0.0000 0.0000
# 3 61.6640 61.6637 142.6056 0.0000 0.0000 0.0000
# 4 0.0000 0.0000 0.0000 43.9152 0.0000 0.0000
# 5 0.0000 0.0000 0.0000 0.0000 43.9155 0.0000
# 6 0.0000 0.0000 0.0000 0.0000 0.0000 19.3792
#
#
#
# Elastic Compliance Matrix: (Units=1/GPa)
#
#
# Indices 1 2 3 4 5 6 
#
# 1 0.040882 -0.030946 -0.004297 0.000000 0.000000 0.000000
# 2 -0.030946 0.040882 -0.004296 0.000000 0.000000 0.000000
# 3 -0.004297 -0.004296 0.010728 0.000000 0.000000 0.000000
# 4 0.000000 0.000000 0.000000 0.022771 0.000000 0.000000
# 5 0.000000 0.000000 0.000000 0.000000 0.022771 0.000000
# 6 0.000000 0.000000 0.000000 0.000000 0.000000 0.051602
#
#
# Mechanical properties :
#
#
# Convention : Reuss Voigt Hill
#
# Bulk Modulus (GPa) = 74.54603 77.46647 76.00625
# Shear Modulus (GPa) = 18.30261 29.25168 23.77715
#
# Velocity S-wave (km/s) = 3.01453 3.81099 3.43592
# Velocity P-wave (km/s) = 7.00922 7.60444 7.31289
#
# Compressibility (1/GPa) = 0.01341453
#
# Stress axis : x y z
#
# Youngs Moduli (GPa) = 24.46060 24.46066 93.21337
#
# Poissons Ratio (x) = 0.75695 0.40050
# Poissons Ratio (y) = 0.75695 0.40049
# Poissons Ratio (z) = 0.10510 0.10509
#
# Static dielectric constant tensor:
#      x y z
#    x 1.741140 0.000000 0.000000 
#    y 0.000000 1.741140 0.000000 
#    z 0.000000 0.000000 1.728530 
# 
# From -- ./inp_files/4482.got.cif
#   From: 2010.05.17/outbox.cif.g08.bks.cpg/sg116_3_cif.got.tgz:4482.got - 2010.05.20 11:11:43.
