data_PCOD9557974
_publ_section_title
;
Structure prediction by ZEFSAII (Michael W. Deem and Ramdas Pophale) SiO2 
 PCOD9557974
Probable space group: P -4 C 2
;
_chemical_formula_sum "Si O2"
_cell_formula_units_Z 32
_cell_length_a 11.871951
_cell_length_b 11.871951
_cell_length_c 10.371874
_cell_angle_alpha 90.000000
_cell_angle_beta 90.000000
_cell_angle_gamma 90.000000
_cell_volume 1461.845325
_symmetry_space_group_name_H-M "P -4 C 2"
_symmetry_group_IT_number 116
_symmetry_cell_setting 'tetragonal'
loop_
_space_group_symop_operation_xyz
x,y,z
y,-x,-z
-x,-y,z
-y,x,-z
y,x,1/2-z
-y,-x,1/2-z
-x,y,1/2+z
x,-y,1/2+z
loop_
_atom_site_type_symbol
_atom_site_label
_atom_site_fract_x
_atom_site_fract_y
_atom_site_fract_z
Si Si1 0.500000 0.500000 0.500000
Si Si2 0.000000 0.000000 0.000000
Si Si3 0.211844 0.605863 0.798582
Si Si4 0.221838 0.778163 0.250000
Si Si5 0.431157 0.266440 0.911317
Si Si6 0.029953 0.200195 0.320238
O O1 0.395969 0.467384 0.589657
O O2 0.872210 0.005323 0.055907
O O3 0.314759 0.685242 0.750000
O O4 0.199886 0.509409 0.690161
O O5 0.108249 0.691098 0.820307
O O6 0.232928 0.554382 0.939671
O O7 0.258284 0.699004 0.131289
O O8 0.088285 0.763423 0.260801
O O9 0.101763 0.101763 0.250000
#
# Coordination Sequence:
#
# PCOD9557974 Si02
#       6
#     2   2   8   4   8   8
#     4  12  24  50  72 106 140 202 260 306 376 466
#     4  12  18  44  84 106 144 208 258 312 386 476
#     4  11  26  47  75 111 149 194 252 325 379 450
#     4  12  25  45  72 114 148 206 256 311 381 470
#     4  12  26  46  75 109 149 200 255 321 378 459
#     4  11  24  46  73 112 149 199 257 318 388 464
#
# _framework density 21.890138
#
# number of rings (size 3 to 8) (size 9 to 14) (size 15 to 20)
#    0.000    0.500    5.000    3.000    0.000    2.000 
#    0.000    5.000    0.000    0.000    0.000    0.000 
#    0.000    0.000    0.000    0.000    0.000    0.000 
#
# Total GULP energy -178589.316151 kJ/mol
# GULP energy per Si atom -5580.916130 kJ/mol
# Density = 2.184032 g / cm^3
# Si number density = 21.890138 Si / 1000 Ang^3
#
#
#
# Elastic Constant Matrix: (Units=GPa)
#
#
# Indices 1 2 3 4 5 6 
#
# 1 98.7738 71.0017 40.6539 0.0000 0.0000 0.0000
# 2 71.0017 98.7755 40.6536 0.0000 0.0000 0.0000
# 3 40.6539 40.6536 124.5015 0.0000 0.0000 0.0000
# 4 0.0000 0.0000 0.0000 23.5687 0.0000 0.0000
# 5 0.0000 0.0000 0.0000 0.0000 23.5699 0.0000
# 6 0.0000 0.0000 0.0000 0.0000 0.0000 44.2867
#
#
#
# Elastic Compliance Matrix: (Units=1/GPa)
#
#
# Indices 1 2 3 4 5 6 
#
# 1 0.021494 -0.014512 -0.002280 0.000000 0.000000 0.000000
# 2 -0.014512 0.021494 -0.002280 0.000000 0.000000 0.000000
# 3 -0.002280 -0.002280 0.009521 0.000000 0.000000 0.000000
# 4 0.000000 0.000000 0.000000 0.042429 0.000000 0.000000
# 5 0.000000 0.000000 0.000000 0.000000 0.042427 0.000000
# 6 0.000000 0.000000 0.000000 0.000000 0.000000 0.022580
#
#
# Mechanical properties :
#
#
# Convention : Reuss Voigt Hill
#
# Bulk Modulus (GPa) = 69.61138 69.62991 69.62065
# Shear Modulus (GPa) = 24.64541 29.60116 27.12329
#
# Velocity S-wave (km/s) = 3.35904 3.68130 3.52385
# Velocity P-wave (km/s) = 6.84935 7.06733 6.95919
#
# Compressibility (1/GPa) = 0.01436547
#
# Stress axis : x y z
#
# Youngs Moduli (GPa) = 46.52389 46.52491 105.03200
#
# Poissons Ratio (x) = 0.67518 0.23947
# Poissons Ratio (y) = 0.67516 0.23944
# Poissons Ratio (z) = 0.10607 0.10606
#
# Static dielectric constant tensor:
#      x y z
#    x 1.773990 0.000000 0.000000 
#    y 0.000000 1.773990 0.000000 
#    z 0.000000 0.000000 1.931040 
# 
# From -- ./inp_files/1646.got.cif
#   From: 2010.05.17/outbox.cif.g08.bks.cpg/sg116_1_cif.got.tgz:1646.got - 2010.05.20 11:11:43.
