data_PCOD9557979
_publ_section_title
;
Structure prediction by ZEFSAII (Michael W. Deem and Ramdas Pophale) SiO2 
 PCOD9557979
Probable space group: P -4 C 2
;
_chemical_formula_sum "Si O2"
_cell_formula_units_Z 36
_cell_length_a 8.702579
_cell_length_b 8.702579
_cell_length_c 18.898751
_cell_angle_alpha 90.000000
_cell_angle_beta 90.000000
_cell_angle_gamma 90.000000
_cell_volume 1431.294663
_symmetry_space_group_name_H-M "P -4 C 2"
_symmetry_group_IT_number 116
_symmetry_cell_setting 'tetragonal'
loop_
_space_group_symop_operation_xyz
x,y,z
y,-x,-z
-x,-y,z
-y,x,-z
y,x,1/2-z
-y,-x,1/2-z
-x,y,1/2+z
x,-y,1/2+z
loop_
_atom_site_type_symbol
_atom_site_label
_atom_site_fract_x
_atom_site_fract_y
_atom_site_fract_z
Si Si1 0.000000 0.000000 0.132452
Si Si2 0.463741 0.159885 0.478223
Si Si3 0.172165 0.501639 0.292486
Si Si4 0.262632 0.239560 0.600081
Si Si5 0.815430 0.294097 0.659273
O O1 0.082593 0.141561 0.173804
O O2 0.856754 0.094244 0.094509
O O3 0.406026 0.253574 0.544970
O O4 0.606483 0.180685 0.425447
O O5 0.324492 0.160059 0.423109
O O6 0.500000 0.000000 0.513734
O O7 0.238682 0.662157 0.321785
O O8 0.262955 0.363076 0.328375
O O9 0.155402 0.437053 0.212190
O O10 0.000000 0.500000 0.320807
#
# Coordination Sequence:
#
# PCOD9557979 Si02
#       5
#     4   8   8   8   8
#     4  12  26  50  82 122 146 218 268 332 394 494
#     4  12  27  47  75 115 155 206 261 335 388 480
#     4  11  24  47  74 109 158 201 256 334 387 472
#     4  12  28  48  81 111 163 207 268 322 409 471
#     4  11  26  47  76 114 154 202 272 316 408 461
#
# _framework density 25.152052000000001
#
# number of rings (size 3 to 8) (size 9 to 14) (size 15 to 20)
#    0.000    0.444    4.444    2.667    3.111    6.667 
#    0.000    2.222    0.000    0.000    0.000    0.000 
#    0.000    0.000    0.000    0.000    0.000    0.000 
#
# Total GULP energy -200453.632581 kJ/mol
# GULP energy per Si atom -5568.156461 kJ/mol
# Density = 2.509480 g / cm^3
# Si number density = 25.152052 Si / 1000 Ang^3
#
#
#
# Elastic Constant Matrix: (Units=GPa)
#
#
# Indices 1 2 3 4 5 6 
#
# 1 85.5328 27.2046 28.2581 0.0000 0.0000 0.0000
# 2 27.2046 85.5328 28.2581 0.0000 0.0000 0.0000
# 3 28.2581 28.2581 151.8486 0.0000 0.0000 0.0000
# 4 0.0000 0.0000 0.0000 72.4377 0.0000 0.0000
# 5 0.0000 0.0000 0.0000 0.0000 72.4377 0.0000
# 6 0.0000 0.0000 0.0000 0.0000 0.0000 35.2173
#
#
#
# Elastic Compliance Matrix: (Units=1/GPa)
#
#
# Indices 1 2 3 4 5 6 
#
# 1 0.013464 -0.003681 -0.001821 0.000000 0.000000 0.000000
# 2 -0.003681 0.013464 -0.001821 0.000000 0.000000 0.000000
# 3 -0.001821 -0.001821 0.007263 0.000000 0.000000 0.000000
# 4 0.000000 0.000000 0.000000 0.013805 0.000000 0.000000
# 5 0.000000 0.000000 0.000000 0.000000 0.013805 0.000000
# 6 0.000000 0.000000 0.000000 0.000000 0.000000 0.028395
#
#
# Mechanical properties :
#
#
# Convention : Reuss Voigt Hill
#
# Bulk Modulus (GPa) = 51.15971 54.48395 52.82183
# Shear Modulus (GPa) = 44.90165 51.96478 48.43322
#
# Velocity S-wave (km/s) = 4.22976 4.55029 4.39295
# Velocity P-wave (km/s) = 6.65122 7.02251 6.83939
#
# Compressibility (1/GPa) = 0.01954663
#
# Stress axis : x y z
#
# Youngs Moduli (GPa) = 74.27441 74.27441 137.68256
#
# Poissons Ratio (x) = 0.27339 0.25065
# Poissons Ratio (y) = 0.27339 0.25065
# Poissons Ratio (z) = 0.13522 0.13522
#
# Static dielectric constant tensor:
#      x y z
#    x 2.013600 0.000000 0.000000 
#    y 0.000000 2.013600 0.000000 
#    z 0.000000 0.000000 2.031240 
# 
# From -- ./inp_files/3886.got.cif
#   From: 2010.05.17/outbox.cif.g08.bks.cpg/sg116_2_cif.got.tgz:3886.got - 2010.05.20 11:11:43.
