data_PCOD9557265
_publ_section_title
;
Structure prediction by ZEFSAII (Michael W. Deem and Ramdas Pophale) SiO2 
 PCOD9557265
Probable space group: P -4 M 2
;
_chemical_formula_sum "Si O2"
_cell_formula_units_Z 36
_cell_length_a 9.275114
_cell_length_b 9.275114
_cell_length_c 23.683608
_cell_angle_alpha 90.000000
_cell_angle_beta 90.000000
_cell_angle_gamma 90.000000
_cell_volume 2037.447264
_symmetry_space_group_name_H-M "P -4 M 2"
_symmetry_group_IT_number 115
_symmetry_cell_setting 'tetragonal'
loop_
_space_group_symop_operation_xyz
x,y,z
y,-x,-z
-x,-y,z
-y,x,-z
y,x,-z
-y,-x,-z
-x,y,z
x,-y,z
loop_
_atom_site_type_symbol
_atom_site_label
_atom_site_fract_x
_atom_site_fract_y
_atom_site_fract_z
Si Si1 0.828942 0.828942 0.500000
Si Si2 0.326802 0.830767 0.282145
Si Si3 0.669254 0.826852 0.615437
Si Si4 0.670774 0.328735 0.833096
Si Si5 0.829148 0.328260 0.051129
O O1 0.741131 0.786720 0.555657
O O2 0.000000 0.806840 0.510110
O O3 0.500000 0.815529 0.287808
O O4 0.250158 0.749775 0.333339
O O5 0.286190 0.759453 0.222308
O O6 0.291717 0.000000 0.282761
O O7 0.500000 0.791774 0.615776
O O8 0.684439 0.000000 0.621295
O O9 0.500000 0.305225 0.822798
O O10 0.691755 0.500000 0.842793
O O11 0.712683 0.242574 0.889168
O O12 0.803988 0.500000 0.043441
O O13 0.000000 0.303611 0.052633
O O14 0.756467 0.243534 0.000000
#
# Coordination Sequence:
#
# PCOD9557265 Si02
#       5
#     4   8   8   8   8
#     4   9  18  34  54  75 104 142 180 217 260 313
#     4  10  21  36  55  80 109 141 177 218 264 314
#     4  10  21  36  55  80 109 141 177 218 264 314
#     4   9  18  34  55  77 104 140 180 220 262 311
#     4  10  21  36  55  80 109 141 177 218 264 314
#
# _framework density 17.669170000000001
#
# number of rings (size 3 to 8) (size 9 to 14) (size 15 to 20)
#    0.000    2.333    0.000    2.000    0.000    6.667 
#    0.000    6.667    0.000    0.000    0.000    0.000 
#    0.000    0.000    0.000    0.000    0.000    0.000 
#
# Total GULP energy -200997.456360 kJ/mol
# GULP energy per Si atom -5583.262677 kJ/mol
# Density = 1.762895 g / cm^3
# Si number density = 17.669170 Si / 1000 Ang^3
#
#
#
# Elastic Constant Matrix: (Units=GPa)
#
#
# Indices 1 2 3 4 5 6 
#
# 1 76.7470 67.4199 106.4827 0.0000 0.0000 0.0000
# 2 67.4199 76.7472 106.4840 0.0000 0.0000 0.0000
# 3 106.4827 106.4840 224.2082 0.0000 0.0000 0.0000
# 4 0.0000 0.0000 0.0000 66.5747 0.0000 0.0000
# 5 0.0000 0.0000 0.0000 0.0000 66.5727 0.0000
# 6 0.0000 0.0000 0.0000 0.0000 0.0000 25.2472
#
#
#
# Elastic Compliance Matrix: (Units=1/GPa)
#
#
# Indices 1 2 3 4 5 6 
#
# 1 0.065227 -0.041985 -0.011038 0.000000 0.000000 0.000000
# 2 -0.041985 0.065229 -0.011040 0.000000 0.000000 0.000000
# 3 -0.011038 -0.011040 0.014946 0.000000 0.000000 0.000000
# 4 0.000000 0.000000 0.000000 0.015021 0.000000 0.000000
# 5 0.000000 0.000000 0.000000 0.000000 0.015021 0.000000
# 6 0.000000 0.000000 0.000000 0.000000 0.000000 0.039608
#
#
# Mechanical properties :
#
#
# Convention : Reuss Voigt Hill
#
# Bulk Modulus (GPa) = 57.88188 104.27507 81.07848
# Shear Modulus (GPa) = 14.32926 38.16666 26.24796
#
# Velocity S-wave (km/s) = 2.85085 4.65270 3.85843
# Velocity P-wave (km/s) = 6.60805 9.38120 8.11397
#
# Compressibility (1/GPa) = 0.01727656
#
# Stress axis : x y z
#
# Youngs Moduli (GPa) = 15.33113 15.33049 66.90863
#
# Poissons Ratio (x) = 0.64364 0.73855
# Poissons Ratio (y) = 0.64367 0.73868
# Poissons Ratio (z) = 0.16923 0.16925
#
# Static dielectric constant tensor:
#      x y z
#    x 1.589530 0.000000 0.000000 
#    y 0.000000 1.589530 0.000000 
#    z 0.000000 0.000000 1.563290 
# 
# From -- ./inp_files/5094.got.cif
#   From: 2010.05.17/outbox.cif.g08.bks.cpg/sg115_3_cif.got.tgz:5094.got - 2010.05.20 11:07:42.
