data_PCOD9557311
_publ_section_title
;
Structure prediction by ZEFSAII (Michael W. Deem and Ramdas Pophale) SiO2 
 PCOD9557311
Probable space group: P -4 M 2
;
_chemical_formula_sum "Si O2"
_cell_formula_units_Z 48
_cell_length_a 9.789881
_cell_length_b 9.789881
_cell_length_c 27.956856
_cell_angle_alpha 90.000000
_cell_angle_beta 90.000000
_cell_angle_gamma 90.000000
_cell_volume 2679.434563
_symmetry_space_group_name_H-M "P -4 M 2"
_symmetry_group_IT_number 115
_symmetry_cell_setting 'tetragonal'
loop_
_space_group_symop_operation_xyz
x,y,z
y,-x,-z
-x,-y,z
-y,x,-z
y,x,-z
-y,-x,-z
-x,y,z
x,-y,z
loop_
_atom_site_type_symbol
_atom_site_label
_atom_site_fract_x
_atom_site_fract_y
_atom_site_fract_z
Si Si1 0.338976 0.342025 0.442838
Si Si2 0.650537 0.733660 0.111255
Si Si3 0.839228 0.500000 0.974750
Si Si4 0.161943 0.660459 0.277629
Si Si5 0.160791 0.162424 0.627020
Si Si6 0.162446 0.500000 0.083519
Si Si7 0.151656 0.339723 0.787469
O O1 0.324709 0.324709 0.500000
O O2 0.500000 0.325822 0.431470
O O3 0.300951 0.500000 0.431280
O O4 0.248829 0.234128 0.414273
O O5 0.500000 0.666642 0.120011
O O6 0.627444 0.798210 0.058859
O O7 0.773483 0.630115 0.109088
O O8 0.668595 0.836202 0.155022
O O9 0.000000 0.500000 0.979652
O O10 0.783417 0.500000 0.028380
O O11 0.194783 0.500000 0.284544
O O12 0.187168 0.750859 0.325049
O O13 0.251220 0.730322 0.236443
O O14 0.000000 0.669555 0.266793
O O15 0.000000 0.196864 0.632818
O O16 0.168916 0.000000 0.616763
O O17 0.000000 0.500000 0.084423
O O18 0.166431 0.500000 0.774779
O O19 0.000000 0.293984 0.772349
#
# Coordination Sequence:
#
# PCOD9557311 Si02
#       7
#     8   8   4   8   8   4   8
#     4   9  19  36  57  82 114 151 191 235 284 335
#     4   9  20  34  56  76 110 141 179 220 269 321
#     4   9  18  34  58  78 106 145 185 223 270 323
#     4  10  22  39  59  82 111 147 186 229 280 336
#     4  10  21  37  57  82 112 148 191 234 278 333
#     4  11  21  33  51  85 115 141 177 225 272 323
#     4  10  21  38  59  82 107 141 184 227 274 330
#
# _framework density 17.914228999999999
#
# number of rings (size 3 to 8) (size 9 to 14) (size 15 to 20)
#    0.500    1.833    0.000    2.750    1.167    4.667 
#    1.500    2.500    0.000    1.500    0.000    4.667 
#    0.000    0.000    0.000    0.000    0.000    0.000 
#
# Total GULP energy -267396.950927 kJ/mol
# GULP energy per Si atom -5570.769811 kJ/mol
# Density = 1.787346 g / cm^3
# Si number density = 17.914229 Si / 1000 Ang^3
#
#
#
# Elastic Constant Matrix: (Units=GPa)
#
#
# Indices 1 2 3 4 5 6 
#
# 1 95.5831 55.3915 43.4855 0.0000 0.0000 0.0000
# 2 55.3915 95.5831 43.4855 0.0000 0.0000 0.0000
# 3 43.4855 43.4855 59.5713 0.0000 0.0000 0.0000
# 4 0.0000 0.0000 0.0000 23.3938 0.0000 0.0000
# 5 0.0000 0.0000 0.0000 0.0000 23.3938 0.0000
# 6 0.0000 0.0000 0.0000 0.0000 0.0000 22.1676
#
#
#
# Elastic Compliance Matrix: (Units=1/GPa)
#
#
# Indices 1 2 3 4 5 6 
#
# 1 0.018155 -0.006725 -0.008344 0.000000 0.000000 0.000000
# 2 -0.006725 0.018155 -0.008344 0.000000 0.000000 0.000000
# 3 -0.008344 -0.008344 0.028968 0.000000 0.000000 0.000000
# 4 0.000000 0.000000 0.000000 0.042746 0.000000 0.000000
# 5 0.000000 0.000000 0.000000 0.000000 0.042746 0.000000
# 6 0.000000 0.000000 0.000000 0.000000 0.000000 0.045111
#
#
# Mechanical properties :
#
#
# Convention : Reuss Voigt Hill
#
# Bulk Modulus (GPa) = 54.19040 59.49582 56.84311
# Shear Modulus (GPa) = 20.09167 21.01603 20.55385
#
# Velocity S-wave (km/s) = 3.35259 3.42884 3.39093
# Velocity P-wave (km/s) = 6.73068 6.99711 6.86519
#
# Compressibility (1/GPa) = 0.01845345
#
# Stress axis : x y z
#
# Youngs Moduli (GPa) = 55.07980 55.07980 34.52086
#
# Poissons Ratio (x) = 0.37043 0.28803
# Poissons Ratio (y) = 0.37043 0.28803
# Poissons Ratio (z) = 0.45957 0.45957
#
# Static dielectric constant tensor:
#      x y z
#    x 1.601120 0.000000 0.000000 
#    y 0.000000 1.601120 0.000000 
#    z 0.000000 0.000000 1.619230 
# 
# From -- ./inp_files/6209.got.cif
#   From: 2010.05.17/outbox.cif.g08.bks.cpg/sg115_4_cif.got.tgz:6209.got - 2010.05.20 11:07:42.
