data_PCOD9557071
_publ_section_title
;
Structure prediction by ZEFSAII (Michael W. Deem and Ramdas Pophale) SiO2 
 PCOD9557071
Probable space group: P -4 M 2
;
_chemical_formula_sum "Si O2"
_cell_formula_units_Z 40
_cell_length_a 14.562061
_cell_length_b 14.562061
_cell_length_c 10.123082
_cell_angle_alpha 90.000000
_cell_angle_beta 90.000000
_cell_angle_gamma 90.000000
_cell_volume 2146.636189
_symmetry_space_group_name_H-M "P -4 M 2"
_symmetry_group_IT_number 115
_symmetry_cell_setting 'tetragonal'
loop_
_space_group_symop_operation_xyz
x,y,z
y,-x,-z
-x,-y,z
-y,x,-z
y,x,-z
-y,-x,-z
-x,y,z
x,-y,z
loop_
_atom_site_type_symbol
_atom_site_label
_atom_site_fract_x
_atom_site_fract_y
_atom_site_fract_z
Si Si1 0.288819 0.778764 0.239966
Si Si2 0.604270 0.109507 0.457359
Si Si3 0.107365 0.605154 0.969967
Si Si4 0.393598 0.390539 0.656429
Si Si5 0.685301 0.894172 0.744117
O O1 0.326707 0.837862 0.362448
O O2 0.326325 0.828272 0.109988
O O3 0.333480 0.678068 0.258216
O O4 0.180096 0.765494 0.243734
O O5 0.500000 0.140785 0.431010
O O6 0.629748 0.125079 0.609896
O O7 0.608325 0.000000 0.433609
O O8 0.130988 0.500000 0.937047
O O9 0.000000 0.619281 0.934004
O O10 0.115034 0.622629 0.126068
O O11 0.375008 0.375008 0.500000
O O12 0.500000 0.366426 0.681480
O O13 0.383234 0.500000 0.679059
O O14 0.716899 0.000000 0.738166
#
# Coordination Sequence:
#
# PCOD9557071 Si02
#       5
#     8   8   8   8   8
#     4  12  21  33  56  85 110 138 181 232 278 318
#     4  10  20  35  58  87 114 140 177 227 277 323
#     4  10  21  38  59  82 109 140 177 227 283 331
#     4   9  18  31  47  73 112 152 182 209 253 322
#     4  10  22  38  54  76 111 153 188 218 265 329
#
# _framework density 18.633804999999999
#
# number of rings (size 3 to 8) (size 9 to 14) (size 15 to 20)
#    0.000    1.800    0.000    6.000    0.000    7.200 
#    0.000    0.000    0.000    2.400    0.000   14.000 
#    0.000    0.000    0.000    0.000    0.000    0.000 
#
# Total GULP energy -223589.319761 kJ/mol
# GULP energy per Si atom -5589.732994 kJ/mol
# Density = 1.859139 g / cm^3
# Si number density = 18.633805 Si / 1000 Ang^3
#
#
#
# Elastic Constant Matrix: (Units=GPa)
#
#
# Indices 1 2 3 4 5 6 
#
# 1 67.2108 40.3333 20.9903 0.0000 0.0000 0.0000
# 2 40.3333 67.2108 20.9903 0.0000 0.0000 0.0000
# 3 20.9903 20.9903 62.5514 0.0000 0.0000 0.0000
# 4 0.0000 0.0000 0.0000 20.8734 0.0000 0.0000
# 5 0.0000 0.0000 0.0000 0.0000 20.8734 0.0000
# 6 0.0000 0.0000 0.0000 0.0000 0.0000 14.5670
#
#
#
# Elastic Compliance Matrix: (Units=1/GPa)
#
#
# Indices 1 2 3 4 5 6 
#
# 1 0.023953 -0.013253 -0.003591 0.000000 0.000000 0.000000
# 2 -0.013253 0.023953 -0.003591 0.000000 0.000000 0.000000
# 3 -0.003591 -0.003591 0.018397 0.000000 0.000000 0.000000
# 4 0.000000 0.000000 0.000000 0.047908 0.000000 0.000000
# 5 0.000000 0.000000 0.000000 0.000000 0.047908 0.000000
# 6 0.000000 0.000000 0.000000 0.000000 0.000000 0.068648
#
#
# Mechanical properties :
#
#
# Convention : Reuss Voigt Hill
#
# Bulk Modulus (GPa) = 39.31680 40.17784 39.74732
# Shear Modulus (GPa) = 17.84991 18.90668 18.37830
#
# Velocity S-wave (km/s) = 3.09840 3.18880 3.14393
# Velocity P-wave (km/s) = 5.82629 5.93014 5.87845
#
# Compressibility (1/GPa) = 0.02543442
#
# Stress axis : x y z
#
# Youngs Moduli (GPa) = 41.74841 41.74841 54.35766
#
# Poissons Ratio (x) = 0.55329 0.19518
# Poissons Ratio (y) = 0.55329 0.19518
# Poissons Ratio (z) = 0.14990 0.14990
#
# Static dielectric constant tensor:
#      x y z
#    x 1.640320 0.000000 0.000000 
#    y 0.000000 1.640320 0.000000 
#    z 0.000000 0.000000 1.646430 
# 
# From -- ./inp_files/1577.got.cif
#   From: 2010.05.17/outbox.cif.g08.bks.cpg/sg115_1_cif.got.tgz:1577.got - 2010.05.20 11:07:42.
