data_PCOD9557947
_publ_section_title
;
Structure prediction by ZEFSAII (Michael W. Deem and Ramdas Pophale) SiO2 
 PCOD9557947
Probable space group: P -4 C 2
;
_chemical_formula_sum "Si O2"
_cell_formula_units_Z 36
_cell_length_a 9.571533
_cell_length_b 9.571533
_cell_length_c 20.859326
_cell_angle_alpha 90.000000
_cell_angle_beta 90.000000
_cell_angle_gamma 90.000000
_cell_volume 1911.011381
_symmetry_space_group_name_H-M "P -4 C 2"
_symmetry_group_IT_number 116
_symmetry_cell_setting 'tetragonal'
loop_
_space_group_symop_operation_xyz
x,y,z
y,-x,-z
-x,-y,z
-y,x,-z
y,x,1/2-z
-y,-x,1/2-z
-x,y,1/2+z
x,-y,1/2+z
loop_
_atom_site_type_symbol
_atom_site_label
_atom_site_fract_x
_atom_site_fract_y
_atom_site_fract_z
Si Si1 0.005597 0.225376 0.232552
Si Si2 0.000000 0.500000 0.517630
Si Si3 0.000000 0.000000 0.500000
Si Si4 0.574530 0.223220 0.082018
Si Si5 0.500000 0.500000 0.000000
Si Si6 0.106635 0.755205 0.093906
Si Si7 0.500000 0.000000 0.181648
O O1 0.150159 0.150159 0.250000
O O2 0.988922 0.245230 0.156758
O O3 0.988719 0.365170 0.273331
O O4 0.883596 0.116405 0.250000
O O5 0.890358 0.416651 0.474525
O O6 0.915719 0.610208 0.558354
O O7 0.880886 0.063392 0.453529
O O8 0.519579 0.364893 0.047432
O O9 0.729613 0.239151 0.110134
O O10 0.487466 0.138390 0.136208
#
# Coordination Sequence:
#
# PCOD9557947 Si02
#       7
#     8   4   2   8   2   8   4
#     4  11  24  44  68  95 130 179 229 273 326 395
#     4  11  23  38  64  98 129 171 212 268 340 397
#     4  12  24  36  70 100 128 164 216 278 340 392
#     4  11  24  41  68  96 140 172 216 279 337 396
#     4  12  24  44  68 106 140 176 224 278 348 408
#     4  12  23  41  66  99 131 169 222 277 334 394
#     4  11  25  48  66  98 137 181 228 276 332 397
#
# _framework density 18.838191999999999
#
# number of rings (size 3 to 8) (size 9 to 14) (size 15 to 20)
#    0.000    0.667    6.667    2.000    0.000    1.778 
#    4.000    0.000    0.000    0.000    0.000    0.000 
#    0.000    0.000    0.000    0.000    0.000    0.000 
#
# Total GULP energy -200909.062005 kJ/mol
# GULP energy per Si atom -5580.807278 kJ/mol
# Density = 1.879532 g / cm^3
# Si number density = 18.838192 Si / 1000 Ang^3
#
#
#
# Elastic Constant Matrix: (Units=GPa)
#
#
# Indices 1 2 3 4 5 6 
#
# 1 93.2916 16.3730 29.5288 0.0000 0.0000 0.0000
# 2 16.3730 93.2920 29.5290 0.0000 0.0000 0.0000
# 3 29.5288 29.5290 107.7472 0.0000 0.0000 0.0000
# 4 0.0000 0.0000 0.0000 44.8548 0.0000 0.0000
# 5 0.0000 0.0000 0.0000 0.0000 44.8539 0.0000
# 6 0.0000 0.0000 0.0000 0.0000 0.0000 25.1921
#
#
#
# Elastic Compliance Matrix: (Units=1/GPa)
#
#
# Indices 1 2 3 4 5 6 
#
# 1 0.011849 -0.001152 -0.002932 0.000000 0.000000 0.000000
# 2 -0.001152 0.011849 -0.002932 0.000000 0.000000 0.000000
# 3 -0.002932 -0.002932 0.010888 0.000000 0.000000 0.000000
# 4 0.000000 0.000000 0.000000 0.022294 0.000000 0.000000
# 5 0.000000 0.000000 0.000000 0.000000 0.022295 0.000000
# 6 0.000000 0.000000 0.000000 0.000000 0.000000 0.039695
#
#
# Mechanical properties :
#
#
# Convention : Reuss Voigt Hill
#
# Bulk Modulus (GPa) = 48.64755 49.46582 49.05668
# Shear Modulus (GPa) = 35.77767 37.57350 36.67559
#
# Velocity S-wave (km/s) = 4.36272 4.47087 4.41713
# Velocity P-wave (km/s) = 7.15945 7.27783 7.21888
#
# Compressibility (1/GPa) = 0.02055602
#
# Stress axis : x y z
#
# Youngs Moduli (GPa) = 84.39432 84.39461 91.84504
#
# Poissons Ratio (x) = 0.09719 0.26926
# Poissons Ratio (y) = 0.09719 0.26927
# Poissons Ratio (z) = 0.24742 0.24742
#
# Static dielectric constant tensor:
#      x y z
#    x 1.643640 0.000000 0.000000 
#    y 0.000000 1.643640 0.000000 
#    z 0.000000 0.000000 1.677510 
# 
# From -- ./inp_files/3984.got.cif
#   From: 2010.05.17/outbox.cif.g08.bks.cpg/sg116_2_cif.got.tgz:3984.got - 2010.05.20 11:11:43.
