data_PCOD9557514
_publ_section_title
;
Structure prediction by ZEFSAII (Michael W. Deem and Ramdas Pophale) SiO2 
 PCOD9557514
Probable space group: P -4 C 2
;
_chemical_formula_sum "Si O2"
_cell_formula_units_Z 54
_cell_length_a 11.198902
_cell_length_b 11.198902
_cell_length_c 21.114472
_cell_angle_alpha 90.000000
_cell_angle_beta 90.000000
_cell_angle_gamma 90.000000
_cell_volume 2648.080078
_symmetry_space_group_name_H-M "P -4 C 2"
_symmetry_group_IT_number 116
_symmetry_cell_setting 'tetragonal'
loop_
_space_group_symop_operation_xyz
x,y,z
y,-x,-z
-x,-y,z
-y,x,-z
y,x,1/2-z
-y,-x,1/2-z
-x,y,1/2+z
x,-y,1/2+z
loop_
_atom_site_type_symbol
_atom_site_label
_atom_site_fract_x
_atom_site_fract_y
_atom_site_fract_z
Si Si1 0.761105 0.558789 0.063523
Si Si2 0.808126 0.315477 0.115002
Si Si3 0.801941 0.679977 0.395972
Si Si4 0.637574 0.005483 0.189659
Si Si5 0.176525 0.412838 0.928414
Si Si6 0.204205 0.795796 0.250000
Si Si7 0.500000 0.500000 0.500000
Si Si8 0.813507 0.069141 0.490237
O O1 0.815400 0.454700 0.105244
O O2 0.751083 0.680106 0.101991
O O3 0.846716 0.574918 0.002581
O O4 0.625453 0.525850 0.038137
O O5 0.691857 0.271995 0.076529
O O6 0.780696 0.281230 0.186687
O O7 0.913618 0.244493 0.079149
O O8 0.774948 0.540684 0.407086
O O9 0.878858 0.726356 0.456017
O O10 0.876963 0.684686 0.331729
O O11 0.618251 0.074258 0.122053
O O12 0.742203 0.075889 0.226668
O O13 0.500000 0.000000 0.216621
O O14 0.934911 0.147372 0.493842
#
# Coordination Sequence:
#
# PCOD9557514 Si02
#       8
#     8   8   8   8   8   4   2   8
#     4  12  18  30  57  95 133 160 199 266 339 392
#     4  11  21  38  61  92 125 169 213 258 330 410
#     4  11  20  34  58  94 126 159 203 266 330 392
#     4   9  21  37  65  87 124 171 226 265 324 396
#     4  10  16  33  58  91 122 165 196 261 332 393
#     4  10  22  42  66  84 126 180 226 262 324 400
#     4  12  16  28  52  90 144 160 188 244 358 420
#     4  11  22  36  57  86 127 154 205 267 324 376
#
# _framework density 20.392133999999999
#
# number of rings (size 3 to 8) (size 9 to 14) (size 15 to 20)
#    0.000    1.333    5.926    1.778    0.000    0.000 
#    0.000    2.222    0.000   34.222    0.000    0.000 
#    0.000    0.000    0.000    0.000    0.000    0.000 
#
# Total GULP energy -301007.537119 kJ/mol
# GULP energy per Si atom -5574.213650 kJ/mol
# Density = 2.034572 g / cm^3
# Si number density = 20.392134 Si / 1000 Ang^3
#
#
#
# Elastic Constant Matrix: (Units=GPa)
#
#
# Indices 1 2 3 4 5 6 
#
# 1 67.2128 15.9083 19.3014 0.0000 0.0000 0.0000
# 2 15.9083 67.2130 19.3011 0.0000 0.0000 0.0000
# 3 19.3014 19.3011 73.2426 0.0000 0.0000 0.0000
# 4 0.0000 0.0000 0.0000 4.4994 0.0000 0.0000
# 5 0.0000 0.0000 0.0000 0.0000 4.4995 0.0000
# 6 0.0000 0.0000 0.0000 0.0000 0.0000 17.7538
#
#
#
# Elastic Compliance Matrix: (Units=1/GPa)
#
#
# Indices 1 2 3 4 5 6 
#
# 1 0.016600 -0.002892 -0.003613 0.000000 0.000000 0.000000
# 2 -0.002892 0.016600 -0.003612 0.000000 0.000000 0.000000
# 3 -0.003613 -0.003612 0.015557 0.000000 0.000000 0.000000
# 4 0.000000 0.000000 0.000000 0.222251 0.000000 0.000000
# 5 0.000000 0.000000 0.000000 0.000000 0.222244 0.000000
# 6 0.000000 0.000000 0.000000 0.000000 0.000000 0.056326
#
#
# Mechanical properties :
#
#
# Convention : Reuss Voigt Hill
#
# Bulk Modulus (GPa) = 35.05834 35.18780 35.12307
# Shear Modulus (GPa) = 8.63082 15.56106 12.09594
#
# Velocity S-wave (km/s) = 2.05952 2.76541 2.43814
# Velocity P-wave (km/s) = 4.78382 5.24306 5.01869
#
# Compressibility (1/GPa) = 0.02852389
#
# Stress axis : x y z
#
# Youngs Moduli (GPa) = 60.24125 60.24164 64.27886
#
# Poissons Ratio (x) = 0.17419 0.23221
# Poissons Ratio (y) = 0.17419 0.23220
# Poissons Ratio (z) = 0.21762 0.21762
#
# Static dielectric constant tensor:
#      x y z
#    x 1.774170 0.000000 0.000000 
#    y 0.000000 1.774170 0.000000 
#    z 0.000000 0.000000 1.715640 
# 
# From -- ./inp_files/4174.got.cif
#   From: 2010.05.17/outbox.cif.g08.bks.cpg/sg116_3_cif.got.tgz:4174.got - 2010.05.20 11:11:43.
