data_PCOD9557235
_publ_section_title
;
Structure prediction by ZEFSAII (Michael W. Deem and Ramdas Pophale) SiO2 
 PCOD9557235
Probable space group: P -4 M 2
;
_chemical_formula_sum "Si O2"
_cell_formula_units_Z 40
_cell_length_a 9.396666
_cell_length_b 9.396666
_cell_length_c 26.201992
_cell_angle_alpha 90.000000
_cell_angle_beta 90.000000
_cell_angle_gamma 90.000000
_cell_volume 2313.565984
_symmetry_space_group_name_H-M "P -4 M 2"
_symmetry_group_IT_number 115
_symmetry_cell_setting 'tetragonal'
loop_
_space_group_symop_operation_xyz
x,y,z
y,-x,-z
-x,-y,z
-y,x,-z
y,x,-z
-y,-x,-z
-x,y,z
x,-y,z
loop_
_atom_site_type_symbol
_atom_site_label
_atom_site_fract_x
_atom_site_fract_y
_atom_site_fract_z
Si Si1 0.167036 0.329589 0.544104
Si Si2 0.832731 0.670650 0.250733
Si Si3 0.167033 0.829573 0.058911
Si Si4 0.666736 0.670676 0.147217
Si Si5 0.331915 0.171042 0.339972
O O1 0.254456 0.254456 0.500000
O O2 0.180888 0.500000 0.540114
O O3 0.211172 0.290823 0.601953
O O4 0.000000 0.294724 0.538795
O O5 0.818340 0.500000 0.257192
O O6 0.751181 0.710233 0.198669
O O7 0.760911 0.749847 0.298084
O O8 0.000000 0.704038 0.246722
O O9 0.263301 0.748198 0.099177
O O10 0.000000 0.794223 0.066752
O O11 0.181207 0.000000 0.064997
O O12 0.203766 0.796235 0.000000
O O13 0.500000 0.705590 0.152186
O O14 0.679386 0.500000 0.140976
O O15 0.500000 0.203599 0.333060
O O16 0.316848 0.000000 0.335650
#
# Coordination Sequence:
#
# PCOD9557235 Si02
#       5
#     8   8   8   8   8
#     4   9  19  35  53  75 104 136 171 211 254 303
#     4  10  21  36  54  77 104 135 172 213 258 307
#     4   9  19  36  56  78 105 137 173 212 254 302
#     4  10  21  36  54  77 105 137 173 212 255 305
#     4   9  19  36  55  75 102 136 172 211 256 305
#
# _framework density 17.289325999999999
#
# number of rings (size 3 to 8) (size 9 to 14) (size 15 to 20)
#    0.000    2.600    0.000    3.000    0.000    6.800 
#    0.000    9.000    0.000    0.000    0.000    0.000 
#    0.000    0.000    0.000    0.000    0.000    0.000 
#
# Total GULP energy -223185.968382 kJ/mol
# GULP energy per Si atom -5579.649210 kJ/mol
# Density = 1.724998 g / cm^3
# Si number density = 17.289326 Si / 1000 Ang^3
#
#
#
# Elastic Constant Matrix: (Units=GPa)
#
#
# Indices 1 2 3 4 5 6 
#
# 1 69.5482 56.0912 90.7722 0.0000 0.0000 0.0000
# 2 56.0912 69.5484 90.7724 0.0000 0.0000 0.0000
# 3 90.7722 90.7724 182.5296 0.0000 0.0000 0.0000
# 4 0.0000 0.0000 0.0000 40.4630 0.0000 0.0000
# 5 0.0000 0.0000 0.0000 0.0000 40.4628 0.0000
# 6 0.0000 0.0000 0.0000 0.0000 0.0000 33.8814
#
#
#
# Elastic Compliance Matrix: (Units=1/GPa)
#
#
# Indices 1 2 3 4 5 6 
#
# 1 0.051296 -0.023014 -0.014065 0.000000 0.000000 0.000000
# 2 -0.023014 0.051296 -0.014065 0.000000 0.000000 0.000000
# 3 -0.014065 -0.014065 0.019468 0.000000 0.000000 0.000000
# 4 0.000000 0.000000 0.000000 0.024714 0.000000 0.000000
# 5 0.000000 0.000000 0.000000 0.000000 0.024714 0.000000
# 6 0.000000 0.000000 0.000000 0.000000 0.000000 0.029515
#
#
# Mechanical properties :
#
#
# Convention : Reuss Voigt Hill
#
# Bulk Modulus (GPa) = 50.57389 88.54420 69.55905
# Shear Modulus (GPa) = 16.13517 28.56081 22.34799
#
# Velocity S-wave (km/s) = 3.05822 4.06881 3.59916
# Velocity P-wave (km/s) = 6.46415 8.56726 7.58892
#
# Compressibility (1/GPa) = 0.01977305
#
# Stress axis : x y z
#
# Youngs Moduli (GPa) = 19.49452 19.49453 51.36688
#
# Poissons Ratio (x) = 0.44864 0.72248
# Poissons Ratio (y) = 0.44864 0.72248
# Poissons Ratio (z) = 0.27419 0.27419
#
# Static dielectric constant tensor:
#      x y z
#    x 1.570480 0.000000 0.000000 
#    y 0.000000 1.570480 0.000000 
#    z 0.000000 0.000000 1.563120 
# 
# From -- ./inp_files/5073.got.cif
#   From: 2010.05.17/outbox.cif.g08.bks.cpg/sg115_3_cif.got.tgz:5073.got - 2010.05.20 11:07:42.
