data_PCOD9557513
_publ_section_title
;
Structure prediction by ZEFSAII (Michael W. Deem and Ramdas Pophale) SiO2 
 PCOD9557513
Probable space group: P -4 C 2
;
_chemical_formula_sum "Si O2"
_cell_formula_units_Z 48
_cell_length_a 12.643544
_cell_length_b 12.643544
_cell_length_c 14.505259
_cell_angle_alpha 90.000000
_cell_angle_beta 90.000000
_cell_angle_gamma 90.000000
_cell_volume 2318.799170
_symmetry_space_group_name_H-M "P -4 C 2"
_symmetry_group_IT_number 116
_symmetry_cell_setting 'tetragonal'
loop_
_space_group_symop_operation_xyz
x,y,z
y,-x,-z
-x,-y,z
-y,x,-z
y,x,1/2-z
-y,-x,1/2-z
-x,y,1/2+z
x,-y,1/2+z
loop_
_atom_site_type_symbol
_atom_site_label
_atom_site_fract_x
_atom_site_fract_y
_atom_site_fract_z
Si Si1 0.463091 0.647648 0.946996
Si Si2 0.744836 0.495744 0.239540
Si Si3 0.956437 0.656382 0.455927
Si Si4 0.711639 0.127222 0.719755
Si Si5 0.172670 0.437129 0.929330
Si Si6 0.385223 0.054164 0.840978
O O1 0.488299 0.651877 0.837347
O O2 0.564405 0.620918 0.011911
O O3 0.424527 0.762847 0.976667
O O4 0.794960 0.612047 0.257335
O O5 0.745657 0.445812 0.343232
O O6 0.829399 0.417216 0.191586
O O7 0.894626 0.730096 0.387491
O O8 0.894840 0.545352 0.435971
O O9 0.946591 0.675672 0.563260
O O10 0.078713 0.647221 0.425625
O O11 0.816692 0.183309 0.750000
O O12 0.675567 0.018276 0.767904
O O13 0.500000 0.000000 0.857777
#
# Coordination Sequence:
#
# PCOD9557513 Si02
#       6
#     8   8   8   8   8   8
#     4  11  25  39  52  77 117 162 205 245 285 343
#     4  10  20  33  53  75 106 156 201 233 282 343
#     4  10  17  32  55  82 109 146 189 244 298 335
#     4  10  21  31  52  90 120 140 181 246 307 353
#     4  10  18  34  56  74 105 150 194 246 289 337
#     4  10  16  31  52  77 112 150 189 239 292 340
#
# _framework density 20.700371000000001
#
# number of rings (size 3 to 8) (size 9 to 14) (size 15 to 20)
#    0.000    1.833    5.000    1.000    4.667    0.667 
#    0.000    1.667    0.000    0.000    0.000    0.000 
#    0.000   10.000    0.000    0.000    0.000    0.000 
#
# Total GULP energy -267378.835877 kJ/mol
# GULP energy per Si atom -5570.392414 kJ/mol
# Density = 2.065326 g / cm^3
# Si number density = 20.700371 Si / 1000 Ang^3
#
#
#
# Elastic Constant Matrix: (Units=GPa)
#
#
# Indices 1 2 3 4 5 6 
#
# 1 28.8343 9.4778 4.5716 0.0000 0.0000 0.0000
# 2 9.4778 28.8391 4.5734 0.0000 0.0000 0.0000
# 3 4.5716 4.5734 107.9469 0.0000 0.0000 0.0000
# 4 0.0000 0.0000 0.0000 11.2017 0.0000 0.0000
# 5 0.0000 0.0000 0.0000 0.0000 11.1993 0.0000
# 6 0.0000 0.0000 0.0000 0.0000 0.0000 16.0170
#
#
#
# Elastic Compliance Matrix: (Units=1/GPa)
#
#
# Indices 1 2 3 4 5 6 
#
# 1 0.039014 -0.012645 -0.001117 0.000000 0.000000 0.000000
# 2 -0.012645 0.039008 -0.001117 0.000000 0.000000 0.000000
# 3 -0.001117 -0.001117 0.009358 0.000000 0.000000 0.000000
# 4 0.000000 0.000000 0.000000 0.089272 0.000000 0.000000
# 5 0.000000 0.000000 0.000000 0.000000 0.089291 0.000000
# 6 0.000000 0.000000 0.000000 0.000000 0.000000 0.062434
#
#
# Mechanical properties :
#
#
# Convention : Reuss Voigt Hill
#
# Bulk Modulus (GPa) = 17.35396 22.54066 19.94731
# Shear Modulus (GPa) = 13.25058 17.48345 15.36701
#
# Velocity S-wave (km/s) = 2.53279 2.90935 2.72757
# Velocity P-wave (km/s) = 4.11764 4.71152 4.42455
#
# Compressibility (1/GPa) = 0.05762375
#
# Stress axis : x y z
#
# Youngs Moduli (GPa) = 25.63174 25.63587 106.85557
#
# Poissons Ratio (x) = 0.32416 0.11931
# Poissons Ratio (y) = 0.32410 0.11937
# Poissons Ratio (z) = 0.02862 0.02864
#
# Static dielectric constant tensor:
#      x y z
#    x 1.750960 0.000000 0.000000 
#    y 0.000000 1.750960 0.000000 
#    z 0.000000 0.000000 1.865660 
# 
# From -- ./inp_files/2657.got.cif
#   From: 2010.05.17/outbox.cif.g08.bks.cpg/sg116_2_cif.got.tgz:2657.got - 2010.05.20 11:11:43.
