data_PCOD9557335
_publ_section_title
;
Structure prediction by ZEFSAII (Michael W. Deem and Ramdas Pophale) SiO2 
 PCOD9557335
Probable space group: P -4 M 2
;
_chemical_formula_sum "Si O2"
_cell_formula_units_Z 20
_cell_length_a 9.114761
_cell_length_b 9.114761
_cell_length_c 13.121213
_cell_angle_alpha 90.000000
_cell_angle_beta 90.000000
_cell_angle_gamma 90.000000
_cell_volume 1090.095524
_symmetry_space_group_name_H-M "P -4 M 2"
_symmetry_group_IT_number 115
_symmetry_cell_setting 'tetragonal'
loop_
_space_group_symop_operation_xyz
x,y,z
y,-x,-z
-x,-y,z
-y,x,-z
y,x,-z
-y,-x,-z
-x,y,z
x,-y,z
loop_
_atom_site_type_symbol
_atom_site_label
_atom_site_fract_x
_atom_site_fract_y
_atom_site_fract_z
Si Si1 0.673628 0.824629 0.788382
Si Si2 0.174155 0.325400 0.596680
Si Si3 0.173922 0.826079 0.000000
O O1 0.500000 0.797223 0.783526
O O2 0.756004 0.739634 0.699153
O O3 0.737264 0.784273 0.899128
O O4 0.697399 0.000000 0.775310
O O5 0.248943 0.248943 0.500000
O O6 0.197696 0.500000 0.591698
O O7 0.000000 0.297692 0.595368
O O8 0.000000 0.803583 0.981412
#
# Coordination Sequence:
#
# PCOD9557335 Si02
#       3
#     8   8   4
#     4  10  21  37  58  85 116 149 187 231 278 330
#     4  11  24  40  59  84 113 146 186 231 279 333
#     4   9  18  34  56  81 112 152 194 233 274 323
#
# _framework density 18.347014999999999
#
# number of rings (size 3 to 8) (size 9 to 14) (size 15 to 20)
#    0.000    1.800    0.000    3.600    0.000   12.000 
#    0.000    4.000    0.000    0.000    0.000    0.000 
#    0.000    0.000    0.000    0.000    0.000    0.000 
#
# Total GULP energy -111794.498595 kJ/mol
# GULP energy per Si atom -5589.724930 kJ/mol
# Density = 1.830526 g / cm^3
# Si number density = 18.347015 Si / 1000 Ang^3
#
#
#
# Elastic Constant Matrix: (Units=GPa)
#
#
# Indices 1 2 3 4 5 6 
#
# 1 107.4499 103.2611 115.7318 0.0000 0.0000 0.0000
# 2 103.2611 107.4504 115.7316 0.0000 0.0000 0.0000
# 3 115.7318 115.7316 205.5647 0.0000 0.0000 0.0000
# 4 0.0000 0.0000 0.0000 324.1042 0.0000 0.0000
# 5 0.0000 0.0000 0.0000 0.0000 324.3622 0.0000
# 6 0.0000 0.0000 0.0000 0.0000 0.0000 27.5398
#
#
#
# Elastic Compliance Matrix: (Units=1/GPa)
#
#
# Indices 1 2 3 4 5 6 
#
# 1 0.125580 -0.113141 -0.007003 0.000000 0.000000 0.000000
# 2 -0.113141 0.125578 -0.007002 0.000000 0.000000 0.000000
# 3 -0.007003 -0.007002 0.012749 0.000000 0.000000 0.000000
# 4 0.000000 0.000000 0.000000 0.003085 0.000000 0.000000
# 5 0.000000 0.000000 0.000000 0.000000 0.003083 0.000000
# 6 0.000000 0.000000 0.000000 0.000000 0.000000 0.036311
#
#
# Mechanical properties :
#
#
# Convention : Reuss Voigt Hill
#
# Bulk Modulus (GPa) = 104.00067 121.10155 112.55111
# Shear Modulus (GPa) = 8.86708 140.91727 74.89217
#
# Velocity S-wave (km/s) = 2.20079 8.77345 6.39597
# Velocity P-wave (km/s) = 7.95402 12.99156 10.77142
#
# Compressibility (1/GPa) = 0.00961532
#
# Stress axis : x y z
#
# Youngs Moduli (GPa) = 7.96305 7.96321 78.43514
#
# Poissons Ratio (x) = 0.90096 0.54931
# Poissons Ratio (y) = 0.90095 0.54918
# Poissons Ratio (z) = 0.05577 0.05576
#
# Static dielectric constant tensor:
#      x y z
#    x 1.611110 0.000000 0.000000 
#    y 0.000000 1.611110 0.000000 
#    z 0.000000 0.000000 1.591210 
# 
# From -- ./inp_files/2254.got.cif
#   From: 2010.05.17/outbox.cif.g08.bks.cpg/sg115_2_cif.got.tgz:2254.got - 2010.05.20 11:07:42.
