data_PCOD9557134
_publ_section_title
;
Structure prediction by ZEFSAII (Michael W. Deem and Ramdas Pophale) SiO2 
 PCOD9557134
Probable space group: P -4 M 2
;
_chemical_formula_sum "Si O2"
_cell_formula_units_Z 48
_cell_length_a 9.290899
_cell_length_b 9.290899
_cell_length_c 32.297693
_cell_angle_alpha 90.000000
_cell_angle_beta 90.000000
_cell_angle_gamma 90.000000
_cell_volume 2787.962834
_symmetry_space_group_name_H-M "P -4 M 2"
_symmetry_group_IT_number 115
_symmetry_cell_setting 'tetragonal'
loop_
_space_group_symop_operation_xyz
x,y,z
y,-x,-z
-x,-y,z
-y,x,-z
y,x,-z
-y,-x,-z
-x,y,z
x,-y,z
loop_
_atom_site_type_symbol
_atom_site_label
_atom_site_fract_x
_atom_site_fract_y
_atom_site_fract_z
Si Si1 0.830509 0.827221 0.546962
Si Si2 0.670650 0.828783 0.294679
Si Si3 0.329141 0.674457 0.955526
Si Si4 0.326613 0.671302 0.864626
Si Si5 0.669318 0.672249 0.621137
Si Si6 0.827722 0.169734 0.789663
O O1 0.787073 0.787073 0.500000
O O2 0.740407 0.749901 0.582174
O O3 0.000000 0.793049 0.551915
O O4 0.816156 0.000000 0.550242
O O5 0.500000 0.803701 0.288043
O O6 0.716025 0.745567 0.335975
O O7 0.756693 0.784992 0.253724
O O8 0.691121 0.000000 0.301027
O O9 0.500000 0.705838 0.955358
O O10 0.316867 0.500000 0.955948
O O11 0.274142 0.720824 0.910474
O O12 0.271482 0.728519 0.000000
O O13 0.500000 0.688967 0.862991
O O14 0.298079 0.500000 0.860790
O O15 0.252002 0.755906 0.827810
O O16 0.500000 0.702265 0.623136
O O17 0.689332 0.500000 0.616977
O O18 0.000000 0.190394 0.794113
O O19 0.798287 0.000000 0.788582
#
# Coordination Sequence:
#
# PCOD9557134 Si02
#       6
#     8   8   8   8   8   8
#     4   9  19  36  56  77 102 135 175 213 245 281
#     4   9  18  34  54  72  93 127 169 207 243 287
#     4   7  10  19  38  65  94 120 149 190 238 284
#     4   9  17  29  48  74  99 124 157 198 244 291
#     4  10  21  35  52  78 109 135 160 197 247 298
#     4  10  21  35  50  70  97 129 164 201 242 289
#
# _framework density 17.216874000000001
#
# number of rings (size 3 to 8) (size 9 to 14) (size 15 to 20)
#    0.000    3.000    0.000    3.000    0.000    4.667 
#    0.000    5.833    0.000    1.000    0.000    5.833 
#    0.000    0.000    0.000    0.000    0.000    0.000 
#
# Total GULP energy -267410.202618 kJ/mol
# GULP energy per Si atom -5571.045888 kJ/mol
# Density = 1.717769 g / cm^3
# Si number density = 17.216874 Si / 1000 Ang^3
#
#
#
# Elastic Constant Matrix: (Units=GPa)
#
#
# Indices 1 2 3 4 5 6 
#
# 1 39.6697 40.2843 77.9366 0.0000 0.0000 0.0000
# 2 40.2843 39.6696 77.9365 0.0000 0.0000 0.0000
# 3 77.9366 77.9365 229.4782 0.0000 0.0000 0.0000
# 4 0.0000 0.0000 0.0000 105.2745 0.0000 0.0000
# 5 0.0000 0.0000 0.0000 0.0000 105.2713 0.0000
# 6 0.0000 0.0000 0.0000 0.0000 0.0000 23.6309
#
#
#
# Elastic Compliance Matrix: (Units=1/GPa)
#
#
# Indices 1 2 3 4 5 6 
#
# 1 -0.794958 0.831977 -0.012573 0.000000 0.000000 0.000000
# 2 0.831977 -0.794965 -0.012570 0.000000 0.000000 0.000000
# 3 -0.012573 -0.012570 0.012897 0.000000 0.000000 0.000000
# 4 0.000000 0.000000 0.000000 0.009499 0.000000 0.000000
# 5 0.000000 0.000000 0.000000 0.000000 0.009499 0.000000
# 6 0.000000 0.000000 0.000000 0.000000 0.000000 0.042317
#
#
# Mechanical properties :
#
#
# Convention : Reuss Voigt Hill
#
# Bulk Modulus (GPa) = 27.29078 77.90360 52.59719
# Shear Modulus (GPa) = -1.60402 54.34603 26.37100
#
# Velocity S-wave (km/s) = -0.96627 5.62442 3.91793
# Velocity P-wave (km/s) = 3.82631 9.35550 7.14724
#
# Compressibility (1/GPa) = 0.03664242
#
# Stress axis : x y z
#
# Youngs Moduli (GPa) = -1.25793 -1.25792 77.53821
#
# Poissons Ratio (x) = 1.04656 0.97485
# Poissons Ratio (y) = 1.04657 0.97468
# Poissons Ratio (z) = -0.01582 -0.01581
#
# Static dielectric constant tensor:
#      x y z
#    x 1.569560 0.000000 0.000000 
#    y 0.000000 1.569560 0.000000 
#    z 0.000000 0.000000 1.594160 
# 
# From -- ./inp_files/5914.got.cif
#   From: 2010.05.17/outbox.cif.g08.bks.cpg/sg115_3_cif.got.tgz:5914.got - 2010.05.20 11:07:42.
