data_PCOD9557099
_publ_section_title
;
Structure prediction by ZEFSAII (Michael W. Deem and Ramdas Pophale) SiO2 
 PCOD9557099
Probable space group: P -4 M 2
;
_chemical_formula_sum "Si O2"
_cell_formula_units_Z 40
_cell_length_a 7.858456
_cell_length_b 7.858456
_cell_length_c 30.811112
_cell_angle_alpha 90.000000
_cell_angle_beta 90.000000
_cell_angle_gamma 90.000000
_cell_volume 1902.750411
_symmetry_space_group_name_H-M "P -4 M 2"
_symmetry_group_IT_number 115
_symmetry_cell_setting 'tetragonal'
loop_
_space_group_symop_operation_xyz
x,y,z
y,-x,-z
-x,-y,z
-y,x,-z
y,x,-z
-y,-x,-z
-x,y,z
x,-y,z
loop_
_atom_site_type_symbol
_atom_site_label
_atom_site_fract_x
_atom_site_fract_y
_atom_site_fract_z
Si Si1 0.206107 0.690065 0.548136
Si Si2 0.295246 0.000000 0.708500
Si Si3 0.196368 0.795451 0.953836
Si Si4 0.307528 0.298479 0.234008
Si Si5 0.295652 0.194905 0.138707
Si Si6 0.794424 0.000000 0.607978
O O1 0.273813 0.726188 0.500000
O O2 0.254077 0.500000 0.561880
O O3 0.264603 0.833935 0.581572
O O4 0.000000 0.699078 0.545589
O O5 0.228057 0.168822 0.732684
O O6 0.500000 0.000000 0.714163
O O7 0.258723 0.000000 0.657718
O O8 0.276349 0.756015 0.907222
O O9 0.000000 0.731644 0.951013
O O10 0.190999 0.000000 0.957751
O O11 0.268398 0.731603 0.000000
O O12 0.500000 0.226600 0.237931
O O13 0.320825 0.500000 0.241719
O O14 0.245477 0.275795 0.184385
O O15 0.500000 0.192903 0.138579
O O16 0.231200 0.000000 0.139317
O O17 0.000000 0.000000 0.606881
#
# Coordination Sequence:
#
# PCOD9557099 Si02
#       6
#     8   4   8   8   8   4
#     4  10  20  36  61  89 120 160 201 241 290 347
#     4  10  22  38  56  78 106 144 188 228 274 337
#     4   8  14  25  41  62  90 123 156 194 247 310
#     4   9  19  36  54  72 100 137 175 223 279 329
#     4   9  17  29  47  71  95 122 162 212 261 312
#     4  10  22  38  58  86 124 156 188 242 296 333
#
# _framework density 21.022200000000002
#
# number of rings (size 3 to 8) (size 9 to 14) (size 15 to 20)
#    0.000    2.800    1.000    0.600    1.400    2.600 
#    0.000    1.000    0.000    1.200    0.000    0.000 
#    0.000    0.000    0.000    0.000    0.000    0.000 
#
# Total GULP energy -223037.133531 kJ/mol
# GULP energy per Si atom -5575.928338 kJ/mol
# Density = 2.097435 g / cm^3
# Si number density = 21.022200 Si / 1000 Ang^3
#
#
#
# Elastic Constant Matrix: (Units=GPa)
#
#
# Indices 1 2 3 4 5 6 
#
# 1 55.7626 30.2021 51.9311 0.0000 0.0000 0.0000
# 2 30.2021 55.7621 51.9321 0.0000 0.0000 0.0000
# 3 51.9311 51.9321 197.8403 0.0000 0.0000 0.0000
# 4 0.0000 0.0000 0.0000 67.7928 0.0000 0.0000
# 5 0.0000 0.0000 0.0000 0.0000 67.7931 0.0000
# 6 0.0000 0.0000 0.0000 0.0000 0.0000 5.1886
#
#
#
# Elastic Compliance Matrix: (Units=1/GPa)
#
#
# Indices 1 2 3 4 5 6 
#
# 1 0.028079 -0.011044 -0.004471 0.000000 0.000000 0.000000
# 2 -0.011044 0.028080 -0.004472 0.000000 0.000000 0.000000
# 3 -0.004471 -0.004472 0.007402 0.000000 0.000000 0.000000
# 4 0.000000 0.000000 0.000000 0.014751 0.000000 0.000000
# 5 0.000000 0.000000 0.000000 0.000000 0.014751 0.000000
# 6 0.000000 0.000000 0.000000 0.000000 0.000000 0.192731
#
#
# Mechanical properties :
#
#
# Convention : Reuss Voigt Hill
#
# Bulk Modulus (GPa) = 42.39749 64.16619 53.28184
# Shear Modulus (GPa) = 14.98667 39.84154 27.41410
#
# Velocity S-wave (km/s) = 2.67291 4.35813 3.61509
# Velocity P-wave (km/s) = 5.45323 7.47755 6.54413
#
# Compressibility (1/GPa) = 0.02358630
#
# Stress axis : x y z
#
# Youngs Moduli (GPa) = 35.61379 35.61292 135.09603
#
# Poissons Ratio (x) = 0.39331 0.60408
# Poissons Ratio (y) = 0.39332 0.60413
# Poissons Ratio (z) = 0.15925 0.15926
#
# Static dielectric constant tensor:
#      x y z
#    x 1.779440 0.000000 0.000000 
#    y 0.000000 1.779440 0.000000 
#    z 0.000000 0.000000 1.742670 
# 
# From -- ./inp_files/5504.got.cif
#   From: 2010.05.17/outbox.cif.g08.bks.cpg/sg115_3_cif.got.tgz:5504.got - 2010.05.20 11:07:42.
