data_PCOD9557596
_publ_section_title
;
Structure prediction by ZEFSAII (Michael W. Deem and Ramdas Pophale) SiO2 
 PCOD9557596
Probable space group: P -4 C 2
;
_chemical_formula_sum "Si O2"
_cell_formula_units_Z 34
_cell_length_a 11.388178
_cell_length_b 11.388178
_cell_length_c 13.086427
_cell_angle_alpha 90.000000
_cell_angle_beta 90.000000
_cell_angle_gamma 90.000000
_cell_volume 1697.186545
_symmetry_space_group_name_H-M "P -4 C 2"
_symmetry_group_IT_number 116
_symmetry_cell_setting 'tetragonal'
loop_
_space_group_symop_operation_xyz
x,y,z
y,-x,-z
-x,-y,z
-y,x,-z
y,x,1/2-z
-y,-x,1/2-z
-x,y,1/2+z
x,-y,1/2+z
loop_
_atom_site_type_symbol
_atom_site_label
_atom_site_fract_x
_atom_site_fract_y
_atom_site_fract_z
Si Si1 0.000000 0.000000 0.000000
Si Si2 0.146017 0.395164 0.420837
Si Si3 0.942548 0.624690 0.646116
Si Si4 0.210975 0.852807 0.937209
Si Si5 0.351487 0.125274 0.639204
O O1 0.920660 0.094007 0.939155
O O2 0.131838 0.397231 0.543736
O O3 0.215067 0.277439 0.391288
O O4 0.185930 0.522682 0.383734
O O5 0.013499 0.373091 0.381963
O O6 0.869345 0.673680 0.740975
O O7 0.000000 0.500000 0.675244
O O8 0.050357 0.709578 0.617341
O O9 0.256191 0.840784 0.054446
#
# Coordination Sequence:
#
# PCOD9557596 Si02
#       5
#     2   8   8   8   8
#     4  12  20  36  50  84 128 158 184 224 306 356
#     4  10  19  36  55  79 113 152 197 242 282 347
#     4  11  19  36  60  82 113 160 204 237 285 356
#     4  11  22  37  56  82 126 155 190 249 294 349
#     4  10  20  36  57  81 112 155 205 234 284 354
#
# _framework density 20.033152999999999
#
# number of rings (size 3 to 8) (size 9 to 14) (size 15 to 20)
#    0.000    1.412   11.765    0.000    0.000    1.882 
#    0.000    1.176    0.000    0.706    0.000    0.000 
#    7.059    0.000    0.000    0.000    0.000    0.000 
#
# Total GULP energy -189657.708926 kJ/mol
# GULP energy per Si atom -5578.167910 kJ/mol
# Density = 1.998756 g / cm^3
# Si number density = 20.033153 Si / 1000 Ang^3
#
#
#
# Elastic Constant Matrix: (Units=GPa)
#
#
# Indices 1 2 3 4 5 6 
#
# 1 67.5790 21.2363 21.1330 0.0000 0.0000 0.0000
# 2 21.2363 67.5790 21.1330 0.0000 0.0000 0.0000
# 3 21.1330 21.1330 109.0489 0.0000 0.0000 0.0000
# 4 0.0000 0.0000 0.0000 3.2496 0.0000 0.0000
# 5 0.0000 0.0000 0.0000 0.0000 3.2496 0.0000
# 6 0.0000 0.0000 0.0000 0.0000 0.0000 15.9533
#
#
#
# Elastic Compliance Matrix: (Units=1/GPa)
#
#
# Indices 1 2 3 4 5 6 
#
# 1 0.016991 -0.004588 -0.002404 0.000000 0.000000 0.000000
# 2 -0.004588 0.016991 -0.002404 0.000000 0.000000 0.000000
# 3 -0.002404 -0.002404 0.010102 0.000000 0.000000 0.000000
# 4 0.000000 0.000000 0.000000 0.307726 0.000000 0.000000
# 5 0.000000 0.000000 0.000000 0.000000 0.307726 0.000000
# 6 0.000000 0.000000 0.000000 0.000000 0.000000 0.062683
#
#
# Mechanical properties :
#
#
# Convention : Reuss Voigt Hill
#
# Bulk Modulus (GPa) = 39.53576 41.24573 40.39074
# Shear Modulus (GPa) = 6.67165 16.53748 11.60456
#
# Velocity S-wave (km/s) = 1.82689 2.87628 2.40941
# Velocity P-wave (km/s) = 4.92220 5.62708 5.28640
#
# Compressibility (1/GPa) = 0.02529356
#
# Stress axis : x y z
#
# Youngs Moduli (GPa) = 58.85541 58.85541 98.99200
#
# Poissons Ratio (x) = 0.27001 0.23794
# Poissons Ratio (y) = 0.27001 0.23794
# Poissons Ratio (z) = 0.14147 0.14147
#
# Static dielectric constant tensor:
#      x y z
#    x 1.729990 0.000000 0.000000 
#    y 0.000000 1.729990 0.000000 
#    z 0.000000 0.000000 1.773440 
# 
# From -- ./inp_files/2476.got.cif
#   From: 2010.05.17/outbox.cif.g08.bks.cpg/sg116_2_cif.got.tgz:2476.got - 2010.05.20 11:11:43.
