data_PCOD9557521
_publ_section_title
;
Structure prediction by ZEFSAII (Michael W. Deem and Ramdas Pophale) SiO2 
 PCOD9557521
Probable space group: P -4 C 2
;
_chemical_formula_sum "Si O2"
_cell_formula_units_Z 48
_cell_length_a 18.365109
_cell_length_b 18.365109
_cell_length_c 5.557359
_cell_angle_alpha 90.000000
_cell_angle_beta 90.000000
_cell_angle_gamma 90.000000
_cell_volume 1874.370642
_symmetry_space_group_name_H-M "P -4 C 2"
_symmetry_group_IT_number 116
_symmetry_cell_setting 'tetragonal'
loop_
_space_group_symop_operation_xyz
x,y,z
y,-x,-z
-x,-y,z
-y,x,-z
y,x,1/2-z
-y,-x,1/2-z
-x,y,1/2+z
x,-y,1/2+z
loop_
_atom_site_type_symbol
_atom_site_label
_atom_site_fract_x
_atom_site_fract_y
_atom_site_fract_z
Si Si1 0.749522 0.353326 0.500000
Si Si2 0.040426 0.407667 0.500000
Si Si3 0.651326 0.525178 0.000000
Si Si4 0.576340 0.204763 0.500000
Si Si5 0.829802 0.215597 0.500000
Si Si6 0.987093 0.753480 1.000000
O O1 0.669212 0.388965 0.500000
O O2 0.784432 0.381189 0.250947
O O3 0.759728 0.267615 0.500000
O O4 0.784432 0.381189 0.749053
O O5 0.119838 0.443524 0.500000
O O6 1.000000 0.424635 0.750000
O O7 0.038472 0.318185 0.500000
O O8 0.617228 0.500000 0.250000
O O9 0.731693 0.484791 0.000000
O O10 0.827837 0.172164 0.250000
O O11 0.901551 0.265943 0.500000
O O12 0.827837 0.172164 0.750000
O O13 0.000000 0.793582 0.750000
#
# Coordination Sequence:
#
# PCOD9557521 Si02
#       6
#     8   8   8   8   8   8
#     4  10  18  32  49  65  95 130 156 200 251 275
#     4  10  18  27  44  65  88 121 157 188 231 283
#     4   8  16  27  46  67  88 121 162 199 234 276
#     4  10  17  30  50  71  90 120 164 196 233 289
#     4  12  24  36  52  77 104 130 168 208 246 307
#     4  10  19  34  53  71  95 129 157 190 247 304
#
# _framework density 25.608597
#
# number of rings (size 3 to 8) (size 9 to 14) (size 15 to 20)
#    0.000    2.000    0.000    7.000    0.000    0.000 
#    0.000    0.000    0.000   42.000    0.000    0.000 
#    0.000   23.333    0.000    0.000    0.000    0.000 
#
# Total GULP energy -268339.210099 kJ/mol
# GULP energy per Si atom -5590.400210 kJ/mol
# Density = 2.555031 g / cm^3
# Si number density = 25.608597 Si / 1000 Ang^3
#
#
#
# Elastic Constant Matrix: (Units=GPa)
#
#
# Indices 1 2 3 4 5 6 
#
# 1 69.8933 24.6046 31.4184 0.0000 0.0000 0.0000
# 2 24.6046 69.8937 31.4200 0.0000 0.0000 0.0000
# 3 31.4184 31.4200 320.7306 0.0000 0.0000 0.0000
# 4 0.0000 0.0000 0.0000 42.0514 0.0000 0.0000
# 5 0.0000 0.0000 0.0000 0.0000 42.0510 0.0000
# 6 0.0000 0.0000 0.0000 0.0000 0.0000 15.1845
#
#
#
# Elastic Compliance Matrix: (Units=1/GPa)
#
#
# Indices 1 2 3 4 5 6 
#
# 1 0.016700 -0.005380 -0.001109 0.000000 0.000000 0.000000
# 2 -0.005380 0.016700 -0.001109 0.000000 0.000000 0.000000
# 3 -0.001109 -0.001109 0.003335 0.000000 0.000000 0.000000
# 4 0.000000 0.000000 0.000000 0.023780 0.000000 0.000000
# 5 0.000000 0.000000 0.000000 0.000000 0.023781 0.000000
# 6 0.000000 0.000000 0.000000 0.000000 0.000000 0.065857
#
#
# Mechanical properties :
#
#
# Convention : Reuss Voigt Hill
#
# Bulk Modulus (GPa) = 46.42785 70.60040 58.51413
# Shear Modulus (GPa) = 28.98066 44.72904 36.85485
#
# Velocity S-wave (km/s) = 3.36769 4.18382 3.79774
# Velocity P-wave (km/s) = 5.76983 7.13919 6.49072
#
# Compressibility (1/GPa) = 0.02153880
#
# Stress axis : x y z
#
# Youngs Moduli (GPa) = 59.88014 59.88022 299.83783
#
# Poissons Ratio (x) = 0.32218 0.33247
# Poissons Ratio (y) = 0.32218 0.33250
# Poissons Ratio (z) = 0.06640 0.06640
#
# Static dielectric constant tensor:
#      x y z
#    x 2.041130 0.000000 0.000000 
#    y 0.000000 2.041130 0.000000 
#    z 0.000000 0.000000 2.052090 
# 
# From -- ./inp_files/171.got.cif
#   From: 2010.05.17/outbox.cif.g08.bks.cpg/sg116_1_cif.got.tgz:171.got - 2010.05.20 11:11:43.
