data_PCOD9557976
_publ_section_title
;
Structure prediction by ZEFSAII (Michael W. Deem and Ramdas Pophale) SiO2 
 PCOD9557976
Probable space group: P -4 C 2
;
_chemical_formula_sum "Si O2"
_cell_formula_units_Z 36
_cell_length_a 11.429766
_cell_length_b 11.429766
_cell_length_c 11.610214
_cell_angle_alpha 90.000000
_cell_angle_beta 90.000000
_cell_angle_gamma 90.000000
_cell_volume 1516.753142
_symmetry_space_group_name_H-M "P -4 C 2"
_symmetry_group_IT_number 116
_symmetry_cell_setting 'tetragonal'
loop_
_space_group_symop_operation_xyz
x,y,z
y,-x,-z
-x,-y,z
-y,x,-z
y,x,1/2-z
-y,-x,1/2-z
-x,y,1/2+z
x,-y,1/2+z
loop_
_atom_site_type_symbol
_atom_site_label
_atom_site_fract_x
_atom_site_fract_y
_atom_site_fract_z
Si Si1 0.151258 0.896533 0.522595
Si Si2 0.123873 0.482697 0.334010
Si Si3 0.326564 0.177569 0.834073
Si Si4 0.227401 0.227401 0.250000
Si Si5 0.514112 0.678281 0.987231
O O1 0.264250 0.877517 0.443948
O O2 0.160025 0.818776 0.636630
O O3 0.034351 0.861082 0.453060
O O4 0.102735 0.581548 0.236925
O O5 0.179595 0.361352 0.280038
O O6 0.219279 0.522401 0.428112
O O7 0.000000 0.500000 0.398770
O O8 0.229232 0.229232 0.750000
O O9 0.409123 0.279641 0.881715
O O10 0.602060 0.593398 0.055697
#
# Coordination Sequence:
#
# PCOD9557976 Si02
#       5
#     8   8   8   4   8
#     4  11  28  48  78 111 150 206 265 327 398 480
#     4  12  27  47  76 112 153 204 255 329 397 480
#     4  12  26  45  75 109 150 197 257 319 392 471
#     4  12  26  53  79 112 164 204 268 328 408 489
#     4  11  24  47  72 106 146 196 252 309 383 467
#
# _framework density 23.734911
#
# number of rings (size 3 to 8) (size 9 to 14) (size 15 to 20)
#    0.000    0.444    4.444    2.667    6.222    1.778 
#    0.000    0.000    0.000    0.000    0.000    0.000 
#    0.000    0.000    0.000    0.000    0.000    0.000 
#
# Total GULP energy -200975.386903 kJ/mol
# GULP energy per Si atom -5582.649636 kJ/mol
# Density = 2.368089 g / cm^3
# Si number density = 23.734911 Si / 1000 Ang^3
#
#
#
# Elastic Constant Matrix: (Units=GPa)
#
#
# Indices 1 2 3 4 5 6 
#
# 1 77.2704 8.5827 11.7029 0.0000 0.0000 0.0000
# 2 8.5827 77.2704 11.7029 0.0000 0.0000 0.0000
# 3 11.7029 11.7029 69.4657 0.0000 0.0000 0.0000
# 4 0.0000 0.0000 0.0000 12.1316 0.0000 0.0000
# 5 0.0000 0.0000 0.0000 0.0000 12.1316 0.0000
# 6 0.0000 0.0000 0.0000 0.0000 0.0000 32.0946
#
#
#
# Elastic Compliance Matrix: (Units=1/GPa)
#
#
# Indices 1 2 3 4 5 6 
#
# 1 0.013384 -0.001175 -0.002057 0.000000 0.000000 0.000000
# 2 -0.001175 0.013384 -0.002057 0.000000 0.000000 0.000000
# 3 -0.002057 -0.002057 0.015089 0.000000 0.000000 0.000000
# 4 0.000000 0.000000 0.000000 0.082430 0.000000 0.000000
# 5 0.000000 0.000000 0.000000 0.000000 0.082430 0.000000
# 6 0.000000 0.000000 0.000000 0.000000 0.000000 0.031158
#
#
# Mechanical properties :
#
#
# Convention : Reuss Voigt Hill
#
# Bulk Modulus (GPa) = 31.97077 31.99817 31.98447
# Shear Modulus (GPa) = 19.31425 24.07275 21.69350
#
# Velocity S-wave (km/s) = 2.85572 3.18816 3.02651
# Velocity P-wave (km/s) = 4.93687 5.20223 5.07129
#
# Compressibility (1/GPa) = 0.03127857
#
# Stress axis : x y z
#
# Youngs Moduli (GPa) = 74.71842 74.71842 66.27526
#
# Poissons Ratio (x) = 0.08780 0.13631
# Poissons Ratio (y) = 0.08780 0.13631
# Poissons Ratio (z) = 0.15368 0.15368
#
# Static dielectric constant tensor:
#      x y z
#    x 2.153240 0.000000 0.000000 
#    y 0.000000 2.153240 0.000000 
#    z 0.000000 0.000000 1.889090 
# 
# From -- ./inp_files/1695.got.cif
#   From: 2010.05.17/outbox.cif.g08.bks.cpg/sg116_1_cif.got.tgz:1695.got - 2010.05.20 11:11:43.
