data_PCOD9557149
_publ_section_title
;
Structure prediction by ZEFSAII (Michael W. Deem and Ramdas Pophale) SiO2 
 PCOD9557149
Probable space group: P -4 M 2
;
_chemical_formula_sum "Si O2"
_cell_formula_units_Z 48
_cell_length_a 9.357166
_cell_length_b 9.357166
_cell_length_c 32.002095
_cell_angle_alpha 90.000000
_cell_angle_beta 90.000000
_cell_angle_gamma 90.000000
_cell_volume 2801.993209
_symmetry_space_group_name_H-M "P -4 M 2"
_symmetry_group_IT_number 115
_symmetry_cell_setting 'tetragonal'
loop_
_space_group_symop_operation_xyz
x,y,z
y,-x,-z
-x,-y,z
-y,x,-z
y,x,-z
-y,-x,-z
-x,y,z
x,-y,z
loop_
_atom_site_type_symbol
_atom_site_label
_atom_site_fract_x
_atom_site_fract_y
_atom_site_fract_z
Si Si1 0.169943 0.669829 0.793963
Si Si2 0.174231 0.165186 0.546242
Si Si3 0.825781 0.835565 0.710435
Si Si4 0.328841 0.332074 0.121237
Si Si5 0.171364 0.831765 0.047732
Si Si6 0.825462 0.335568 0.628111
O O1 0.190439 0.500000 0.786931
O O2 0.216602 0.755741 0.752930
O O3 0.254129 0.712233 0.835597
O O4 0.000000 0.693242 0.800286
O O5 0.217205 0.217205 0.500000
O O6 0.220851 0.260132 0.585204
O O7 0.000000 0.165040 0.545612
O O8 0.218435 0.000000 0.551971
O O9 0.779032 0.751787 0.668972
O O10 0.000000 0.834497 0.709952
O O11 0.779641 0.000000 0.709807
O O12 0.500000 0.314546 0.116554
O O13 0.297122 0.500000 0.123511
O O14 0.250721 0.260093 0.082271
O O15 0.000000 0.816944 0.051732
O O16 0.205209 0.000000 0.053232
O O17 0.208903 0.791098 0.000000
O O18 0.780633 0.500000 0.630244
O O19 0.000000 0.333712 0.628052
#
# Coordination Sequence:
#
# PCOD9557149 Si02
#       6
#     8   8   8   8   8   8
#     4   9  17  30  47  66  91 125 162 197 234 277
#     4   8  13  21  33  50  75 108 142 174 212 260
#     4   9  16  25  39  61  88 117 150 189 232 277
#     4  10  21  35  51  74 103 133 165 201 242 289
#     4   9  19  36  56  77 101 130 165 204 245 289
#     4   9  15  22  34  55  84 114 142 177 224 273
#
# _framework density 17.130663999999999
#
# number of rings (size 3 to 8) (size 9 to 14) (size 15 to 20)
#    0.000    3.000    0.000    2.500    0.000    6.667 
#    0.000    4.167    0.000    0.000    0.000    1.167 
#    0.000    4.333    0.000    0.000    0.000    0.000 
#
# Total GULP energy -267505.747080 kJ/mol
# GULP energy per Si atom -5573.036397 kJ/mol
# Density = 1.709167 g / cm^3
# Si number density = 17.130664 Si / 1000 Ang^3
#
#
#
# Elastic Constant Matrix: (Units=GPa)
#
#
# Indices 1 2 3 4 5 6 
#
# 1 56.5959 37.9781 81.7639 0.0000 0.0000 0.0000
# 2 37.9781 56.5960 81.7640 0.0000 0.0000 0.0000
# 3 81.7639 81.7640 215.3762 0.0000 0.0000 0.0000
# 4 0.0000 0.0000 0.0000 -13.0044 0.0000 0.0000
# 5 0.0000 0.0000 0.0000 0.0000 -13.0041 0.0000
# 6 0.0000 0.0000 0.0000 0.0000 0.0000 13.7095
#
#
#
# Elastic Compliance Matrix: (Units=1/GPa)
#
#
# Indices 1 2 3 4 5 6 
#
# 1 0.042244 -0.011468 -0.011683 0.000000 0.000000 0.000000
# 2 -0.011468 0.042244 -0.011683 0.000000 0.000000 0.000000
# 3 -0.011683 -0.011683 0.013514 0.000000 0.000000 0.000000
# 4 0.000000 0.000000 0.000000 -0.076897 0.000000 0.000000
# 5 0.000000 0.000000 0.000000 0.000000 -0.076899 0.000000
# 6 0.000000 0.000000 0.000000 0.000000 0.000000 0.072942
#
#
# Mechanical properties :
#
#
# Convention : Reuss Voigt Hill
#
# Bulk Modulus (GPa) = 35.29675 81.28667 58.29171
# Shear Modulus (GPa) = 51.94179 6.01099 28.97639
#
# Velocity S-wave (km/s) = 5.51242 1.87524 4.11724
# Velocity P-wave (km/s) = 7.82080 7.22791 7.53019
#
# Compressibility (1/GPa) = 0.02833122
#
# Stress axis : x y z
#
# Youngs Moduli (GPa) = 23.67212 23.67215 73.99818
#
# Poissons Ratio (x) = 0.27148 0.86455
# Poissons Ratio (y) = 0.27148 0.86455
# Poissons Ratio (z) = 0.27657 0.27657
#
# Static dielectric constant tensor:
#      x y z
#    x 1.565580 0.000000 0.000000 
#    y 0.000000 1.565580 0.000000 
#    z 0.000000 0.000000 1.570380 
# 
# From -- ./inp_files/6065.got.cif
#   From: 2010.05.17/outbox.cif.g08.bks.cpg/sg115_4_cif.got.tgz:6065.got - 2010.05.20 11:07:42.
