data_PCOD9557931
_publ_section_title
;
Structure prediction by ZEFSAII (Michael W. Deem and Ramdas Pophale) SiO2 
 PCOD9557931
Probable space group: P -4 C 2
;
_chemical_formula_sum "Si O2"
_cell_formula_units_Z 34
_cell_length_a 8.955690
_cell_length_b 8.955690
_cell_length_c 18.567037
_cell_angle_alpha 90.000000
_cell_angle_beta 90.000000
_cell_angle_gamma 90.000000
_cell_volume 1489.157754
_symmetry_space_group_name_H-M "P -4 C 2"
_symmetry_group_IT_number 116
_symmetry_cell_setting 'tetragonal'
loop_
_space_group_symop_operation_xyz
x,y,z
y,-x,-z
-x,-y,z
-y,x,-z
y,x,1/2-z
-y,-x,1/2-z
-x,y,1/2+z
x,-y,1/2+z
loop_
_atom_site_type_symbol
_atom_site_label
_atom_site_fract_x
_atom_site_fract_y
_atom_site_fract_z
Si Si1 0.000000 0.000000 0.250000
Si Si2 0.547883 0.269494 0.808404
Si Si3 0.400114 0.673571 0.543267
Si Si4 0.936161 0.766810 0.508835
Si Si5 0.695528 0.046878 0.329465
O O1 0.137752 0.975809 0.303318
O O2 0.616774 0.383227 0.750000
O O3 0.595392 0.344349 0.884069
O O4 0.377863 0.207183 0.809377
O O5 0.622191 0.105597 0.799523
O O6 0.574700 0.667942 0.522937
O O7 0.340151 0.840832 0.541880
O O8 0.965167 0.686622 0.584211
O O9 0.088799 0.831262 0.477718
#
# Coordination Sequence:
#
# PCOD9557931 Si02
#       5
#     2   8   8   8   8
#     4  12  24  44  68 104 140 186 242 290 368 444
#     4  11  24  47  72 103 148 196 243 301 381 448
#     4  11  24  44  68 101 137 182 238 299 356 427
#     4  11  22  39  69 102 132 180 234 289 358 421
#     4  11  24  43  72 102 145 189 241 309 359 445
#
# _framework density 22.831697999999999
#
# number of rings (size 3 to 8) (size 9 to 14) (size 15 to 20)
#    0.000    0.941    5.882    1.412    0.000    2.824 
#    0.000    2.353    0.000    0.000    0.000    0.000 
#    0.000    0.000    0.000    0.000    0.000    0.000 
#
# Total GULP energy -189714.499985 kJ/mol
# GULP energy per Si atom -5579.838235 kJ/mol
# Density = 2.277973 g / cm^3
# Si number density = 22.831698 Si / 1000 Ang^3
#
#
#
# Elastic Constant Matrix: (Units=GPa)
#
#
# Indices 1 2 3 4 5 6 
#
# 1 77.1529 25.6647 30.1118 0.0000 0.0000 0.0000
# 2 25.6647 77.1518 30.1121 0.0000 0.0000 0.0000
# 3 30.1118 30.1121 92.9492 0.0000 0.0000 0.0000
# 4 0.0000 0.0000 0.0000 -42.7539 0.0000 0.0000
# 5 0.0000 0.0000 0.0000 0.0000 -42.8395 0.0000
# 6 0.0000 0.0000 0.0000 0.0000 0.0000 48.3396
#
#
#
# Elastic Compliance Matrix: (Units=1/GPa)
#
#
# Indices 1 2 3 4 5 6 
#
# 1 0.015713 -0.003709 -0.003889 0.000000 0.000000 0.000000
# 2 -0.003709 0.015713 -0.003889 0.000000 0.000000 0.000000
# 3 -0.003889 -0.003889 0.013278 0.000000 0.000000 0.000000
# 4 0.000000 0.000000 0.000000 -0.023390 0.000000 0.000000
# 5 0.000000 0.000000 0.000000 0.000000 -0.023343 0.000000
# 6 0.000000 0.000000 0.000000 0.000000 0.000000 0.020687
#
#
# Mechanical properties :
#
#
# Convention : Reuss Voigt Hill
#
# Bulk Modulus (GPa) = 46.01777 46.55900 46.28839
# Shear Modulus (GPa) = 102.30070 3.30692 52.80381
#
# Velocity S-wave (km/s) = 6.70102 1.20480 4.81431
# Velocity P-wave (km/s) = 8.94822 4.72990 7.15690
#
# Compressibility (1/GPa) = 0.02173073
#
# Stress axis : x y z
#
# Youngs Moduli (GPa) = 63.64223 63.64101 75.31148
#
# Poissons Ratio (x) = 0.23606 0.29286
# Poissons Ratio (y) = 0.23606 0.29288
# Poissons Ratio (z) = 0.24748 0.24749
#
# Static dielectric constant tensor:
#      x y z
#    x 3.551140 0.000000 0.000000 
#    y 0.000000 3.549250 0.000000 
#    z 0.000000 0.000000 1.881730 
# 
# From -- ./inp_files/3877.got.cif
#   From: 2010.05.17/outbox.cif.g08.bks.cpg/sg116_2_cif.got.tgz:3877.got - 2010.05.20 11:11:43.
