data_PCOD9557331
_publ_section_title
;
Structure prediction by ZEFSAII (Michael W. Deem and Ramdas Pophale) SiO2 
 PCOD9557331
Probable space group: P -4 M 2
;
_chemical_formula_sum "Si O2"
_cell_formula_units_Z 28
_cell_length_a 9.056401
_cell_length_b 9.056401
_cell_length_c 18.380282
_cell_angle_alpha 90.000000
_cell_angle_beta 90.000000
_cell_angle_gamma 90.000000
_cell_volume 1507.521304
_symmetry_space_group_name_H-M "P -4 M 2"
_symmetry_group_IT_number 115
_symmetry_cell_setting 'tetragonal'
loop_
_space_group_symop_operation_xyz
x,y,z
y,-x,-z
-x,-y,z
-y,x,-z
y,x,-z
-y,-x,-z
-x,y,z
x,-y,z
loop_
_atom_site_type_symbol
_atom_site_label
_atom_site_fract_x
_atom_site_fract_y
_atom_site_fract_z
Si Si1 0.324209 0.324689 0.639834
Si Si2 0.176691 0.174862 0.778628
Si Si3 0.325531 0.175892 0.068870
Si Si4 0.824215 0.175786 0.500000
O O1 0.500000 0.301561 0.635365
O O2 0.295769 0.500000 0.638876
O O3 0.260920 0.254645 0.713511
O O4 0.246032 0.248807 0.571295
O O5 0.218081 0.243010 0.856664
O O6 0.000000 0.196800 0.769177
O O7 0.205526 0.000000 0.777551
O O8 0.500000 0.201964 0.076634
O O9 0.302403 0.000000 0.058046
O O10 0.261102 0.261102 0.000000
O O11 0.000000 0.201189 0.498991
#
# Coordination Sequence:
#
# PCOD9557331 Si02
#       4
#     8   8   8   4
#     4  11  24  40  59  86 119 153 190 233 283 338
#     4  10  21  38  61  87 114 148 192 238 284 338
#     4  10  21  37  58  84 114 150 191 235 286 341
#     4  11  24  41  62  88 116 149 192 237 282 336
#
# _framework density 18.573537000000002
#
# number of rings (size 3 to 8) (size 9 to 14) (size 15 to 20)
#    0.000    1.571    0.000    4.286    0.000   13.143 
#    0.000    0.000    0.000    0.000    0.000    0.000 
#    0.000    0.000    0.000    0.000    0.000    0.000 
#
# Total GULP energy -156587.119206 kJ/mol
# GULP energy per Si atom -5592.397114 kJ/mol
# Density = 1.853126 g / cm^3
# Si number density = 18.573537 Si / 1000 Ang^3
#
#
#
# Elastic Constant Matrix: (Units=GPa)
#
#
# Indices 1 2 3 4 5 6 
#
# 1 111.6707 105.6357 108.3537 0.0000 0.0000 0.0000
# 2 105.6357 111.6699 108.3535 0.0000 0.0000 0.0000
# 3 108.3537 108.3535 202.6235 0.0000 0.0000 0.0000
# 4 0.0000 0.0000 0.0000 77.0487 0.0000 0.0000
# 5 0.0000 0.0000 0.0000 0.0000 77.0401 0.0000
# 6 0.0000 0.0000 0.0000 0.0000 0.0000 32.4801
#
#
#
# Elastic Compliance Matrix: (Units=1/GPa)
#
#
# Indices 1 2 3 4 5 6 
#
# 1 0.087785 -0.077926 -0.005272 0.000000 0.000000 0.000000
# 2 -0.077926 0.087786 -0.005273 0.000000 0.000000 0.000000
# 3 -0.005272 -0.005273 0.010574 0.000000 0.000000 0.000000
# 4 0.000000 0.000000 0.000000 0.012979 0.000000 0.000000
# 5 0.000000 0.000000 0.000000 0.000000 0.012980 0.000000
# 6 0.000000 0.000000 0.000000 0.000000 0.000000 0.030788
#
#
# Mechanical properties :
#
#
# Convention : Reuss Voigt Hill
#
# Bulk Modulus (GPa) = 108.65208 118.96110 113.80659
# Shear Modulus (GPa) = 11.82303 44.22187 28.02245
#
# Velocity S-wave (km/s) = 2.52574 4.88475 3.88845
# Velocity P-wave (km/s) = 8.19336 9.79807 9.03142
#
# Compressibility (1/GPa) = 0.00920369
#
# Stress axis : x y z
#
# Youngs Moduli (GPa) = 11.39142 11.39130 94.56860
#
# Poissons Ratio (x) = 0.88768 0.49861
# Poissons Ratio (y) = 0.88769 0.49864
# Poissons Ratio (z) = 0.06006 0.06006
#
# Static dielectric constant tensor:
#      x y z
#    x 1.619210 0.000000 0.000000 
#    y 0.000000 1.619220 0.000000 
#    z 0.000000 0.000000 1.594390 
# 
# From -- ./inp_files/4011.got.cif
#   From: 2010.05.17/outbox.cif.g08.bks.cpg/sg115_3_cif.got.tgz:4011.got - 2010.05.20 11:07:42.
