data_PCOD9557340
_publ_section_title
;
Structure prediction by ZEFSAII (Michael W. Deem and Ramdas Pophale) SiO2 
 PCOD9557340
Probable space group: P -4 M 2
;
_chemical_formula_sum "Si O2"
_cell_formula_units_Z 33
_cell_length_a 11.916327
_cell_length_b 11.916327
_cell_length_c 12.297740
_cell_angle_alpha 90.000000
_cell_angle_beta 90.000000
_cell_angle_gamma 90.000000
_cell_volume 1746.264927
_symmetry_space_group_name_H-M "P -4 M 2"
_symmetry_group_IT_number 115
_symmetry_cell_setting 'tetragonal'
loop_
_space_group_symop_operation_xyz
x,y,z
y,-x,-z
-x,-y,z
-y,x,-z
y,x,-z
-y,-x,-z
-x,y,z
x,-y,z
loop_
_atom_site_type_symbol
_atom_site_label
_atom_site_fract_x
_atom_site_fract_y
_atom_site_fract_z
Si Si1 0.000000 0.253041 0.578391
Si Si2 0.877848 0.364334 0.230828
Si Si3 0.000000 0.363718 0.815824
Si Si4 0.188191 0.634106 0.992668
Si Si5 0.000000 0.000000 0.500000
Si Si6 0.366496 0.208765 0.547718
O O1 0.000000 0.298004 0.702392
O O2 0.109378 0.304028 0.517400
O O3 0.000000 0.117588 0.567157
O O4 0.874876 0.500000 0.226002
O O5 0.793732 0.330696 0.325294
O O6 0.000000 0.330057 0.271881
O O7 0.864606 0.327163 0.107501
O O8 0.108572 0.336117 0.891157
O O9 0.000000 0.500000 0.797588
O O10 0.195641 0.500000 0.992318
O O11 0.308832 0.691169 0.000000
O O12 0.325789 0.325789 0.500000
O O13 0.500000 0.191296 0.540381
#
# Coordination Sequence:
#
# PCOD9557340 Si02
#       6
#     4   8   4   8   1   8
#     4  12  24  43  63  92 124 164 206 261 324 369
#     4   9  17  35  60  83 109 151 205 245 285 352
#     4  10  22  41  64  89 123 165 206 249 309 377
#     4  10  21  37  59  87 118 156 201 249 300 359
#     4  12  28  44  64  96 126 160 212 268 306 372
#     4  11  23  39  63  92 124 164 207 253 309 376
#
# _framework density 18.897476000000001
#
# number of rings (size 3 to 8) (size 9 to 14) (size 15 to 20)
#    0.000    1.697    3.636    1.091    3.394    0.485 
#    0.000    1.212    0.000    4.364    0.000    0.000 
#    0.000    0.000    0.000    0.000    0.000    0.000 
#
# Total GULP energy -183880.969351 kJ/mol
# GULP energy per Si atom -5572.150586 kJ/mol
# Density = 1.885446 g / cm^3
# Si number density = 18.897476 Si / 1000 Ang^3
#
#
#
# Elastic Constant Matrix: (Units=GPa)
#
#
# Indices 1 2 3 4 5 6 
#
# 1 62.5885 24.8241 37.2523 0.0000 0.0000 0.0000
# 2 24.8241 62.5947 37.2537 0.0000 0.0000 0.0000
# 3 37.2523 37.2537 156.1622 0.0000 0.0000 0.0000
# 4 0.0000 0.0000 0.0000 19.8414 0.0000 0.0000
# 5 0.0000 0.0000 0.0000 0.0000 19.8415 0.0000
# 6 0.0000 0.0000 0.0000 0.0000 0.0000 29.4877
#
#
#
# Elastic Compliance Matrix: (Units=1/GPa)
#
#
# Indices 1 2 3 4 5 6 
#
# 1 0.020420 -0.006059 -0.003426 0.000000 0.000000 0.000000
# 2 -0.006059 0.020417 -0.003425 0.000000 0.000000 0.000000
# 3 -0.003426 -0.003425 0.008038 0.000000 0.000000 0.000000
# 4 0.000000 0.000000 0.000000 0.050400 0.000000 0.000000
# 5 0.000000 0.000000 0.000000 0.000000 0.050399 0.000000
# 6 0.000000 0.000000 0.000000 0.000000 0.000000 0.033912
#
#
# Mechanical properties :
#
#
# Convention : Reuss Voigt Hill
#
# Bulk Modulus (GPa) = 43.37551 53.33396 48.35473
# Shear Modulus (GPa) = 23.03175 25.96846 24.50011
#
# Velocity S-wave (km/s) = 3.49488 3.71101 3.60457
# Velocity P-wave (km/s) = 6.26805 6.82980 6.55495
#
# Compressibility (1/GPa) = 0.02305449
#
# Stress axis : x y z
#
# Youngs Moduli (GPa) = 48.97271 48.97774 124.41075
#
# Poissons Ratio (x) = 0.29677 0.42618
# Poissons Ratio (y) = 0.29674 0.42614
# Poissons Ratio (z) = 0.16776 0.16776
#
# Static dielectric constant tensor:
#      x y z
#    x 1.670660 0.000000 0.000000 
#    y 0.000000 1.670660 0.000000 
#    z 0.000000 0.000000 1.677110 
# 
# From -- ./inp_files/2652.got.cif
#   From: 2010.05.17/outbox.cif.g08.bks.cpg/sg115_2_cif.got.tgz:2652.got - 2010.05.20 11:07:42.
