data_PCOD9557897
_publ_section_title
;
Structure prediction by ZEFSAII (Michael W. Deem and Ramdas Pophale) SiO2 
 PCOD9557897
Probable space group: P -4 C 2
;
_chemical_formula_sum "Si O2"
_cell_formula_units_Z 48
_cell_length_a 10.954447
_cell_length_b 10.954447
_cell_length_c 17.012542
_cell_angle_alpha 90.000000
_cell_angle_beta 90.000000
_cell_angle_gamma 90.000000
_cell_volume 2041.503493
_symmetry_space_group_name_H-M "P -4 C 2"
_symmetry_group_IT_number 116
_symmetry_cell_setting 'tetragonal'
loop_
_space_group_symop_operation_xyz
x,y,z
y,-x,-z
-x,-y,z
-y,x,-z
y,x,1/2-z
-y,-x,1/2-z
-x,y,1/2+z
x,-y,1/2+z
loop_
_atom_site_type_symbol
_atom_site_label
_atom_site_fract_x
_atom_site_fract_y
_atom_site_fract_z
Si Si1 0.848379 0.231891 0.016701
Si Si2 0.627924 0.049446 0.769803
Si Si3 0.863022 0.058006 0.881184
Si Si4 0.293451 0.173300 0.675932
Si Si5 0.698526 0.457512 0.800242
Si Si6 0.680654 0.423705 0.977568
O O1 0.764856 0.177842 0.089279
O O2 0.978089 0.194008 0.048842
O O3 0.856777 0.187126 0.926093
O O4 0.803281 0.371207 0.015247
O O5 0.758095 0.051775 0.815057
O O6 0.596855 0.184280 0.743148
O O7 0.500000 0.000000 0.809533
O O8 0.649352 0.957336 0.697082
O O9 0.000000 0.000000 0.863157
O O10 0.203834 0.203834 0.750000
O O11 0.400661 0.272855 0.684408
O O12 0.584783 0.415218 0.750000
O O13 0.684343 0.401877 0.885661
O O14 0.564394 0.347339 0.007338
#
# Coordination Sequence:
#
# PCOD9557897 Si02
#       6
#     8   8   8   8   8   8
#     4  12  24  44  70 101 148 191 240 306 376 447
#     4  10  25  48  72 106 148 194 255 306 384 455
#     4  12  25  47  75 109 148 198 255 312 380 456
#     4  11  24  44  70 104 139 189 241 304 370 447
#     4  11  25  45  72 103 144 188 243 304 368 448
#     4  11  26  46  70 108 146 190 247 307 373 453
#
# _framework density 23.512084000000002
#
# number of rings (size 3 to 8) (size 9 to 14) (size 15 to 20)
#    0.000    0.833    5.000    1.000    4.667    3.000 
#    0.000    1.667    0.000    0.000    0.000    0.000 
#    0.000    0.000    0.000    0.000    0.000    0.000 
#
# Total GULP energy -267710.980059 kJ/mol
# GULP energy per Si atom -5577.312085 kJ/mol
# Density = 2.345857 g / cm^3
# Si number density = 23.512084 Si / 1000 Ang^3
#
#
#
# Elastic Constant Matrix: (Units=GPa)
#
#
# Indices 1 2 3 4 5 6 
#
# 1 77.4258 48.9223 31.0961 0.0000 0.0000 0.0000
# 2 48.9223 77.4229 31.0974 0.0000 0.0000 0.0000
# 3 31.0961 31.0974 94.9509 0.0000 0.0000 0.0000
# 4 0.0000 0.0000 0.0000 165.7302 0.0000 0.0000
# 5 0.0000 0.0000 0.0000 0.0000 165.7709 0.0000
# 6 0.0000 0.0000 0.0000 0.0000 0.0000 33.8300
#
#
#
# Elastic Compliance Matrix: (Units=1/GPa)
#
#
# Indices 1 2 3 4 5 6 
#
# 1 0.022260 -0.012825 -0.003090 0.000000 0.000000 0.000000
# 2 -0.012825 0.022261 -0.003091 0.000000 0.000000 0.000000
# 3 -0.003090 -0.003091 0.012556 0.000000 0.000000 0.000000
# 4 0.000000 0.000000 0.000000 0.006034 0.000000 0.000000
# 5 0.000000 0.000000 0.000000 0.000000 0.006032 0.000000
# 6 0.000000 0.000000 0.000000 0.000000 0.000000 0.029560
#
#
# Mechanical properties :
#
#
# Convention : Reuss Voigt Hill
#
# Bulk Modulus (GPa) = 52.44782 52.44792 52.44787
# Shear Modulus (GPa) = 34.94820 82.31181 58.63001
#
# Velocity S-wave (km/s) = 3.85956 5.92320 4.99902
# Velocity P-wave (km/s) = 6.49744 8.31470 7.46160
#
# Compressibility (1/GPa) = 0.01906657
#
# Stress axis : x y z
#
# Youngs Moduli (GPa) = 44.92378 44.92125 79.64373
#
# Poissons Ratio (x) = 0.57610 0.24609
# Poissons Ratio (y) = 0.57613 0.24616
# Poissons Ratio (z) = 0.13881 0.13884
#
# Static dielectric constant tensor:
#      x y z
#    x 1.908810 0.000000 0.000000 
#    y 0.000000 1.908810 0.000000 
#    z 0.000000 0.000000 1.899580 
# 
# From -- ./inp_files/3376.got.cif
#   From: 2010.05.17/outbox.cif.g08.bks.cpg/sg116_2_cif.got.tgz:3376.got - 2010.05.20 11:11:43.
