data_PCOD9557285
_publ_section_title
;
Structure prediction by ZEFSAII (Michael W. Deem and Ramdas Pophale) SiO2 
 PCOD9557285
Probable space group: P -4 M 2
;
_chemical_formula_sum "Si O2"
_cell_formula_units_Z 64
_cell_length_a 14.864854
_cell_length_b 14.864854
_cell_length_c 16.924462
_cell_angle_alpha 90.000000
_cell_angle_beta 90.000000
_cell_angle_gamma 90.000000
_cell_volume 3739.694866
_symmetry_space_group_name_H-M "P -4 M 2"
_symmetry_group_IT_number 115
_symmetry_cell_setting 'tetragonal'
loop_
_space_group_symop_operation_xyz
x,y,z
y,-x,-z
-x,-y,z
-y,x,-z
y,x,-z
-y,-x,-z
-x,y,z
x,-y,z
loop_
_atom_site_type_symbol
_atom_site_label
_atom_site_fract_x
_atom_site_fract_y
_atom_site_fract_z
Si Si1 0.100447 0.346505 0.546426
Si Si2 0.311053 0.395225 0.104810
Si Si3 0.397787 0.759887 0.330484
Si Si4 0.101028 0.298577 0.362680
Si Si5 0.896767 0.389909 0.807724
Si Si6 0.780844 0.396061 0.951100
Si Si7 0.138754 0.098276 0.409259
Si Si8 0.604931 0.733190 0.710436
O O1 0.181903 0.395380 0.589470
O O2 0.113884 0.332590 0.453113
O O3 0.100204 0.246424 0.582913
O O4 0.000000 0.385645 0.559875
O O5 0.336572 0.500000 0.087771
O O6 0.384473 0.318607 0.087190
O O7 0.284129 0.390951 0.195697
O O8 0.232596 0.368010 0.042203
O O9 0.500000 0.735494 0.310736
O O10 0.363764 0.829171 0.262727
O O11 0.338649 0.670456 0.331465
O O12 0.111151 0.189958 0.365879
O O13 0.172159 0.349936 0.309872
O O14 0.000000 0.320284 0.338742
O O15 0.897792 0.500000 0.807302
O O16 0.852999 0.356142 0.890048
O O17 0.000000 0.360710 0.796461
O O18 0.804802 0.500000 0.955223
O O19 0.104627 0.104627 0.500000
O O20 0.111795 0.000000 0.377073
O O21 0.500000 0.728586 0.686530
#
# Coordination Sequence:
#
# PCOD9557285 Si02
#       8
#     8   8   8   8   8   8   8   8
#     4   9  18  33  54  79 105 135 171 211 259 316
#     4   9  18  31  49  71  98 135 171 207 254 301
#     4  11  21  34  53  76 104 136 172 217 267 317
#     4  10  21  37  56  76 101 137 179 219 262 312
#     4   9  17  29  47  74 106 134 159 199 259 319
#     4   9  16  29  49  75 102 128 165 209 253 308
#     4   9  16  28  50  80 109 131 156 202 267 327
#     4  11  23  38  53  72 103 140 180 224 263 304
#
# _framework density 17.113696999999998
#
# number of rings (size 3 to 8) (size 9 to 14) (size 15 to 20)
#    0.000    2.375    2.500    1.500    0.000    2.875 
#    0.000    4.375    0.000    2.250    0.000    1.750 
#    0.000    0.000    0.000    0.000    0.000    0.000 
#
# Total GULP energy -356355.701492 kJ/mol
# GULP energy per Si atom -5568.057836 kJ/mol
# Density = 1.707475 g / cm^3
# Si number density = 17.113697 Si / 1000 Ang^3
#
#
#
# Elastic Constant Matrix: (Units=GPa)
#
#
# Indices 1 2 3 4 5 6 
#
# 1 67.8937 19.3334 6.7860 0.0000 0.0000 0.0000
# 2 19.3334 67.8937 6.7860 0.0000 0.0000 0.0000
# 3 6.7860 6.7860 19.5906 0.0000 0.0000 0.0000
# 4 0.0000 0.0000 0.0000 17.7615 0.0000 0.0000
# 5 0.0000 0.0000 0.0000 0.0000 17.7615 0.0000
# 6 0.0000 0.0000 0.0000 0.0000 0.0000 1.7547
#
#
#
# Elastic Compliance Matrix: (Units=1/GPa)
#
#
# Indices 1 2 3 4 5 6 
#
# 1 0.016355 -0.004238 -0.004197 0.000000 0.000000 0.000000
# 2 -0.004238 0.016355 -0.004197 0.000000 0.000000 0.000000
# 3 -0.004197 -0.004197 0.053953 0.000000 0.000000 0.000000
# 4 0.000000 0.000000 0.000000 0.056301 0.000000 0.000000
# 5 0.000000 0.000000 0.000000 0.000000 0.056301 0.000000
# 6 0.000000 0.000000 0.000000 0.000000 0.000000 0.569894
#
#
# Mechanical properties :
#
#
# Convention : Reuss Voigt Hill
#
# Bulk Modulus (GPa) = 16.28711 24.57651 20.43181
# Shear Modulus (GPa) = 6.13579 15.62039 10.87809
#
# Velocity S-wave (km/s) = 1.89555 3.02444 2.52392
# Velocity P-wave (km/s) = 3.78529 5.15638 4.52309
#
# Compressibility (1/GPa) = 0.06139824
#
# Stress axis : x y z
#
# Youngs Moduli (GPa) = 61.14267 61.14267 18.53473
#
# Poissons Ratio (x) = 0.25911 0.07780
# Poissons Ratio (y) = 0.25911 0.07780
# Poissons Ratio (z) = 0.25664 0.25664
#
# Static dielectric constant tensor:
#      x y z
#    x 1.596480 0.000000 0.000000 
#    y 0.000000 1.596480 0.000000 
#    z 0.000000 0.000000 1.602930 
# 
# From -- ./inp_files/4460.got.cif
#   From: 2010.05.17/outbox.cif.g08.bks.cpg/sg115_3_cif.got.tgz:4460.got - 2010.05.20 11:07:42.
