data_PCOD9557274
_publ_section_title
;
Structure prediction by ZEFSAII (Michael W. Deem and Ramdas Pophale) SiO2 
 PCOD9557274
Probable space group: P -4 M 2
;
_chemical_formula_sum "Si O2"
_cell_formula_units_Z 48
_cell_length_a 8.028995
_cell_length_b 8.028995
_cell_length_c 36.179697
_cell_angle_alpha 90.000000
_cell_angle_beta 90.000000
_cell_angle_gamma 90.000000
_cell_volume 2332.315510
_symmetry_space_group_name_H-M "P -4 M 2"
_symmetry_group_IT_number 115
_symmetry_cell_setting 'tetragonal'
loop_
_space_group_symop_operation_xyz
x,y,z
y,-x,-z
-x,-y,z
-y,x,-z
y,x,-z
-y,-x,-z
-x,y,z
x,-y,z
loop_
_atom_site_type_symbol
_atom_site_label
_atom_site_fract_x
_atom_site_fract_y
_atom_site_fract_z
Si Si1 0.192070 0.689086 0.696472
Si Si2 0.693336 0.703307 0.960523
Si Si3 0.692550 0.704211 0.120989
Si Si4 0.695232 0.000000 0.744679
Si Si5 0.686335 0.301393 0.617979
Si Si6 0.000000 0.704352 0.171978
Si Si7 0.199499 0.188399 0.460893
O O1 0.266201 0.500000 0.699424
O O2 0.263941 0.833497 0.721851
O O3 0.204119 0.742650 0.653359
O O4 0.000000 0.675712 0.706281
O O5 0.500000 0.757627 0.959671
O O6 0.693098 0.500000 0.962019
O O7 0.764577 0.743186 0.920264
O O8 0.763453 0.763453 0.000000
O O9 0.500000 0.753974 0.128652
O O10 0.690973 0.500000 0.119824
O O11 0.832071 0.755036 0.150333
O O12 0.768416 0.000000 0.786014
O O13 0.500000 0.000000 0.749982
O O14 0.500000 0.253585 0.628762
O O15 0.697662 0.500000 0.613776
O O16 0.723952 0.231268 0.577706
O O17 0.000000 0.500000 0.171690
O O18 0.262510 0.262510 0.500000
O O19 0.000000 0.181126 0.465835
O O20 0.265129 0.000000 0.456645
#
# Coordination Sequence:
#
# PCOD9557274 Si02
#       7
#     8   8   8   4   8   4   8
#     4  10  22  41  63  85 111 145 188 238 289 345
#     4   7   9  14  27  49  77 111 155 207 257 303
#     4   8  13  22  36  55  87 131 174 217 264 319
#     4  11  23  37  57  85 117 151 185 233 291 353
#     4  10  21  36  55  81 111 141 174 218 278 340
#     4   9  18  29  41  65 101 139 179 215 267 339
#     4   9  19  35  53  75 106 146 190 229 264 311
#
# _framework density 20.580404999999999
#
# number of rings (size 3 to 8) (size 9 to 14) (size 15 to 20)
#    0.000    3.000    0.000    3.250    1.167    3.667 
#    0.000    4.167    0.000    0.000    0.000    0.000 
#    5.000    0.000    5.000    0.000    1.000    0.000 
#
# Total GULP energy -267299.576291 kJ/mol
# GULP energy per Si atom -5568.741173 kJ/mol
# Density = 2.053356 g / cm^3
# Si number density = 20.580405 Si / 1000 Ang^3
#
#
#
# Elastic Constant Matrix: (Units=GPa)
#
#
# Indices 1 2 3 4 5 6 
#
# 1 45.1846 19.8453 46.1720 0.0000 0.0000 0.0000
# 2 19.8453 45.1846 46.1720 0.0000 0.0000 0.0000
# 3 46.1720 46.1720 177.3698 0.0000 0.0000 0.0000
# 4 0.0000 0.0000 0.0000 20.1546 0.0000 0.0000
# 5 0.0000 0.0000 0.0000 0.0000 20.1546 0.0000
# 6 0.0000 0.0000 0.0000 0.0000 0.0000 5.7791
#
#
#
# Elastic Compliance Matrix: (Units=1/GPa)
#
#
# Indices 1 2 3 4 5 6 
#
# 1 0.031930 -0.007535 -0.006350 0.000000 0.000000 0.000000
# 2 -0.007535 0.031930 -0.006350 0.000000 0.000000 0.000000
# 3 -0.006350 -0.006350 0.008944 0.000000 0.000000 0.000000
# 4 0.000000 0.000000 0.000000 0.049616 0.000000 0.000000
# 5 0.000000 0.000000 0.000000 0.000000 0.049616 0.000000
# 6 0.000000 0.000000 0.000000 0.000000 0.000000 0.173036
#
#
# Mechanical properties :
#
#
# Convention : Reuss Voigt Hill
#
# Bulk Modulus (GPa) = 30.92818 54.67976 42.80397
# Shear Modulus (GPa) = 12.61602 19.58765 16.10184
#
# Velocity S-wave (km/s) = 2.47859 3.08841 2.80015
# Velocity P-wave (km/s) = 4.82201 6.27250 5.59446
#
# Compressibility (1/GPa) = 0.03233297
#
# Stress axis : x y z
#
# Youngs Moduli (GPa) = 31.31863 31.31863 111.80445
#
# Poissons Ratio (x) = 0.23597 0.71001
# Poissons Ratio (y) = 0.23597 0.71001
# Poissons Ratio (z) = 0.19889 0.19889
#
# Static dielectric constant tensor:
#      x y z
#    x 1.759950 0.000000 0.000000 
#    y 0.000000 1.759950 0.000000 
#    z 0.000000 0.000000 1.766410 
# 
# From -- ./inp_files/6259.got.cif
#   From: 2010.05.17/outbox.cif.g08.bks.cpg/sg115_4_cif.got.tgz:6259.got - 2010.05.20 11:07:42.
