data_PCOD9557284
_publ_section_title
;
Structure prediction by ZEFSAII (Michael W. Deem and Ramdas Pophale) SiO2 
 PCOD9557284
Probable space group: P -4 M 2
;
_chemical_formula_sum "Si O2"
_cell_formula_units_Z 40
_cell_length_a 9.283554
_cell_length_b 9.283554
_cell_length_c 26.429324
_cell_angle_alpha 90.000000
_cell_angle_beta 90.000000
_cell_angle_gamma 90.000000
_cell_volume 2277.794767
_symmetry_space_group_name_H-M "P -4 M 2"
_symmetry_group_IT_number 115
_symmetry_cell_setting 'tetragonal'
loop_
_space_group_symop_operation_xyz
x,y,z
y,-x,-z
-x,-y,z
-y,x,-z
y,x,-z
-y,-x,-z
-x,y,z
x,-y,z
loop_
_atom_site_type_symbol
_atom_site_label
_atom_site_fract_x
_atom_site_fract_y
_atom_site_fract_z
Si Si1 0.824464 0.833420 0.055386
Si Si2 0.171475 0.829662 0.648547
Si Si3 0.327580 0.168860 0.843404
Si Si4 0.672669 0.670291 0.740575
Si Si5 0.329512 0.670827 0.440996
O O1 0.780499 0.744567 0.104492
O O2 0.000000 0.830985 0.053619
O O3 0.780691 0.000000 0.061027
O O4 0.777838 0.777838 0.000000
O O5 0.245785 0.749275 0.695399
O O6 0.237314 0.764060 0.597372
O O7 0.000000 0.807917 0.649800
O O8 0.200938 0.000000 0.651442
O O9 0.500000 0.177035 0.848612
O O10 0.285407 0.260328 0.794385
O O11 0.289556 0.000000 0.835496
O O12 0.500000 0.690792 0.734421
O O13 0.701376 0.500000 0.739849
O O14 0.298662 0.701339 0.500000
O O15 0.500000 0.697266 0.432485
O O16 0.305259 0.500000 0.432646
#
# Coordination Sequence:
#
# PCOD9557284 Si02
#       5
#     8   8   8   8   8
#     4   8  14  26  45  68  94 126 163 201 243 294
#     4  11  24  38  53  78 110 140 172 213 259 305
#     4   9  17  30  49  72  97 126 162 205 252 302
#     4  10  21  37  56  76 100 133 173 215 259 310
#     4   9  19  37  60  84 109 139 176 214 252 299
#
# _framework density 17.560846000000002
#
# number of rings (size 3 to 8) (size 9 to 14) (size 15 to 20)
#    0.000    2.600    0.000    3.000    0.000    7.200 
#    0.000    6.000    0.000    1.200    0.000    0.000 
#    0.000    0.000    0.000    0.000    0.000    0.000 
#
# Total GULP energy -223140.899336 kJ/mol
# GULP energy per Si atom -5578.522483 kJ/mol
# Density = 1.752088 g / cm^3
# Si number density = 17.560846 Si / 1000 Ang^3
#
#
#
# Elastic Constant Matrix: (Units=GPa)
#
#
# Indices 1 2 3 4 5 6 
#
# 1 70.3282 64.3836 90.4576 0.0000 0.0000 0.0000
# 2 64.3836 70.3280 90.4573 0.0000 0.0000 0.0000
# 3 90.4576 90.4573 173.3991 0.0000 0.0000 0.0000
# 4 0.0000 0.0000 0.0000 35.1629 0.0000 0.0000
# 5 0.0000 0.0000 0.0000 0.0000 35.1631 0.0000
# 6 0.0000 0.0000 0.0000 0.0000 0.0000 23.5402
#
#
#
# Elastic Compliance Matrix: (Units=1/GPa)
#
#
# Indices 1 2 3 4 5 6 
#
# 1 0.096508 -0.071715 -0.012934 0.000000 0.000000 0.000000
# 2 -0.071715 0.096508 -0.012934 0.000000 0.000000 0.000000
# 3 -0.012934 -0.012934 0.019262 0.000000 0.000000 0.000000
# 4 0.000000 0.000000 0.000000 0.028439 0.000000 0.000000
# 5 0.000000 0.000000 0.000000 0.000000 0.028439 0.000000
# 6 0.000000 0.000000 0.000000 0.000000 0.000000 0.042480
#
#
# Mechanical properties :
#
#
# Convention : Reuss Voigt Hill
#
# Bulk Modulus (GPa) = 58.43731 89.40579 73.92155
# Shear Modulus (GPa) = 9.75601 23.35703 16.55652
#
# Velocity S-wave (km/s) = 2.35958 3.65096 3.07385
# Velocity P-wave (km/s) = 6.38536 8.29429 7.40162
#
# Compressibility (1/GPa) = 0.01711235
#
# Stress axis : x y z
#
# Youngs Moduli (GPa) = 10.36182 10.36189 51.91672
#
# Poissons Ratio (x) = 0.74310 0.67151
# Poissons Ratio (y) = 0.74309 0.67147
# Poissons Ratio (z) = 0.13402 0.13402
#
# Static dielectric constant tensor:
#      x y z
#    x 1.584040 0.000000 0.000000 
#    y 0.000000 1.584040 0.000000 
#    z 0.000000 0.000000 1.588920 
# 
# From -- ./inp_files/5447.got.cif
#   From: 2010.05.17/outbox.cif.g08.bks.cpg/sg115_3_cif.got.tgz:5447.got - 2010.05.20 11:07:42.
