data_PCOD9557499
_publ_section_title
;
Structure prediction by ZEFSAII (Michael W. Deem and Ramdas Pophale) SiO2 
 PCOD9557499
Probable space group: P -4 M 2
;
_chemical_formula_sum "Si O2"
_cell_formula_units_Z 44
_cell_length_a 9.000000
_cell_length_b 9.000000
_cell_length_c 30.000000
_cell_angle_alpha 90.000000
_cell_angle_beta 90.000000
_cell_angle_gamma 90.000000
_cell_volume 2430.000000
_symmetry_space_group_name_H-M "P -4 M 2"
_symmetry_group_IT_number 115
_symmetry_cell_setting 'tetragonal'
loop_
_space_group_symop_operation_xyz
x,y,z
y,-x,-z
-x,-y,z
-y,x,-z
y,x,-z
-y,-x,-z
-x,y,z
x,-y,z
loop_
_atom_site_type_symbol
_atom_site_label
_atom_site_fract_x
_atom_site_fract_y
_atom_site_fract_z
Si Si1 0.323439 0.824457 0.042613
Si Si2 0.176206 0.322471 0.226179
Si Si3 0.176901 0.176901 0.500000
Si Si4 0.681030 0.328114 0.682646
Si Si5 0.177726 0.824192 0.865496
Si Si6 0.176086 0.322389 0.408491
O O1 0.500000 0.808695 0.043772
O O2 0.255528 0.770603 0.089473
O O3 0.286984 0.000000 0.038689
O O4 0.257473 0.742527 0.000000
O O5 0.197145 0.500000 0.223097
O O6 0.251977 0.268200 0.271602
O O7 0.231229 0.249733 0.180388
O O8 0.000000 0.293515 0.229626
O O9 0.232037 0.250764 0.454357
O O10 0.000000 0.202388 0.502882
O O11 0.500000 0.316587 0.682631
O O12 0.721053 0.500000 0.682668
O O13 0.731963 0.252085 0.636890
O O14 0.000000 0.806216 0.862275
O O15 0.210259 0.000000 0.869512
O O16 0.196119 0.500000 0.411392
O O17 0.000000 0.292586 0.405070
#
# Coordination Sequence:
#
# PCOD9557499 Si02
#       6
#     8   8   4   8   8   8
#     4  10  21  36  54  76 102 133 168 206 249 297
#     4   9  17  30  49  71  94 123 160 198 234 278
#     4   9  18  32  48  67  92 120 150 187 232 278
#     4   9  17  29  46  69  95 122 154 192 233 277
#     4   9  18  33  52  73  98 129 164 201 242 289
#     4   9  17  30  48  67  88 118 154 189 226 272
#
# _framework density 18.106995999999999
#
# number of rings (size 3 to 8) (size 9 to 14) (size 15 to 20)
#    0.000    2.818    0.000    1.091    0.000    5.455 
#    0.000    2.727    0.000    5.455    0.000    0.000 
#    0.000    0.000    0.000    0.000    0.000    0.000 
#
# Total GULP energy -245282.710363 kJ/mol
# GULP energy per Si atom -5574.607054 kJ/mol
# Density = 1.806578 g / cm^3
# Si number density = 18.106996 Si / 1000 Ang^3
#
#
#
# Elastic Constant Matrix: (Units=GPa)
#
#
# Indices 1 2 3 4 5 6 
#
# 1 14.5378 37.8056 62.1397 0.0000 0.0000 0.0000
# 2 37.8056 14.5378 62.1397 0.0000 0.0000 0.0000
# 3 62.1397 62.1397 237.7590 0.0000 0.0000 0.0000
# 4 0.0000 0.0000 0.0000 40.2063 0.0000 0.0000
# 5 0.0000 0.0000 0.0000 0.0000 40.2063 0.0000
# 6 0.0000 0.0000 0.0000 0.0000 0.0000 12.7883
#
#
#
# Elastic Compliance Matrix: (Units=1/GPa)
#
#
# Indices 1 2 3 4 5 6 
#
# 1 0.003685 0.046662 -0.013158 0.000000 0.000000 0.000000
# 2 0.046662 0.003685 -0.013158 0.000000 0.000000 0.000000
# 3 -0.013158 -0.013158 0.011084 0.000000 0.000000 0.000000
# 4 0.000000 0.000000 0.000000 0.024872 0.000000 0.000000
# 5 0.000000 0.000000 0.000000 0.000000 0.024872 0.000000
# 6 0.000000 0.000000 0.000000 0.000000 0.000000 0.078196
#
#
# Mechanical properties :
#
#
# Convention : Reuss Voigt Hill
#
# Bulk Modulus (GPa) = 16.90791 65.66720 41.28756
# Shear Modulus (GPa) = 39.86707 25.62349 32.74528
#
# Velocity S-wave (km/s) = 4.69737 3.76588 4.25718
# Velocity P-wave (km/s) = 6.22723 7.43331 6.85684
#
# Compressibility (1/GPa) = 0.05914390
#
# Stress axis : x y z
#
# Youngs Moduli (GPa) = 271.40431 271.40431 90.21995
#
# Poissons Ratio (x) = -12.66435 1.18715
# Poissons Ratio (y) = -12.66435 1.18715
# Poissons Ratio (z) = 3.57126 3.57126
#
# Static dielectric constant tensor:
#      x y z
#    x 1.613840 0.000000 0.000000 
#    y 0.000000 1.613840 0.000000 
#    z 0.000000 0.000000 1.612350 
# 
# From -- ./inp_files/5788.got.cif
#   From: 2010.05.17/outbox.ucp.g08.bks.cvg/sg115_3_cif.got.tgz:5788.got - 2010.06.11 11:33:38.
