data_PCOD9557605
_publ_section_title
;
Structure prediction by ZEFSAII (Michael W. Deem and Ramdas Pophale) SiO2 
 PCOD9557605
Probable space group: P -4 C 2
;
_chemical_formula_sum "Si O2"
_cell_formula_units_Z 48
_cell_length_a 13.684486
_cell_length_b 13.684486
_cell_length_c 10.179652
_cell_angle_alpha 90.000000
_cell_angle_beta 90.000000
_cell_angle_gamma 90.000000
_cell_volume 1906.294131
_symmetry_space_group_name_H-M "P -4 C 2"
_symmetry_group_IT_number 116
_symmetry_cell_setting 'tetragonal'
loop_
_space_group_symop_operation_xyz
x,y,z
y,-x,-z
-x,-y,z
-y,x,-z
y,x,1/2-z
-y,-x,1/2-z
-x,y,1/2+z
x,-y,1/2+z
loop_
_atom_site_type_symbol
_atom_site_label
_atom_site_fract_x
_atom_site_fract_y
_atom_site_fract_z
Si Si1 0.294743 0.918946 0.839838
Si Si2 0.347732 0.283111 0.423077
Si Si3 0.500000 0.500000 0.000000
Si Si4 0.205369 0.022112 0.607764
Si Si5 0.500000 0.000000 0.278906
Si Si6 0.829846 0.636138 0.812062
Si Si7 0.000000 0.000000 0.250000
Si Si8 0.434972 0.689776 0.403950
O O1 0.407806 0.953925 0.857755
O O2 0.263490 0.941440 0.691815
O O3 0.288171 0.804425 0.862803
O O4 0.229096 0.973121 0.951984
O O5 0.377579 0.238722 0.564357
O O6 0.453678 0.293676 0.359973
O O7 0.293939 0.384871 0.452156
O O8 0.571355 0.435537 0.089387
O O9 0.259316 0.118387 0.666258
O O10 0.094785 0.007571 0.655071
O O11 0.446416 0.914063 0.198060
O O12 0.762543 0.626381 0.685420
#
# Coordination Sequence:
#
# PCOD9557605 Si02
#       8
#     8   8   2   8   4   8   2   8
#     4  10  22  45  67 102 131 177 228 287 353 424
#     4  10  21  37  63  93 136 179 228 282 340 413
#     4   8  20  36  62  92 136 178 220 280 326 412
#     4  10  26  43  70  96 133 177 231 291 357 426
#     4  10  20  42  68 100 136 166 234 286 366 414
#     4  10  21  40  66  97 132 180 230 288 354 428
#     4  12  28  54  72 102 140 188 248 312 368 438
#     4  10  19  39  61  94 136 181 228 272 340 416
#
# _framework density 25.179742999999998
#
# number of rings (size 3 to 8) (size 9 to 14) (size 15 to 20)
#    0.000    2.000    1.667    0.500    4.667    8.000 
#    3.000   12.500    0.000    0.000    0.000    0.000 
#    0.000    0.000    0.000    0.000    0.000    0.000 
#
# Total GULP energy -267816.459644 kJ/mol
# GULP energy per Si atom -5579.509576 kJ/mol
# Density = 2.512243 g / cm^3
# Si number density = 25.179743 Si / 1000 Ang^3
#
#
#
# Elastic Constant Matrix: (Units=GPa)
#
#
# Indices 1 2 3 4 5 6 
#
# 1 93.4510 56.3317 35.9542 0.0000 0.0000 0.0000
# 2 56.3317 93.4510 35.9542 0.0000 0.0000 0.0000
# 3 35.9542 35.9542 72.6442 0.0000 0.0000 0.0000
# 4 0.0000 0.0000 0.0000 2.5267 0.0000 0.0000
# 5 0.0000 0.0000 0.0000 0.0000 2.5267 0.0000
# 6 0.0000 0.0000 0.0000 0.0000 0.0000 38.7794
#
#
#
# Elastic Compliance Matrix: (Units=1/GPa)
#
#
# Indices 1 2 3 4 5 6 
#
# 1 0.017849 -0.009092 -0.004334 0.000000 0.000000 0.000000
# 2 -0.009092 0.017849 -0.004334 0.000000 0.000000 0.000000
# 3 -0.004334 -0.004334 0.018056 0.000000 0.000000 0.000000
# 4 0.000000 0.000000 0.000000 0.395769 0.000000 0.000000
# 5 0.000000 0.000000 0.000000 0.000000 0.395769 0.000000
# 6 0.000000 0.000000 0.000000 0.000000 0.000000 0.025787
#
#
# Mechanical properties :
#
#
# Convention : Reuss Voigt Hill
#
# Bulk Modulus (GPa) = 54.84426 57.33623 56.09025
# Shear Modulus (GPa) = 5.47840 17.52031 11.49935
#
# Velocity S-wave (km/s) = 1.47663 2.64068 2.13935
# Velocity P-wave (km/s) = 4.97349 5.66726 5.33167
#
# Compressibility (1/GPa) = 0.01823345
#
# Stress axis : x y z
#
# Youngs Moduli (GPa) = 56.02667 56.02667 55.38314
#
# Poissons Ratio (x) = 0.50937 0.24004
# Poissons Ratio (y) = 0.50937 0.24004
# Poissons Ratio (z) = 0.24283 0.24283
#
# Static dielectric constant tensor:
#      x y z
#    x 2.075150 0.000000 0.000000 
#    y 0.000000 2.075150 0.000000 
#    z 0.000000 0.000000 2.046440 
# 
# From -- ./inp_files/1964.got.cif
#   From: 2010.05.17/outbox.cif.g08.bks.cpg/sg116_1_cif.got.tgz:1964.got - 2010.05.20 11:11:43.
