data_PCOD9557013
_publ_section_title
;
Structure prediction by ZEFSAII (Michael W. Deem and Ramdas Pophale) SiO2 
 PCOD9557013
Probable space group: P -4 M 2
;
_chemical_formula_sum "Si O2"
_cell_formula_units_Z 44
_cell_length_a 9.131199
_cell_length_b 9.131199
_cell_length_c 29.675478
_cell_angle_alpha 90.000000
_cell_angle_beta 90.000000
_cell_angle_gamma 90.000000
_cell_volume 2474.305602
_symmetry_space_group_name_H-M "P -4 M 2"
_symmetry_group_IT_number 115
_symmetry_cell_setting 'tetragonal'
loop_
_space_group_symop_operation_xyz
x,y,z
y,-x,-z
-x,-y,z
-y,x,-z
y,x,-z
-y,-x,-z
-x,y,z
x,-y,z
loop_
_atom_site_type_symbol
_atom_site_label
_atom_site_fract_x
_atom_site_fract_y
_atom_site_fract_z
Si Si1 0.327316 0.175945 0.872749
Si Si2 0.675736 0.324265 0.500000
Si Si3 0.825981 0.325640 0.957335
Si Si4 0.676205 0.673051 0.401897
Si Si5 0.169134 0.821791 0.781344
Si Si6 0.170931 0.176486 0.318297
O O1 0.500000 0.204751 0.876365
O O2 0.240838 0.256982 0.912116
O O3 0.266591 0.221368 0.823761
O O4 0.305457 0.000000 0.877144
O O5 0.500000 0.302090 0.500716
O O6 0.729714 0.270971 0.548773
O O7 0.801480 0.500000 0.958372
O O8 0.000000 0.299097 0.959098
O O9 0.748937 0.251063 0.000000
O O10 0.500000 0.685999 0.401246
O O11 0.710968 0.500000 0.398741
O O12 0.743050 0.755931 0.359738
O O13 0.220608 0.773885 0.731663
O O14 0.000000 0.776162 0.788151
O O15 0.168716 0.000000 0.779687
O O16 0.000000 0.218188 0.322046
O O17 0.178659 0.000000 0.319448
#
# Coordination Sequence:
#
# PCOD9557013 Si02
#       6
#     8   4   8   8   8   8
#     4  10  20  34  55  83 109 133 167 210 254 299
#     4   7  12  26  46  65  88 120 158 201 246 293
#     4  11  24  40  58  81 108 139 175 211 249 296
#     4   9  17  30  49  71  93 121 161 206 250 298
#     4   8  15  30  51  72  97 133 173 208 243 289
#     4   9  18  32  49  71 100 132 165 202 247 298
#
# _framework density 17.782765999999999
#
# number of rings (size 3 to 8) (size 9 to 14) (size 15 to 20)
#    0.000    2.818    0.000    3.818    0.000    6.182 
#    0.000    3.636    0.000    5.455    0.000    0.000 
#    0.000    0.000    0.000    0.000    0.000    0.000 
#
# Total GULP energy -245226.081104 kJ/mol
# GULP energy per Si atom -5573.320025 kJ/mol
# Density = 1.774229 g / cm^3
# Si number density = 17.782766 Si / 1000 Ang^3
#
#
#
# Elastic Constant Matrix: (Units=GPa)
#
#
# Indices 1 2 3 4 5 6 
#
# 1 35.7301 54.8596 65.7912 0.0000 0.0000 0.0000
# 2 54.8596 35.7285 65.7900 0.0000 0.0000 0.0000
# 3 65.7912 65.7900 207.8678 0.0000 0.0000 0.0000
# 4 0.0000 0.0000 0.0000 37.2681 0.0000 0.0000
# 5 0.0000 0.0000 0.0000 0.0000 37.2681 0.0000
# 6 0.0000 0.0000 0.0000 0.0000 0.0000 24.2191
#
#
#
# Elastic Compliance Matrix: (Units=1/GPa)
#
#
# Indices 1 2 3 4 5 6 
#
# 1 -0.015920 0.036352 -0.006467 0.000000 0.000000 0.000000
# 2 0.036352 -0.015921 -0.006467 0.000000 0.000000 0.000000
# 3 -0.006467 -0.006467 0.008904 0.000000 0.000000 0.000000
# 4 0.000000 0.000000 0.000000 0.026833 0.000000 0.000000
# 5 0.000000 0.000000 0.000000 0.000000 0.026833 0.000000
# 6 0.000000 0.000000 0.000000 0.000000 0.000000 0.041290
#
#
# Mechanical properties :
#
#
# Convention : Reuss Voigt Hill
#
# Bulk Modulus (GPa) = 41.83922 72.46756 57.15339
# Shear Modulus (GPa) = 150.84336 25.94344 88.39340
#
# Velocity S-wave (km/s) = 9.22007 3.82371 7.05799
# Velocity P-wave (km/s) = 11.70151 7.76752 9.93126
#
# Compressibility (1/GPa) = 0.02390102
#
# Stress axis : x y z
#
# Youngs Moduli (GPa) = -62.81361 -62.80997 112.30635
#
# Poissons Ratio (x) = 2.28330 0.72625
# Poissons Ratio (y) = 2.28343 0.72625
# Poissons Ratio (z) = -0.40620 -0.40618
#
# Static dielectric constant tensor:
#      x y z
#    x 1.593310 0.000000 0.000000 
#    y 0.000000 1.593310 0.000000 
#    z 0.000000 0.000000 1.623100 
# 
# From -- ./inp_files/5772.got.cif
#   From: 2010.05.17/outbox.cif.g08.bks.cpg/sg115_3_cif.got.tgz:5772.got - 2010.05.20 11:07:42.
