data_PCOD9557081
_publ_section_title
;
Structure prediction by ZEFSAII (Michael W. Deem and Ramdas Pophale) SiO2 
 PCOD9557081
Probable space group: P -4 M 2
;
_chemical_formula_sum "Si O2"
_cell_formula_units_Z 64
_cell_length_a 13.460990
_cell_length_b 13.460990
_cell_length_c 21.760270
_cell_angle_alpha 90.000000
_cell_angle_beta 90.000000
_cell_angle_gamma 90.000000
_cell_volume 3942.922882
_symmetry_space_group_name_H-M "P -4 M 2"
_symmetry_group_IT_number 115
_symmetry_cell_setting 'tetragonal'
loop_
_space_group_symop_operation_xyz
x,y,z
y,-x,-z
-x,-y,z
-y,x,-z
y,x,-z
-y,-x,-z
-x,y,z
x,-y,z
loop_
_atom_site_type_symbol
_atom_site_label
_atom_site_fract_x
_atom_site_fract_y
_atom_site_fract_z
Si Si1 0.882451 0.117549 0.571459
Si Si2 0.717877 0.117369 1.000000
Si Si3 0.782349 0.617068 0.116517
Si Si4 0.750299 0.750300 0.661052
Si Si5 0.382932 0.217650 0.116518
Si Si6 0.382583 0.883160 0.750987
Si Si7 0.617857 0.382143 0.571331
Si Si8 0.116840 0.617417 0.750986
O O1 0.859849 0.140152 0.500000
O O2 0.817762 0.182237 0.617083
O O3 0.000000 0.135243 0.580738
O O4 0.864758 0.000000 0.580737
O O5 0.656951 0.152246 0.059945
O O6 0.733136 0.000000 0.999999
O O7 0.820314 0.179687 0.000000
O O8 0.656950 0.152248 0.940056
O O9 0.762615 0.500000 0.109510
O O10 0.682069 0.682071 0.117577
O O11 0.840678 0.632578 0.180387
O O12 0.682576 0.819929 0.703955
O O13 0.681355 0.681357 0.618510
O O14 0.819928 0.682577 0.703954
O O15 0.500000 0.237382 0.109510
O O16 0.367422 0.159321 0.180388
O O17 0.500000 0.872531 0.736805
O O18 0.357856 0.000000 0.748807
O O19 0.641638 0.358363 0.500000
O O20 0.500000 0.364755 0.579925
O O21 0.635247 0.500000 0.579926
O O22 0.127470 0.500000 0.736804
O O23 0.000000 0.642144 0.748806
#
# Coordination Sequence:
#
# PCOD9557081 Si02
#       8
#     8   8   8   8   8   8   8   8
#     4   9  19  35  53  75 102 132 170 215 260 306
#     4  10  21  36  58  82 106 142 187 230 268 314
#     4  10  20  36  55  80 108 140 178 219 264 313
#     4  12  19  32  54  79 102 134 176 212 256 313
#     4  10  20  36  55  80 108 140 178 219 264 313
#     4  10  21  35  51  74 107 140 171 214 264 312
#     4   9  19  35  53  75 104 136 170 211 258 308
#     4  10  21  35  51  74 107 140 171 214 264 312
#
# _framework density 16.231614
#
# number of rings (size 3 to 8) (size 9 to 14) (size 15 to 20)
#    0.000    2.000    1.250    3.750    0.000    2.375 
#    0.000    0.000    0.000    2.250    0.000   10.500 
#    0.000    0.000    0.000    0.000    0.000    0.000 
#
# Total GULP energy -357237.732270 kJ/mol
# GULP energy per Si atom -5581.839567 kJ/mol
# Density = 1.619467 g / cm^3
# Si number density = 16.231614 Si / 1000 Ang^3
#
#
#
# Elastic Constant Matrix: (Units=GPa)
#
#
# Indices 1 2 3 4 5 6 
#
# 1 119.2481 110.5500 99.1360 0.0000 0.0000 0.0000
# 2 110.5500 119.2386 99.1364 0.0000 0.0000 0.0000
# 3 99.1360 99.1364 150.5951 0.0000 0.0000 0.0000
# 4 0.0000 0.0000 0.0000 24.7381 0.0000 0.0000
# 5 0.0000 0.0000 0.0000 0.0000 24.7382 0.0000
# 6 0.0000 0.0000 0.0000 0.0000 0.0000 24.4635
#
#
#
# Elastic Compliance Matrix: (Units=1/GPa)
#
#
# Indices 1 2 3 4 5 6 
#
# 1 0.062546 -0.052479 -0.006627 0.000000 0.000000 0.000000
# 2 -0.052479 0.062558 -0.006635 0.000000 0.000000 0.000000
# 3 -0.006627 -0.006635 0.015371 0.000000 0.000000 0.000000
# 4 0.000000 0.000000 0.000000 0.040424 0.000000 0.000000
# 5 0.000000 0.000000 0.000000 0.000000 0.040423 0.000000
# 6 0.000000 0.000000 0.000000 0.000000 0.000000 0.040877
#
#
# Mechanical properties :
#
#
# Convention : Reuss Voigt Hill
#
# Bulk Modulus (GPa) = 111.20142 111.85851 111.52996
# Shear Modulus (GPa) = 12.60465 20.13858 16.37161
#
# Velocity S-wave (km/s) = 2.78969 3.52618 3.17933
# Velocity P-wave (km/s) = 8.89013 9.25431 9.07404
#
# Compressibility (1/GPa) = 0.00899269
#
# Stress axis : x y z
#
# Youngs Moduli (GPa) = 15.98817 15.98522 65.05744
#
# Poissons Ratio (x) = 0.83888 0.43116
# Poissons Ratio (y) = 0.83904 0.43167
# Poissons Ratio (z) = 0.10596 0.10607
#
# Static dielectric constant tensor:
#      x y z
#    x 1.516950 0.000000 0.000000 
#    y 0.000000 1.516950 0.000000 
#    z 0.000000 0.000000 1.524260 
# 
# From -- ./inp_files/5381.got.cif
#   From: 2010.05.17/outbox.cif.g08.bks.cpg/sg115_3_cif.got.tgz:5381.got - 2010.05.20 11:07:42.
