data_PCOD9557421
_publ_section_title
;
Structure prediction by ZEFSAII (Michael W. Deem and Ramdas Pophale) SiO2 
 PCOD9557421
Probable space group: P -4 M 2
;
_chemical_formula_sum "Si O2"
_cell_formula_units_Z 40
_cell_length_a 13.844752
_cell_length_b 13.844752
_cell_length_c 13.149306
_cell_angle_alpha 90.000000
_cell_angle_beta 90.000000
_cell_angle_gamma 90.000000
_cell_volume 2520.421603
_symmetry_space_group_name_H-M "P -4 M 2"
_symmetry_group_IT_number 115
_symmetry_cell_setting 'tetragonal'
loop_
_space_group_symop_operation_xyz
x,y,z
y,-x,-z
-x,-y,z
-y,x,-z
y,x,-z
-y,-x,-z
-x,y,z
x,-y,z
loop_
_atom_site_type_symbol
_atom_site_label
_atom_site_fract_x
_atom_site_fract_y
_atom_site_fract_z
Si Si1 0.612299 0.384788 0.120380
Si Si2 0.887849 0.388558 0.627490
Si Si3 0.249243 0.247486 0.246241
Si Si4 0.889495 0.110983 0.877807
Si Si5 0.113160 0.748467 0.438222
O O1 0.500000 0.355039 0.140630
O O2 0.617203 0.500000 0.136818
O O3 0.691000 0.330667 0.189077
O O4 0.631701 0.368300 0.000000
O O5 0.859905 0.500000 0.624798
O O6 0.822209 0.328365 0.703230
O O7 0.880164 0.340386 0.516574
O O8 0.000000 0.381103 0.658325
O O9 0.184661 0.185838 0.168678
O O10 0.176147 0.273880 0.338256
O O11 0.000000 0.133662 0.846162
O O12 0.869519 0.000000 0.846651
O O13 0.886169 0.113832 0.000000
O O14 0.162161 0.837840 0.500000
O O15 0.000000 0.766942 0.416038
#
# Coordination Sequence:
#
# PCOD9557421 Si02
#       5
#     8   8   8   8   8
#     4   9  19  35  52  71  96 125 159 202 252 301
#     4   9  18  32  47  65  92 122 151 188 236 285
#     4  11  18  29  51  75  92 118 162 203 235 275
#     4   9  18  31  46  68 100 132 156 183 226 278
#     4   9  19  32  46  68  97 128 160 193 233 280
#
# _framework density 15.870362
#
# number of rings (size 3 to 8) (size 9 to 14) (size 15 to 20)
#    0.000    2.600    0.000    3.600    0.000    1.800 
#    0.000    0.000    0.000    1.800    0.000   21.000 
#    0.000    0.000    0.000    0.000    0.000    0.000 
#
# Total GULP energy -222877.284610 kJ/mol
# GULP energy per Si atom -5571.932115 kJ/mol
# Density = 1.583424 g / cm^3
# Si number density = 15.870362 Si / 1000 Ang^3
#
#
#
# Elastic Constant Matrix: (Units=GPa)
#
#
# Indices 1 2 3 4 5 6 
#
# 1 97.2127 58.2865 51.5346 0.0000 0.0000 0.0000
# 2 58.2865 97.2135 51.5349 0.0000 0.0000 0.0000
# 3 51.5346 51.5349 73.4019 0.0000 0.0000 0.0000
# 4 0.0000 0.0000 0.0000 20.1717 0.0000 0.0000
# 5 0.0000 0.0000 0.0000 0.0000 20.1716 0.0000
# 6 0.0000 0.0000 0.0000 0.0000 0.0000 31.2825
#
#
#
# Elastic Compliance Matrix: (Units=1/GPa)
#
#
# Indices 1 2 3 4 5 6 
#
# 1 0.018859 -0.006830 -0.008445 0.000000 0.000000 0.000000
# 2 -0.006830 0.018859 -0.008445 0.000000 0.000000 0.000000
# 3 -0.008445 -0.008445 0.025482 0.000000 0.000000 0.000000
# 4 0.000000 0.000000 0.000000 0.049574 0.000000 0.000000
# 5 0.000000 0.000000 0.000000 0.000000 0.049575 0.000000
# 6 0.000000 0.000000 0.000000 0.000000 0.000000 0.031967
#
#
# Mechanical properties :
#
#
# Convention : Reuss Voigt Hill
#
# Bulk Modulus (GPa) = 63.45700 65.61556 64.53628
# Shear Modulus (GPa) = 20.24209 21.42330 20.83269
#
# Velocity S-wave (km/s) = 3.57524 3.67808 3.62702
# Velocity P-wave (km/s) = 7.55741 7.71182 7.63501
#
# Compressibility (1/GPa) = 0.01575870
#
# Stress axis : x y z
#
# Youngs Moduli (GPa) = 53.02508 53.02532 39.24322
#
# Poissons Ratio (x) = 0.36218 0.33141
# Poissons Ratio (y) = 0.36218 0.33142
# Poissons Ratio (z) = 0.44780 0.44781
#
# Static dielectric constant tensor:
#      x y z
#    x 1.516140 0.000000 0.000000 
#    y 0.000000 1.516140 0.000000 
#    z 0.000000 0.000000 1.528020 
# 
# From -- ./inp_files/2768.got.cif
#   From: 2010.05.17/outbox.cif.g08.bks.cpg/sg115_2_cif.got.tgz:2768.got - 2010.05.20 11:07:42.
