data_PCOD9557189
_publ_section_title
;
Structure prediction by ZEFSAII (Michael W. Deem and Ramdas Pophale) SiO2 
 PCOD9557189
Probable space group: P -4 M 2
;
_chemical_formula_sum "Si O2"
_cell_formula_units_Z 32
_cell_length_a 9.116950
_cell_length_b 9.116950
_cell_length_c 21.778871
_cell_angle_alpha 90.000000
_cell_angle_beta 90.000000
_cell_angle_gamma 90.000000
_cell_volume 1810.233129
_symmetry_space_group_name_H-M "P -4 M 2"
_symmetry_group_IT_number 115
_symmetry_cell_setting 'tetragonal'
loop_
_space_group_symop_operation_xyz
x,y,z
y,-x,-z
-x,-y,z
-y,x,-z
y,x,-z
-y,-x,-z
-x,y,z
x,-y,z
loop_
_atom_site_type_symbol
_atom_site_label
_atom_site_fract_x
_atom_site_fract_y
_atom_site_fract_z
Si Si1 0.326070 0.323185 0.299637
Si Si2 0.325782 0.677912 0.565979
Si Si3 0.172252 0.175727 0.184417
Si Si4 0.825122 0.673714 0.942337
O O1 0.500000 0.291294 0.294110
O O2 0.310616 0.500000 0.298070
O O3 0.274102 0.269287 0.367325
O O4 0.240854 0.251973 0.243689
O O5 0.267180 0.732821 0.500000
O O6 0.500000 0.709730 0.566095
O O7 0.313204 0.500000 0.565593
O O8 0.252565 0.221966 0.121696
O O9 0.000000 0.207735 0.179709
O O10 0.190913 0.000000 0.190188
O O11 0.800593 0.500000 0.939468
O O12 0.000000 0.699777 0.949269
O O13 0.743202 0.743202 0.000000
#
# Coordination Sequence:
#
# PCOD9557189 Si02
#       4
#     8   8   8   8
#     4   9  17  29  48  75 102 127 160 205 253 296
#     4   7  10  19  38  65  95 124 155 195 244 294
#     4  10  21  36  53  72  97 133 172 204 237 283
#     4  10  21  37  57  79 101 127 160 198 241 288
#
# _framework density 17.677282000000002
#
# number of rings (size 3 to 8) (size 9 to 14) (size 15 to 20)
#    0.000    3.000    0.000    3.750    0.000    4.500 
#    0.000    0.000    0.000    1.500    0.000    8.750 
#    0.000    0.000    0.000    0.000    0.000    0.000 
#
# Total GULP energy -178231.050498 kJ/mol
# GULP energy per Si atom -5569.720328 kJ/mol
# Density = 1.763705 g / cm^3
# Si number density = 17.677282 Si / 1000 Ang^3
#
#
#
# Elastic Constant Matrix: (Units=GPa)
#
#
# Indices 1 2 3 4 5 6 
#
# 1 33.2807 40.2637 66.5979 0.0000 0.0000 0.0000
# 2 40.2637 33.2805 66.5979 0.0000 0.0000 0.0000
# 3 66.5979 66.5979 235.0089 0.0000 0.0000 0.0000
# 4 0.0000 0.0000 0.0000 -124.2259 0.0000 0.0000
# 5 0.0000 0.0000 0.0000 0.0000 -124.2340 0.0000
# 6 0.0000 0.0000 0.0000 0.0000 0.0000 22.6973
#
#
#
# Elastic Compliance Matrix: (Units=1/GPa)
#
#
# Indices 1 2 3 4 5 6 
#
# 1 -0.057634 0.085568 -0.007916 0.000000 0.000000 0.000000
# 2 0.085568 -0.057635 -0.007916 0.000000 0.000000 0.000000
# 3 -0.007916 -0.007916 0.008742 0.000000 0.000000 0.000000
# 4 0.000000 0.000000 0.000000 -0.008050 0.000000 0.000000
# 5 0.000000 0.000000 0.000000 0.000000 -0.008049 0.000000
# 6 0.000000 0.000000 0.000000 0.000000 0.000000 0.044058
#
#
# Mechanical properties :
#
#
# Convention : Reuss Voigt Hill
#
# Bulk Modulus (GPa) = 30.35319 72.05435 51.20377
# Shear Modulus (GPa) = -24.14783 -36.61182 -30.37983
#
# Velocity S-wave (km/s) = -3.70000 -4.55590 -4.15007
# Velocity P-wave (km/s) = 1.02243 3.62968 2.46264
#
# Compressibility (1/GPa) = 0.03294546
#
# Stress axis : x y z
#
# Youngs Moduli (GPa) = -17.35092 -17.35070 114.39374
#
# Poissons Ratio (x) = 1.48467 0.90556
# Poissons Ratio (y) = 1.48469 0.90554
# Poissons Ratio (z) = -0.13735 -0.13735
#
# Static dielectric constant tensor:
#      x y z
#    x 1.588080 0.000000 0.000000 
#    y 0.000000 1.588080 0.000000 
#    z 0.000000 0.000000 1.627950 
# 
# From -- ./inp_files/4587.got.cif
#   From: 2010.05.17/outbox.cif.g08.bks.cpg/sg115_3_cif.got.tgz:4587.got - 2010.05.20 11:07:42.
