data_PCOD9557932
_publ_section_title
;
Structure prediction by ZEFSAII (Michael W. Deem and Ramdas Pophale) SiO2 
 PCOD9557932
Probable space group: P -4 C 2
;
_chemical_formula_sum "Si O2"
_cell_formula_units_Z 24
_cell_length_a 8.821347
_cell_length_b 8.821347
_cell_length_c 13.388009
_cell_angle_alpha 90.000000
_cell_angle_beta 90.000000
_cell_angle_gamma 90.000000
_cell_volume 1041.803489
_symmetry_space_group_name_H-M "P -4 C 2"
_symmetry_group_IT_number 116
_symmetry_cell_setting 'tetragonal'
loop_
_space_group_symop_operation_xyz
x,y,z
y,-x,-z
-x,-y,z
-y,x,-z
y,x,1/2-z
-y,-x,1/2-z
-x,y,1/2+z
x,-y,1/2+z
loop_
_atom_site_type_symbol
_atom_site_label
_atom_site_fract_x
_atom_site_fract_y
_atom_site_fract_z
Si Si1 0.731460 0.615031 0.500765
Si Si2 0.089934 0.714516 0.804628
Si Si3 0.586825 0.199011 0.281329
O O1 0.694797 0.434262 0.490696
O O2 0.833680 0.682138 0.411438
O O3 0.821429 0.631324 0.604350
O O4 0.130268 0.869733 0.750000
O O5 0.166795 0.588061 0.733122
O O6 0.913845 0.674029 0.793934
O O7 0.632746 0.367255 0.250000
#
# Coordination Sequence:
#
# PCOD9557932 Si02
#       3
#     8   8   8
#     4  11  22  39  71 100 130 175 224 277 335 388
#     4  11  24  41  65  98 134 173 220 273 328 393
#     4  11  24  41  65  98 134 173 220 273 328 393
#
# _framework density 23.036975000000002
#
# number of rings (size 3 to 8) (size 9 to 14) (size 15 to 20)
#    0.000    1.000    6.667    0.000    0.000    9.333 
#    0.000    0.000    0.000    4.000    0.000    0.000 
#    0.000    0.000    0.000    0.000    0.000    0.000 
#
# Total GULP energy -134072.787476 kJ/mol
# GULP energy per Si atom -5586.366145 kJ/mol
# Density = 2.298454 g / cm^3
# Si number density = 23.036975 Si / 1000 Ang^3
#
#
#
# Elastic Constant Matrix: (Units=GPa)
#
#
# Indices 1 2 3 4 5 6 
#
# 1 47.2712 35.8357 14.2927 0.0000 0.0000 0.0000
# 2 35.8357 47.2658 14.2918 0.0000 0.0000 0.0000
# 3 14.2927 14.2918 171.1563 0.0000 0.0000 0.0000
# 4 0.0000 0.0000 0.0000 23.0706 0.0000 0.0000
# 5 0.0000 0.0000 0.0000 0.0000 23.0718 0.0000
# 6 0.0000 0.0000 0.0000 0.0000 0.0000 36.8309
#
#
#
# Elastic Compliance Matrix: (Units=1/GPa)
#
#
# Indices 1 2 3 4 5 6 
#
# 1 0.049925 -0.037539 -0.001035 0.000000 0.000000 0.000000
# 2 -0.037539 0.049931 -0.001035 0.000000 0.000000 0.000000
# 3 -0.001035 -0.001035 0.006015 0.000000 0.000000 0.000000
# 4 0.000000 0.000000 0.000000 0.043345 0.000000 0.000000
# 5 0.000000 0.000000 0.000000 0.000000 0.043343 0.000000
# 6 0.000000 0.000000 0.000000 0.000000 0.000000 0.027151
#
#
# Mechanical properties :
#
#
# Convention : Reuss Voigt Hill
#
# Bulk Modulus (GPa) = 37.51623 43.83708 40.67666
# Shear Modulus (GPa) = 16.24361 30.01285 23.12823
#
# Velocity S-wave (km/s) = 2.65827 3.61336 3.17197
# Velocity P-wave (km/s) = 5.07370 6.03977 5.57769
#
# Compressibility (1/GPa) = 0.02665513
#
# Stress axis : x y z
#
# Youngs Moduli (GPa) = 20.02986 20.02759 166.24031
#
# Poissons Ratio (x) = 0.75182 0.17198
# Poissons Ratio (y) = 0.75191 0.17198
# Poissons Ratio (z) = 0.02072 0.02072
#
# Static dielectric constant tensor:
#      x y z
#    x 1.868390 0.000000 0.000000 
#    y 0.000000 1.868390 0.000000 
#    z 0.000000 0.000000 1.849960 
# 
# From -- ./inp_files/1393.got.cif
#   From: 2010.05.17/outbox.cif.g08.bks.cpg/sg116_1_cif.got.tgz:1393.got - 2010.05.20 11:11:43.
