data_PCOD9557426
_publ_section_title
;
Structure prediction by ZEFSAII (Michael W. Deem and Ramdas Pophale) SiO2 
 PCOD9557426
Probable space group: P -4 M 2
;
_chemical_formula_sum "Si O2"
_cell_formula_units_Z 48
_cell_length_a 19.360578
_cell_length_b 19.360578
_cell_length_c 10.110023
_cell_angle_alpha 90.000000
_cell_angle_beta 90.000000
_cell_angle_gamma 90.000000
_cell_volume 3789.559944
_symmetry_space_group_name_H-M "P -4 M 2"
_symmetry_group_IT_number 115
_symmetry_cell_setting 'tetragonal'
loop_
_space_group_symop_operation_xyz
x,y,z
y,-x,-z
-x,-y,z
-y,x,-z
y,x,-z
-y,-x,-z
-x,y,z
x,-y,z
loop_
_atom_site_type_symbol
_atom_site_label
_atom_site_fract_x
_atom_site_fract_y
_atom_site_fract_z
Si Si1 0.147759 0.082467 0.129123
Si Si2 0.303695 0.916654 0.188722
Si Si3 0.579089 0.084081 0.989201
Si Si4 0.916019 0.421049 0.313578
Si Si5 0.084269 0.701420 0.506405
Si Si6 0.918636 0.151516 0.383210
O O1 0.229684 0.096305 0.121826
O O2 0.119507 0.124415 0.254084
O O3 0.138380 0.000000 0.148989
O O4 0.107917 0.107917 0.000000
O O5 0.366093 0.890937 0.097141
O O6 0.302915 0.892243 0.341086
O O7 0.310804 0.000000 0.195885
O O8 0.500000 0.104315 0.018365
O O9 0.580698 0.000000 0.990501
O O10 0.595595 0.104566 0.837784
O O11 0.894778 0.500000 0.343773
O O12 0.893206 0.363867 0.418636
O O13 0.000000 0.420635 0.315378
O O14 0.104377 0.773387 0.436944
O O15 0.000000 0.701727 0.508979
O O16 0.901810 0.098191 0.500000
O O17 0.000000 0.154903 0.356486
#
# Coordination Sequence:
#
# PCOD9557426 Si02
#       6
#     8   8   8   8   8   8
#     4  11  23  35  44  57  73  93 127 171 214 253
#     4   9  17  29  41  55  75  94 116 148 188 235
#     4   8  14  24  39  58  77  96 114 134 170 222
#     4   8  14  24  39  59  78  94 113 136 169 221
#     4   9  17  28  41  57  74  93 117 147 188 235
#     4  11  21  33  46  57  71  95 127 166 211 251
#
# _framework density 12.666378
#
# number of rings (size 3 to 8) (size 9 to 14) (size 15 to 20)
#    0.000    2.667    1.667    2.000    2.333    2.667 
#    0.000    3.333    0.000    0.000    0.000    0.000 
#    0.000    0.000    0.000    0.000    0.000    0.000 
#
# Total GULP energy -267213.318378 kJ/mol
# GULP energy per Si atom -5566.944133 kJ/mol
# Density = 1.263755 g / cm^3
# Si number density = 12.666378 Si / 1000 Ang^3
#
#
#
# Elastic Constant Matrix: (Units=GPa)
#
#
# Indices 1 2 3 4 5 6 
#
# 1 31.4950 23.4889 20.3639 0.0000 0.0000 0.0000
# 2 23.4889 31.4965 20.3621 0.0000 0.0000 0.0000
# 3 20.3639 20.3621 51.5341 0.0000 0.0000 0.0000
# 4 0.0000 0.0000 0.0000 20.2172 0.0000 0.0000
# 5 0.0000 0.0000 0.0000 0.0000 20.2145 0.0000
# 6 0.0000 0.0000 0.0000 0.0000 0.0000 -0.3425
#
#
#
# Elastic Compliance Matrix: (Units=1/GPa)
#
#
# Indices 1 2 3 4 5 6 
#
# 1 0.075307 -0.049591 -0.010164 0.000000 0.000000 0.000000
# 2 -0.049591 0.075298 -0.010156 0.000000 0.000000 0.000000
# 3 -0.010164 -0.010156 0.027434 0.000000 0.000000 0.000000
# 4 0.000000 0.000000 0.000000 0.049463 0.000000 0.000000
# 5 0.000000 0.000000 0.000000 0.000000 0.049469 0.000000
# 6 0.000000 0.000000 0.000000 0.000000 0.000000 -2.919565
#
#
# Mechanical properties :
#
#
# Convention : Reuss Voigt Hill
#
# Bulk Modulus (GPa) = 26.16528 26.99506 26.58017
# Shear Modulus (GPa) = -2.00800 11.37187 4.68193
#
# Velocity S-wave (km/s) = -1.26045 2.99958 1.92467
# Velocity P-wave (km/s) = 4.31089 5.77540 5.09603
#
# Compressibility (1/GPa) = 0.03821859
#
# Stress axis : x y z
#
# Youngs Moduli (GPa) = 13.27891 13.28057 36.45158
#
# Poissons Ratio (x) = 0.65859 0.37049
# Poissons Ratio (y) = 0.65851 0.37019
# Poissons Ratio (z) = 0.13496 0.13487
#
# Static dielectric constant tensor:
#      x y z
#    x 1.379520 0.000000 0.000000 
#    y 0.000000 1.379490 0.000000 
#    z 0.000000 0.000000 1.436830 
# 
# From -- ./inp_files/1845.got.cif
#   From: 2010.05.17/outbox.cif.g08.bks.cpg/sg115_1_cif.got.tgz:1845.got - 2010.05.20 11:07:42.
