data_PCOD9557247
_publ_section_title
;
Structure prediction by ZEFSAII (Michael W. Deem and Ramdas Pophale) SiO2 
 PCOD9557247
Probable space group: P -4 M 2
;
_chemical_formula_sum "Si O2"
_cell_formula_units_Z 48
_cell_length_a 9.241983
_cell_length_b 9.241983
_cell_length_c 31.674863
_cell_angle_alpha 90.000000
_cell_angle_beta 90.000000
_cell_angle_gamma 90.000000
_cell_volume 2705.484660
_symmetry_space_group_name_H-M "P -4 M 2"
_symmetry_group_IT_number 115
_symmetry_cell_setting 'tetragonal'
loop_
_space_group_symop_operation_xyz
x,y,z
y,-x,-z
-x,-y,z
-y,x,-z
y,x,-z
-y,-x,-z
-x,y,z
x,-y,z
loop_
_atom_site_type_symbol
_atom_site_label
_atom_site_fract_x
_atom_site_fract_y
_atom_site_fract_z
Si Si1 0.327799 0.672202 0.000000
Si Si2 0.330270 0.173016 0.835939
Si Si3 0.327117 0.670522 0.250332
Si Si4 0.672531 0.171345 0.586533
Si Si5 0.173230 0.828591 0.077638
Si Si6 0.171487 0.672518 0.663687
Si Si7 0.328257 0.328257 0.500000
O O1 0.258248 0.746925 0.040932
O O2 0.500000 0.697484 0.998795
O O3 0.500000 0.208757 0.843314
O O4 0.283505 0.250014 0.792830
O O5 0.237224 0.213150 0.876813
O O6 0.320064 0.000000 0.830477
O O7 0.500000 0.686002 0.245360
O O8 0.295519 0.500000 0.256920
O O9 0.282284 0.758716 0.291694
O O10 0.500000 0.196509 0.591691
O O11 0.755462 0.244771 0.625059
O O12 0.715304 0.242353 0.541894
O O13 0.697662 0.000000 0.585732
O O14 0.000000 0.806360 0.071887
O O15 0.200709 0.000000 0.076111
O O16 0.198181 0.500000 0.658888
O O17 0.000000 0.696122 0.664222
O O18 0.305536 0.500000 0.506971
#
# Coordination Sequence:
#
# PCOD9557247 Si02
#       7
#     4   8   8   8   8   8   4
#     4  11  24  39  56  80 108 139 178 223 268 314
#     4   9  18  33  53  77 106 140 176 215 260 310
#     4   9  18  33  53  76 103 137 177 220 263 308
#     4  10  21  36  55  80 108 138 174 216 262 314
#     4  10  21  37  57  81 109 142 179 217 261 316
#     4  10  21  36  54  77 106 141 180 221 265 313
#     4   9  18  34  56  79 104 138 178 217 258 309
#
# _framework density 17.741738999999999
#
# number of rings (size 3 to 8) (size 9 to 14) (size 15 to 20)
#    0.000    2.333    0.000    2.000    0.000    7.333 
#    0.000    5.000    0.000    0.000    0.000    0.000 
#    0.000    0.000    0.000    0.000    0.000    0.000 
#
# Total GULP energy -267980.906953 kJ/mol
# GULP energy per Si atom -5582.935562 kJ/mol
# Density = 1.770136 g / cm^3
# Si number density = 17.741739 Si / 1000 Ang^3
#
#
#
# Elastic Constant Matrix: (Units=GPa)
#
#
# Indices 1 2 3 4 5 6 
#
# 1 69.6183 68.1289 100.4280 0.0000 0.0000 0.0000
# 2 68.1289 69.6179 100.4279 0.0000 0.0000 0.0000
# 3 100.4280 100.4279 221.7313 0.0000 0.0000 0.0000
# 4 0.0000 0.0000 0.0000 196.7339 0.0000 0.0000
# 5 0.0000 0.0000 0.0000 0.0000 196.6558 0.0000
# 6 0.0000 0.0000 0.0000 0.0000 0.0000 22.7134
#
#
#
# Elastic Compliance Matrix: (Units=1/GPa)
#
#
# Indices 1 2 3 4 5 6 
#
# 1 0.346434 -0.325057 -0.009682 0.000000 0.000000 0.000000
# 2 -0.325057 0.346438 -0.009684 0.000000 0.000000 0.000000
# 3 -0.009682 -0.009684 0.013282 0.000000 0.000000 0.000000
# 4 0.000000 0.000000 0.000000 0.005083 0.000000 0.000000
# 5 0.000000 0.000000 0.000000 0.000000 0.005085 0.000000
# 6 0.000000 0.000000 0.000000 0.000000 0.000000 0.044027
#
#
# Mechanical properties :
#
#
# Convention : Reuss Voigt Hill
#
# Bulk Modulus (GPa) = 57.77932 99.88191 78.83061
# Shear Modulus (GPa) = 3.43651 89.35281 46.39466
#
# Velocity S-wave (km/s) = 1.39326 7.10439 5.11926
# Velocity P-wave (km/s) = 5.93513 11.12279 8.91466
#
# Compressibility (1/GPa) = 0.01730723
#
# Stress axis : x y z
#
# Youngs Moduli (GPa) = 2.88656 2.88652 75.29204
#
# Poissons Ratio (x) = 0.93828 0.72901
# Poissons Ratio (y) = 0.93829 0.72915
# Poissons Ratio (z) = 0.02795 0.02795
#
# Static dielectric constant tensor:
#      x y z
#    x 1.591490 0.000000 0.000000 
#    y 0.000000 1.591490 0.000000 
#    z 0.000000 0.000000 1.572110 
# 
# From -- ./inp_files/6168.got.cif
#   From: 2010.05.17/outbox.cif.g08.bks.cpg/sg115_4_cif.got.tgz:6168.got - 2010.05.20 11:07:42.
