data_PCOD9557115
_publ_section_title
;
Structure prediction by ZEFSAII (Michael W. Deem and Ramdas Pophale) SiO2 
 PCOD9557115
Probable space group: P -4 M 2
;
_chemical_formula_sum "Si O2"
_cell_formula_units_Z 56
_cell_length_a 14.705674
_cell_length_b 14.705674
_cell_length_c 11.907391
_cell_angle_alpha 90.000000
_cell_angle_beta 90.000000
_cell_angle_gamma 90.000000
_cell_volume 2575.054843
_symmetry_space_group_name_H-M "P -4 M 2"
_symmetry_group_IT_number 115
_symmetry_cell_setting 'tetragonal'
loop_
_space_group_symop_operation_xyz
x,y,z
y,-x,-z
-x,-y,z
-y,x,-z
y,x,-z
-y,-x,-z
-x,y,z
x,-y,z
loop_
_atom_site_type_symbol
_atom_site_label
_atom_site_fract_x
_atom_site_fract_y
_atom_site_fract_z
Si Si1 0.217322 0.600517 0.689043
Si Si2 0.891301 0.711461 0.854203
Si Si3 0.605877 0.159945 0.927247
Si Si4 0.183931 0.600439 0.433074
Si Si5 0.100621 0.202696 0.160788
Si Si6 0.398614 0.673502 0.772875
Si Si7 0.902640 0.785222 0.422738
O O1 0.178294 0.500000 0.708594
O O2 0.150840 0.677153 0.737125
O O3 0.230117 0.610339 0.555405
O O4 0.312985 0.609770 0.753303
O O5 0.849451 0.810123 0.882604
O O6 0.000000 0.714135 0.853377
O O7 0.856463 0.638059 0.945680
O O8 0.500000 0.130940 0.909871
O O9 0.688647 0.111656 0.860072
O O10 0.610348 0.263902 0.883523
O O11 0.143657 0.500000 0.427238
O O12 0.255934 0.607686 0.332074
O O13 0.110058 0.677691 0.421535
O O14 0.102448 0.184571 0.294016
O O15 0.000000 0.176356 0.117367
O O16 0.500000 0.632607 0.770980
O O17 0.825522 0.825522 0.500000
O O18 0.000000 0.812472 0.470344
#
# Coordination Sequence:
#
# PCOD9557115 Si02
#       7
#     8   8   8   8   8   8   8
#     4  11  23  38  62  95 130 169 214 260 318 389
#     4  12  26  45  66  90 129 171 214 268 329 390
#     4  11  23  42  68  95 124 162 209 261 319 384
#     4  10  20  37  62  92 126 165 209 261 319 384
#     4  11  24  42  68  99 128 166 220 275 328 387
#     4  10  20  38  65  92 125 169 210 258 319 382
#     4  11  23  39  61  91 129 172 217 266 324 387
#
# _framework density 21.747108000000001
#
# number of rings (size 3 to 8) (size 9 to 14) (size 15 to 20)
#    0.000    1.143    2.857    3.429    0.000    5.286 
#    0.000    4.286    0.000    4.286    0.000    2.000 
#    0.000    0.000    0.000    0.000    0.000    0.000 
#
# Total GULP energy -312793.549941 kJ/mol
# GULP energy per Si atom -5585.599106 kJ/mol
# Density = 2.169761 g / cm^3
# Si number density = 21.747108 Si / 1000 Ang^3
#
#
#
# Elastic Constant Matrix: (Units=GPa)
#
#
# Indices 1 2 3 4 5 6 
#
# 1 92.0384 35.2668 23.6762 0.0000 0.0000 0.0000
# 2 35.2668 92.0384 23.6762 0.0000 0.0000 0.0000
# 3 23.6762 23.6762 50.1823 0.0000 0.0000 0.0000
# 4 0.0000 0.0000 0.0000 17.2313 0.0000 0.0000
# 5 0.0000 0.0000 0.0000 0.0000 17.2313 0.0000
# 6 0.0000 0.0000 0.0000 0.0000 0.0000 -5.4361
#
#
#
# Elastic Compliance Matrix: (Units=1/GPa)
#
#
# Indices 1 2 3 4 5 6 
#
# 1 0.013571 -0.004044 -0.004495 0.000000 0.000000 0.000000
# 2 -0.004044 0.013571 -0.004495 0.000000 0.000000 0.000000
# 3 -0.004495 -0.004495 0.024169 0.000000 0.000000 0.000000
# 4 0.000000 0.000000 0.000000 0.058034 0.000000 0.000000
# 5 0.000000 0.000000 0.000000 0.000000 0.058034 0.000000
# 6 0.000000 0.000000 0.000000 0.000000 0.000000 -0.183954
#
#
# Mechanical properties :
#
#
# Convention : Reuss Voigt Hill
#
# Bulk Modulus (GPa) = 39.61449 44.38860 42.00155
# Shear Modulus (GPa) = 279.25085 15.91464 147.58275
#
# Velocity S-wave (km/s) = 11.34403 2.70812 8.24685
# Velocity P-wave (km/s) = 13.77818 5.49856 10.48981
#
# Compressibility (1/GPa) = 0.02524329
#
# Stress axis : x y z
#
# Youngs Moduli (GPa) = 73.68793 73.68793 41.37569
#
# Poissons Ratio (x) = 0.29797 0.18598
# Poissons Ratio (y) = 0.29797 0.18598
# Poissons Ratio (z) = 0.33122 0.33122
#
# Static dielectric constant tensor:
#      x y z
#    x 1.779130 0.000000 0.000000 
#    y 0.000000 1.779130 0.000000 
#    z 0.000000 0.000000 1.826420 
# 
# From -- ./inp_files/3095.got.cif
#   From: 2010.05.17/outbox.cif.g08.bks.cpg/sg115_2_cif.got.tgz:3095.got - 2010.05.20 11:07:42.
