data_PCOD9557934
_publ_section_title
;
Structure prediction by ZEFSAII (Michael W. Deem and Ramdas Pophale) SiO2 
 PCOD9557934
Probable space group: P -4 C 2
;
_chemical_formula_sum "Si O2"
_cell_formula_units_Z 38
_cell_length_a 11.996497
_cell_length_b 11.996497
_cell_length_c 13.635472
_cell_angle_alpha 90.000000
_cell_angle_beta 90.000000
_cell_angle_gamma 90.000000
_cell_volume 1962.361774
_symmetry_space_group_name_H-M "P -4 C 2"
_symmetry_group_IT_number 116
_symmetry_cell_setting 'tetragonal'
loop_
_space_group_symop_operation_xyz
x,y,z
y,-x,-z
-x,-y,z
-y,x,-z
y,x,1/2-z
-y,-x,1/2-z
-x,y,1/2+z
x,-y,1/2+z
loop_
_atom_site_type_symbol
_atom_site_label
_atom_site_fract_x
_atom_site_fract_y
_atom_site_fract_z
Si Si1 0.066040 0.320499 0.448416
Si Si2 0.508130 0.154908 0.391340
Si Si3 0.500000 0.500000 0.000000
Si Si4 0.629960 0.642137 0.633107
Si Si5 0.500000 0.000000 0.712232
Si Si6 0.723318 0.828466 0.494780
O O1 0.089484 0.413215 0.532372
O O2 0.173812 0.240497 0.449894
O O3 0.039255 0.396042 0.353647
O O4 0.954239 0.251101 0.471856
O O5 0.550102 0.279860 0.396500
O O6 0.379055 0.156693 0.419761
O O7 0.528373 0.101248 0.285339
O O8 0.602822 0.520089 0.924872
O O9 0.631848 0.631848 0.750000
O O10 0.673445 0.758001 0.587058
#
# Coordination Sequence:
#
# PCOD9557934 Si02
#       6
#     8   8   2   8   4   8
#     4  11  24  41  69  95 130 174 218 272 332 393
#     4  11  22  41  64  93 132 168 219 272 329 397
#     4  12  22  40  56  94 140 160 210 288 324 402
#     4  11  24  38  62  92 131 174 216 267 339 402
#     4  12  20  40  72  94 126 176 224 262 338 412
#     4  11  22  44  63  94 134 168 219 279 325 387
#
# _framework density 19.364422999999999
#
# number of rings (size 3 to 8) (size 9 to 14) (size 15 to 20)
#    0.000    0.842    6.316    1.579    0.000    1.263 
#    3.789    0.000    0.000    0.000    5.474    0.000 
#    0.000    0.000    0.000    0.000    0.000    0.000 
#
# Total GULP energy -211974.456642 kJ/mol
# GULP energy per Si atom -5578.275175 kJ/mol
# Density = 1.932035 g / cm^3
# Si number density = 19.364423 Si / 1000 Ang^3
#
#
#
# Elastic Constant Matrix: (Units=GPa)
#
#
# Indices 1 2 3 4 5 6 
#
# 1 104.2525 47.5879 43.5496 0.0000 0.0000 0.0000
# 2 47.5879 104.2525 43.5496 0.0000 0.0000 0.0000
# 3 43.5496 43.5496 138.7429 0.0000 0.0000 0.0000
# 4 0.0000 0.0000 0.0000 16.4938 0.0000 0.0000
# 5 0.0000 0.0000 0.0000 0.0000 16.4938 0.0000
# 6 0.0000 0.0000 0.0000 0.0000 0.0000 34.8538
#
#
#
# Elastic Compliance Matrix: (Units=1/GPa)
#
#
# Indices 1 2 3 4 5 6 
#
# 1 0.012840 -0.004808 -0.002521 0.000000 0.000000 0.000000
# 2 -0.004808 0.012840 -0.002521 0.000000 0.000000 0.000000
# 3 -0.002521 -0.002521 0.008790 0.000000 0.000000 0.000000
# 4 0.000000 0.000000 0.000000 0.060629 0.000000 0.000000
# 5 0.000000 0.000000 0.000000 0.000000 0.060629 0.000000
# 6 0.000000 0.000000 0.000000 0.000000 0.000000 0.028691
#
#
# Mechanical properties :
#
#
# Convention : Reuss Voigt Hill
#
# Bulk Modulus (GPa) = 67.70584 68.51356 68.10970
# Shear Modulus (GPa) = 23.91860 27.73902 25.82881
#
# Velocity S-wave (km/s) = 3.51833 3.78891 3.65612
# Velocity P-wave (km/s) = 7.17947 7.38912 7.28505
#
# Compressibility (1/GPa) = 0.01476977
#
# Stress axis : x y z
#
# Youngs Moduli (GPa) = 77.88236 77.88236 113.76187
#
# Poissons Ratio (x) = 0.37444 0.28681
# Poissons Ratio (y) = 0.37444 0.28681
# Poissons Ratio (z) = 0.19635 0.19635
#
# Static dielectric constant tensor:
#      x y z
#    x 1.734980 0.000000 0.000000 
#    y 0.000000 1.734980 0.000000 
#    z 0.000000 0.000000 1.672450 
# 
# From -- ./inp_files/2600.got.cif
#   From: 2010.05.17/outbox.cif.g08.bks.cpg/sg116_2_cif.got.tgz:2600.got - 2010.05.20 11:11:43.
