data_PCOD9557332
_publ_section_title
;
Structure prediction by ZEFSAII (Michael W. Deem and Ramdas Pophale) SiO2 
 PCOD9557332
Probable space group: P -4 M 2
;
_chemical_formula_sum "Si O2"
_cell_formula_units_Z 36
_cell_length_a 9.023741
_cell_length_b 9.023741
_cell_length_c 23.636929
_cell_angle_alpha 90.000000
_cell_angle_beta 90.000000
_cell_angle_gamma 90.000000
_cell_volume 1924.705530
_symmetry_space_group_name_H-M "P -4 M 2"
_symmetry_group_IT_number 115
_symmetry_cell_setting 'tetragonal'
loop_
_space_group_symop_operation_xyz
x,y,z
y,-x,-z
-x,-y,z
-y,x,-z
y,x,-z
-y,-x,-z
-x,y,z
x,-y,z
loop_
_atom_site_type_symbol
_atom_site_label
_atom_site_fract_x
_atom_site_fract_y
_atom_site_fract_z
Si Si1 0.176498 0.176498 0.500000
Si Si2 0.823635 0.175919 0.281079
Si Si3 0.676470 0.676417 0.390378
Si Si4 0.675491 0.322641 0.827418
Si Si5 0.676497 0.824929 0.053882
O O1 0.247920 0.248846 0.444539
O O2 0.000000 0.201986 0.500260
O O3 0.744092 0.254319 0.333660
O O4 0.761463 0.243484 0.223098
O O5 0.000000 0.199356 0.284897
O O6 0.795138 0.000000 0.282846
O O7 0.500000 0.701559 0.391978
O O8 0.702388 0.500000 0.391262
O O9 0.500000 0.294048 0.825867
O O10 0.698131 0.500000 0.820420
O O11 0.741957 0.280374 0.888338
O O12 0.500000 0.801250 0.045653
O O13 0.702224 0.000000 0.060148
O O14 0.761394 0.761394 0.000000
#
# Coordination Sequence:
#
# PCOD9557332 Si02
#       5
#     4   8   8   8   8
#     4  11  24  41  62  90 122 155 194 239 288 342
#     4  11  24  40  59  86 119 154 193 237 287 343
#     4  11  24  41  62  89 119 153 196 241 286 341
#     4  10  21  38  61  87 114 148 192 239 287 342
#     4  10  21  37  58  84 114 150 191 235 286 342
#
# _framework density 18.704160000000002
#
# number of rings (size 3 to 8) (size 9 to 14) (size 15 to 20)
#    0.000    1.444    0.000    4.667    0.000   14.667 
#    0.000    0.000    0.000    0.000    0.000    0.000 
#    0.000    0.000    0.000    0.000    0.000    0.000 
#
# Total GULP energy -201373.884897 kJ/mol
# GULP energy per Si atom -5593.719025 kJ/mol
# Density = 1.866159 g / cm^3
# Si number density = 18.704160 Si / 1000 Ang^3
#
#
#
# Elastic Constant Matrix: (Units=GPa)
#
#
# Indices 1 2 3 4 5 6 
#
# 1 115.7406 109.1926 101.7303 0.0000 0.0000 0.0000
# 2 109.1926 115.7406 101.7303 0.0000 0.0000 0.0000
# 3 101.7303 101.7303 193.8316 0.0000 0.0000 0.0000
# 4 0.0000 0.0000 0.0000 58.0056 0.0000 0.0000
# 5 0.0000 0.0000 0.0000 0.0000 58.0056 0.0000
# 6 0.0000 0.0000 0.0000 0.0000 0.0000 33.1795
#
#
#
# Elastic Compliance Matrix: (Units=1/GPa)
#
#
# Indices 1 2 3 4 5 6 
#
# 1 0.080592 -0.072128 -0.004442 0.000000 0.000000 0.000000
# 2 -0.072128 0.080592 -0.004442 0.000000 0.000000 0.000000
# 3 -0.004442 -0.004442 0.009822 0.000000 0.000000 0.000000
# 4 0.000000 0.000000 0.000000 0.017240 0.000000 0.000000
# 5 0.000000 0.000000 0.000000 0.000000 0.017240 0.000000
# 6 0.000000 0.000000 0.000000 0.000000 0.000000 0.030139
#
#
# Mechanical properties :
#
#
# Convention : Reuss Voigt Hill
#
# Bulk Modulus (GPa) = 111.34572 116.73544 114.04058
# Shear Modulus (GPa) = 12.47997 37.34879 24.91438
#
# Velocity S-wave (km/s) = 2.58588 4.47342 3.65365
# Velocity P-wave (km/s) = 8.28099 9.44611 8.88268
#
# Compressibility (1/GPa) = 0.00898104
#
# Stress axis : x y z
#
# Youngs Moduli (GPa) = 12.40822 12.40822 101.81274
#
# Poissons Ratio (x) = 0.89498 0.45227
# Poissons Ratio (y) = 0.89498 0.45227
# Poissons Ratio (z) = 0.05512 0.05512
#
# Static dielectric constant tensor:
#      x y z
#    x 1.624180 0.000000 0.000000 
#    y 0.000000 1.624180 0.000000 
#    z 0.000000 0.000000 1.599480 
# 
# From -- ./inp_files/5125.got.cif
#   From: 2010.05.17/outbox.cif.g08.bks.cpg/sg115_3_cif.got.tgz:5125.got - 2010.05.20 11:07:42.
