data_PCOD9557253
_publ_section_title
;
Structure prediction by ZEFSAII (Michael W. Deem and Ramdas Pophale) SiO2 
 PCOD9557253
Probable space group: P -4 M 2
;
_chemical_formula_sum "Si O2"
_cell_formula_units_Z 48
_cell_length_a 9.181654
_cell_length_b 9.181654
_cell_length_c 31.840355
_cell_angle_alpha 90.000000
_cell_angle_beta 90.000000
_cell_angle_gamma 90.000000
_cell_volume 2684.230130
_symmetry_space_group_name_H-M "P -4 M 2"
_symmetry_group_IT_number 115
_symmetry_cell_setting 'tetragonal'
loop_
_space_group_symop_operation_xyz
x,y,z
y,-x,-z
-x,-y,z
-y,x,-z
y,x,-z
-y,-x,-z
-x,y,z
x,-y,z
loop_
_atom_site_type_symbol
_atom_site_label
_atom_site_fract_x
_atom_site_fract_y
_atom_site_fract_z
Si Si1 0.328789 0.325436 0.670977
Si Si2 0.826694 0.173307 0.500000
Si Si3 0.172845 0.326408 0.414752
Si Si4 0.172575 0.825737 0.921694
Si Si5 0.673257 0.326744 0.000000
Si Si6 0.675500 0.170297 0.243343
Si Si7 0.825249 0.670525 0.165671
O O1 0.500000 0.289137 0.677136
O O2 0.317865 0.500000 0.666861
O O3 0.278281 0.252191 0.627756
O O4 0.238917 0.280243 0.711942
O O5 0.750074 0.224736 0.542637
O O6 0.000000 0.197960 0.503720
O O7 0.194198 0.500000 0.418799
O O8 0.000000 0.298726 0.410572
O O9 0.245756 0.786997 0.877247
O O10 0.000000 0.796519 0.920793
O O11 0.192207 0.000000 0.928093
O O12 0.249295 0.740356 0.959233
O O13 0.500000 0.301364 0.997800
O O14 0.500000 0.183235 0.240363
O O15 0.747784 0.256722 0.205255
O O16 0.713589 0.000000 0.241325
O O17 0.787561 0.500000 0.162314
O O18 0.000000 0.681731 0.170846
#
# Coordination Sequence:
#
# PCOD9557253 Si02
#       7
#     8   4   8   8   4   8   8
#     4   9  18  33  51  71  98 132 168 208 255 305
#     4   9  18  32  48  67  94 126 158 195 244 300
#     4   9  18  32  49  70  96 126 162 204 249 299
#     4  10  21  38  60  84 110 142 180 222 269 318
#     4  11  24  39  56  82 114 147 184 223 264 314
#     4  10  21  36  54  78 108 141 177 217 263 315
#     4  10  21  37  58  83 110 142 180 221 266 316
#
# _framework density 17.882221999999999
#
# number of rings (size 3 to 8) (size 9 to 14) (size 15 to 20)
#    0.000    2.333    0.000    2.000    0.000    7.333 
#    0.000    1.667    0.000    0.000    0.000    0.000 
#    0.000    0.000    0.000    0.000    0.000    0.000 
#
# Total GULP energy -267954.623086 kJ/mol
# GULP energy per Si atom -5582.387981 kJ/mol
# Density = 1.784152 g / cm^3
# Si number density = 17.882222 Si / 1000 Ang^3
#
#
#
# Elastic Constant Matrix: (Units=GPa)
#
#
# Indices 1 2 3 4 5 6 
#
# 1 68.8438 59.2261 89.3686 0.0000 0.0000 0.0000
# 2 59.2261 68.8439 89.3688 0.0000 0.0000 0.0000
# 3 89.3686 89.3688 215.1979 0.0000 0.0000 0.0000
# 4 0.0000 0.0000 0.0000 41.2172 0.0000 0.0000
# 5 0.0000 0.0000 0.0000 0.0000 41.2173 0.0000
# 6 0.0000 0.0000 0.0000 0.0000 0.0000 24.4497
#
#
#
# Elastic Compliance Matrix: (Units=1/GPa)
#
#
# Indices 1 2 3 4 5 6 
#
# 1 0.061273 -0.042701 -0.007713 0.000000 0.000000 0.000000
# 2 -0.042701 0.061273 -0.007713 0.000000 0.000000 0.000000
# 3 -0.007713 -0.007713 0.011053 0.000000 0.000000 0.000000
# 4 0.000000 0.000000 0.000000 0.024262 0.000000 0.000000
# 5 0.000000 0.000000 0.000000 0.000000 0.024262 0.000000
# 6 0.000000 0.000000 0.000000 0.000000 0.000000 0.040900
#
#
# Mechanical properties :
#
#
# Convention : Reuss Voigt Hill
#
# Bulk Modulus (GPa) = 57.64862 92.09029 74.86946
# Shear Modulus (GPa) = 14.49030 29.03833 21.76432
#
# Velocity S-wave (km/s) = 2.84970 4.03409 3.49247
# Velocity P-wave (km/s) = 6.56777 8.56204 7.63034
#
# Compressibility (1/GPa) = 0.01734647
#
# Stress axis : x y z
#
# Youngs Moduli (GPa) = 16.32033 16.32034 90.47289
#
# Poissons Ratio (x) = 0.69689 0.69781
# Poissons Ratio (y) = 0.69689 0.69781
# Poissons Ratio (z) = 0.12588 0.12588
#
# Static dielectric constant tensor:
#      x y z
#    x 1.599150 0.000000 0.000000 
#    y 0.000000 1.599150 0.000000 
#    z 0.000000 0.000000 1.579760 
# 
# From -- ./inp_files/6227.got.cif
#   From: 2010.05.17/outbox.cif.g08.bks.cpg/sg115_4_cif.got.tgz:6227.got - 2010.05.20 11:07:42.
