data_PCOD9557839
_publ_section_title
;
Structure prediction by ZEFSAII (Michael W. Deem and Ramdas Pophale) SiO2 
 PCOD9557839
Probable space group: P -4 C 2
;
_chemical_formula_sum "Si O2"
_cell_formula_units_Z 48
_cell_length_a 17.680879
_cell_length_b 17.680879
_cell_length_c 7.644864
_cell_angle_alpha 90.000000
_cell_angle_beta 90.000000
_cell_angle_gamma 90.000000
_cell_volume 2389.887556
_symmetry_space_group_name_H-M "P -4 C 2"
_symmetry_group_IT_number 116
_symmetry_cell_setting 'tetragonal'
loop_
_space_group_symop_operation_xyz
x,y,z
y,-x,-z
-x,-y,z
-y,x,-z
y,x,1/2-z
-y,-x,1/2-z
-x,y,1/2+z
x,-y,1/2+z
loop_
_atom_site_type_symbol
_atom_site_label
_atom_site_fract_x
_atom_site_fract_y
_atom_site_fract_z
Si Si1 0.192425 0.960605 0.133594
Si Si2 0.119049 0.661931 0.425116
Si Si3 0.834709 0.889216 0.007629
Si Si4 0.539707 0.083708 0.788169
Si Si5 0.602809 0.847816 0.932730
Si Si6 0.267213 0.258604 0.049519
O O1 0.267336 0.933764 0.035850
O O2 0.126196 0.922770 0.020234
O O3 0.190642 0.921266 0.320432
O O4 0.184229 0.048677 0.147800
O O5 0.089140 0.594842 0.545750
O O6 0.109277 0.648559 0.218583
O O7 0.208568 0.681228 0.460749
O O8 0.785903 0.815505 0.044589
O O9 0.478315 0.149866 0.832852
O O10 0.585567 0.107312 0.613023
O O11 0.500000 0.000000 0.776096
O O12 0.652709 0.772123 0.970645
O O13 0.281060 0.281060 0.250000
#
# Coordination Sequence:
#
# PCOD9557839 Si02
#       6
#     8   8   8   8   8   8
#     4  10  23  40  58  82 115 158 211 285 338 393
#     4  11  24  44  64  92 134 176 229 274 334 407
#     4  10  23  38  56  85 111 152 219 277 346 398
#     4  12  27  41  62  99 138 183 220 272 351 415
#     4  12  24  43  65  91 134 175 225 275 330 408
#     4  11  23  42  68  93 123 177 232 279 330 402
#
# _framework density 20.084627000000001
#
# number of rings (size 3 to 8) (size 9 to 14) (size 15 to 20)
#    0.000    1.000    5.000    1.000    7.000    1.000 
#    0.000    1.667    0.000    0.000    0.000    0.000 
#    0.000    0.667    2.000    0.500    0.667    0.000 
#
# Total GULP energy -267613.749293 kJ/mol
# GULP energy per Si atom -5575.286444 kJ/mol
# Density = 2.003891 g / cm^3
# Si number density = 20.084627 Si / 1000 Ang^3
#
#
#
# Elastic Constant Matrix: (Units=GPa)
#
#
# Indices 1 2 3 4 5 6 
#
# 1 66.2122 17.2325 34.2283 0.0000 0.0000 0.0000
# 2 17.2325 66.2122 34.2283 0.0000 0.0000 0.0000
# 3 34.2283 34.2283 112.6169 0.0000 0.0000 0.0000
# 4 0.0000 0.0000 0.0000 16.1013 0.0000 0.0000
# 5 0.0000 0.0000 0.0000 0.0000 16.1013 0.0000
# 6 0.0000 0.0000 0.0000 0.0000 0.0000 27.2821
#
#
#
# Elastic Compliance Matrix: (Units=1/GPa)
#
#
# Indices 1 2 3 4 5 6 
#
# 1 0.018191 -0.002226 -0.004852 0.000000 0.000000 0.000000
# 2 -0.002226 0.018191 -0.004852 0.000000 0.000000 0.000000
# 3 -0.004852 -0.004852 0.011829 0.000000 0.000000 0.000000
# 4 0.000000 0.000000 0.000000 0.062107 0.000000 0.000000
# 5 0.000000 0.000000 0.000000 0.000000 0.062107 0.000000
# 6 0.000000 0.000000 0.000000 0.000000 0.000000 0.036654
#
#
# Mechanical properties :
#
#
# Convention : Reuss Voigt Hill
#
# Bulk Modulus (GPa) = 41.06843 46.26883 43.66863
# Shear Modulus (GPa) = 20.74210 22.52042 21.63126
#
# Velocity S-wave (km/s) = 3.21711 3.35218 3.28534
# Velocity P-wave (km/s) = 5.85592 6.17007 6.01505
#
# Compressibility (1/GPa) = 0.02434961
#
# Stress axis : x y z
#
# Youngs Moduli (GPa) = 54.97333 54.97333 84.53666
#
# Poissons Ratio (x) = 0.12237 0.41019
# Poissons Ratio (y) = 0.12237 0.41019
# Poissons Ratio (z) = 0.26674 0.26674
#
# Static dielectric constant tensor:
#      x y z
#    x 1.771420 0.000000 0.000000 
#    y 0.000000 1.771420 0.000000 
#    z 0.000000 0.000000 1.847190 
# 
# From -- ./inp_files/952.got.cif
#   From: 2010.05.17/outbox.cif.g08.bks.cpg/sg116_1_cif.got.tgz:952.got - 2010.05.20 11:11:43.
