data_PCOD9557586
_publ_section_title
;
Structure prediction by ZEFSAII (Michael W. Deem and Ramdas Pophale) SiO2 
 PCOD9557586
Probable space group: P -4 C 2
;
_chemical_formula_sum "Si O2"
_cell_formula_units_Z 64
_cell_length_a 11.788948
_cell_length_b 11.788948
_cell_length_c 24.520624
_cell_angle_alpha 90.000000
_cell_angle_beta 90.000000
_cell_angle_gamma 90.000000
_cell_volume 3407.859035
_symmetry_space_group_name_H-M "P -4 C 2"
_symmetry_group_IT_number 116
_symmetry_cell_setting 'tetragonal'
loop_
_space_group_symop_operation_xyz
x,y,z
y,-x,-z
-x,-y,z
-y,x,-z
y,x,1/2-z
-y,-x,1/2-z
-x,y,1/2+z
x,-y,1/2+z
loop_
_atom_site_type_symbol
_atom_site_label
_atom_site_fract_x
_atom_site_fract_y
_atom_site_fract_z
Si Si1 0.595347 0.213581 0.759433
Si Si2 0.151245 0.823511 0.185492
Si Si3 0.111828 0.152036 0.999503
Si Si4 0.754351 0.498527 0.358877
Si Si5 0.100375 0.201885 0.197174
Si Si6 0.383602 0.310454 0.811303
Si Si7 0.722713 0.183076 0.599107
Si Si8 0.925286 0.309201 0.397550
O O1 0.686996 0.313005 0.750000
O O2 0.533853 0.197992 0.701313
O O3 0.669087 0.107585 0.779913
O O4 0.507465 0.258708 0.804368
O O5 0.159547 0.840454 0.250000
O O6 0.211962 0.704192 0.172274
O O7 0.226080 0.915190 0.154494
O O8 0.019888 0.825556 0.170982
O O9 0.193468 0.194667 0.047830
O O10 0.119314 0.235268 0.948203
O O11 0.977962 0.145901 0.014952
O O12 0.644059 0.420164 0.347841
O O13 0.736243 0.614470 0.391894
O O14 0.847321 0.417250 0.386523
O O15 0.124338 0.124338 0.250000
O O16 0.199114 0.189790 0.152814
O O17 0.349802 0.349802 0.750000
O O18 0.668506 0.057565 0.594511
#
# Coordination Sequence:
#
# PCOD9557586 Si02
#       8
#     8   8   8   8   8   8   8   8
#     4  10  19  35  51  79 112 147 191 237 282 341
#     4  10  20  33  49  77 116 152 183 228 284 349
#     4   9  19  36  60  85 111 150 197 243 293 350
#     4  10  19  35  56  81 108 144 193 235 280 338
#     4  11  21  32  48  82 120 150 183 230 292 347
#     4   8  18  33  50  73 101 145 187 226 274 328
#     4  11  20  35  56  84 113 149 191 243 285 342
#     4  10  21  36  57  82 111 154 197 234 286 350
#
# _framework density 18.780121000000001
#
# number of rings (size 3 to 8) (size 9 to 14) (size 15 to 20)
#    0.000    2.125    2.500    2.625    0.000    5.500 
#    4.500    0.000    5.500    0.000    0.000    0.000 
#    0.000    0.000    0.000    0.000    0.000    0.000 
#
# Total GULP energy -356986.785138 kJ/mol
# GULP energy per Si atom -5577.918518 kJ/mol
# Density = 1.873738 g / cm^3
# Si number density = 18.780121 Si / 1000 Ang^3
#
#
#
# Elastic Constant Matrix: (Units=GPa)
#
#
# Indices 1 2 3 4 5 6 
#
# 1 69.5561 13.8863 20.4031 0.0000 0.0000 0.0000
# 2 13.8863 69.5559 20.4032 0.0000 0.0000 0.0000
# 3 20.4031 20.4032 81.0143 0.0000 0.0000 0.0000
# 4 0.0000 0.0000 0.0000 27.3216 0.0000 0.0000
# 5 0.0000 0.0000 0.0000 0.0000 27.3216 0.0000
# 6 0.0000 0.0000 0.0000 0.0000 0.0000 16.9432
#
#
#
# Elastic Compliance Matrix: (Units=1/GPa)
#
#
# Indices 1 2 3 4 5 6 
#
# 1 0.015815 -0.002148 -0.003442 0.000000 0.000000 0.000000
# 2 -0.002148 0.015815 -0.003442 0.000000 0.000000 0.000000
# 3 -0.003442 -0.003442 0.014077 0.000000 0.000000 0.000000
# 4 0.000000 0.000000 0.000000 0.036601 0.000000 0.000000
# 5 0.000000 0.000000 0.000000 0.000000 0.036601 0.000000
# 6 0.000000 0.000000 0.000000 0.000000 0.000000 0.059021
#
#
# Mechanical properties :
#
#
# Convention : Reuss Voigt Hill
#
# Bulk Modulus (GPa) = 36.17422 36.61241 36.39331
# Shear Modulus (GPa) = 24.36532 25.34619 24.85575
#
# Velocity S-wave (km/s) = 3.60585 3.67771 3.64196
# Velocity P-wave (km/s) = 6.05310 6.12958 6.09146
#
# Compressibility (1/GPa) = 0.02764400
#
# Stress axis : x y z
#
# Youngs Moduli (GPa) = 63.22964 63.22948 71.03637
#
# Poissons Ratio (x) = 0.13580 0.24452
# Poissons Ratio (y) = 0.13580 0.24452
# Poissons Ratio (z) = 0.21765 0.21765
#
# Static dielectric constant tensor:
#      x y z
#    x 1.683060 0.000000 0.000000 
#    y 0.000000 1.683060 0.000000 
#    z 0.000000 0.000000 1.650630 
# 
# From -- ./inp_files/4647.got.cif
#   From: 2010.05.17/outbox.cif.g08.bks.cpg/sg116_3_cif.got.tgz:4647.got - 2010.05.20 11:11:43.
