data_PCOD9557246
_publ_section_title
;
Structure prediction by ZEFSAII (Michael W. Deem and Ramdas Pophale) SiO2 
 PCOD9557246
Probable space group: P -4 M 2
;
_chemical_formula_sum "Si O2"
_cell_formula_units_Z 48
_cell_length_a 9.252658
_cell_length_b 9.252658
_cell_length_c 31.638224
_cell_angle_alpha 90.000000
_cell_angle_beta 90.000000
_cell_angle_gamma 90.000000
_cell_volume 2708.601511
_symmetry_space_group_name_H-M "P -4 M 2"
_symmetry_group_IT_number 115
_symmetry_cell_setting 'tetragonal'
loop_
_space_group_symop_operation_xyz
x,y,z
y,-x,-z
-x,-y,z
-y,x,-z
y,x,-z
-y,-x,-z
-x,y,z
x,-y,z
loop_
_atom_site_type_symbol
_atom_site_label
_atom_site_fract_x
_atom_site_fract_y
_atom_site_fract_z
Si Si1 0.328053 0.328053 0.000000
Si Si2 0.172414 0.171220 0.328155
Si Si3 0.329441 0.171627 0.835564
Si Si4 0.172865 0.329694 0.414244
Si Si5 0.328175 0.671826 0.500000
Si Si6 0.328830 0.327829 0.251141
Si Si7 0.828766 0.172635 0.922633
O O1 0.259542 0.252451 0.040963
O O2 0.302839 0.500000 0.001584
O O3 0.217291 0.242328 0.372661
O O4 0.254895 0.243740 0.289377
O O5 0.000000 0.197032 0.323269
O O6 0.196620 0.000000 0.329022
O O7 0.500000 0.198452 0.843882
O O8 0.286727 0.258525 0.793758
O O9 0.237515 0.209220 0.876883
O O10 0.312490 0.000000 0.827572
O O11 0.206269 0.500000 0.408148
O O12 0.248617 0.280299 0.457358
O O13 0.000000 0.315965 0.418952
O O14 0.500000 0.695961 0.495283
O O15 0.500000 0.302728 0.250471
O O16 0.303570 0.500000 0.256668
O O17 0.000000 0.200306 0.923821
O O18 0.806718 0.000000 0.929190
#
# Coordination Sequence:
#
# PCOD9557246 Si02
#       7
#     4   8   8   8   4   8   8
#     4  11  24  39  56  80 110 145 184 225 268 314
#     4  10  21  36  54  77 105 138 177 220 265 313
#     4   9  18  34  56  80 108 144 182 218 259 311
#     4   9  18  33  52  73  99 133 171 210 256 312
#     4   9  18  32  50  73 100 130 166 209 256 307
#     4  10  21  36  55  80 109 141 177 218 264 314
#     4  10  21  37  58  84 112 142 178 220 266 317
#
# _framework density 17.721321
#
# number of rings (size 3 to 8) (size 9 to 14) (size 15 to 20)
#    0.000    2.333    0.000    2.000    0.000    7.333 
#    0.000    5.000    0.000    0.000    0.000    0.000 
#    0.000    0.000    0.000    0.000    0.000    0.000 
#
# Total GULP energy -267980.830724 kJ/mol
# GULP energy per Si atom -5582.933973 kJ/mol
# Density = 1.768099 g / cm^3
# Si number density = 17.721321 Si / 1000 Ang^3
#
#
#
# Elastic Constant Matrix: (Units=GPa)
#
#
# Indices 1 2 3 4 5 6 
#
# 1 71.2874 69.8318 102.6894 0.0000 0.0000 0.0000
# 2 69.8318 71.2871 102.6894 0.0000 0.0000 0.0000
# 3 102.6894 102.6894 216.8073 0.0000 0.0000 0.0000
# 4 0.0000 0.0000 0.0000 37.8438 0.0000 0.0000
# 5 0.0000 0.0000 0.0000 0.0000 37.8438 0.0000
# 6 0.0000 0.0000 0.0000 0.0000 0.0000 23.4546
#
#
#
# Elastic Compliance Matrix: (Units=1/GPa)
#
#
# Indices 1 2 3 4 5 6 
#
# 1 0.354927 -0.332121 -0.010802 0.000000 0.000000 0.000000
# 2 -0.332121 0.354932 -0.010804 0.000000 0.000000 0.000000
# 3 -0.010802 -0.010804 0.014846 0.000000 0.000000 0.000000
# 4 0.000000 0.000000 0.000000 0.026424 0.000000 0.000000
# 5 0.000000 0.000000 0.000000 0.000000 0.026424 0.000000
# 6 0.000000 0.000000 0.000000 0.000000 0.000000 0.042636
#
#
# Mechanical properties :
#
#
# Convention : Reuss Voigt Hill
#
# Bulk Modulus (GPa) = 57.96833 101.08921 79.52877
# Shear Modulus (GPa) = 3.26074 25.43986 14.35030
#
# Velocity S-wave (km/s) = 1.35794 3.79298 2.84874
# Velocity P-wave (km/s) = 5.93639 8.73784 7.46963
#
# Compressibility (1/GPa) = 0.01725080
#
# Stress axis : x y z
#
# Youngs Moduli (GPa) = 2.81748 2.81744 67.35745
#
# Poissons Ratio (x) = 0.93573 0.72760
# Poissons Ratio (y) = 0.93574 0.72776
# Poissons Ratio (z) = 0.03043 0.03044
#
# Static dielectric constant tensor:
#      x y z
#    x 1.591390 0.000000 0.000000 
#    y 0.000000 1.591390 0.000000 
#    z 0.000000 0.000000 1.571440 
# 
# From -- ./inp_files/6143.got.cif
#   From: 2010.05.17/outbox.cif.g08.bks.cpg/sg115_4_cif.got.tgz:6143.got - 2010.05.20 11:07:42.
