data_PCOD9557250
_publ_section_title
;
Structure prediction by ZEFSAII (Michael W. Deem and Ramdas Pophale) SiO2 
 PCOD9557250
Probable space group: P -4 M 2
;
_chemical_formula_sum "Si O2"
_cell_formula_units_Z 48
_cell_length_a 9.267177
_cell_length_b 9.267177
_cell_length_c 31.556022
_cell_angle_alpha 90.000000
_cell_angle_beta 90.000000
_cell_angle_gamma 90.000000
_cell_volume 2710.049142
_symmetry_space_group_name_H-M "P -4 M 2"
_symmetry_group_IT_number 115
_symmetry_cell_setting 'tetragonal'
loop_
_space_group_symop_operation_xyz
x,y,z
y,-x,-z
-x,-y,z
-y,x,-z
y,x,-z
-y,-x,-z
-x,y,z
x,-y,z
loop_
_atom_site_type_symbol
_atom_site_label
_atom_site_fract_x
_atom_site_fract_y
_atom_site_fract_z
Si Si1 0.669341 0.826486 0.289089
Si Si2 0.328149 0.829019 0.038432
Si Si3 0.173164 0.831249 0.624346
Si Si4 0.669442 0.326702 0.451646
Si Si5 0.169458 0.326642 0.212000
Si Si6 0.671535 0.670733 0.874600
O O1 0.500000 0.790163 0.290011
O O2 0.745133 0.784580 0.333229
O O3 0.747604 0.750724 0.249979
O O4 0.682565 0.000000 0.284851
O O5 0.500000 0.803752 0.032671
O O6 0.287188 0.757267 0.083242
O O7 0.303527 0.000000 0.039598
O O8 0.243462 0.756539 0.000000
O O9 0.249022 0.763585 0.583557
O O10 0.000000 0.818125 0.619760
O O11 0.208476 0.000000 0.628953
O O12 0.711123 0.288878 0.500000
O O13 0.500000 0.290240 0.445926
O O14 0.682092 0.500000 0.447871
O O15 0.184754 0.500000 0.216384
O O16 0.239411 0.286597 0.166842
O O17 0.000000 0.291448 0.212956
O O18 0.500000 0.690416 0.881883
O O19 0.696222 0.500000 0.866687
#
# Coordination Sequence:
#
# PCOD9557250 Si02
#       6
#     8   8   8   8   8   8
#     4  10  21  37  57  79 104 139 181 221 263 313
#     4  10  21  36  55  80 109 141 178 220 265 314
#     4  10  21  36  54  78 108 140 175 216 263 316
#     4   9  19  36  56  78 105 138 177 219 262 310
#     4  10  21  36  55  81 111 141 174 215 264 316
#     4   9  18  34  55  77 104 140 180 219 259 308
#
# _framework density 17.711856999999998
#
# number of rings (size 3 to 8) (size 9 to 14) (size 15 to 20)
#    0.000    2.333    0.000    2.500    0.000    7.000 
#    0.000    5.833    0.000    0.000    0.000    0.000 
#    0.000    0.000    0.000    0.000    0.000    0.000 
#
# Total GULP energy -267995.851639 kJ/mol
# GULP energy per Si atom -5583.246909 kJ/mol
# Density = 1.767154 g / cm^3
# Si number density = 17.711857 Si / 1000 Ang^3
#
#
#
# Elastic Constant Matrix: (Units=GPa)
#
#
# Indices 1 2 3 4 5 6 
#
# 1 79.6705 64.4908 100.1453 0.0000 0.0000 0.0000
# 2 64.4908 79.6706 100.1444 0.0000 0.0000 0.0000
# 3 100.1453 100.1444 207.2412 0.0000 0.0000 0.0000
# 4 0.0000 0.0000 0.0000 163.0194 0.0000 0.0000
# 5 0.0000 0.0000 0.0000 0.0000 163.0445 0.0000
# 6 0.0000 0.0000 0.0000 0.0000 0.0000 27.9726
#
#
#
# Elastic Compliance Matrix: (Units=1/GPa)
#
#
# Indices 1 2 3 4 5 6 
#
# 1 0.043493 -0.022385 -0.010200 0.000000 0.000000 0.000000
# 2 -0.022385 0.043492 -0.010200 0.000000 0.000000 0.000000
# 3 -0.010200 -0.010200 0.014683 0.000000 0.000000 0.000000
# 4 0.000000 0.000000 0.000000 0.006134 0.000000 0.000000
# 5 0.000000 0.000000 0.000000 0.000000 0.006133 0.000000
# 6 0.000000 0.000000 0.000000 0.000000 0.000000 0.035749
#
#
# Mechanical properties :
#
#
# Convention : Reuss Voigt Hill
#
# Bulk Modulus (GPa) = 62.11508 99.57147 80.84328
# Shear Modulus (GPa) = 20.77962 77.59407 49.18684
#
# Velocity S-wave (km/s) = 3.42892 6.62603 5.27550
# Velocity P-wave (km/s) = 7.12900 10.71813 9.10222
#
# Compressibility (1/GPa) = 0.01609915
#
# Stress axis : x y z
#
# Youngs Moduli (GPa) = 22.99213 22.99277 68.10545
#
# Poissons Ratio (x) = 0.51468 0.69470
# Poissons Ratio (y) = 0.51467 0.69464
# Poissons Ratio (z) = 0.23453 0.23452
#
# Static dielectric constant tensor:
#      x y z
#    x 1.589160 0.000000 0.000000 
#    y 0.000000 1.589160 0.000000 
#    z 0.000000 0.000000 1.567810 
# 
# From -- ./inp_files/5941.got.cif
#   From: 2010.05.17/outbox.cif.g08.bks.cpg/sg115_3_cif.got.tgz:5941.got - 2010.05.20 11:07:42.
