data_PCOD9557239
_publ_section_title
;
Structure prediction by ZEFSAII (Michael W. Deem and Ramdas Pophale) SiO2 
 PCOD9557239
Probable space group: P -4 M 2
;
_chemical_formula_sum "Si O2"
_cell_formula_units_Z 44
_cell_length_a 9.202788
_cell_length_b 9.202788
_cell_length_c 29.540423
_cell_angle_alpha 90.000000
_cell_angle_beta 90.000000
_cell_angle_gamma 90.000000
_cell_volume 2501.817032
_symmetry_space_group_name_H-M "P -4 M 2"
_symmetry_group_IT_number 115
_symmetry_cell_setting 'tetragonal'
loop_
_space_group_symop_operation_xyz
x,y,z
y,-x,-z
-x,-y,z
-y,x,-z
y,x,-z
-y,-x,-z
-x,y,z
x,-y,z
loop_
_atom_site_type_symbol
_atom_site_label
_atom_site_fract_x
_atom_site_fract_y
_atom_site_fract_z
Si Si1 0.173923 0.329802 0.322161
Si Si2 0.324418 0.829035 0.239302
Si Si3 0.172189 0.826168 0.583994
Si Si4 0.822612 0.831339 0.950627
Si Si5 0.327119 0.327119 0.500000
Si Si6 0.822985 0.332207 0.860969
O O1 0.208090 0.500000 0.327588
O O2 0.254064 0.262758 0.279077
O O3 0.212600 0.242835 0.367762
O O4 0.000000 0.315706 0.315990
O O5 0.500000 0.818497 0.240428
O O6 0.276203 0.780482 0.188824
O O7 0.287665 0.000000 0.244912
O O8 0.250460 0.740673 0.543923
O O9 0.000000 0.797301 0.584202
O O10 0.192518 0.000000 0.577201
O O11 0.772405 0.750494 0.905617
O O12 0.000000 0.824851 0.951574
O O13 0.782437 0.000000 0.947156
O O14 0.774339 0.774339 0.000000
O O15 0.301762 0.500000 0.497945
O O16 0.779598 0.500000 0.864282
O O17 0.000000 0.328212 0.860940
#
# Coordination Sequence:
#
# PCOD9557239 Si02
#       6
#     8   8   8   8   4   8
#     4  10  21  36  54  77 105 136 169 207 252 300
#     4   9  18  32  50  73  99 128 166 209 250 296
#     4  10  21  38  60  83 106 136 174 212 252 298
#     4   8  13  21  35  58  86 114 148 191 236 282
#     4  11  24  39  56  82 114 145 176 209 248 294
#     4   8  14  25  41  62  89 120 154 193 237 286
#
# _framework density 17.587219000000001
#
# number of rings (size 3 to 8) (size 9 to 14) (size 15 to 20)
#    0.000    2.818    0.000    3.273    0.000    5.818 
#    0.000    1.818    0.000    1.091    0.000    2.545 
#    0.000    0.000    0.000    0.000    0.000    0.000 
#
# Total GULP energy -245257.340217 kJ/mol
# GULP energy per Si atom -5574.030459 kJ/mol
# Density = 1.754719 g / cm^3
# Si number density = 17.587219 Si / 1000 Ang^3
#
#
#
# Elastic Constant Matrix: (Units=GPa)
#
#
# Indices 1 2 3 4 5 6 
#
# 1 56.1648 45.0592 79.0846 0.0000 0.0000 0.0000
# 2 45.0592 56.1648 79.0846 0.0000 0.0000 0.0000
# 3 79.0846 79.0846 215.6511 0.0000 0.0000 0.0000
# 4 0.0000 0.0000 0.0000 -64.9129 0.0000 0.0000
# 5 0.0000 0.0000 0.0000 0.0000 -64.9129 0.0000
# 6 0.0000 0.0000 0.0000 0.0000 0.0000 20.9114
#
#
#
# Elastic Compliance Matrix: (Units=1/GPa)
#
#
# Indices 1 2 3 4 5 6 
#
# 1 0.056591 -0.033453 -0.008485 0.000000 0.000000 0.000000
# 2 -0.033453 0.056591 -0.008485 0.000000 0.000000 0.000000
# 3 -0.008485 -0.008485 0.010861 0.000000 0.000000 0.000000
# 4 0.000000 0.000000 0.000000 -0.015405 0.000000 0.000000
# 5 0.000000 0.000000 0.000000 0.000000 -0.015405 0.000000
# 6 0.000000 0.000000 0.000000 0.000000 0.000000 0.047821
#
#
# Mechanical properties :
#
#
# Convention : Reuss Voigt Hill
#
# Bulk Modulus (GPa) = 43.11213 81.60417 62.35815
# Shear Modulus (GPa) = 20.02949 -13.46607 3.28171
#
# Velocity S-wave (km/s) = 3.37837 -2.77008 1.36748
# Velocity P-wave (km/s) = 6.30749 6.02240 6.16659
#
# Compressibility (1/GPa) = 0.02319533
#
# Stress axis : x y z
#
# Youngs Moduli (GPa) = 17.67065 17.67065 92.07618
#
# Poissons Ratio (x) = 0.59114 0.78128
# Poissons Ratio (y) = 0.59114 0.78128
# Poissons Ratio (z) = 0.14994 0.14994
#
# Static dielectric constant tensor:
#      x y z
#    x 1.586020 0.000000 0.000000 
#    y 0.000000 1.586020 0.000000 
#    z 0.000000 0.000000 1.602080 
# 
# From -- ./inp_files/5794.got.cif
#   From: 2010.05.17/outbox.cif.g08.bks.cpg/sg115_3_cif.got.tgz:5794.got - 2010.05.20 11:07:42.
