data_PCOD9557408
_publ_section_title
;
Structure prediction by ZEFSAII (Michael W. Deem and Ramdas Pophale) SiO2 
 PCOD9557408
Probable space group: P -4 M 2
;
_chemical_formula_sum "Si O2"
_cell_formula_units_Z 56
_cell_length_a 15.383441
_cell_length_b 15.383441
_cell_length_c 12.380724
_cell_angle_alpha 90.000000
_cell_angle_beta 90.000000
_cell_angle_gamma 90.000000
_cell_volume 2929.901516
_symmetry_space_group_name_H-M "P -4 M 2"
_symmetry_group_IT_number 115
_symmetry_cell_setting 'tetragonal'
loop_
_space_group_symop_operation_xyz
x,y,z
y,-x,-z
-x,-y,z
-y,x,-z
y,x,-z
-y,-x,-z
-x,y,z
x,-y,z
loop_
_atom_site_type_symbol
_atom_site_label
_atom_site_fract_x
_atom_site_fract_y
_atom_site_fract_z
Si Si1 0.592792 0.599380 0.630009
Si Si2 0.104103 0.754038 0.031242
Si Si3 0.603871 0.102865 0.544875
Si Si4 0.095879 0.899237 0.612945
Si Si5 0.101793 0.596896 0.865398
Si Si6 0.849477 0.255493 0.272924
Si Si7 0.345189 0.786484 0.333457
O O1 0.598085 0.598085 0.500000
O O2 0.500000 0.642976 0.659170
O O3 0.588016 0.500000 0.666478
O O4 0.684707 0.632785 0.667748
O O5 0.135763 0.721800 0.148846
O O6 0.000000 0.771146 0.032585
O O7 0.162012 0.837989 0.000000
O O8 0.120307 0.675937 0.946484
O O9 0.500000 0.115622 0.565003
O O10 0.665900 0.124421 0.647108
O O11 0.632541 0.166095 0.446525
O O12 0.616339 0.000000 0.517754
O O13 0.136304 0.863697 0.500000
O O14 0.166526 0.900863 0.705539
O O15 0.000000 0.861883 0.639631
O O16 0.085818 0.000000 0.585609
O O17 0.114828 0.500000 0.912800
O O18 0.160377 0.606624 0.759681
O O19 0.000000 0.603540 0.834624
O O20 0.755528 0.218092 0.304560
#
# Coordination Sequence:
#
# PCOD9557408 Si02
#       7
#     8   8   8   8   8   8   8
#     4   9  18  33  53  81 120 162 201 241 295 371
#     4  11  24  45  66  90 125 164 217 274 324 384
#     4  11  24  40  60  92 132 172 214 259 314 381
#     4   9  18  33  53  80 116 158 200 236 287 368
#     4  10  22  42  68  93 120 163 216 268 321 378
#     4  12  24  38  60  89 127 164 204 261 319 375
#     4  12  22  36  62  91 129 163 206 263 315 383
#
# _framework density 19.11327
#
# number of rings (size 3 to 8) (size 9 to 14) (size 15 to 20)
#    0.000    1.429    1.429    6.000    0.000    6.429 
#    0.000    1.429    0.000    0.000    0.000    0.000 
#    0.000    0.000    0.000    0.000    0.000    0.000 
#
# Total GULP energy -312084.687004 kJ/mol
# GULP energy per Si atom -5572.940839 kJ/mol
# Density = 1.906977 g / cm^3
# Si number density = 19.113270 Si / 1000 Ang^3
#
#
#
# Elastic Constant Matrix: (Units=GPa)
#
#
# Indices 1 2 3 4 5 6 
#
# 1 112.2917 43.1591 42.3476 0.0000 0.0000 0.0000
# 2 43.1591 112.2891 42.3471 0.0000 0.0000 0.0000
# 3 42.3476 42.3471 101.5051 0.0000 0.0000 0.0000
# 4 0.0000 0.0000 0.0000 28.8937 0.0000 0.0000
# 5 0.0000 0.0000 0.0000 0.0000 28.8937 0.0000
# 6 0.0000 0.0000 0.0000 0.0000 0.0000 -17.5596
#
#
#
# Elastic Compliance Matrix: (Units=1/GPa)
#
#
# Indices 1 2 3 4 5 6 
#
# 1 0.011395 -0.003070 -0.003473 0.000000 0.000000 0.000000
# 2 -0.003070 0.011395 -0.003473 0.000000 0.000000 0.000000
# 3 -0.003473 -0.003473 0.012750 0.000000 0.000000 0.000000
# 4 0.000000 0.000000 0.000000 0.034610 0.000000 0.000000
# 5 0.000000 0.000000 0.000000 0.000000 0.034610 0.000000
# 6 0.000000 0.000000 0.000000 0.000000 0.000000 -0.056949
#
#
# Mechanical properties :
#
#
# Convention : Reuss Voigt Hill
#
# Bulk Modulus (GPa) = 64.48565 64.64372 64.56468
# Shear Modulus (GPa) = 68.48112 21.26104 44.87108
#
# Velocity S-wave (km/s) = 5.99223 3.33884 4.85050
# Velocity P-wave (km/s) = 9.03813 6.98274 8.07609
#
# Compressibility (1/GPa) = 0.01550733
#
# Stress axis : x y z
#
# Youngs Moduli (GPa) = 87.75672 87.75458 78.43270
#
# Poissons Ratio (x) = 0.26940 0.27242
# Poissons Ratio (y) = 0.26941 0.27242
# Poissons Ratio (z) = 0.30480 0.30480
#
# Static dielectric constant tensor:
#      x y z
#    x 1.782560 0.000000 0.000000 
#    y 0.000000 1.782580 0.000000 
#    z 0.000000 0.000000 1.728820 
# 
# From -- ./inp_files/3075.got.cif
#   From: 2010.05.17/outbox.cif.g08.bks.cpg/sg115_2_cif.got.tgz:3075.got - 2010.05.20 11:07:42.
