data_PCOD9557634
_publ_section_title
;
Structure prediction by ZEFSAII (Michael W. Deem and Ramdas Pophale) SiO2 
 PCOD9557634
Probable space group: P -4 C 2
;
_chemical_formula_sum "Si O2"
_cell_formula_units_Z 56
_cell_length_a 13.645442
_cell_length_b 13.645442
_cell_length_c 14.365026
_cell_angle_alpha 90.000000
_cell_angle_beta 90.000000
_cell_angle_gamma 90.000000
_cell_volume 2674.740366
_symmetry_space_group_name_H-M "P -4 C 2"
_symmetry_group_IT_number 116
_symmetry_cell_setting 'tetragonal'
loop_
_space_group_symop_operation_xyz
x,y,z
y,-x,-z
-x,-y,z
-y,x,-z
y,x,1/2-z
-y,-x,1/2-z
-x,y,1/2+z
x,-y,1/2+z
loop_
_atom_site_type_symbol
_atom_site_label
_atom_site_fract_x
_atom_site_fract_y
_atom_site_fract_z
Si Si1 0.396232 0.806184 0.667582
Si Si2 0.921040 0.113012 0.960389
Si Si3 0.811259 0.400019 0.431919
Si Si4 0.722703 0.219671 0.491960
Si Si5 0.147981 0.567123 0.640583
Si Si6 0.715113 0.986476 0.655866
Si Si7 0.646557 0.064661 0.347754
O O1 0.507994 0.800474 0.634553
O O2 0.334595 0.755292 0.586059
O O3 0.391104 0.783918 0.777231
O O4 0.352983 0.917076 0.663672
O O5 0.977650 0.179609 0.883698
O O6 0.821529 0.171218 0.978698
O O7 0.998464 0.107896 0.047461
O O8 0.731648 0.313652 0.426631
O O9 0.808170 0.438103 0.538076
O O10 0.912945 0.344942 0.409651
O O11 0.680695 0.127718 0.435389
O O12 0.109793 0.460595 0.673845
O O13 0.049295 0.631005 0.629823
O O14 0.715740 0.934578 0.756995
#
# Coordination Sequence:
#
# PCOD9557634 Si02
#       7
#     8   8   8   8   8   8   8
#     4  10  21  38  57  88 120 147 201 257 305 359
#     4  10  20  37  54  78 120 171 209 239 295 362
#     4  12  21  35  60  88 117 154 196 245 314 360
#     4  11  23  37  60  87 121 161 202 251 305 372
#     4  10  20  35  61  87 118 157 192 257 313 357
#     4  10  20  36  59  86 115 155 203 258 300 351
#     4  10  20  35  57  91 116 150 204 252 307 357
#
# _framework density 20.936613000000001
#
# number of rings (size 3 to 8) (size 9 to 14) (size 15 to 20)
#    0.000    1.571    4.286    2.143    2.000    1.143 
#    0.000    0.714    0.000    2.143    0.000    0.000 
#    4.286    0.000    0.000    0.000    0.000    0.000 
#
# Total GULP energy -312147.645485 kJ/mol
# GULP energy per Si atom -5574.065098 kJ/mol
# Density = 2.088896 g / cm^3
# Si number density = 20.936613 Si / 1000 Ang^3
#
#
#
# Elastic Constant Matrix: (Units=GPa)
#
#
# Indices 1 2 3 4 5 6 
#
# 1 41.3600 8.4947 10.5199 0.0000 0.0000 0.0000
# 2 8.4947 41.3600 10.5199 0.0000 0.0000 0.0000
# 3 10.5199 10.5199 111.9050 0.0000 0.0000 0.0000
# 4 0.0000 0.0000 0.0000 18.1664 0.0000 0.0000
# 5 0.0000 0.0000 0.0000 0.0000 18.1664 0.0000
# 6 0.0000 0.0000 0.0000 0.0000 0.0000 10.1489
#
#
#
# Elastic Compliance Matrix: (Units=1/GPa)
#
#
# Indices 1 2 3 4 5 6 
#
# 1 0.025657 -0.004770 -0.001964 0.000000 0.000000 0.000000
# 2 -0.004770 0.025657 -0.001964 0.000000 0.000000 0.000000
# 3 -0.001964 -0.001964 0.009305 0.000000 0.000000 0.000000
# 4 0.000000 0.000000 0.000000 0.055047 0.000000 0.000000
# 5 0.000000 0.000000 0.000000 0.000000 0.055047 0.000000
# 6 0.000000 0.000000 0.000000 0.000000 0.000000 0.098533
#
#
# Mechanical properties :
#
#
# Convention : Reuss Voigt Hill
#
# Bulk Modulus (GPa) = 23.13474 28.18824 25.66149
# Shear Modulus (GPa) = 16.60861 20.30237 18.45549
#
# Velocity S-wave (km/s) = 2.81958 3.11739 2.97222
# Velocity P-wave (km/s) = 4.65553 5.14299 4.90532
#
# Compressibility (1/GPa) = 0.04322505
#
# Stress axis : x y z
#
# Youngs Moduli (GPa) = 38.97562 38.97562 107.46533
#
# Poissons Ratio (x) = 0.18592 0.21101
# Poissons Ratio (y) = 0.18592 0.21101
# Poissons Ratio (z) = 0.07653 0.07653
#
# Static dielectric constant tensor:
#      x y z
#    x 1.786000 0.000000 0.000000 
#    y 0.000000 1.786000 0.000000 
#    z 0.000000 0.000000 1.813230 
# 
# From -- ./inp_files/2732.got.cif
#   From: 2010.05.17/outbox.cif.g08.bks.cpg/sg116_2_cif.got.tgz:2732.got - 2010.05.20 11:11:43.
