data_PCOD9557017
_publ_section_title
;
Structure prediction by ZEFSAII (Michael W. Deem and Ramdas Pophale) SiO2 
 PCOD9557017
Probable space group: P -4 M 2
;
_chemical_formula_sum "Si O2"
_cell_formula_units_Z 36
_cell_length_a 9.086144
_cell_length_b 9.086144
_cell_length_c 23.989898
_cell_angle_alpha 90.000000
_cell_angle_beta 90.000000
_cell_angle_gamma 90.000000
_cell_volume 1980.558306
_symmetry_space_group_name_H-M "P -4 M 2"
_symmetry_group_IT_number 115
_symmetry_cell_setting 'tetragonal'
loop_
_space_group_symop_operation_xyz
x,y,z
y,-x,-z
-x,-y,z
-y,x,-z
y,x,-z
-y,-x,-z
-x,y,z
x,-y,z
loop_
_atom_site_type_symbol
_atom_site_label
_atom_site_fract_x
_atom_site_fract_y
_atom_site_fract_z
Si Si1 0.679124 0.829962 0.325448
Si Si2 0.675252 0.324749 0.000000
Si Si3 0.326528 0.676791 0.788087
Si Si4 0.174860 0.824888 0.893500
Si Si5 0.177392 0.670995 0.551641
O O1 0.500000 0.830299 0.327569
O O2 0.722533 0.733179 0.272675
O O3 0.727116 0.777033 0.386785
O O4 0.725034 0.000000 0.317314
O O5 0.745923 0.252107 0.945460
O O6 0.500000 0.299477 0.000535
O O7 0.500000 0.705600 0.792955
O O8 0.304250 0.500000 0.793394
O O9 0.239241 0.758002 0.836735
O O10 0.000000 0.798625 0.896523
O O11 0.200079 0.000000 0.895488
O O12 0.240480 0.759521 0.500000
O O13 0.222242 0.500000 0.546399
O O14 0.000000 0.675546 0.551389
#
# Coordination Sequence:
#
# PCOD9557017 Si02
#       5
#     8   4   8   8   8
#     4   8  15  30  51  73 100 136 176 218 264 314
#     4  11  24  41  62  88 114 141 178 221 264 312
#     4  10  20  34  55  83 110 137 175 221 267 317
#     4  11  24  40  58  82 112 146 183 219 259 311
#     4   9  18  32  50  74 103 135 174 218 264 318
#
# _framework density 18.176691999999999
#
# number of rings (size 3 to 8) (size 9 to 14) (size 15 to 20)
#    0.000    2.333    0.000    4.000    0.000    9.333 
#    0.000    3.333    0.000    1.333    0.000    0.000 
#    0.000    0.000    0.000    0.000    0.000    0.000 
#
# Total GULP energy -200925.667614 kJ/mol
# GULP energy per Si atom -5581.268545 kJ/mol
# Density = 1.813532 g / cm^3
# Si number density = 18.176692 Si / 1000 Ang^3
#
#
#
# Elastic Constant Matrix: (Units=GPa)
#
#
# Indices 1 2 3 4 5 6 
#
# 1 70.4720 65.2213 76.3447 0.0000 0.0000 0.0000
# 2 65.2213 70.4707 76.3437 0.0000 0.0000 0.0000
# 3 76.3447 76.3437 197.5701 0.0000 0.0000 0.0000
# 4 0.0000 0.0000 0.0000 46.7993 0.0000 0.0000
# 5 0.0000 0.0000 0.0000 0.0000 46.8021 0.0000
# 6 0.0000 0.0000 0.0000 0.0000 0.0000 26.3806
#
#
#
# Elastic Compliance Matrix: (Units=1/GPa)
#
#
# Indices 1 2 3 4 5 6 
#
# 1 0.101756 -0.088717 -0.005039 0.000000 0.000000 0.000000
# 2 -0.088717 0.101757 -0.005038 0.000000 0.000000 0.000000
# 3 -0.005039 -0.005038 0.008955 0.000000 0.000000 0.000000
# 4 0.000000 0.000000 0.000000 0.021368 0.000000 0.000000
# 5 0.000000 0.000000 0.000000 0.000000 0.021367 0.000000
# 6 0.000000 0.000000 0.000000 0.000000 0.000000 0.037907
#
#
# Mechanical properties :
#
#
# Convention : Reuss Voigt Hill
#
# Bulk Modulus (GPa) = 67.20570 86.03691 76.62131
# Shear Modulus (GPa) = 10.08761 32.03661 21.06211
#
# Velocity S-wave (km/s) = 2.35835 4.20278 3.40772
# Velocity P-wave (km/s) = 6.66855 8.42541 7.59793
#
# Compressibility (1/GPa) = 0.01487969
#
# Stress axis : x y z
#
# Youngs Moduli (GPa) = 9.82747 9.82732 111.66358
#
# Poissons Ratio (x) = 0.87185 0.56264
# Poissons Ratio (y) = 0.87186 0.56261
# Poissons Ratio (z) = 0.04952 0.04951
#
# Static dielectric constant tensor:
#      x y z
#    x 1.606090 0.000000 0.000000 
#    y 0.000000 1.606090 0.000000 
#    z 0.000000 0.000000 1.615320 
# 
# From -- ./inp_files/5115.got.cif
#   From: 2010.05.17/outbox.cif.g08.bks.cpg/sg115_3_cif.got.tgz:5115.got - 2010.05.20 11:07:42.
