data_PCOD9557057
_publ_section_title
;
Structure prediction by ZEFSAII (Michael W. Deem and Ramdas Pophale) SiO2 
 PCOD9557057
Probable space group: P -4 M 2
;
_chemical_formula_sum "Si O2"
_cell_formula_units_Z 48
_cell_length_a 9.166959
_cell_length_b 9.166959
_cell_length_c 31.837826
_cell_angle_alpha 90.000000
_cell_angle_beta 90.000000
_cell_angle_gamma 90.000000
_cell_volume 2675.432404
_symmetry_space_group_name_H-M "P -4 M 2"
_symmetry_group_IT_number 115
_symmetry_cell_setting 'tetragonal'
loop_
_space_group_symop_operation_xyz
x,y,z
y,-x,-z
-x,-y,z
-y,x,-z
y,x,-z
-y,-x,-z
-x,y,z
x,-y,z
loop_
_atom_site_type_symbol
_atom_site_label
_atom_site_fract_x
_atom_site_fract_y
_atom_site_fract_z
Si Si1 0.322371 0.332431 0.829454
Si Si2 0.673352 0.173322 0.334827
Si Si3 0.327363 0.825649 0.586929
Si Si4 0.173511 0.173511 0.000000
Si Si5 0.172127 0.324980 0.085867
Si Si6 0.675215 0.827481 0.743799
Si Si7 0.827188 0.172813 0.500000
O O1 0.500000 0.330812 0.830129
O O2 0.275048 0.500000 0.826395
O O3 0.274688 0.258961 0.872999
O O4 0.279268 0.242047 0.788296
O O5 0.500000 0.198740 0.333194
O O6 0.740646 0.246054 0.376285
O O7 0.749002 0.244584 0.294374
O O8 0.699441 0.000000 0.335523
O O9 0.500000 0.797931 0.588477
O O10 0.262294 0.786414 0.541430
O O11 0.304442 0.000000 0.592620
O O12 0.252769 0.222580 0.957524
O O13 0.000000 0.197960 0.995583
O O14 0.186314 0.500000 0.082509
O O15 0.000000 0.292061 0.091381
O O16 0.500000 0.807158 0.739285
O O17 0.703887 0.000000 0.743426
O O18 0.000000 0.194983 0.507970
#
# Coordination Sequence:
#
# PCOD9557057 Si02
#       7
#     8   8   8   4   8   8   4
#     4   9  17  30  50  76 104 133 166 207 255 305
#     4  11  24  39  55  78 109 143 179 221 268 315
#     4  10  21  37  58  84 112 143 181 222 264 315
#     4   9  18  32  48  67  94 128 164 203 250 302
#     4   9  17  30  48  69  94 126 165 206 247 296
#     4  10  20  35  57  82 106 136 176 218 261 314
#     4   9  18  34  56  81 112 150 186 221 264 313
#
# _framework density 17.941026000000001
#
# number of rings (size 3 to 8) (size 9 to 14) (size 15 to 20)
#    0.000    2.333    0.000    2.500    0.000    8.667 
#    0.000    2.500    0.000    3.000    0.000    0.000 
#    0.000    0.000    0.000    0.000    0.000    0.000 
#
# Total GULP energy -267949.797137 kJ/mol
# GULP energy per Si atom -5582.287440 kJ/mol
# Density = 1.790019 g / cm^3
# Si number density = 17.941026 Si / 1000 Ang^3
#
#
#
# Elastic Constant Matrix: (Units=GPa)
#
#
# Indices 1 2 3 4 5 6 
#
# 1 75.5461 69.1210 96.9016 0.0000 0.0000 0.0000
# 2 69.1210 75.5459 96.9017 0.0000 0.0000 0.0000
# 3 96.9016 96.9017 218.2806 0.0000 0.0000 0.0000
# 4 0.0000 0.0000 0.0000 37.2836 0.0000 0.0000
# 5 0.0000 0.0000 0.0000 0.0000 37.2836 0.0000
# 6 0.0000 0.0000 0.0000 0.0000 0.0000 21.9704
#
#
#
# Elastic Compliance Matrix: (Units=1/GPa)
#
#
# Indices 1 2 3 4 5 6 
#
# 1 0.086348 -0.069293 -0.007571 0.000000 0.000000 0.000000
# 2 -0.069293 0.086349 -0.007572 0.000000 0.000000 0.000000
# 3 -0.007571 -0.007572 0.011304 0.000000 0.000000 0.000000
# 4 0.000000 0.000000 0.000000 0.026821 0.000000 0.000000
# 5 0.000000 0.000000 0.000000 0.000000 0.026821 0.000000
# 6 0.000000 0.000000 0.000000 0.000000 0.000000 0.045516
#
#
# Mechanical properties :
#
#
# Convention : Reuss Voigt Hill
#
# Bulk Modulus (GPa) = 66.09873 99.46902 82.78388
# Shear Modulus (GPa) = 10.93916 26.40409 18.67162
#
# Velocity S-wave (km/s) = 2.47195 3.84046 3.22952
# Velocity P-wave (km/s) = 6.71339 8.67341 7.75557
#
# Compressibility (1/GPa) = 0.01512888
#
# Stress axis : x y z
#
# Youngs Moduli (GPa) = 11.58105 11.58095 88.46624
#
# Poissons Ratio (x) = 0.80248 0.66981
# Poissons Ratio (y) = 0.80248 0.66984
# Poissons Ratio (z) = 0.08768 0.08769
#
# Static dielectric constant tensor:
#      x y z
#    x 1.600410 0.000000 0.000000 
#    y 0.000000 1.600410 0.000000 
#    z 0.000000 0.000000 1.585390 
# 
# From -- ./inp_files/6231.got.cif
#   From: 2010.05.17/outbox.cif.g08.bks.cpg/sg115_4_cif.got.tgz:6231.got - 2010.05.20 11:07:42.
