data_PCOD9557872
_publ_section_title
;
Structure prediction by ZEFSAII (Michael W. Deem and Ramdas Pophale) SiO2 
 PCOD9557872
Probable space group: P -4 C 2
;
_chemical_formula_sum "Si O2"
_cell_formula_units_Z 54
_cell_length_a 14.282657
_cell_length_b 14.282657
_cell_length_c 12.656743
_cell_angle_alpha 90.000000
_cell_angle_beta 90.000000
_cell_angle_gamma 90.000000
_cell_volume 2581.903314
_symmetry_space_group_name_H-M "P -4 C 2"
_symmetry_group_IT_number 116
_symmetry_cell_setting 'tetragonal'
loop_
_space_group_symop_operation_xyz
x,y,z
y,-x,-z
-x,-y,z
-y,x,-z
y,x,1/2-z
-y,-x,1/2-z
-x,y,1/2+z
x,-y,1/2+z
loop_
_atom_site_type_symbol
_atom_site_label
_atom_site_fract_x
_atom_site_fract_y
_atom_site_fract_z
Si Si1 0.477705 0.181834 0.335143
Si Si2 0.500000 0.000000 0.485014
Si Si3 0.000000 0.000000 0.000000
Si Si4 0.164971 0.091090 0.126155
Si Si5 0.352298 0.455131 0.001015
Si Si6 0.954166 0.313403 0.456314
Si Si7 0.278098 0.122256 0.324689
Si Si8 0.227500 0.355524 0.823345
O O1 0.500218 0.093727 0.412777
O O2 0.469350 0.275602 0.406614
O O3 0.373789 0.166922 0.283675
O O4 0.560151 0.191099 0.250767
O O5 0.412218 0.998518 0.563422
O O6 0.936375 0.063818 0.921160
O O7 0.205805 0.072350 0.244811
O O8 0.188462 0.201637 0.116964
O O9 0.230262 0.022874 0.063023
O O10 0.299692 0.401768 0.906224
O O11 0.443180 0.393254 0.032072
O O12 0.941473 0.313139 0.581858
O O13 0.858334 0.311496 0.390351
O O14 0.279914 0.279914 0.750000
#
# Coordination Sequence:
#
# PCOD9557872 Si02
#       8
#     8   4   2   8   8   8   8   8
#     4  11  25  46  71 106 147 188 247 294 367 442
#     4  10  24  42  72 100 146 184 228 292 362 422
#     4  12  24  50  72 112 150 196 246 316 356 430
#     4  11  25  46  73 104 145 189 246 296 366 431
#     4  11  24  46  74 106 147 186 238 307 360 441
#     4  11  25  46  70 110 143 186 246 300 363 435
#     4  10  24  46  68 104 139 192 240 288 369 429
#     4  12  26  47  74 109 140 195 243 302 373 432
#
# _framework density 20.914804
#
# number of rings (size 3 to 8) (size 9 to 14) (size 15 to 20)
#    0.000    1.037    5.926    0.000    6.222    6.519 
#    5.333    0.000    0.000    0.000    0.000    0.000 
#    0.000    0.000    0.000    0.000    0.000    0.000 
#
# Total GULP energy -300665.097073 kJ/mol
# GULP energy per Si atom -5567.872168 kJ/mol
# Density = 2.086720 g / cm^3
# Si number density = 20.914804 Si / 1000 Ang^3
#
#
#
# Elastic Constant Matrix: (Units=GPa)
#
#
# Indices 1 2 3 4 5 6 
#
# 1 58.7831 11.1486 -16.7960 0.0000 0.0000 0.0000
# 2 11.1486 58.7831 -16.7960 0.0000 0.0000 0.0000
# 3 -16.7960 -16.7960 22.2075 0.0000 0.0000 0.0000
# 4 0.0000 0.0000 0.0000 60.4892 0.0000 0.0000
# 5 0.0000 0.0000 0.0000 0.0000 60.4892 0.0000
# 6 0.0000 0.0000 0.0000 0.0000 0.0000 44.8599
#
#
#
# Elastic Compliance Matrix: (Units=1/GPa)
#
#
# Indices 1 2 3 4 5 6 
#
# 1 0.021726 0.000733 0.016986 0.000000 0.000000 0.000000
# 2 0.000733 0.021726 0.016986 0.000000 0.000000 0.000000
# 3 0.016986 0.016986 0.070724 0.000000 0.000000 0.000000
# 4 0.000000 0.000000 0.000000 0.016532 0.000000 0.000000
# 5 0.000000 0.000000 0.000000 0.000000 0.016532 0.000000
# 6 0.000000 0.000000 0.000000 0.000000 0.000000 0.022292
#
#
# Mechanical properties :
#
#
# Convention : Reuss Voigt Hill
#
# Bulk Modulus (GPa) = 5.44697 10.54297 7.99497
# Shear Modulus (GPa) = 30.99497 43.98216 37.48856
#
# Velocity S-wave (km/s) = 3.85380 4.59074 4.23832
# Velocity P-wave (km/s) = 4.73418 5.75775 5.27087
#
# Compressibility (1/GPa) = 0.18358832
#
# Stress axis : x y z
#
# Youngs Moduli (GPa) = 46.02744 46.02744 14.13940
#
# Poissons Ratio (x) = -0.03374 -0.24018
# Poissons Ratio (y) = -0.03374 -0.24018
# Poissons Ratio (z) = -0.78184 -0.78184
#
# Static dielectric constant tensor:
#      x y z
#    x 1.855800 0.000000 0.000000 
#    y 0.000000 1.855800 0.000000 
#    z 0.000000 0.000000 1.938170 
# 
# From -- ./inp_files/2038.got.cif
#   From: 2010.05.17/outbox.cif.g08.bks.cpg/sg116_2_cif.got.tgz:2038.got - 2010.05.20 11:11:43.
