data_PCOD9557858
_publ_section_title
;
Structure prediction by ZEFSAII (Michael W. Deem and Ramdas Pophale) SiO2 
 PCOD9557858
Probable space group: P -4 C 2
;
_chemical_formula_sum "Si O2"
_cell_formula_units_Z 32
_cell_length_a 8.442711
_cell_length_b 8.442711
_cell_length_c 21.103540
_cell_angle_alpha 90.000000
_cell_angle_beta 90.000000
_cell_angle_gamma 90.000000
_cell_volume 1504.247015
_symmetry_space_group_name_H-M "P -4 C 2"
_symmetry_group_IT_number 116
_symmetry_cell_setting 'tetragonal'
loop_
_space_group_symop_operation_xyz
x,y,z
y,-x,-z
-x,-y,z
-y,x,-z
y,x,1/2-z
-y,-x,1/2-z
-x,y,1/2+z
x,-y,1/2+z
loop_
_atom_site_type_symbol
_atom_site_label
_atom_site_fract_x
_atom_site_fract_y
_atom_site_fract_z
Si Si1 0.818998 0.302343 0.314344
Si Si2 0.531642 0.757317 0.004140
Si Si3 0.489678 0.827559 0.863811
Si Si4 0.160198 0.349997 0.357517
O O1 0.794404 0.205597 0.250000
O O2 0.650599 0.265297 0.347731
O O3 0.825481 0.494030 0.313431
O O4 0.991690 0.264736 0.344774
O O5 0.590948 0.837904 0.068714
O O6 0.661297 0.628330 0.982987
O O7 0.491805 0.845249 0.939768
O O8 0.322120 0.746965 0.847518
O O9 0.500000 0.000000 0.833275
#
# Coordination Sequence:
#
# PCOD9557858 Si02
#       4
#     8   8   8   8
#     4  11  25  45  68  97 136 189 246 284 346 423
#     4   9  17  36  67 101 136 177 227 290 361 434
#     4  11  24  39  66 105 138 180 227 286 365 436
#     4  10  23  43  71  97 135 185 234 302 351 416
#
# _framework density 21.273101
#
# number of rings (size 3 to 8) (size 9 to 14) (size 15 to 20)
#    0.000    1.750    2.500    0.750    7.000    3.000 
#    0.000    1.250    0.000    3.000    0.000    0.000 
#    0.000    0.000    0.000    0.000    0.000    0.000 
#
# Total GULP energy -178213.188754 kJ/mol
# GULP energy per Si atom -5569.162149 kJ/mol
# Density = 2.122468 g / cm^3
# Si number density = 21.273101 Si / 1000 Ang^3
#
#
#
# Elastic Constant Matrix: (Units=GPa)
#
#
# Indices 1 2 3 4 5 6 
#
# 1 158.5228 72.3154 36.1597 0.0000 0.0000 0.0000
# 2 72.3154 158.5230 36.1599 0.0000 0.0000 0.0000
# 3 36.1597 36.1599 78.8325 0.0000 0.0000 0.0000
# 4 0.0000 0.0000 0.0000 48.7071 0.0000 0.0000
# 5 0.0000 0.0000 0.0000 0.0000 48.7005 0.0000
# 6 0.0000 0.0000 0.0000 0.0000 0.0000 14.4226
#
#
#
# Elastic Compliance Matrix: (Units=1/GPa)
#
#
# Indices 1 2 3 4 5 6 
#
# 1 0.008329 -0.003270 -0.002321 0.000000 0.000000 0.000000
# 2 -0.003270 0.008329 -0.002321 0.000000 0.000000 0.000000
# 3 -0.002321 -0.002321 0.014814 0.000000 0.000000 0.000000
# 4 0.000000 0.000000 0.000000 0.020531 0.000000 0.000000
# 5 0.000000 0.000000 0.000000 0.000000 0.020534 0.000000
# 6 0.000000 0.000000 0.000000 0.000000 0.000000 0.069336
#
#
# Mechanical properties :
#
#
# Convention : Reuss Voigt Hill
#
# Bulk Modulus (GPa) = 63.89826 76.12758 70.01292
# Shear Modulus (GPa) = 30.69128 39.11559 34.90343
#
# Velocity S-wave (km/s) = 3.80245 4.29270 4.05499
# Velocity P-wave (km/s) = 7.02712 7.77388 7.40991
#
# Compressibility (1/GPa) = 0.01564988
#
# Stress axis : x y z
#
# Youngs Moduli (GPa) = 120.05553 120.05546 67.50392
#
# Poissons Ratio (x) = 0.39263 0.15664
# Poissons Ratio (y) = 0.39263 0.15665
# Poissons Ratio (z) = 0.27859 0.27860
#
# Static dielectric constant tensor:
#      x y z
#    x 1.757870 0.000000 0.000000 
#    y 0.000000 1.757860 0.000000 
#    z 0.000000 0.000000 1.824620 
# 
# From -- ./inp_files/3762.got.cif
#   From: 2010.05.17/outbox.cif.g08.bks.cpg/sg116_2_cif.got.tgz:3762.got - 2010.05.20 11:11:43.
