data_PCOD9557130
_publ_section_title
;
Structure prediction by ZEFSAII (Michael W. Deem and Ramdas Pophale) SiO2 
 PCOD9557130
Probable space group: P -4 M 2
;
_chemical_formula_sum "Si O2"
_cell_formula_units_Z 56
_cell_length_a 14.758794
_cell_length_b 14.758794
_cell_length_c 13.257566
_cell_angle_alpha 90.000000
_cell_angle_beta 90.000000
_cell_angle_gamma 90.000000
_cell_volume 2887.789546
_symmetry_space_group_name_H-M "P -4 M 2"
_symmetry_group_IT_number 115
_symmetry_cell_setting 'tetragonal'
loop_
_space_group_symop_operation_xyz
x,y,z
y,-x,-z
-x,-y,z
-y,x,-z
y,x,-z
-y,-x,-z
-x,y,z
x,-y,z
loop_
_atom_site_type_symbol
_atom_site_label
_atom_site_fract_x
_atom_site_fract_y
_atom_site_fract_z
Si Si1 0.401852 0.603788 0.361932
Si Si2 0.274932 0.890775 0.269599
Si Si3 0.101372 0.889733 0.387534
Si Si4 0.891658 0.395848 0.131390
Si Si5 0.109133 0.251683 0.962327
Si Si6 0.199328 0.607208 0.331123
Si Si7 0.197028 0.396250 0.556721
O O1 0.500000 0.607778 0.307771
O O2 0.399126 0.500000 0.405039
O O3 0.306174 0.613342 0.306155
O O4 0.401843 0.694389 0.429333
O O5 0.174310 0.864048 0.305400
O O6 0.341456 0.844390 0.350154
O O7 0.284973 0.000000 0.279322
O O8 0.281692 0.867683 0.151915
O O9 0.133993 0.866008 0.500000
O O10 0.000000 0.855006 0.370118
O O11 0.096592 0.000000 0.388385
O O12 0.859023 0.500000 0.119646
O O13 0.866502 0.332425 0.038642
O O14 0.856131 0.356883 0.237261
O O15 0.000000 0.398756 0.135545
O O16 0.000000 0.236244 0.965345
O O17 0.163949 0.163949 0.000000
O O18 0.177953 0.500000 0.338854
O O19 0.180786 0.643232 0.444171
O O20 0.162815 0.500000 0.560405
#
# Coordination Sequence:
#
# PCOD9557130 Si02
#       7
#     8   8   8   8   8   8   8
#     4   9  18  33  53  80 117 158 195 228 268 327
#     4  10  22  38  56  81 113 148 186 231 284 344
#     4   8  15  31  54  79 109 143 179 219 268 334
#     4   9  19  38  63  87 111 147 195 241 287 339
#     4  10  23  42  62  84 112 147 193 245 291 340
#     4   9  18  32  54  85 117 150 189 235 282 329
#     4  10  21  34  52  84 121 155 189 228 280 336
#
# _framework density 19.391994
#
# number of rings (size 3 to 8) (size 9 to 14) (size 15 to 20)
#    0.000    2.714    0.000    0.857    2.000    5.000 
#    0.000    8.571    0.000    0.000    0.000    0.000 
#    0.000    4.571    0.000    0.000    0.000    0.000 
#
# Total GULP energy -311975.298948 kJ/mol
# GULP energy per Si atom -5570.987481 kJ/mol
# Density = 1.934786 g / cm^3
# Si number density = 19.391994 Si / 1000 Ang^3
#
#
#
# Elastic Constant Matrix: (Units=GPa)
#
#
# Indices 1 2 3 4 5 6 
#
# 1 59.2887 30.6184 56.2369 0.0000 0.0000 0.0000
# 2 30.6184 59.2887 56.2370 0.0000 0.0000 0.0000
# 3 56.2369 56.2370 159.5314 0.0000 0.0000 0.0000
# 4 0.0000 0.0000 0.0000 24.2886 0.0000 0.0000
# 5 0.0000 0.0000 0.0000 0.0000 24.2886 0.0000
# 6 0.0000 0.0000 0.0000 0.0000 0.0000 22.5766
#
#
#
# Elastic Compliance Matrix: (Units=1/GPa)
#
#
# Indices 1 2 3 4 5 6 
#
# 1 0.027388 -0.007491 -0.007014 0.000000 0.000000 0.000000
# 2 -0.007491 0.027388 -0.007014 0.000000 0.000000 0.000000
# 3 -0.007014 -0.007014 0.011213 0.000000 0.000000 0.000000
# 4 0.000000 0.000000 0.000000 0.041172 0.000000 0.000000
# 5 0.000000 0.000000 0.000000 0.000000 0.041172 0.000000
# 6 0.000000 0.000000 0.000000 0.000000 0.000000 0.044294
#
#
# Mechanical properties :
#
#
# Convention : Reuss Voigt Hill
#
# Bulk Modulus (GPa) = 43.56988 62.69927 53.13457
# Shear Modulus (GPa) = 20.54946 23.23185 21.89066
#
# Velocity S-wave (km/s) = 3.25882 3.46499 3.36348
# Velocity P-wave (km/s) = 6.05612 6.95780 6.52256
#
# Compressibility (1/GPa) = 0.02295164
#
# Stress axis : x y z
#
# Youngs Moduli (GPa) = 36.51210 36.51204 89.17896
#
# Poissons Ratio (x) = 0.27352 0.62550
# Poissons Ratio (y) = 0.27352 0.62550
# Poissons Ratio (z) = 0.25609 0.25610
#
# Static dielectric constant tensor:
#      x y z
#    x 1.706530 0.000000 0.000000 
#    y 0.000000 1.706530 0.000000 
#    z 0.000000 0.000000 1.680220 
# 
# From -- ./inp_files/3050.got.cif
#   From: 2010.05.17/outbox.cif.g08.bks.cpg/sg115_2_cif.got.tgz:3050.got - 2010.05.20 11:07:42.
