data_PCOD9557465
_publ_section_title
;
Structure prediction by ZEFSAII (Michael W. Deem and Ramdas Pophale) SiO2 
 PCOD9557465
Probable space group: P -4 M 2
;
_chemical_formula_sum "Si O2"
_cell_formula_units_Z 56
_cell_length_a 19.705108
_cell_length_b 19.705108
_cell_length_c 10.654035
_cell_angle_alpha 90.000000
_cell_angle_beta 90.000000
_cell_angle_gamma 90.000000
_cell_volume 4136.868901
_symmetry_space_group_name_H-M "P -4 M 2"
_symmetry_group_IT_number 115
_symmetry_cell_setting 'tetragonal'
loop_
_space_group_symop_operation_xyz
x,y,z
y,-x,-z
-x,-y,z
-y,x,-z
y,x,-z
-y,-x,-z
-x,y,z
x,-y,z
loop_
_atom_site_type_symbol
_atom_site_label
_atom_site_fract_x
_atom_site_fract_y
_atom_site_fract_z
Si Si1 0.920414 0.922246 0.757193
Si Si2 0.281272 0.082926 0.844803
Si Si3 0.209555 0.917804 0.097127
Si Si4 0.917623 0.424683 0.242119
Si Si5 0.283212 0.083012 0.350613
Si Si6 0.082365 0.424285 0.535488
Si Si7 0.797353 0.918383 0.593636
O O1 0.903438 0.867972 0.863852
O O2 0.874669 0.907321 0.636351
O O3 0.000000 0.916125 0.726780
O O4 0.906728 0.000000 0.797927
O O5 0.359987 0.104056 0.838523
O O6 0.245892 0.104234 0.714972
O O7 0.279501 0.000000 0.845600
O O8 0.240984 0.107265 0.967087
O O9 0.254403 0.895202 0.216565
O O10 0.213279 0.000000 0.091733
O O11 0.894638 0.500000 0.203135
O O12 0.899353 0.414248 0.388821
O O13 0.000000 0.425342 0.238992
O O14 0.360033 0.104295 0.382661
O O15 0.234923 0.107184 0.464693
O O16 0.281840 0.000000 0.349797
O O17 0.104719 0.500000 0.574338
O O18 0.000000 0.424390 0.538744
O O19 0.789954 0.000000 0.586412
#
# Coordination Sequence:
#
# PCOD9557465 Si02
#       7
#     8   8   8   8   8   8   8
#     4   9  18  32  44  54  66  84 116 158 198 232
#     4   9  15  25  37  51  67  84 102 123 157 202
#     4   9  18  28  37  48  66  86 103 132 176 217
#     4   8  12  19  34  54  70  83 101 122 141 174
#     4   9  15  25  37  51  67  84 102 123 157 202
#     4   8  12  19  34  54  70  83 101 122 141 174
#     4   9  16  26  41  52  60  78 107 140 174 211
#
# _framework density 13.536808000000001
#
# number of rings (size 3 to 8) (size 9 to 14) (size 15 to 20)
#    0.000    3.286    1.429    0.857    0.000    1.143 
#    0.000    5.000    0.000   16.286    0.000    0.000 
#    0.000    0.000    0.000    0.000    0.000    0.000 
#
# Total GULP energy -311769.683343 kJ/mol
# GULP energy per Si atom -5567.315774 kJ/mol
# Density = 1.350600 g / cm^3
# Si number density = 13.536808 Si / 1000 Ang^3
#
#
#
# Elastic Constant Matrix: (Units=GPa)
#
#
# Indices 1 2 3 4 5 6 
#
# 1 63.8487 10.9198 27.1999 0.0000 0.0000 0.0000
# 2 10.9198 63.8487 27.1999 0.0000 0.0000 0.0000
# 3 27.1999 27.1999 73.2848 0.0000 0.0000 0.0000
# 4 0.0000 0.0000 0.0000 11.0922 0.0000 0.0000
# 5 0.0000 0.0000 0.0000 0.0000 11.0922 0.0000
# 6 0.0000 0.0000 0.0000 0.0000 0.0000 1.3343
#
#
#
# Elastic Compliance Matrix: (Units=1/GPa)
#
#
# Indices 1 2 3 4 5 6 
#
# 1 0.018608 -0.000285 -0.006800 0.000000 0.000000 0.000000
# 2 -0.000285 0.018608 -0.006800 0.000000 0.000000 0.000000
# 3 -0.006800 -0.006800 0.018693 0.000000 0.000000 0.000000
# 4 0.000000 0.000000 0.000000 0.090153 0.000000 0.000000
# 5 0.000000 0.000000 0.000000 0.000000 0.090153 0.000000
# 6 0.000000 0.000000 0.000000 0.000000 0.000000 0.749446
#
#
# Mechanical properties :
#
#
# Convention : Reuss Voigt Hill
#
# Bulk Modulus (GPa) = 35.54095 36.84682 36.19389
# Shear Modulus (GPa) = 4.88848 13.74793 9.31820
#
# Velocity S-wave (km/s) = 1.90239 3.19030 2.62651
# Velocity P-wave (km/s) = 5.58010 6.39136 5.99946
#
# Compressibility (1/GPa) = 0.02813656
#
# Stress axis : x y z
#
# Youngs Moduli (GPa) = 53.74073 53.74073 53.49474
#
# Poissons Ratio (x) = 0.01534 0.36379
# Poissons Ratio (y) = 0.01534 0.36379
# Poissons Ratio (z) = 0.36546 0.36546
#
# Static dielectric constant tensor:
#      x y z
#    x 1.457320 0.000000 0.000000 
#    y 0.000000 1.457320 0.000000 
#    z 0.000000 0.000000 1.476380 
# 
# From -- ./inp_files/2095.got.cif
#   From: 2010.05.17/outbox.cif.g08.bks.cpg/sg115_2_cif.got.tgz:2095.got - 2010.05.20 11:07:42.
