data_PCOD9557693
_publ_section_title
;
Structure prediction by ZEFSAII (Michael W. Deem and Ramdas Pophale) SiO2 
 PCOD9557693
Probable space group: P -4 C 2
;
_chemical_formula_sum "Si O2"
_cell_formula_units_Z 48
_cell_length_a 16.919643
_cell_length_b 16.919643
_cell_length_c 9.454612
_cell_angle_alpha 90.000000
_cell_angle_beta 90.000000
_cell_angle_gamma 90.000000
_cell_volume 2706.612614
_symmetry_space_group_name_H-M "P -4 C 2"
_symmetry_group_IT_number 116
_symmetry_cell_setting 'tetragonal'
loop_
_space_group_symop_operation_xyz
x,y,z
y,-x,-z
-x,-y,z
-y,x,-z
y,x,1/2-z
-y,-x,1/2-z
-x,y,1/2+z
x,-y,1/2+z
loop_
_atom_site_type_symbol
_atom_site_label
_atom_site_fract_x
_atom_site_fract_y
_atom_site_fract_z
Si Si1 0.107197 0.610058 0.481429
Si Si2 0.158708 0.291887 0.219995
Si Si3 0.927760 0.662726 0.474849
Si Si4 0.830483 0.876497 0.895947
Si Si5 0.843740 0.944468 0.351710
Si Si6 0.528339 0.083430 0.290309
O O1 0.164165 0.671216 0.563458
O O2 0.099258 0.543869 0.603537
O O3 0.132712 0.562751 0.341375
O O4 0.022907 0.654306 0.445043
O O5 0.231850 0.231850 0.250000
O O6 0.132886 0.352805 0.343901
O O7 0.078153 0.239534 0.218480
O O8 0.894656 0.746674 0.531172
O O9 0.920736 0.601303 0.602226
O O10 0.828393 0.828393 0.750000
O O11 0.858871 0.964622 0.863499
O O12 0.894944 0.842723 0.003718
O O13 0.908387 0.908387 0.250000
O O14 0.500000 0.000000 0.221886
#
# Coordination Sequence:
#
# PCOD9557693 Si02
#       6
#     8   8   8   8   8   8
#     4  11  21  36  57  77 105 131 170 224 276 334
#     4  11  22  36  52  72 103 141 179 221 277 332
#     4  11  21  34  51  73 103 129 171 230 279 339
#     4  12  25  35  53  70  94 135 190 241 293 332
#     4  11  23  39  49  66  93 133 183 239 294 329
#     4  10  21  34  55  84 101 129 166 217 287 344
#
# _framework density 17.734345000000001
#
# number of rings (size 3 to 8) (size 9 to 14) (size 15 to 20)
#    0.000    1.000    5.000    5.500    2.333    2.000 
#    0.000    0.000    0.000    0.000    0.000    0.000 
#    0.000    0.000    0.000    0.000    0.000   54.167 
#
# Total GULP energy -267322.006793 kJ/mol
# GULP energy per Si atom -5569.208475 kJ/mol
# Density = 1.769398 g / cm^3
# Si number density = 17.734345 Si / 1000 Ang^3
#
#
#
# Elastic Constant Matrix: (Units=GPa)
#
#
# Indices 1 2 3 4 5 6 
#
# 1 -15.2892 50.3294 14.7852 0.0000 0.0000 0.0000
# 2 50.3294 -15.2892 14.7852 0.0000 0.0000 0.0000
# 3 14.7852 14.7852 94.5177 0.0000 0.0000 0.0000
# 4 0.0000 0.0000 0.0000 35.2670 0.0000 0.0000
# 5 0.0000 0.0000 0.0000 0.0000 35.2670 0.0000
# 6 0.0000 0.0000 0.0000 0.0000 0.0000 9.1838
#
#
#
# Elastic Compliance Matrix: (Units=1/GPa)
#
#
# Indices 1 2 3 4 5 6 
#
# 1 0.008820 0.024059 -0.005143 0.000000 0.000000 0.000000
# 2 0.024059 0.008820 -0.005143 0.000000 0.000000 0.000000
# 3 -0.005143 -0.005143 0.012189 0.000000 0.000000 0.000000
# 4 0.000000 0.000000 0.000000 0.028355 0.000000 0.000000
# 5 0.000000 0.000000 0.000000 0.000000 0.028355 0.000000
# 6 0.000000 0.000000 0.000000 0.000000 0.000000 0.108888
#
#
# Mechanical properties :
#
#
# Convention : Reuss Voigt Hill
#
# Bulk Modulus (GPa) = 17.42936 24.85987 21.14462
# Shear Modulus (GPa) = 26.73717 14.87952 20.80835
#
# Velocity S-wave (km/s) = 3.88706 2.89973 3.42912
# Velocity P-wave (km/s) = 5.47677 5.02589 5.25617
#
# Compressibility (1/GPa) = 0.05737444
#
# Stress axis : x y z
#
# Youngs Moduli (GPa) = 113.38182 113.38182 82.04040
#
# Poissons Ratio (x) = -2.72789 0.42195
# Poissons Ratio (y) = -2.72789 0.42195
# Poissons Ratio (z) = 0.58315 0.58315
#
# Static dielectric constant tensor:
#      x y z
#    x 1.631900 0.000000 0.000000 
#    y 0.000000 1.631900 0.000000 
#    z 0.000000 0.000000 1.985740 
# 
# From -- ./inp_files/955.got.cif
#   From: 2010.05.17/outbox.cif.g08.bks.cpg/sg116_1_cif.got.tgz:955.got - 2010.05.20 11:11:43.
