data_PCOD9557425
_publ_section_title
;
Structure prediction by ZEFSAII (Michael W. Deem and Ramdas Pophale) SiO2 
 PCOD9557425
Probable space group: P -4 M 2
;
_chemical_formula_sum "Si O2"
_cell_formula_units_Z 56
_cell_length_a 25.435472
_cell_length_b 25.435472
_cell_length_c 4.928399
_cell_angle_alpha 90.000000
_cell_angle_beta 90.000000
_cell_angle_gamma 90.000000
_cell_volume 3188.492965
_symmetry_space_group_name_H-M "P -4 M 2"
_symmetry_group_IT_number 115
_symmetry_cell_setting 'tetragonal'
loop_
_space_group_symop_operation_xyz
x,y,z
y,-x,-z
-x,-y,z
-y,x,-z
y,x,-z
-y,-x,-z
-x,y,z
x,-y,z
loop_
_atom_site_type_symbol
_atom_site_label
_atom_site_fract_x
_atom_site_fract_y
_atom_site_fract_z
Si Si1 0.798418 0.611479 0.956269
Si Si2 0.773756 0.277272 0.750987
Si Si3 0.500000 0.201358 0.171345
Si Si4 0.938622 0.220001 0.038328
Si Si5 0.611490 0.872749 0.542811
Si Si6 0.500000 0.872955 0.673664
Si Si7 0.275210 0.893731 0.456270
Si Si8 0.060903 0.889614 0.759930
O O1 0.768126 0.663772 0.869335
O O2 0.771324 0.555244 0.899975
O O3 0.849708 0.609881 0.760315
O O4 0.821889 0.615272 0.257764
O O5 0.736127 0.263874 0.500000
O O6 0.833247 0.271770 0.641070
O O7 0.761613 0.238388 0.000000
O O8 0.500000 0.178718 0.475648
O O9 0.500000 0.149849 0.975837
O O10 0.928728 0.262793 0.804830
O O11 0.923062 0.165172 0.898950
O O12 0.000000 0.216797 0.112606
O O13 0.906125 0.234811 0.303852
O O14 0.555889 0.899588 0.612321
O O15 0.665949 0.903235 0.568180
O O16 0.094629 0.905372 0.500000
O O17 0.000000 0.885582 0.676896
O O18 0.068331 0.931670 0.000000
#
# Coordination Sequence:
#
# PCOD9557425 Si02
#       8
#     8   8   4   8   8   4   8   8
#     4   9  16  28  42  63  94 127 164 201 236 278
#     4  11  21  32  47  72 106 136 161 195 241 293
#     4   8  14  24  42  60  84 124 165 203 236 270
#     4  11  24  41  58  77 101 129 163 201 236 275
#     4   9  16  28  46  70  95 122 158 203 242 280
#     4   8  14  24  42  68  95 118 150 200 252 279
#     4  11  21  36  55  74  99 132 169 199 233 287
#     4  11  24  42  63  85 106 125 149 186 233 286
#
# _framework density 17.563154000000001
#
# number of rings (size 3 to 8) (size 9 to 14) (size 15 to 20)
#    0.000    2.000    0.000    6.000    0.000    5.429 
#    0.000    1.429    0.000    0.000    0.000    3.000 
#    0.000    0.000    0.000    0.000    0.000    2.143 
#
# Total GULP energy -312352.357354 kJ/mol
# GULP energy per Si atom -5577.720667 kJ/mol
# Density = 1.752318 g / cm^3
# Si number density = 17.563154 Si / 1000 Ang^3
#
#
#
# Elastic Constant Matrix: (Units=GPa)
#
#
# Indices 1 2 3 4 5 6 
#
# 1 59.0003 45.0368 25.3850 0.0000 0.0000 0.0000
# 2 45.0368 58.9945 25.3858 0.0000 0.0000 0.0000
# 3 25.3850 25.3858 94.1287 0.0000 0.0000 0.0000
# 4 0.0000 0.0000 0.0000 23.1786 0.0000 0.0000
# 5 0.0000 0.0000 0.0000 0.0000 23.1770 0.0000
# 6 0.0000 0.0000 0.0000 0.0000 0.0000 -2.5103
#
#
#
# Elastic Compliance Matrix: (Units=1/GPa)
#
#
# Indices 1 2 3 4 5 6 
#
# 1 0.041347 -0.030281 -0.002984 0.000000 0.000000 0.000000
# 2 -0.030281 0.041352 -0.002986 0.000000 0.000000 0.000000
# 3 -0.002984 -0.002986 0.012234 0.000000 0.000000 0.000000
# 4 0.000000 0.000000 0.000000 0.043143 0.000000 0.000000
# 5 0.000000 0.000000 0.000000 0.000000 0.043146 0.000000
# 6 0.000000 0.000000 0.000000 0.000000 0.000000 -0.398353
#
#
# Mechanical properties :
#
#
# Convention : Reuss Voigt Hill
#
# Bulk Modulus (GPa) = 44.58070 44.85986 44.72028
# Shear Modulus (GPa) = -36.45613 16.52344 -9.96635
#
# Velocity S-wave (km/s) = -4.56095 3.07058 -2.38472
# Velocity P-wave (km/s) = 1.51596 6.17808 4.23501
#
# Compressibility (1/GPa) = 0.02243123
#
# Stress axis : x y z
#
# Youngs Moduli (GPa) = 24.18541 24.18251 81.74008
#
# Poissons Ratio (x) = 0.73226 0.24393
# Poissons Ratio (y) = 0.73235 0.24409
# Poissons Ratio (z) = 0.07217 0.07221
#
# Static dielectric constant tensor:
#      x y z
#    x 1.642330 0.000000 0.000000 
#    y 0.000000 1.642330 0.000000 
#    z 0.000000 0.000000 1.612480 
# 
# From -- ./inp_files/795.got.cif
#   From: 2010.05.17/outbox.cif.g08.bks.cpg/sg115_1_cif.got.tgz:795.got - 2010.05.20 11:07:42.
