data_PCOD9557790
_publ_section_title
;
Structure prediction by ZEFSAII (Michael W. Deem and Ramdas Pophale) SiO2 
 PCOD9557790
Probable space group: P -4 C 2
;
_chemical_formula_sum "Si O2"
_cell_formula_units_Z 36
_cell_length_a 11.385277
_cell_length_b 11.385277
_cell_length_c 13.446690
_cell_angle_alpha 90.000000
_cell_angle_beta 90.000000
_cell_angle_gamma 90.000000
_cell_volume 1743.020903
_symmetry_space_group_name_H-M "P -4 C 2"
_symmetry_group_IT_number 116
_symmetry_cell_setting 'tetragonal'
loop_
_space_group_symop_operation_xyz
x,y,z
y,-x,-z
-x,-y,z
-y,x,-z
y,x,1/2-z
-y,-x,1/2-z
-x,y,1/2+z
x,-y,1/2+z
loop_
_atom_site_type_symbol
_atom_site_label
_atom_site_fract_x
_atom_site_fract_y
_atom_site_fract_z
Si Si1 0.723042 0.276959 0.750000
Si Si2 0.492763 0.132750 0.546187
Si Si3 0.126261 0.737266 0.565398
Si Si4 0.283088 0.145022 0.913412
Si Si5 0.737268 0.444165 0.256493
O O1 0.787266 0.224465 0.653518
O O2 0.583421 0.257346 0.762394
O O3 0.401557 0.133994 0.456076
O O4 0.617739 0.162463 0.498989
O O5 0.442811 0.216403 0.630798
O O6 0.500000 0.000000 0.587287
O O7 0.168279 0.793694 0.460996
O O8 0.991081 0.752522 0.595440
O O9 0.353015 0.191597 0.815448
O O10 0.605813 0.394188 0.250000
#
# Coordination Sequence:
#
# PCOD9557790 Si02
#       5
#     4   8   8   8   8
#     4  12  25  40  66 101 138 172 218 284 351 406
#     4  10  22  39  65  93 130 175 220 275 327 403
#     4  11  24  43  67  98 132 182 226 282 340 404
#     4  11  24  43  68  96 136 183 231 281 336 407
#     4  12  24  40  66 101 134 173 223 278 340 407
#
# _framework density 20.653797999999998
#
# number of rings (size 3 to 8) (size 9 to 14) (size 15 to 20)
#    0.000    0.889    6.667    0.333    3.111    0.444 
#    0.000    0.000    0.000    0.000    0.000    0.000 
#    0.000    0.000    0.000    0.000    0.000    0.000 
#
# Total GULP energy -200516.782846 kJ/mol
# GULP energy per Si atom -5569.910635 kJ/mol
# Density = 2.060679 g / cm^3
# Si number density = 20.653798 Si / 1000 Ang^3
#
#
#
# Elastic Constant Matrix: (Units=GPa)
#
#
# Indices 1 2 3 4 5 6 
#
# 1 74.9466 17.9103 25.2115 0.0000 0.0000 0.0000
# 2 17.9103 74.9448 25.2111 0.0000 0.0000 0.0000
# 3 25.2115 25.2111 56.5216 0.0000 0.0000 0.0000
# 4 0.0000 0.0000 0.0000 25.8387 0.0000 0.0000
# 5 0.0000 0.0000 0.0000 0.0000 25.8456 0.0000
# 6 0.0000 0.0000 0.0000 0.0000 0.0000 21.8286
#
#
#
# Elastic Compliance Matrix: (Units=1/GPa)
#
#
# Indices 1 2 3 4 5 6 
#
# 1 0.015872 -0.001661 -0.006339 0.000000 0.000000 0.000000
# 2 -0.001661 0.015872 -0.006339 0.000000 0.000000 0.000000
# 3 -0.006339 -0.006339 0.023347 0.000000 0.000000 0.000000
# 4 0.000000 0.000000 0.000000 0.038702 0.000000 0.000000
# 5 0.000000 0.000000 0.000000 0.000000 0.038691 0.000000
# 6 0.000000 0.000000 0.000000 0.000000 0.000000 0.045812
#
#
# Mechanical properties :
#
#
# Convention : Reuss Voigt Hill
#
# Bulk Modulus (GPa) = 37.85815 38.11986 37.98900
# Shear Modulus (GPa) = 23.17189 23.90791 23.53990
#
# Velocity S-wave (km/s) = 3.35314 3.40598 3.37966
# Velocity P-wave (km/s) = 5.77590 5.82788 5.80195
#
# Compressibility (1/GPa) = 0.02641439
#
# Stress axis : x y z
#
# Youngs Moduli (GPa) = 63.00364 63.00224 42.83142
#
# Poissons Ratio (x) = 0.10463 0.27151
# Poissons Ratio (y) = 0.10463 0.27151
# Poissons Ratio (z) = 0.39938 0.39937
#
# Static dielectric constant tensor:
#      x y z
#    x 1.675750 0.000000 0.000000 
#    y 0.000000 1.675680 0.000000 
#    z 0.000000 0.000000 1.770700 
# 
# From -- ./inp_files/1730.got.cif
#   From: 2010.05.17/outbox.cif.g08.bks.cpg/sg116_1_cif.got.tgz:1730.got - 2010.05.20 11:11:43.
