data_PCOD9557212
_publ_section_title
;
Structure prediction by ZEFSAII (Michael W. Deem and Ramdas Pophale) SiO2 
 PCOD9557212
Probable space group: P -4 M 2
;
_chemical_formula_sum "Si O2"
_cell_formula_units_Z 48
_cell_length_a 9.134769
_cell_length_b 9.134769
_cell_length_c 31.973933
_cell_angle_alpha 90.000000
_cell_angle_beta 90.000000
_cell_angle_gamma 90.000000
_cell_volume 2668.033015
_symmetry_space_group_name_H-M "P -4 M 2"
_symmetry_group_IT_number 115
_symmetry_cell_setting 'tetragonal'
loop_
_space_group_symop_operation_xyz
x,y,z
y,-x,-z
-x,-y,z
-y,x,-z
y,x,-z
-y,-x,-z
-x,y,z
x,-y,z
loop_
_atom_site_type_symbol
_atom_site_label
_atom_site_fract_x
_atom_site_fract_y
_atom_site_fract_z
Si Si1 0.826372 0.173629 0.000000
Si Si2 0.676373 0.325934 0.591464
Si Si3 0.828707 0.175708 0.330270
Si Si4 0.325301 0.172751 0.834961
Si Si5 0.824745 0.672938 0.913372
Si Si6 0.324559 0.675442 0.500000
Si Si7 0.327094 0.824441 0.243693
O O1 0.783981 0.261802 0.958578
O O2 0.000000 0.196182 0.007429
O O3 0.500000 0.310563 0.593052
O O4 0.708037 0.500000 0.594814
O O5 0.749009 0.241089 0.629393
O O6 0.728153 0.271712 0.545367
O O7 0.744514 0.218602 0.287897
O O8 0.000000 0.211797 0.326505
O O9 0.814952 0.000000 0.334482
O O10 0.500000 0.191279 0.834767
O O11 0.257710 0.244881 0.876334
O O12 0.255872 0.249517 0.794540
O O13 0.291895 0.000000 0.834249
O O14 0.795478 0.500000 0.911648
O O15 0.000000 0.694599 0.908334
O O16 0.500000 0.697827 0.499573
O O17 0.500000 0.793678 0.243928
O O18 0.307991 0.000000 0.238801
#
# Coordination Sequence:
#
# PCOD9557212 Si02
#       7
#     4   8   8   8   8   4   8
#     4   9  18  34  56  81 110 146 186 225 264 309
#     4   9  17  31  53  78 102 132 172 217 263 310
#     4  10  21  36  53  75 105 140 175 212 258 312
#     4  11  24  39  56  81 112 144 178 218 265 316
#     4  10  21  37  58  84 113 146 184 224 267 317
#     4   7  12  26  48  73 100 130 168 213 258 307
#     4  10  21  38  60  82 103 133 176 221 264 314
#
# _framework density 17.990781999999999
#
# number of rings (size 3 to 8) (size 9 to 14) (size 15 to 20)
#    0.000    2.333    0.000    3.500    0.000    8.000 
#    0.000    2.500    0.000    4.000    0.000    0.000 
#    0.000    0.000    0.000    0.000    0.000    0.000 
#
# Total GULP energy -267898.509007 kJ/mol
# GULP energy per Si atom -5581.218938 kJ/mol
# Density = 1.794983 g / cm^3
# Si number density = 17.990782 Si / 1000 Ang^3
#
#
#
# Elastic Constant Matrix: (Units=GPa)
#
#
# Indices 1 2 3 4 5 6 
#
# 1 78.3420 65.1990 96.6572 0.0000 0.0000 0.0000
# 2 65.1990 78.3413 96.6572 0.0000 0.0000 0.0000
# 3 96.6572 96.6572 226.6469 0.0000 0.0000 0.0000
# 4 0.0000 0.0000 0.0000 36.5175 0.0000 0.0000
# 5 0.0000 0.0000 0.0000 0.0000 36.5175 0.0000
# 6 0.0000 0.0000 0.0000 0.0000 0.0000 26.5846
#
#
#
# Elastic Compliance Matrix: (Units=1/GPa)
#
#
# Indices 1 2 3 4 5 6 
#
# 1 0.046227 -0.029861 -0.006980 0.000000 0.000000 0.000000
# 2 -0.029861 0.046228 -0.006980 0.000000 0.000000 0.000000
# 3 -0.006980 -0.006980 0.010366 0.000000 0.000000 0.000000
# 4 0.000000 0.000000 0.000000 0.027384 0.000000 0.000000
# 5 0.000000 0.000000 0.000000 0.000000 0.027384 0.000000
# 6 0.000000 0.000000 0.000000 0.000000 0.000000 0.037616
#
#
# Mechanical properties :
#
#
# Convention : Reuss Voigt Hill
#
# Bulk Modulus (GPa) = 65.87746 100.03966 82.95856
# Shear Modulus (GPa) = 17.36680 28.24505 22.80593
#
# Velocity S-wave (km/s) = 3.11033 3.96659 3.56426
# Velocity P-wave (km/s) = 7.04242 8.75815 7.94672
#
# Compressibility (1/GPa) = 0.01517970
#
# Stress axis : x y z
#
# Youngs Moduli (GPa) = 21.63233 21.63190 96.47319
#
# Poissons Ratio (x) = 0.64594 0.67336
# Poissons Ratio (y) = 0.64595 0.67340
# Poissons Ratio (z) = 0.15099 0.15099
#
# Static dielectric constant tensor:
#      x y z
#    x 1.600000 0.000000 0.000000 
#    y 0.000000 1.600000 0.000000 
#    z 0.000000 0.000000 1.600350 
# 
# From -- ./inp_files/6273.got.cif
#   From: 2010.05.17/outbox.cif.g08.bks.cpg/sg115_4_cif.got.tgz:6273.got - 2010.05.20 11:07:42.
