data_PCOD9557589
_publ_section_title
;
Structure prediction by ZEFSAII (Michael W. Deem and Ramdas Pophale) SiO2 
 PCOD9557589
Probable space group: P -4 C 2
;
_chemical_formula_sum "Si O2"
_cell_formula_units_Z 24
_cell_length_a 10.521776
_cell_length_b 10.521776
_cell_length_c 9.317106
_cell_angle_alpha 90.000000
_cell_angle_beta 90.000000
_cell_angle_gamma 90.000000
_cell_volume 1031.476030
_symmetry_space_group_name_H-M "P -4 C 2"
_symmetry_group_IT_number 116
_symmetry_cell_setting 'tetragonal'
loop_
_space_group_symop_operation_xyz
x,y,z
y,-x,-z
-x,-y,z
-y,x,-z
y,x,1/2-z
-y,-x,1/2-z
-x,y,1/2+z
x,-y,1/2+z
loop_
_atom_site_type_symbol
_atom_site_label
_atom_site_fract_x
_atom_site_fract_y
_atom_site_fract_z
Si Si1 0.116970 0.252526 0.633803
Si Si2 0.677946 0.177961 0.909649
Si Si3 0.489670 0.152216 0.671884
O O1 0.138640 0.138640 0.750000
O O2 0.198579 0.232955 0.490577
O O3 0.169724 0.373081 0.719555
O O4 0.971790 0.283943 0.598226
O O5 0.613871 0.201931 0.754218
O O6 0.562194 0.203241 0.021548
O O7 0.500000 0.000000 0.651950
#
# Coordination Sequence:
#
# PCOD9557589 Si02
#       3
#     8   8   8
#     4   9  19  34  54  81 113 148 182 225 280 335
#     4  10  19  35  56  81 109 142 185 230 276 331
#     4   9  17  33  55  77 105 143 186 221 262 328
#
# _framework density 23.267627999999998
#
# number of rings (size 3 to 8) (size 9 to 14) (size 15 to 20)
#    0.000    2.667    0.000    3.000    0.000    0.667 
#    0.000   31.667    0.000    1.000    0.000   21.000 
#    0.000    0.000    0.000    0.000    0.000    0.000 
#
# Total GULP energy -133835.563477 kJ/mol
# GULP energy per Si atom -5576.481812 kJ/mol
# Density = 2.321467 g / cm^3
# Si number density = 23.267628 Si / 1000 Ang^3
#
#
#
# Elastic Constant Matrix: (Units=GPa)
#
#
# Indices 1 2 3 4 5 6 
#
# 1 29.7649 9.1783 9.8419 0.0000 0.0000 0.0000
# 2 9.1783 29.7649 9.8419 0.0000 0.0000 0.0000
# 3 9.8419 9.8419 131.5999 0.0000 0.0000 0.0000
# 4 0.0000 0.0000 0.0000 38.8294 0.0000 0.0000
# 5 0.0000 0.0000 0.0000 0.0000 38.8294 0.0000
# 6 0.0000 0.0000 0.0000 0.0000 0.0000 23.8812
#
#
#
# Elastic Compliance Matrix: (Units=1/GPa)
#
#
# Indices 1 2 3 4 5 6 
#
# 1 0.037631 -0.010944 -0.001996 0.000000 0.000000 0.000000
# 2 -0.010944 0.037631 -0.001996 0.000000 0.000000 0.000000
# 3 -0.001996 -0.001996 0.007897 0.000000 0.000000 0.000000
# 4 0.000000 0.000000 0.000000 0.025754 0.000000 0.000000
# 5 0.000000 0.000000 0.000000 0.000000 0.025754 0.000000
# 6 0.000000 0.000000 0.000000 0.000000 0.000000 0.041874
#
#
# Mechanical properties :
#
#
# Convention : Reuss Voigt Hill
#
# Bulk Modulus (GPa) = 18.76581 27.65044 23.20812
# Shear Modulus (GPa) = 22.30397 31.12583 26.71490
#
# Velocity S-wave (km/s) = 3.09946 3.66147 3.39212
# Velocity P-wave (km/s) = 4.57073 5.45753 5.03369
#
# Compressibility (1/GPa) = 0.05328840
#
# Stress axis : x y z
#
# Youngs Moduli (GPa) = 26.57367 26.57367 126.62533
#
# Poissons Ratio (x) = 0.29082 0.25273
# Poissons Ratio (y) = 0.29082 0.25273
# Poissons Ratio (z) = 0.05304 0.05304
#
# Static dielectric constant tensor:
#      x y z
#    x 1.937500 0.000000 0.000000 
#    y 0.000000 1.937500 0.000000 
#    z 0.000000 0.000000 1.952160 
# 
# From -- ./inp_files/456.got.cif
#   From: 2010.05.17/outbox.cif.g08.bks.cpg/sg116_1_cif.got.tgz:456.got - 2010.05.20 11:11:43.
