data_PCOD9557600
_publ_section_title
;
Structure prediction by ZEFSAII (Michael W. Deem and Ramdas Pophale) SiO2 
 PCOD9557600
Probable space group: P -4 C 2
;
_chemical_formula_sum "Si O2"
_cell_formula_units_Z 28
_cell_length_a 9.917203
_cell_length_b 9.917203
_cell_length_c 11.521233
_cell_angle_alpha 90.000000
_cell_angle_beta 90.000000
_cell_angle_gamma 90.000000
_cell_volume 1133.123811
_symmetry_space_group_name_H-M "P -4 C 2"
_symmetry_group_IT_number 116
_symmetry_cell_setting 'tetragonal'
loop_
_space_group_symop_operation_xyz
x,y,z
y,-x,-z
-x,-y,z
-y,x,-z
y,x,1/2-z
-y,-x,1/2-z
-x,y,1/2+z
x,-y,1/2+z
loop_
_atom_site_type_symbol
_atom_site_label
_atom_site_fract_x
_atom_site_fract_y
_atom_site_fract_z
Si Si1 0.660701 0.038835 0.579695
Si Si2 0.576499 0.331443 0.565438
Si Si3 0.656941 0.047800 0.329486
Si Si4 0.344049 0.655952 0.250000
O O1 0.662889 0.199744 0.578980
O O2 0.714055 0.994867 0.452741
O O3 0.500000 0.000000 0.579599
O O4 0.716731 0.991118 0.703406
O O5 0.462387 0.335609 0.463513
O O6 0.480852 0.337166 0.677433
O O7 0.663588 0.209921 0.328085
O O8 0.500000 0.000000 0.326824
#
# Coordination Sequence:
#
# PCOD9557600 Si02
#       4
#     8   8   8   4
#     4  10  19  37  57  86 115 177 222 267 309 404
#     4  11  23  37  56  87 136 180 207 266 343 419
#     4  10  20  35  64  83 125 171 230 275 326 391
#     4  12  20  39  58  92 130 187 224 280 345 414
#
# _framework density 24.710449000000001
#
# number of rings (size 3 to 8) (size 9 to 14) (size 15 to 20)
#    0.000    1.429    8.571    0.000    0.000    2.286 
#    0.000    0.000    0.000    1.714    0.000    0.000 
#    0.000   68.571    0.000    0.000    0.000    0.000 
#
# Total GULP energy -156351.866046 kJ/mol
# GULP energy per Si atom -5583.995216 kJ/mol
# Density = 2.465421 g / cm^3
# Si number density = 24.710449 Si / 1000 Ang^3
#
#
#
# Elastic Constant Matrix: (Units=GPa)
#
#
# Indices 1 2 3 4 5 6 
#
# 1 57.9209 19.9334 21.1201 0.0000 0.0000 0.0000
# 2 19.9334 57.9199 21.1202 0.0000 0.0000 0.0000
# 3 21.1201 21.1202 277.1255 0.0000 0.0000 0.0000
# 4 0.0000 0.0000 0.0000 29.3635 0.0000 0.0000
# 5 0.0000 0.0000 0.0000 0.0000 29.3628 0.0000
# 6 0.0000 0.0000 0.0000 0.0000 0.0000 3.7590
#
#
#
# Elastic Compliance Matrix: (Units=1/GPa)
#
#
# Indices 1 2 3 4 5 6 
#
# 1 0.019862 -0.006463 -0.001021 0.000000 0.000000 0.000000
# 2 -0.006463 0.019862 -0.001021 0.000000 0.000000 0.000000
# 3 -0.001021 -0.001021 0.003764 0.000000 0.000000 0.000000
# 4 0.000000 0.000000 0.000000 0.034056 0.000000 0.000000
# 5 0.000000 0.000000 0.000000 0.000000 0.034057 0.000000
# 6 0.000000 0.000000 0.000000 0.000000 0.000000 0.266027
#
#
# Mechanical properties :
#
#
# Convention : Reuss Voigt Hill
#
# Bulk Modulus (GPa) = 37.76886 57.47929 47.62408
# Shear Modulus (GPa) = 12.39271 34.54992 23.47131
#
# Velocity S-wave (km/s) = 2.24189 3.74330 3.08531
# Velocity P-wave (km/s) = 4.69246 6.48033 5.65746
#
# Compressibility (1/GPa) = 0.02647684
#
# Stress axis : x y z
#
# Youngs Moduli (GPa) = 50.34864 50.34771 265.66658
#
# Poissons Ratio (x) = 0.32540 0.27127
# Poissons Ratio (y) = 0.32541 0.27129
# Poissons Ratio (z) = 0.05141 0.05141
#
# Static dielectric constant tensor:
#      x y z
#    x 1.878420 0.000000 0.000000 
#    y 0.000000 1.878410 0.000000 
#    z 0.000000 0.000000 2.161650 
# 
# From -- ./inp_files/1475.got.cif
#   From: 2010.05.17/outbox.cif.g08.bks.cpg/sg116_1_cif.got.tgz:1475.got - 2010.05.20 11:11:43.
