data_PCOD9557844
_publ_section_title
;
Structure prediction by ZEFSAII (Michael W. Deem and Ramdas Pophale) SiO2 
 PCOD9557844
Probable space group: P -4 C 2
;
_chemical_formula_sum "Si O2"
_cell_formula_units_Z 34
_cell_length_a 11.091238
_cell_length_b 11.091238
_cell_length_c 10.918956
_cell_angle_alpha 90.000000
_cell_angle_beta 90.000000
_cell_angle_gamma 90.000000
_cell_volume 1343.201491
_symmetry_space_group_name_H-M "P -4 C 2"
_symmetry_group_IT_number 116
_symmetry_cell_setting 'tetragonal'
loop_
_space_group_symop_operation_xyz
x,y,z
y,-x,-z
-x,-y,z
-y,x,-z
y,x,1/2-z
-y,-x,1/2-z
-x,y,1/2+z
x,-y,1/2+z
loop_
_atom_site_type_symbol
_atom_site_label
_atom_site_fract_x
_atom_site_fract_y
_atom_site_fract_z
Si Si1 0.396597 0.081597 0.864235
Si Si2 0.009438 0.192849 0.814581
Si Si3 0.291362 0.454357 0.157662
Si Si4 0.500000 0.500000 0.250000
Si Si5 0.203814 0.219764 0.024492
O O1 0.305041 0.009841 0.778436
O O2 0.473419 0.179610 0.788098
O O3 0.318735 0.157982 0.959525
O O4 0.500000 0.000000 0.923328
O O5 0.085715 0.085715 0.750000
O O6 0.094134 0.226471 0.930019
O O7 0.878252 0.167023 0.871563
O O8 0.379119 0.379119 0.250000
O O9 0.399302 0.548172 0.141439
O O10 0.240062 0.351358 0.071323
#
# Coordination Sequence:
#
# PCOD9557844 Si02
#       5
#     8   8   8   2   8
#     4  11  24  43  70 101 140 185 236 295 350 426
#     4  10  25  46  71 101 143 178 236 298 358 428
#     4  10  23  40  65  96 143 178 236 289 355 410
#     4   8  24  40  62 100 136 176 222 292 342 404
#     4  11  24  44  71 104 136 193 236 287 362 437
#
# _framework density 25.312657000000002
#
# number of rings (size 3 to 8) (size 9 to 14) (size 15 to 20)
#    0.706    0.941    0.000    2.824    4.941   10.824 
#    0.000    5.882    0.000    0.000    0.000    0.000 
#    0.000    0.000    0.000    0.000    0.000    0.000 
#
# Total GULP energy -189629.167467 kJ/mol
# GULP energy per Si atom -5577.328455 kJ/mol
# Density = 2.525504 g / cm^3
# Si number density = 25.312657 Si / 1000 Ang^3
#
#
#
# Elastic Constant Matrix: (Units=GPa)
#
#
# Indices 1 2 3 4 5 6 
#
# 1 118.9891 76.6386 36.2074 0.0000 0.0000 0.0000
# 2 76.6386 118.9891 36.2074 0.0000 0.0000 0.0000
# 3 36.2074 36.2074 83.3031 0.0000 0.0000 0.0000
# 4 0.0000 0.0000 0.0000 21.9390 0.0000 0.0000
# 5 0.0000 0.0000 0.0000 0.0000 21.9390 0.0000
# 6 0.0000 0.0000 0.0000 0.0000 0.0000 64.6218
#
#
#
# Elastic Compliance Matrix: (Units=1/GPa)
#
#
# Indices 1 2 3 4 5 6 
#
# 1 0.014852 -0.008760 -0.002648 0.000000 0.000000 0.000000
# 2 -0.008760 0.014852 -0.002648 0.000000 0.000000 0.000000
# 3 -0.002648 -0.002648 0.014306 0.000000 0.000000 0.000000
# 4 0.000000 0.000000 0.000000 0.045581 0.000000 0.000000
# 5 0.000000 0.000000 0.000000 0.000000 0.045581 0.000000
# 6 0.000000 0.000000 0.000000 0.000000 0.000000 0.015475
#
#
# Mechanical properties :
#
#
# Convention : Reuss Voigt Hill
#
# Bulk Modulus (GPa) = 62.89870 68.82092 65.85981
# Shear Modulus (GPa) = 27.16527 33.18179 30.17353
#
# Velocity S-wave (km/s) = 3.27951 3.62453 3.45633
# Velocity P-wave (km/s) = 6.26442 6.69057 6.48099
#
# Compressibility (1/GPa) = 0.01589858
#
# Stress axis : x y z
#
# Youngs Moduli (GPa) = 67.33008 67.33008 69.90032
#
# Poissons Ratio (x) = 0.58983 0.18508
# Poissons Ratio (y) = 0.58983 0.18508
# Poissons Ratio (z) = 0.17828 0.17828
#
# Static dielectric constant tensor:
#      x y z
#    x 2.044130 0.000000 0.000000 
#    y 0.000000 2.044130 0.000000 
#    z 0.000000 0.000000 2.105940 
# 
# From -- ./inp_files/1620.got.cif
#   From: 2010.05.17/outbox.cif.g08.bks.cpg/sg116_1_cif.got.tgz:1620.got - 2010.05.20 11:11:43.
