data_PCOD9557665
_publ_section_title
;
Structure prediction by ZEFSAII (Michael W. Deem and Ramdas Pophale) SiO2 
 PCOD9557665
Probable space group: P -4 C 2
;
_chemical_formula_sum "Si O2"
_cell_formula_units_Z 60
_cell_length_a 11.691096
_cell_length_b 11.691096
_cell_length_c 20.837638
_cell_angle_alpha 90.000000
_cell_angle_beta 90.000000
_cell_angle_gamma 90.000000
_cell_volume 2848.124321
_symmetry_space_group_name_H-M "P -4 C 2"
_symmetry_group_IT_number 116
_symmetry_cell_setting 'tetragonal'
loop_
_space_group_symop_operation_xyz
x,y,z
y,-x,-z
-x,-y,z
-y,x,-z
y,x,1/2-z
-y,-x,1/2-z
-x,y,1/2+z
x,-y,1/2+z
loop_
_atom_site_type_symbol
_atom_site_label
_atom_site_fract_x
_atom_site_fract_y
_atom_site_fract_z
Si Si1 0.565851 0.319157 0.496753
Si Si2 0.642918 0.204987 0.826371
Si Si3 0.224212 0.224212 0.750000
Si Si4 0.830418 0.051542 0.511946
Si Si5 0.833046 0.670334 0.392551
Si Si6 0.397005 0.776598 0.355611
Si Si7 0.363400 0.986900 0.724856
Si Si8 0.993070 0.620969 0.076899
O O1 0.433858 0.358942 0.492785
O O2 0.591475 0.225899 0.552515
O O3 0.599983 0.271963 0.427140
O O4 0.732511 0.302387 0.842159
O O5 0.514334 0.250051 0.818499
O O6 0.676712 0.116211 0.771394
O O7 0.635298 0.129554 0.891567
O O8 0.262441 0.291987 0.686715
O O9 0.275518 0.094545 0.736376
O O10 0.785549 0.125231 0.571004
O O11 0.722950 0.026724 0.468002
O O12 0.928313 0.116450 0.471914
O O13 0.940882 0.635726 0.348766
O O14 0.388101 0.913366 0.366599
O O15 0.500000 0.000000 0.740142
O O16 0.000000 0.500000 0.041173
#
# Coordination Sequence:
#
# PCOD9557665 Si02
#       8
#     8   8   4   8   8   8   8   8
#     4  11  25  44  68 105 148 185 239 309 381 446
#     4  11  21  48  69  95 137 187 235 287 366 427
#     4  12  26  46  77 105 146 196 252 308 372 452
#     4  11  24  41  61  96 141 176 226 288 345 423
#     4  12  26  42  71 105 139 189 236 305 358 435
#     4  11  22  42  75  98 132 194 238 291 365 437
#     4  12  27  48  69 108 144 187 250 310 364 446
#     4  10  20  38  68  91 124 181 231 268 346 424
#
# _framework density 21.066493999999999
#
# number of rings (size 3 to 8) (size 9 to 14) (size 15 to 20)
#    0.000    0.800    6.667    0.800    3.733    0.533 
#    0.000    0.667    0.000    0.800    0.000    0.000 
#    0.000    0.000    0.000    0.000    0.000    0.000 
#
# Total GULP energy -334644.270375 kJ/mol
# GULP energy per Si atom -5577.404506 kJ/mol
# Density = 2.101855 g / cm^3
# Si number density = 21.066494 Si / 1000 Ang^3
#
#
#
# Elastic Constant Matrix: (Units=GPa)
#
#
# Indices 1 2 3 4 5 6 
#
# 1 81.4723 32.1579 39.0975 0.0000 0.0000 0.0000
# 2 32.1579 81.4723 39.0975 0.0000 0.0000 0.0000
# 3 39.0975 39.0975 96.3843 0.0000 0.0000 0.0000
# 4 0.0000 0.0000 0.0000 36.0630 0.0000 0.0000
# 5 0.0000 0.0000 0.0000 0.0000 36.0630 0.0000
# 6 0.0000 0.0000 0.0000 0.0000 0.0000 30.4039
#
#
#
# Elastic Compliance Matrix: (Units=1/GPa)
#
#
# Indices 1 2 3 4 5 6 
#
# 1 0.016243 -0.004035 -0.004952 0.000000 0.000000 0.000000
# 2 -0.004035 0.016243 -0.004952 0.000000 0.000000 0.000000
# 3 -0.004952 -0.004952 0.014393 0.000000 0.000000 0.000000
# 4 0.000000 0.000000 0.000000 0.027729 0.000000 0.000000
# 5 0.000000 0.000000 0.000000 0.000000 0.027729 0.000000
# 6 0.000000 0.000000 0.000000 0.000000 0.000000 0.032891
#
#
# Mechanical properties :
#
#
# Convention : Reuss Voigt Hill
#
# Bulk Modulus (GPa) = 52.62984 53.33720 52.98352
# Shear Modulus (GPa) = 29.50888 30.43769 29.97329
#
# Velocity S-wave (km/s) = 3.74672 3.80523 3.77609
# Velocity P-wave (km/s) = 6.61469 6.68430 6.64959
#
# Compressibility (1/GPa) = 0.01900063
#
# Stress axis : x y z
#
# Youngs Moduli (GPa) = 61.56413 61.56413 69.47917
#
# Poissons Ratio (x) = 0.24840 0.34408
# Poissons Ratio (y) = 0.24840 0.34408
# Poissons Ratio (z) = 0.30488 0.30488
#
# Static dielectric constant tensor:
#      x y z
#    x 1.797470 0.000000 0.000000 
#    y 0.000000 1.797470 0.000000 
#    z 0.000000 0.000000 1.763790 
# 
# From -- ./inp_files/4202.got.cif
#   From: 2010.05.17/outbox.cif.g08.bks.cpg/sg116_3_cif.got.tgz:4202.got - 2010.05.20 11:11:43.
