data_PCOD9557161
_publ_section_title
;
Structure prediction by ZEFSAII (Michael W. Deem and Ramdas Pophale) SiO2 
 PCOD9557161
Probable space group: P -4 M 2
;
_chemical_formula_sum "Si O2"
_cell_formula_units_Z 44
_cell_length_a 9.405551
_cell_length_b 9.405551
_cell_length_c 29.103744
_cell_angle_alpha 90.000000
_cell_angle_beta 90.000000
_cell_angle_gamma 90.000000
_cell_volume 2574.644948
_symmetry_space_group_name_H-M "P -4 M 2"
_symmetry_group_IT_number 115
_symmetry_cell_setting 'tetragonal'
loop_
_space_group_symop_operation_xyz
x,y,z
y,-x,-z
-x,-y,z
-y,x,-z
y,x,-z
-y,-x,-z
-x,y,z
x,-y,z
loop_
_atom_site_type_symbol
_atom_site_label
_atom_site_fract_x
_atom_site_fract_y
_atom_site_fract_z
Si Si1 0.668849 0.830915 0.225405
Si Si2 0.329687 0.332730 0.947238
Si Si3 0.673166 0.663560 0.316686
Si Si4 0.831813 0.329970 0.592510
Si Si5 0.167066 0.170299 0.132438
Si Si6 0.168816 0.831185 0.500000
O O1 0.500000 0.805936 0.218170
O O2 0.716067 0.745640 0.270493
O O3 0.754417 0.789947 0.179852
O O4 0.687318 0.000000 0.233246
O O5 0.500000 0.317608 0.942259
O O6 0.295937 0.500000 0.940753
O O7 0.248892 0.239529 0.910114
O O8 0.294181 0.294181 0.000000
O O9 0.500000 0.665793 0.316908
O O10 0.719044 0.500000 0.316386
O O11 0.718095 0.744465 0.362911
O O12 0.814081 0.500000 0.587316
O O13 0.787392 0.252335 0.545747
O O14 0.000000 0.302850 0.599846
O O15 0.000000 0.202430 0.135045
O O16 0.183643 0.000000 0.126974
O O17 0.000000 0.808232 0.493360
#
# Coordination Sequence:
#
# PCOD9557161 Si02
#       6
#     8   8   8   8   8   4
#     4   9  17  31  51  71  93 127 168 203 237 284
#     4   9  19  36  56  77 101 131 169 210 250 295
#     4   9  17  29  47  72  97 120 153 198 242 283
#     4   9  17  30  48  68  91 121 155 190 230 278
#     4  10  21  35  51  75 106 136 167 205 249 297
#     4   9  18  32  48  67  92 122 156 191 228 274
#
# _framework density 17.089734
#
# number of rings (size 3 to 8) (size 9 to 14) (size 15 to 20)
#    0.000    2.818    0.000    1.636    0.000    5.818 
#    0.000    5.455    0.000    5.455    0.000    0.000 
#    0.000    0.000    0.000    0.000    0.000    0.000 
#
# Total GULP energy -245350.593835 kJ/mol
# GULP energy per Si atom -5576.149860 kJ/mol
# Density = 1.705084 g / cm^3
# Si number density = 17.089734 Si / 1000 Ang^3
#
#
#
# Elastic Constant Matrix: (Units=GPa)
#
#
# Indices 1 2 3 4 5 6 
#
# 1 56.2996 48.0155 89.7179 0.0000 0.0000 0.0000
# 2 48.0155 56.2999 89.7178 0.0000 0.0000 0.0000
# 3 89.7179 89.7178 212.8494 0.0000 0.0000 0.0000
# 4 0.0000 0.0000 0.0000 51.2868 0.0000 0.0000
# 5 0.0000 0.0000 0.0000 0.0000 51.2887 0.0000
# 6 0.0000 0.0000 0.0000 0.0000 0.0000 19.3716
#
#
#
# Elastic Compliance Matrix: (Units=1/GPa)
#
#
# Indices 1 2 3 4 5 6 
#
# 1 0.077789 -0.042923 -0.014696 0.000000 0.000000 0.000000
# 2 -0.042923 0.077788 -0.014696 0.000000 0.000000 0.000000
# 3 -0.014696 -0.014696 0.017087 0.000000 0.000000 0.000000
# 4 0.000000 0.000000 0.000000 0.019498 0.000000 0.000000
# 5 0.000000 0.000000 0.000000 0.000000 0.019497 0.000000
# 6 0.000000 0.000000 0.000000 0.000000 0.000000 0.051622
#
#
# Mechanical properties :
#
#
# Convention : Reuss Voigt Hill
#
# Bulk Modulus (GPa) = 35.67117 86.70570 61.18844
# Shear Modulus (GPa) = 11.98303 30.92260 21.45281
#
# Velocity S-wave (km/s) = 2.65086 4.25835 3.54687
# Velocity P-wave (km/s) = 5.50342 8.66162 7.25642
#
# Compressibility (1/GPa) = 0.02803384
#
# Stress axis : x y z
#
# Youngs Moduli (GPa) = 12.85526 12.85548 58.52321
#
# Poissons Ratio (x) = 0.55180 0.86008
# Poissons Ratio (y) = 0.55179 0.86005
# Poissons Ratio (z) = 0.18893 0.18892
#
# Static dielectric constant tensor:
#      x y z
#    x 1.568040 0.000000 0.000000 
#    y 0.000000 1.568040 0.000000 
#    z 0.000000 0.000000 1.553940 
# 
# From -- ./inp_files/5721.got.cif
#   From: 2010.05.17/outbox.cif.g08.bks.cpg/sg115_3_cif.got.tgz:5721.got - 2010.05.20 11:07:42.
