data_PCOD9557706
_publ_section_title
;
Structure prediction by ZEFSAII (Michael W. Deem and Ramdas Pophale) SiO2 
 PCOD9557706
Probable space group: P -4 C 2
;
_chemical_formula_sum "Si O2"
_cell_formula_units_Z 56
_cell_length_a 14.467083
_cell_length_b 14.467083
_cell_length_c 14.344207
_cell_angle_alpha 90.000000
_cell_angle_beta 90.000000
_cell_angle_gamma 90.000000
_cell_volume 3002.192185
_symmetry_space_group_name_H-M "P -4 C 2"
_symmetry_group_IT_number 116
_symmetry_cell_setting 'tetragonal'
loop_
_space_group_symop_operation_xyz
x,y,z
y,-x,-z
-x,-y,z
-y,x,-z
y,x,1/2-z
-y,-x,1/2-z
-x,y,1/2+z
x,-y,1/2+z
loop_
_atom_site_type_symbol
_atom_site_label
_atom_site_fract_x
_atom_site_fract_y
_atom_site_fract_z
Si Si1 0.913794 0.339071 0.118485
Si Si2 0.874081 0.335798 0.588406
Si Si3 0.730782 0.247513 0.077255
Si Si4 0.484796 0.102876 0.041190
Si Si5 0.716651 0.416110 0.693636
Si Si6 0.570582 0.814447 0.713951
Si Si7 0.391797 0.403673 0.006165
O O1 0.833080 0.263059 0.116266
O O2 0.894955 0.394696 0.022137
O O3 0.891663 0.404088 0.208262
O O4 0.020962 0.309177 0.114523
O O5 0.818591 0.271478 0.514530
O O6 0.880012 0.431634 0.530479
O O7 0.812827 0.360579 0.678632
O O8 0.663526 0.208026 0.157387
O O9 0.681073 0.344715 0.047927
O O10 0.500000 0.000000 0.077961
O O11 0.496549 0.164103 0.132095
O O12 0.645346 0.354655 0.750000
O O13 0.733460 0.518680 0.731357
O O14 0.674881 0.422613 0.591682
O O15 0.389618 0.503955 0.956741
#
# Coordination Sequence:
#
# PCOD9557706 Si02
#       7
#     8   8   8   8   8   8   8
#     4  11  21  38  61  82 121 155 191 255 298 347
#     4   9  21  39  55  86 118 149 192 240 308 351
#     4  10  22  37  59  85 113 153 200 240 293 362
#     4   9  20  34  54  84 112 150 190 237 296 353
#     4  11  22  34  56  84 117 154 196 242 293 355
#     4  11  22  34  57  87 115 157 199 240 293 356
#     4  10  21  37  54  75 114 161 195 238 283 340
#
# _framework density 18.653037000000001
#
# number of rings (size 3 to 8) (size 9 to 14) (size 15 to 20)
#    0.000    1.857    1.429    2.143   10.000    0.000 
#    0.000    4.286    0.000    0.429    0.000    0.000 
#    0.000    0.000    0.000    0.000    0.000    0.000 
#
# Total GULP energy -312089.484724 kJ/mol
# GULP energy per Si atom -5573.026513 kJ/mol
# Density = 1.861058 g / cm^3
# Si number density = 18.653037 Si / 1000 Ang^3
#
#
#
# Elastic Constant Matrix: (Units=GPa)
#
#
# Indices 1 2 3 4 5 6 
#
# 1 74.7539 8.4631 10.5132 0.0000 0.0000 0.0000
# 2 8.4631 74.7524 10.5134 0.0000 0.0000 0.0000
# 3 10.5132 10.5134 53.2922 0.0000 0.0000 0.0000
# 4 0.0000 0.0000 0.0000 19.5361 0.0000 0.0000
# 5 0.0000 0.0000 0.0000 0.0000 19.5362 0.0000
# 6 0.0000 0.0000 0.0000 0.0000 0.0000 16.0940
#
#
#
# Elastic Compliance Matrix: (Units=1/GPa)
#
#
# Indices 1 2 3 4 5 6 
#
# 1 0.013866 -0.001219 -0.002495 0.000000 0.000000 0.000000
# 2 -0.001219 0.013866 -0.002495 0.000000 0.000000 0.000000
# 3 -0.002495 -0.002495 0.019749 0.000000 0.000000 0.000000
# 4 0.000000 0.000000 0.000000 0.051187 0.000000 0.000000
# 5 0.000000 0.000000 0.000000 0.000000 0.051187 0.000000
# 6 0.000000 0.000000 0.000000 0.000000 0.000000 0.062135
#
#
# Mechanical properties :
#
#
# Convention : Reuss Voigt Hill
#
# Bulk Modulus (GPa) = 28.51976 29.08646 28.80311
# Shear Modulus (GPa) = 21.17779 22.58718 21.88249
#
# Velocity S-wave (km/s) = 3.37316 3.48359 3.42882
# Velocity P-wave (km/s) = 5.52211 5.63984 5.58129
#
# Compressibility (1/GPa) = 0.03506341
#
# Stress axis : x y z
#
# Youngs Moduli (GPa) = 72.11827 72.11671 50.63577
#
# Poissons Ratio (x) = 0.08791 0.12633
# Poissons Ratio (y) = 0.08791 0.12634
# Poissons Ratio (z) = 0.17993 0.17994
#
# Static dielectric constant tensor:
#      x y z
#    x 1.469780 0.000000 0.000000 
#    y 0.000000 1.469570 0.000000 
#    z 0.000000 0.000000 1.664430 
# 
# From -- ./inp_files/2714.got.cif
#   From: 2010.05.17/outbox.cif.g08.bks.cpg/sg116_2_cif.got.tgz:2714.got - 2010.05.20 11:11:43.
