data_PCOD9557198
_publ_section_title
;
Structure prediction by ZEFSAII (Michael W. Deem and Ramdas Pophale) SiO2 
 PCOD9557198
Probable space group: P -4 M 2
;
_chemical_formula_sum "Si O2"
_cell_formula_units_Z 32
_cell_length_a 9.350506
_cell_length_b 9.350506
_cell_length_c 21.402850
_cell_angle_alpha 90.000000
_cell_angle_beta 90.000000
_cell_angle_gamma 90.000000
_cell_volume 1871.293178
_symmetry_space_group_name_H-M "P -4 M 2"
_symmetry_group_IT_number 115
_symmetry_cell_setting 'tetragonal'
loop_
_space_group_symop_operation_xyz
x,y,z
y,-x,-z
-x,-y,z
-y,x,-z
y,x,-z
-y,-x,-z
-x,y,z
x,-y,z
loop_
_atom_site_type_symbol
_atom_site_label
_atom_site_fract_x
_atom_site_fract_y
_atom_site_fract_z
Si Si1 0.334932 0.825988 0.193829
Si Si2 0.171068 0.167852 0.317649
Si Si3 0.168220 0.327679 0.944871
Si Si4 0.829090 0.330393 0.444158
O O1 0.500000 0.782150 0.201401
O O2 0.244048 0.781541 0.253624
O O3 0.283376 0.781472 0.124869
O O4 0.332919 0.000000 0.192467
O O5 0.212539 0.258796 0.378202
O O6 0.000000 0.176445 0.310753
O O7 0.208061 0.000000 0.327543
O O8 0.179709 0.500000 0.947301
O O9 0.000000 0.291714 0.951102
O O10 0.255801 0.255801 0.000000
O O11 0.744708 0.255293 0.500000
O O12 0.803775 0.500000 0.443171
O O13 0.000000 0.306713 0.452466
#
# Coordination Sequence:
#
# PCOD9557198 Si02
#       4
#     8   8   8   8
#     4   8  15  29  48  69  94 124 159 199 241 287
#     4   9  17  30  50  74  97 123 158 199 241 287
#     4   9  18  32  49  71  99 130 165 204 245 290
#     4  10  21  36  53  74 101 132 164 199 241 288
#
# _framework density 17.100473999999998
#
# number of rings (size 3 to 8) (size 9 to 14) (size 15 to 20)
#    0.000    3.000    0.000    2.250    0.000    4.000 
#    0.000    6.250    0.000    4.500    0.000    0.000 
#    0.000    0.000    0.000    0.000    0.000    0.000 
#
# Total GULP energy -178315.620095 kJ/mol
# GULP energy per Si atom -5572.363128 kJ/mol
# Density = 1.706155 g / cm^3
# Si number density = 17.100474 Si / 1000 Ang^3
#
#
#
# Elastic Constant Matrix: (Units=GPa)
#
#
# Indices 1 2 3 4 5 6 
#
# 1 39.5739 37.5184 72.1650 0.0000 0.0000 0.0000
# 2 37.5184 39.5750 72.1644 0.0000 0.0000 0.0000
# 3 72.1650 72.1644 213.9701 0.0000 0.0000 0.0000
# 4 0.0000 0.0000 0.0000 -45.6560 0.0000 0.0000
# 5 0.0000 0.0000 0.0000 0.0000 -45.6492 0.0000
# 6 0.0000 0.0000 0.0000 0.0000 0.0000 19.6569
#
#
#
# Elastic Compliance Matrix: (Units=1/GPa)
#
#
# Indices 1 2 3 4 5 6 
#
# 1 0.260793 -0.225588 -0.011874 0.000000 0.000000 0.000000
# 2 -0.225588 0.260767 -0.011864 0.000000 0.000000 0.000000
# 3 -0.011874 -0.011864 0.012680 0.000000 0.000000 0.000000
# 4 0.000000 0.000000 0.000000 -0.021903 0.000000 0.000000
# 5 0.000000 0.000000 0.000000 0.000000 -0.021906 0.000000
# 6 0.000000 0.000000 0.000000 0.000000 0.000000 0.050873
#
#
# Mechanical properties :
#
#
# Convention : Reuss Voigt Hill
#
# Bulk Modulus (GPa) = 28.09984 72.97940 50.53962
# Shear Modulus (GPa) = 4.75368 -6.91156 -1.07894
#
# Velocity S-wave (km/s) = 1.66910 -2.01259 -0.79518
# Velocity P-wave (km/s) = 4.49248 6.11300 5.36429
#
# Compressibility (1/GPa) = 0.03558739
#
# Stress axis : x y z
#
# Youngs Moduli (GPa) = 3.83446 3.83484 78.86705
#
# Poissons Ratio (x) = 0.86509 0.93647
# Poissons Ratio (y) = 0.86501 0.93568
# Poissons Ratio (z) = 0.04553 0.04550
#
# Static dielectric constant tensor:
#      x y z
#    x 1.569050 0.000000 0.000000 
#    y 0.000000 1.569050 0.000000 
#    z 0.000000 0.000000 1.574860 
# 
# From -- ./inp_files/4569.got.cif
#   From: 2010.05.17/outbox.cif.g08.bks.cpg/sg115_3_cif.got.tgz:4569.got - 2010.05.20 11:07:42.
