data_PCOD9557101
_publ_section_title
;
Structure prediction by ZEFSAII (Michael W. Deem and Ramdas Pophale) SiO2 
 PCOD9557101
Probable space group: P -4 M 2
;
_chemical_formula_sum "Si O2"
_cell_formula_units_Z 48
_cell_length_a 8.123902
_cell_length_b 8.123902
_cell_length_c 35.590430
_cell_angle_alpha 90.000000
_cell_angle_beta 90.000000
_cell_angle_gamma 90.000000
_cell_volume 2348.889501
_symmetry_space_group_name_H-M "P -4 M 2"
_symmetry_group_IT_number 115
_symmetry_cell_setting 'tetragonal'
loop_
_space_group_symop_operation_xyz
x,y,z
y,-x,-z
-x,-y,z
-y,x,-z
y,x,-z
-y,-x,-z
-x,y,z
x,-y,z
loop_
_atom_site_type_symbol
_atom_site_label
_atom_site_fract_x
_atom_site_fract_y
_atom_site_fract_z
Si Si1 0.500000 0.698964 0.090451
Si Si2 0.198371 0.500000 0.823477
Si Si3 0.803924 0.314295 0.301577
Si Si4 0.192616 0.187101 0.778189
Si Si5 0.313786 0.803196 0.460564
Si Si6 0.186698 0.302581 0.618973
Si Si7 0.699240 0.813376 0.959524
O O1 0.500000 0.500000 0.091411
O O2 0.500000 0.763511 0.132638
O O3 0.334186 0.750166 0.068292
O O4 0.263505 0.332797 0.803818
O O5 0.000000 0.500000 0.818151
O O6 0.760894 0.500000 0.291079
O O7 0.759594 0.206512 0.265491
O O8 0.731608 0.275232 0.342144
O O9 0.000000 0.299930 0.306058
O O10 0.000000 0.173445 0.787420
O O11 0.263501 0.000000 0.781729
O O12 0.228450 0.771551 0.500000
O O13 0.500000 0.739006 0.464523
O O14 0.240015 0.740678 0.420873
O O15 0.320460 0.000000 0.455412
O O16 0.180194 0.500000 0.614288
O O17 0.000000 0.238954 0.623399
O O18 0.500000 0.803187 0.963707
O O19 0.738888 0.000000 0.946957
O O20 0.778318 0.778318 0.000000
#
# Coordination Sequence:
#
# PCOD9557101 Si02
#       7
#     4   4   8   8   8   8   8
#     4  10  22  38  58  86 126 162 198 252 308 358
#     4  10  22  38  58  84 112 152 202 242 290 352
#     4  10  21  35  52  79 110 136 168 219 278 329
#     4   9  19  37  58  79 108 148 192 239 290 344
#     4   9  19  35  52  72  99 132 170 211 257 311
#     4   9  19  35  53  73 100 134 172 213 257 316
#     4  10  20  36  61  89 120 162 208 254 307 364
#
# _framework density 20.435189999999999
#
# number of rings (size 3 to 8) (size 9 to 14) (size 15 to 20)
#    0.000    2.500    0.833    1.500    1.167    5.167 
#    0.000    5.000    0.000    0.000    0.000    0.000 
#    0.000    0.000    0.000    0.000    0.000    0.000 
#
# Total GULP energy -267527.662265 kJ/mol
# GULP energy per Si atom -5573.492964 kJ/mol
# Density = 2.038868 g / cm^3
# Si number density = 20.435190 Si / 1000 Ang^3
#
#
#
# Elastic Constant Matrix: (Units=GPa)
#
#
# Indices 1 2 3 4 5 6 
#
# 1 47.3648 28.7553 42.5888 0.0000 0.0000 0.0000
# 2 28.7553 47.3645 42.5886 0.0000 0.0000 0.0000
# 3 42.5888 42.5886 145.0371 0.0000 0.0000 0.0000
# 4 0.0000 0.0000 0.0000 29.8788 0.0000 0.0000
# 5 0.0000 0.0000 0.0000 0.0000 29.8789 0.0000
# 6 0.0000 0.0000 0.0000 0.0000 0.0000 12.1163
#
#
#
# Elastic Compliance Matrix: (Units=1/GPa)
#
#
# Indices 1 2 3 4 5 6 
#
# 1 0.036651 -0.017085 -0.005745 0.000000 0.000000 0.000000
# 2 -0.017085 0.036651 -0.005745 0.000000 0.000000 0.000000
# 3 -0.005745 -0.005745 0.010269 0.000000 0.000000 0.000000
# 4 0.000000 0.000000 0.000000 0.033469 0.000000 0.000000
# 5 0.000000 0.000000 0.000000 0.000000 0.033468 0.000000
# 6 0.000000 0.000000 0.000000 0.000000 0.000000 0.082533
#
#
# Mechanical properties :
#
#
# Convention : Reuss Voigt Hill
#
# Bulk Modulus (GPa) = 37.85049 51.95908 44.90479
# Shear Modulus (GPa) = 16.72239 22.76372 19.74306
#
# Velocity S-wave (km/s) = 2.86372 3.34121 3.11164
# Velocity P-wave (km/s) = 5.43111 6.35345 5.91030
#
# Compressibility (1/GPa) = 0.02641973
#
# Stress axis : x y z
#
# Youngs Moduli (GPa) = 27.28419 27.28410 97.38076
#
# Poissons Ratio (x) = 0.46615 0.55950
# Poissons Ratio (y) = 0.46615 0.55949
# Poissons Ratio (z) = 0.15676 0.15676
#
# Static dielectric constant tensor:
#      x y z
#    x 1.747420 0.000000 0.000000 
#    y 0.000000 1.747420 0.000000 
#    z 0.000000 0.000000 1.723380 
# 
# From -- ./inp_files/6171.got.cif
#   From: 2010.05.17/outbox.cif.g08.bks.cpg/sg115_4_cif.got.tgz:6171.got - 2010.05.20 11:07:42.
