data_PCOD9557464
_publ_section_title
;
Structure prediction by ZEFSAII (Michael W. Deem and Ramdas Pophale) SiO2 
 PCOD9557464
Probable space group: P -4 M 2
;
_chemical_formula_sum "Si O2"
_cell_formula_units_Z 25
_cell_length_a 7.699000
_cell_length_b 7.699000
_cell_length_c 19.955256
_cell_angle_alpha 90.000000
_cell_angle_beta 90.000000
_cell_angle_gamma 90.000000
_cell_volume 1182.839837
_symmetry_space_group_name_H-M "P -4 M 2"
_symmetry_group_IT_number 115
_symmetry_cell_setting 'tetragonal'
loop_
_space_group_symop_operation_xyz
x,y,z
y,-x,-z
-x,-y,z
-y,x,-z
y,x,-z
-y,-x,-z
-x,y,z
x,-y,z
loop_
_atom_site_type_symbol
_atom_site_label
_atom_site_fract_x
_atom_site_fract_y
_atom_site_fract_z
Si Si1 0.794436 0.289559 0.291136
Si Si2 0.205299 0.205299 0.000000
Si Si3 0.500000 0.500000 0.500000
Si Si4 0.801083 0.292502 0.144204
Si Si5 0.500000 0.808527 0.394480
O O1 0.782118 0.500000 0.294895
O O2 0.732110 0.233605 0.216341
O O3 0.668701 0.215412 0.347271
O O4 0.000000 0.246054 0.298038
O O5 0.282636 0.257330 0.071961
O O6 0.000000 0.238843 0.004399
O O7 0.500000 0.665499 0.451759
O O8 0.810284 0.500000 0.148988
O O9 0.000000 0.224190 0.141679
O O10 0.500000 0.000000 0.424112
#
# Coordination Sequence:
#
# PCOD9557464 Si02
#       5
#     8   4   1   8   4
#     4   9  18  38  67  93 126 171 214 264 318 367
#     4   9  16  26  42  67 106 154 200 253 312 359
#     4  12  28  52  68  96 144 170 188 256 300 372
#     4   8  15  29  50  75 108 156 204 249 309 363
#     4  12  26  44  72 104 129 167 210 245 309 380
#
# _framework density 21.135574999999999
#
# number of rings (size 3 to 8) (size 9 to 14) (size 15 to 20)
#    0.000    2.720    1.600    1.920    0.000    3.200 
#    2.880    3.200    0.000    0.000    0.000    0.000 
#    0.000    0.000    0.000    0.000    0.000    0.000 
#
# Total GULP energy -139346.356964 kJ/mol
# GULP energy per Si atom -5573.854279 kJ/mol
# Density = 2.108747 g / cm^3
# Si number density = 21.135575 Si / 1000 Ang^3
#
#
#
# Elastic Constant Matrix: (Units=GPa)
#
#
# Indices 1 2 3 4 5 6 
#
# 1 97.3754 3.8134 54.7369 0.0000 0.0000 0.0000
# 2 3.8134 97.3754 54.7369 0.0000 0.0000 0.0000
# 3 54.7369 54.7369 181.0719 0.0000 0.0000 0.0000
# 4 0.0000 0.0000 0.0000 26.4978 0.0000 0.0000
# 5 0.0000 0.0000 0.0000 0.0000 26.4978 0.0000
# 6 0.0000 0.0000 0.0000 0.0000 0.0000 8.8052
#
#
#
# Elastic Compliance Matrix: (Units=1/GPa)
#
#
# Indices 1 2 3 4 5 6 
#
# 1 0.012687 0.001999 -0.004439 0.000000 0.000000 0.000000
# 2 0.001999 0.012687 -0.004439 0.000000 0.000000 0.000000
# 3 -0.004439 -0.004439 0.008207 0.000000 0.000000 0.000000
# 4 0.000000 0.000000 0.000000 0.037739 0.000000 0.000000
# 5 0.000000 0.000000 0.000000 0.000000 0.037739 0.000000
# 6 0.000000 0.000000 0.000000 0.000000 0.000000 0.113569
#
#
# Mechanical properties :
#
#
# Convention : Reuss Voigt Hill
#
# Bulk Modulus (GPa) = 50.45396 66.93302 58.69349
# Shear Modulus (GPa) = 20.57666 29.86254 25.21960
#
# Velocity S-wave (km/s) = 3.12357 3.76294 3.45806
# Velocity P-wave (km/s) = 6.07720 7.11455 6.61623
#
# Compressibility (1/GPa) = 0.01982005
#
# Stress axis : x y z
#
# Youngs Moduli (GPa) = 78.82289 78.82289 121.85335
#
# Poissons Ratio (x) = -0.15753 0.54094
# Poissons Ratio (y) = -0.15753 0.54094
# Poissons Ratio (z) = 0.34992 0.34992
#
# Static dielectric constant tensor:
#      x y z
#    x 1.770840 0.000000 0.000000 
#    y 0.000000 1.770840 0.000000 
#    z 0.000000 0.000000 1.787130 
# 
# From -- ./inp_files/4058.got.cif
#   From: 2010.05.17/outbox.cif.g08.bks.cpg/sg115_3_cif.got.tgz:4058.got - 2010.05.20 11:07:42.
