data_PCOD9557454
_publ_section_title
;
Structure prediction by ZEFSAII (Michael W. Deem and Ramdas Pophale) SiO2 
 PCOD9557454
Probable space group: P -4 M 2
;
_chemical_formula_sum "Si O2"
_cell_formula_units_Z 44
_cell_length_a 9.228935
_cell_length_b 9.228935
_cell_length_c 29.530587
_cell_angle_alpha 90.000000
_cell_angle_beta 90.000000
_cell_angle_gamma 90.000000
_cell_volume 2515.215810
_symmetry_space_group_name_H-M "P -4 M 2"
_symmetry_group_IT_number 115
_symmetry_cell_setting 'tetragonal'
loop_
_space_group_symop_operation_xyz
x,y,z
y,-x,-z
-x,-y,z
-y,x,-z
y,x,-z
-y,-x,-z
-x,y,z
x,-y,z
loop_
_atom_site_type_symbol
_atom_site_label
_atom_site_fract_x
_atom_site_fract_y
_atom_site_fract_z
Si Si1 0.672682 0.827382 0.957850
Si Si2 0.323785 0.167262 0.226935
Si Si3 0.327616 0.172520 0.591653
Si Si4 0.172424 0.172424 0.500000
Si Si5 0.328313 0.327113 0.317040
Si Si6 0.672655 0.174482 0.125394
O O1 0.500000 0.801991 0.958921
O O2 0.742049 0.761761 0.912431
O O3 0.697260 0.000000 0.960351
O O4 0.748698 0.748698 0.000000
O O5 0.500000 0.171226 0.226771
O O6 0.274337 0.256547 0.270407
O O7 0.281663 0.217117 0.176545
O O8 0.280426 0.000000 0.231999
O O9 0.500000 0.197723 0.587448
O O10 0.250122 0.222938 0.545805
O O11 0.275750 0.249345 0.637480
O O12 0.304233 0.000000 0.595857
O O13 0.000000 0.196702 0.504388
O O14 0.500000 0.297595 0.321185
O O15 0.309152 0.500000 0.313940
O O16 0.500000 0.202649 0.120119
O O17 0.691284 0.000000 0.121300
#
# Coordination Sequence:
#
# PCOD9557454 Si02
#       6
#     8   8   8   4   8   8
#     4  11  24  39  55  78 106 135 170 210 251 298
#     4   8  15  29  49  73 100 128 159 197 238 280
#     4   9  18  32  47  64  90 122 152 186 234 285
#     4   9  18  32  48  65  86 114 150 191 232 278
#     4   9  17  29  46  69  95 123 157 194 231 275
#     4   9  18  34  56  80 105 134 169 208 250 296
#
# _framework density 17.49353
#
# number of rings (size 3 to 8) (size 9 to 14) (size 15 to 20)
#    0.000    2.818    0.000    2.182    0.000    6.182 
#    0.000    2.727    0.000    3.273    0.000    0.000 
#    0.000    0.000    0.000    0.000    0.000    0.000 
#
# Total GULP energy -245275.874176 kJ/mol
# GULP energy per Si atom -5574.451686 kJ/mol
# Density = 1.745371 g / cm^3
# Si number density = 17.493530 Si / 1000 Ang^3
#
#
#
# Elastic Constant Matrix: (Units=GPa)
#
#
# Indices 1 2 3 4 5 6 
#
# 1 44.2810 48.5140 76.9471 0.0000 0.0000 0.0000
# 2 48.5140 44.2810 76.9471 0.0000 0.0000 0.0000
# 3 76.9471 76.9471 225.6882 0.0000 0.0000 0.0000
# 4 0.0000 0.0000 0.0000 48.7138 0.0000 0.0000
# 5 0.0000 0.0000 0.0000 0.0000 48.7138 0.0000
# 6 0.0000 0.0000 0.0000 0.0000 0.0000 20.3275
#
#
#
# Elastic Compliance Matrix: (Units=1/GPa)
#
#
# Indices 1 2 3 4 5 6 
#
# 1 -0.105722 0.130520 -0.008455 0.000000 0.000000 0.000000
# 2 0.130520 -0.105722 -0.008455 0.000000 0.000000 0.000000
# 3 -0.008455 -0.008455 0.010196 0.000000 0.000000 0.000000
# 4 0.000000 0.000000 0.000000 0.020528 0.000000 0.000000
# 5 0.000000 0.000000 0.000000 0.000000 0.020528 0.000000
# 6 0.000000 0.000000 0.000000 0.000000 0.000000 0.049195
#
#
# Mechanical properties :
#
#
# Convention : Reuss Voigt Hill
#
# Bulk Modulus (GPa) = 38.50124 79.89628 59.19876
# Shear Modulus (GPa) = -15.17177 31.00715 7.91769
#
# Velocity S-wave (km/s) = -2.94816 4.21467 2.12976
# Velocity P-wave (km/s) = 3.23540 8.33400 6.32153
#
# Compressibility (1/GPa) = 0.02597319
#
# Stress axis : x y z
#
# Youngs Moduli (GPa) = -9.45880 -9.45880 98.07688
#
# Poissons Ratio (x) = 1.23456 0.82922
# Poissons Ratio (y) = 1.23456 0.82922
# Poissons Ratio (z) = -0.07997 -0.07997
#
# Static dielectric constant tensor:
#      x y z
#    x 1.583850 0.000000 0.000000 
#    y 0.000000 1.583850 0.000000 
#    z 0.000000 0.000000 1.594790 
# 
# From -- ./inp_files/5768.got.cif
#   From: 2010.05.17/outbox.cif.g08.bks.cpg/sg115_3_cif.got.tgz:5768.got - 2010.05.20 11:07:42.
