data_PCOD9557516
_publ_section_title
;
Structure prediction by ZEFSAII (Michael W. Deem and Ramdas Pophale) SiO2 
 PCOD9557516
Probable space group: P -4 C 2
;
_chemical_formula_sum "Si O2"
_cell_formula_units_Z 56
_cell_length_a 20.489218
_cell_length_b 20.489218
_cell_length_c 9.227189
_cell_angle_alpha 90.000000
_cell_angle_beta 90.000000
_cell_angle_gamma 90.000000
_cell_volume 3873.648260
_symmetry_space_group_name_H-M "P -4 C 2"
_symmetry_group_IT_number 116
_symmetry_cell_setting 'tetragonal'
loop_
_space_group_symop_operation_xyz
x,y,z
y,-x,-z
-x,-y,z
-y,x,-z
y,x,1/2-z
-y,-x,1/2-z
-x,y,1/2+z
x,-y,1/2+z
loop_
_atom_site_type_symbol
_atom_site_label
_atom_site_fract_x
_atom_site_fract_y
_atom_site_fract_z
Si Si1 0.721229 0.948898 0.527078
Si Si2 0.416739 0.038217 0.419604
Si Si3 0.879488 0.409987 0.087702
Si Si4 0.148485 0.909064 0.884340
Si Si5 0.938883 0.867267 0.631151
Si Si6 0.895506 0.503361 0.334683
Si Si7 0.082873 0.725930 0.138816
O O1 0.654780 0.931561 0.443085
O O2 0.783995 0.907286 0.475709
O O3 0.710735 0.943952 0.699289
O O4 0.729979 0.024564 0.479924
O O5 0.459199 0.061879 0.556180
O O6 0.451156 0.063336 0.274473
O O7 0.412304 0.959729 0.415047
O O8 0.859460 0.452425 0.227755
O O9 0.868197 0.332526 0.098690
O O10 0.857698 0.447679 0.942934
O O11 0.139943 0.860057 0.750000
O O12 0.147294 0.985439 0.843084
O O13 0.083956 0.896140 0.979222
O O14 0.918069 0.918069 0.750000
O O15 0.896588 0.800968 0.647501
#
# Coordination Sequence:
#
# PCOD9557516 Si02
#       7
#     8   8   8   8   8   8   8
#     4  10  21  33  45  60  79 102 124 150 189 237
#     4  10  17  25  39  55  84 103 131 146 175 206
#     4  10  17  25  38  56  81 104 129 145 175 205
#     4  11  24  36  52  66  78  94 122 161 211 266
#     4  11  22  38  52  64  80  94 121 159 211 265
#     4  10  17  24  36  59  81 108 126 152 165 200
#     4  10  21  32  46  59  79 102 124 149 189 238
#
# _framework density 14.456656000000001
#
# number of rings (size 3 to 8) (size 9 to 14) (size 15 to 20)
#    0.000    1.714    2.857    4.286   12.000    1.714 
#    0.000    0.000    0.000    0.000    0.000    0.000 
#    0.000    0.000    0.000    0.000    0.000    0.000 
#
# Total GULP energy -311748.022215 kJ/mol
# GULP energy per Si atom -5566.928968 kJ/mol
# Density = 1.442375 g / cm^3
# Si number density = 14.456656 Si / 1000 Ang^3
#
#
#
# Elastic Constant Matrix: (Units=GPa)
#
#
# Indices 1 2 3 4 5 6 
#
# 1 81.5742 -39.3639 -2.1781 0.0000 0.0000 0.0000
# 2 -39.3639 81.5749 -2.1717 0.0000 0.0000 0.0000
# 3 -2.1781 -2.1717 52.5809 0.0000 0.0000 0.0000
# 4 0.0000 0.0000 0.0000 15.7806 0.0000 0.0000
# 5 0.0000 0.0000 0.0000 0.0000 15.7826 0.0000
# 6 0.0000 0.0000 0.0000 0.0000 0.0000 0.2244
#
#
#
# Elastic Compliance Matrix: (Units=1/GPa)
#
#
# Indices 1 2 3 4 5 6 
#
# 1 0.016031 0.007762 0.000985 0.000000 0.000000 0.000000
# 2 0.007762 0.016030 0.000984 0.000000 0.000000 0.000000
# 3 0.000985 0.000984 0.019100 0.000000 0.000000 0.000000
# 4 0.000000 0.000000 0.000000 0.063369 0.000000 0.000000
# 5 0.000000 0.000000 0.000000 0.000000 0.063361 0.000000
# 6 0.000000 0.000000 0.000000 0.000000 0.000000 4.455807
#
#
# Mechanical properties :
#
#
# Convention : Reuss Voigt Hill
#
# Bulk Modulus (GPa) = 14.16021 14.25584 14.20803
# Shear Modulus (GPa) = 1.07810 23.65378 12.36594
#
# Velocity S-wave (km/s) = 0.86450 4.04937 2.92786
# Velocity P-wave (km/s) = 3.28827 5.63433 4.61294
#
# Compressibility (1/GPa) = 0.07062041
#
# Stress axis : x y z
#
# Youngs Moduli (GPa) = 62.38103 62.38197 52.35673
#
# Poissons Ratio (x) = -0.48419 -0.05155
# Poissons Ratio (y) = -0.48418 -0.05150
# Poissons Ratio (z) = -0.06142 -0.06136
#
# Static dielectric constant tensor:
#      x y z
#    x 1.489580 0.000000 0.000000 
#    y 0.000000 1.489570 0.000000 
#    z 0.000000 0.000000 1.461730 
# 
# From -- ./inp_files/1094.got.cif
#   From: 2010.05.17/outbox.cif.g08.bks.cpg/sg116_1_cif.got.tgz:1094.got - 2010.05.20 11:11:43.
