data_PCOD9557174
_publ_section_title
;
Structure prediction by ZEFSAII (Michael W. Deem and Ramdas Pophale) SiO2 
 PCOD9557174
Probable space group: P -4 M 2
;
_chemical_formula_sum "Si O2"
_cell_formula_units_Z 48
_cell_length_a 9.252614
_cell_length_b 9.252614
_cell_length_c 31.626196
_cell_angle_alpha 90.000000
_cell_angle_beta 90.000000
_cell_angle_gamma 90.000000
_cell_volume 2707.546023
_symmetry_space_group_name_H-M "P -4 M 2"
_symmetry_group_IT_number 115
_symmetry_cell_setting 'tetragonal'
loop_
_space_group_symop_operation_xyz
x,y,z
y,-x,-z
-x,-y,z
-y,x,-z
y,x,-z
-y,-x,-z
-x,y,z
x,-y,z
loop_
_atom_site_type_symbol
_atom_site_label
_atom_site_fract_x
_atom_site_fract_y
_atom_site_fract_z
Si Si1 0.673477 0.330492 0.126015
Si Si2 0.171239 0.672393 0.961467
Si Si3 0.172467 0.329328 0.289424
Si Si4 0.830579 0.173911 0.796884
Si Si5 0.826348 0.829959 0.547785
Si Si6 0.669995 0.327152 0.375777
O O1 0.500000 0.318942 0.131208
O O2 0.710820 0.500000 0.123754
O O3 0.711421 0.250422 0.082304
O O4 0.751075 0.254415 0.165144
O O5 0.192659 0.500000 0.968289
O O6 0.000000 0.699015 0.958163
O O7 0.240731 0.759270 0.000000
O O8 0.201772 0.500000 0.282115
O O9 0.215016 0.239211 0.248139
O O10 0.253375 0.283310 0.331995
O O11 0.000000 0.313321 0.295624
O O12 0.000000 0.210820 0.798274
O O13 0.817018 0.000000 0.800759
O O14 0.785021 0.785021 0.500000
O O15 0.750669 0.740196 0.584242
O O16 0.000000 0.816582 0.550724
O O17 0.791222 0.000000 0.552668
O O18 0.500000 0.297347 0.373525
O O19 0.690519 0.500000 0.380054
#
# Coordination Sequence:
#
# PCOD9557174 Si02
#       6
#     8   8   8   8   8   8
#     4  10  21  37  58  82 108 142 182 222 265 314
#     4  10  21  37  57  81 109 142 180 221 266 316
#     4   9  18  34  54  74 101 141 184 220 257 308
#     4  10  21  36  55  81 111 141 175 218 267 316
#     4   9  19  36  56  77 102 135 176 219 262 311
#     4  10  21  35  52  78 110 140 172 214 263 314
#
# _framework density 17.72823
#
# number of rings (size 3 to 8) (size 9 to 14) (size 15 to 20)
#    0.000    2.333    0.000    2.500    0.000    7.000 
#    0.000    5.833    0.000    0.000    0.000    0.000 
#    0.000    0.000    0.000    0.000    0.000    0.000 
#
# Total GULP energy -267985.982272 kJ/mol
# GULP energy per Si atom -5583.041297 kJ/mol
# Density = 1.768788 g / cm^3
# Si number density = 17.728230 Si / 1000 Ang^3
#
#
#
# Elastic Constant Matrix: (Units=GPa)
#
#
# Indices 1 2 3 4 5 6 
#
# 1 73.3547 61.4478 96.3597 0.0000 0.0000 0.0000
# 2 61.4478 73.3552 96.3586 0.0000 0.0000 0.0000
# 3 96.3597 96.3586 212.2317 0.0000 0.0000 0.0000
# 4 0.0000 0.0000 0.0000 39.6282 0.0000 0.0000
# 5 0.0000 0.0000 0.0000 0.0000 39.6282 0.0000
# 6 0.0000 0.0000 0.0000 0.0000 0.0000 28.5127
#
#
#
# Elastic Compliance Matrix: (Units=1/GPa)
#
#
# Indices 1 2 3 4 5 6 
#
# 1 0.052563 -0.031422 -0.009599 0.000000 0.000000 0.000000
# 2 -0.031422 0.052560 -0.009597 0.000000 0.000000 0.000000
# 3 -0.009599 -0.009597 0.013428 0.000000 0.000000 0.000000
# 4 0.000000 0.000000 0.000000 0.025235 0.000000 0.000000
# 5 0.000000 0.000000 0.000000 0.000000 0.025235 0.000000
# 6 0.000000 0.000000 0.000000 0.000000 0.000000 0.035072
#
#
# Mechanical properties :
#
#
# Convention : Reuss Voigt Hill
#
# Bulk Modulus (GPa) = 57.75335 96.36377 77.05856
# Shear Modulus (GPa) = 16.07200 28.53886 22.30543
#
# Velocity S-wave (km/s) = 3.01421 4.01658 3.55094
# Velocity P-wave (km/s) = 6.69042 8.71692 7.77002
#
# Compressibility (1/GPa) = 0.01731501
#
# Stress axis : x y z
#
# Youngs Moduli (GPa) = 19.02479 19.02570 74.47348
#
# Poissons Ratio (x) = 0.59782 0.71487
# Poissons Ratio (y) = 0.59779 0.71476
# Poissons Ratio (z) = 0.18262 0.18260
#
# Static dielectric constant tensor:
#      x y z
#    x 1.591070 0.000000 0.000000 
#    y 0.000000 1.591070 0.000000 
#    z 0.000000 0.000000 1.569580 
# 
# From -- ./inp_files/6034.got.cif
#   From: 2010.05.17/outbox.cif.g08.bks.cpg/sg115_4_cif.got.tgz:6034.got - 2010.05.20 11:07:42.
