data_PCOD9557885
_publ_section_title
;
Structure prediction by ZEFSAII (Michael W. Deem and Ramdas Pophale) SiO2 
 PCOD9557885
Probable space group: P -4 C 2
;
_chemical_formula_sum "Si O2"
_cell_formula_units_Z 24
_cell_length_a 10.109750
_cell_length_b 10.109750
_cell_length_c 10.204634
_cell_angle_alpha 90.000000
_cell_angle_beta 90.000000
_cell_angle_gamma 90.000000
_cell_volume 1042.985487
_symmetry_space_group_name_H-M "P -4 C 2"
_symmetry_group_IT_number 116
_symmetry_cell_setting 'tetragonal'
loop_
_space_group_symop_operation_xyz
x,y,z
y,-x,-z
-x,-y,z
-y,x,-z
y,x,1/2-z
-y,-x,1/2-z
-x,y,1/2+z
x,-y,1/2+z
loop_
_atom_site_type_symbol
_atom_site_label
_atom_site_fract_x
_atom_site_fract_y
_atom_site_fract_z
Si Si1 0.000000 0.500000 0.759797
Si Si2 0.500000 0.500000 0.750000
Si Si3 0.858578 0.255147 0.879853
Si Si4 0.381497 0.252023 0.866716
Si Si5 0.000000 0.000000 0.500000
O O1 0.957558 0.374940 0.846603
O O2 0.879467 0.540779 0.668131
O O3 0.481181 0.374302 0.844999
O O4 0.776595 0.223406 0.750000
O O5 0.766083 0.306458 0.997554
O O6 0.936273 0.121790 0.919567
O O7 0.276015 0.276015 0.750000
#
# Coordination Sequence:
#
# PCOD9557885 Si02
#       5
#     4   2   8   8   2
#     4  12  26  48  80 120 156 216 262 344 410 490
#     4   8  24  52  84 102 162 202 266 332 400 488
#     4  12  27  48  83 119 161 214 275 338 406 493
#     4  10  24  51  78 116 156 214 264 336 404 489
#     4  12  26  52  80 130 166 216 268 350 414 484
#
# _framework density 23.010864999999999
#
# number of rings (size 3 to 8) (size 9 to 14) (size 15 to 20)
#    1.000    0.000    0.000    5.500    2.333    2.667 
#    0.000    2.500    0.000    0.000    0.000    0.000 
#    0.000    0.000    0.000    0.000    0.000    0.000 
#
# Total GULP energy -134301.247638 kJ/mol
# GULP energy per Si atom -5595.885318 kJ/mol
# Density = 2.295849 g / cm^3
# Si number density = 23.010865 Si / 1000 Ang^3
#
#
#
# Elastic Constant Matrix: (Units=GPa)
#
#
# Indices 1 2 3 4 5 6 
#
# 1 167.9681 90.3225 100.2463 0.0000 0.0000 0.0000
# 2 90.3225 167.9682 100.2460 0.0000 0.0000 0.0000
# 3 100.2463 100.2460 192.4984 0.0000 0.0000 0.0000
# 4 0.0000 0.0000 0.0000 -1.1654 0.0000 0.0000
# 5 0.0000 0.0000 0.0000 0.0000 -1.1678 0.0000
# 6 0.0000 0.0000 0.0000 0.0000 0.0000 29.0130
#
#
#
# Elastic Compliance Matrix: (Units=1/GPa)
#
#
# Indices 1 2 3 4 5 6 
#
# 1 0.009689 -0.003190 -0.003384 0.000000 0.000000 0.000000
# 2 -0.003190 0.009689 -0.003384 0.000000 0.000000 0.000000
# 3 -0.003384 -0.003384 0.008720 0.000000 0.000000 0.000000
# 4 0.000000 0.000000 0.000000 -0.858079 0.000000 0.000000
# 5 0.000000 0.000000 0.000000 0.000000 -0.856283 0.000000
# 6 0.000000 0.000000 0.000000 0.000000 0.000000 0.034467
#
#
# Mechanical properties :
#
#
# Convention : Reuss Voigt Hill
#
# Bulk Modulus (GPa) = 122.25179 123.34049 122.79614
# Shear Modulus (GPa) = -3.06908 21.17728 9.05410
#
# Velocity S-wave (km/s) = -1.15613 3.03696 1.98576
# Velocity P-wave (km/s) = 7.17363 8.12495 7.66407
#
# Compressibility (1/GPa) = 0.00817984
#
# Stress axis : x y z
#
# Youngs Moduli (GPa) = 103.21218 103.21251 114.68453
#
# Poissons Ratio (x) = 0.32927 0.38812
# Poissons Ratio (y) = 0.32927 0.38811
# Poissons Ratio (z) = 0.34929 0.34929
#
# Static dielectric constant tensor:
#      x y z
#    x 1.863990 0.000000 0.000000 
#    y 0.000000 1.863990 0.000000 
#    z 0.000000 0.000000 1.837710 
# 
# From -- ./inp_files/554.got.cif
#   From: 2010.05.17/outbox.cif.g08.bks.cpg/sg116_1_cif.got.tgz:554.got - 2010.05.20 11:11:43.
