data_PCOD9557069
_publ_section_title
;
Structure prediction by ZEFSAII (Michael W. Deem and Ramdas Pophale) SiO2 
 PCOD9557069
Probable space group: P -4 M 2
;
_chemical_formula_sum "Si O2"
_cell_formula_units_Z 48
_cell_length_a 9.146055
_cell_length_b 9.146055
_cell_length_c 31.889923
_cell_angle_alpha 90.000000
_cell_angle_beta 90.000000
_cell_angle_gamma 90.000000
_cell_volume 2667.602330
_symmetry_space_group_name_H-M "P -4 M 2"
_symmetry_group_IT_number 115
_symmetry_cell_setting 'tetragonal'
loop_
_space_group_symop_operation_xyz
x,y,z
y,-x,-z
-x,-y,z
-y,x,-z
y,x,-z
-y,-x,-z
-x,y,z
x,-y,z
loop_
_atom_site_type_symbol
_atom_site_label
_atom_site_fract_x
_atom_site_fract_y
_atom_site_fract_z
Si Si1 0.674081 0.825630 0.039730
Si Si2 0.173099 0.675101 0.289266
Si Si3 0.671544 0.675996 0.547011
Si Si4 0.675706 0.826846 0.881362
Si Si5 0.332114 0.322065 0.204417
Si Si6 0.174496 0.172303 0.375375
O O1 0.500000 0.798960 0.039068
O O2 0.744264 0.758121 0.081518
O O3 0.697882 0.000000 0.038125
O O4 0.749391 0.749391 0.000000
O O5 0.190764 0.500000 0.293468
O O6 0.259514 0.725346 0.248061
O O7 0.222343 0.750676 0.332200
O O8 0.000000 0.704060 0.283413
O O9 0.719872 0.719872 0.500000
O O10 0.500000 0.713792 0.551565
O O11 0.682466 0.500000 0.548989
O O12 0.760888 0.747825 0.584230
O O13 0.500000 0.806055 0.886135
O O14 0.720117 0.760493 0.836402
O O15 0.704184 0.000000 0.882863
O O16 0.500000 0.274152 0.200882
O O17 0.331228 0.500000 0.205194
O O18 0.000000 0.196606 0.379183
O O19 0.201250 0.000000 0.372709
#
# Coordination Sequence:
#
# PCOD9557069 Si02
#       6
#     8   8   8   8   8   8
#     4  11  24  40  58  82 111 143 181 223 267 317
#     4   9  17  31  51  73  99 135 178 220 262 311
#     4   9  19  36  56  77 101 131 170 215 261 311
#     4  10  20  35  57  84 112 143 180 220 263 314
#     4   9  17  30  51  79 107 136 175 223 270 313
#     4  10  21  35  51  75 107 140 174 213 259 313
#
# _framework density 17.993684999999999
#
# number of rings (size 3 to 8) (size 9 to 14) (size 15 to 20)
#    0.000    2.333    0.000    3.000    0.000    9.000 
#    0.000    5.000    0.000    3.000    0.000    0.000 
#    0.000    0.000    0.000    0.000    0.000    0.000 
#
# Total GULP energy -267939.914671 kJ/mol
# GULP energy per Si atom -5582.081556 kJ/mol
# Density = 1.795273 g / cm^3
# Si number density = 17.993685 Si / 1000 Ang^3
#
#
#
# Elastic Constant Matrix: (Units=GPa)
#
#
# Indices 1 2 3 4 5 6 
#
# 1 66.1700 59.5188 80.3362 0.0000 0.0000 0.0000
# 2 59.5188 66.1700 80.3362 0.0000 0.0000 0.0000
# 3 80.3362 80.3362 205.5388 0.0000 0.0000 0.0000
# 4 0.0000 0.0000 0.0000 154.2881 0.0000 0.0000
# 5 0.0000 0.0000 0.0000 0.0000 154.2881 0.0000
# 6 0.0000 0.0000 0.0000 0.0000 0.0000 23.3590
#
#
#
# Elastic Compliance Matrix: (Units=1/GPa)
#
#
# Indices 1 2 3 4 5 6 
#
# 1 0.083125 -0.067224 -0.006215 0.000000 0.000000 0.000000
# 2 -0.067224 0.083125 -0.006215 0.000000 0.000000 0.000000
# 3 -0.006215 -0.006215 0.009724 0.000000 0.000000 0.000000
# 4 0.000000 0.000000 0.000000 0.006481 0.000000 0.000000
# 5 0.000000 0.000000 0.000000 0.000000 0.006481 0.000000
# 6 0.000000 0.000000 0.000000 0.000000 0.000000 0.042810
#
#
# Mechanical properties :
#
#
# Convention : Reuss Voigt Hill
#
# Bulk Modulus (GPa) = 60.00383 86.47349 73.23866
# Shear Modulus (GPa) = 12.60687 74.23289 43.41988
#
# Velocity S-wave (km/s) = 2.64981 6.42997 4.91762
# Velocity P-wave (km/s) = 6.54076 10.16307 8.54604
#
# Compressibility (1/GPa) = 0.01666560
#
# Stress axis : x y z
#
# Youngs Moduli (GPa) = 12.03009 12.03009 102.84216
#
# Poissons Ratio (x) = 0.80871 0.63917
# Poissons Ratio (y) = 0.80871 0.63917
# Poissons Ratio (z) = 0.07477 0.07477
#
# Static dielectric constant tensor:
#      x y z
#    x 1.601350 0.000000 0.000000 
#    y 0.000000 1.601350 0.000000 
#    z 0.000000 0.000000 1.591730 
# 
# From -- ./inp_files/6002.got.cif
#   From: 2010.05.17/outbox.cif.g08.bks.cpg/sg115_4_cif.got.tgz:6002.got - 2010.05.20 11:07:42.
