data_PCOD9557659
_publ_section_title
;
Structure prediction by ZEFSAII (Michael W. Deem and Ramdas Pophale) SiO2 
 PCOD9557659
Probable space group: P -4 C 2
;
_chemical_formula_sum "Si O2"
_cell_formula_units_Z 48
_cell_length_a 17.828138
_cell_length_b 17.828138
_cell_length_c 8.914000
_cell_angle_alpha 90.000000
_cell_angle_beta 90.000000
_cell_angle_gamma 90.000000
_cell_volume 2833.248086
_symmetry_space_group_name_H-M "P -4 C 2"
_symmetry_group_IT_number 116
_symmetry_cell_setting 'tetragonal'
loop_
_space_group_symop_operation_xyz
x,y,z
y,-x,-z
-x,-y,z
-y,x,-z
y,x,1/2-z
-y,-x,1/2-z
-x,y,1/2+z
x,-y,1/2+z
loop_
_atom_site_type_symbol
_atom_site_label
_atom_site_fract_x
_atom_site_fract_y
_atom_site_fract_z
Si Si1 0.417834 0.918967 0.581550
Si Si2 0.797523 0.324939 0.405076
Si Si3 0.433022 0.345295 0.623016
Si Si4 0.574884 0.916431 0.439492
Si Si5 0.396855 0.335596 0.110152
Si Si6 0.203105 0.317445 0.554570
O O1 0.494595 0.888539 0.504636
O O2 0.428858 0.922001 0.760113
O O3 0.346801 0.867320 0.539832
O O4 0.410840 0.002122 0.512676
O O5 0.729776 0.384776 0.399898
O O6 0.861435 0.359534 0.507417
O O7 0.762200 0.246258 0.461894
O O8 0.819079 0.319894 0.229684
O O9 0.395452 0.395452 0.750000
O O10 0.416362 0.389840 0.469847
O O11 0.517869 0.325540 0.656668
O O12 0.340091 0.340091 0.250000
O O13 0.374546 0.269858 0.995101
#
# Coordination Sequence:
#
# PCOD9557659 Si02
#       6
#     8   8   8   8   8   8
#     4  11  22  36  57  82 109 141 179 226 274 336
#     4  10  20  38  55  72 105 139 173 222 273 325
#     4  11  21  37  45  66  93 133 173 227 278 315
#     4  11  22  36  58  81 110 140 180 224 279 330
#     4  11  23  31  51  66  93 128 180 226 272 323
#     4  10  21  37  53  75 104 137 177 220 271 326
#
# _framework density 16.941686000000001
#
# number of rings (size 3 to 8) (size 9 to 14) (size 15 to 20)
#    0.000    1.333    3.333    6.000    4.667    2.000 
#    0.000    0.000    0.000    0.000    0.000    0.000 
#    0.000    0.667    0.000    7.000    0.000    3.000 
#
# Total GULP energy -267691.990339 kJ/mol
# GULP energy per Si atom -5576.916465 kJ/mol
# Density = 1.690313 g / cm^3
# Si number density = 16.941686 Si / 1000 Ang^3
#
#
#
# Elastic Constant Matrix: (Units=GPa)
#
#
# Indices 1 2 3 4 5 6 
#
# 1 50.6790 10.7358 36.0314 0.0000 0.0000 0.0000
# 2 10.7358 50.6790 36.0314 0.0000 0.0000 0.0000
# 3 36.0314 36.0314 124.8045 0.0000 0.0000 0.0000
# 4 0.0000 0.0000 0.0000 24.8853 0.0000 0.0000
# 5 0.0000 0.0000 0.0000 0.0000 24.8853 0.0000
# 6 0.0000 0.0000 0.0000 0.0000 0.0000 23.0368
#
#
#
# Elastic Compliance Matrix: (Units=1/GPa)
#
#
# Indices 1 2 3 4 5 6 
#
# 1 0.024830 -0.000206 -0.007109 0.000000 0.000000 0.000000
# 2 -0.000206 0.024830 -0.007109 0.000000 0.000000 0.000000
# 3 -0.007109 -0.007109 0.012117 0.000000 0.000000 0.000000
# 4 0.000000 0.000000 0.000000 0.040184 0.000000 0.000000
# 5 0.000000 0.000000 0.000000 0.000000 0.040184 0.000000
# 6 0.000000 0.000000 0.000000 0.000000 0.000000 0.043409
#
#
# Mechanical properties :
#
#
# Convention : Reuss Voigt Hill
#
# Bulk Modulus (GPa) = 30.36777 43.52889 36.94833
# Shear Modulus (GPa) = 22.18484 24.11908 23.15196
#
# Velocity S-wave (km/s) = 3.62260 3.77723 3.70072
# Velocity P-wave (km/s) = 5.95495 6.69122 6.33379
#
# Compressibility (1/GPa) = 0.03292965
#
# Stress axis : x y z
#
# Youngs Moduli (GPa) = 40.27390 40.27390 82.52602
#
# Poissons Ratio (x) = 0.00828 0.58669
# Poissons Ratio (y) = 0.00828 0.58669
# Poissons Ratio (z) = 0.28631 0.28631
#
# Static dielectric constant tensor:
#      x y z
#    x 1.587900 0.000000 0.000000 
#    y 0.000000 1.587900 0.000000 
#    z 0.000000 0.000000 1.609430 
# 
# From -- ./inp_files/948.got.cif
#   From: 2010.05.17/outbox.cif.g08.bks.cpg/sg116_1_cif.got.tgz:948.got - 2010.05.20 11:11:43.
