data_PCOD9557518
_publ_section_title
;
Structure prediction by ZEFSAII (Michael W. Deem and Ramdas Pophale) SiO2 
 PCOD9557518
Probable space group: P -4 C 2
;
_chemical_formula_sum "Si O2"
_cell_formula_units_Z 56
_cell_length_a 25.067709
_cell_length_b 25.067709
_cell_length_c 5.313460
_cell_angle_alpha 90.000000
_cell_angle_beta 90.000000
_cell_angle_gamma 90.000000
_cell_volume 3338.925313
_symmetry_space_group_name_H-M "P -4 C 2"
_symmetry_group_IT_number 116
_symmetry_cell_setting 'tetragonal'
loop_
_space_group_symop_operation_xyz
x,y,z
y,-x,-z
-x,-y,z
-y,x,-z
y,x,1/2-z
-y,-x,1/2-z
-x,y,1/2+z
x,-y,1/2+z
loop_
_atom_site_type_symbol
_atom_site_label
_atom_site_fract_x
_atom_site_fract_y
_atom_site_fract_z
Si Si1 0.280250 0.638404 0.303914
Si Si2 0.233787 0.312496 0.305124
Si Si3 0.534949 0.790113 0.780250
Si Si4 0.251346 0.018657 0.187180
Si Si5 0.355814 0.057208 0.674174
Si Si6 0.084543 0.465615 0.715566
Si Si7 0.110085 0.322024 0.314830
O O1 0.341498 0.658503 0.250000
O O2 0.264992 0.653548 0.590855
O O3 0.255162 0.580038 0.255515
O O4 0.249476 0.672443 0.089148
O O5 0.252672 0.252672 0.250000
O O6 0.172018 0.321086 0.271523
O O7 0.493410 0.784263 0.550327
O O8 0.553781 0.852630 0.770622
O O9 0.309558 0.987648 0.159265
O O10 0.223932 0.992934 0.425313
O O11 0.265901 0.079896 0.227359
O O12 0.415817 0.044642 0.754588
O O13 0.359028 0.084645 0.401384
O O14 0.336977 0.095989 0.899515
O O15 0.077738 0.494778 0.450190
#
# Coordination Sequence:
#
# PCOD9557518 Si02
#       7
#     8   8   8   8   8   8   8
#     4  10  20  33  47  66  91 112 132 164 201 239
#     4  10  19  29  44  66  88 111 137 164 206 259
#     4  10  19  30  45  65  87 110 139 165 194 243
#     4   8  16  27  41  57  71  93 130 170 203 234
#     4  10  18  29  44  58  74 100 137 170 204 239
#     4  10  19  28  40  58  78 102 130 165 204 238
#     4  10  17  28  45  58  75 101 129 166 205 240
#
# _framework density 16.771863
#
# number of rings (size 3 to 8) (size 9 to 14) (size 15 to 20)
#    0.000    2.286    0.000    4.286    0.000    2.286 
#    0.000    0.000    0.000   23.143    0.000    0.000 
#    0.000    1.714    0.000    0.000    0.000    0.000 
#
# Total GULP energy -311770.727360 kJ/mol
# GULP energy per Si atom -5567.334417 kJ/mol
# Density = 1.673369 g / cm^3
# Si number density = 16.771863 Si / 1000 Ang^3
#
#
#
# Elastic Constant Matrix: (Units=GPa)
#
#
# Indices 1 2 3 4 5 6 
#
# 1 22.3086 10.0828 -1.4458 0.0000 0.0000 0.0000
# 2 10.0828 22.3107 -1.4456 0.0000 0.0000 0.0000
# 3 -1.4458 -1.4456 74.0770 0.0000 0.0000 0.0000
# 4 0.0000 0.0000 0.0000 15.1081 0.0000 0.0000
# 5 0.0000 0.0000 0.0000 0.0000 15.1079 0.0000
# 6 0.0000 0.0000 0.0000 0.0000 0.0000 -1.2304
#
#
#
# Elastic Compliance Matrix: (Units=1/GPa)
#
#
# Indices 1 2 3 4 5 6 
#
# 1 0.056359 -0.025431 0.000604 0.000000 0.000000 0.000000
# 2 -0.025431 0.056354 0.000603 0.000000 0.000000 0.000000
# 3 0.000604 0.000603 0.013523 0.000000 0.000000 0.000000
# 4 0.000000 0.000000 0.000000 0.066189 0.000000 0.000000
# 5 0.000000 0.000000 0.000000 0.000000 0.066191 0.000000
# 6 0.000000 0.000000 0.000000 0.000000 0.000000 -0.812741
#
#
# Mechanical properties :
#
#
# Convention : Reuss Voigt Hill
#
# Bulk Modulus (GPa) = 12.85550 14.78658 13.82104
# Shear Modulus (GPa) = -10.42214 13.23077 1.40432
#
# Velocity S-wave (km/s) = -2.49551 2.81173 0.91604
# Velocity P-wave (km/s) = 0.78857 4.40188 3.06224
#
# Compressibility (1/GPa) = 0.07778770
#
# Stress axis : x y z
#
# Youngs Moduli (GPa) = 17.74341 17.74510 73.94799
#
# Poissons Ratio (x) = 0.45128 -0.04464
# Poissons Ratio (y) = 0.45123 -0.04462
# Poissons Ratio (z) = -0.01071 -0.01071
#
# Static dielectric constant tensor:
#      x y z
#    x 1.600510 0.000000 0.000000 
#    y 0.000000 1.600500 0.000000 
#    z 0.000000 0.000000 1.617870 
# 
# From -- ./inp_files/243.got.cif
#   From: 2010.05.17/outbox.cif.g08.bks.cpg/sg116_1_cif.got.tgz:243.got - 2010.05.20 11:11:43.
