data_PCOD9557532
_publ_section_title
;
Structure prediction by ZEFSAII (Michael W. Deem and Ramdas Pophale) SiO2 
 PCOD9557532
Probable space group: P -4 C 2
;
_chemical_formula_sum "Si O2"
_cell_formula_units_Z 30
_cell_length_a 7.305674
_cell_length_b 7.305674
_cell_length_c 20.383419
_cell_angle_alpha 90.000000
_cell_angle_beta 90.000000
_cell_angle_gamma 90.000000
_cell_volume 1087.921625
_symmetry_space_group_name_H-M "P -4 C 2"
_symmetry_group_IT_number 116
_symmetry_cell_setting 'tetragonal'
loop_
_space_group_symop_operation_xyz
x,y,z
y,-x,-z
-x,-y,z
-y,x,-z
y,x,1/2-z
-y,-x,1/2-z
-x,y,1/2+z
x,-y,1/2+z
loop_
_atom_site_type_symbol
_atom_site_label
_atom_site_fract_x
_atom_site_fract_y
_atom_site_fract_z
Si Si1 0.662295 0.161798 0.798443
Si Si2 0.741312 0.867527 0.577042
Si Si3 0.000000 0.000000 0.750000
Si Si4 0.000000 0.500000 0.806948
Si Si5 0.867159 0.291306 0.562515
O O1 0.829389 0.015023 0.796816
O O2 0.643015 0.194105 0.714578
O O3 0.610708 0.210532 0.872826
O O4 0.500000 0.000000 0.777882
O O5 0.631892 0.824276 0.509567
O O6 0.915308 0.734744 0.573588
O O7 0.634339 0.884273 0.645486
O O8 0.801912 0.079259 0.565391
#
# Coordination Sequence:
#
# PCOD9557532 Si02
#       5
#     8   8   2   4   8
#     4  10  18  29  50  72 108 131 162 208 264 301
#     4   9  18  29  52  75 103 129 174 205 267 313
#     4   8  16  32  52  70 102 138 156 206 260 320
#     4  12  20  26  44  84 108 130 166 222 254 308
#     4   9  16  34  50  69 102 143 159 212 263 319
#
# _framework density 27.575517000000001
#
# number of rings (size 3 to 8) (size 9 to 14) (size 15 to 20)
#    0.800    1.600    2.667    4.800    0.000    1.067 
#    0.000    0.000    0.000    0.000    0.000    8.400 
#    0.000    0.000    0.000    0.000    0.000    0.000 
#
# Total GULP energy -167026.127292 kJ/mol
# GULP energy per Si atom -5567.537576 kJ/mol
# Density = 2.751275 g / cm^3
# Si number density = 27.575517 Si / 1000 Ang^3
#
#
#
# Elastic Constant Matrix: (Units=GPa)
#
#
# Indices 1 2 3 4 5 6 
#
# 1 105.6711 4.1004 23.7612 0.0000 0.0000 0.0000
# 2 4.1004 105.6711 23.7612 0.0000 0.0000 0.0000
# 3 23.7612 23.7612 281.9738 0.0000 0.0000 0.0000
# 4 0.0000 0.0000 0.0000 -52.9421 0.0000 0.0000
# 5 0.0000 0.0000 0.0000 0.0000 -52.9421 0.0000
# 6 0.0000 0.0000 0.0000 0.0000 0.0000 28.7482
#
#
#
# Elastic Compliance Matrix: (Units=1/GPa)
#
#
# Indices 1 2 3 4 5 6 
#
# 1 0.009650 -0.000195 -0.000797 0.000000 0.000000 0.000000
# 2 -0.000195 0.009650 -0.000797 0.000000 0.000000 0.000000
# 3 -0.000797 -0.000797 0.003681 0.000000 0.000000 0.000000
# 4 0.000000 0.000000 0.000000 -0.018889 0.000000 0.000000
# 5 0.000000 0.000000 0.000000 0.000000 -0.018889 0.000000
# 6 0.000000 0.000000 0.000000 0.000000 0.000000 0.034785
#
#
# Mechanical properties :
#
#
# Convention : Reuss Voigt Hill
#
# Bulk Modulus (GPa) = 51.53764 66.28464 58.91114
# Shear Modulus (GPa) = 166.47911 14.01900 90.24906
#
# Velocity S-wave (km/s) = 7.77838 2.25719 5.72704
# Velocity P-wave (km/s) = 9.97001 5.55724 8.07106
#
# Compressibility (1/GPa) = 0.01940329
#
# Stress axis : x y z
#
# Youngs Moduli (GPa) = 103.62635 103.62635 271.68709
#
# Poissons Ratio (x) = 0.02024 0.21646
# Poissons Ratio (y) = 0.02024 0.21646
# Poissons Ratio (z) = 0.08256 0.08256
#
# Static dielectric constant tensor:
#      x y z
#    x 2.336180 0.000000 0.000000 
#    y 0.000000 2.336180 0.000000 
#    z 0.000000 0.000000 2.347560 
# 
# From -- ./inp_files/3711.got.cif
#   From: 2010.05.17/outbox.cif.g08.bks.cpg/sg116_2_cif.got.tgz:3711.got - 2010.05.20 11:11:43.
