data_PCOD9557036
_publ_section_title
;
Structure prediction by ZEFSAII (Michael W. Deem and Ramdas Pophale) SiO2 
 PCOD9557036
Probable space group: P -4 M 2
;
_chemical_formula_sum "Si O2"
_cell_formula_units_Z 40
_cell_length_a 7.962577
_cell_length_b 7.962577
_cell_length_c 30.467453
_cell_angle_alpha 90.000000
_cell_angle_beta 90.000000
_cell_angle_gamma 90.000000
_cell_volume 1931.716725
_symmetry_space_group_name_H-M "P -4 M 2"
_symmetry_group_IT_number 115
_symmetry_cell_setting 'tetragonal'
loop_
_space_group_symop_operation_xyz
x,y,z
y,-x,-z
-x,-y,z
-y,x,-z
y,x,-z
-y,-x,-z
-x,y,z
x,-y,z
loop_
_atom_site_type_symbol
_atom_site_label
_atom_site_fract_x
_atom_site_fract_y
_atom_site_fract_z
Si Si1 0.706170 0.194577 0.858039
Si Si2 0.797333 0.500000 0.695642
Si Si3 0.500000 0.297447 0.202985
Si Si4 0.687635 0.199834 0.953189
Si Si5 0.818821 0.201326 0.358030
Si Si6 0.703210 0.305361 0.547931
O O1 0.500000 0.193784 0.859754
O O2 0.759417 0.331033 0.822227
O O3 0.764760 0.253978 0.906666
O O4 0.757000 0.000000 0.849732
O O5 0.754625 0.500000 0.746595
O O6 0.731816 0.664367 0.670377
O O7 0.000000 0.500000 0.691598
O O8 0.500000 0.500000 0.200986
O O9 0.500000 0.272225 0.956094
O O10 0.675905 0.000000 0.947819
O O11 0.769932 0.230069 0.000000
O O12 0.791092 0.238068 0.409312
O O13 0.000000 0.268092 0.343990
O O14 0.820097 0.000000 0.352895
O O15 0.758719 0.241282 0.500000
O O16 0.500000 0.303921 0.546764
O O17 0.757416 0.500000 0.552784
#
# Coordination Sequence:
#
# PCOD9557036 Si02
#       6
#     8   4   4   8   8   8
#     4   8  16  32  51  75 109 138 170 224 278 326
#     4  10  22  40  56  76 110 144 176 236 296 329
#     4  10  20  34  58  82 100 136 186 226 278 339
#     4   9  18  31  48  73 104 138 174 213 258 314
#     4  10  21  37  57  79 106 146 190 229 277 340
#     4   9  18  33  54  81 114 149 182 222 273 327
#
# _framework density 20.706968
#
# number of rings (size 3 to 8) (size 9 to 14) (size 15 to 20)
#    0.000    2.800    1.000    1.800    1.400    3.200 
#    0.000    4.000    0.000    1.200    0.000    0.000 
#    0.000    0.000    0.000    0.000    0.000    0.000 
#
# Total GULP energy -223041.178342 kJ/mol
# GULP energy per Si atom -5576.029459 kJ/mol
# Density = 2.065984 g / cm^3
# Si number density = 20.706968 Si / 1000 Ang^3
#
#
#
# Elastic Constant Matrix: (Units=GPa)
#
#
# Indices 1 2 3 4 5 6 
#
# 1 61.5439 23.8360 49.9045 0.0000 0.0000 0.0000
# 2 23.8360 61.5443 49.9048 0.0000 0.0000 0.0000
# 3 49.9045 49.9048 175.4804 0.0000 0.0000 0.0000
# 4 0.0000 0.0000 0.0000 82.6725 0.0000 0.0000
# 5 0.0000 0.0000 0.0000 0.0000 82.6684 0.0000
# 6 0.0000 0.0000 0.0000 0.0000 0.0000 6.9211
#
#
#
# Elastic Compliance Matrix: (Units=1/GPa)
#
#
# Indices 1 2 3 4 5 6 
#
# 1 0.022032 -0.004487 -0.004990 0.000000 0.000000 0.000000
# 2 -0.004487 0.022032 -0.004990 0.000000 0.000000 0.000000
# 3 -0.004990 -0.004990 0.008537 0.000000 0.000000 0.000000
# 4 0.000000 0.000000 0.000000 0.012096 0.000000 0.000000
# 5 0.000000 0.000000 0.000000 0.000000 0.012097 0.000000
# 6 0.000000 0.000000 0.000000 0.000000 0.000000 0.144486
#
#
# Mechanical properties :
#
#
# Convention : Reuss Voigt Hill
#
# Bulk Modulus (GPa) = 42.25030 60.65102 51.45066
# Shear Modulus (GPa) = 19.37216 46.11396 32.74306
#
# Velocity S-wave (km/s) = 3.06198 4.72421 3.98082
# Velocity P-wave (km/s) = 5.74013 7.68838 6.78455
#
# Compressibility (1/GPa) = 0.02366847
#
# Stress axis : x y z
#
# Youngs Moduli (GPa) = 45.38764 45.38789 117.14199
#
# Poissons Ratio (x) = 0.20366 0.58450
# Poissons Ratio (y) = 0.20366 0.58450
# Poissons Ratio (z) = 0.22647 0.22647
#
# Static dielectric constant tensor:
#      x y z
#    x 1.755710 0.000000 0.000000 
#    y 0.000000 1.755710 0.000000 
#    z 0.000000 0.000000 1.725920 
# 
# From -- ./inp_files/5501.got.cif
#   From: 2010.05.17/outbox.cif.g08.bks.cpg/sg115_3_cif.got.tgz:5501.got - 2010.05.20 11:07:42.
