data_PCOD9557342
_publ_section_title
;
Structure prediction by ZEFSAII (Michael W. Deem and Ramdas Pophale) SiO2 
 PCOD9557342
Probable space group: P -4 M 2
;
_chemical_formula_sum "Si O2"
_cell_formula_units_Z 56
_cell_length_a 15.106197
_cell_length_b 15.106197
_cell_length_c 11.973931
_cell_angle_alpha 90.000000
_cell_angle_beta 90.000000
_cell_angle_gamma 90.000000
_cell_volume 2732.417381
_symmetry_space_group_name_H-M "P -4 M 2"
_symmetry_group_IT_number 115
_symmetry_cell_setting 'tetragonal'
loop_
_space_group_symop_operation_xyz
x,y,z
y,-x,-z
-x,-y,z
-y,x,-z
y,x,-z
-y,-x,-z
-x,y,z
x,-y,z
loop_
_atom_site_type_symbol
_atom_site_label
_atom_site_fract_x
_atom_site_fract_y
_atom_site_fract_z
Si Si1 0.900219 0.403179 0.487343
Si Si2 0.840694 0.721007 0.066161
Si Si3 0.658379 0.775528 0.701047
Si Si4 0.100867 0.097591 0.180816
Si Si5 0.605641 0.598287 0.624014
Si Si6 0.397140 0.897612 0.134227
Si Si7 0.266195 0.852713 0.324458
O O1 0.889004 0.500000 0.544306
O O2 0.831610 0.397585 0.386269
O O3 0.889958 0.322169 0.572959
O O4 0.000000 0.399458 0.442232
O O5 0.819357 0.668406 0.178687
O O6 0.884260 0.814405 0.106175
O O7 0.753237 0.753237 0.000000
O O8 0.891940 0.658106 0.980726
O O9 0.627386 0.674511 0.710004
O O10 0.755975 0.769361 0.648954
O O11 0.179916 0.099679 0.272268
O O12 0.000000 0.102800 0.225404
O O13 0.108447 0.000000 0.124039
O O14 0.631765 0.631765 0.500000
O O15 0.500000 0.590573 0.617410
O O16 0.642782 0.500000 0.644727
O O17 0.500000 0.869788 0.123555
O O18 0.338482 0.845980 0.224738
O O19 0.396834 0.000000 0.172040
#
# Coordination Sequence:
#
# PCOD9557342 Si02
#       7
#     8   8   8   8   8   8   8
#     4  11  24  41  64  94 129 173 218 263 320 386
#     4  11  23  43  60  89 128 167 214 270 326 391
#     4  11  23  38  61  89 124 163 205 261 320 380
#     4  10  21  37  64  98 129 167 215 268 326 390
#     4   9  18  34  58  88 119 152 196 252 311 374
#     4  11  23  40  64  91 121 166 221 274 327 387
#     4  11  22  40  62  92 132 167 214 266 322 385
#
# _framework density 20.494674
#
# number of rings (size 3 to 8) (size 9 to 14) (size 15 to 20)
#    0.000    1.429    2.857    4.286    0.000    8.000 
#    0.000    2.143    0.000    0.857    0.000    9.000 
#    0.000    0.000    0.000    0.000    0.000    0.000 
#
# Total GULP energy -312336.287364 kJ/mol
# GULP energy per Si atom -5577.433703 kJ/mol
# Density = 2.044803 g / cm^3
# Si number density = 20.494674 Si / 1000 Ang^3
#
#
#
# Elastic Constant Matrix: (Units=GPa)
#
#
# Indices 1 2 3 4 5 6 
#
# 1 94.5082 24.6544 33.3527 0.0000 0.0000 0.0000
# 2 24.6544 94.5082 33.3527 0.0000 0.0000 0.0000
# 3 33.3527 33.3527 74.4121 0.0000 0.0000 0.0000
# 4 0.0000 0.0000 0.0000 21.4581 0.0000 0.0000
# 5 0.0000 0.0000 0.0000 0.0000 21.4581 0.0000
# 6 0.0000 0.0000 0.0000 0.0000 0.0000 28.7986
#
#
#
# Elastic Compliance Matrix: (Units=1/GPa)
#
#
# Indices 1 2 3 4 5 6 
#
# 1 0.012759 -0.001556 -0.005021 0.000000 0.000000 0.000000
# 2 -0.001556 0.012759 -0.005021 0.000000 0.000000 0.000000
# 3 -0.005021 -0.005021 0.017940 0.000000 0.000000 0.000000
# 4 0.000000 0.000000 0.000000 0.046602 0.000000 0.000000
# 5 0.000000 0.000000 0.000000 0.000000 0.046602 0.000000
# 6 0.000000 0.000000 0.000000 0.000000 0.000000 0.034724
#
#
# Mechanical properties :
#
#
# Convention : Reuss Voigt Hill
#
# Bulk Modulus (GPa) = 49.35749 49.57201 49.46475
# Shear Modulus (GPa) = 24.83384 25.81422 25.32403
#
# Velocity S-wave (km/s) = 3.48476 3.55287 3.51898
# Velocity P-wave (km/s) = 6.35033 6.40865 6.37956
#
# Compressibility (1/GPa) = 0.02026035
#
# Stress axis : x y z
#
# Youngs Moduli (GPa) = 78.37511 78.37511 55.74174
#
# Poissons Ratio (x) = 0.12199 0.27989
# Poissons Ratio (y) = 0.12199 0.27989
# Poissons Ratio (z) = 0.39354 0.39354
#
# Static dielectric constant tensor:
#      x y z
#    x 1.762130 0.000000 0.000000 
#    y 0.000000 1.762130 0.000000 
#    z 0.000000 0.000000 1.728590 
# 
# From -- ./inp_files/3088.got.cif
#   From: 2010.05.17/outbox.cif.g08.bks.cpg/sg115_2_cif.got.tgz:3088.got - 2010.05.20 11:07:42.
