data_PCOD9557870
_publ_section_title
;
Structure prediction by ZEFSAII (Michael W. Deem and Ramdas Pophale) SiO2 
 PCOD9557870
Probable space group: P -4 C 2
;
_chemical_formula_sum "Si O2"
_cell_formula_units_Z 40
_cell_length_a 13.773568
_cell_length_b 13.773568
_cell_length_c 9.457436
_cell_angle_alpha 90.000000
_cell_angle_beta 90.000000
_cell_angle_gamma 90.000000
_cell_volume 1794.181300
_symmetry_space_group_name_H-M "P -4 C 2"
_symmetry_group_IT_number 116
_symmetry_cell_setting 'tetragonal'
loop_
_space_group_symop_operation_xyz
x,y,z
y,-x,-z
-x,-y,z
-y,x,-z
y,x,1/2-z
-y,-x,1/2-z
-x,y,1/2+z
x,-y,1/2+z
loop_
_atom_site_type_symbol
_atom_site_label
_atom_site_fract_x
_atom_site_fract_y
_atom_site_fract_z
Si Si1 0.500000 0.500000 0.000000
Si Si2 0.463136 0.817420 0.665103
Si Si3 0.214038 0.020790 0.984212
Si Si4 0.000000 0.000000 0.500000
Si Si5 0.575839 0.090423 0.384244
Si Si6 0.603545 0.603545 0.250000
Si Si7 0.883964 0.266287 0.730825
O O1 0.543581 0.422657 0.891224
O O2 0.459985 0.831108 0.498709
O O3 0.560022 0.861611 0.731851
O O4 0.430511 0.711591 0.711465
O O5 0.378177 0.885940 0.730071
O O6 0.309855 0.072925 0.916864
O O7 0.240525 0.913995 0.927748
O O8 0.215950 0.047659 0.150001
O O9 0.102688 0.034822 0.931203
O O10 0.500000 0.000000 0.405778
O O11 0.778054 0.221947 0.750000
#
# Coordination Sequence:
#
# PCOD9557870 Si02
#       7
#     2   8   8   2   8   4   8
#     4  10  24  42  68  90 128 166 216 262 340 430
#     4  11  23  39  69  94 132 170 221 285 352 404
#     4  11  25  39  67  92 132 178 233 267 346 404
#     4  12  24  46  64  94 140 190 212 286 332 426
#     4  11  23  41  66  99 129 176 230 289 337 410
#     4  11  22  44  66  98 130 173 214 280 354 427
#     4  11  22  42  61  94 126 175 223 281 336 415
#
# _framework density 22.294291000000001
#
# number of rings (size 3 to 8) (size 9 to 14) (size 15 to 20)
#    0.000    1.000    5.000    1.800    2.800    1.600 
#    0.000    0.000    0.000    0.000    0.000    0.000 
#    0.000    0.000    0.000    0.000    0.000    0.000 
#
# Total GULP energy -222683.834813 kJ/mol
# GULP energy per Si atom -5567.095870 kJ/mol
# Density = 2.224355 g / cm^3
# Si number density = 22.294291 Si / 1000 Ang^3
#
#
#
# Elastic Constant Matrix: (Units=GPa)
#
#
# Indices 1 2 3 4 5 6 
#
# 1 72.6578 21.2400 12.3320 0.0000 0.0000 0.0000
# 2 21.2400 72.6554 12.3317 0.0000 0.0000 0.0000
# 3 12.3320 12.3317 50.2055 0.0000 0.0000 0.0000
# 4 0.0000 0.0000 0.0000 -60.7922 0.0000 0.0000
# 5 0.0000 0.0000 0.0000 0.0000 -60.7633 0.0000
# 6 0.0000 0.0000 0.0000 0.0000 0.0000 21.6978
#
#
#
# Elastic Compliance Matrix: (Units=1/GPa)
#
#
# Indices 1 2 3 4 5 6 
#
# 1 0.015416 -0.004032 -0.002796 0.000000 0.000000 0.000000
# 2 -0.004032 0.015417 -0.002796 0.000000 0.000000 0.000000
# 3 -0.002796 -0.002796 0.021292 0.000000 0.000000 0.000000
# 4 0.000000 0.000000 0.000000 -0.016449 0.000000 0.000000
# 5 0.000000 0.000000 0.000000 0.000000 -0.016457 0.000000
# 6 0.000000 0.000000 0.000000 0.000000 0.000000 0.046088
#
#
# Mechanical properties :
#
#
# Convention : Reuss Voigt Hill
#
# Bulk Modulus (GPa) = 30.41781 31.92514 31.17148
# Shear Modulus (GPa) = 52.34802 -9.99720 21.17541
#
# Velocity S-wave (km/s) = 4.85092 -2.11989 3.08525
# Velocity P-wave (km/s) = 6.71183 2.89120 5.16758
#
# Compressibility (1/GPa) = 0.03287548
#
# Stress axis : x y z
#
# Youngs Moduli (GPa) = 64.86558 64.86344 46.96632
#
# Poissons Ratio (x) = 0.26154 0.13133
# Poissons Ratio (y) = 0.26155 0.13133
# Poissons Ratio (z) = 0.18139 0.18138
#
# Static dielectric constant tensor:
#      x y z
#    x 1.883740 0.000000 0.000000 
#    y 0.000000 1.883750 0.000000 
#    z 0.000000 0.000000 1.795060 
# 
# From -- ./inp_files/875.got.cif
#   From: 2010.05.17/outbox.cif.g08.bks.cpg/sg116_1_cif.got.tgz:875.got - 2010.05.20 11:11:43.
