data_PCOD9557082
_publ_section_title
;
Structure prediction by ZEFSAII (Michael W. Deem and Ramdas Pophale) SiO2 
 PCOD9557082
Probable space group: P -4 M 2
;
_chemical_formula_sum "Si O2"
_cell_formula_units_Z 24
_cell_length_a 7.829762
_cell_length_b 7.829762
_cell_length_c 19.609673
_cell_angle_alpha 90.000000
_cell_angle_beta 90.000000
_cell_angle_gamma 90.000000
_cell_volume 1202.174395
_symmetry_space_group_name_H-M "P -4 M 2"
_symmetry_group_IT_number 115
_symmetry_cell_setting 'tetragonal'
loop_
_space_group_symop_operation_xyz
x,y,z
y,-x,-z
-x,-y,z
-y,x,-z
y,x,-z
-y,-x,-z
-x,y,z
x,-y,z
loop_
_atom_site_type_symbol
_atom_site_label
_atom_site_fract_x
_atom_site_fract_y
_atom_site_fract_z
Si Si1 0.800540 0.000000 0.823828
Si Si2 0.695131 0.294264 0.076073
Si Si3 0.000000 0.701280 0.331322
Si Si4 0.305915 0.708598 0.422960
O O1 0.755250 0.167840 0.867558
O O2 0.717585 0.000000 0.749583
O O3 0.000000 0.000000 0.811822
O O4 0.500000 0.232094 0.087829
O O5 0.687071 0.500000 0.074213
O O6 0.756016 0.243985 0.000000
O O7 0.829530 0.770658 0.367473
O O8 0.000000 0.500000 0.347240
O O9 0.249046 0.750955 0.500000
O O10 0.500000 0.768940 0.411609
O O11 0.312839 0.500000 0.421351
#
# Coordination Sequence:
#
# PCOD9557082 Si02
#       4
#     4   8   4   8
#     4  12  26  38  54  86 130 161 192 234 299 364
#     4   9  20  40  65  89 111 148 204 253 294 346
#     4  10  20  36  56  80 110 153 198 234 285 350
#     4   8  15  31  56  83 108 140 190 245 291 339
#
# _framework density 19.963826999999998
#
# number of rings (size 3 to 8) (size 9 to 14) (size 15 to 20)
#    0.000    2.667    0.000    3.500    2.333    2.000 
#    3.000    3.333    0.000    0.000    0.000    0.000 
#    0.000    0.000    0.000    0.000    0.000    0.000 
#
# Total GULP energy -133901.871565 kJ/mol
# GULP energy per Si atom -5579.244649 kJ/mol
# Density = 1.991839 g / cm^3
# Si number density = 19.963827 Si / 1000 Ang^3
#
#
#
# Elastic Constant Matrix: (Units=GPa)
#
#
# Indices 1 2 3 4 5 6 
#
# 1 62.2796 22.1023 41.7232 0.0000 0.0000 0.0000
# 2 22.1023 62.2795 41.7231 0.0000 0.0000 0.0000
# 3 41.7232 41.7231 111.9884 0.0000 0.0000 0.0000
# 4 0.0000 0.0000 0.0000 37.0339 0.0000 0.0000
# 5 0.0000 0.0000 0.0000 0.0000 37.0328 0.0000
# 6 0.0000 0.0000 0.0000 0.0000 0.0000 11.3332
#
#
#
# Elastic Compliance Matrix: (Units=1/GPa)
#
#
# Indices 1 2 3 4 5 6 
#
# 1 0.021827 -0.003063 -0.006991 0.000000 0.000000 0.000000
# 2 -0.003063 0.021827 -0.006991 0.000000 0.000000 0.000000
# 3 -0.006991 -0.006991 0.014139 0.000000 0.000000 0.000000
# 4 0.000000 0.000000 0.000000 0.027002 0.000000 0.000000
# 5 0.000000 0.000000 0.000000 0.000000 0.027003 0.000000
# 6 0.000000 0.000000 0.000000 0.000000 0.000000 0.088236
#
#
# Mechanical properties :
#
#
# Convention : Reuss Voigt Hill
#
# Bulk Modulus (GPa) = 42.18787 49.73832 45.96309
# Shear Modulus (GPa) = 20.65905 25.81326 23.23615
#
# Velocity S-wave (km/s) = 3.22036 3.59973 3.41532
# Velocity P-wave (km/s) = 5.91656 6.49967 6.21496
#
# Compressibility (1/GPa) = 0.02370350
#
# Stress axis : x y z
#
# Youngs Moduli (GPa) = 45.81482 45.81475 70.72791
#
# Poissons Ratio (x) = 0.14032 0.49446
# Poissons Ratio (y) = 0.14032 0.49446
# Poissons Ratio (z) = 0.32029 0.32029
#
# Static dielectric constant tensor:
#      x y z
#    x 1.749300 0.000000 0.000000 
#    y 0.000000 1.749300 0.000000 
#    z 0.000000 0.000000 1.721570 
# 
# From -- ./inp_files/3964.got.cif
#   From: 2010.05.17/outbox.cif.g08.bks.cpg/sg115_2_cif.got.tgz:3964.got - 2010.05.20 11:07:42.
