data_PCOD9557254
_publ_section_title
;
Structure prediction by ZEFSAII (Michael W. Deem and Ramdas Pophale) SiO2 
 PCOD9557254
Probable space group: P -4 M 2
;
_chemical_formula_sum "Si O2"
_cell_formula_units_Z 44
_cell_length_a 9.134749
_cell_length_b 9.134749
_cell_length_c 29.089131
_cell_angle_alpha 90.000000
_cell_angle_beta 90.000000
_cell_angle_gamma 90.000000
_cell_volume 2427.302955
_symmetry_space_group_name_H-M "P -4 M 2"
_symmetry_group_IT_number 115
_symmetry_cell_setting 'tetragonal'
loop_
_space_group_symop_operation_xyz
x,y,z
y,-x,-z
-x,-y,z
-y,x,-z
y,x,-z
-y,-x,-z
-x,y,z
x,-y,z
loop_
_atom_site_type_symbol
_atom_site_label
_atom_site_fract_x
_atom_site_fract_y
_atom_site_fract_z
Si Si1 0.325854 0.325854 0.500000
Si Si2 0.825830 0.826445 0.688360
Si Si3 0.173486 0.675180 0.130045
Si Si4 0.825509 0.674106 0.956419
Si Si5 0.327629 0.824742 0.593886
Si Si6 0.324887 0.328106 0.774078
O O1 0.300993 0.500000 0.504192
O O2 0.248648 0.275190 0.453279
O O3 0.758446 0.779081 0.639498
O O4 0.755669 0.739219 0.730338
O O5 0.000000 0.808790 0.687860
O O6 0.792616 0.000000 0.693927
O O7 0.194379 0.500000 0.123430
O O8 0.253552 0.760712 0.089455
O O9 0.242431 0.714539 0.179319
O O10 0.000000 0.704204 0.129595
O O11 0.797984 0.500000 0.956316
O O12 0.000000 0.697170 0.959033
O O13 0.747895 0.747895 0.000000
O O14 0.500000 0.789275 0.599732
O O15 0.314614 0.000000 0.589457
O O16 0.500000 0.312269 0.767654
O O17 0.292126 0.500000 0.779230
#
# Coordination Sequence:
#
# PCOD9557254 Si02
#       6
#     4   8   8   8   8   8
#     4   9  18  32  50  73 100 130 168 215 264 315
#     4  10  21  36  54  78 108 142 180 222 270 322
#     4  10  21  38  61  87 113 144 184 227 272 324
#     4  11  24  40  59  85 116 150 188 229 274 324
#     4   9  18  33  52  73 100 136 175 215 263 320
#     4  10  21  37  58  83 110 143 183 225 271 323
#
# _framework density 18.127116000000001
#
# number of rings (size 3 to 8) (size 9 to 14) (size 15 to 20)
#    0.000    2.091    0.000    2.727    0.000    9.091 
#    0.000    1.818    0.000    0.000    0.000    0.000 
#    0.000    0.000    0.000    0.000    0.000    0.000 
#
# Total GULP energy -245768.388117 kJ/mol
# GULP energy per Si atom -5585.645184 kJ/mol
# Density = 1.808586 g / cm^3
# Si number density = 18.127116 Si / 1000 Ang^3
#
#
#
# Elastic Constant Matrix: (Units=GPa)
#
#
# Indices 1 2 3 4 5 6 
#
# 1 78.1565 73.3922 94.4721 0.0000 0.0000 0.0000
# 2 73.3922 78.1565 94.4721 0.0000 0.0000 0.0000
# 3 94.4721 94.4721 209.3810 0.0000 0.0000 0.0000
# 4 0.0000 0.0000 0.0000 51.9168 0.0000 0.0000
# 5 0.0000 0.0000 0.0000 0.0000 51.9168 0.0000
# 6 0.0000 0.0000 0.0000 0.0000 0.0000 26.4072
#
#
#
# Elastic Compliance Matrix: (Units=1/GPa)
#
#
# Indices 1 2 3 4 5 6 
#
# 1 0.112489 -0.097406 -0.006806 0.000000 0.000000 0.000000
# 2 -0.097406 0.112489 -0.006806 0.000000 0.000000 0.000000
# 3 -0.006806 -0.006806 0.010917 0.000000 0.000000 0.000000
# 4 0.000000 0.000000 0.000000 0.019262 0.000000 0.000000
# 5 0.000000 0.000000 0.000000 0.000000 0.019262 0.000000
# 6 0.000000 0.000000 0.000000 0.000000 0.000000 0.037868
#
#
# Mechanical properties :
#
#
# Convention : Reuss Voigt Hill
#
# Bulk Modulus (GPa) = 72.14067 98.92964 85.53515
# Shear Modulus (GPa) = 9.27743 32.93866 21.10805
#
# Velocity S-wave (km/s) = 2.26475 4.26736 3.41610
# Velocity P-wave (km/s) = 6.83537 8.88676 7.92770
#
# Compressibility (1/GPa) = 0.01386181
#
# Stress axis : x y z
#
# Youngs Moduli (GPa) = 8.88973 8.88973 91.59747
#
# Poissons Ratio (x) = 0.86591 0.62338
# Poissons Ratio (y) = 0.86591 0.62338
# Poissons Ratio (z) = 0.06050 0.06050
#
# Static dielectric constant tensor:
#      x y z
#    x 1.606550 0.000000 0.000000 
#    y 0.000000 1.606550 0.000000 
#    z 0.000000 0.000000 1.587530 
# 
# From -- ./inp_files/5809.got.cif
#   From: 2010.05.17/outbox.cif.g08.bks.cpg/sg115_3_cif.got.tgz:5809.got - 2010.05.20 11:07:42.
