data_PCOD9557183
_publ_section_title
;
Structure prediction by ZEFSAII (Michael W. Deem and Ramdas Pophale) SiO2 
 PCOD9557183
Probable space group: P -4 M 2
;
_chemical_formula_sum "Si O2"
_cell_formula_units_Z 48
_cell_length_a 8.106491
_cell_length_b 8.106491
_cell_length_c 35.525852
_cell_angle_alpha 90.000000
_cell_angle_beta 90.000000
_cell_angle_gamma 90.000000
_cell_volume 2334.588339
_symmetry_space_group_name_H-M "P -4 M 2"
_symmetry_group_IT_number 115
_symmetry_cell_setting 'tetragonal'
loop_
_space_group_symop_operation_xyz
x,y,z
y,-x,-z
-x,-y,z
-y,x,-z
y,x,-z
-y,-x,-z
-x,y,z
x,-y,z
loop_
_atom_site_type_symbol
_atom_site_label
_atom_site_fract_x
_atom_site_fract_y
_atom_site_fract_z
Si Si1 0.802950 0.313590 0.539702
Si Si2 0.700178 0.500000 0.745765
Si Si3 0.307358 0.810691 0.960770
Si Si4 0.301043 0.196671 0.378893
Si Si5 0.500000 0.200157 0.167599
Si Si6 0.805385 0.189035 0.879871
Si Si7 0.695778 0.180876 0.700933
O O1 0.769442 0.230558 0.500000
O O2 0.737752 0.500000 0.536922
O O3 0.743823 0.242090 0.579751
O O4 0.000000 0.321909 0.543963
O O5 0.500000 0.500000 0.743210
O O6 0.750583 0.500000 0.789016
O O7 0.762581 0.335668 0.724529
O O8 0.500000 0.806667 0.951626
O O9 0.216372 0.753542 0.923157
O O10 0.255289 0.000000 0.967235
O O11 0.279430 0.720571 0.000000
O O12 0.500000 0.222098 0.377552
O O13 0.218332 0.278961 0.343120
O O14 0.272086 0.000000 0.375743
O O15 0.332714 0.261804 0.147074
O O16 0.500000 0.000000 0.164680
O O17 0.000000 0.176540 0.872286
O O18 0.737335 0.000000 0.876501
O O19 0.500000 0.175359 0.708109
O O20 0.765536 0.000000 0.710242
#
# Coordination Sequence:
#
# PCOD9557183 Si02
#       7
#     8   4   8   8   4   8   8
#     4   9  19  34  50  72 104 141 181 224 268 320
#     4  10  22  40  58  82 116 148 178 226 292 344
#     4  10  21  35  53  80 113 149 190 236 284 334
#     4   9  18  34  55  77 105 142 182 228 282 333
#     4  10  22  38  60  86 110 146 192 236 284 342
#     4   9  19  37  58  80 111 150 191 236 285 339
#     4  10  21  37  58  84 112 144 184 227 278 345
#
# _framework density 20.560372000000001
#
# number of rings (size 3 to 8) (size 9 to 14) (size 15 to 20)
#    0.000    2.500    0.833    1.500    1.167    5.000 
#    0.000    5.000    0.000    0.000    0.000    0.000 
#    0.000    0.000    0.000    0.000    0.000    0.000 
#
# Total GULP energy -267621.469893 kJ/mol
# GULP energy per Si atom -5575.447289 kJ/mol
# Density = 2.051358 g / cm^3
# Si number density = 20.560372 Si / 1000 Ang^3
#
#
#
# Elastic Constant Matrix: (Units=GPa)
#
#
# Indices 1 2 3 4 5 6 
#
# 1 47.5589 24.8697 41.6109 0.0000 0.0000 0.0000
# 2 24.8697 47.5589 41.6115 0.0000 0.0000 0.0000
# 3 41.6109 41.6115 142.1903 0.0000 0.0000 0.0000
# 4 0.0000 0.0000 0.0000 24.6082 0.0000 0.0000
# 5 0.0000 0.0000 0.0000 0.0000 24.6082 0.0000
# 6 0.0000 0.0000 0.0000 0.0000 0.0000 6.8134
#
#
#
# Elastic Compliance Matrix: (Units=1/GPa)
#
#
# Indices 1 2 3 4 5 6 
#
# 1 0.032437 -0.011636 -0.006087 0.000000 0.000000 0.000000
# 2 -0.011636 0.032438 -0.006087 0.000000 0.000000 0.000000
# 3 -0.006087 -0.006087 0.010596 0.000000 0.000000 0.000000
# 4 0.000000 0.000000 0.000000 0.040637 0.000000 0.000000
# 5 0.000000 0.000000 0.000000 0.000000 0.040637 0.000000
# 6 0.000000 0.000000 0.000000 0.000000 0.000000 0.146769
#
#
# Mechanical properties :
#
#
# Convention : Reuss Voigt Hill
#
# Bulk Modulus (GPa) = 35.90826 50.38803 43.14814
# Shear Modulus (GPa) = 13.87278 19.82037 16.84658
#
# Velocity S-wave (km/s) = 2.60038 3.10822 2.86557
# Velocity P-wave (km/s) = 5.14963 6.11898 5.65511
#
# Compressibility (1/GPa) = 0.02784874
#
# Stress axis : x y z
#
# Youngs Moduli (GPa) = 30.82863 30.82838 94.37791
#
# Poissons Ratio (x) = 0.35873 0.57450
# Poissons Ratio (y) = 0.35873 0.57453
# Poissons Ratio (z) = 0.18766 0.18767
#
# Static dielectric constant tensor:
#      x y z
#    x 1.752990 0.000000 0.000000 
#    y 0.000000 1.752990 0.000000 
#    z 0.000000 0.000000 1.715230 
# 
# From -- ./inp_files/6166.got.cif
#   From: 2010.05.17/outbox.cif.g08.bks.cpg/sg115_4_cif.got.tgz:6166.got - 2010.05.20 11:07:42.
