data_PCOD9557192
_publ_section_title
;
Structure prediction by ZEFSAII (Michael W. Deem and Ramdas Pophale) SiO2 
 PCOD9557192
Probable space group: P -4 M 2
;
_chemical_formula_sum "Si O2"
_cell_formula_units_Z 36
_cell_length_a 9.357279
_cell_length_b 9.357279
_cell_length_c 24.261646
_cell_angle_alpha 90.000000
_cell_angle_beta 90.000000
_cell_angle_gamma 90.000000
_cell_volume 2124.317463
_symmetry_space_group_name_H-M "P -4 M 2"
_symmetry_group_IT_number 115
_symmetry_cell_setting 'tetragonal'
loop_
_space_group_symop_operation_xyz
x,y,z
y,-x,-z
-x,-y,z
-y,x,-z
y,x,-z
-y,-x,-z
-x,y,z
x,-y,z
loop_
_atom_site_type_symbol
_atom_site_label
_atom_site_fract_x
_atom_site_fract_y
_atom_site_fract_z
Si Si1 0.665147 0.174108 0.770259
Si Si2 0.325704 0.165441 0.891168
Si Si3 0.167768 0.170890 0.339234
Si Si4 0.170749 0.669499 0.549169
Si Si5 0.330041 0.330041 0.000000
O O1 0.500000 0.217901 0.763794
O O2 0.719561 0.220350 0.830683
O O3 0.754936 0.217310 0.717123
O O4 0.667041 0.000000 0.772198
O O5 0.500000 0.168498 0.889726
O O6 0.283030 0.000000 0.897166
O O7 0.279007 0.253920 0.944243
O O8 0.258931 0.212015 0.392618
O O9 0.000000 0.207262 0.348187
O O10 0.176840 0.000000 0.332849
O O11 0.255393 0.744608 0.500000
O O12 0.196025 0.500000 0.550049
O O13 0.000000 0.693186 0.541719
O O14 0.306378 0.500000 0.995003
#
# Coordination Sequence:
#
# PCOD9557192 Si02
#       5
#     8   8   8   8   4
#     4   8  14  26  45  66  86 113 150 185 217 262
#     4   8  14  26  43  61  84 115 147 179 219 267
#     4   9  17  30  49  71  93 118 150 188 228 270
#     4  10  21  36  53  73  98 128 160 194 233 277
#     4   9  16  26  42  63  84 108 144 187 222 256
#
# _framework density 16.946619999999999
#
# number of rings (size 3 to 8) (size 9 to 14) (size 15 to 20)
#    0.000    3.222    0.000    2.000    0.000    2.222 
#    0.000    4.444    0.000    3.000    0.000    0.000 
#    0.000    0.000    0.000    0.000    0.000    0.000 
#
# Total GULP energy -200468.929043 kJ/mol
# GULP energy per Si atom -5568.581362 kJ/mol
# Density = 1.690805 g / cm^3
# Si number density = 16.946620 Si / 1000 Ang^3
#
#
#
# Elastic Constant Matrix: (Units=GPa)
#
#
# Indices 1 2 3 4 5 6 
#
# 1 34.1397 33.8388 69.2445 0.0000 0.0000 0.0000
# 2 33.8388 34.1387 69.2451 0.0000 0.0000 0.0000
# 3 69.2445 69.2451 224.0832 0.0000 0.0000 0.0000
# 4 0.0000 0.0000 0.0000 44.7172 0.0000 0.0000
# 5 0.0000 0.0000 0.0000 0.0000 44.7164 0.0000
# 6 0.0000 0.0000 0.0000 0.0000 0.0000 13.3602
#
#
#
# Elastic Compliance Matrix: (Units=1/GPa)
#
#
# Indices 1 2 3 4 5 6 
#
# 1 1.684087 -1.644466 -0.012239 0.000000 0.000000 0.000000
# 2 -1.644466 1.684265 -0.012302 0.000000 0.000000 0.000000
# 3 -0.012239 -0.012302 0.012046 0.000000 0.000000 0.000000
# 4 0.000000 0.000000 0.000000 0.022363 0.000000 0.000000
# 5 0.000000 0.000000 0.000000 0.000000 0.022363 0.000000
# 6 0.000000 0.000000 0.000000 0.000000 0.000000 0.074849
#
#
# Mechanical properties :
#
#
# Convention : Reuss Voigt Hill
#
# Bulk Modulus (GPa) = 23.59472 70.77982 47.18727
# Shear Modulus (GPa) = 0.72970 28.56098 14.64534
#
# Velocity S-wave (km/s) = 0.65690 4.10975 2.94292
# Velocity P-wave (km/s) = 3.81163 8.02354 6.28115
#
# Compressibility (1/GPa) = 0.04238236
#
# Stress axis : x y z
#
# Youngs Moduli (GPa) = 0.59379 0.59373 83.01264
#
# Poissons Ratio (x) = 0.97637 1.01601
# Poissons Ratio (y) = 0.97647 1.02126
# Poissons Ratio (z) = 0.00727 0.00730
#
# Static dielectric constant tensor:
#      x y z
#    x 1.566600 0.000000 0.000000 
#    y 0.000000 1.566600 0.000000 
#    z 0.000000 0.000000 1.580430 
# 
# From -- ./inp_files/5131.got.cif
#   From: 2010.05.17/outbox.cif.g08.bks.cpg/sg115_3_cif.got.tgz:5131.got - 2010.05.20 11:07:42.
