data_PCOD9557035
_publ_section_title
;
Structure prediction by ZEFSAII (Michael W. Deem and Ramdas Pophale) SiO2 
 PCOD9557035
Probable space group: P -4 M 2
;
_chemical_formula_sum "Si O2"
_cell_formula_units_Z 37
_cell_length_a 8.340619
_cell_length_b 8.340619
_cell_length_c 26.356166
_cell_angle_alpha 90.000000
_cell_angle_beta 90.000000
_cell_angle_gamma 90.000000
_cell_volume 1833.491075
_symmetry_space_group_name_H-M "P -4 M 2"
_symmetry_group_IT_number 115
_symmetry_cell_setting 'tetragonal'
loop_
_space_group_symop_operation_xyz
x,y,z
y,-x,-z
-x,-y,z
-y,x,-z
y,x,-z
-y,-x,-z
-x,y,z
x,-y,z
loop_
_atom_site_type_symbol
_atom_site_label
_atom_site_fract_x
_atom_site_fract_y
_atom_site_fract_z
Si Si1 0.308208 0.676178 0.361758
Si Si2 0.000000 0.000000 0.500000
Si Si3 0.697114 0.000000 0.424855
Si Si4 0.818556 0.311564 0.947806
Si Si5 0.818393 0.806299 0.740281
Si Si6 0.313110 0.185021 0.845776
O O1 0.500000 0.670944 0.362892
O O2 0.248579 0.500000 0.379722
O O3 0.254037 0.703993 0.303957
O O4 0.266066 0.836168 0.393403
O O5 0.000000 0.831024 0.530996
O O6 0.500000 0.000000 0.436044
O O7 0.808709 0.500000 0.957862
O O8 0.713222 0.269783 0.899190
O O9 0.000000 0.268539 0.933659
O O10 0.773340 0.226661 0.000000
O O11 0.777811 0.747142 0.796844
O O12 0.000000 0.759961 0.727177
O O13 0.807939 0.000000 0.741781
O O14 0.500000 0.186322 0.832703
O O15 0.261804 0.000000 0.853043
#
# Coordination Sequence:
#
# PCOD9557035 Si02
#       6
#     8   1   4   8   8   8
#     4  10  21  38  62  91 127 172 214 260 324 383
#     4  12  28  44  76 104 132 180 236 264 330 392
#     4  10  24  46  66  98 140 172 220 281 321 378
#     4  11  24  40  58  80 105 140 187 239 298 364
#     4  10  20  34  57  88 123 160 204 254 308 372
#     4  10  21  37  56  82 115 150 193 245 301 365
#
# _framework density 20.18008
#
# number of rings (size 3 to 8) (size 9 to 14) (size 15 to 20)
#    0.000    1.730    1.081    2.595    1.514    8.649 
#    0.000    0.000    0.000    0.000    0.000    0.000 
#    0.000    0.000    0.000    0.000    0.000    0.000 
#
# Total GULP energy -206434.963653 kJ/mol
# GULP energy per Si atom -5579.323342 kJ/mol
# Density = 2.013415 g / cm^3
# Si number density = 20.180080 Si / 1000 Ang^3
#
#
#
# Elastic Constant Matrix: (Units=GPa)
#
#
# Indices 1 2 3 4 5 6 
#
# 1 56.4799 19.7184 20.7452 0.0000 0.0000 0.0000
# 2 19.7184 56.4869 20.7523 0.0000 0.0000 0.0000
# 3 20.7452 20.7523 70.8265 0.0000 0.0000 0.0000
# 4 0.0000 0.0000 0.0000 2.9765 0.0000 0.0000
# 5 0.0000 0.0000 0.0000 0.0000 2.9765 0.0000
# 6 0.0000 0.0000 0.0000 0.0000 0.0000 15.2373
#
#
#
# Elastic Compliance Matrix: (Units=1/GPa)
#
#
# Indices 1 2 3 4 5 6 
#
# 1 0.021407 -0.005793 -0.004573 0.000000 0.000000 0.000000
# 2 -0.005793 0.021406 -0.004575 0.000000 0.000000 0.000000
# 3 -0.004573 -0.004575 0.016799 0.000000 0.000000 0.000000
# 4 0.000000 0.000000 0.000000 0.335961 0.000000 0.000000
# 5 0.000000 0.000000 0.000000 0.000000 0.335962 0.000000
# 6 0.000000 0.000000 0.000000 0.000000 0.000000 0.065628
#
#
# Mechanical properties :
#
#
# Convention : Reuss Voigt Hill
#
# Bulk Modulus (GPa) = 33.63554 34.02499 33.83027
# Shear Modulus (GPa) = 5.97402 12.40991 9.19197
#
# Velocity S-wave (km/s) = 1.72244 2.48253 2.13655
# Velocity P-wave (km/s) = 4.54528 5.01144 4.78404
#
# Compressibility (1/GPa) = 0.02973045
#
# Stress axis : x y z
#
# Youngs Moduli (GPa) = 46.71264 46.71528 59.52734
#
# Poissons Ratio (x) = 0.27062 0.27222
# Poissons Ratio (y) = 0.27060 0.27236
# Poissons Ratio (z) = 0.21361 0.21374
#
# Static dielectric constant tensor:
#      x y z
#    x 1.737720 0.000000 0.000000 
#    y 0.000000 1.737720 0.000000 
#    z 0.000000 0.000000 1.700820 
# 
# From -- ./inp_files/5162.got.cif
#   From: 2010.05.17/outbox.cif.g08.bks.cpg/sg115_3_cif.got.tgz:5162.got - 2010.05.20 11:07:42.
