data_PCOD9557414
_publ_section_title
;
Structure prediction by ZEFSAII (Michael W. Deem and Ramdas Pophale) SiO2 
 PCOD9557414
Probable space group: P -4 M 2
;
_chemical_formula_sum "Si O2"
_cell_formula_units_Z 28
_cell_length_a 7.531843
_cell_length_b 7.531843
_cell_length_c 22.898291
_cell_angle_alpha 90.000000
_cell_angle_beta 90.000000
_cell_angle_gamma 90.000000
_cell_volume 1298.989341
_symmetry_space_group_name_H-M "P -4 M 2"
_symmetry_group_IT_number 115
_symmetry_cell_setting 'tetragonal'
loop_
_space_group_symop_operation_xyz
x,y,z
y,-x,-z
-x,-y,z
-y,x,-z
y,x,-z
-y,-x,-z
-x,y,z
x,-y,z
loop_
_atom_site_type_symbol
_atom_site_label
_atom_site_fract_x
_atom_site_fract_y
_atom_site_fract_z
Si Si1 0.281462 0.000000 0.024211
Si Si2 0.290827 0.700312 0.247145
Si Si3 0.298164 0.790794 0.626555
Si Si4 0.000000 0.284479 0.837711
Si Si5 0.290606 0.290606 0.500000
O O1 0.500000 0.000000 0.014030
O O2 0.248976 0.000000 0.093929
O O3 0.174316 0.825685 0.000000
O O4 0.500000 0.684137 0.236199
O O5 0.215283 0.500000 0.247302
O O6 0.273638 0.780079 0.312433
O O7 0.217335 0.828331 0.197513
O O8 0.500000 0.713181 0.624810
O O9 0.213568 0.760464 0.563023
O O10 0.311122 0.000000 0.632474
O O11 0.000000 0.500000 0.832390
O O12 0.255452 0.500000 0.495536
#
# Coordination Sequence:
#
# PCOD9557414 Si02
#       5
#     4   8   8   4   4
#     4  10  23  45  70 103 145 184 228 279 329 396
#     4   9  17  32  55  81 110 145 188 242 300 358
#     4   9  17  30  46  69 100 132 177 233 285 349
#     4   9  19  37  61  90 121 153 201 253 300 367
#     4   9  16  28  48  67  88 130 180 229 290 349
#
# _framework density 21.555218
#
# number of rings (size 3 to 8) (size 9 to 14) (size 15 to 20)
#    0.000    2.857    0.000    0.857    0.000    4.857 
#    7.714    2.857    0.000    0.000    0.000    0.000 
#    0.000    0.000    0.000    0.000    0.000    0.000 
#
# Total GULP energy -155928.114897 kJ/mol
# GULP energy per Si atom -5568.861246 kJ/mol
# Density = 2.150616 g / cm^3
# Si number density = 21.555218 Si / 1000 Ang^3
#
#
#
# Elastic Constant Matrix: (Units=GPa)
#
#
# Indices 1 2 3 4 5 6 
#
# 1 106.3869 18.5572 53.8796 0.0000 0.0000 0.0000
# 2 18.5572 106.3873 53.8794 0.0000 0.0000 0.0000
# 3 53.8796 53.8794 204.3474 0.0000 0.0000 0.0000
# 4 0.0000 0.0000 0.0000 47.2057 0.0000 0.0000
# 5 0.0000 0.0000 0.0000 0.0000 47.2060 0.0000
# 6 0.0000 0.0000 0.0000 0.0000 0.0000 4.8212
#
#
#
# Elastic Compliance Matrix: (Units=1/GPa)
#
#
# Indices 1 2 3 4 5 6 
#
# 1 0.010872 -0.000513 -0.002731 0.000000 0.000000 0.000000
# 2 -0.000513 0.010872 -0.002731 0.000000 0.000000 0.000000
# 3 -0.002731 -0.002731 0.006334 0.000000 0.000000 0.000000
# 4 0.000000 0.000000 0.000000 0.021184 0.000000 0.000000
# 5 0.000000 0.000000 0.000000 0.000000 0.021184 0.000000
# 6 0.000000 0.000000 0.000000 0.000000 0.000000 0.207415
#
#
# Mechanical properties :
#
#
# Convention : Reuss Voigt Hill
#
# Bulk Modulus (GPa) = 62.00795 74.41710 68.21252
# Shear Modulus (GPa) = 16.93829 39.23363 28.08596
#
# Velocity S-wave (km/s) = 2.80627 4.27094 3.61359
# Velocity P-wave (km/s) = 6.27134 7.67595 7.00892
#
# Compressibility (1/GPa) = 0.01612697
#
# Stress axis : x y z
#
# Youngs Moduli (GPa) = 91.97525 91.97581 157.87872
#
# Poissons Ratio (x) = 0.04720 0.43123
# Poissons Ratio (y) = 0.04720 0.43123
# Poissons Ratio (z) = 0.25122 0.25122
#
# Static dielectric constant tensor:
#      x y z
#    x 1.818250 0.000000 0.000000 
#    y 0.000000 1.818250 0.000000 
#    z 0.000000 0.000000 1.797340 
# 
# From -- ./inp_files/4512.got.cif
#   From: 2010.05.17/outbox.cif.g08.bks.cpg/sg115_3_cif.got.tgz:4512.got - 2010.05.20 11:07:42.
