data_PCOD9557365
_publ_section_title
;
Structure prediction by ZEFSAII (Michael W. Deem and Ramdas Pophale) SiO2 
 PCOD9557365
Probable space group: P -4 M 2
;
_chemical_formula_sum "Si O2"
_cell_formula_units_Z 40
_cell_length_a 15.423636
_cell_length_b 15.423636
_cell_length_c 7.880304
_cell_angle_alpha 90.000000
_cell_angle_beta 90.000000
_cell_angle_gamma 90.000000
_cell_volume 1874.634072
_symmetry_space_group_name_H-M "P -4 M 2"
_symmetry_group_IT_number 115
_symmetry_cell_setting 'tetragonal'
loop_
_space_group_symop_operation_xyz
x,y,z
y,-x,-z
-x,-y,z
-y,x,-z
y,x,-z
-y,-x,-z
-x,y,z
x,-y,z
loop_
_atom_site_type_symbol
_atom_site_label
_atom_site_fract_x
_atom_site_fract_y
_atom_site_fract_z
Si Si1 0.405851 0.721379 0.288179
Si Si2 0.851720 0.096443 0.314992
Si Si3 0.662676 0.095037 0.207001
Si Si4 0.903619 0.719229 0.183347
Si Si5 0.399993 0.748646 0.694551
O O1 0.500000 0.687410 0.239084
O O2 0.393447 0.819339 0.224554
O O3 0.402739 0.731159 0.492645
O O4 0.330000 0.657115 0.230694
O O5 0.892918 0.107082 0.500000
O O6 0.747190 0.102963 0.327005
O O7 0.881444 0.180009 0.210888
O O8 0.871446 0.000000 0.246379
O O9 0.621877 0.000000 0.236228
O O10 0.699771 0.095978 0.016390
O O11 0.834562 0.655183 0.268111
O O12 0.000000 0.702968 0.251748
O O13 0.500000 0.753695 0.754295
#
# Coordination Sequence:
#
# PCOD9557365 Si02
#       5
#     8   8   8   8   8
#     4  10  21  39  64  91 121 158 199 248 306 365
#     4  11  22  37  59  88 123 162 204 248 297 351
#     4  10  22  39  60  88 123 165 206 245 296 356
#     4  11  23  39  61  88 123 164 205 249 297 354
#     4  10  22  40  63  91 121 155 200 252 305 363
#
# _framework density 21.337496999999999
#
# number of rings (size 3 to 8) (size 9 to 14) (size 15 to 20)
#    0.000    1.600    2.000    2.400    0.000    5.800 
#    0.000    7.000    0.000    7.200    0.000    2.800 
#    0.000    0.000    0.000    0.000    0.000    0.000 
#
# Total GULP energy -223491.109910 kJ/mol
# GULP energy per Si atom -5587.277748 kJ/mol
# Density = 2.128893 g / cm^3
# Si number density = 21.337497 Si / 1000 Ang^3
#
#
#
# Elastic Constant Matrix: (Units=GPa)
#
#
# Indices 1 2 3 4 5 6 
#
# 1 158.3761 89.5929 10.5910 0.0000 0.0000 0.0000
# 2 89.5929 158.3761 10.5910 0.0000 0.0000 0.0000
# 3 10.5910 10.5910 20.0537 0.0000 0.0000 0.0000
# 4 0.0000 0.0000 0.0000 11.1494 0.0000 0.0000
# 5 0.0000 0.0000 0.0000 0.0000 11.1494 0.0000
# 6 0.0000 0.0000 0.0000 0.0000 0.0000 -0.7949
#
#
#
# Elastic Compliance Matrix: (Units=1/GPa)
#
#
# Indices 1 2 3 4 5 6 
#
# 1 0.009381 -0.005158 -0.002230 0.000000 0.000000 0.000000
# 2 -0.005158 0.009381 -0.002230 0.000000 0.000000 0.000000
# 3 -0.002230 -0.002230 0.052222 0.000000 0.000000 0.000000
# 4 0.000000 0.000000 0.000000 0.089691 0.000000 0.000000
# 5 0.000000 0.000000 0.000000 0.000000 0.089691 0.000000
# 6 0.000000 0.000000 0.000000 0.000000 0.000000 -1.257957
#
#
# Mechanical properties :
#
#
# Convention : Reuss Voigt Hill
#
# Bulk Modulus (GPa) = 19.32487 62.03955 40.68221
# Shear Modulus (GPa) = -5.14877 19.36951 7.11037
#
# Velocity S-wave (km/s) = -1.55507 3.01619 1.82745
# Velocity P-wave (km/s) = 2.41911 6.42404 4.85389
#
# Compressibility (1/GPa) = 0.05174678
#
# Stress axis : x y z
#
# Youngs Moduli (GPa) = 106.59999 106.59999 19.14901
#
# Poissons Ratio (x) = 0.54980 0.04271
# Poissons Ratio (y) = 0.54980 0.04271
# Poissons Ratio (z) = 0.23777 0.23777
#
# Static dielectric constant tensor:
#      x y z
#    x 1.767550 0.000000 0.000000 
#    y 0.000000 1.767550 0.000000 
#    z 0.000000 0.000000 1.793230 
# 
# From -- ./inp_files/1586.got.cif
#   From: 2010.05.17/outbox.cif.g08.bks.cpg/sg115_1_cif.got.tgz:1586.got - 2010.05.20 11:07:42.
