data_PCOD9557389
_publ_section_title
;
Structure prediction by ZEFSAII (Michael W. Deem and Ramdas Pophale) SiO2 
 PCOD9557389
Probable space group: P -4 M 2
;
_chemical_formula_sum "Si O2"
_cell_formula_units_Z 56
_cell_length_a 15.213674
_cell_length_b 15.213674
_cell_length_c 10.170033
_cell_angle_alpha 90.000000
_cell_angle_beta 90.000000
_cell_angle_gamma 90.000000
_cell_volume 2353.913903
_symmetry_space_group_name_H-M "P -4 M 2"
_symmetry_group_IT_number 115
_symmetry_cell_setting 'tetragonal'
loop_
_space_group_symop_operation_xyz
x,y,z
y,-x,-z
-x,-y,z
-y,x,-z
y,x,-z
-y,-x,-z
-x,y,z
x,-y,z
loop_
_atom_site_type_symbol
_atom_site_label
_atom_site_fract_x
_atom_site_fract_y
_atom_site_fract_z
Si Si1 0.672441 0.404324 0.384511
Si Si2 0.147456 0.198442 0.862771
Si Si3 0.597230 0.869059 0.067032
Si Si4 0.595405 0.665803 0.135591
Si Si5 0.784427 0.905112 0.416195
Si Si6 0.866010 0.398107 0.484333
Si Si7 0.321508 0.097948 0.800442
O O1 0.602265 0.397736 0.500000
O O2 0.675100 0.500000 0.322103
O O3 0.658097 0.342924 0.260519
O O4 0.761623 0.391647 0.465472
O O5 0.115756 0.300051 0.887836
O O6 0.098289 0.175569 0.729097
O O7 0.249107 0.174670 0.822407
O O8 0.144484 0.144484 0.000000
O O9 0.500000 0.903318 0.114357
O O10 0.592017 0.766473 0.095579
O O11 0.605760 0.890001 0.913009
O O12 0.500000 0.634612 0.182807
O O13 0.618471 0.618471 0.000000
O O14 0.827460 0.827460 0.500000
O O15 0.678240 0.894218 0.415487
O O16 0.803201 0.000000 0.478052
O O17 0.888877 0.500000 0.514085
O O18 0.899217 0.366816 0.341595
O O19 0.281344 0.000000 0.816317
#
# Coordination Sequence:
#
# PCOD9557389 Si02
#       7
#     8   8   8   8   8   8   8
#     4  11  24  40  61  89 130 183 240 298 357 421
#     4  10  23  44  72 103 142 189 237 295 357 425
#     4  10  22  39  64  99 139 185 236 287 353 426
#     4  11  22  36  58  87 127 178 235 298 359 416
#     4  12  27  48  76 110 147 189 237 298 367 435
#     4  11  24  41  68 104 145 192 240 291 352 428
#     4  11  22  40  68 102 140 187 240 296 357 424
#
# _framework density 23.790164999999998
#
# number of rings (size 3 to 8) (size 9 to 14) (size 15 to 20)
#    0.000    1.143    1.429    5.143    2.000    9.000 
#    0.000    0.000    0.000    0.000    0.000    3.000 
#    0.000    0.000    0.000    0.000    0.000    0.000 
#
# Total GULP energy -312206.467517 kJ/mol
# GULP energy per Si atom -5575.115491 kJ/mol
# Density = 2.373602 g / cm^3
# Si number density = 23.790165 Si / 1000 Ang^3
#
#
#
# Elastic Constant Matrix: (Units=GPa)
#
#
# Indices 1 2 3 4 5 6 
#
# 1 84.1437 28.9399 17.9069 0.0000 0.0000 0.0000
# 2 28.9399 84.1422 17.9064 0.0000 0.0000 0.0000
# 3 17.9069 17.9064 118.2590 0.0000 0.0000 0.0000
# 4 0.0000 0.0000 0.0000 -99.7550 0.0000 0.0000
# 5 0.0000 0.0000 0.0000 0.0000 -99.7604 0.0000
# 6 0.0000 0.0000 0.0000 0.0000 0.0000 -5.9338
#
#
#
# Elastic Compliance Matrix: (Units=1/GPa)
#
#
# Indices 1 2 3 4 5 6 
#
# 1 0.013702 -0.004413 -0.001406 0.000000 0.000000 0.000000
# 2 -0.004413 0.013702 -0.001406 0.000000 0.000000 0.000000
# 3 -0.001406 -0.001406 0.008882 0.000000 0.000000 0.000000
# 4 0.000000 0.000000 0.000000 -0.010025 0.000000 0.000000
# 5 0.000000 0.000000 0.000000 0.000000 -0.010024 0.000000
# 6 0.000000 0.000000 0.000000 0.000000 0.000000 -0.168527
#
#
# Mechanical properties :
#
#
# Convention : Reuss Voigt Hill
#
# Bulk Modulus (GPa) = 45.80196 46.22791 46.01494
# Shear Modulus (GPa) = -38.29643 -26.30372 -32.30008
#
# Velocity S-wave (km/s) = -4.01653 -3.32875 -3.68871
# Velocity P-wave (km/s) = 1.48855 2.16786 1.11442
#
# Compressibility (1/GPa) = 0.02183313
#
# Stress axis : x y z
#
# Youngs Moduli (GPa) = 72.98412 72.98294 112.58797
#
# Poissons Ratio (x) = 0.32209 0.15835
# Poissons Ratio (y) = 0.32209 0.15835
# Poissons Ratio (z) = 0.10265 0.10265
#
# Static dielectric constant tensor:
#      x y z
#    x 1.948620 0.000000 0.000000 
#    y 0.000000 1.948620 0.000000 
#    z 0.000000 0.000000 1.867860 
# 
# From -- ./inp_files/3113.got.cif
#   From: 2010.05.17/outbox.cif.g08.bks.cpg/sg115_2_cif.got.tgz:3113.got - 2010.05.20 11:07:42.
