data_PCOD9557143
_publ_section_title
;
Structure prediction by ZEFSAII (Michael W. Deem and Ramdas Pophale) SiO2 
 PCOD9557143
Probable space group: P -4 M 2
;
_chemical_formula_sum "Si O2"
_cell_formula_units_Z 56
_cell_length_a 13.941038
_cell_length_b 13.941038
_cell_length_c 15.295961
_cell_angle_alpha 90.000000
_cell_angle_beta 90.000000
_cell_angle_gamma 90.000000
_cell_volume 2972.808880
_symmetry_space_group_name_H-M "P -4 M 2"
_symmetry_group_IT_number 115
_symmetry_cell_setting 'tetragonal'
loop_
_space_group_symop_operation_xyz
x,y,z
y,-x,-z
-x,-y,z
-y,x,-z
y,x,-z
-y,-x,-z
-x,y,z
x,-y,z
loop_
_atom_site_type_symbol
_atom_site_label
_atom_site_fract_x
_atom_site_fract_y
_atom_site_fract_z
Si Si1 0.384763 0.893219 0.482916
Si Si2 0.614638 0.709037 0.916353
Si Si3 0.889373 0.712844 0.706162
Si Si4 0.883152 0.891319 0.598742
Si Si5 0.615057 0.764177 0.640612
Si Si6 0.891856 0.615896 0.189602
Si Si7 0.613031 0.709279 0.246224
O O1 0.500000 0.888954 0.478644
O O2 0.344319 0.886622 0.385813
O O3 0.353806 0.811648 0.550111
O O4 0.358833 0.000000 0.516704
O O5 0.500000 0.707406 0.931256
O O6 0.644511 0.815856 0.885063
O O7 0.640837 0.641370 0.834054
O O8 0.670460 0.670460 0.000000
O O9 0.856912 0.818604 0.675507
O O10 0.813550 0.661190 0.768114
O O11 0.000000 0.714087 0.736475
O O12 0.858279 0.858279 0.500000
O O13 0.000000 0.891800 0.597324
O O14 0.850433 0.000000 0.612591
O O15 0.500000 0.749356 0.639120
O O16 0.635468 0.841042 0.717638
O O17 0.666573 0.666698 0.668817
O O18 0.897198 0.500000 0.184722
O O19 0.000000 0.653824 0.183040
O O20 0.500000 0.716860 0.257219
#
# Coordination Sequence:
#
# PCOD9557143 Si02
#       7
#     8   8   8   8   8   8   8
#     4   9  17  30  49  72  99 137 184 224 256 301
#     4  10  21  38  61  86 108 134 173 220 273 335
#     4  10  21  35  51  72 103 143 181 219 265 317
#     4   8  15  29  49  74 103 134 173 223 271 312
#     4   9  18  31  49  74 103 136 174 216 262 312
#     4   8  14  28  51  79 111 138 160 201 263 320
#     4  11  23  36  52  75 103 135 174 222 271 324
#
# _framework density 18.837402999999998
#
# number of rings (size 3 to 8) (size 9 to 14) (size 15 to 20)
#    0.000    2.714    0.000    3.000    2.000    4.429 
#    0.000    3.571    0.000    2.571    0.000    4.000 
#    0.000    4.857    0.000    0.000    0.000    0.000 
#
# Total GULP energy -312519.550178 kJ/mol
# GULP energy per Si atom -5580.706253 kJ/mol
# Density = 1.879453 g / cm^3
# Si number density = 18.837403 Si / 1000 Ang^3
#
#
#
# Elastic Constant Matrix: (Units=GPa)
#
#
# Indices 1 2 3 4 5 6 
#
# 1 95.4567 23.1236 3.3393 0.0000 0.0000 0.0000
# 2 23.1236 95.4567 3.3393 0.0000 0.0000 0.0000
# 3 3.3393 3.3393 18.5254 0.0000 0.0000 0.0000
# 4 0.0000 0.0000 0.0000 21.3886 0.0000 0.0000
# 5 0.0000 0.0000 0.0000 0.0000 21.3886 0.0000
# 6 0.0000 0.0000 0.0000 0.0000 0.0000 23.9982
#
#
#
# Elastic Compliance Matrix: (Units=1/GPa)
#
#
# Indices 1 2 3 4 5 6 
#
# 1 0.011172 -0.002653 -0.001536 0.000000 0.000000 0.000000
# 2 -0.002653 0.011172 -0.001536 0.000000 0.000000 0.000000
# 3 -0.001536 -0.001536 0.054533 0.000000 0.000000 0.000000
# 4 0.000000 0.000000 0.000000 0.046754 0.000000 0.000000
# 5 0.000000 0.000000 0.000000 0.000000 0.046754 0.000000
# 6 0.000000 0.000000 0.000000 0.000000 0.000000 0.041670
#
#
# Mechanical properties :
#
#
# Convention : Reuss Voigt Hill
#
# Bulk Modulus (GPa) = 15.28355 29.89372 22.58863
# Shear Modulus (GPa) = 20.38205 25.33084 22.85644
#
# Velocity S-wave (km/s) = 3.29294 3.67101 3.48710
# Velocity P-wave (km/s) = 4.75279 5.81998 5.31325
#
# Compressibility (1/GPa) = 0.06542982
#
# Stress axis : x y z
#
# Youngs Moduli (GPa) = 89.50741 89.50741 18.33737
#
# Poissons Ratio (x) = 0.23743 0.02816
# Poissons Ratio (y) = 0.23743 0.02816
# Poissons Ratio (z) = 0.13746 0.13746
#
# Static dielectric constant tensor:
#      x y z
#    x 1.702780 0.000000 0.000000 
#    y 0.000000 1.702780 0.000000 
#    z 0.000000 0.000000 1.628300 
# 
# From -- ./inp_files/3785.got.cif
#   From: 2010.05.17/outbox.cif.g08.bks.cpg/sg115_2_cif.got.tgz:3785.got - 2010.05.20 11:07:42.
