data_PCOD9557391
_publ_section_title
;
Structure prediction by ZEFSAII (Michael W. Deem and Ramdas Pophale) SiO2 
 PCOD9557391
Probable space group: P -4 M 2
;
_chemical_formula_sum "Si O2"
_cell_formula_units_Z 40
_cell_length_a 14.277744
_cell_length_b 14.277744
_cell_length_c 9.981339
_cell_angle_alpha 90.000000
_cell_angle_beta 90.000000
_cell_angle_gamma 90.000000
_cell_volume 2034.735618
_symmetry_space_group_name_H-M "P -4 M 2"
_symmetry_group_IT_number 115
_symmetry_cell_setting 'tetragonal'
loop_
_space_group_symop_operation_xyz
x,y,z
y,-x,-z
-x,-y,z
-y,x,-z
y,x,-z
-y,-x,-z
-x,y,z
x,-y,z
loop_
_atom_site_type_symbol
_atom_site_label
_atom_site_fract_x
_atom_site_fract_y
_atom_site_fract_z
Si Si1 0.111226 0.402633 0.837823
Si Si2 0.751734 0.110333 0.959908
Si Si3 0.779923 0.283960 0.305849
Si Si4 0.388982 0.388156 0.159428
Si Si5 0.888571 0.312644 0.565360
O O1 0.153698 0.500000 0.884489
O O2 0.117943 0.391826 0.679057
O O3 0.000000 0.403940 0.865270
O O4 0.147800 0.316482 0.922903
O O5 0.718650 0.153326 0.821369
O O6 0.749394 0.000000 0.953678
O O7 0.853102 0.146899 0.000000
O O8 0.682338 0.331040 0.255929
O O9 0.834593 0.334560 0.427896
O O10 0.764796 0.177849 0.362085
O O11 0.500000 0.368995 0.184965
O O12 0.374948 0.500000 0.180126
O O13 0.370683 0.370683 0.000000
O O14 0.000000 0.290271 0.547835
#
# Coordination Sequence:
#
# PCOD9557391 Si02
#       5
#     8   8   8   8   8
#     4   9  19  37  60  84 116 159 204 254 314 374
#     4  11  22  38  59  91 125 160 209 262 316 373
#     4  11  22  38  63  94 118 164 211 259 315 374
#     4   9  20  40  65  95 130 163 200 253 317 385
#     4  10  22  40  59  83 122 162 206 257 310 369
#
# _framework density 19.658573000000001
#
# number of rings (size 3 to 8) (size 9 to 14) (size 15 to 20)
#    0.000    2.000    2.000    1.800    0.000    2.600 
#    0.000    3.000    0.000   20.400    0.000    0.000 
#    0.000    0.000    0.000    0.000    0.000    0.000 
#
# Total GULP energy -222821.095200 kJ/mol
# GULP energy per Si atom -5570.527380 kJ/mol
# Density = 1.961383 g / cm^3
# Si number density = 19.658573 Si / 1000 Ang^3
#
#
#
# Elastic Constant Matrix: (Units=GPa)
#
#
# Indices 1 2 3 4 5 6 
#
# 1 118.6187 49.2551 55.5288 0.0000 0.0000 0.0000
# 2 49.2551 118.6216 55.5291 0.0000 0.0000 0.0000
# 3 55.5288 55.5291 148.7718 0.0000 0.0000 0.0000
# 4 0.0000 0.0000 0.0000 19.8949 0.0000 0.0000
# 5 0.0000 0.0000 0.0000 0.0000 19.8948 0.0000
# 6 0.0000 0.0000 0.0000 0.0000 0.0000 18.6306
#
#
#
# Elastic Compliance Matrix: (Units=1/GPa)
#
#
# Indices 1 2 3 4 5 6 
#
# 1 0.011163 -0.003253 -0.002952 0.000000 0.000000 0.000000
# 2 -0.003253 0.011163 -0.002952 0.000000 0.000000 0.000000
# 3 -0.002952 -0.002952 0.008926 0.000000 0.000000 0.000000
# 4 0.000000 0.000000 0.000000 0.050264 0.000000 0.000000
# 5 0.000000 0.000000 0.000000 0.000000 0.050264 0.000000
# 6 0.000000 0.000000 0.000000 0.000000 0.000000 0.053675
#
#
# Mechanical properties :
#
#
# Convention : Reuss Voigt Hill
#
# Bulk Modulus (GPa) = 77.30348 78.51534 77.90941
# Shear Modulus (GPa) = 24.02880 26.73068 25.37974
#
# Velocity S-wave (km/s) = 3.49994 3.69147 3.59698
# Velocity P-wave (km/s) = 7.46600 7.62860 7.54774
#
# Compressibility (1/GPa) = 0.01293603
#
# Stress axis : x y z
#
# Youngs Moduli (GPa) = 89.57866 89.58111 112.03658
#
# Poissons Ratio (x) = 0.29143 0.33078
# Poissons Ratio (y) = 0.29142 0.33077
# Poissons Ratio (z) = 0.26447 0.26447
#
# Static dielectric constant tensor:
#      x y z
#    x 1.722460 0.000000 0.000000 
#    y 0.000000 1.722460 0.000000 
#    z 0.000000 0.000000 1.687000 
# 
# From -- ./inp_files/1616.got.cif
#   From: 2010.05.17/outbox.cif.g08.bks.cpg/sg115_1_cif.got.tgz:1616.got - 2010.05.20 11:07:42.
