data_PCOD9557730
_publ_section_title
;
Structure prediction by ZEFSAII (Michael W. Deem and Ramdas Pophale) SiO2 
 PCOD9557730
Probable space group: P -4 C 2
;
_chemical_formula_sum "Si O2"
_cell_formula_units_Z 48
_cell_length_a 10.982625
_cell_length_b 10.982625
_cell_length_c 19.567901
_cell_angle_alpha 90.000000
_cell_angle_beta 90.000000
_cell_angle_gamma 90.000000
_cell_volume 2360.242098
_symmetry_space_group_name_H-M "P -4 C 2"
_symmetry_group_IT_number 116
_symmetry_cell_setting 'tetragonal'
loop_
_space_group_symop_operation_xyz
x,y,z
y,-x,-z
-x,-y,z
-y,x,-z
y,x,1/2-z
-y,-x,1/2-z
-x,y,1/2+z
x,-y,1/2+z
loop_
_atom_site_type_symbol
_atom_site_label
_atom_site_fract_x
_atom_site_fract_y
_atom_site_fract_z
Si Si1 0.689795 0.514330 0.104563
Si Si2 0.581384 0.256109 0.146147
Si Si3 0.526528 0.138704 0.279684
Si Si4 0.851793 0.806519 0.677052
Si Si5 0.175002 0.918745 0.477015
Si Si6 0.766259 0.397228 0.962160
O O1 0.609252 0.401678 0.136620
O O2 0.801392 0.539788 0.155675
O O3 0.638971 0.644195 0.080157
O O4 0.729236 0.452044 0.034472
O O5 0.510840 0.229176 0.216120
O O6 0.710003 0.187163 0.155207
O O7 0.509078 0.192048 0.084825
O O8 0.666420 0.136056 0.302226
O O9 0.500000 0.000000 0.261840
O O10 0.874876 0.874876 0.750000
O O11 0.922398 0.823376 0.606055
O O12 0.287952 0.855102 0.516090
O O13 0.055038 0.843065 0.496712
#
# Coordination Sequence:
#
# PCOD9557730 Si02
#       6
#     8   8   8   8   8   8
#     4  11  21  37  64  96 130 171 211 268 334 403
#     4  10  21  39  62  97 128 171 213 270 335 403
#     4  10  22  39  61  93 130 171 227 268 324 398
#     4   9  19  42  68  88 125 177 216 268 344 395
#     4  11  25  44  64  95 132 173 229 290 333 397
#     4  12  22  37  66  95 132 171 220 262 341 411
#
# _framework density 20.336898000000001
#
# number of rings (size 3 to 8) (size 9 to 14) (size 15 to 20)
#    0.000    1.500    5.000    2.000    2.333    3.333 
#    0.000    9.167    3.667    0.000    0.000    0.000 
#    0.000    0.000    0.000    0.000    0.000    0.000 
#
# Total GULP energy -267272.479290 kJ/mol
# GULP energy per Si atom -5568.176652 kJ/mol
# Density = 2.029061 g / cm^3
# Si number density = 20.336898 Si / 1000 Ang^3
#
#
#
# Elastic Constant Matrix: (Units=GPa)
#
#
# Indices 1 2 3 4 5 6 
#
# 1 127.0448 -69.7878 30.3248 0.0000 0.0000 0.0000
# 2 -69.7878 127.0448 30.3248 0.0000 0.0000 0.0000
# 3 30.3248 30.3248 148.8370 0.0000 0.0000 0.0000
# 4 0.0000 0.0000 0.0000 -43.3250 0.0000 0.0000
# 5 0.0000 0.0000 0.0000 0.0000 -43.3250 0.0000
# 6 0.0000 0.0000 0.0000 0.0000 0.0000 15.4386
#
#
#
# Elastic Compliance Matrix: (Units=1/GPa)
#
#
# Indices 1 2 3 4 5 6 
#
# 1 0.013676 0.008596 -0.004538 0.000000 0.000000 0.000000
# 2 0.008596 0.013676 -0.004538 0.000000 0.000000 0.000000
# 3 -0.004538 -0.004538 0.008568 0.000000 0.000000 0.000000
# 4 0.000000 0.000000 0.000000 -0.023081 0.000000 0.000000
# 5 0.000000 0.000000 0.000000 0.000000 -0.023081 0.000000
# 6 0.000000 0.000000 0.000000 0.000000 0.000000 0.064773
#
#
# Mechanical properties :
#
#
# Convention : Reuss Voigt Hill
#
# Bulk Modulus (GPa) = 28.60387 42.73893 35.67140
# Shear Modulus (GPa) = 74.46766 13.22872 43.84819
#
# Velocity S-wave (km/s) = 6.05776 2.55322 4.64841
# Velocity P-wave (km/s) = 7.93878 5.45463 6.81092
#
# Compressibility (1/GPa) = 0.03496031
#
# Stress axis : x y z
#
# Youngs Moduli (GPa) = 73.12021 73.12021 116.71528
#
# Poissons Ratio (x) = -0.62852 0.52963
# Poissons Ratio (y) = -0.62852 0.52963
# Poissons Ratio (z) = 0.33180 0.33180
#
# Static dielectric constant tensor:
#      x y z
#    x 1.801580 0.000000 0.000000 
#    y 0.000000 1.801580 0.000000 
#    z 0.000000 0.000000 1.033150 
# 
# From -- ./inp_files/4059.got.cif
#   From: 2010.05.17/outbox.cif.g08.bks.cpg/sg116_3_cif.got.tgz:4059.got - 2010.05.20 11:11:43.
