data_PCOD9557575
_publ_section_title
;
Structure prediction by ZEFSAII (Michael W. Deem and Ramdas Pophale) SiO2 
 PCOD9557575
Probable space group: P -4 C 2
;
_chemical_formula_sum "Si O2"
_cell_formula_units_Z 36
_cell_length_a 9.702850
_cell_length_b 9.702850
_cell_length_c 16.203706
_cell_angle_alpha 90.000000
_cell_angle_beta 90.000000
_cell_angle_gamma 90.000000
_cell_volume 1525.502732
_symmetry_space_group_name_H-M "P -4 C 2"
_symmetry_group_IT_number 116
_symmetry_cell_setting 'tetragonal'
loop_
_space_group_symop_operation_xyz
x,y,z
y,-x,-z
-x,-y,z
-y,x,-z
y,x,1/2-z
-y,-x,1/2-z
-x,y,1/2+z
x,-y,1/2+z
loop_
_atom_site_type_symbol
_atom_site_label
_atom_site_fract_x
_atom_site_fract_y
_atom_site_fract_z
Si Si1 0.231653 0.968606 0.003429
Si Si2 0.258271 0.741730 0.250000
Si Si3 0.036555 0.276833 0.171234
Si Si4 0.700757 0.110543 0.654007
Si Si5 0.353624 0.527960 0.836482
O O1 0.326874 0.950673 0.922689
O O2 0.311235 0.988983 0.089077
O O3 0.147809 0.113325 0.989883
O O4 0.387957 0.721757 0.189324
O O5 0.120126 0.745025 0.196427
O O6 0.090518 0.355273 0.252965
O O7 0.135904 0.142203 0.165005
O O8 0.628769 0.247354 0.619966
O O9 0.500000 0.500000 0.879326
O O10 0.397990 0.602010 0.750000
#
# Coordination Sequence:
#
# PCOD9557575 Si02
#       5
#     8   4   8   8   8
#     4   9  18  31  53  87 126 154 193 252 305 364
#     4  10  21  33  60  82 120 150 202 247 297 358
#     4  10  19  33  57  93 112 154 203 245 299 360
#     4  10  19  35  61  87 123 159 196 249 312 357
#     4   9  19  39  59  82 116 165 204 243 305 371
#
# _framework density 23.598776999999998
#
# number of rings (size 3 to 8) (size 9 to 14) (size 15 to 20)
#    0.000    2.667    2.222    1.333    0.000    8.000 
#    0.000    0.000    9.778    4.000    0.000    0.000 
#    0.000    0.000    0.000    0.000    0.000    0.000 
#
# Total GULP energy -200600.968879 kJ/mol
# GULP energy per Si atom -5572.249136 kJ/mol
# Density = 2.354506 g / cm^3
# Si number density = 23.598777 Si / 1000 Ang^3
#
#
#
# Elastic Constant Matrix: (Units=GPa)
#
#
# Indices 1 2 3 4 5 6 
#
# 1 97.8488 42.0434 17.1373 0.0000 0.0000 0.0000
# 2 42.0434 97.8488 17.1383 0.0000 0.0000 0.0000
# 3 17.1373 17.1383 120.9680 0.0000 0.0000 0.0000
# 4 0.0000 0.0000 0.0000 1.9786 0.0000 0.0000
# 5 0.0000 0.0000 0.0000 0.0000 1.9784 0.0000
# 6 0.0000 0.0000 0.0000 0.0000 0.0000 24.6318
#
#
#
# Elastic Compliance Matrix: (Units=1/GPa)
#
#
# Indices 1 2 3 4 5 6 
#
# 1 0.012662 -0.005257 -0.001049 0.000000 0.000000 0.000000
# 2 -0.005257 0.012662 -0.001049 0.000000 0.000000 0.000000
# 3 -0.001049 -0.001049 0.008564 0.000000 0.000000 0.000000
# 4 0.000000 0.000000 0.000000 0.505398 0.000000 0.000000
# 5 0.000000 0.000000 0.000000 0.000000 0.505455 0.000000
# 6 0.000000 0.000000 0.000000 0.000000 0.000000 0.040598
#
#
# Mechanical properties :
#
#
# Convention : Reuss Voigt Hill
#
# Bulk Modulus (GPa) = 52.14256 52.14482 52.14369
# Shear Modulus (GPa) = 4.51899 21.74088 13.12993
#
# Velocity S-wave (km/s) = 1.38531 3.03854 2.36133
# Velocity P-wave (km/s) = 4.97013 5.86981 5.43861
#
# Compressibility (1/GPa) = 0.01917819
#
# Stress axis : x y z
#
# Youngs Moduli (GPa) = 78.97400 78.97374 116.76896
#
# Poissons Ratio (x) = 0.41516 0.12250
# Poissons Ratio (y) = 0.41517 0.12252
# Poissons Ratio (z) = 0.08285 0.08286
#
# Static dielectric constant tensor:
#      x y z
#    x 1.923570 0.000000 0.000000 
#    y 0.000000 1.923570 0.000000 
#    z 0.000000 0.000000 1.984490 
# 
# From -- ./inp_files/3226.got.cif
#   From: 2010.05.17/outbox.cif.g08.bks.cpg/sg116_2_cif.got.tgz:3226.got - 2010.05.20 11:11:43.
