data_PCOD9557459
_publ_section_title
;
Structure prediction by ZEFSAII (Michael W. Deem and Ramdas Pophale) SiO2 
 PCOD9557459
Probable space group: P -4 M 2
;
_chemical_formula_sum "Si O2"
_cell_formula_units_Z 56
_cell_length_a 15.337332
_cell_length_b 15.337332
_cell_length_c 11.750668
_cell_angle_alpha 90.000000
_cell_angle_beta 90.000000
_cell_angle_gamma 90.000000
_cell_volume 2764.153732
_symmetry_space_group_name_H-M "P -4 M 2"
_symmetry_group_IT_number 115
_symmetry_cell_setting 'tetragonal'
loop_
_space_group_symop_operation_xyz
x,y,z
y,-x,-z
-x,-y,z
-y,x,-z
y,x,-z
-y,-x,-z
-x,y,z
x,-y,z
loop_
_atom_site_type_symbol
_atom_site_label
_atom_site_fract_x
_atom_site_fract_y
_atom_site_fract_z
Si Si1 0.094428 0.898510 0.637043
Si Si2 0.600063 0.396384 0.873879
Si Si3 0.354346 0.241214 0.293293
Si Si4 0.403841 0.900570 0.475419
Si Si5 0.603535 0.101430 0.124674
Si Si6 0.102402 0.399566 0.144250
Si Si7 0.169698 0.280264 0.333991
O O1 0.104406 0.895595 0.500000
O O2 0.181373 0.858877 0.686191
O O3 0.000000 0.858552 0.665967
O O4 0.091987 0.000000 0.668371
O O5 0.500000 0.362781 0.851114
O O6 0.591961 0.500000 0.888144
O O7 0.672108 0.385618 0.774336
O O8 0.633244 0.366757 0.000000
O O9 0.402731 0.177266 0.383112
O O10 0.339762 0.170476 0.193043
O O11 0.270712 0.274002 0.361056
O O12 0.500000 0.898201 0.531158
O O13 0.328014 0.883479 0.566535
O O14 0.393789 0.000000 0.428845
O O15 0.500000 0.118387 0.149077
O O16 0.620411 0.000000 0.152164
O O17 0.614931 0.112399 0.989899
O O18 0.124411 0.500000 0.167455
O O19 0.157955 0.336028 0.220646
O O20 0.000000 0.386925 0.172422
#
# Coordination Sequence:
#
# PCOD9557459 Si02
#       7
#     8   8   8   8   8   8   8
#     4   9  18  34  55  76 103 146 196 240 285 343
#     4   9  20  39  61  85 116 159 206 249 301 366
#     4  12  24  36  58  91 126 157 200 256 309 372
#     4  11  24  43  66  89 118 162 211 261 318 371
#     4   9  19  37  61  87 116 155 204 259 320 376
#     4   9  19  37  60  85 115 155 203 258 319 374
#     4  12  24  35  55  87 126 159 198 249 307 377
#
# _framework density 20.259364999999999
#
# number of rings (size 3 to 8) (size 9 to 14) (size 15 to 20)
#    0.000    1.857    0.000    6.429    2.000    5.714 
#    0.000    0.000    0.000    0.000    0.000    2.000 
#    0.000    4.571    0.000    0.286    0.000    0.000 
#
# Total GULP energy -312164.349246 kJ/mol
# GULP energy per Si atom -5574.363379 kJ/mol
# Density = 2.021325 g / cm^3
# Si number density = 20.259365 Si / 1000 Ang^3
#
#
#
# Elastic Constant Matrix: (Units=GPa)
#
#
# Indices 1 2 3 4 5 6 
#
# 1 86.1142 30.8875 30.3313 0.0000 0.0000 0.0000
# 2 30.8875 86.1141 30.3313 0.0000 0.0000 0.0000
# 3 30.3313 30.3313 54.9508 0.0000 0.0000 0.0000
# 4 0.0000 0.0000 0.0000 28.0990 0.0000 0.0000
# 5 0.0000 0.0000 0.0000 0.0000 28.0989 0.0000
# 6 0.0000 0.0000 0.0000 0.0000 0.0000 20.8546
#
#
#
# Elastic Compliance Matrix: (Units=1/GPa)
#
#
# Indices 1 2 3 4 5 6 
#
# 1 0.015040 -0.003067 -0.006609 0.000000 0.000000 0.000000
# 2 -0.003067 0.015040 -0.006609 0.000000 0.000000 0.000000
# 3 -0.006609 -0.006609 0.025494 0.000000 0.000000 0.000000
# 4 0.000000 0.000000 0.000000 0.035588 0.000000 0.000000
# 5 0.000000 0.000000 0.000000 0.000000 0.035589 0.000000
# 6 0.000000 0.000000 0.000000 0.000000 0.000000 0.047951
#
#
# Mechanical properties :
#
#
# Convention : Reuss Voigt Hill
#
# Bulk Modulus (GPa) = 43.46886 45.58658 44.52772
# Shear Modulus (GPa) = 23.26220 24.45246 23.85733
#
# Velocity S-wave (km/s) = 3.39222 3.47792 3.43533
# Velocity P-wave (km/s) = 6.07006 6.21918 6.14507
#
# Compressibility (1/GPa) = 0.02300497
#
# Stress axis : x y z
#
# Youngs Moduli (GPa) = 66.48775 66.48777 39.22475
#
# Poissons Ratio (x) = 0.20391 0.25924
# Poissons Ratio (y) = 0.20391 0.25924
# Poissons Ratio (z) = 0.43942 0.43942
#
# Static dielectric constant tensor:
#      x y z
#    x 1.740330 0.000000 0.000000 
#    y 0.000000 1.740330 0.000000 
#    z 0.000000 0.000000 1.763730 
# 
# From -- ./inp_files/3064.got.cif
#   From: 2010.05.17/outbox.cif.g08.bks.cpg/sg115_2_cif.got.tgz:3064.got - 2010.05.20 11:07:42.
