data_PCOD9557825
_publ_section_title
;
Structure prediction by ZEFSAII (Michael W. Deem and Ramdas Pophale) SiO2 
 PCOD9557825
Probable space group: P -4 C 2
;
_chemical_formula_sum "Si O2"
_cell_formula_units_Z 16
_cell_length_a 6.978241
_cell_length_b 6.978241
_cell_length_c 12.056669
_cell_angle_alpha 90.000000
_cell_angle_beta 90.000000
_cell_angle_gamma 90.000000
_cell_volume 587.109714
_symmetry_space_group_name_H-M "P -4 C 2"
_symmetry_group_IT_number 116
_symmetry_cell_setting 'tetragonal'
loop_
_space_group_symop_operation_xyz
x,y,z
y,-x,-z
-x,-y,z
-y,x,-z
y,x,1/2-z
-y,-x,1/2-z
-x,y,1/2+z
x,-y,1/2+z
loop_
_atom_site_type_symbol
_atom_site_label
_atom_site_fract_x
_atom_site_fract_y
_atom_site_fract_z
Si Si1 0.509468 0.223439 0.314252
Si Si2 0.254808 0.822259 0.025186
O O1 0.365423 0.365423 0.250000
O O2 0.724451 0.285792 0.355070
O O3 0.500000 0.000000 0.279968
O O4 0.226993 0.416823 0.061673
O O5 0.051820 0.759687 0.971594
#
# Coordination Sequence:
#
# PCOD9557825 Si02
#       2
#     8   8
#     4  10  22  43  70 101 139 185 242 303 363 430
#     4   9  20  43  68  94 135 184 233 291 360 433
#
# _framework density 27.252147000000001
#
# number of rings (size 3 to 8) (size 9 to 14) (size 15 to 20)
#    0.000    2.500    0.000    0.000    0.000    7.000 
#    0.000   45.000    0.000    0.000    0.000    0.000 
#    0.000    0.000    0.000    0.000    0.000    0.000 
#
# Total GULP energy -89579.660224 kJ/mol
# GULP energy per Si atom -5598.728764 kJ/mol
# Density = 2.719012 g / cm^3
# Si number density = 27.252147 Si / 1000 Ang^3
#
#
#
# Elastic Constant Matrix: (Units=GPa)
#
#
# Indices 1 2 3 4 5 6 
#
# 1 147.3416 85.8741 43.8094 0.0000 0.0000 0.0000
# 2 85.8741 147.3416 43.8094 0.0000 0.0000 0.0000
# 3 43.8094 43.8094 85.3077 0.0000 0.0000 0.0000
# 4 0.0000 0.0000 0.0000 37.9904 0.0000 0.0000
# 5 0.0000 0.0000 0.0000 0.0000 37.9904 0.0000
# 6 0.0000 0.0000 0.0000 0.0000 0.0000 28.0103
#
#
#
# Elastic Compliance Matrix: (Units=1/GPa)
#
#
# Indices 1 2 3 4 5 6 
#
# 1 0.010791 -0.005478 -0.002728 0.000000 0.000000 0.000000
# 2 -0.005478 0.010791 -0.002728 0.000000 0.000000 0.000000
# 3 -0.002728 -0.002728 0.014525 0.000000 0.000000 0.000000
# 4 0.000000 0.000000 0.000000 0.026322 0.000000 0.000000
# 5 0.000000 0.000000 0.000000 0.000000 0.026322 0.000000
# 6 0.000000 0.000000 0.000000 0.000000 0.000000 0.035701
#
#
# Mechanical properties :
#
#
# Convention : Reuss Voigt Hill
#
# Bulk Modulus (GPa) = 70.24071 80.77519 75.50795
# Shear Modulus (GPa) = 33.09779 34.56476 33.83128
#
# Velocity S-wave (km/s) = 3.48875 3.56523 3.52720
# Velocity P-wave (km/s) = 6.48528 6.83023 6.65999
#
# Compressibility (1/GPa) = 0.01423676
#
# Stress axis : x y z
#
# Youngs Moduli (GPa) = 92.67110 92.67110 68.84853
#
# Poissons Ratio (x) = 0.50764 0.18785
# Poissons Ratio (y) = 0.50764 0.18785
# Poissons Ratio (z) = 0.25285 0.25285
#
# Static dielectric constant tensor:
#      x y z
#    x 2.198670 0.000000 0.000000 
#    y 0.000000 2.198670 0.000000 
#    z 0.000000 0.000000 2.429380 
# 
# From -- ./inp_files/351.got.cif
#   From: 2010.05.17/outbox.cif.g08.bks.cpg/sg116_1_cif.got.tgz:351.got - 2010.05.20 11:11:43.
