data_PCOD9557604
_publ_section_title
;
Structure prediction by ZEFSAII (Michael W. Deem and Ramdas Pophale) SiO2 
 PCOD9557604
Probable space group: P -4 C 2
;
_chemical_formula_sum "Si O2"
_cell_formula_units_Z 48
_cell_length_a 9.224957
_cell_length_b 9.224957
_cell_length_c 29.810748
_cell_angle_alpha 90.000000
_cell_angle_beta 90.000000
_cell_angle_gamma 90.000000
_cell_volume 2536.889636
_symmetry_space_group_name_H-M "P -4 C 2"
_symmetry_group_IT_number 116
_symmetry_cell_setting 'tetragonal'
loop_
_space_group_symop_operation_xyz
x,y,z
y,-x,-z
-x,-y,z
-y,x,-z
y,x,1/2-z
-y,-x,1/2-z
-x,y,1/2+z
x,-y,1/2+z
loop_
_atom_site_type_symbol
_atom_site_label
_atom_site_fract_x
_atom_site_fract_y
_atom_site_fract_z
Si Si1 0.184370 0.815631 0.250000
Si Si2 0.832967 0.282743 0.404393
Si Si3 0.643249 0.331066 0.324919
Si Si4 0.964959 0.829624 0.325718
Si Si5 0.065305 0.209983 0.516073
Si Si6 0.000000 0.500000 0.466047
Si Si7 0.309326 0.345245 0.302711
O O1 0.297799 0.788412 0.290023
O O2 0.034044 0.798016 0.276517
O O3 0.689515 0.307186 0.375722
O O4 0.810406 0.147137 0.437261
O O5 0.884336 0.417967 0.434369
O O6 0.951695 0.250626 0.366003
O O7 0.471961 0.332353 0.320780
O O8 0.719505 0.482830 0.310013
O O9 0.803623 0.765651 0.324703
O O10 0.000000 0.000000 0.332256
O O11 0.900971 0.150141 0.517131
O O12 0.065387 0.371583 0.496606
O O13 0.315292 0.315292 0.250000
#
# Coordination Sequence:
#
# PCOD9557604 Si02
#       7
#     4   8   8   8   8   4   8
#     4  10  19  39  56  84 122 160 206 243 305 348
#     4  10  22  40  62  93 121 154 207 250 312 364
#     4  10  20  39  60  90 123 165 205 260 299 370
#     4  11  24  38  58  89 123 161 206 258 297 369
#     4   9  20  40  66  89 121 158 195 249 320 382
#     4  10  20  40  68  92 118 158 208 248 316 390
#     4  11  20  38  61  82 124 171 214 243 310 354
#
# _framework density 18.920805000000001
#
# number of rings (size 3 to 8) (size 9 to 14) (size 15 to 20)
#    0.000    1.833    1.667    2.750    4.667    2.000 
#    6.000    6.667    0.000    4.500    0.000    0.000 
#    0.000    0.000    0.000    0.000    0.000    0.000 
#
# Total GULP energy -267690.853501 kJ/mol
# GULP energy per Si atom -5576.892781 kJ/mol
# Density = 1.887774 g / cm^3
# Si number density = 18.920805 Si / 1000 Ang^3
#
#
#
# Elastic Constant Matrix: (Units=GPa)
#
#
# Indices 1 2 3 4 5 6 
#
# 1 98.0655 48.8056 37.1928 0.0000 0.0000 0.0000
# 2 48.8056 98.0658 37.1929 0.0000 0.0000 0.0000
# 3 37.1928 37.1929 97.2945 0.0000 0.0000 0.0000
# 4 0.0000 0.0000 0.0000 23.7561 0.0000 0.0000
# 5 0.0000 0.0000 0.0000 0.0000 23.7558 0.0000
# 6 0.0000 0.0000 0.0000 0.0000 0.0000 24.2253
#
#
#
# Elastic Compliance Matrix: (Units=1/GPa)
#
#
# Indices 1 2 3 4 5 6 
#
# 1 0.014372 -0.005929 -0.003228 0.000000 0.000000 0.000000
# 2 -0.005929 0.014372 -0.003228 0.000000 0.000000 0.000000
# 3 -0.003228 -0.003228 0.012746 0.000000 0.000000 0.000000
# 4 0.000000 0.000000 0.000000 0.042094 0.000000 0.000000
# 5 0.000000 0.000000 0.000000 0.000000 0.042095 0.000000
# 6 0.000000 0.000000 0.000000 0.000000 0.000000 0.041279
#
#
# Mechanical properties :
#
#
# Convention : Reuss Voigt Hill
#
# Bulk Modulus (GPa) = 59.80184 59.97871 59.89027
# Shear Modulus (GPa) = 25.34213 25.69640 25.51927
#
# Velocity S-wave (km/s) = 3.66372 3.68924 3.67651
# Velocity P-wave (km/s) = 7.04075 7.06513 7.05295
#
# Compressibility (1/GPa) = 0.01672189
#
# Stress axis : x y z
#
# Youngs Moduli (GPa) = 69.58005 69.58022 78.45752
#
# Poissons Ratio (x) = 0.41251 0.25323
# Poissons Ratio (y) = 0.41251 0.25323
# Poissons Ratio (z) = 0.22458 0.22458
#
# Static dielectric constant tensor:
#      x y z
#    x 1.683290 0.000000 0.000000 
#    y 0.000000 1.683290 0.000000 
#    z 0.000000 0.000000 1.642190 
# 
# From -- ./inp_files/5297.got.cif
#   From: 2010.05.17/outbox.cif.g08.bks.cpg/sg116_3_cif.got.tgz:5297.got - 2010.05.20 11:11:43.
