data_PCOD9557914
_publ_section_title
;
Structure prediction by ZEFSAII (Michael W. Deem and Ramdas Pophale) SiO2 
 PCOD9557914
Probable space group: P -4 C 2
;
_chemical_formula_sum "Si O2"
_cell_formula_units_Z 34
_cell_length_a 8.805781
_cell_length_b 8.805781
_cell_length_c 23.288923
_cell_angle_alpha 90.000000
_cell_angle_beta 90.000000
_cell_angle_gamma 90.000000
_cell_volume 1805.864521
_symmetry_space_group_name_H-M "P -4 C 2"
_symmetry_group_IT_number 116
_symmetry_cell_setting 'tetragonal'
loop_
_space_group_symop_operation_xyz
x,y,z
y,-x,-z
-x,-y,z
-y,x,-z
y,x,1/2-z
-y,-x,1/2-z
-x,y,1/2+z
x,-y,1/2+z
loop_
_atom_site_type_symbol
_atom_site_label
_atom_site_fract_x
_atom_site_fract_y
_atom_site_fract_z
Si Si1 0.927194 0.755041 0.502948
Si Si2 0.842590 0.543580 0.395589
Si Si3 0.596821 0.343420 0.814730
Si Si4 0.393288 0.733392 0.409832
Si Si5 0.500000 0.500000 0.000000
O O1 0.889739 0.636157 0.452424
O O2 0.883568 0.671738 0.561702
O O3 0.097906 0.817636 0.502124
O O4 0.741227 0.647853 0.355515
O O5 0.742445 0.391549 0.404736
O O6 0.000000 0.500000 0.366127
O O7 0.500000 0.500000 0.817454
O O8 0.659034 0.340967 0.750000
O O9 0.478247 0.238079 0.849649
O O10 0.499058 0.645073 0.457297
#
# Coordination Sequence:
#
# PCOD9557914 Si02
#       5
#     8   8   8   8   2
#     4  11  23  35  50  83 121 147 173 220 284 347
#     4  11  20  33  55  79 109 141 181 223 275 327
#     4   9  19  35  55  80 108 140 189 239 270 311
#     4  11  18  32  55  78 108 144 176 225 273 322
#     4  12  16  28  54  84 104 124 176 222 268 316
#
# _framework density 18.827546999999999
#
# number of rings (size 3 to 8) (size 9 to 14) (size 15 to 20)
#    0.000    1.412    8.235    0.000    0.000    0.000 
#    0.000    2.353    0.000    0.000    0.000    0.000 
#    0.000    0.000    0.000    0.000    0.000    0.000 
#
# Total GULP energy -189404.938739 kJ/mol
# GULP energy per Si atom -5570.733492 kJ/mol
# Density = 1.878469 g / cm^3
# Si number density = 18.827547 Si / 1000 Ang^3
#
#
#
# Elastic Constant Matrix: (Units=GPa)
#
#
# Indices 1 2 3 4 5 6 
#
# 1 62.3340 16.5123 27.6518 0.0000 0.0000 0.0000
# 2 16.5123 62.3340 27.6517 0.0000 0.0000 0.0000
# 3 27.6518 27.6517 92.6494 0.0000 0.0000 0.0000
# 4 0.0000 0.0000 0.0000 9.2545 0.0000 0.0000
# 5 0.0000 0.0000 0.0000 0.0000 9.2545 0.0000
# 6 0.0000 0.0000 0.0000 0.0000 0.0000 17.4714
#
#
#
# Elastic Compliance Matrix: (Units=1/GPa)
#
#
# Indices 1 2 3 4 5 6 
#
# 1 0.018932 -0.002891 -0.004788 0.000000 0.000000 0.000000
# 2 -0.002891 0.018932 -0.004787 0.000000 0.000000 0.000000
# 3 -0.004788 -0.004787 0.013651 0.000000 0.000000 0.000000
# 4 0.000000 0.000000 0.000000 0.108056 0.000000 0.000000
# 5 0.000000 0.000000 0.000000 0.000000 0.108055 0.000000
# 6 0.000000 0.000000 0.000000 0.000000 0.000000 0.057236
#
#
# Mechanical properties :
#
#
# Convention : Reuss Voigt Hill
#
# Bulk Modulus (GPa) = 37.61818 40.10545 38.86181
# Shear Modulus (GPa) = 13.94090 16.89619 15.41855
#
# Velocity S-wave (km/s) = 2.72408 2.99894 2.86481
# Velocity P-wave (km/s) = 5.46973 5.77402 5.62393
#
# Compressibility (1/GPa) = 0.02658289
#
# Stress axis : x y z
#
# Youngs Moduli (GPa) = 52.81977 52.81981 73.25421
#
# Poissons Ratio (x) = 0.15272 0.35070
# Poissons Ratio (y) = 0.15272 0.35070
# Poissons Ratio (z) = 0.25287 0.25287
#
# Static dielectric constant tensor:
#      x y z
#    x 1.681490 0.000000 0.000000 
#    y 0.000000 1.681490 0.000000 
#    z 0.000000 0.000000 1.691360 
# 
# From -- ./inp_files/3882.got.cif
#   From: 2010.05.17/outbox.cif.g08.bks.cpg/sg116_2_cif.got.tgz:3882.got - 2010.05.20 11:11:43.
