data_PCOD9557603
_publ_section_title
;
Structure prediction by ZEFSAII (Michael W. Deem and Ramdas Pophale) SiO2 
 PCOD9557603
Probable space group: P -4 C 2
;
_chemical_formula_sum "Si O2"
_cell_formula_units_Z 56
_cell_length_a 14.309292
_cell_length_b 14.309292
_cell_length_c 12.559424
_cell_angle_alpha 90.000000
_cell_angle_beta 90.000000
_cell_angle_gamma 90.000000
_cell_volume 2571.615380
_symmetry_space_group_name_H-M "P -4 C 2"
_symmetry_group_IT_number 116
_symmetry_cell_setting 'tetragonal'
loop_
_space_group_symop_operation_xyz
x,y,z
y,-x,-z
-x,-y,z
-y,x,-z
y,x,1/2-z
-y,-x,1/2-z
-x,y,1/2+z
x,-y,1/2+z
loop_
_atom_site_type_symbol
_atom_site_label
_atom_site_fract_x
_atom_site_fract_y
_atom_site_fract_z
Si Si1 0.309171 0.653370 0.501946
Si Si2 0.704281 0.014634 0.134559
Si Si3 0.755651 0.813252 0.144440
Si Si4 0.567492 0.167579 0.159817
Si Si5 0.131512 0.923680 0.002751
Si Si6 0.435250 0.081066 0.989775
Si Si7 0.528824 0.272276 0.367767
O O1 0.301827 0.754486 0.557735
O O2 0.218821 0.628675 0.431079
O O3 0.307036 0.571586 0.590340
O O4 0.396051 0.657860 0.420887
O O5 0.726334 0.915507 0.185701
O O6 0.657527 0.974529 0.024307
O O7 0.634233 0.082525 0.196458
O O8 0.797192 0.068917 0.100646
O O9 0.753509 0.753509 0.250000
O O10 0.855562 0.829133 0.087816
O O11 0.481035 0.117507 0.101312
O O12 0.537072 0.246732 0.243406
O O13 0.029982 0.884653 0.035290
O O14 0.500000 0.000000 0.942955
O O15 0.443381 0.170667 0.916067
#
# Coordination Sequence:
#
# PCOD9557603 Si02
#       7
#     8   8   8   8   8   8   8
#     4  11  24  45  65  98 139 170 231 291 346 409
#     4  10  19  38  62  93 134 173 224 277 343 406
#     4  11  23  38  63  92 128 181 224 275 345 414
#     4  10  22  41  64  99 129 170 224 281 342 418
#     4   9  19  38  60  85 132 180 219 279 334 404
#     4   9  20  36  58  92 133 162 215 278 337 394
#     4  11  24  42  70  93 134 179 223 286 352 414
#
# _framework density 21.776198000000001
#
# number of rings (size 3 to 8) (size 9 to 14) (size 15 to 20)
#    0.000    1.857    2.857    0.429    2.000    3.143 
#    0.000    5.714    0.000    3.429    0.000    0.000 
#    0.000    0.000    0.000    0.000    0.000    0.000 
#
# Total GULP energy -312088.530274 kJ/mol
# GULP energy per Si atom -5573.009469 kJ/mol
# Density = 2.172663 g / cm^3
# Si number density = 21.776198 Si / 1000 Ang^3
#
#
#
# Elastic Constant Matrix: (Units=GPa)
#
#
# Indices 1 2 3 4 5 6 
#
# 1 69.0414 34.9301 13.5148 0.0000 0.0000 0.0000
# 2 34.9301 69.0414 13.5148 0.0000 0.0000 0.0000
# 3 13.5148 13.5148 39.7825 0.0000 0.0000 0.0000
# 4 0.0000 0.0000 0.0000 17.5117 0.0000 0.0000
# 5 0.0000 0.0000 0.0000 0.0000 17.5117 0.0000
# 6 0.0000 0.0000 0.0000 0.0000 0.0000 27.4752
#
#
#
# Elastic Compliance Matrix: (Units=1/GPa)
#
#
# Indices 1 2 3 4 5 6 
#
# 1 0.019933 -0.009383 -0.003584 0.000000 0.000000 0.000000
# 2 -0.009383 0.019933 -0.003584 0.000000 0.000000 0.000000
# 3 -0.003584 -0.003584 0.027572 0.000000 0.000000 0.000000
# 4 0.000000 0.000000 0.000000 0.057105 0.000000 0.000000
# 5 0.000000 0.000000 0.000000 0.000000 0.057105 0.000000
# 6 0.000000 0.000000 0.000000 0.000000 0.000000 0.036396
#
#
# Mechanical properties :
#
#
# Convention : Reuss Voigt Hill
#
# Bulk Modulus (GPa) = 29.12436 33.53162 31.32799
# Shear Modulus (GPa) = 19.04111 20.22677 19.63394
#
# Velocity S-wave (km/s) = 2.96023 3.05101 3.00596
# Velocity P-wave (km/s) = 5.00873 5.27667 5.14445
#
# Compressibility (1/GPa) = 0.03433551
#
# Stress axis : x y z
#
# Youngs Moduli (GPa) = 50.16871 50.16871 36.26902
#
# Poissons Ratio (x) = 0.47073 0.12999
# Poissons Ratio (y) = 0.47073 0.12999
# Poissons Ratio (z) = 0.17980 0.17980
#
# Static dielectric constant tensor:
#      x y z
#    x 1.841810 0.000000 0.000000 
#    y 0.000000 1.841810 0.000000 
#    z 0.000000 0.000000 1.802510 
# 
# From -- ./inp_files/1983.got.cif
#   From: 2010.05.17/outbox.cif.g08.bks.cpg/sg116_1_cif.got.tgz:1983.got - 2010.05.20 11:11:43.
