data_PCOD9557377
_publ_section_title
;
Structure prediction by ZEFSAII (Michael W. Deem and Ramdas Pophale) SiO2 
 PCOD9557377
Probable space group: P -4 M 2
;
_chemical_formula_sum "Si O2"
_cell_formula_units_Z 21
_cell_length_a 8.313286
_cell_length_b 8.313286
_cell_length_c 16.341008
_cell_angle_alpha 90.000000
_cell_angle_beta 90.000000
_cell_angle_gamma 90.000000
_cell_volume 1129.338896
_symmetry_space_group_name_H-M "P -4 M 2"
_symmetry_group_IT_number 115
_symmetry_cell_setting 'tetragonal'
loop_
_space_group_symop_operation_xyz
x,y,z
y,-x,-z
-x,-y,z
-y,x,-z
y,x,-z
-y,-x,-z
-x,y,z
x,-y,z
loop_
_atom_site_type_symbol
_atom_site_label
_atom_site_fract_x
_atom_site_fract_y
_atom_site_fract_z
Si Si1 0.194254 0.186777 0.909237
Si Si2 0.000000 0.820653 0.339796
Si Si3 0.691328 0.322872 0.740686
Si Si4 0.000000 0.000000 0.500000
O O1 0.256055 0.289660 0.833919
O O2 0.000000 0.187592 0.909233
O O3 0.245861 0.000000 0.897805
O O4 0.243298 0.243298 0.000000
O O5 0.166557 0.743953 0.310744
O O6 0.000000 0.851008 0.437346
O O7 0.000000 0.000000 0.301479
O O8 0.500000 0.327729 0.737373
O O9 0.753764 0.500000 0.714331
#
# Coordination Sequence:
#
# PCOD9557377 Si02
#       4
#     8   4   8   1
#     4   9  18  33  54  83 120 165 216 263 302 349
#     4  10  21  43  68  91 116 147 203 255 301 379
#     4  11  23  37  58  91 130 169 204 250 310 367
#     4   8  24  44  72  96 110 144 192 244 320 372
#
# _framework density 18.594951999999999
#
# number of rings (size 3 to 8) (size 9 to 14) (size 15 to 20)
#    0.571    1.524    1.905    2.857    0.000    4.571 
#    0.000    9.524    0.000    2.286    0.000    0.000 
#    0.000    0.000    0.000    0.000    0.000    0.000 
#
# Total GULP energy -117033.652169 kJ/mol
# GULP energy per Si atom -5573.031056 kJ/mol
# Density = 1.855263 g / cm^3
# Si number density = 18.594952 Si / 1000 Ang^3
#
#
#
# Elastic Constant Matrix: (Units=GPa)
#
#
# Indices 1 2 3 4 5 6 
#
# 1 94.2257 43.4930 49.5660 0.0000 0.0000 0.0000
# 2 43.4930 94.2257 49.5660 0.0000 0.0000 0.0000
# 3 49.5660 49.5660 124.8646 0.0000 0.0000 0.0000
# 4 0.0000 0.0000 0.0000 390.7407 0.0000 0.0000
# 5 0.0000 0.0000 0.0000 0.0000 390.7407 0.0000
# 6 0.0000 0.0000 0.0000 0.0000 0.0000 24.9685
#
#
#
# Elastic Compliance Matrix: (Units=1/GPa)
#
#
# Indices 1 2 3 4 5 6 
#
# 1 0.014939 -0.004773 -0.004035 0.000000 0.000000 0.000000
# 2 -0.004773 0.014939 -0.004035 0.000000 0.000000 0.000000
# 3 -0.004035 -0.004035 0.011213 0.000000 0.000000 0.000000
# 4 0.000000 0.000000 0.000000 0.002559 0.000000 0.000000
# 5 0.000000 0.000000 0.000000 0.000000 0.002559 0.000000
# 6 0.000000 0.000000 0.000000 0.000000 0.000000 0.040050
#
#
# Mechanical properties :
#
#
# Convention : Reuss Voigt Hill
#
# Bulk Modulus (GPa) = 64.92421 66.50734 65.71577
# Shear Modulus (GPa) = 42.70594 172.66939 107.68767
#
# Velocity S-wave (km/s) = 4.79753 9.64675 7.61827
# Velocity P-wave (km/s) = 8.10427 12.64609 10.62080
#
# Compressibility (1/GPa) = 0.01540258
#
# Stress axis : x y z
#
# Youngs Moduli (GPa) = 66.94089 66.94089 89.18614
#
# Poissons Ratio (x) = 0.31948 0.35991
# Poissons Ratio (y) = 0.31948 0.35991
# Poissons Ratio (z) = 0.27014 0.27014
#
# Static dielectric constant tensor:
#      x y z
#    x 0.205280 0.000000 0.000000 
#    y 0.000000 0.205280 0.000000 
#    z 0.000000 0.000000 1.634550 
# 
# From -- ./inp_files/3949.got.cif
#   From: 2010.05.17/outbox.cif.g08.bks.cpg/sg115_2_cif.got.tgz:3949.got - 2010.05.20 11:07:42.
