data_PCOD9557522
_publ_section_title
;
Structure prediction by ZEFSAII (Michael W. Deem and Ramdas Pophale) SiO2 
 PCOD9557522
Probable space group: P -4 C 2
;
_chemical_formula_sum "Si O2"
_cell_formula_units_Z 48
_cell_length_a 18.876831
_cell_length_b 18.876831
_cell_length_c 5.637803
_cell_angle_alpha 90.000000
_cell_angle_beta 90.000000
_cell_angle_gamma 90.000000
_cell_volume 2008.945115
_symmetry_space_group_name_H-M "P -4 C 2"
_symmetry_group_IT_number 116
_symmetry_cell_setting 'tetragonal'
loop_
_space_group_symop_operation_xyz
x,y,z
y,-x,-z
-x,-y,z
-y,x,-z
y,x,1/2-z
-y,-x,1/2-z
-x,y,1/2+z
x,-y,1/2+z
loop_
_atom_site_type_symbol
_atom_site_label
_atom_site_fract_x
_atom_site_fract_y
_atom_site_fract_z
Si Si1 0.755540 0.806819 0.000000
Si Si2 0.133163 0.608999 0.500001
Si Si3 0.404948 0.134327 0.999999
Si Si4 0.114570 0.094625 0.500000
Si Si5 0.514760 0.735447 0.499999
Si Si6 0.962715 0.269541 0.500000
O O1 0.765334 0.765334 0.250000
O O2 0.765334 0.765334 0.750000
O O3 0.677249 0.840984 1.000000
O O4 0.820260 0.864673 0.000000
O O5 0.100260 0.581495 0.254739
O O6 0.216414 0.586821 0.500001
O O7 0.112713 0.691135 0.500000
O O8 0.100260 0.581495 0.745262
O O9 0.455585 0.202621 0.999999
O O10 0.079704 0.079704 0.750000
O O11 0.187003 0.051201 0.500000
O O12 0.079704 0.079704 0.250000
O O13 0.500000 0.697024 0.749999
O O14 0.000000 0.288140 0.750000
#
# Coordination Sequence:
#
# PCOD9557522 Si02
#       6
#     8   8   8   8   8   8
#     4  10  18  27  44  70  92 115 151 195 253 301
#     4  10  18  32  49  67  92 130 165 194 235 277
#     4  10  17  30  50  71  93 121 162 210 250 281
#     4  10  19  34  53  74  98 126 158 197 246 296
#     4   8  16  27  46  67  88 121 165 206 239 270
#     4  12  24  36  52  77 109 137 163 201 247 292
#
# _framework density 23.893135999999998
#
# number of rings (size 3 to 8) (size 9 to 14) (size 15 to 20)
#    0.000    2.000    0.000    7.000    0.000    0.000 
#    0.000    0.000    0.000   27.000    0.000    0.000 
#    0.000   23.333    0.000    0.000    0.000    0.000 
#
# Total GULP energy -267738.660742 kJ/mol
# GULP energy per Si atom -5577.888765 kJ/mol
# Density = 2.383875 g / cm^3
# Si number density = 23.893136 Si / 1000 Ang^3
#
#
#
# Elastic Constant Matrix: (Units=GPa)
#
#
# Indices 1 2 3 4 5 6 
#
# 1 82.8523 3.8172 22.1218 0.0000 0.0000 0.0000
# 2 3.8172 82.8523 22.1218 0.0000 0.0000 0.0000
# 3 22.1218 22.1218 329.9894 0.0000 0.0000 0.0000
# 4 0.0000 0.0000 0.0000 13.2745 0.0000 0.0000
# 5 0.0000 0.0000 0.0000 0.0000 13.2745 0.0000
# 6 0.0000 0.0000 0.0000 0.0000 0.0000 -5.8150
#
#
#
# Elastic Compliance Matrix: (Units=1/GPa)
#
#
# Indices 1 2 3 4 5 6 
#
# 1 0.012300 -0.000353 -0.000801 0.000000 0.000000 0.000000
# 2 -0.000353 0.012300 -0.000801 0.000000 0.000000 0.000000
# 3 -0.000801 -0.000801 0.003138 0.000000 0.000000 0.000000
# 4 0.000000 0.000000 0.000000 0.075332 0.000000 0.000000
# 5 0.000000 0.000000 0.000000 0.000000 0.075332 0.000000
# 6 0.000000 0.000000 0.000000 0.000000 0.000000 -0.171970
#
#
# Mechanical properties :
#
#
# Convention : Reuss Voigt Hill
#
# Bulk Modulus (GPa) = 41.96731 65.75728 53.86229
# Shear Modulus (GPa) = 273.47071 33.98903 153.72987
#
# Velocity S-wave (km/s) = 10.71001 3.77575 8.02996
# Velocity P-wave (km/s) = 13.05916 6.82566 10.41948
#
# Compressibility (1/GPa) = 0.02382807
#
# Stress axis : x y z
#
# Youngs Moduli (GPa) = 81.30232 81.30232 318.69652
#
# Poissons Ratio (x) = 0.02869 0.25524
# Poissons Ratio (y) = 0.02869 0.25524
# Poissons Ratio (z) = 0.06511 0.06511
#
# Static dielectric constant tensor:
#      x y z
#    x 1.905280 0.000000 0.000000 
#    y 0.000000 1.905280 0.000000 
#    z 0.000000 0.000000 2.084340 
# 
# From -- ./inp_files/180.got.cif
#   From: 2010.05.17/outbox.cif.g08.bks.cpg/sg116_1_cif.got.tgz:180.got - 2010.05.20 11:11:43.
