data_PCOD9557325
_publ_section_title
;
Structure prediction by ZEFSAII (Michael W. Deem and Ramdas Pophale) SiO2 
 PCOD9557325
Probable space group: P -4 M 2
;
_chemical_formula_sum "Si O2"
_cell_formula_units_Z 20
_cell_length_a 9.125217
_cell_length_b 9.125217
_cell_length_c 13.121266
_cell_angle_alpha 90.000000
_cell_angle_beta 90.000000
_cell_angle_gamma 90.000000
_cell_volume 1092.602378
_symmetry_space_group_name_H-M "P -4 M 2"
_symmetry_group_IT_number 115
_symmetry_cell_setting 'tetragonal'
loop_
_space_group_symop_operation_xyz
x,y,z
y,-x,-z
-x,-y,z
-y,x,-z
y,x,-z
-y,-x,-z
-x,y,z
x,-y,z
loop_
_atom_site_type_symbol
_atom_site_label
_atom_site_fract_x
_atom_site_fract_y
_atom_site_fract_z
Si Si1 0.673453 0.675237 0.808119
Si Si2 0.826719 0.325408 0.595210
Si Si3 0.174029 0.825972 0.000000
O O1 0.500000 0.704174 0.805990
O O2 0.694196 0.500000 0.822499
O O3 0.746046 0.715449 0.700208
O O4 0.749085 0.759342 0.900522
O O5 0.760218 0.239783 0.500000
O O6 0.804060 0.500000 0.579682
O O7 0.000000 0.299058 0.604692
O O8 0.000000 0.800189 0.994670
#
# Coordination Sequence:
#
# PCOD9557325 Si02
#       3
#     8   8   4
#     4  10  21  38  61  86 111 144 188 234 279 330
#     4  10  21  37  58  84 114 149 188 230 278 331
#     4  11  24  39  56  82 116 151 186 227 278 334
#
# _framework density 18.304922000000001
#
# number of rings (size 3 to 8) (size 9 to 14) (size 15 to 20)
#    0.000    1.800    0.000    3.600    0.000   10.400 
#    0.000    0.000    0.000    0.000    0.000    0.000 
#    0.000    0.000    0.000    0.000    0.000    0.000 
#
# Total GULP energy -111799.314837 kJ/mol
# GULP energy per Si atom -5589.965742 kJ/mol
# Density = 1.826326 g / cm^3
# Si number density = 18.304922 Si / 1000 Ang^3
#
#
#
# Elastic Constant Matrix: (Units=GPa)
#
#
# Indices 1 2 3 4 5 6 
#
# 1 99.1724 94.1913 112.6642 0.0000 0.0000 0.0000
# 2 94.1913 99.1750 112.6681 0.0000 0.0000 0.0000
# 3 112.6642 112.6681 211.7503 0.0000 0.0000 0.0000
# 4 0.0000 0.0000 0.0000 2249.8855 0.0000 0.0000
# 5 0.0000 0.0000 0.0000 0.0000 2252.6693 0.0000
# 6 0.0000 0.0000 0.0000 0.0000 0.0000 31.0562
#
#
#
# Elastic Compliance Matrix: (Units=1/GPa)
#
#
# Indices 1 2 3 4 5 6 
#
# 1 0.107157 -0.093548 -0.007239 0.000000 0.000000 0.000000
# 2 -0.093548 0.107161 -0.007245 0.000000 0.000000 0.000000
# 3 -0.007239 -0.007245 0.012429 0.000000 0.000000 0.000000
# 4 0.000000 0.000000 0.000000 0.000444 0.000000 0.000000
# 5 0.000000 0.000000 0.000000 0.000000 0.000444 0.000000
# 6 0.000000 0.000000 0.000000 0.000000 0.000000 0.032200
#
#
# Mechanical properties :
#
#
# Convention : Reuss Voigt Hill
#
# Bulk Modulus (GPa) = 93.60817 116.57166 105.08991
# Shear Modulus (GPa) = 10.42843 912.76047 461.59445
#
# Velocity S-wave (km/s) = 2.38944 22.35452 15.89708
# Velocity P-wave (km/s) = 7.67215 27.02075 19.86181
#
# Compressibility (1/GPa) = 0.01068283
#
# Stress axis : x y z
#
# Youngs Moduli (GPa) = 9.33214 9.33177 80.45802
#
# Poissons Ratio (x) = 0.87297 0.58242
# Poissons Ratio (y) = 0.87300 0.58290
# Poissons Ratio (z) = 0.06755 0.06761
#
# Static dielectric constant tensor:
#      x y z
#    x 1.600270 0.000000 0.000000 
#    y 0.000000 1.600290 0.000000 
#    z 0.000000 0.000000 1.583480 
# 
# From -- ./inp_files/2253.got.cif
#   From: 2010.05.17/outbox.cif.g08.bks.cpg/sg115_2_cif.got.tgz:2253.got - 2010.05.20 11:07:42.
