data_PCOD9557560
_publ_section_title
;
Structure prediction by ZEFSAII (Michael W. Deem and Ramdas Pophale) SiO2 
 PCOD9557560
Probable space group: P -4 C 2
;
_chemical_formula_sum "Si O2"
_cell_formula_units_Z 64
_cell_length_a 20.647361
_cell_length_b 20.647361
_cell_length_c 8.770457
_cell_angle_alpha 90.000000
_cell_angle_beta 90.000000
_cell_angle_gamma 90.000000
_cell_volume 3738.964363
_symmetry_space_group_name_H-M "P -4 C 2"
_symmetry_group_IT_number 116
_symmetry_cell_setting 'tetragonal'
loop_
_space_group_symop_operation_xyz
x,y,z
y,-x,-z
-x,-y,z
-y,x,-z
y,x,1/2-z
-y,-x,1/2-z
-x,y,1/2+z
x,-y,1/2+z
loop_
_atom_site_type_symbol
_atom_site_label
_atom_site_fract_x
_atom_site_fract_y
_atom_site_fract_z
Si Si1 0.326714 0.226917 0.325150
Si Si2 0.868267 0.583592 0.739209
Si Si3 0.568768 0.340172 0.846577
Si Si4 0.383801 0.902270 0.719145
Si Si5 0.224897 0.678946 0.314380
Si Si6 0.691070 0.447868 0.332915
Si Si7 0.992216 0.575660 0.548962
Si Si8 0.490284 0.818871 0.549122
O O1 0.270990 0.270990 0.250000
O O2 0.392587 0.271543 0.318286
O O3 0.332978 0.155877 0.248818
O O4 0.314809 0.218768 0.504756
O O5 0.841593 0.656229 0.735989
O O6 0.940838 0.573992 0.688353
O O7 0.828509 0.540828 0.615343
O O8 0.852665 0.557998 0.907875
O O9 0.607416 0.392584 0.750000
O O10 0.494436 0.337869 0.793300
O O11 0.572494 0.353974 0.026684
O O12 0.382136 0.955487 0.581080
O O13 0.443796 0.858209 0.662543
O O14 0.396415 0.943828 0.871302
O O15 0.257540 0.742461 0.250000
O O16 0.272774 0.617432 0.280610
O O17 0.745179 0.494310 0.413402
O O18 0.000000 0.500000 0.499427
#
# Coordination Sequence:
#
# PCOD9557560 Si02
#       8
#     8   8   8   8   8   8   8   8
#     4  10  23  39  56  77 107 142 194 242 288 331
#     4  10  22  32  50  73 110 142 180 224 276 338
#     4  10  21  35  54  76  95 126 170 228 288 353
#     4  11  23  35  53  76 114 147 186 229 278 336
#     4  10  23  36  56  79 103 137 190 239 292 337
#     4  10  19  33  53  75  97 124 164 225 285 343
#     4  11  23  34  51  80 115 152 188 225 287 347
#     4  10  19  31  51  72 101 137 179 215 277 328
#
# _framework density 17.117041
#
# number of rings (size 3 to 8) (size 9 to 14) (size 15 to 20)
#    0.000    1.750    2.500    1.875   10.500    4.000 
#    0.000    0.000    0.000    3.000    0.000    0.000 
#    0.000    0.000    0.000    0.000    0.000    5.000 
#
# Total GULP energy -356741.956851 kJ/mol
# GULP energy per Si atom -5574.093076 kJ/mol
# Density = 1.707808 g / cm^3
# Si number density = 17.117041 Si / 1000 Ang^3
#
#
#
# Elastic Constant Matrix: (Units=GPa)
#
#
# Indices 1 2 3 4 5 6 
#
# 1 51.1910 18.5807 29.8738 0.0000 0.0000 0.0000
# 2 18.5807 51.1886 29.8728 0.0000 0.0000 0.0000
# 3 29.8738 29.8728 50.7251 0.0000 0.0000 0.0000
# 4 0.0000 0.0000 0.0000 24.1123 0.0000 0.0000
# 5 0.0000 0.0000 0.0000 0.0000 24.1127 0.0000
# 6 0.0000 0.0000 0.0000 0.0000 0.0000 20.5881
#
#
#
# Elastic Compliance Matrix: (Units=1/GPa)
#
#
# Indices 1 2 3 4 5 6 
#
# 1 0.029790 -0.000876 -0.017029 0.000000 0.000000 0.000000
# 2 -0.000876 0.029791 -0.017029 0.000000 0.000000 0.000000
# 3 -0.017029 -0.017029 0.039771 0.000000 0.000000 0.000000
# 4 0.000000 0.000000 0.000000 0.041473 0.000000 0.000000
# 5 0.000000 0.000000 0.000000 0.000000 0.041472 0.000000
# 6 0.000000 0.000000 0.000000 0.000000 0.000000 0.048572
#
#
# Mechanical properties :
#
#
# Convention : Reuss Voigt Hill
#
# Bulk Modulus (GPa) = 33.91403 34.41770 34.16586
# Shear Modulus (GPa) = 16.09974 18.74777 17.42376
#
# Velocity S-wave (km/s) = 3.07020 3.31308 3.19395
# Velocity P-wave (km/s) = 5.69422 5.89798 5.79700
#
# Compressibility (1/GPa) = 0.02948632
#
# Stress axis : x y z
#
# Youngs Moduli (GPa) = 33.56822 33.56704 25.14372
#
# Poissons Ratio (x) = 0.02940 0.42816
# Poissons Ratio (y) = 0.02940 0.42816
# Poissons Ratio (z) = 0.57162 0.57160
#
# Static dielectric constant tensor:
#      x y z
#    x 1.623320 0.000000 0.000000 
#    y 0.000000 1.623320 0.000000 
#    z 0.000000 0.000000 1.662130 
# 
# From -- ./inp_files/1144.got.cif
#   From: 2010.05.17/outbox.cif.g08.bks.cpg/sg116_1_cif.got.tgz:1144.got - 2010.05.20 11:11:43.
