data_PCOD9557971
_publ_section_title
;
Structure prediction by ZEFSAII (Michael W. Deem and Ramdas Pophale) SiO2 
 PCOD9557971
Probable space group: P -4 C 2
;
_chemical_formula_sum "Si O2"
_cell_formula_units_Z 22
_cell_length_a 5.365167
_cell_length_b 5.365167
_cell_length_c 29.252574
_cell_angle_alpha 90.000000
_cell_angle_beta 90.000000
_cell_angle_gamma 90.000000
_cell_volume 842.035838
_symmetry_space_group_name_H-M "P -4 C 2"
_symmetry_group_IT_number 116
_symmetry_cell_setting 'tetragonal'
loop_
_space_group_symop_operation_xyz
x,y,z
y,-x,-z
-x,-y,z
-y,x,-z
y,x,1/2-z
-y,-x,1/2-z
-x,y,1/2+z
x,-y,1/2+z
loop_
_atom_site_type_symbol
_atom_site_label
_atom_site_fract_x
_atom_site_fract_y
_atom_site_fract_z
Si Si1 0.500000 0.500000 0.000000
Si Si2 0.251131 0.865974 0.601890
Si Si3 0.000000 0.500000 0.541293
Si Si4 0.246153 0.662033 0.699032
O O1 0.376417 0.217577 0.989759
O O2 0.207578 0.602890 0.578389
O O3 0.256502 0.848574 0.656776
O O4 0.500000 0.000000 0.587457
O O5 0.000000 0.000000 0.587143
O O6 0.500000 0.500000 0.697127
O O7 0.228482 0.771519 0.750000
O O8 0.000000 0.500000 0.691721
#
# Coordination Sequence:
#
# PCOD9557971 Si02
#       4
#     2   8   4   8
#     4  12  32  52  88 112 166 200 276 344 416 500
#     4  12  26  46  80 113 155 209 264 328 403 483
#     4  12  30  54  76 120 154 208 264 344 416 494
#     4  11  24  45  71 111 157 206 265 324 385 469
#
# _framework density 26.127153
#
# number of rings (size 3 to 8) (size 9 to 14) (size 15 to 20)
#    0.000    0.364    1.818    5.455   10.182    3.636 
#    0.000    0.000    0.000    0.000    0.000    0.000 
#    0.000    0.000    0.000    0.000    0.000    0.000 
#
# Total GULP energy -122576.029513 kJ/mol
# GULP energy per Si atom -5571.637705 kJ/mol
# Density = 2.606769 g / cm^3
# Si number density = 26.127153 Si / 1000 Ang^3
#
#
#
# Elastic Constant Matrix: (Units=GPa)
#
#
# Indices 1 2 3 4 5 6 
#
# 1 170.3804 43.2831 10.6145 0.0000 0.0000 0.0000
# 2 43.2831 170.3802 10.6145 0.0000 0.0000 0.0000
# 3 10.6145 10.6145 97.6322 0.0000 0.0000 0.0000
# 4 0.0000 0.0000 0.0000 36.5018 0.0000 0.0000
# 5 0.0000 0.0000 0.0000 0.0000 36.5021 0.0000
# 6 0.0000 0.0000 0.0000 0.0000 0.0000 59.5357
#
#
#
# Elastic Compliance Matrix: (Units=1/GPa)
#
#
# Indices 1 2 3 4 5 6 
#
# 1 0.006300 -0.001568 -0.000514 0.000000 0.000000 0.000000
# 2 -0.001568 0.006300 -0.000514 0.000000 0.000000 0.000000
# 3 -0.000514 -0.000514 0.010354 0.000000 0.000000 0.000000
# 4 0.000000 0.000000 0.000000 0.027396 0.000000 0.000000
# 5 0.000000 0.000000 0.000000 0.000000 0.027396 0.000000
# 6 0.000000 0.000000 0.000000 0.000000 0.000000 0.016797
#
#
# Mechanical properties :
#
#
# Convention : Reuss Voigt Hill
#
# Bulk Modulus (GPa) = 56.30776 63.04634 59.67705
# Shear Modulus (GPa) = 47.32336 51.43328 49.37832
#
# Velocity S-wave (km/s) = 4.26052 4.44168 4.35204
# Velocity P-wave (km/s) = 6.76764 7.10546 6.93861
#
# Compressibility (1/GPa) = 0.01775954
#
# Stress axis : x y z
#
# Youngs Moduli (GPa) = 158.73824 158.73809 96.57756
#
# Poissons Ratio (x) = 0.24895 0.04968
# Poissons Ratio (y) = 0.24895 0.04968
# Poissons Ratio (z) = 0.08165 0.08165
#
# Static dielectric constant tensor:
#      x y z
#    x 1.723560 0.000000 0.000000 
#    y 0.000000 1.723570 0.000000 
#    z 0.000000 0.000000 2.167080 
# 
# From -- ./inp_files/5034.got.cif
#   From: 2010.05.17/outbox.cif.g08.bks.cpg/sg116_3_cif.got.tgz:5034.got - 2010.05.20 11:11:43.
