data_PCOD9557407
_publ_section_title
;
Structure prediction by ZEFSAII (Michael W. Deem and Ramdas Pophale) SiO2 
 PCOD9557407
Probable space group: P -4 M 2
;
_chemical_formula_sum "Si O2"
_cell_formula_units_Z 33
_cell_length_a 8.437844
_cell_length_b 8.437844
_cell_length_c 23.856697
_cell_angle_alpha 90.000000
_cell_angle_beta 90.000000
_cell_angle_gamma 90.000000
_cell_volume 1698.530299
_symmetry_space_group_name_H-M "P -4 M 2"
_symmetry_group_IT_number 115
_symmetry_cell_setting 'tetragonal'
loop_
_space_group_symop_operation_xyz
x,y,z
y,-x,-z
-x,-y,z
-y,x,-z
y,x,-z
-y,-x,-z
-x,y,z
x,-y,z
loop_
_atom_site_type_symbol
_atom_site_label
_atom_site_fract_x
_atom_site_fract_y
_atom_site_fract_z
Si Si1 0.500000 0.805669 0.919067
Si Si2 0.809822 0.179843 0.280589
Si Si3 0.500000 0.500000 0.000000
Si Si4 0.819983 0.819983 0.500000
Si Si5 0.313937 0.326261 0.392597
Si Si6 0.817004 0.191690 0.845933
O O1 0.335470 0.774375 0.884699
O O2 0.500000 0.000000 0.932887
O O3 0.500000 0.668072 0.966167
O O4 0.760285 0.282124 0.333265
O O5 0.753441 0.220252 0.217765
O O6 0.000000 0.181482 0.278146
O O7 0.756918 0.000000 0.291979
O O8 0.719782 0.785418 0.444944
O O9 0.000000 0.797028 0.481700
O O10 0.500000 0.329790 0.383420
O O11 0.256362 0.500000 0.410328
O O12 0.000000 0.244834 0.860499
O O13 0.826276 0.000000 0.845033
#
# Coordination Sequence:
#
# PCOD9557407 Si02
#       6
#     4   8   1   4   8   8
#     4  10  22  42  66  90 128 174 209 253 318 361
#     4   9  18  34  57  85 114 145 191 243 288 346
#     4  12  28  44  60 104 132 164 216 274 284 364
#     4  11  24  41  60  78  98 135 190 245 294 348
#     4  11  24  38  52  78 113 148 185 232 290 356
#     4   8  16  34  61  91 121 159 207 254 303 366
#
# _framework density 19.428560999999998
#
# number of rings (size 3 to 8) (size 9 to 14) (size 15 to 20)
#    0.000    2.303    0.000    3.636    1.697    8.727 
#    2.182    0.000    0.000    0.000    0.000    0.000 
#    0.000    0.000    0.000    0.000    0.000    0.000 
#
# Total GULP energy -183711.807858 kJ/mol
# GULP energy per Si atom -5567.024481 kJ/mol
# Density = 1.938434 g / cm^3
# Si number density = 19.428561 Si / 1000 Ang^3
#
#
#
# Elastic Constant Matrix: (Units=GPa)
#
#
# Indices 1 2 3 4 5 6 
#
# 1 62.9692 16.8562 39.6006 0.0000 0.0000 0.0000
# 2 16.8562 62.9692 39.6006 0.0000 0.0000 0.0000
# 3 39.6006 39.6006 83.9410 0.0000 0.0000 0.0000
# 4 0.0000 0.0000 0.0000 51.2068 0.0000 0.0000
# 5 0.0000 0.0000 0.0000 0.0000 51.2068 0.0000
# 6 0.0000 0.0000 0.0000 0.0000 0.0000 20.6752
#
#
#
# Elastic Compliance Matrix: (Units=1/GPa)
#
#
# Indices 1 2 3 4 5 6 
#
# 1 0.022618 0.000933 -0.011111 0.000000 0.000000 0.000000
# 2 0.000933 0.022618 -0.011111 0.000000 0.000000 0.000000
# 3 -0.011111 -0.011111 0.022396 0.000000 0.000000 0.000000
# 4 0.000000 0.000000 0.000000 0.019529 0.000000 0.000000
# 5 0.000000 0.000000 0.000000 0.000000 0.019529 0.000000
# 6 0.000000 0.000000 0.000000 0.000000 0.000000 0.048367
#
#
# Mechanical properties :
#
#
# Convention : Reuss Voigt Hill
#
# Bulk Modulus (GPa) = 39.91054 44.66604 42.28829
# Shear Modulus (GPa) = 24.27336 32.20589 28.23962
#
# Velocity S-wave (km/s) = 3.53847 4.07585 3.81663
# Velocity P-wave (km/s) = 6.10583 6.72234 6.42149
#
# Compressibility (1/GPa) = 0.02505603
#
# Stress axis : x y z
#
# Youngs Moduli (GPa) = 44.21166 44.21166 44.65007
#
# Poissons Ratio (x) = -0.04123 0.49609
# Poissons Ratio (y) = -0.04123 0.49609
# Poissons Ratio (z) = 0.49122 0.49122
#
# Static dielectric constant tensor:
#      x y z
#    x 1.698030 0.000000 0.000000 
#    y 0.000000 1.698030 0.000000 
#    z 0.000000 0.000000 1.540560 
# 
# From -- ./inp_files/4679.got.cif
#   From: 2010.05.17/outbox.cif.g08.bks.cpg/sg115_3_cif.got.tgz:4679.got - 2010.05.20 11:07:42.
