data_PCOD9557482
_publ_section_title
;
Structure prediction by ZEFSAII (Michael W. Deem and Ramdas Pophale) SiO2 
 PCOD9557482
Probable space group: P -4 M 2
;
_chemical_formula_sum "Si O2"
_cell_formula_units_Z 44
_cell_length_a 9.000000
_cell_length_b 9.000000
_cell_length_c 30.000000
_cell_angle_alpha 90.000000
_cell_angle_beta 90.000000
_cell_angle_gamma 90.000000
_cell_volume 2430.000000
_symmetry_space_group_name_H-M "P -4 M 2"
_symmetry_group_IT_number 115
_symmetry_cell_setting 'tetragonal'
loop_
_space_group_symop_operation_xyz
x,y,z
y,-x,-z
-x,-y,z
-y,x,-z
y,x,-z
-y,-x,-z
-x,y,z
x,-y,z
loop_
_atom_site_type_symbol
_atom_site_label
_atom_site_fract_x
_atom_site_fract_y
_atom_site_fract_z
Si Si1 0.323421 0.323421 0.500000
Si Si2 0.674111 0.820604 0.688654
Si Si3 0.319033 0.671649 0.134637
Si Si4 0.823944 0.676961 0.957118
Si Si5 0.319005 0.826957 0.590573
Si Si6 0.175470 0.322953 0.773842
O O1 0.297913 0.500000 0.501799
O O2 0.254554 0.265952 0.453854
O O3 0.500000 0.780359 0.693138
O O4 0.728310 0.770319 0.639449
O O5 0.761844 0.754779 0.729976
O O6 0.682707 0.000000 0.688884
O O7 0.500000 0.679166 0.134828
O O8 0.275313 0.500000 0.133728
O O9 0.270301 0.752280 0.089394
O O10 0.269275 0.747229 0.180577
O O11 0.794671 0.500000 0.961082
O O12 0.000000 0.698752 0.955271
O O13 0.756103 0.756103 0.000000
O O14 0.500000 0.818321 0.591229
O O15 0.279465 0.000000 0.587228
O O16 0.203177 0.500000 0.769992
O O17 0.000000 0.299932 0.777608
#
# Coordination Sequence:
#
# PCOD9557482 Si02
#       6
#     4   8   8   8   8   8
#     4   9  16  26  44  71  96 118 152 197 240 284
#     4   9  18  33  52  72  95 128 170 209 245 292
#     4   9  17  31  53  78 102 131 168 208 249 294
#     4  10  20  34  53  77 105 136 169 206 248 293
#     4   8  15  29  47  66  91 123 156 193 240 290
#     4  10  20  33  50  75 106 135 164 203 252 301
#
# _framework density 18.106995999999999
#
# number of rings (size 3 to 8) (size 9 to 14) (size 15 to 20)
#    0.000    2.818    0.000    2.727    0.000    5.455 
#    0.000    3.636    0.000    9.000    0.000    0.000 
#    0.000    0.000    0.000    0.000    0.000    0.000 
#
# Total GULP energy -245259.274411 kJ/mol
# GULP energy per Si atom -5574.074418 kJ/mol
# Density = 1.806578 g / cm^3
# Si number density = 18.106996 Si / 1000 Ang^3
#
#
#
# Elastic Constant Matrix: (Units=GPa)
#
#
# Indices 1 2 3 4 5 6 
#
# 1 17.1018 38.1403 57.0008 0.0000 0.0000 0.0000
# 2 38.1403 17.1018 57.0008 0.0000 0.0000 0.0000
# 3 57.0008 57.0008 221.3799 0.0000 0.0000 0.0000
# 4 0.0000 0.0000 0.0000 -116.1553 0.0000 0.0000
# 5 0.0000 0.0000 0.0000 0.0000 -116.1553 0.0000
# 6 0.0000 0.0000 0.0000 0.0000 0.0000 16.8299
#
#
#
# Elastic Compliance Matrix: (Units=1/GPa)
#
#
# Indices 1 2 3 4 5 6 
#
# 1 -0.004453 0.043079 -0.009946 0.000000 0.000000 0.000000
# 2 0.043079 -0.004453 -0.009946 0.000000 0.000000 0.000000
# 3 -0.009946 -0.009946 0.009639 0.000000 0.000000 0.000000
# 4 0.000000 0.000000 0.000000 -0.008609 0.000000 0.000000
# 5 0.000000 0.000000 0.000000 0.000000 -0.008609 0.000000
# 6 0.000000 0.000000 0.000000 0.000000 0.000000 0.059418
#
#
# Mechanical properties :
#
#
# Convention : Reuss Voigt Hill
#
# Bulk Modulus (GPa) = 21.22713 62.20748 41.71730
# Shear Modulus (GPa) = 407.82360 -36.20006 185.81177
#
# Velocity S-wave (km/s) = 15.02394 -4.47613 10.14108
# Velocity P-wave (km/s) = 17.68352 2.77773 12.65746
#
# Compressibility (1/GPa) = 0.04710953
#
# Stress axis : x y z
#
# Youngs Moduli (GPa) = -224.58547 -224.58547 103.74872
#
# Poissons Ratio (x) = 9.67495 1.03184
# Poissons Ratio (y) = 9.67495 1.03184
# Poissons Ratio (z) = -2.23362 -2.23362
#
# Static dielectric constant tensor:
#      x y z
#    x 1.611440 0.000000 0.000000 
#    y 0.000000 1.611440 0.000000 
#    z 0.000000 0.000000 1.619600 
# 
# From -- ./inp_files/5808.got.cif
#   From: 2010.05.17/outbox.ucp.g08.bks.cvg/sg115_3_cif.got.tgz:5808.got - 2010.06.11 11:33:38.
