data_PCOD9557216
_publ_section_title
;
Structure prediction by ZEFSAII (Michael W. Deem and Ramdas Pophale) SiO2 
 PCOD9557216
Probable space group: P -4 M 2
;
_chemical_formula_sum "Si O2"
_cell_formula_units_Z 32
_cell_length_a 9.369971
_cell_length_b 9.369971
_cell_length_c 21.397065
_cell_angle_alpha 90.000000
_cell_angle_beta 90.000000
_cell_angle_gamma 90.000000
_cell_volume 1878.584348
_symmetry_space_group_name_H-M "P -4 M 2"
_symmetry_group_IT_number 115
_symmetry_cell_setting 'tetragonal'
loop_
_space_group_symop_operation_xyz
x,y,z
y,-x,-z
-x,-y,z
-y,x,-z
y,x,-z
-y,-x,-z
-x,y,z
x,-y,z
loop_
_atom_site_type_symbol
_atom_site_label
_atom_site_fract_x
_atom_site_fract_y
_atom_site_fract_z
Si Si1 0.667914 0.670451 0.182297
Si Si2 0.329660 0.169300 0.944499
Si Si3 0.830946 0.329953 0.692040
Si Si4 0.826005 0.834847 0.568561
O O1 0.500000 0.703865 0.171545
O O2 0.679528 0.500000 0.190970
O O3 0.758978 0.710246 0.121592
O O4 0.715031 0.749186 0.245385
O O5 0.500000 0.192976 0.953473
O O6 0.304458 0.000000 0.943262
O O7 0.244080 0.244080 0.000000
O O8 0.812536 0.500000 0.685285
O O9 0.780374 0.253693 0.628810
O O10 0.000000 0.301287 0.699364
O O11 0.780314 0.780314 0.500000
O O12 0.000000 0.831941 0.566736
O O13 0.783200 0.000000 0.575507
#
# Coordination Sequence:
#
# PCOD9557216 Si02
#       4
#     8   8   8   8
#     4   9  18  33  51  69  93 127 161 191 230 283
#     4  10  21  36  54  76 101 129 162 200 241 287
#     4   9  17  29  46  68  92 118 152 194 234 273
#     4   8  14  26  44  64  87 118 154 188 226 277
#
# _framework density 17.034103999999999
#
# number of rings (size 3 to 8) (size 9 to 14) (size 15 to 20)
#    0.000    3.000    0.000    1.500    0.000    3.500 
#    0.000    3.750    0.000    1.500    0.000    0.000 
#    0.000    0.000    0.000    0.000    0.000    0.000 
#
# Total GULP energy -178319.588121 kJ/mol
# GULP energy per Si atom -5572.487129 kJ/mol
# Density = 1.699533 g / cm^3
# Si number density = 17.034104 Si / 1000 Ang^3
#
#
#
# Elastic Constant Matrix: (Units=GPa)
#
#
# Indices 1 2 3 4 5 6 
#
# 1 40.5652 39.6574 78.2723 0.0000 0.0000 0.0000
# 2 39.6574 40.5652 78.2723 0.0000 0.0000 0.0000
# 3 78.2723 78.2723 223.6714 0.0000 0.0000 0.0000
# 4 0.0000 0.0000 0.0000 35.5047 0.0000 0.0000
# 5 0.0000 0.0000 0.0000 0.0000 35.5047 0.0000
# 6 0.0000 0.0000 0.0000 0.0000 0.0000 16.2160
#
#
#
# Elastic Compliance Matrix: (Units=1/GPa)
#
#
# Indices 1 2 3 4 5 6 
#
# 1 0.570439 -0.531132 -0.013755 0.000000 0.000000 0.000000
# 2 -0.531132 0.570439 -0.013755 0.000000 0.000000 0.000000
# 3 -0.013755 -0.013755 0.014098 0.000000 0.000000 0.000000
# 4 0.000000 0.000000 0.000000 0.028165 0.000000 0.000000
# 5 0.000000 0.000000 0.000000 0.000000 0.028165 0.000000
# 6 0.000000 0.000000 0.000000 0.000000 0.000000 0.061667
#
#
# Mechanical properties :
#
#
# Convention : Reuss Voigt Hill
#
# Bulk Modulus (GPa) = 26.53161 77.46734 51.99947
# Shear Modulus (GPa) = 2.08089 24.68507 13.38298
#
# Velocity S-wave (km/s) = 1.10646 3.81091 2.80600
# Velocity P-wave (km/s) = 4.15232 8.05857 6.41024
#
# Compressibility (1/GPa) = 0.03769089
#
# Stress axis : x y z
#
# Youngs Moduli (GPa) = 1.75304 1.75304 70.93256
#
# Poissons Ratio (x) = 0.93109 0.97569
# Poissons Ratio (y) = 0.93109 0.97569
# Poissons Ratio (z) = 0.02411 0.02411
#
# Static dielectric constant tensor:
#      x y z
#    x 1.569290 0.000000 0.000000 
#    y 0.000000 1.569290 0.000000 
#    z 0.000000 0.000000 1.567670 
# 
# From -- ./inp_files/4563.got.cif
#   From: 2010.05.17/outbox.cif.g08.bks.cpg/sg115_3_cif.got.tgz:4563.got - 2010.05.20 11:07:42.
