data_PCOD9557983
_publ_section_title
;
Structure prediction by ZEFSAII (Michael W. Deem and Ramdas Pophale) SiO2 
 PCOD9557983
Probable space group: P -4 C 2
;
_chemical_formula_sum "Si O2"
_cell_formula_units_Z 32
_cell_length_a 8.907499
_cell_length_b 8.907499
_cell_length_c 19.151949
_cell_angle_alpha 90.000000
_cell_angle_beta 90.000000
_cell_angle_gamma 90.000000
_cell_volume 1519.583402
_symmetry_space_group_name_H-M "P -4 C 2"
_symmetry_group_IT_number 116
_symmetry_cell_setting 'tetragonal'
loop_
_space_group_symop_operation_xyz
x,y,z
y,-x,-z
-x,-y,z
-y,x,-z
y,x,1/2-z
-y,-x,1/2-z
-x,y,1/2+z
x,-y,1/2+z
loop_
_atom_site_type_symbol
_atom_site_label
_atom_site_fract_x
_atom_site_fract_y
_atom_site_fract_z
Si Si1 0.554411 0.670864 0.816930
Si Si2 0.328371 0.049571 0.071383
Si Si3 0.141279 0.748981 0.085979
Si Si4 0.249753 0.159143 0.321903
O O1 0.500000 0.500000 0.826864
O O2 0.663573 0.663573 0.750000
O O3 0.638753 0.733925 0.883380
O O4 0.414791 0.780269 0.802550
O O5 0.213245 0.913284 0.084164
O O6 0.500000 0.000000 0.081754
O O7 0.279769 0.178700 0.124862
O O8 0.302583 0.097861 0.991465
O O9 0.997326 0.744280 0.136847
O O10 0.156612 0.156612 0.250000
#
# Coordination Sequence:
#
# PCOD9557983 Si02
#       4
#     8   8   8   8
#     4  11  24  49  74 112 152 197 251 319 375 458
#     4  12  27  48  73 110 149 201 254 314 384 456
#     4  12  27  48  76 106 156 202 254 318 378 462
#     4  12  26  46  76 110 150 197 256 309 382 454
#
# _framework density 21.058402000000001
#
# number of rings (size 3 to 8) (size 9 to 14) (size 15 to 20)
#    0.000    0.250    5.000    4.500    3.500    1.000 
#    0.000    0.000    0.000    0.000    0.000    0.000 
#    0.000    0.000    0.000    0.000    0.000    0.000 
#
# Total GULP energy -179187.922675 kJ/mol
# GULP energy per Si atom -5599.622584 kJ/mol
# Density = 2.101047 g / cm^3
# Si number density = 21.058402 Si / 1000 Ang^3
#
#
#
# Elastic Constant Matrix: (Units=GPa)
#
#
# Indices 1 2 3 4 5 6 
#
# 1 88.9030 21.8401 38.4931 0.0000 0.0000 0.0000
# 2 21.8401 88.9030 38.4931 0.0000 0.0000 0.0000
# 3 38.4931 38.4931 143.1126 0.0000 0.0000 0.0000
# 4 0.0000 0.0000 0.0000 24.6925 0.0000 0.0000
# 5 0.0000 0.0000 0.0000 0.0000 24.6925 0.0000
# 6 0.0000 0.0000 0.0000 0.0000 0.0000 43.2238
#
#
#
# Elastic Compliance Matrix: (Units=1/GPa)
#
#
# Indices 1 2 3 4 5 6 
#
# 1 0.013009 -0.001902 -0.002987 0.000000 0.000000 0.000000
# 2 -0.001902 0.013009 -0.002987 0.000000 0.000000 0.000000
# 3 -0.002987 -0.002987 0.008595 0.000000 0.000000 0.000000
# 4 0.000000 0.000000 0.000000 0.040498 0.000000 0.000000
# 5 0.000000 0.000000 0.000000 0.000000 0.040498 0.000000
# 6 0.000000 0.000000 0.000000 0.000000 0.000000 0.023135
#
#
# Mechanical properties :
#
#
# Convention : Reuss Voigt Hill
#
# Bulk Modulus (GPa) = 53.02682 57.61904 55.32293
# Shear Modulus (GPa) = 31.09752 33.32792 32.21272
#
# Velocity S-wave (km/s) = 3.84699 3.98256 3.91536
# Velocity P-wave (km/s) = 6.70581 6.96912 6.83874
#
# Compressibility (1/GPa) = 0.01885838
#
# Stress axis : x y z
#
# Youngs Moduli (GPa) = 76.86975 76.86975 116.35299
#
# Poissons Ratio (x) = 0.14623 0.34759
# Poissons Ratio (y) = 0.14623 0.34759
# Poissons Ratio (z) = 0.22964 0.22964
#
# Static dielectric constant tensor:
#      x y z
#    x 1.771920 0.000000 0.000000 
#    y 0.000000 1.771920 0.000000 
#    z 0.000000 0.000000 1.751120 
# 
# From -- ./inp_files/3764.got.cif
#   From: 2010.05.17/outbox.cif.g08.bks.cpg/sg116_2_cif.got.tgz:3764.got - 2010.05.20 11:11:43.
