data_PCOD9557451
_publ_section_title
;
Structure prediction by ZEFSAII (Michael W. Deem and Ramdas Pophale) SiO2 
 PCOD9557451
Probable space group: P -4 M 2
;
_chemical_formula_sum "Si O2"
_cell_formula_units_Z 28
_cell_length_a 9.172038
_cell_length_b 9.172038
_cell_length_c 18.793637
_cell_angle_alpha 90.000000
_cell_angle_beta 90.000000
_cell_angle_gamma 90.000000
_cell_volume 1581.038789
_symmetry_space_group_name_H-M "P -4 M 2"
_symmetry_group_IT_number 115
_symmetry_cell_setting 'tetragonal'
loop_
_space_group_symop_operation_xyz
x,y,z
y,-x,-z
-x,-y,z
-y,x,-z
y,x,-z
-y,-x,-z
-x,y,z
x,-y,z
loop_
_atom_site_type_symbol
_atom_site_label
_atom_site_fract_x
_atom_site_fract_y
_atom_site_fract_z
Si Si1 0.173454 0.326601 0.433184
Si Si2 0.826495 0.675648 0.699155
Si Si3 0.668815 0.822592 0.141984
Si Si4 0.826677 0.173324 0.000000
O O1 0.248203 0.248203 0.500000
O O2 0.198242 0.500000 0.437350
O O3 0.243350 0.261801 0.361652
O O4 0.000000 0.300645 0.434278
O O5 0.808444 0.500000 0.693798
O O6 0.779515 0.720559 0.779141
O O7 0.000000 0.704568 0.691172
O O8 0.500000 0.780658 0.135095
O O9 0.674336 0.000000 0.142185
O O10 0.755440 0.771093 0.072952
O O11 0.000000 0.197923 0.004168
#
# Coordination Sequence:
#
# PCOD9557451 Si02
#       4
#     8   8   8   4
#     4  11  24  39  55  78 106 134 167 206 249 300
#     4   9  18  34  56  79 102 132 172 213 253 301
#     4   8  15  29  48  70  98 131 164 201 248 297
#     4   9  16  26  44  71  98 126 166 209 244 286
#
# _framework density 17.709876999999999
#
# number of rings (size 3 to 8) (size 9 to 14) (size 15 to 20)
#    0.000    2.714    0.000    3.429    0.000    7.429 
#    0.000    4.286    0.000    5.571    0.000    0.000 
#    0.000    0.000    0.000    0.000    0.000    0.000 
#
# Total GULP energy -156112.651303 kJ/mol
# GULP energy per Si atom -5575.451832 kJ/mol
# Density = 1.766957 g / cm^3
# Si number density = 17.709877 Si / 1000 Ang^3
#
#
#
# Elastic Constant Matrix: (Units=GPa)
#
#
# Indices 1 2 3 4 5 6 
#
# 1 53.4488 56.1643 81.1945 0.0000 0.0000 0.0000
# 2 56.1643 53.4483 81.1945 0.0000 0.0000 0.0000
# 3 81.1945 81.1945 226.0893 0.0000 0.0000 0.0000
# 4 0.0000 0.0000 0.0000 68.5475 0.0000 0.0000
# 5 0.0000 0.0000 0.0000 0.0000 68.5405 0.0000
# 6 0.0000 0.0000 0.0000 0.0000 0.0000 22.2291
#
#
#
# Elastic Compliance Matrix: (Units=1/GPa)
#
#
# Indices 1 2 3 4 5 6 
#
# 1 -0.174362 0.193859 -0.007002 0.000000 0.000000 0.000000
# 2 0.193859 -0.174366 -0.007001 0.000000 0.000000 0.000000
# 3 -0.007002 -0.007001 0.009452 0.000000 0.000000 0.000000
# 4 0.000000 0.000000 0.000000 0.014588 0.000000 0.000000
# 5 0.000000 0.000000 0.000000 0.000000 0.014590 0.000000
# 6 0.000000 0.000000 0.000000 0.000000 0.000000 0.044986
#
#
# Mechanical properties :
#
#
# Convention : Reuss Voigt Hill
#
# Bulk Modulus (GPa) = 48.93057 85.56589 67.24823
# Shear Modulus (GPa) = -8.09047 39.49229 15.70091
#
# Velocity S-wave (km/s) = -2.13969 4.72737 2.98075
# Velocity P-wave (km/s) = 4.64592 8.84407 7.06407
#
# Compressibility (1/GPa) = 0.02043712
#
# Stress axis : x y z
#
# Youngs Moduli (GPa) = -5.73521 -5.73508 105.80154
#
# Poissons Ratio (x) = 1.11179 0.74081
# Poissons Ratio (y) = 1.11182 0.74067
# Poissons Ratio (z) = -0.04016 -0.04015
#
# Static dielectric constant tensor:
#      x y z
#    x 1.589910 0.000000 0.000000 
#    y 0.000000 1.589920 0.000000 
#    z 0.000000 0.000000 1.611470 
# 
# From -- ./inp_files/4024.got.cif
#   From: 2010.05.17/outbox.cif.g08.bks.cpg/sg115_3_cif.got.tgz:4024.got - 2010.05.20 11:07:42.
