data_PCOD9557054
_publ_section_title
;
Structure prediction by ZEFSAII (Michael W. Deem and Ramdas Pophale) SiO2 
 PCOD9557054
Probable space group: P -4 M 2
;
_chemical_formula_sum "Si O2"
_cell_formula_units_Z 58
_cell_length_a 17.857219
_cell_length_b 17.857219
_cell_length_c 9.544813
_cell_angle_alpha 90.000000
_cell_angle_beta 90.000000
_cell_angle_gamma 90.000000
_cell_volume 3043.652550
_symmetry_space_group_name_H-M "P -4 M 2"
_symmetry_group_IT_number 115
_symmetry_cell_setting 'tetragonal'
loop_
_space_group_symop_operation_xyz
x,y,z
y,-x,-z
-x,-y,z
-y,x,-z
y,x,-z
-y,-x,-z
-x,y,z
x,-y,z
loop_
_atom_site_type_symbol
_atom_site_label
_atom_site_fract_x
_atom_site_fract_y
_atom_site_fract_z
Si Si1 0.619113 0.137014 0.594997
Si Si2 0.655814 0.771946 0.180829
Si Si3 0.916413 0.112236 0.662334
Si Si4 0.319024 0.194133 0.878761
Si Si5 0.815667 0.082562 0.910971
Si Si6 0.914096 0.710059 0.652105
Si Si7 0.415490 0.294522 0.445368
Si Si8 0.500000 0.000000 0.576522
O O1 0.635153 0.154907 0.756261
O O2 0.692338 0.113653 0.505512
O O3 0.591876 0.215461 0.527844
O O4 0.564203 0.067035 0.577611
O O5 0.733662 0.725246 0.180268
O O6 0.670096 0.853828 0.247796
O O7 0.600988 0.727505 0.283810
O O8 0.635938 0.781811 0.017573
O O9 0.908005 0.091996 0.500000
O O10 0.848809 0.081145 0.754504
O O11 0.911683 0.201765 0.677637
O O12 0.000000 0.088653 0.708993
O O13 0.254821 0.136377 0.925325
O O14 0.795859 0.000000 0.959179
O O15 0.882628 0.117373 0.000000
O O16 0.000000 0.684432 0.671408
O O17 0.353165 0.353165 0.500000
O O18 0.500000 0.323094 0.462718
#
# Coordination Sequence:
#
# PCOD9557054 Si02
#       8
#     8   8   8   8   8   8   8   2
#     4  11  23  39  67  93 135 174 218 268 336 398
#     4  10  21  39  66  90 127 164 220 274 325 396
#     4  11  22  34  48  71 104 146 204 266 333 389
#     4  11  21  41  62  92 120 171 223 275 324 404
#     4  12  24  37  54  77 114 160 219 275 331 390
#     4  10  20  35  56  85 116 165 214 276 333 387
#     4  11  23  43  71 106 135 176 216 269 333 410
#     4  12  24  44  60 106 142 176 214 278 332 412
#
# _framework density 19.056052000000001
#
# number of rings (size 3 to 8) (size 9 to 14) (size 15 to 20)
#    0.000    1.103    5.517    1.655    0.966    4.552 
#    1.241    0.000    0.000    3.310    0.000    0.000 
#    0.000    0.000    0.000    0.000    0.000    0.000 
#
# Total GULP energy -323372.372795 kJ/mol
# GULP energy per Si atom -5575.385738 kJ/mol
# Density = 1.901268 g / cm^3
# Si number density = 19.056052 Si / 1000 Ang^3
#
#
#
# Elastic Constant Matrix: (Units=GPa)
#
#
# Indices 1 2 3 4 5 6 
#
# 1 80.4996 35.4280 21.8946 0.0000 0.0000 0.0000
# 2 35.4280 80.5000 21.8952 0.0000 0.0000 0.0000
# 3 21.8946 21.8952 91.1928 0.0000 0.0000 0.0000
# 4 0.0000 0.0000 0.0000 -1.0655 0.0000 0.0000
# 5 0.0000 0.0000 0.0000 0.0000 -1.0655 0.0000
# 6 0.0000 0.0000 0.0000 0.0000 0.0000 34.9334
#
#
#
# Elastic Compliance Matrix: (Units=1/GPa)
#
#
# Indices 1 2 3 4 5 6 
#
# 1 0.015837 -0.006350 -0.002278 0.000000 0.000000 0.000000
# 2 -0.006350 0.015837 -0.002278 0.000000 0.000000 0.000000
# 3 -0.002278 -0.002278 0.012059 0.000000 0.000000 0.000000
# 4 0.000000 0.000000 0.000000 -0.938489 0.000000 0.000000
# 5 0.000000 0.000000 0.000000 0.000000 -0.938539 0.000000
# 6 0.000000 0.000000 0.000000 0.000000 0.000000 0.028626
#
#
# Mechanical properties :
#
#
# Convention : Reuss Voigt Hill
#
# Bulk Modulus (GPa) = 45.61684 45.62535 45.62110
# Shear Modulus (GPa) = -2.81603 18.09211 7.63804
#
# Velocity S-wave (km/s) = -1.21695 3.08460 2.00422
# Velocity P-wave (km/s) = 4.69208 6.05649 5.41741
#
# Compressibility (1/GPa) = 0.02192173
#
# Stress axis : x y z
#
# Youngs Moduli (GPa) = 63.14475 63.14481 82.92239
#
# Poissons Ratio (x) = 0.40098 0.18886
# Poissons Ratio (y) = 0.40098 0.18887
# Poissons Ratio (z) = 0.14382 0.14383
#
# Static dielectric constant tensor:
#      x y z
#    x 1.656280 0.000000 0.000000 
#    y 0.000000 1.656280 0.000000 
#    z 0.000000 0.000000 1.708470 
# 
# From -- ./inp_files/1953.got.cif
#   From: 2010.05.17/outbox.cif.g08.bks.cpg/sg115_1_cif.got.tgz:1953.got - 2010.05.20 11:07:42.
