data_PCOD9557343
_publ_section_title
;
Structure prediction by ZEFSAII (Michael W. Deem and Ramdas Pophale) SiO2 
 PCOD9557343
Probable space group: P -4 M 2
;
_chemical_formula_sum "Si O2"
_cell_formula_units_Z 48
_cell_length_a 7.986419
_cell_length_b 7.986419
_cell_length_c 36.433956
_cell_angle_alpha 90.000000
_cell_angle_beta 90.000000
_cell_angle_gamma 90.000000
_cell_volume 2323.862951
_symmetry_space_group_name_H-M "P -4 M 2"
_symmetry_group_IT_number 115
_symmetry_cell_setting 'tetragonal'
loop_
_space_group_symop_operation_xyz
x,y,z
y,-x,-z
-x,-y,z
-y,x,-z
y,x,-z
-y,-x,-z
-x,y,z
x,-y,z
loop_
_atom_site_type_symbol
_atom_site_label
_atom_site_fract_x
_atom_site_fract_y
_atom_site_fract_z
Si Si1 0.294675 0.694132 0.696228
Si Si2 0.703762 0.693231 0.039375
Si Si3 0.689819 0.195895 0.119998
Si Si4 0.294689 0.000000 0.747698
Si Si5 0.312969 0.699002 0.616722
Si Si6 0.000000 0.696867 0.169452
Si Si7 0.810875 0.200195 0.461380
O O1 0.500000 0.692821 0.694661
O O2 0.243866 0.500000 0.703310
O O3 0.244012 0.831162 0.726155
O O4 0.235925 0.753388 0.655589
O O5 0.500000 0.695259 0.036672
O O6 0.757486 0.500000 0.042647
O O7 0.744708 0.779336 0.077618
O O8 0.763058 0.763058 0.000000
O O9 0.500000 0.269261 0.124065
O O10 0.832928 0.261207 0.146740
O O11 0.676584 0.000000 0.126801
O O12 0.230702 0.000000 0.789422
O O13 0.500000 0.000000 0.747495
O O14 0.500000 0.771475 0.614034
O O15 0.325295 0.500000 0.621462
O O16 0.229775 0.727629 0.577632
O O17 0.000000 0.500000 0.174258
O O18 0.734736 0.265265 0.500000
O O19 0.000000 0.266003 0.457692
O O20 0.817287 0.000000 0.466624
#
# Coordination Sequence:
#
# PCOD9557343 Si02
#       7
#     8   8   8   4   8   4   8
#     4   8  15  29  48  74 108 136 163 212 274 331
#     4   8  14  28  52  80 110 145 186 232 281 331
#     4  10  21  38  58  80 113 156 194 231 285 349
#     4   9  18  31  51  79 107 137 175 221 281 337
#     4   9  18  31  49  75 102 128 161 204 257 314
#     4  11  23  37  57  87 115 145 191 245 291 339
#     4   9  19  34  48  65  94 132 173 212 249 296
#
# _framework density 20.655263000000001
#
# number of rings (size 3 to 8) (size 9 to 14) (size 15 to 20)
#    0.000    3.000    0.000    2.750    1.167    3.000 
#    1.500    4.167    0.000    2.000    0.000    0.000 
#    0.000    0.000    0.000    0.000    0.000    0.000 
#
# Total GULP energy -267304.889317 kJ/mol
# GULP energy per Si atom -5568.851861 kJ/mol
# Density = 2.060825 g / cm^3
# Si number density = 20.655263 Si / 1000 Ang^3
#
#
#
# Elastic Constant Matrix: (Units=GPa)
#
#
# Indices 1 2 3 4 5 6 
#
# 1 47.4311 15.9775 52.3098 0.0000 0.0000 0.0000
# 2 15.9775 47.4311 52.3098 0.0000 0.0000 0.0000
# 3 52.3098 52.3098 209.5691 0.0000 0.0000 0.0000
# 4 0.0000 0.0000 0.0000 8.7960 0.0000 0.0000
# 5 0.0000 0.0000 0.0000 0.0000 8.7961 0.0000
# 6 0.0000 0.0000 0.0000 0.0000 0.0000 14.0694
#
#
#
# Elastic Compliance Matrix: (Units=1/GPa)
#
#
# Indices 1 2 3 4 5 6 
#
# 1 0.029303 -0.002490 -0.006693 0.000000 0.000000 0.000000
# 2 -0.002490 0.029303 -0.006693 0.000000 0.000000 0.000000
# 3 -0.006693 -0.006693 0.008113 0.000000 0.000000 0.000000
# 4 0.000000 0.000000 0.000000 0.113688 0.000000 0.000000
# 5 0.000000 0.000000 0.000000 0.000000 0.113687 0.000000
# 6 0.000000 0.000000 0.000000 0.000000 0.000000 0.071076
#
#
# Mechanical properties :
#
#
# Convention : Reuss Voigt Hill
#
# Bulk Modulus (GPa) = 28.59732 60.62505 44.61118
# Shear Modulus (GPa) = 12.23757 18.58790 15.41274
#
# Velocity S-wave (km/s) = 2.43671 3.00311 2.73461
# Velocity P-wave (km/s) = 4.66817 6.43735 5.62278
#
# Compressibility (1/GPa) = 0.03496831
#
# Stress axis : x y z
#
# Youngs Moduli (GPa) = 34.12611 34.12608 123.26190
#
# Poissons Ratio (x) = 0.08497 0.82496
# Poissons Ratio (y) = 0.08497 0.82496
# Poissons Ratio (z) = 0.22840 0.22840
#
# Static dielectric constant tensor:
#      x y z
#    x 1.782810 0.000000 0.000000 
#    y 0.000000 1.782810 0.000000 
#    z 0.000000 0.000000 1.778080 
# 
# From -- ./inp_files/6255.got.cif
#   From: 2010.05.17/outbox.cif.g08.bks.cpg/sg115_4_cif.got.tgz:6255.got - 2010.05.20 11:07:42.
