data_PCOD9557838
_publ_section_title
;
Structure prediction by ZEFSAII (Michael W. Deem and Ramdas Pophale) SiO2 
 PCOD9557838
Probable space group: P -4 C 2
;
_chemical_formula_sum "Si O2"
_cell_formula_units_Z 20
_cell_length_a 5.158139
_cell_length_b 5.158139
_cell_length_c 33.105408
_cell_angle_alpha 90.000000
_cell_angle_beta 90.000000
_cell_angle_gamma 90.000000
_cell_volume 880.815659
_symmetry_space_group_name_H-M "P -4 C 2"
_symmetry_group_IT_number 116
_symmetry_cell_setting 'tetragonal'
loop_
_space_group_symop_operation_xyz
x,y,z
y,-x,-z
-x,-y,z
-y,x,-z
y,x,1/2-z
-y,-x,1/2-z
-x,y,1/2+z
x,-y,1/2+z
loop_
_atom_site_type_symbol
_atom_site_label
_atom_site_fract_x
_atom_site_fract_y
_atom_site_fract_z
Si Si1 0.166005 0.768133 0.560676
Si Si2 0.000000 0.500000 0.192912
Si Si3 0.500000 0.500000 0.500000
Si Si4 0.000000 0.000000 0.362379
Si Si5 0.500000 0.500000 0.750000
O O1 0.400734 0.714004 0.531099
O O2 0.000000 0.500000 0.563949
O O3 0.211556 0.882086 0.605777
O O4 0.000000 0.000000 0.542724
O O5 0.945943 0.246633 0.165473
O O6 0.750362 0.519062 0.221434
#
# Coordination Sequence:
#
# PCOD9557838 Si02
#       5
#     8   4   2   4   2
#     4  10  25  47  69 110 146 205 263 313 391 441
#     4  12  24  50  76 112 154 186 246 310 372 482
#     4  12  28  42  80 100 164 198 276 336 380 458
#     4  10  22  49  75 106 150 200 248 314 376 458
#     4  12  28  46  80 120 140 198 232 304 398 452
#
# _framework density 22.706227999999999
#
# number of rings (size 3 to 8) (size 9 to 14) (size 15 to 20)
#    1.200    0.000    2.000    2.400    5.600    1.600 
#    7.200    0.000    0.000    0.000    0.000    0.000 
#    0.000    0.000    0.000    0.000    0.000    0.000 
#
# Total GULP energy -111568.659954 kJ/mol
# GULP energy per Si atom -5578.432998 kJ/mol
# Density = 2.265455 g / cm^3
# Si number density = 22.706228 Si / 1000 Ang^3
#
#
#
# Elastic Constant Matrix: (Units=GPa)
#
#
# Indices 1 2 3 4 5 6 
#
# 1 164.2360 49.5907 82.3513 0.0000 0.0000 0.0000
# 2 49.5907 164.2360 82.3513 0.0000 0.0000 0.0000
# 3 82.3513 82.3513 213.7877 0.0000 0.0000 0.0000
# 4 0.0000 0.0000 0.0000 47.9656 0.0000 0.0000
# 5 0.0000 0.0000 0.0000 0.0000 47.9656 0.0000
# 6 0.0000 0.0000 0.0000 0.0000 0.0000 32.7956
#
#
#
# Elastic Compliance Matrix: (Units=1/GPa)
#
#
# Indices 1 2 3 4 5 6 
#
# 1 0.007686 -0.001036 -0.002561 0.000000 0.000000 0.000000
# 2 -0.001036 0.007686 -0.002561 0.000000 0.000000 0.000000
# 3 -0.002561 -0.002561 0.006651 0.000000 0.000000 0.000000
# 4 0.000000 0.000000 0.000000 0.020848 0.000000 0.000000
# 5 0.000000 0.000000 0.000000 0.000000 0.020848 0.000000
# 6 0.000000 0.000000 0.000000 0.000000 0.000000 0.030492
#
#
# Mechanical properties :
#
#
# Convention : Reuss Voigt Hill
#
# Bulk Modulus (GPa) = 103.04604 107.87182 105.45893
# Shear Modulus (GPa) = 45.55180 47.60978 46.58079
#
# Velocity S-wave (km/s) = 4.48385 4.58402 4.53421
# Velocity P-wave (km/s) = 8.50220 8.69646 8.59988
#
# Compressibility (1/GPa) = 0.00970440
#
# Stress axis : x y z
#
# Youngs Moduli (GPa) = 130.10464 130.10464 150.35559
#
# Poissons Ratio (x) = 0.13484 0.38513
# Poissons Ratio (y) = 0.13484 0.38513
# Poissons Ratio (z) = 0.33326 0.33326
#
# Static dielectric constant tensor:
#      x y z
#    x 2.001470 0.000000 0.000000 
#    y 0.000000 2.001470 0.000000 
#    z 0.000000 0.000000 1.850090 
# 
# From -- ./inp_files/5054.got.cif
#   From: 2010.05.17/outbox.cif.g08.bks.cpg/sg116_3_cif.got.tgz:5054.got - 2010.05.20 11:11:43.
