data_PCOD9557818
_publ_section_title
;
Structure prediction by ZEFSAII (Michael W. Deem and Ramdas Pophale) SiO2 
 PCOD9557818
Probable space group: P -4 C 2
;
_chemical_formula_sum "Si O2"
_cell_formula_units_Z 22
_cell_length_a 5.153298
_cell_length_b 5.153298
_cell_length_c 32.964261
_cell_angle_alpha 90.000000
_cell_angle_beta 90.000000
_cell_angle_gamma 90.000000
_cell_volume 875.414747
_symmetry_space_group_name_H-M "P -4 C 2"
_symmetry_group_IT_number 116
_symmetry_cell_setting 'tetragonal'
loop_
_space_group_symop_operation_xyz
x,y,z
y,-x,-z
-x,-y,z
-y,x,-z
y,x,1/2-z
-y,-x,1/2-z
-x,y,1/2+z
x,-y,1/2+z
loop_
_atom_site_type_symbol
_atom_site_label
_atom_site_fract_x
_atom_site_fract_y
_atom_site_fract_z
Si Si1 0.500000 0.000000 0.951707
Si Si2 0.500000 0.500000 0.000000
Si Si3 0.744920 0.179967 0.205128
Si Si4 0.752127 0.180027 0.119582
O O1 0.335304 0.177929 0.920503
O O2 0.613274 0.236911 0.978492
O O3 0.705385 0.294616 0.250000
O O4 0.746362 0.336803 0.162632
O O5 0.500000 0.000000 0.199249
O O6 0.000000 0.000000 0.207569
O O7 0.500000 0.000000 0.113872
O O8 0.000000 0.000000 0.124995
#
# Coordination Sequence:
#
# PCOD9557818 Si02
#       4
#     4   2   8   8
#     4  12  28  48  74 110 140 194 250 316 394 462
#     4  12  32  48  80 108 146 192 252 324 388 472
#     4   9  19  37  63  99 142 189 243 295 355 430
#     4  10  22  42  71 102 143 193 243 303 374 450
#
# _framework density 25.130939999999999
#
# number of rings (size 3 to 8) (size 9 to 14) (size 15 to 20)
#    0.000    1.818    0.000    2.182   10.182    0.000 
#    0.000    3.636    0.000    0.000    0.000    0.000 
#    0.000    0.000    0.000    0.000    0.000    0.000 
#
# Total GULP energy -122549.244882 kJ/mol
# GULP energy per Si atom -5570.420222 kJ/mol
# Density = 2.507374 g / cm^3
# Si number density = 25.130940 Si / 1000 Ang^3
#
#
#
# Elastic Constant Matrix: (Units=GPa)
#
#
# Indices 1 2 3 4 5 6 
#
# 1 137.6949 37.6613 31.8065 0.0000 0.0000 0.0000
# 2 37.6613 137.6946 31.8065 0.0000 0.0000 0.0000
# 3 31.8065 31.8065 114.4250 0.0000 0.0000 0.0000
# 4 0.0000 0.0000 0.0000 28.0012 0.0000 0.0000
# 5 0.0000 0.0000 0.0000 0.0000 28.0012 0.0000
# 6 0.0000 0.0000 0.0000 0.0000 0.0000 61.2848
#
#
#
# Elastic Compliance Matrix: (Units=1/GPa)
#
#
# Indices 1 2 3 4 5 6 
#
# 1 0.008169 -0.001827 -0.001763 0.000000 0.000000 0.000000
# 2 -0.001827 0.008169 -0.001763 0.000000 0.000000 0.000000
# 3 -0.001763 -0.001763 0.009719 0.000000 0.000000 0.000000
# 4 0.000000 0.000000 0.000000 0.035713 0.000000 0.000000
# 5 0.000000 0.000000 0.000000 0.000000 0.035713 0.000000
# 6 0.000000 0.000000 0.000000 0.000000 0.000000 0.016317
#
#
# Mechanical properties :
#
#
# Convention : Reuss Voigt Hill
#
# Bulk Modulus (GPa) = 65.13756 65.81810 65.47783
# Shear Modulus (GPa) = 38.57293 42.69346 40.63320
#
# Velocity S-wave (km/s) = 3.92200 4.12617 4.02538
# Velocity P-wave (km/s) = 6.81799 6.99624 6.90769
#
# Compressibility (1/GPa) = 0.01535213
#
# Stress axis : x y z
#
# Youngs Moduli (GPa) = 122.40770 122.40742 102.88676
#
# Poissons Ratio (x) = 0.22367 0.18138
# Poissons Ratio (y) = 0.22367 0.18138
# Poissons Ratio (z) = 0.21580 0.21580
#
# Static dielectric constant tensor:
#      x y z
#    x 2.213890 0.000000 0.000000 
#    y 0.000000 2.213890 0.000000 
#    z 0.000000 0.000000 2.300290 
# 
# From -- ./inp_files/5033.got.cif
#   From: 2010.05.17/outbox.cif.g08.bks.cpg/sg116_3_cif.got.tgz:5033.got - 2010.05.20 11:11:43.
