data_PCOD9557329
_publ_section_title
;
Structure prediction by ZEFSAII (Michael W. Deem and Ramdas Pophale) SiO2 
 PCOD9557329
Probable space group: P -4 M 2
;
_chemical_formula_sum "Si O2"
_cell_formula_units_Z 48
_cell_length_a 9.083735
_cell_length_b 9.083735
_cell_length_c 31.501814
_cell_angle_alpha 90.000000
_cell_angle_beta 90.000000
_cell_angle_gamma 90.000000
_cell_volume 2599.348290
_symmetry_space_group_name_H-M "P -4 M 2"
_symmetry_group_IT_number 115
_symmetry_cell_setting 'tetragonal'
loop_
_space_group_symop_operation_xyz
x,y,z
y,-x,-z
-x,-y,z
-y,x,-z
y,x,-z
-y,-x,-z
-x,y,z
x,-y,z
loop_
_atom_site_type_symbol
_atom_site_label
_atom_site_fract_x
_atom_site_fract_y
_atom_site_fract_z
Si Si1 0.174327 0.823889 0.871141
Si Si2 0.673987 0.824624 0.960025
Si Si3 0.675277 0.674756 0.209450
Si Si4 0.324625 0.826012 0.539975
Si Si5 0.676111 0.674327 0.628859
Si Si6 0.825244 0.175277 0.290550
O O1 0.244093 0.783065 0.916476
O O2 0.252688 0.739598 0.833004
O O3 0.000000 0.794994 0.871058
O O4 0.195799 0.000000 0.865423
O O5 0.500000 0.798382 0.955690
O O6 0.696832 0.000000 0.966426
O O7 0.739202 0.739202 0.000000
O O8 0.500000 0.697763 0.211854
O O9 0.703564 0.500000 0.209173
O O10 0.752210 0.747789 0.250000
O O11 0.239199 0.760801 0.500000
O O12 0.500000 0.803163 0.533574
O O13 0.283065 0.744093 0.583524
O O14 0.298387 0.000000 0.544311
O O15 0.500000 0.695800 0.634577
O O16 0.705005 0.500000 0.628942
O O17 0.760403 0.752688 0.666996
O O18 0.000000 0.203567 0.290827
O O19 0.802239 0.000000 0.288146
#
# Coordination Sequence:
#
# PCOD9557329 Si02
#       6
#     8   8   8   8   8   8
#     4  10  21  38  61  87 114 147 189 235 283 336
#     4  10  21  37  58  84 114 150 191 234 283 337
#     4  11  24  40  59  85 116 150 189 232 280 335
#     4  10  21  37  58  84 114 150 191 234 283 337
#     4  10  21  38  61  87 114 147 189 235 283 336
#     4  11  24  40  59  85 116 150 189 232 280 335
#
# _framework density 18.466166999999999
#
# number of rings (size 3 to 8) (size 9 to 14) (size 15 to 20)
#    0.000    1.667    0.000    4.000    0.000   12.000 
#    0.000    0.000    0.000    0.000    0.000    0.000 
#    0.000    0.000    0.000    0.000    0.000    0.000 
#
# Total GULP energy -268387.020249 kJ/mol
# GULP energy per Si atom -5591.396255 kJ/mol
# Density = 1.842414 g / cm^3
# Si number density = 18.466167 Si / 1000 Ang^3
#
#
#
# Elastic Constant Matrix: (Units=GPa)
#
#
# Indices 1 2 3 4 5 6 
#
# 1 106.9707 101.2415 111.0814 0.0000 0.0000 0.0000
# 2 101.2415 106.9707 111.0814 0.0000 0.0000 0.0000
# 3 111.0814 111.0814 207.2515 0.0000 0.0000 0.0000
# 4 0.0000 0.0000 0.0000 42.1492 0.0000 0.0000
# 5 0.0000 0.0000 0.0000 0.0000 42.1492 0.0000
# 6 0.0000 0.0000 0.0000 0.0000 0.0000 31.8963
#
#
#
# Elastic Compliance Matrix: (Units=1/GPa)
#
#
# Indices 1 2 3 4 5 6 
#
# 1 0.092881 -0.081663 -0.006013 0.000000 0.000000 0.000000
# 2 -0.081663 0.092881 -0.006013 0.000000 0.000000 0.000000
# 3 -0.006013 -0.006013 0.011270 0.000000 0.000000 0.000000
# 4 0.000000 0.000000 0.000000 0.023725 0.000000 0.000000
# 5 0.000000 0.000000 0.000000 0.000000 0.023725 0.000000
# 6 0.000000 0.000000 0.000000 0.000000 0.000000 0.031352
#
#
# Mechanical properties :
#
#
# Convention : Reuss Voigt Hill
#
# Bulk Modulus (GPa) = 103.56066 118.66683 111.11375
# Shear Modulus (GPa) = 10.71969 29.75817 20.23893
#
# Velocity S-wave (km/s) = 2.41198 4.01870 3.31418
# Velocity P-wave (km/s) = 7.99749 9.27009 8.65721
#
# Compressibility (1/GPa) = 0.00965618
#
# Stress axis : x y z
#
# Youngs Moduli (GPa) = 10.76641 10.76641 88.72757
#
# Poissons Ratio (x) = 0.87922 0.53350
# Poissons Ratio (y) = 0.87922 0.53350
# Poissons Ratio (z) = 0.06474 0.06474
#
# Static dielectric constant tensor:
#      x y z
#    x 1.616620 0.000000 0.000000 
#    y 0.000000 1.616620 0.000000 
#    z 0.000000 0.000000 1.590040 
# 
# From -- ./inp_files/5971.got.cif
#   From: 2010.05.17/outbox.cif.g08.bks.cpg/sg115_3_cif.got.tgz:5971.got - 2010.05.20 11:07:42.
