data_PCOD9557292
_publ_section_title
;
Structure prediction by ZEFSAII (Michael W. Deem and Ramdas Pophale) SiO2 
 PCOD9557292
Probable space group: P -4 M 2
;
_chemical_formula_sum "Si O2"
_cell_formula_units_Z 48
_cell_length_a 9.121872
_cell_length_b 9.121872
_cell_length_c 31.969515
_cell_angle_alpha 90.000000
_cell_angle_beta 90.000000
_cell_angle_gamma 90.000000
_cell_volume 2660.136948
_symmetry_space_group_name_H-M "P -4 M 2"
_symmetry_group_IT_number 115
_symmetry_cell_setting 'tetragonal'
loop_
_space_group_symop_operation_xyz
x,y,z
y,-x,-z
-x,-y,z
-y,x,-z
y,x,-z
-y,-x,-z
-x,y,z
x,-y,z
loop_
_atom_site_type_symbol
_atom_site_label
_atom_site_fract_x
_atom_site_fract_y
_atom_site_fract_z
Si Si1 0.823277 0.674034 0.618085
Si Si2 0.173355 0.675878 0.118528
Si Si3 0.825407 0.325765 0.960297
Si Si4 0.671300 0.675737 0.204374
Si Si5 0.321706 0.830437 0.288816
Si Si6 0.825919 0.674146 0.460428
O O1 0.792285 0.500000 0.613598
O O2 0.777966 0.722941 0.664953
O O3 0.744663 0.762051 0.581713
O O4 0.000000 0.690366 0.615329
O O5 0.195980 0.500000 0.113996
O O6 0.256818 0.758271 0.081613
O O7 0.237247 0.720211 0.163695
O O8 0.000000 0.703866 0.116228
O O9 0.798393 0.500000 0.961224
O O10 0.000000 0.301759 0.961785
O O11 0.749823 0.250178 0.000000
O O12 0.500000 0.718042 0.198629
O O13 0.676810 0.500000 0.207387
O O14 0.725962 0.742176 0.248078
O O15 0.500000 0.826057 0.289404
O O16 0.278346 0.000000 0.284466
O O17 0.747561 0.747561 0.500000
O O18 0.799509 0.500000 0.460684
O O19 0.000000 0.699158 0.463086
#
# Coordination Sequence:
#
# PCOD9557292 Si02
#       6
#     8   8   8   8   8   8
#     4   9  18  34  56  81 108 139 176 217 262 313
#     4  10  21  37  56  79 109 145 183 222 266 315
#     4  11  24  40  59  84 111 140 176 218 265 317
#     4   9  17  30  50  76 105 139 180 222 263 309
#     4   8  15  29  50  76 105 136 172 216 262 308
#     4  11  24  39  55  78 106 136 173 216 262 314
#
# _framework density 18.044184000000001
#
# number of rings (size 3 to 8) (size 9 to 14) (size 15 to 20)
#    0.000    2.333    0.000    3.500    0.000    9.333 
#    0.000    4.167    0.000    3.000    0.000    0.000 
#    0.000    0.000    0.000    0.000    0.000    0.000 
#
# Total GULP energy -267907.296238 kJ/mol
# GULP energy per Si atom -5581.402005 kJ/mol
# Density = 1.800311 g / cm^3
# Si number density = 18.044184 Si / 1000 Ang^3
#
#
#
# Elastic Constant Matrix: (Units=GPa)
#
#
# Indices 1 2 3 4 5 6 
#
# 1 71.3846 68.2807 87.6676 0.0000 0.0000 0.0000
# 2 68.2807 71.3855 87.6678 0.0000 0.0000 0.0000
# 3 87.6676 87.6678 217.8324 0.0000 0.0000 0.0000
# 4 0.0000 0.0000 0.0000 84.6139 0.0000 0.0000
# 5 0.0000 0.0000 0.0000 0.0000 84.6106 0.0000
# 6 0.0000 0.0000 0.0000 0.0000 0.0000 23.8391
#
#
#
# Elastic Compliance Matrix: (Units=1/GPa)
#
#
# Indices 1 2 3 4 5 6 
#
# 1 0.168300 -0.153827 -0.005825 0.000000 0.000000 0.000000
# 2 -0.153827 0.168297 -0.005824 0.000000 0.000000 0.000000
# 3 -0.005825 -0.005824 0.009279 0.000000 0.000000 0.000000
# 4 0.000000 0.000000 0.000000 0.011818 0.000000 0.000000
# 5 0.000000 0.000000 0.000000 0.000000 0.011819 0.000000
# 6 0.000000 0.000000 0.000000 0.000000 0.000000 0.041948
#
#
# Mechanical properties :
#
#
# Convention : Reuss Voigt Hill
#
# Bulk Modulus (GPa) = 67.00119 94.20384 80.60251
# Shear Modulus (GPa) = 6.68999 46.41183 26.55091
#
# Velocity S-wave (km/s) = 1.92759 5.07711 3.84009
# Velocity P-wave (km/s) = 6.49357 9.31075 8.02672
#
# Compressibility (1/GPa) = 0.01492511
#
# Stress axis : x y z
#
# Youngs Moduli (GPa) = 5.94177 5.94189 107.77507
#
# Poissons Ratio (x) = 0.91402 0.62775
# Poissons Ratio (y) = 0.91400 0.62764
# Poissons Ratio (z) = 0.03461 0.03460
#
# Static dielectric constant tensor:
#      x y z
#    x 1.602690 0.000000 0.000000 
#    y 0.000000 1.602690 0.000000 
#    z 0.000000 0.000000 1.604650 
# 
# From -- ./inp_files/6039.got.cif
#   From: 2010.05.17/outbox.cif.g08.bks.cpg/sg115_4_cif.got.tgz:6039.got - 2010.05.20 11:07:42.
