data_PCOD9557313
_publ_section_title
;
Structure prediction by ZEFSAII (Michael W. Deem and Ramdas Pophale) SiO2 
 PCOD9557313
Probable space group: P -4 M 2
;
_chemical_formula_sum "Si O2"
_cell_formula_units_Z 44
_cell_length_a 9.242444
_cell_length_b 9.242444
_cell_length_c 29.468037
_cell_angle_alpha 90.000000
_cell_angle_beta 90.000000
_cell_angle_gamma 90.000000
_cell_volume 2517.241379
_symmetry_space_group_name_H-M "P -4 M 2"
_symmetry_group_IT_number 115
_symmetry_cell_setting 'tetragonal'
loop_
_space_group_symop_operation_xyz
x,y,z
y,-x,-z
-x,-y,z
-y,x,-z
y,x,-z
-y,-x,-z
-x,y,z
x,-y,z
loop_
_atom_site_type_symbol
_atom_site_label
_atom_site_fract_x
_atom_site_fract_y
_atom_site_fract_z
Si Si1 0.172319 0.674195 0.259879
Si Si2 0.667054 0.176100 0.638926
Si Si3 0.167901 0.823349 0.549528
Si Si4 0.828864 0.828864 0.000000
Si Si5 0.171194 0.672596 0.823323
Si Si6 0.670958 0.826937 0.906515
O O1 0.191881 0.500000 0.256592
O O2 0.217896 0.720251 0.310879
O O3 0.259037 0.755388 0.221101
O O4 0.000000 0.701108 0.254738
O O5 0.500000 0.218994 0.635283
O O6 0.750973 0.226972 0.594514
O O7 0.671358 0.000000 0.638688
O O8 0.224506 0.775495 0.500000
O O9 0.000000 0.783242 0.553101
O O10 0.174175 0.000000 0.548591
O O11 0.790280 0.737438 0.044396
O O12 0.000000 0.807438 0.990580
O O13 0.190915 0.500000 0.823647
O O14 0.246632 0.742734 0.867090
O O15 0.000000 0.703962 0.823790
O O16 0.500000 0.796838 0.905070
O O17 0.690848 0.000000 0.899930
#
# Coordination Sequence:
#
# PCOD9557313 Si02
#       6
#     8   8   8   4   8   8
#     4   9  18  33  53  76  99 125 163 209 253 300
#     4   8  14  25  42  65  92 120 152 193 239 287
#     4   8  13  21  35  58  87 117 151 191 232 276
#     4   9  18  34  56  81 110 142 172 205 248 293
#     4  11  24  38  52  74 104 136 170 209 252 299
#     4  10  21  37  58  83 109 138 173 211 249 293
#
# _framework density 17.479452999999999
#
# number of rings (size 3 to 8) (size 9 to 14) (size 15 to 20)
#    0.000    2.818    0.000    3.273    0.000    6.545 
#    0.000    3.636    0.000    1.091    0.000    2.545 
#    0.000    0.000    0.000    0.000    0.000    0.000 
#
# Total GULP energy -245261.017170 kJ/mol
# GULP energy per Si atom -5574.114027 kJ/mol
# Density = 1.743967 g / cm^3
# Si number density = 17.479453 Si / 1000 Ang^3
#
#
#
# Elastic Constant Matrix: (Units=GPa)
#
#
# Indices 1 2 3 4 5 6 
#
# 1 57.0238 49.6022 86.2954 0.0000 0.0000 0.0000
# 2 49.6022 57.0239 86.2955 0.0000 0.0000 0.0000
# 3 86.2954 86.2955 217.9931 0.0000 0.0000 0.0000
# 4 0.0000 0.0000 0.0000 -67.9927 0.0000 0.0000
# 5 0.0000 0.0000 0.0000 0.0000 -67.9902 0.0000
# 6 0.0000 0.0000 0.0000 0.0000 0.0000 19.1309
#
#
#
# Elastic Compliance Matrix: (Units=1/GPa)
#
#
# Indices 1 2 3 4 5 6 
#
# 1 0.080424 -0.054317 -0.010335 0.000000 0.000000 0.000000
# 2 -0.054317 0.080424 -0.010335 0.000000 0.000000 0.000000
# 3 -0.010335 -0.010335 0.012770 0.000000 0.000000 0.000000
# 4 0.000000 0.000000 0.000000 -0.014707 0.000000 0.000000
# 5 0.000000 0.000000 0.000000 0.000000 -0.014708 0.000000
# 6 0.000000 0.000000 0.000000 0.000000 0.000000 0.052272
#
#
# Mechanical properties :
#
#
# Convention : Reuss Voigt Hill
#
# Bulk Modulus (GPa) = 42.29302 86.26967 64.28135
# Shear Modulus (GPa) = 14.11122 -16.04724 -0.96801
#
# Velocity S-wave (km/s) = 2.84439 -3.03324 -0.74498
# Velocity P-wave (km/s) = 5.91910 6.09874 6.00959
#
# Compressibility (1/GPa) = 0.02364456
#
# Stress axis : x y z
#
# Youngs Moduli (GPa) = 12.43409 12.43416 78.31038
#
# Poissons Ratio (x) = 0.67538 0.80933
# Poissons Ratio (y) = 0.67538 0.80932
# Poissons Ratio (z) = 0.12851 0.12850
#
# Static dielectric constant tensor:
#      x y z
#    x 1.580980 0.000000 0.000000 
#    y 0.000000 1.580980 0.000000 
#    z 0.000000 0.000000 1.599770 
# 
# From -- ./inp_files/5751.got.cif
#   From: 2010.05.17/outbox.cif.g08.bks.cpg/sg115_3_cif.got.tgz:5751.got - 2010.05.20 11:07:42.
