data_PCOD9557847
_publ_section_title
;
Structure prediction by ZEFSAII (Michael W. Deem and Ramdas Pophale) SiO2 
 PCOD9557847
Probable space group: P -4 C 2
;
_chemical_formula_sum "Si O2"
_cell_formula_units_Z 26
_cell_length_a 11.408227
_cell_length_b 11.408227
_cell_length_c 8.843503
_cell_angle_alpha 90.000000
_cell_angle_beta 90.000000
_cell_angle_gamma 90.000000
_cell_volume 1150.961074
_symmetry_space_group_name_H-M "P -4 C 2"
_symmetry_group_IT_number 116
_symmetry_cell_setting 'tetragonal'
loop_
_space_group_symop_operation_xyz
x,y,z
y,-x,-z
-x,-y,z
-y,x,-z
y,x,1/2-z
-y,-x,1/2-z
-x,y,1/2+z
x,-y,1/2+z
loop_
_atom_site_type_symbol
_atom_site_label
_atom_site_fract_x
_atom_site_fract_y
_atom_site_fract_z
Si Si1 0.821203 0.809965 0.581090
Si Si2 0.000000 0.000000 0.000000
Si Si3 0.116391 0.427805 0.465320
Si Si4 0.389414 0.769454 0.846646
O O1 0.781011 0.781011 0.750000
O O2 0.899619 0.700445 0.532064
O O3 0.716976 0.807386 0.457649
O O4 0.897454 0.928076 0.583450
O O5 0.140317 0.415015 0.288102
O O6 0.224444 0.495343 0.547990
O O7 0.000000 0.500000 0.490687
O O8 0.343897 0.656104 0.750000
#
# Coordination Sequence:
#
# PCOD9557847 Si02
#       4
#     8   2   8   8
#     4  11  25  43  66  97 137 182 224 276 335 398
#     4  12  26  40  60  98 146 184 224 274 334 396
#     4  11  22  40  66  95 131 177 228 277 332 402
#     4  10  23  41  65  97 129 169 225 282 336 399
#
# _framework density 22.589817
#
# number of rings (size 3 to 8) (size 9 to 14) (size 15 to 20)
#    0.000    1.231    0.000    5.077    0.000   14.769 
#    0.000    1.538    0.000   52.615    0.000    0.000 
#    0.000    0.000    0.000    0.000    0.000    0.000 
#
# Total GULP energy -145146.167363 kJ/mol
# GULP energy per Si atom -5582.544899 kJ/mol
# Density = 2.253840 g / cm^3
# Si number density = 22.589817 Si / 1000 Ang^3
#
#
#
# Elastic Constant Matrix: (Units=GPa)
#
#
# Indices 1 2 3 4 5 6 
#
# 1 91.1933 15.5038 30.7460 0.0000 0.0000 0.0000
# 2 15.5038 91.1942 30.7462 0.0000 0.0000 0.0000
# 3 30.7460 30.7462 177.3535 0.0000 0.0000 0.0000
# 4 0.0000 0.0000 0.0000 -4.7146 0.0000 0.0000
# 5 0.0000 0.0000 0.0000 0.0000 -4.7145 0.0000
# 6 0.0000 0.0000 0.0000 0.0000 0.0000 29.9347
#
#
#
# Elastic Compliance Matrix: (Units=1/GPa)
#
#
# Indices 1 2 3 4 5 6 
#
# 1 0.011812 -0.001400 -0.001805 0.000000 0.000000 0.000000
# 2 -0.001400 0.011812 -0.001805 0.000000 0.000000 0.000000
# 3 -0.001805 -0.001805 0.006264 0.000000 0.000000 0.000000
# 4 0.000000 0.000000 0.000000 -0.212109 0.000000 0.000000
# 5 0.000000 0.000000 0.000000 0.000000 -0.212112 0.000000
# 6 0.000000 0.000000 0.000000 0.000000 0.000000 0.033406
#
#
# Mechanical properties :
#
#
# Convention : Reuss Voigt Hill
#
# Bulk Modulus (GPa) = 50.32958 57.08147 53.70552
# Shear Modulus (GPa) = -14.52293 22.95078 4.21392
#
# Velocity S-wave (km/s) = -2.53829 3.19090 1.36728
# Velocity P-wave (km/s) = 3.70642 6.23693 5.13015
#
# Compressibility (1/GPa) = 0.01986903
#
# Stress axis : x y z
#
# Youngs Moduli (GPa) = 84.65772 84.65858 159.63383
#
# Poissons Ratio (x) = 0.11849 0.28816
# Poissons Ratio (y) = 0.11849 0.28816
# Poissons Ratio (z) = 0.15282 0.15282
#
# Static dielectric constant tensor:
#      x y z
#    x 1.895180 0.000000 0.000000 
#    y 0.000000 1.895180 0.000000 
#    z 0.000000 0.000000 1.837540 
# 
# From -- ./inp_files/495.got.cif
#   From: 2010.05.17/outbox.cif.g08.bks.cpg/sg116_1_cif.got.tgz:495.got - 2010.05.20 11:11:43.
