data_PCOD9557295
_publ_section_title
;
Structure prediction by ZEFSAII (Michael W. Deem and Ramdas Pophale) SiO2 
 PCOD9557295
Probable space group: P -4 M 2
;
_chemical_formula_sum "Si O2"
_cell_formula_units_Z 44
_cell_length_a 9.262959
_cell_length_b 9.262959
_cell_length_c 29.374509
_cell_angle_alpha 90.000000
_cell_angle_beta 90.000000
_cell_angle_gamma 90.000000
_cell_volume 2520.403648
_symmetry_space_group_name_H-M "P -4 M 2"
_symmetry_group_IT_number 115
_symmetry_cell_setting 'tetragonal'
loop_
_space_group_symop_operation_xyz
x,y,z
y,-x,-z
-x,-y,z
-y,x,-z
y,x,-z
-y,-x,-z
-x,y,z
x,-y,z
loop_
_atom_site_type_symbol
_atom_site_label
_atom_site_fract_x
_atom_site_fract_y
_atom_site_fract_z
Si Si1 0.676015 0.167023 0.858152
Si Si2 0.669689 0.827678 0.676809
Si Si3 0.827334 0.828884 0.416690
Si Si4 0.334307 0.676026 0.231535
Si Si5 0.671894 0.328107 0.500000
Si Si6 0.330914 0.826047 0.959159
O O1 0.500000 0.168794 0.858655
O O2 0.725236 0.258759 0.815027
O O3 0.720231 0.219030 0.908462
O O4 0.719073 0.000000 0.852496
O O5 0.500000 0.793048 0.668818
O O6 0.761907 0.789806 0.632427
O O7 0.718999 0.748962 0.722714
O O8 0.679323 0.000000 0.683731
O O9 0.740829 0.747516 0.455954
O O10 0.000000 0.807155 0.423569
O O11 0.799652 0.000000 0.417951
O O12 0.500000 0.721154 0.233175
O O13 0.330138 0.500000 0.230784
O O14 0.500000 0.303006 0.501621
O O15 0.500000 0.787363 0.963721
O O16 0.321448 0.000000 0.960354
O O17 0.242826 0.757175 0.000000
#
# Coordination Sequence:
#
# PCOD9557295 Si02
#       6
#     8   8   8   8   4   8
#     4   8  14  26  43  63  90 123 157 194 239 292
#     4   9  17  30  49  72  99 132 166 200 242 291
#     4  10  21  37  57  80 105 135 172 211 250 295
#     4   9  16  25  41  68  98 125 157 200 245 288
#     4  11  24  39  56  80 108 137 170 209 252 298
#     4   9  18  31  47  69  96 126 162 204 248 296
#
# _framework density 17.457521
#
# number of rings (size 3 to 8) (size 9 to 14) (size 15 to 20)
#    0.000    2.818    0.000    2.727    0.000    6.909 
#    0.000    3.636    0.000    1.091    0.000    2.545 
#    0.000    0.000    0.000    0.000    0.000    0.000 
#
# Total GULP energy -245301.375612 kJ/mol
# GULP energy per Si atom -5575.031264 kJ/mol
# Density = 1.741779 g / cm^3
# Si number density = 17.457521 Si / 1000 Ang^3
#
#
#
# Elastic Constant Matrix: (Units=GPa)
#
#
# Indices 1 2 3 4 5 6 
#
# 1 53.0280 43.3725 79.3521 0.0000 0.0000 0.0000
# 2 43.3725 53.0267 79.3512 0.0000 0.0000 0.0000
# 3 79.3521 79.3512 211.0163 0.0000 0.0000 0.0000
# 4 0.0000 0.0000 0.0000 37.7071 0.0000 0.0000
# 5 0.0000 0.0000 0.0000 0.0000 37.7088 0.0000
# 6 0.0000 0.0000 0.0000 0.0000 0.0000 18.0464
#
#
#
# Elastic Compliance Matrix: (Units=1/GPa)
#
#
# Indices 1 2 3 4 5 6 
#
# 1 0.065403 -0.038171 -0.010241 0.000000 0.000000 0.000000
# 2 -0.038171 0.065405 -0.010241 0.000000 0.000000 0.000000
# 3 -0.010241 -0.010241 0.012441 0.000000 0.000000 0.000000
# 4 0.000000 0.000000 0.000000 0.026520 0.000000 0.000000
# 5 0.000000 0.000000 0.000000 0.000000 0.026519 0.000000
# 6 0.000000 0.000000 0.000000 0.000000 0.000000 0.055413
#
#
# Mechanical properties :
#
#
# Convention : Reuss Voigt Hill
#
# Bulk Modulus (GPa) = 38.54510 80.13584 59.34047
# Shear Modulus (GPa) = 13.23965 26.35880 19.79922
#
# Velocity S-wave (km/s) = 2.75688 3.88994 3.37135
# Velocity P-wave (km/s) = 5.67989 8.13501 7.01568
#
# Compressibility (1/GPa) = 0.02594363
#
# Stress axis : x y z
#
# Youngs Moduli (GPa) = 15.28982 15.28942 80.37940
#
# Poissons Ratio (x) = 0.58361 0.82314
# Poissons Ratio (y) = 0.58363 0.82316
# Poissons Ratio (z) = 0.15658 0.15658
#
# Static dielectric constant tensor:
#      x y z
#    x 1.582330 0.000000 0.000000 
#    y 0.000000 1.582330 0.000000 
#    z 0.000000 0.000000 1.585700 
# 
# From -- ./inp_files/5722.got.cif
#   From: 2010.05.17/outbox.cif.g08.bks.cpg/sg115_3_cif.got.tgz:5722.got - 2010.05.20 11:07:42.
