data_PCOD9557413
_publ_section_title
;
Structure prediction by ZEFSAII (Michael W. Deem and Ramdas Pophale) SiO2 
 PCOD9557413
Probable space group: P -4 M 2
;
_chemical_formula_sum "Si O2"
_cell_formula_units_Z 33
_cell_length_a 11.867323
_cell_length_b 11.867323
_cell_length_c 11.993581
_cell_angle_alpha 90.000000
_cell_angle_beta 90.000000
_cell_angle_gamma 90.000000
_cell_volume 1689.096253
_symmetry_space_group_name_H-M "P -4 M 2"
_symmetry_group_IT_number 115
_symmetry_cell_setting 'tetragonal'
loop_
_space_group_symop_operation_xyz
x,y,z
y,-x,-z
-x,-y,z
-y,x,-z
y,x,-z
-y,-x,-z
-x,y,z
x,-y,z
loop_
_atom_site_type_symbol
_atom_site_label
_atom_site_fract_x
_atom_site_fract_y
_atom_site_fract_z
Si Si1 0.732109 0.000000 0.554946
Si Si2 0.366505 0.366505 0.500000
Si Si3 0.633907 0.222423 0.927065
Si Si4 0.743544 0.779144 0.685451
Si Si5 0.633924 0.000000 0.058628
Si Si6 0.727186 0.000000 0.305344
Si Si7 0.000000 0.000000 0.500000
O O1 0.699764 0.110697 0.621944
O O2 0.869945 0.000000 0.545906
O O3 0.679060 0.000000 0.431343
O O4 0.348624 0.500000 0.480767
O O5 0.294733 0.323837 0.606486
O O6 0.500000 0.216440 0.914660
O O7 0.690742 0.228955 0.806878
O O8 0.671413 0.328588 0.000000
O O9 0.675242 0.111994 0.995509
O O10 0.879045 0.788958 0.696277
O O11 0.500000 0.000000 0.046553
O O12 0.658366 0.000000 0.190350
#
# Coordination Sequence:
#
# PCOD9557413 Si02
#       7
#     4   4   8   8   4   4   1
#     4  12  21  38  62  97 134 169 206 260 324 389
#     4  11  25  44  65  93 130 168 214 275 327 378
#     4  11  24  43  67  93 128 170 217 271 327 386
#     4  12  23  42  66  97 133 170 215 263 329 394
#     4  10  23  43  63  91 129 169 218 276 320 371
#     4  12  20  38  69  95 124 171 211 263 319 385
#     4  12  16  32  56  88 130 164 204 244 300 370
#
# _framework density 19.537075000000002
#
# number of rings (size 3 to 8) (size 9 to 14) (size 15 to 20)
#    0.000    0.606    7.273    1.455    0.000    2.182 
#    0.000    1.818    0.000    0.364    0.000    0.000 
#    0.000    0.000    0.000    0.000    0.000    0.000 
#
# Total GULP energy -184047.882162 kJ/mol
# GULP energy per Si atom -5577.208550 kJ/mol
# Density = 1.949261 g / cm^3
# Si number density = 19.537075 Si / 1000 Ang^3
#
#
#
# Elastic Constant Matrix: (Units=GPa)
#
#
# Indices 1 2 3 4 5 6 
#
# 1 75.1830 20.4584 40.9581 0.0000 0.0000 0.0000
# 2 20.4584 75.1806 40.9572 0.0000 0.0000 0.0000
# 3 40.9581 40.9572 176.8883 0.0000 0.0000 0.0000
# 4 0.0000 0.0000 0.0000 32.7870 0.0000 0.0000
# 5 0.0000 0.0000 0.0000 0.0000 32.7874 0.0000
# 6 0.0000 0.0000 0.0000 0.0000 0.0000 19.5811
#
#
#
# Elastic Compliance Matrix: (Units=1/GPa)
#
#
# Indices 1 2 3 4 5 6 
#
# 1 0.015658 -0.002616 -0.003020 0.000000 0.000000 0.000000
# 2 -0.002616 0.015658 -0.003020 0.000000 0.000000 0.000000
# 3 -0.003020 -0.003020 0.007052 0.000000 0.000000 0.000000
# 4 0.000000 0.000000 0.000000 0.030500 0.000000 0.000000
# 5 0.000000 0.000000 0.000000 0.000000 0.030500 0.000000
# 6 0.000000 0.000000 0.000000 0.000000 0.000000 0.051070
#
#
# Mechanical properties :
#
#
# Convention : Reuss Voigt Hill
#
# Bulk Modulus (GPa) = 47.49032 59.11104 53.30068
# Shear Modulus (GPa) = 28.60954 32.02298 30.31626
#
# Velocity S-wave (km/s) = 3.83086 4.05296 3.94347
# Velocity P-wave (km/s) = 6.62781 7.22658 6.93366
#
# Compressibility (1/GPa) = 0.02105692
#
# Stress axis : x y z
#
# Youngs Moduli (GPa) = 63.86589 63.86400 141.80838
#
# Poissons Ratio (x) = 0.16705 0.42825
# Poissons Ratio (y) = 0.16705 0.42825
# Poissons Ratio (z) = 0.19287 0.19286
#
# Static dielectric constant tensor:
#      x y z
#    x 1.687630 0.000000 0.000000 
#    y 0.000000 1.687630 0.000000 
#    z 0.000000 0.000000 1.660760 
# 
# From -- ./inp_files/2689.got.cif
#   From: 2010.05.17/outbox.cif.g08.bks.cpg/sg115_2_cif.got.tgz:2689.got - 2010.05.20 11:07:42.
