data_PCOD9557663
_publ_section_title
;
Structure prediction by ZEFSAII (Michael W. Deem and Ramdas Pophale) SiO2 
 PCOD9557663
Probable space group: P -4 C 2
;
_chemical_formula_sum "Si O2"
_cell_formula_units_Z 60
_cell_length_a 17.575986
_cell_length_b 17.575986
_cell_length_c 9.361127
_cell_angle_alpha 90.000000
_cell_angle_beta 90.000000
_cell_angle_gamma 90.000000
_cell_volume 2891.795205
_symmetry_space_group_name_H-M "P -4 C 2"
_symmetry_group_IT_number 116
_symmetry_cell_setting 'tetragonal'
loop_
_space_group_symop_operation_xyz
x,y,z
y,-x,-z
-x,-y,z
-y,x,-z
y,x,1/2-z
-y,-x,1/2-z
-x,y,1/2+z
x,-y,1/2+z
loop_
_atom_site_type_symbol
_atom_site_label
_atom_site_fract_x
_atom_site_fract_y
_atom_site_fract_z
Si Si1 0.620853 0.539887 0.504430
Si Si2 0.874187 0.637674 0.427737
Si Si3 0.503009 0.718700 0.256523
Si Si4 0.034004 0.584554 0.415073
Si Si5 0.837208 0.614587 0.723294
Si Si6 0.198522 0.202258 0.083110
Si Si7 0.825382 0.383388 0.619347
Si Si8 0.792184 0.792184 0.750000
O O1 0.591251 0.453089 0.507478
O O2 0.662915 0.550981 0.653447
O O3 0.675631 0.546922 0.368687
O O4 0.835834 0.593441 0.556833
O O5 0.833359 0.718293 0.423176
O O6 0.859557 0.601820 0.276248
O O7 0.964627 0.640858 0.447818
O O8 0.445876 0.783431 0.200215
O O9 0.563592 0.752005 0.370042
O O10 0.075025 0.604796 0.267057
O O11 0.105151 0.594858 0.518828
O O12 0.000000 0.500000 0.417888
O O13 0.810081 0.701528 0.742406
O O14 0.174092 0.174092 0.250000
O O15 0.194206 0.294235 0.094937
O O16 0.173461 0.185386 0.911754
#
# Coordination Sequence:
#
# PCOD9557663 Si02
#       8
#     8   8   8   8   8   8   8   4
#     4  11  26  43  58  80 109 149 207 281 346 398
#     4  10  22  37  59  86 120 164 203 254 321 390
#     4  12  24  39  62  82 111 152 208 259 336 401
#     4  12  23  39  60  88 134 171 204 258 334 415
#     4  11  23  38  59  91 118 163 218 263 329 403
#     4   9  20  38  61  89 122 163 216 267 317 377
#     4  11  22  40  59  91 124 163 211 270 321 394
#     4  10  20  38  62  86 125 160 215 284 322 370
#
# _framework density 20.748356999999999
#
# number of rings (size 3 to 8) (size 9 to 14) (size 15 to 20)
#    0.000    1.200    1.333    4.800    1.867    6.400 
#    0.000    0.000    0.000    0.000    0.000    0.000 
#    0.000    0.533    1.067    0.000    0.000    0.000 
#
# Total GULP energy -334291.578337 kJ/mol
# GULP energy per Si atom -5571.526306 kJ/mol
# Density = 2.070113 g / cm^3
# Si number density = 20.748357 Si / 1000 Ang^3
#
#
#
# Elastic Constant Matrix: (Units=GPa)
#
#
# Indices 1 2 3 4 5 6 
#
# 1 94.8997 31.2614 12.8711 0.0000 0.0000 0.0000
# 2 31.2614 94.8997 12.8711 0.0000 0.0000 0.0000
# 3 12.8711 12.8711 138.2153 0.0000 0.0000 0.0000
# 4 0.0000 0.0000 0.0000 20.2293 0.0000 0.0000
# 5 0.0000 0.0000 0.0000 0.0000 20.2293 0.0000
# 6 0.0000 0.0000 0.0000 0.0000 0.0000 28.3783
#
#
#
# Elastic Compliance Matrix: (Units=1/GPa)
#
#
# Indices 1 2 3 4 5 6 
#
# 1 0.011897 -0.003817 -0.000752 0.000000 0.000000 0.000000
# 2 -0.003817 0.011897 -0.000752 0.000000 0.000000 0.000000
# 3 -0.000752 -0.000752 0.007375 0.000000 0.000000 0.000000
# 4 0.000000 0.000000 0.000000 0.049433 0.000000 0.000000
# 5 0.000000 0.000000 0.000000 0.000000 0.049433 0.000000
# 6 0.000000 0.000000 0.000000 0.000000 0.000000 0.035238
#
#
# Mechanical properties :
#
#
# Convention : Reuss Voigt Hill
#
# Bulk Modulus (GPa) = 48.72033 49.11355 48.91694
# Shear Modulus (GPa) = 27.35841 31.83476 29.59659
#
# Velocity S-wave (km/s) = 3.63517 3.92130 3.78094
# Velocity P-wave (km/s) = 6.41496 6.65015 6.53362
#
# Compressibility (1/GPa) = 0.02052531
#
# Stress axis : x y z
#
# Youngs Moduli (GPa) = 84.05580 84.05580 135.58901
#
# Poissons Ratio (x) = 0.32084 0.10202
# Poissons Ratio (y) = 0.32084 0.10202
# Poissons Ratio (z) = 0.06325 0.06325
#
# Static dielectric constant tensor:
#      x y z
#    x 1.743850 0.000000 0.000000 
#    y 0.000000 1.743850 0.000000 
#    z 0.000000 0.000000 1.768530 
# 
# From -- ./inp_files/1044.got.cif
#   From: 2010.05.17/outbox.cif.g08.bks.cpg/sg116_1_cif.got.tgz:1044.got - 2010.05.20 11:11:43.
