data_PCOD9557592
_publ_section_title
;
Structure prediction by ZEFSAII (Michael W. Deem and Ramdas Pophale) SiO2 
 PCOD9557592
Probable space group: P -4 C 2
;
_chemical_formula_sum "Si O2"
_cell_formula_units_Z 32
_cell_length_a 9.339545
_cell_length_b 9.339545
_cell_length_c 15.476795
_cell_angle_alpha 90.000000
_cell_angle_beta 90.000000
_cell_angle_gamma 90.000000
_cell_volume 1349.995958
_symmetry_space_group_name_H-M "P -4 C 2"
_symmetry_group_IT_number 116
_symmetry_cell_setting 'tetragonal'
loop_
_space_group_symop_operation_xyz
x,y,z
y,-x,-z
-x,-y,z
-y,x,-z
y,x,1/2-z
-y,-x,1/2-z
-x,y,1/2+z
x,-y,1/2+z
loop_
_atom_site_type_symbol
_atom_site_label
_atom_site_fract_x
_atom_site_fract_y
_atom_site_fract_z
Si Si1 0.664099 0.335902 0.750000
Si Si2 0.000000 0.000000 0.250000
Si Si3 0.308842 0.021382 0.049426
Si Si4 0.446805 0.238572 0.616628
Si Si5 0.500000 0.500000 0.500000
Si Si6 0.230964 0.090583 0.376036
O O1 0.512682 0.300789 0.705095
O O2 0.785694 0.313784 0.676591
O O3 0.854260 0.998471 0.305037
O O4 0.319299 0.875670 0.106425
O O5 0.427964 0.135230 0.079217
O O6 0.163718 0.104010 0.068814
O O7 0.323469 0.986343 0.948516
O O8 0.427204 0.376718 0.556925
#
# Coordination Sequence:
#
# PCOD9557592 Si02
#       6
#     4   2   8   8   2   8
#     4   9  20  38  56  85 126 160 208 274 324 370
#     4  10  20  30  48  86 124 150 188 254 324 364
#     4  10  20  39  65  89 121 168 218 259 327 407
#     4  10  22  40  62  89 122 169 219 270 324 394
#     4  12  24  42  64  88 128 174 224 264 324 410
#     4  10  19  35  59  89 125 161 206 270 327 391
#
# _framework density 23.703778
#
# number of rings (size 3 to 8) (size 9 to 14) (size 15 to 20)
#    0.000    2.000    0.000    4.500    0.000    0.500 
#    0.000   30.000    0.000    3.000    0.000    0.000 
#    0.000    0.000    0.000    0.000    0.000    0.000 
#
# Total GULP energy -178749.706871 kJ/mol
# GULP energy per Si atom -5585.928340 kJ/mol
# Density = 2.364983 g / cm^3
# Si number density = 23.703778 Si / 1000 Ang^3
#
#
#
# Elastic Constant Matrix: (Units=GPa)
#
#
# Indices 1 2 3 4 5 6 
#
# 1 65.2420 9.0277 26.1616 0.0000 0.0000 0.0000
# 2 9.0277 65.2422 26.1617 0.0000 0.0000 0.0000
# 3 26.1616 26.1617 126.0267 0.0000 0.0000 0.0000
# 4 0.0000 0.0000 0.0000 30.4760 0.0000 0.0000
# 5 0.0000 0.0000 0.0000 0.0000 30.4758 0.0000
# 6 0.0000 0.0000 0.0000 0.0000 0.0000 26.4053
#
#
#
# Elastic Compliance Matrix: (Units=1/GPa)
#
#
# Indices 1 2 3 4 5 6 
#
# 1 0.016780 -0.001009 -0.003274 0.000000 0.000000 0.000000
# 2 -0.001009 0.016780 -0.003274 0.000000 0.000000 0.000000
# 3 -0.003274 -0.003274 0.009294 0.000000 0.000000 0.000000
# 4 0.000000 0.000000 0.000000 0.032813 0.000000 0.000000
# 5 0.000000 0.000000 0.000000 0.000000 0.032813 0.000000
# 6 0.000000 0.000000 0.000000 0.000000 0.000000 0.037871
#
#
# Mechanical properties :
#
#
# Convention : Reuss Voigt Hill
#
# Bulk Modulus (GPa) = 36.04852 42.13476 39.09164
# Shear Modulus (GPa) = 29.28925 30.48207 29.88566
#
# Velocity S-wave (km/s) = 3.51898 3.58992 3.55462
# Velocity P-wave (km/s) = 5.63488 5.91587 5.77708
#
# Compressibility (1/GPa) = 0.02774039
#
# Stress axis : x y z
#
# Youngs Moduli (GPa) = 59.59493 59.59507 107.59573
#
# Poissons Ratio (x) = 0.06014 0.35225
# Poissons Ratio (y) = 0.06014 0.35225
# Poissons Ratio (z) = 0.19510 0.19511
#
# Static dielectric constant tensor:
#      x y z
#    x 1.950560 0.000000 0.000000 
#    y 0.000000 1.950560 0.000000 
#    z 0.000000 0.000000 1.945170 
# 
# From -- ./inp_files/2460.got.cif
#   From: 2010.05.17/outbox.cif.g08.bks.cpg/sg116_2_cif.got.tgz:2460.got - 2010.05.20 11:11:43.
