data_PCOD9557251
_publ_section_title
;
Structure prediction by ZEFSAII (Michael W. Deem and Ramdas Pophale) SiO2 
 PCOD9557251
Probable space group: P -4 M 2
;
_chemical_formula_sum "Si O2"
_cell_formula_units_Z 48
_cell_length_a 9.231105
_cell_length_b 9.231105
_cell_length_c 31.698857
_cell_angle_alpha 90.000000
_cell_angle_beta 90.000000
_cell_angle_gamma 90.000000
_cell_volume 2701.164196
_symmetry_space_group_name_H-M "P -4 M 2"
_symmetry_group_IT_number 115
_symmetry_cell_setting 'tetragonal'
loop_
_space_group_symop_operation_xyz
x,y,z
y,-x,-z
-x,-y,z
-y,x,-z
y,x,-z
-y,-x,-z
-x,y,z
x,-y,z
loop_
_atom_site_type_symbol
_atom_site_label
_atom_site_fract_x
_atom_site_fract_y
_atom_site_fract_z
Si Si1 0.827826 0.172175 0.000000
Si Si2 0.326469 0.829711 0.085864
Si Si3 0.829961 0.173989 0.750908
Si Si4 0.171745 0.828256 0.500000
Si Si5 0.674384 0.330146 0.171722
Si Si6 0.827914 0.672144 0.586763
Si Si7 0.329108 0.826733 0.663929
O O1 0.780446 0.252198 0.957435
O O2 0.000000 0.196349 0.004846
O O3 0.500000 0.818576 0.081406
O O4 0.282279 0.739408 0.126911
O O5 0.290800 0.000000 0.092338
O O6 0.753927 0.251038 0.790094
O O7 0.751777 0.214554 0.707178
O O8 0.000000 0.210164 0.749132
O O9 0.816677 0.000000 0.755571
O O10 0.259173 0.786295 0.458255
O O11 0.000000 0.805784 0.492509
O O12 0.500000 0.315623 0.175223
O O13 0.710478 0.500000 0.173135
O O14 0.806537 0.500000 0.586268
O O15 0.740108 0.744958 0.624489
O O16 0.000000 0.701109 0.592699
O O17 0.500000 0.797033 0.667471
O O18 0.310309 0.000000 0.658185
#
# Coordination Sequence:
#
# PCOD9557251 Si02
#       7
#     4   8   8   4   8   8   8
#     4   9  18  32  50  73 100 130 168 215 262 307
#     4   9  18  33  51  71  99 135 172 210 256 311
#     4  10  21  37  58  82 106 136 176 220 265 314
#     4   9  18  34  56  79 106 144 186 225 264 309
#     4  10  21  36  54  78 108 141 176 215 262 315
#     4  10  21  36  55  81 111 142 178 219 263 314
#     4  10  21  37  57  80 107 140 177 218 265 315
#
# _framework density 17.770115000000001
#
# number of rings (size 3 to 8) (size 9 to 14) (size 15 to 20)
#    0.000    2.333    0.000    2.000    0.000    6.667 
#    0.000    3.333    0.000    0.000    0.000    0.000 
#    0.000    0.000    0.000    0.000    0.000    0.000 
#
# Total GULP energy -267981.679370 kJ/mol
# GULP energy per Si atom -5582.951654 kJ/mol
# Density = 1.772967 g / cm^3
# Si number density = 17.770115 Si / 1000 Ang^3
#
#
#
# Elastic Constant Matrix: (Units=GPa)
#
#
# Indices 1 2 3 4 5 6 
#
# 1 72.5995 62.1170 96.9155 0.0000 0.0000 0.0000
# 2 62.1170 72.5994 96.9155 0.0000 0.0000 0.0000
# 3 96.9155 96.9155 218.2068 0.0000 0.0000 0.0000
# 4 0.0000 0.0000 0.0000 226.6504 0.0000 0.0000
# 5 0.0000 0.0000 0.0000 0.0000 226.6393 0.0000
# 6 0.0000 0.0000 0.0000 0.0000 0.0000 25.0609
#
#
#
# Elastic Compliance Matrix: (Units=1/GPa)
#
#
# Indices 1 2 3 4 5 6 
#
# 1 0.057981 -0.037417 -0.009134 0.000000 0.000000 0.000000
# 2 -0.037417 0.057981 -0.009134 0.000000 0.000000 0.000000
# 3 -0.009134 -0.009134 0.012696 0.000000 0.000000 0.000000
# 4 0.000000 0.000000 0.000000 0.004412 0.000000 0.000000
# 5 0.000000 0.000000 0.000000 0.000000 0.004412 0.000000
# 6 0.000000 0.000000 0.000000 0.000000 0.000000 0.039903
#
#
# Mechanical properties :
#
#
# Convention : Reuss Voigt Hill
#
# Bulk Modulus (GPa) = 57.83467 97.25575 77.54521
# Shear Modulus (GPa) = 16.97696 102.83394 59.90545
#
# Velocity S-wave (km/s) = 3.09425 7.61542 5.81245
# Velocity P-wave (km/s) = 6.73666 11.49674 9.42225
#
# Compressibility (1/GPa) = 0.01729067
#
# Stress axis : x y z
#
# Youngs Moduli (GPa) = 17.24702 17.24700 78.76405
#
# Poissons Ratio (x) = 0.64532 0.71940
# Poissons Ratio (y) = 0.64532 0.71940
# Poissons Ratio (z) = 0.15753 0.15753
#
# Static dielectric constant tensor:
#      x y z
#    x 1.593550 0.000000 0.000000 
#    y 0.000000 1.593550 0.000000 
#    z 0.000000 0.000000 1.569770 
# 
# From -- ./inp_files/6224.got.cif
#   From: 2010.05.17/outbox.cif.g08.bks.cpg/sg115_4_cif.got.tgz:6224.got - 2010.05.20 11:07:42.
