data_PCOD9557973
_publ_section_title
;
Structure prediction by ZEFSAII (Michael W. Deem and Ramdas Pophale) SiO2 
 PCOD9557973
Probable space group: P -4 C 2
;
_chemical_formula_sum "Si O2"
_cell_formula_units_Z 40
_cell_length_a 8.785562
_cell_length_b 8.785562
_cell_length_c 23.413018
_cell_angle_alpha 90.000000
_cell_angle_beta 90.000000
_cell_angle_gamma 90.000000
_cell_volume 1807.159541
_symmetry_space_group_name_H-M "P -4 C 2"
_symmetry_group_IT_number 116
_symmetry_cell_setting 'tetragonal'
loop_
_space_group_symop_operation_xyz
x,y,z
y,-x,-z
-x,-y,z
-y,x,-z
y,x,1/2-z
-y,-x,1/2-z
-x,y,1/2+z
x,-y,1/2+z
loop_
_atom_site_type_symbol
_atom_site_label
_atom_site_fract_x
_atom_site_fract_y
_atom_site_fract_z
Si Si1 0.560079 0.831114 0.464204
Si Si2 0.320998 0.026223 0.292963
Si Si3 0.694649 0.395263 0.412988
Si Si4 0.230439 0.272356 0.372898
Si Si5 0.223150 0.095128 0.669383
O O1 0.447387 0.700406 0.438707
O O2 0.585667 0.796852 0.530431
O O3 0.711195 0.822807 0.426744
O O4 0.500000 0.000000 0.456958
O O5 0.171000 0.942353 0.320665
O O6 0.298473 0.963006 0.228704
O O7 0.500000 0.000000 0.308599
O O8 0.292477 0.197979 0.314243
O O9 0.698105 0.562637 0.384771
O O10 0.763764 0.300795 0.361463
O O11 0.049303 0.256998 0.370441
#
# Coordination Sequence:
#
# PCOD9557973 Si02
#       5
#     8   8   8   8   8
#     4  12  26  45  70 104 152 198 249 317 397 476
#     4  11  24  46  71 106 147 201 257 326 394 468
#     4  12  25  46  71 106 148 200 254 316 394 483
#     4  12  23  41  70 105 140 193 249 314 384 472
#     4  11  25  45  73 104 149 198 259 321 396 468
#
# _framework density 22.134181000000002
#
# number of rings (size 3 to 8) (size 9 to 14) (size 15 to 20)
#    0.000    0.400    2.000    7.800    0.000    1.600 
#    0.000    0.000    0.000    2.400    0.000    0.000 
#    0.000    0.000    0.000    0.000    0.000    0.000 
#
# Total GULP energy -222858.498074 kJ/mol
# GULP energy per Si atom -5571.462452 kJ/mol
# Density = 2.208380 g / cm^3
# Si number density = 22.134181 Si / 1000 Ang^3
#
#
#
# Elastic Constant Matrix: (Units=GPa)
#
#
# Indices 1 2 3 4 5 6 
#
# 1 77.2434 0.9774 12.1953 0.0000 0.0000 0.0000
# 2 0.9774 77.2434 12.1953 0.0000 0.0000 0.0000
# 3 12.1953 12.1953 98.1936 0.0000 0.0000 0.0000
# 4 0.0000 0.0000 0.0000 28.9398 0.0000 0.0000
# 5 0.0000 0.0000 0.0000 0.0000 28.9398 0.0000
# 6 0.0000 0.0000 0.0000 0.0000 0.0000 -10.9658
#
#
#
# Elastic Compliance Matrix: (Units=1/GPa)
#
#
# Indices 1 2 3 4 5 6 
#
# 1 0.013206 0.000094 -0.001652 0.000000 0.000000 0.000000
# 2 0.000094 0.013206 -0.001652 0.000000 0.000000 0.000000
# 3 -0.001652 -0.001652 0.010594 0.000000 0.000000 0.000000
# 4 0.000000 0.000000 0.000000 0.034554 0.000000 0.000000
# 5 0.000000 0.000000 0.000000 0.000000 0.034554 0.000000
# 6 0.000000 0.000000 0.000000 0.000000 0.000000 -0.091193
#
#
# Mechanical properties :
#
#
# Convention : Reuss Voigt Hill
#
# Bulk Modulus (GPa) = 32.69466 33.71293 33.20380
# Shear Modulus (GPa) = 158.54484 24.53693 91.54089
#
# Velocity S-wave (km/s) = 8.47257 3.33311 6.43794
# Velocity P-wave (km/s) = 10.51265 5.48425 8.38430
#
# Compressibility (1/GPa) = 0.03058603
#
# Stress axis : x y z
#
# Youngs Moduli (GPa) = 75.72496 75.72496 94.39091
#
# Poissons Ratio (x) = -0.00709 0.15591
# Poissons Ratio (y) = -0.00709 0.15591
# Poissons Ratio (z) = 0.12508 0.12508
#
# Static dielectric constant tensor:
#      x y z
#    x 1.871760 0.000000 0.000000 
#    y 0.000000 1.871760 0.000000 
#    z 0.000000 0.000000 1.843230 
# 
# From -- ./inp_files/4463.got.cif
#   From: 2010.05.17/outbox.cif.g08.bks.cpg/sg116_3_cif.got.tgz:4463.got - 2010.05.20 11:11:43.
