data_PCOD9557660
_publ_section_title
;
Structure prediction by ZEFSAII (Michael W. Deem and Ramdas Pophale) SiO2 
 PCOD9557660
Probable space group: P -4 C 2
;
_chemical_formula_sum "Si O2"
_cell_formula_units_Z 56
_cell_length_a 14.859250
_cell_length_b 14.859250
_cell_length_c 13.182350
_cell_angle_alpha 90.000000
_cell_angle_beta 90.000000
_cell_angle_gamma 90.000000
_cell_volume 2910.627427
_symmetry_space_group_name_H-M "P -4 C 2"
_symmetry_group_IT_number 116
_symmetry_cell_setting 'tetragonal'
loop_
_space_group_symop_operation_xyz
x,y,z
y,-x,-z
-x,-y,z
-y,x,-z
y,x,1/2-z
-y,-x,1/2-z
-x,y,1/2+z
x,-y,1/2+z
loop_
_atom_site_type_symbol
_atom_site_label
_atom_site_fract_x
_atom_site_fract_y
_atom_site_fract_z
Si Si1 0.301127 0.074722 0.103110
Si Si2 0.636383 0.536711 0.994092
Si Si3 0.863057 0.971418 0.980274
Si Si4 0.075374 0.427821 0.966042
Si Si5 0.218533 0.623539 0.632197
Si Si6 0.219065 0.902354 0.811119
Si Si7 0.207189 0.543452 0.855794
O O1 0.285370 0.062618 0.223017
O O2 0.371314 0.157011 0.090343
O O3 0.340376 0.981268 0.061102
O O4 0.207993 0.086028 0.044073
O O5 0.705045 0.496089 0.911232
O O6 0.593189 0.448465 0.047505
O O7 0.691065 0.601152 0.070675
O O8 0.812304 0.022143 0.889261
O O9 0.947285 0.907333 0.953734
O O10 0.132566 0.465216 0.871003
O O11 0.000000 0.500000 0.992160
O O12 0.140836 0.416915 0.060684
O O13 0.184788 0.726375 0.645951
O O14 0.224169 0.575957 0.741566
O O15 0.133448 0.866553 0.750000
#
# Coordination Sequence:
#
# PCOD9557660 Si02
#       7
#     8   8   8   8   8   8   8
#     4  10  20  38  59  87 118 152 199 249 295 359
#     4  10  23  40  58  86 122 156 193 244 301 355
#     4  11  23  39  58  84 123 160 196 249 297 348
#     4   9  18  36  59  88 121 150 192 248 306 355
#     4  10  21  36  64  85 115 159 195 246 295 358
#     4  11  22  37  62  89 112 158 208 244 296 360
#     4   9  21  38  60  91 115 151 201 247 293 368
#
# _framework density 19.239837999999999
#
# number of rings (size 3 to 8) (size 9 to 14) (size 15 to 20)
#    0.000    2.000    2.857    0.000    4.000    4.000 
#    2.571    1.429    0.000    1.714    0.000    0.000 
#    0.000    0.000    0.000    0.000    0.000    0.000 
#
# Total GULP energy -312007.215070 kJ/mol
# GULP energy per Si atom -5571.557412 kJ/mol
# Density = 1.919605 g / cm^3
# Si number density = 19.239838 Si / 1000 Ang^3
#
#
#
# Elastic Constant Matrix: (Units=GPa)
#
#
# Indices 1 2 3 4 5 6 
#
# 1 61.5251 5.9626 15.5431 0.0000 0.0000 0.0000
# 2 5.9626 61.5241 15.5428 0.0000 0.0000 0.0000
# 3 15.5431 15.5428 63.1095 0.0000 0.0000 0.0000
# 4 0.0000 0.0000 0.0000 23.9083 0.0000 0.0000
# 5 0.0000 0.0000 0.0000 0.0000 23.9084 0.0000
# 6 0.0000 0.0000 0.0000 0.0000 0.0000 18.4457
#
#
#
# Elastic Compliance Matrix: (Units=1/GPa)
#
#
# Indices 1 2 3 4 5 6 
#
# 1 0.017356 -0.000642 -0.004116 0.000000 0.000000 0.000000
# 2 -0.000642 0.017356 -0.004116 0.000000 0.000000 0.000000
# 3 -0.004116 -0.004116 0.017873 0.000000 0.000000 0.000000
# 4 0.000000 0.000000 0.000000 0.041827 0.000000 0.000000
# 5 0.000000 0.000000 0.000000 0.000000 0.041826 0.000000
# 6 0.000000 0.000000 0.000000 0.000000 0.000000 0.054213
#
#
# Mechanical properties :
#
#
# Convention : Reuss Voigt Hill
#
# Bulk Modulus (GPa) = 28.70667 28.91728 28.81197
# Shear Modulus (GPa) = 22.74673 23.19317 22.96995
#
# Velocity S-wave (km/s) = 3.44215 3.47576 3.45900
# Velocity P-wave (km/s) = 5.54533 5.58305 5.56422
#
# Compressibility (1/GPa) = 0.03483511
#
# Stress axis : x y z
#
# Youngs Moduli (GPa) = 57.61802 57.61721 55.95016
#
# Poissons Ratio (x) = 0.03700 0.23031
# Poissons Ratio (y) = 0.03700 0.23031
# Poissons Ratio (z) = 0.23718 0.23717
#
# Static dielectric constant tensor:
#      x y z
#    x 1.698290 0.000000 0.000000 
#    y 0.000000 1.698290 0.000000 
#    z 0.000000 0.000000 1.662090 
# 
# From -- ./inp_files/2001.got.cif
#   From: 2010.05.17/outbox.cif.g08.bks.cpg/sg116_2_cif.got.tgz:2001.got - 2010.05.20 11:11:43.
