data_PCOD9557014
_publ_section_title
;
Structure prediction by ZEFSAII (Michael W. Deem and Ramdas Pophale) SiO2 
 PCOD9557014
Probable space group: P -4 M 2
;
_chemical_formula_sum "Si O2"
_cell_formula_units_Z 48
_cell_length_a 9.163565
_cell_length_b 9.163565
_cell_length_c 31.804879
_cell_angle_alpha 90.000000
_cell_angle_beta 90.000000
_cell_angle_gamma 90.000000
_cell_volume 2670.685062
_symmetry_space_group_name_H-M "P -4 M 2"
_symmetry_group_IT_number 115
_symmetry_cell_setting 'tetragonal'
loop_
_space_group_symop_operation_xyz
x,y,z
y,-x,-z
-x,-y,z
-y,x,-z
y,x,-z
-y,-x,-z
-x,y,z
x,-y,z
loop_
_atom_site_type_symbol
_atom_site_label
_atom_site_fract_x
_atom_site_fract_y
_atom_site_fract_z
Si Si1 0.168093 0.322530 0.663175
Si Si2 0.329017 0.823914 0.243142
Si Si3 0.672769 0.325308 0.078631
Si Si4 0.826549 0.173452 0.000000
Si Si5 0.328275 0.675465 0.578421
Si Si6 0.170729 0.674837 0.165683
Si Si7 0.173260 0.826741 0.500000
O O1 0.167181 0.500000 0.664265
O O2 0.218383 0.277655 0.709794
O O3 0.265751 0.278318 0.623824
O O4 0.000000 0.275960 0.656826
O O5 0.500000 0.783313 0.238515
O O6 0.237255 0.752929 0.206181
O O7 0.321101 0.000000 0.241242
O O8 0.500000 0.296546 0.078550
O O9 0.693767 0.500000 0.073006
O O10 0.742490 0.284095 0.123423
O O11 0.750895 0.241617 0.040956
O O12 0.000000 0.199117 0.001648
O O13 0.500000 0.705663 0.575480
O O14 0.308086 0.500000 0.574691
O O15 0.243236 0.753756 0.541079
O O16 0.185136 0.500000 0.170759
O O17 0.000000 0.709373 0.160736
O O18 0.000000 0.800792 0.499582
#
# Coordination Sequence:
#
# PCOD9557014 Si02
#       7
#     8   8   8   4   8   8   4
#     4   8  15  30  52  77 106 140 176 215 260 310
#     4   9  18  33  54  80 108 140 180 221 262 313
#     4  10  21  38  60  83 106 138 181 224 267 316
#     4  11  24  39  56  82 114 145 176 213 262 318
#     4  10  20  34  55  83 109 134 170 216 265 316
#     4  10  21  36  54  78 109 144 181 222 268 315
#     4  11  24  39  54  74 102 139 180 217 258 312
#
# _framework density 17.972915
#
# number of rings (size 3 to 8) (size 9 to 14) (size 15 to 20)
#    0.000    2.333    0.000    3.500    0.000    8.000 
#    0.000    2.500    0.000    1.000    0.000    0.000 
#    0.000    0.000    0.000    0.000    0.000    0.000 
#
# Total GULP energy -267948.137611 kJ/mol
# GULP energy per Si atom -5582.252867 kJ/mol
# Density = 1.793201 g / cm^3
# Si number density = 17.972915 Si / 1000 Ang^3
#
#
#
# Elastic Constant Matrix: (Units=GPa)
#
#
# Indices 1 2 3 4 5 6 
#
# 1 73.2139 66.5382 87.4382 0.0000 0.0000 0.0000
# 2 66.5382 73.2138 87.4380 0.0000 0.0000 0.0000
# 3 87.4382 87.4380 203.8690 0.0000 0.0000 0.0000
# 4 0.0000 0.0000 0.0000 105.6713 0.0000 0.0000
# 5 0.0000 0.0000 0.0000 0.0000 105.6713 0.0000
# 6 0.0000 0.0000 0.0000 0.0000 0.0000 26.9376
#
#
#
# Elastic Compliance Matrix: (Units=1/GPa)
#
#
# Indices 1 2 3 4 5 6 
#
# 1 0.082622 -0.067177 -0.006624 0.000000 0.000000 0.000000
# 2 -0.067177 0.082622 -0.006624 0.000000 0.000000 0.000000
# 3 -0.006624 -0.006624 0.010587 0.000000 0.000000 0.000000
# 4 0.000000 0.000000 0.000000 0.009463 0.000000 0.000000
# 5 0.000000 0.000000 0.000000 0.000000 0.009463 0.000000
# 6 0.000000 0.000000 0.000000 0.000000 0.000000 0.037123
#
#
# Mechanical properties :
#
#
# Convention : Reuss Voigt Hill
#
# Bulk Modulus (GPa) = 66.75649 92.56952 79.66301
# Shear Modulus (GPa) = 12.57154 54.91485 33.74319
#
# Velocity S-wave (km/s) = 2.64762 5.53358 4.33765
# Velocity P-wave (km/s) = 6.82422 9.61479 8.33709
#
# Compressibility (1/GPa) = 0.01497982
#
# Stress axis : x y z
#
# Youngs Moduli (GPa) = 12.10337 12.10335 94.45490
#
# Poissons Ratio (x) = 0.81307 0.62567
# Poissons Ratio (y) = 0.81307 0.62566
# Poissons Ratio (z) = 0.08017 0.08017
#
# Static dielectric constant tensor:
#      x y z
#    x 1.595980 0.000000 0.000000 
#    y 0.000000 1.595980 0.000000 
#    z 0.000000 0.000000 1.594970 
# 
# From -- ./inp_files/6152.got.cif
#   From: 2010.05.17/outbox.cif.g08.bks.cpg/sg115_4_cif.got.tgz:6152.got - 2010.05.20 11:07:42.
