data_PCOD9557005
_publ_section_title
;
Structure prediction by ZEFSAII (Michael W. Deem and Ramdas Pophale) SiO2 
 PCOD9557005
Probable space group: P -4 M 2
;
_chemical_formula_sum "Si O2"
_cell_formula_units_Z 40
_cell_length_a 7.979242
_cell_length_b 7.979242
_cell_length_c 30.659107
_cell_angle_alpha 90.000000
_cell_angle_beta 90.000000
_cell_angle_gamma 90.000000
_cell_volume 1952.013311
_symmetry_space_group_name_H-M "P -4 M 2"
_symmetry_group_IT_number 115
_symmetry_cell_setting 'tetragonal'
loop_
_space_group_symop_operation_xyz
x,y,z
y,-x,-z
-x,-y,z
-y,x,-z
y,x,-z
-y,-x,-z
-x,y,z
x,-y,z
loop_
_atom_site_type_symbol
_atom_site_label
_atom_site_fract_x
_atom_site_fract_y
_atom_site_fract_z
Si Si1 0.299617 0.691173 0.861631
Si Si2 0.703889 0.308774 0.450185
Si Si3 0.312182 0.197860 0.046873
Si Si4 0.308996 0.800874 0.766242
Si Si5 0.297228 0.000000 0.391531
Si Si6 0.202571 0.000000 0.290728
O O1 0.500000 0.685067 0.860340
O O2 0.232715 0.500000 0.861929
O O3 0.255630 0.772646 0.908121
O O4 0.249312 0.773246 0.816097
O O5 0.742564 0.257437 0.500000
O O6 0.500000 0.314538 0.448302
O O7 0.763290 0.500000 0.442195
O O8 0.762110 0.167709 0.416528
O O9 0.500000 0.273383 0.046562
O O10 0.323472 0.000000 0.050359
O O11 0.236190 0.236190 0.000000
O O12 0.500000 0.732527 0.761188
O O13 0.168086 0.733786 0.733481
O O14 0.320641 0.000000 0.759384
O O15 0.500000 0.000000 0.393966
O O16 0.246478 0.000000 0.341352
O O17 0.000000 0.000000 0.286470
#
# Coordination Sequence:
#
# PCOD9557005 Si02
#       6
#     8   8   8   8   4   4
#     4   9  18  33  54  79 102 126 166 218 266 316
#     4   8  15  31  54  78 109 146 181 226 279 328
#     4  10  21  35  51  74 104 137 170 209 260 318
#     4   9  19  36  56  75 100 140 182 219 268 332
#     4  10  20  34  54  82 110 142 188 230 272 333
#     4  10  22  38  52  74 112 144 176 224 278 319
#
# _framework density 20.491662999999999
#
# number of rings (size 3 to 8) (size 9 to 14) (size 15 to 20)
#    0.000    2.800    0.000    1.200    1.400    3.600 
#    1.800    2.000    0.000    0.000    0.000    0.000 
#    0.000    0.000    0.000    0.000    0.000    0.000 
#
# Total GULP energy -222941.319178 kJ/mol
# GULP energy per Si atom -5573.532979 kJ/mol
# Density = 2.044502 g / cm^3
# Si number density = 20.491663 Si / 1000 Ang^3
#
#
#
# Elastic Constant Matrix: (Units=GPa)
#
#
# Indices 1 2 3 4 5 6 
#
# 1 52.4038 22.7455 56.7450 0.0000 0.0000 0.0000
# 2 22.7455 52.4039 56.7451 0.0000 0.0000 0.0000
# 3 56.7450 56.7451 201.2374 0.0000 0.0000 0.0000
# 4 0.0000 0.0000 0.0000 33.0698 0.0000 0.0000
# 5 0.0000 0.0000 0.0000 0.0000 33.0698 0.0000
# 6 0.0000 0.0000 0.0000 0.0000 0.0000 6.5302
#
#
#
# Elastic Compliance Matrix: (Units=1/GPa)
#
#
# Indices 1 2 3 4 5 6 
#
# 1 0.028447 -0.005270 -0.006535 0.000000 0.000000 0.000000
# 2 -0.005270 0.028447 -0.006535 0.000000 0.000000 0.000000
# 3 -0.006535 -0.006535 0.008655 0.000000 0.000000 0.000000
# 4 0.000000 0.000000 0.000000 0.030239 0.000000 0.000000
# 5 0.000000 0.000000 0.000000 0.000000 0.030239 0.000000
# 6 0.000000 0.000000 0.000000 0.000000 0.000000 0.153136
#
#
# Mechanical properties :
#
#
# Convention : Reuss Voigt Hill
#
# Bulk Modulus (GPa) = 34.64218 64.27958 49.46088
# Shear Modulus (GPa) = 15.36255 25.85458 20.60857
#
# Velocity S-wave (km/s) = 2.74103 3.55591 3.17473
# Velocity P-wave (km/s) = 5.19229 6.94954 6.13417
#
# Compressibility (1/GPa) = 0.02886654
#
# Stress axis : x y z
#
# Youngs Moduli (GPa) = 35.15321 35.15332 115.54130
#
# Poissons Ratio (x) = 0.18527 0.75510
# Poissons Ratio (y) = 0.18527 0.75510
# Poissons Ratio (z) = 0.22974 0.22974
#
# Static dielectric constant tensor:
#      x y z
#    x 1.748640 0.000000 0.000000 
#    y 0.000000 1.748640 0.000000 
#    z 0.000000 0.000000 1.727170 
# 
# From -- ./inp_files/5537.got.cif
#   From: 2010.05.17/outbox.cif.g08.bks.cpg/sg115_3_cif.got.tgz:5537.got - 2010.05.20 11:07:42.
