data_PCOD9557957
_publ_section_title
;
Structure prediction by ZEFSAII (Michael W. Deem and Ramdas Pophale) SiO2 
 PCOD9557957
Probable space group: P -4 C 2
;
_chemical_formula_sum "Si O2"
_cell_formula_units_Z 28
_cell_length_a 10.765777
_cell_length_b 10.765777
_cell_length_c 8.955716
_cell_angle_alpha 90.000000
_cell_angle_beta 90.000000
_cell_angle_gamma 90.000000
_cell_volume 1037.984988
_symmetry_space_group_name_H-M "P -4 C 2"
_symmetry_group_IT_number 116
_symmetry_cell_setting 'tetragonal'
loop_
_space_group_symop_operation_xyz
x,y,z
y,-x,-z
-x,-y,z
-y,x,-z
y,x,1/2-z
-y,-x,1/2-z
-x,y,1/2+z
x,-y,1/2+z
loop_
_atom_site_type_symbol
_atom_site_label
_atom_site_fract_x
_atom_site_fract_y
_atom_site_fract_z
Si Si1 0.000000 0.000000 0.250000
Si Si2 0.525981 0.128260 0.285927
Si Si3 0.235078 0.885724 0.111391
Si Si4 0.735994 0.352090 0.934835
Si Si5 0.500000 0.500000 0.000000
O O1 0.123831 0.986605 0.142367
O O2 0.624816 0.085212 0.158022
O O3 0.584749 0.214576 0.412181
O O4 0.500000 0.000000 0.366468
O O5 0.409795 0.189558 0.202805
O O6 0.201153 0.798848 0.250000
O O7 0.243138 0.794975 0.968162
O O8 0.598082 0.408877 0.919916
#
# Coordination Sequence:
#
# PCOD9557957 Si02
#       5
#     2   8   8   8   2
#     4   8  16  40  72  88 134 192 246 318 322 426
#     4  11  23  43  66 100 148 189 242 307 360 445
#     4   8  18  39  66  98 134 183 250 296 353 433
#     4  11  23  42  70 108 149 194 241 296 386 452
#     4  12  24  42  76 118 160 198 232 322 380 470
#
# _framework density 26.975339000000002
#
# number of rings (size 3 to 8) (size 9 to 14) (size 15 to 20)
#    0.857    1.143    2.857    0.857    0.000    2.286 
#    0.000    5.714    0.000    0.000    0.000    2.000 
#    0.000    0.000    0.000    0.000    0.000    0.000 
#
# Total GULP energy -155927.343190 kJ/mol
# GULP energy per Si atom -5568.833685 kJ/mol
# Density = 2.691394 g / cm^3
# Si number density = 26.975339 Si / 1000 Ang^3
#
#
#
# Elastic Constant Matrix: (Units=GPa)
#
#
# Indices 1 2 3 4 5 6 
#
# 1 150.5067 59.4955 60.6919 0.0000 0.0000 0.0000
# 2 59.4955 150.5069 60.6917 0.0000 0.0000 0.0000
# 3 60.6919 60.6917 139.6755 0.0000 0.0000 0.0000
# 4 0.0000 0.0000 0.0000 8.1743 0.0000 0.0000
# 5 0.0000 0.0000 0.0000 0.0000 8.1727 0.0000
# 6 0.0000 0.0000 0.0000 0.0000 0.0000 44.4503
#
#
#
# Elastic Compliance Matrix: (Units=1/GPa)
#
#
# Indices 1 2 3 4 5 6 
#
# 1 0.008673 -0.002314 -0.002763 0.000000 0.000000 0.000000
# 2 -0.002314 0.008673 -0.002763 0.000000 0.000000 0.000000
# 3 -0.002763 -0.002763 0.009561 0.000000 0.000000 0.000000
# 4 0.000000 0.000000 0.000000 0.122335 0.000000 0.000000
# 5 0.000000 0.000000 0.000000 0.000000 0.122359 0.000000
# 6 0.000000 0.000000 0.000000 0.000000 0.000000 0.022497
#
#
# Mechanical properties :
#
#
# Convention : Reuss Voigt Hill
#
# Bulk Modulus (GPa) = 89.07714 89.16080 89.11897
# Shear Modulus (GPa) = 15.94788 29.48012 22.71400
#
# Velocity S-wave (km/s) = 2.43410 3.30942 2.90492
# Velocity P-wave (km/s) = 6.40259 6.90851 6.66036
#
# Compressibility (1/GPa) = 0.01122623
#
# Stress axis : x y z
#
# Youngs Moduli (GPa) = 115.29624 115.29655 104.59497
#
# Poissons Ratio (x) = 0.26684 0.28901
# Poissons Ratio (y) = 0.26684 0.28900
# Poissons Ratio (z) = 0.31858 0.31857
#
# Static dielectric constant tensor:
#      x y z
#    x 2.237070 0.000000 0.000000 
#    y 0.000000 2.237070 0.000000 
#    z 0.000000 0.000000 2.058960 
# 
# From -- ./inp_files/1517.got.cif
#   From: 2010.05.17/outbox.cif.g08.bks.cpg/sg116_1_cif.got.tgz:1517.got - 2010.05.20 11:11:43.
