data_PCOD9557289
_publ_section_title
;
Structure prediction by ZEFSAII (Michael W. Deem and Ramdas Pophale) SiO2 
 PCOD9557289
Probable space group: P -4 M 2
;
_chemical_formula_sum "Si O2"
_cell_formula_units_Z 40
_cell_length_a 8.074601
_cell_length_b 8.074601
_cell_length_c 30.105484
_cell_angle_alpha 90.000000
_cell_angle_beta 90.000000
_cell_angle_gamma 90.000000
_cell_volume 1962.852910
_symmetry_space_group_name_H-M "P -4 M 2"
_symmetry_group_IT_number 115
_symmetry_cell_setting 'tetragonal'
loop_
_space_group_symop_operation_xyz
x,y,z
y,-x,-z
-x,-y,z
-y,x,-z
y,x,-z
-y,-x,-z
-x,y,z
x,-y,z
loop_
_atom_site_type_symbol
_atom_site_label
_atom_site_fract_x
_atom_site_fract_y
_atom_site_fract_z
Si Si1 0.811248 0.811248 0.500000
Si Si2 0.194910 0.310011 0.314186
Si Si3 0.695983 0.695983 0.000000
Si Si4 0.000000 0.203189 0.845830
Si Si5 0.000000 0.203363 0.742733
Si Si6 0.688614 0.691835 0.591209
Si Si7 0.804034 0.311061 0.097289
O O1 0.776592 0.709057 0.544170
O O2 0.000000 0.786098 0.486047
O O3 0.262931 0.500000 0.310939
O O4 0.214577 0.250214 0.365194
O O5 0.000000 0.323144 0.304677
O O6 0.262306 0.167235 0.282020
O O7 0.780097 0.743767 0.046144
O O8 0.724586 0.500000 0.994204
O O9 0.832975 0.261672 0.870692
O O10 0.000000 0.249514 0.794286
O O11 0.000000 0.000000 0.848027
O O12 0.000000 0.000000 0.740391
O O13 0.500000 0.748653 0.583344
O O14 0.688258 0.500000 0.603792
O O15 0.735347 0.500000 0.102053
O O16 0.000000 0.323079 0.105761
#
# Coordination Sequence:
#
# PCOD9557289 Si02
#       7
#     4   8   4   4   4   8   8
#     4  11  24  37  52  78 110 143 176 215 262 316
#     4   9  18  33  54  79 105 137 178 227 277 326
#     4   9  18  32  49  70  98 134 175 216 262 319
#     4   9  18  32  49  77 109 139 175 225 279 324
#     4   9  18  32  53  79 107 137 179 227 273 330
#     4  10  21  37  56  78 106 139 175 218 269 325
#     4   9  18  31  48  73 103 137 177 221 270 328
#
# _framework density 20.378502999999998
#
# number of rings (size 3 to 8) (size 9 to 14) (size 15 to 20)
#    0.000    2.600    0.000    1.200    2.800    4.000 
#    0.000    4.000    0.000    2.400    0.000    5.600 
#    0.000    0.000    0.000    0.000    0.000    0.000 
#
# Total GULP energy -222942.965735 kJ/mol
# GULP energy per Si atom -5573.574143 kJ/mol
# Density = 2.033212 g / cm^3
# Si number density = 20.378503 Si / 1000 Ang^3
#
#
#
# Elastic Constant Matrix: (Units=GPa)
#
#
# Indices 1 2 3 4 5 6 
#
# 1 65.7295 3.6072 43.5203 0.0000 0.0000 0.0000
# 2 3.6072 65.7295 43.5203 0.0000 0.0000 0.0000
# 3 43.5203 43.5203 128.4717 0.0000 0.0000 0.0000
# 4 0.0000 0.0000 0.0000-2548.3928 0.0000 0.0000
# 5 0.0000 0.0000 0.0000 0.0000-2548.3928 0.0000
# 6 0.0000 0.0000 0.0000 0.0000 0.0000 9.4555
#
#
#
# Elastic Compliance Matrix: (Units=1/GPa)
#
#
# Indices 1 2 3 4 5 6 
#
# 1 0.020595 0.004498 -0.008500 0.000000 0.000000 0.000000
# 2 0.004498 0.020595 -0.008500 0.000000 0.000000 0.000000
# 3 -0.008500 -0.008500 0.013543 0.000000 0.000000 0.000000
# 4 0.000000 0.000000 0.000000 -0.000392 0.000000 0.000000
# 5 0.000000 0.000000 0.000000 0.000000 -0.000392 0.000000
# 6 0.000000 0.000000 0.000000 0.000000 0.000000 0.105758
#
#
# Mechanical properties :
#
#
# Convention : Reuss Voigt Hill
#
# Bulk Modulus (GPa) = 33.63866 49.02513 41.33190
# Shear Modulus (GPa) = 25.69085 -1006.18049 -490.24482
#
# Velocity S-wave (km/s) = 3.55446 -22.24450 -15.52713
# Velocity P-wave (km/s) = 5.77827 25.21205 17.35309
#
# Compressibility (1/GPa) = 0.02972770
#
# Stress axis : x y z
#
# Youngs Moduli (GPa) = 48.55483 48.55483 73.83930
#
# Poissons Ratio (x) = -0.21840 0.62767
# Poissons Ratio (y) = -0.21840 0.62767
# Poissons Ratio (z) = 0.41274 0.41274
#
# Static dielectric constant tensor:
#      x y z
#    x 1.808880 0.000000 0.000000 
#    y 0.000000 1.808880 0.000000 
#    z 0.000000 0.000000 1.599320 
# 
# From -- ./inp_files/5587.got.cif
#   From: 2010.05.17/outbox.cif.g08.bks.cpg/sg115_3_cif.got.tgz:5587.got - 2010.05.20 11:07:42.
