data_PCOD9557458
_publ_section_title
;
Structure prediction by ZEFSAII (Michael W. Deem and Ramdas Pophale) SiO2 
 PCOD9557458
Probable space group: P -4 M 2
;
_chemical_formula_sum "Si O2"
_cell_formula_units_Z 44
_cell_length_a 9.137509
_cell_length_b 9.137509
_cell_length_c 29.699178
_cell_angle_alpha 90.000000
_cell_angle_beta 90.000000
_cell_angle_gamma 90.000000
_cell_volume 2479.705268
_symmetry_space_group_name_H-M "P -4 M 2"
_symmetry_group_IT_number 115
_symmetry_cell_setting 'tetragonal'
loop_
_space_group_symop_operation_xyz
x,y,z
y,-x,-z
-x,-y,z
-y,x,-z
y,x,-z
-y,-x,-z
-x,y,z
x,-y,z
loop_
_atom_site_type_symbol
_atom_site_label
_atom_site_fract_x
_atom_site_fract_y
_atom_site_fract_z
Si Si1 0.178551 0.170220 0.049204
Si Si2 0.323673 0.325676 0.330358
Si Si3 0.325484 0.325484 0.500000
Si Si4 0.174137 0.326228 0.139698
Si Si5 0.321953 0.669547 0.770167
Si Si6 0.174140 0.174167 0.585311
O O1 0.229071 0.254001 0.093579
O O2 0.000000 0.177047 0.048119
O O3 0.218697 0.000000 0.053176
O O4 0.226872 0.226872 0.000000
O O5 0.500000 0.307098 0.333838
O O6 0.295162 0.500000 0.335401
O O7 0.278548 0.278637 0.279738
O O8 0.241806 0.237204 0.368783
O O9 0.300595 0.500000 0.500544
O O10 0.254710 0.252237 0.543864
O O11 0.200404 0.500000 0.137035
O O12 0.244310 0.270050 0.186018
O O13 0.000000 0.302886 0.142130
O O14 0.500000 0.675575 0.770036
O O15 0.280252 0.500000 0.774424
O O16 0.000000 0.198774 0.582191
O O17 0.200483 0.000000 0.583773
#
# Coordination Sequence:
#
# PCOD9557458 Si02
#       6
#     8   8   4   8   8   8
#     4   8  14  26  43  60  81 114 152 186 227 282
#     4   9  18  34  56  79 101 131 174 214 247 293
#     4  11  24  41  62  86 108 135 176 217 250 294
#     4   9  16  26  43  67  90 113 148 193 235 276
#     4   8  15  29  48  69  95 126 157 192 236 286
#     4  11  24  39  55  80 113 143 171 207 253 300
#
# _framework density 17.744043999999999
#
# number of rings (size 3 to 8) (size 9 to 14) (size 15 to 20)
#    0.000    2.818    0.000    3.273    0.000    6.545 
#    0.000    3.636    0.000    4.909    0.000    0.000 
#    0.000    0.000    0.000    0.000    0.000    0.000 
#
# Total GULP energy -245232.031625 kJ/mol
# GULP energy per Si atom -5573.455264 kJ/mol
# Density = 1.770366 g / cm^3
# Si number density = 17.744044 Si / 1000 Ang^3
#
#
#
# Elastic Constant Matrix: (Units=GPa)
#
#
# Indices 1 2 3 4 5 6 
#
# 1 47.9337 53.2349 76.0860 0.0000 0.0000 0.0000
# 2 53.2349 47.9337 76.0860 0.0000 0.0000 0.0000
# 3 76.0860 76.0860 229.3752 0.0000 0.0000 0.0000
# 4 0.0000 0.0000 0.0000 38.4330 0.0000 0.0000
# 5 0.0000 0.0000 0.0000 0.0000 38.4330 0.0000
# 6 0.0000 0.0000 0.0000 0.0000 0.0000 20.0975
#
#
#
# Elastic Compliance Matrix: (Units=1/GPa)
#
#
# Indices 1 2 3 4 5 6 
#
# 1 -0.084455 0.104182 -0.006544 0.000000 0.000000 0.000000
# 2 0.104182 -0.084455 -0.006544 0.000000 0.000000 0.000000
# 3 -0.006544 -0.006544 0.008701 0.000000 0.000000 0.000000
# 4 0.000000 0.000000 0.000000 0.026019 0.000000 0.000000
# 5 0.000000 0.000000 0.000000 0.000000 0.026019 0.000000
# 6 0.000000 0.000000 0.000000 0.000000 0.000000 0.049757
#
#
# Mechanical properties :
#
#
# Convention : Reuss Voigt Hill
#
# Bulk Modulus (GPa) = 45.49509 81.78404 63.63957
# Shear Modulus (GPa) = -21.43386 27.38175 2.97395
#
# Velocity S-wave (km/s) = -3.47932 3.93256 1.29602
# Velocity P-wave (km/s) = 3.09102 8.17380 6.17922
#
# Compressibility (1/GPa) = 0.02198039
#
# Stress axis : x y z
#
# Youngs Moduli (GPa) = -11.84063 -11.84063 114.93097
#
# Poissons Ratio (x) = 1.23358 0.75207
# Poissons Ratio (y) = 1.23358 0.75207
# Poissons Ratio (z) = -0.07748 -0.07748
#
# Static dielectric constant tensor:
#      x y z
#    x 1.594430 0.000000 0.000000 
#    y 0.000000 1.594430 0.000000 
#    z 0.000000 0.000000 1.620440 
# 
# From -- ./inp_files/5699.got.cif
#   From: 2010.05.17/outbox.cif.g08.bks.cpg/sg115_3_cif.got.tgz:5699.got - 2010.05.20 11:07:42.
