data_PCOD9557264
_publ_section_title
;
Structure prediction by ZEFSAII (Michael W. Deem and Ramdas Pophale) SiO2 
 PCOD9557264
Probable space group: P -4 M 2
;
_chemical_formula_sum "Si O2"
_cell_formula_units_Z 24
_cell_length_a 9.274149
_cell_length_b 9.274149
_cell_length_c 15.752535
_cell_angle_alpha 90.000000
_cell_angle_beta 90.000000
_cell_angle_gamma 90.000000
_cell_volume 1354.873010
_symmetry_space_group_name_H-M "P -4 M 2"
_symmetry_group_IT_number 115
_symmetry_cell_setting 'tetragonal'
loop_
_space_group_symop_operation_xyz
x,y,z
y,-x,-z
-x,-y,z
-y,x,-z
y,x,-z
-y,-x,-z
-x,y,z
x,-y,z
loop_
_atom_site_type_symbol
_atom_site_label
_atom_site_fract_x
_atom_site_fract_y
_atom_site_fract_z
Si Si1 0.827871 0.329145 0.422896
Si Si2 0.827143 0.168620 0.248724
Si Si3 0.330762 0.326782 0.903209
O O1 0.742857 0.257143 0.500000
O O2 0.801549 0.500000 0.418810
O O3 0.786660 0.254270 0.334121
O O4 0.000000 0.306482 0.435012
O O5 0.750255 0.236610 0.167489
O O6 0.000000 0.181759 0.238753
O O7 0.791831 0.000000 0.257909
O O8 0.500000 0.289992 0.891801
O O9 0.318564 0.500000 0.895864
O O10 0.288780 0.288780 0.000000
#
# Coordination Sequence:
#
# PCOD9557264 Si02
#       3
#     8   8   8
#     4  10  21  37  57  80 106 139 178 218 263 315
#     4  10  21  36  55  80 109 141 177 218 264 314
#     4   9  19  36  56  78 106 141 180 221 265 313
#
# _framework density 17.713837000000002
#
# number of rings (size 3 to 8) (size 9 to 14) (size 15 to 20)
#    0.000    2.333    0.000    3.000    0.000    7.333 
#    0.000    5.000    0.000    0.000    0.000    0.000 
#    0.000    0.000    0.000    0.000    0.000    0.000 
#
# Total GULP energy -133998.892002 kJ/mol
# GULP energy per Si atom -5583.287167 kJ/mol
# Density = 1.767352 g / cm^3
# Si number density = 17.713837 Si / 1000 Ang^3
#
#
#
# Elastic Constant Matrix: (Units=GPa)
#
#
# Indices 1 2 3 4 5 6 
#
# 1 76.7546 66.9594 96.5863 0.0000 0.0000 0.0000
# 2 66.9594 76.7546 96.5863 0.0000 0.0000 0.0000
# 3 96.5863 96.5863 196.0070 0.0000 0.0000 0.0000
# 4 0.0000 0.0000 0.0000 41.1111 0.0000 0.0000
# 5 0.0000 0.0000 0.0000 0.0000 41.1111 0.0000
# 6 0.0000 0.0000 0.0000 0.0000 0.0000 32.2085
#
#
#
# Elastic Compliance Matrix: (Units=1/GPa)
#
#
# Indices 1 2 3 4 5 6 
#
# 1 0.061350 -0.040742 -0.010155 0.000000 0.000000 0.000000
# 2 -0.040742 0.061350 -0.010155 0.000000 0.000000 0.000000
# 3 -0.010155 -0.010155 0.015110 0.000000 0.000000 0.000000
# 4 0.000000 0.000000 0.000000 0.024324 0.000000 0.000000
# 5 0.000000 0.000000 0.000000 0.000000 0.024324 0.000000
# 6 0.000000 0.000000 0.000000 0.000000 0.000000 0.031048
#
#
# Mechanical properties :
#
#
# Convention : Reuss Voigt Hill
#
# Bulk Modulus (GPa) = 63.66943 96.64226 80.15584
# Shear Modulus (GPa) = 14.49927 28.84508 21.67218
#
# Velocity S-wave (km/s) = 2.86410 4.03971 3.50159
# Velocity P-wave (km/s) = 6.85265 8.74271 7.85474
#
# Compressibility (1/GPa) = 0.01570612
#
# Stress axis : x y z
#
# Youngs Moduli (GPa) = 16.29998 16.29998 66.18079
#
# Poissons Ratio (x) = 0.66409 0.67207
# Poissons Ratio (y) = 0.66409 0.67207
# Poissons Ratio (z) = 0.16553 0.16553
#
# Static dielectric constant tensor:
#      x y z
#    x 1.588380 0.000000 0.000000 
#    y 0.000000 1.588380 0.000000 
#    z 0.000000 0.000000 1.570800 
# 
# From -- ./inp_files/3369.got.cif
#   From: 2010.05.17/outbox.cif.g08.bks.cpg/sg115_2_cif.got.tgz:3369.got - 2010.05.20 11:07:42.
