data_PCOD9557843
_publ_section_title
;
Structure prediction by ZEFSAII (Michael W. Deem and Ramdas Pophale) SiO2 
 PCOD9557843
Probable space group: P -4 C 2
;
_chemical_formula_sum "Si O2"
_cell_formula_units_Z 42
_cell_length_a 15.183236
_cell_length_b 15.183236
_cell_length_c 9.003220
_cell_angle_alpha 90.000000
_cell_angle_beta 90.000000
_cell_angle_gamma 90.000000
_cell_volume 2075.518208
_symmetry_space_group_name_H-M "P -4 C 2"
_symmetry_group_IT_number 116
_symmetry_cell_setting 'tetragonal'
loop_
_space_group_symop_operation_xyz
x,y,z
y,-x,-z
-x,-y,z
-y,x,-z
y,x,1/2-z
-y,-x,1/2-z
-x,y,1/2+z
x,-y,1/2+z
loop_
_atom_site_type_symbol
_atom_site_label
_atom_site_fract_x
_atom_site_fract_y
_atom_site_fract_z
Si Si1 0.099611 0.327198 0.519675
Si Si2 0.433514 0.324987 0.416253
Si Si3 0.500000 0.500000 0.750000
Si Si4 0.361786 0.081576 0.645540
Si Si5 0.525842 0.795382 0.141277
Si Si6 0.727369 0.744282 0.568838
O O1 0.073918 0.324498 0.690211
O O2 0.162576 0.407866 0.475622
O O3 0.173181 0.251101 0.507288
O O4 0.011367 0.344377 0.429582
O O5 0.483663 0.412093 0.353544
O O6 0.438161 0.247934 0.291772
O O7 0.479348 0.286784 0.561961
O O8 0.332201 0.324744 0.474278
O O9 0.458910 0.123191 0.668838
O O10 0.314719 0.159593 0.555583
O O11 0.724453 0.724453 0.750000
#
# Coordination Sequence:
#
# PCOD9557843 Si02
#       6
#     8   8   2   8   8   8
#     4  11  22  40  66  94 126 167 211 271 325 393
#     4  11  25  43  66  88 127 179 225 274 324 373
#     4  12  28  46  62  92 126 172 246 276 294 372
#     4  10  23  39  65  96 129 165 216 268 328 391
#     4  11  23  42  64  90 128 171 219 274 330 376
#     4   9  22  46  69  89 133 174 212 268 339 404
#
# _framework density 20.235910000000001
#
# number of rings (size 3 to 8) (size 9 to 14) (size 15 to 20)
#    0.000    1.524    1.905    1.714    5.333    6.857 
#    0.000    0.476    0.000    0.571    0.000    4.000 
#    0.000    0.000    0.000    0.000    0.000    0.000 
#
# Total GULP energy -233969.603099 kJ/mol
# GULP energy per Si atom -5570.704836 kJ/mol
# Density = 2.018985 g / cm^3
# Si number density = 20.235910 Si / 1000 Ang^3
#
#
#
# Elastic Constant Matrix: (Units=GPa)
#
#
# Indices 1 2 3 4 5 6 
#
# 1 116.7533 35.7997 31.1693 0.0000 0.0000 0.0000
# 2 35.7997 116.7533 31.1693 0.0000 0.0000 0.0000
# 3 31.1693 31.1693 68.2543 0.0000 0.0000 0.0000
# 4 0.0000 0.0000 0.0000 32.7000 0.0000 0.0000
# 5 0.0000 0.0000 0.0000 0.0000 32.7000 0.0000
# 6 0.0000 0.0000 0.0000 0.0000 0.0000 11.1963
#
#
#
# Elastic Compliance Matrix: (Units=1/GPa)
#
#
# Indices 1 2 3 4 5 6 
#
# 1 0.010206 -0.002147 -0.003680 0.000000 0.000000 0.000000
# 2 -0.002147 0.010206 -0.003680 0.000000 0.000000 0.000000
# 3 -0.003680 -0.003680 0.018012 0.000000 0.000000 0.000000
# 4 0.000000 0.000000 0.000000 0.030581 0.000000 0.000000
# 5 0.000000 0.000000 0.000000 0.000000 0.030581 0.000000
# 6 0.000000 0.000000 0.000000 0.000000 0.000000 0.089315
#
#
# Mechanical properties :
#
#
# Convention : Reuss Voigt Hill
#
# Bulk Modulus (GPa) = 51.52164 55.33753 53.42958
# Shear Modulus (GPa) = 23.32241 28.89410 26.10826
#
# Velocity S-wave (km/s) = 3.39857 3.78281 3.59582
# Velocity P-wave (km/s) = 6.39657 6.81800 6.61064
#
# Compressibility (1/GPa) = 0.01940932
#
# Stress axis : x y z
#
# Youngs Moduli (GPa) = 97.98281 97.98281 55.51742
#
# Poissons Ratio (x) = 0.21036 0.20432
# Poissons Ratio (y) = 0.21036 0.20432
# Poissons Ratio (z) = 0.36060 0.36060
#
# Static dielectric constant tensor:
#      x y z
#    x 1.801540 0.000000 0.000000 
#    y 0.000000 1.801540 0.000000 
#    z 0.000000 0.000000 1.742410 
# 
# From -- ./inp_files/834.got.cif
#   From: 2010.05.17/outbox.cif.g08.bks.cpg/sg116_1_cif.got.tgz:834.got - 2010.05.20 11:11:43.
