data_PCOD9557696
_publ_section_title
;
Structure prediction by ZEFSAII (Michael W. Deem and Ramdas Pophale) SiO2 
 PCOD9557696
Probable space group: P -4 C 2
;
_chemical_formula_sum "Si O2"
_cell_formula_units_Z 48
_cell_length_a 14.749002
_cell_length_b 14.749002
_cell_length_c 12.110149
_cell_angle_alpha 90.000000
_cell_angle_beta 90.000000
_cell_angle_gamma 90.000000
_cell_volume 2634.357769
_symmetry_space_group_name_H-M "P -4 C 2"
_symmetry_group_IT_number 116
_symmetry_cell_setting 'tetragonal'
loop_
_space_group_symop_operation_xyz
x,y,z
y,-x,-z
-x,-y,z
-y,x,-z
y,x,1/2-z
-y,-x,1/2-z
-x,y,1/2+z
x,-y,1/2+z
loop_
_atom_site_type_symbol
_atom_site_label
_atom_site_fract_x
_atom_site_fract_y
_atom_site_fract_z
Si Si1 0.588323 0.211098 0.671084
Si Si2 0.364445 0.302313 0.960999
Si Si3 0.634959 0.506878 0.697939
Si Si4 0.612157 0.915213 0.352882
Si Si5 0.599678 0.177668 0.080555
Si Si6 0.394302 0.117728 0.825016
O O1 0.641428 0.278314 0.590253
O O2 0.530817 0.271624 0.756757
O O3 0.643992 0.139942 0.743728
O O4 0.510152 0.170061 0.591383
O O5 0.460660 0.350965 0.928170
O O6 0.280056 0.365146 0.930686
O O7 0.365113 0.206462 0.894517
O O8 0.601287 0.601287 0.750000
O O9 0.564059 0.435942 0.750000
O O10 0.632715 0.871762 0.470843
O O11 0.502573 0.902345 0.337703
O O12 0.643771 0.018945 0.355333
O O13 0.629906 0.137195 0.197526
#
# Coordination Sequence:
#
# PCOD9557696 Si02
#       6
#     8   8   8   8   8   8
#     4  11  22  34  53  74 109 140 191 234 273 323
#     4  12  22  37  54  78 108 153 187 234 281 331
#     4  11  22  35  48  70 108 153 206 234 256 306
#     4  10  22  35  54  83 101 145 183 239 287 333
#     4  11  21  38  55  75 111 144 186 231 278 333
#     4  10  21  35  58  75 106 140 192 227 285 343
#
# _framework density 18.220758
#
# number of rings (size 3 to 8) (size 9 to 14) (size 15 to 20)
#    0.000    1.167    6.667    0.500    7.000    1.333 
#    0.000    1.667    0.000    0.000    0.000    0.000 
#    0.000    0.667    1.000    0.000    0.000    0.000 
#
# Total GULP energy -267316.337777 kJ/mol
# GULP energy per Si atom -5569.090370 kJ/mol
# Density = 1.817929 g / cm^3
# Si number density = 18.220758 Si / 1000 Ang^3
#
#
#
# Elastic Constant Matrix: (Units=GPa)
#
#
# Indices 1 2 3 4 5 6 
#
# 1 66.2702 10.5367 29.7177 0.0000 0.0000 0.0000
# 2 10.5367 66.2699 29.7180 0.0000 0.0000 0.0000
# 3 29.7177 29.7180 105.8088 0.0000 0.0000 0.0000
# 4 0.0000 0.0000 0.0000 20.1788 0.0000 0.0000
# 5 0.0000 0.0000 0.0000 0.0000 20.1791 0.0000
# 6 0.0000 0.0000 0.0000 0.0000 0.0000 5.3408
#
#
#
# Elastic Compliance Matrix: (Units=1/GPa)
#
#
# Indices 1 2 3 4 5 6 
#
# 1 0.017289 -0.000654 -0.004672 0.000000 0.000000 0.000000
# 2 -0.000654 0.017289 -0.004672 0.000000 0.000000 0.000000
# 3 -0.004672 -0.004672 0.012076 0.000000 0.000000 0.000000
# 4 0.000000 0.000000 0.000000 0.049557 0.000000 0.000000
# 5 0.000000 0.000000 0.000000 0.000000 0.049556 0.000000
# 6 0.000000 0.000000 0.000000 0.000000 0.000000 0.187236
#
#
# Mechanical properties :
#
#
# Convention : Reuss Voigt Hill
#
# Bulk Modulus (GPa) = 37.51355 42.03264 39.77309
# Shear Modulus (GPa) = 13.81655 20.36484 17.09069
#
# Velocity S-wave (km/s) = 2.75669 3.34679 3.06597
# Velocity P-wave (km/s) = 5.54666 6.16873 5.86595
#
# Compressibility (1/GPa) = 0.02665704
#
# Stress axis : x y z
#
# Youngs Moduli (GPa) = 57.84077 57.84040 82.81208
#
# Poissons Ratio (x) = 0.03781 0.38691
# Poissons Ratio (y) = 0.03781 0.38692
# Poissons Ratio (z) = 0.27024 0.27025
#
# Static dielectric constant tensor:
#      x y z
#    x 1.692530 0.000000 0.000000 
#    y 0.000000 1.692530 0.000000 
#    z 0.000000 0.000000 1.710850 
# 
# From -- ./inp_files/1922.got.cif
#   From: 2010.05.17/outbox.cif.g08.bks.cpg/sg116_1_cif.got.tgz:1922.got - 2010.05.20 11:11:43.
