data_PCOD9557594
_publ_section_title
;
Structure prediction by ZEFSAII (Michael W. Deem and Ramdas Pophale) SiO2 
 PCOD9557594
Probable space group: P -4 C 2
;
_chemical_formula_sum "Si O2"
_cell_formula_units_Z 54
_cell_length_a 13.896808
_cell_length_b 13.896808
_cell_length_c 15.546944
_cell_angle_alpha 90.000000
_cell_angle_beta 90.000000
_cell_angle_gamma 90.000000
_cell_volume 3002.445610
_symmetry_space_group_name_H-M "P -4 C 2"
_symmetry_group_IT_number 116
_symmetry_cell_setting 'tetragonal'
loop_
_space_group_symop_operation_xyz
x,y,z
y,-x,-z
-x,-y,z
-y,x,-z
y,x,1/2-z
-y,-x,1/2-z
-x,y,1/2+z
x,-y,1/2+z
loop_
_atom_site_type_symbol
_atom_site_label
_atom_site_fract_x
_atom_site_fract_y
_atom_site_fract_z
Si Si1 0.566321 0.906560 0.171736
Si Si2 0.929156 0.772369 0.235795
Si Si3 0.501214 0.119151 0.848378
Si Si4 0.678167 0.087094 0.947170
Si Si5 0.365181 0.116875 0.994219
Si Si6 0.152888 0.844272 0.061606
Si Si7 0.872354 0.127647 0.250000
Si Si8 0.000000 0.000000 0.000000
O O1 0.672692 0.933306 0.210317
O O2 0.513819 0.850672 0.249832
O O3 0.500000 0.000000 0.155761
O O4 0.585782 0.851826 0.082576
O O5 0.829710 0.829710 0.250000
O O6 0.941454 0.743953 0.135301
O O7 0.015938 0.843633 0.260251
O O8 0.595408 0.149422 0.902529
O O9 0.412137 0.152724 0.905533
O O10 0.500000 0.000000 0.842254
O O11 0.622551 0.997794 0.988121
O O12 0.747098 0.123983 0.020664
O O13 0.250927 0.127760 0.991750
O O14 0.161048 0.822941 0.162197
O O15 0.071547 0.927254 0.050371
#
# Coordination Sequence:
#
# PCOD9557594 Si02
#       8
#     8   8   8   8   8   8   4   2
#     4  10  20  33  56  73  94 135 182 235 285 323
#     4  11  22  35  52  74 103 144 189 225 265 331
#     4   8  18  33  51  71  93 124 174 226 273 318
#     4  10  19  36  48  68  98 131 177 222 262 312
#     4  11  19  35  52  74 100 136 185 229 273 323
#     4  12  24  34  50  72 104 147 186 223 266 326
#     4  12  25  32  46  70 106 146 181 222 267 318
#     4  12  24  38  48  68 108 150 188 224 258 308
#
# _framework density 17.985337999999999
#
# number of rings (size 3 to 8) (size 9 to 14) (size 15 to 20)
#    0.000    1.481    2.963    4.222    4.148    0.000 
#    0.000    0.000    0.000    0.000    0.000    0.000 
#    0.000    0.593    0.000    0.815    0.593    0.000 
#
# Total GULP energy -300823.880656 kJ/mol
# GULP energy per Si atom -5570.812605 kJ/mol
# Density = 1.794440 g / cm^3
# Si number density = 17.985338 Si / 1000 Ang^3
#
#
#
# Elastic Constant Matrix: (Units=GPa)
#
#
# Indices 1 2 3 4 5 6 
#
# 1 59.1186 12.6609 20.8489 0.0000 0.0000 0.0000
# 2 12.6609 59.1181 20.8489 0.0000 0.0000 0.0000
# 3 20.8489 20.8489 117.3022 0.0000 0.0000 0.0000
# 4 0.0000 0.0000 0.0000 17.4417 0.0000 0.0000
# 5 0.0000 0.0000 0.0000 0.0000 17.4418 0.0000
# 6 0.0000 0.0000 0.0000 0.0000 0.0000 8.2952
#
#
#
# Elastic Compliance Matrix: (Units=1/GPa)
#
#
# Indices 1 2 3 4 5 6 
#
# 1 0.018530 -0.002995 -0.002761 0.000000 0.000000 0.000000
# 2 -0.002995 0.018530 -0.002761 0.000000 0.000000 0.000000
# 3 -0.002761 -0.002761 0.009507 0.000000 0.000000 0.000000
# 4 0.000000 0.000000 0.000000 0.057334 0.000000 0.000000
# 5 0.000000 0.000000 0.000000 0.000000 0.057334 0.000000
# 6 0.000000 0.000000 0.000000 0.000000 0.000000 0.120552
#
#
# Mechanical properties :
#
#
# Convention : Reuss Voigt Hill
#
# Bulk Modulus (GPa) = 33.86059 38.25070 36.05564
# Shear Modulus (GPa) = 16.19879 20.71442 18.45660
#
# Velocity S-wave (km/s) = 3.00437 3.39741 3.20692
# Velocity P-wave (km/s) = 5.55901 6.05836 5.81405
#
# Compressibility (1/GPa) = 0.02953286
#
# Stress axis : x y z
#
# Youngs Moduli (GPa) = 53.96576 53.96519 105.19072
#
# Poissons Ratio (x) = 0.16161 0.29046
# Poissons Ratio (y) = 0.16161 0.29046
# Poissons Ratio (z) = 0.14901 0.14901
#
# Static dielectric constant tensor:
#      x y z
#    x 1.646600 0.000000 0.000000 
#    y 0.000000 1.646600 0.000000 
#    z 0.000000 0.000000 1.711190 
# 
# From -- ./inp_files/2764.got.cif
#   From: 2010.05.17/outbox.cif.g08.bks.cpg/sg116_2_cif.got.tgz:2764.got - 2010.05.20 11:11:43.
