data_PCOD9557741
_publ_section_title
;
Structure prediction by ZEFSAII (Michael W. Deem and Ramdas Pophale) SiO2 
 PCOD9557741
Probable space group: P -4 C 2
;
_chemical_formula_sum "Si O2"
_cell_formula_units_Z 32
_cell_length_a 12.674673
_cell_length_b 12.674673
_cell_length_c 8.642941
_cell_angle_alpha 90.000000
_cell_angle_beta 90.000000
_cell_angle_gamma 90.000000
_cell_volume 1388.465444
_symmetry_space_group_name_H-M "P -4 C 2"
_symmetry_group_IT_number 116
_symmetry_cell_setting 'tetragonal'
loop_
_space_group_symop_operation_xyz
x,y,z
y,-x,-z
-x,-y,z
-y,x,-z
y,x,1/2-z
-y,-x,1/2-z
-x,y,1/2+z
x,-y,1/2+z
loop_
_atom_site_type_symbol
_atom_site_label
_atom_site_fract_x
_atom_site_fract_y
_atom_site_fract_z
Si Si1 0.055817 0.642915 0.832967
Si Si2 0.243454 0.612650 0.640249
Si Si3 0.566582 0.171853 0.168998
Si Si4 0.937350 0.865537 0.420638
O O1 0.124764 0.654807 0.676618
O O2 0.108946 0.537072 0.901241
O O3 0.084137 0.742966 0.934241
O O4 0.932133 0.634982 0.795182
O O5 0.322728 0.677273 0.750000
O O6 0.237533 0.490977 0.696933
O O7 0.249476 0.616596 0.456582
O O8 0.903870 0.903870 0.250000
O O9 0.061072 0.883064 0.452385
#
# Coordination Sequence:
#
# PCOD9557741 Si02
#       4
#     8   8   8   8
#     4   9  22  34  67  85 131 161 216 261 311 364
#     4  10  21  40  64  92 125 158 206 270 325 384
#     4   9  22  36  63  97 121 158 220 266 313 380
#     4  11  24  40  58  90 136 182 215 251 309 385
#
# _framework density 23.047025000000001
#
# number of rings (size 3 to 8) (size 9 to 14) (size 15 to 20)
#    1.500    0.750    0.000    2.250   14.000    0.000 
#    0.000    1.250    0.000    2.250    0.000    0.000 
#    0.000    0.000    0.000    0.000    0.000    0.000 
#
# Total GULP energy -178140.796939 kJ/mol
# GULP energy per Si atom -5566.899904 kJ/mol
# Density = 2.299457 g / cm^3
# Si number density = 23.047025 Si / 1000 Ang^3
#
#
#
# Elastic Constant Matrix: (Units=GPa)
#
#
# Indices 1 2 3 4 5 6 
#
# 1 38.9965 6.5871 7.2098 0.0000 0.0000 0.0000
# 2 6.5871 38.9976 7.2104 0.0000 0.0000 0.0000
# 3 7.2098 7.2104 58.0118 0.0000 0.0000 0.0000
# 4 0.0000 0.0000 0.0000 23.7537 0.0000 0.0000
# 5 0.0000 0.0000 0.0000 0.0000 23.7536 0.0000
# 6 0.0000 0.0000 0.0000 0.0000 0.0000 19.5511
#
#
#
# Elastic Compliance Matrix: (Units=1/GPa)
#
#
# Indices 1 2 3 4 5 6 
#
# 1 0.026845 -0.004010 -0.002838 0.000000 0.000000 0.000000
# 2 -0.004010 0.026845 -0.002838 0.000000 0.000000 0.000000
# 3 -0.002838 -0.002838 0.017943 0.000000 0.000000 0.000000
# 4 0.000000 0.000000 0.000000 0.042099 0.000000 0.000000
# 5 0.000000 0.000000 0.000000 0.000000 0.042099 0.000000
# 6 0.000000 0.000000 0.000000 0.000000 0.000000 0.051148
#
#
# Mechanical properties :
#
#
# Convention : Reuss Voigt Hill
#
# Bulk Modulus (GPa) = 19.13458 19.78006 19.45732
# Shear Modulus (GPa) = 20.51102 21.07826 20.79464
#
# Velocity S-wave (km/s) = 2.98646 3.02748 3.00704
# Velocity P-wave (km/s) = 4.49582 4.56311 4.52959
#
# Compressibility (1/GPa) = 0.05226140
#
# Stress axis : x y z
#
# Youngs Moduli (GPa) = 37.25036 37.25133 55.73095
#
# Poissons Ratio (x) = 0.14937 0.15817
# Poissons Ratio (y) = 0.14937 0.15818
# Poissons Ratio (z) = 0.10572 0.10573
#
# Static dielectric constant tensor:
#      x y z
#    x 1.918270 0.000000 0.000000 
#    y 0.000000 1.918270 0.000000 
#    z 0.000000 0.000000 1.935490 
# 
# From -- ./inp_files/638.got.cif
#   From: 2010.05.17/outbox.cif.g08.bks.cpg/sg116_1_cif.got.tgz:638.got - 2010.05.20 11:11:43.
