data_PCOD9557918
_publ_section_title
;
Structure prediction by ZEFSAII (Michael W. Deem and Ramdas Pophale) SiO2 
 PCOD9557918
Probable space group: P -4 C 2
;
_chemical_formula_sum "Si O2"
_cell_formula_units_Z 40
_cell_length_a 12.090288
_cell_length_b 12.090288
_cell_length_c 14.449548
_cell_angle_alpha 90.000000
_cell_angle_beta 90.000000
_cell_angle_gamma 90.000000
_cell_volume 2112.163603
_symmetry_space_group_name_H-M "P -4 C 2"
_symmetry_group_IT_number 116
_symmetry_cell_setting 'tetragonal'
loop_
_space_group_symop_operation_xyz
x,y,z
y,-x,-z
-x,-y,z
-y,x,-z
y,x,1/2-z
-y,-x,1/2-z
-x,y,1/2+z
x,-y,1/2+z
loop_
_atom_site_type_symbol
_atom_site_label
_atom_site_fract_x
_atom_site_fract_y
_atom_site_fract_z
Si Si1 0.835480 0.478697 0.603069
Si Si2 0.835480 0.521303 0.396930
Si Si3 0.897065 0.706915 0.250000
Si Si4 0.326927 0.858478 0.250002
Si Si5 0.592178 0.592178 0.360145
O O1 0.876997 0.499998 0.499999
O O2 0.882174 0.374576 0.661322
O O3 0.852794 0.589000 0.663360
O O4 0.705811 0.450369 0.598600
O O5 0.882175 0.625426 0.338680
O O6 0.852795 0.411002 0.336635
O O7 0.705812 0.549629 0.401399
O O8 0.805994 0.805994 0.250000
O O9 0.025951 0.739217 0.249999
O O10 0.245032 0.754969 0.250000
O O11 0.500000 0.500000 0.370236
O O12 0.611109 0.611109 0.250000
#
# Coordination Sequence:
#
# PCOD9557918 Si02
#       5
#     8   8   8   8   8
#     4  11  22  38  62  88 123 157 194 241 299 361
#     4  11  22  38  62  88 123 157 194 241 299 361
#     4  11  23  44  62  86 120 158 205 250 296 350
#     4  11  25  41  61  89 121 156 203 254 293 350
#     4  11  20  32  54  87 127 161 188 234 292 361
#
# _framework density 18.937925
#
# number of rings (size 3 to 8) (size 9 to 14) (size 15 to 20)
#    0.000    1.000    6.000    3.600    5.600    3.600 
#    0.000    0.000    0.000    0.000    0.000    5.600 
#    0.000    0.000    0.000    0.000    0.000    0.000 
#
# Total GULP energy -223445.063763 kJ/mol
# GULP energy per Si atom -5586.126594 kJ/mol
# Density = 1.889482 g / cm^3
# Si number density = 18.937925 Si / 1000 Ang^3
#
#
#
# Elastic Constant Matrix: (Units=GPa)
#
#
# Indices 1 2 3 4 5 6 
#
# 1 549.8049 -382.7999 37.5955 0.0000 0.0000 0.0000
# 2 -382.7999 549.7287 37.5761 0.0000 0.0000 0.0000
# 3 37.5955 37.5761 150.3977 0.0000 0.0000 0.0000
# 4 0.0000 0.0000 0.0000 -4.0234 0.0000 0.0000
# 5 0.0000 0.0000 0.0000 0.0000 -4.0223 0.0000
# 6 0.0000 0.0000 0.0000 0.0000 0.0000 6.5544
#
#
#
# Elastic Compliance Matrix: (Units=1/GPa)
#
#
# Indices 1 2 3 4 5 6 
#
# 1 0.003910 0.002838 -0.001687 0.000000 0.000000 0.000000
# 2 0.002838 0.003911 -0.001687 0.000000 0.000000 0.000000
# 3 -0.001687 -0.001687 0.007492 0.000000 0.000000 0.000000
# 4 0.000000 0.000000 0.000000 -0.248545 0.000000 0.000000
# 5 0.000000 0.000000 0.000000 0.000000 -0.248616 0.000000
# 6 0.000000 0.000000 0.000000 0.000000 0.000000 0.152570
#
#
# Mechanical properties :
#
#
# Convention : Reuss Voigt Hill
#
# Bulk Modulus (GPa) = 70.21018 70.51940 70.36479
# Shear Modulus (GPa) = -15.45782 103.53904 44.04061
#
# Velocity S-wave (km/s) = -2.86008 7.40213 4.82760
# Velocity P-wave (km/s) = 5.12324 10.50587 8.26501
#
# Compressibility (1/GPa) = 0.01424295
#
# Stress axis : x y z
#
# Youngs Moduli (GPa) = 255.74339 255.71193 133.47590
#
# Poissons Ratio (x) = -0.72574 0.22511
# Poissons Ratio (y) = -0.72583 0.22511
# Poissons Ratio (z) = 0.43132 0.43126
#
# Static dielectric constant tensor:
#      x y z
#    x 1.640960 0.000000 0.000000 
#    y 0.000000 1.640960 0.000000 
#    z 0.000000 0.000000 1.727810 
# 
# From -- ./inp_files/2581.got.cif
#   From: 2010.05.17/outbox.cif.g08.bks.cpg/sg116_2_cif.got.tgz:2581.got - 2010.05.20 11:11:43.
