data_PCOD9557387
_publ_section_title
;
Structure prediction by ZEFSAII (Michael W. Deem and Ramdas Pophale) SiO2 
 PCOD9557387
Probable space group: P -4 M 2
;
_chemical_formula_sum "Si O2"
_cell_formula_units_Z 56
_cell_length_a 14.433534
_cell_length_b 14.433534
_cell_length_c 13.223349
_cell_angle_alpha 90.000000
_cell_angle_beta 90.000000
_cell_angle_gamma 90.000000
_cell_volume 2754.779354
_symmetry_space_group_name_H-M "P -4 M 2"
_symmetry_group_IT_number 115
_symmetry_cell_setting 'tetragonal'
loop_
_space_group_symop_operation_xyz
x,y,z
y,-x,-z
-x,-y,z
-y,x,-z
y,x,-z
-y,-x,-z
-x,y,z
x,-y,z
loop_
_atom_site_type_symbol
_atom_site_label
_atom_site_fract_x
_atom_site_fract_y
_atom_site_fract_z
Si Si1 0.609247 0.892159 0.046174
Si Si2 0.389751 0.281099 0.916351
Si Si3 0.106488 0.708618 0.746743
Si Si4 0.604557 0.713406 0.692111
Si Si5 0.764354 0.393840 0.596708
Si Si6 0.103103 0.857556 0.381113
Si Si7 0.637294 0.105976 0.597649
O O1 0.500000 0.875270 0.078023
O O2 0.685298 0.876536 0.134999
O O3 0.614338 0.000000 0.017596
O O4 0.629861 0.822940 0.954290
O O5 0.500000 0.291311 0.913177
O O6 0.357438 0.305803 0.803929
O O7 0.346942 0.346942 0.000000
O O8 0.172395 0.638427 0.689028
O O9 0.117355 0.810823 0.693505
O O10 0.000000 0.682799 0.728437
O O11 0.500000 0.677787 0.678488
O O12 0.674246 0.670875 0.610235
O O13 0.600584 0.824767 0.682886
O O14 0.734635 0.500000 0.600759
O O15 0.834891 0.382480 0.503142
O O16 0.114255 0.885746 0.500000
O O17 0.102954 0.746936 0.386626
O O18 0.000000 0.888894 0.347417
O O19 0.604210 0.000000 0.594204
#
# Coordination Sequence:
#
# PCOD9557387 Si02
#       7
#     8   8   8   8   8   8   8
#     4   9  19  37  61  89 119 153 199 254 310 366
#     4  10  22  39  62  90 120 158 202 253 310 367
#     4  11  21  35  58  89 122 158 205 255 308 365
#     4  11  24  42  64  92 125 163 209 257 311 371
#     4  12  24  40  62  88 125 166 206 253 306 364
#     4  11  21  36  58  84 122 165 203 246 302 366
#     4  11  23  41  64  91 125 162 204 252 303 362
#
# _framework density 20.328308
#
# number of rings (size 3 to 8) (size 9 to 14) (size 15 to 20)
#    0.000    1.286    2.857    3.000    0.000    6.286 
#    0.000    2.857    0.000    1.714    0.000    0.000 
#    0.000    0.000    0.000    0.000    0.000    0.000 
#
# Total GULP energy -312247.400261 kJ/mol
# GULP energy per Si atom -5575.846433 kJ/mol
# Density = 2.028204 g / cm^3
# Si number density = 20.328308 Si / 1000 Ang^3
#
#
#
# Elastic Constant Matrix: (Units=GPa)
#
#
# Indices 1 2 3 4 5 6 
#
# 1 75.9147 31.4277 21.0843 0.0000 0.0000 0.0000
# 2 31.4277 75.9151 21.0844 0.0000 0.0000 0.0000
# 3 21.0843 21.0844 81.3554 0.0000 0.0000 0.0000
# 4 0.0000 0.0000 0.0000 23.8474 0.0000 0.0000
# 5 0.0000 0.0000 0.0000 0.0000 23.8464 0.0000
# 6 0.0000 0.0000 0.0000 0.0000 0.0000 4.2820
#
#
#
# Elastic Compliance Matrix: (Units=1/GPa)
#
#
# Indices 1 2 3 4 5 6 
#
# 1 0.016425 -0.006053 -0.002688 0.000000 0.000000 0.000000
# 2 -0.006053 0.016425 -0.002688 0.000000 0.000000 0.000000
# 3 -0.002688 -0.002688 0.013685 0.000000 0.000000 0.000000
# 4 0.000000 0.000000 0.000000 0.041933 0.000000 0.000000
# 5 0.000000 0.000000 0.000000 0.000000 0.041935 0.000000
# 6 0.000000 0.000000 0.000000 0.000000 0.000000 0.233538
#
#
# Mechanical properties :
#
#
# Convention : Reuss Voigt Hill
#
# Bulk Modulus (GPa) = 42.23548 42.26424 42.24986
# Shear Modulus (GPa) = 12.66808 21.03440 16.85124
#
# Velocity S-wave (km/s) = 2.49905 3.22022 2.88228
# Velocity P-wave (km/s) = 5.39896 5.88748 5.64850
#
# Compressibility (1/GPa) = 0.02367678
#
# Stress axis : x y z
#
# Youngs Moduli (GPa) = 60.88211 60.88241 73.07254
#
# Poissons Ratio (x) = 0.36853 0.19642
# Poissons Ratio (y) = 0.36853 0.19642
# Poissons Ratio (z) = 0.16365 0.16365
#
# Static dielectric constant tensor:
#      x y z
#    x 1.732060 0.000000 0.000000 
#    y 0.000000 1.732060 0.000000 
#    z 0.000000 0.000000 1.771810 
# 
# From -- ./inp_files/3090.got.cif
#   From: 2010.05.17/outbox.cif.g08.bks.cpg/sg115_2_cif.got.tgz:3090.got - 2010.05.20 11:07:42.
