data_PCOD9557890
_publ_section_title
;
Structure prediction by ZEFSAII (Michael W. Deem and Ramdas Pophale) SiO2 
 PCOD9557890
Probable space group: P -4 C 2
;
_chemical_formula_sum "Si O2"
_cell_formula_units_Z 22
_cell_length_a 8.469297
_cell_length_b 8.469297
_cell_length_c 11.715481
_cell_angle_alpha 90.000000
_cell_angle_beta 90.000000
_cell_angle_gamma 90.000000
_cell_volume 840.339639
_symmetry_space_group_name_H-M "P -4 C 2"
_symmetry_group_IT_number 116
_symmetry_cell_setting 'tetragonal'
loop_
_space_group_symop_operation_xyz
x,y,z
y,-x,-z
-x,-y,z
-y,x,-z
y,x,1/2-z
-y,-x,1/2-z
-x,y,1/2+z
x,-y,1/2+z
loop_
_atom_site_type_symbol
_atom_site_label
_atom_site_fract_x
_atom_site_fract_y
_atom_site_fract_z
Si Si1 0.679478 0.555208 0.858175
Si Si2 0.767786 0.767786 0.250000
Si Si3 0.000000 0.000000 0.500000
Si Si4 0.328135 0.080625 0.470719
O O1 0.500000 0.500000 0.874059
O O2 0.672994 0.672994 0.750000
O O3 0.770322 0.399046 0.818214
O O4 0.753971 0.635546 0.967447
O O5 0.742824 0.904204 0.343233
O O6 0.007050 0.816359 0.456898
O O7 0.500000 0.000000 0.466961
#
# Coordination Sequence:
#
# PCOD9557890 Si02
#       4
#     8   4   2   8
#     4   9  23  44  83 114 150 208 270 332 407 501
#     4  10  25  43  82 114 150 218 267 333 412 490
#     4  12  32  50  80 124 154 224 262 344 412 506
#     4  12  28  53  78 116 169 208 275 346 420 496
#
# _framework density 26.179891000000001
#
# number of rings (size 3 to 8) (size 9 to 14) (size 15 to 20)
#    0.000    1.818    0.000    2.182   20.364    6.545 
#    0.000    0.000    0.000    0.000    0.000    0.000 
#    0.000    0.000    0.000    0.000    0.000    0.000 
#
# Total GULP energy -122796.459534 kJ/mol
# GULP energy per Si atom -5581.657252 kJ/mol
# Density = 2.612030 g / cm^3
# Si number density = 26.179891 Si / 1000 Ang^3
#
#
#
# Elastic Constant Matrix: (Units=GPa)
#
#
# Indices 1 2 3 4 5 6 
#
# 1 125.1929 57.3228 34.8238 0.0000 0.0000 0.0000
# 2 57.3228 125.1929 34.8238 0.0000 0.0000 0.0000
# 3 34.8238 34.8238 123.0346 0.0000 0.0000 0.0000
# 4 0.0000 0.0000 0.0000 24.9383 0.0000 0.0000
# 5 0.0000 0.0000 0.0000 0.0000 24.9383 0.0000
# 6 0.0000 0.0000 0.0000 0.0000 0.0000 47.0787
#
#
#
# Elastic Compliance Matrix: (Units=1/GPa)
#
#
# Indices 1 2 3 4 5 6 
#
# 1 0.010438 -0.004296 -0.001739 0.000000 0.000000 0.000000
# 2 -0.004296 0.010438 -0.001739 0.000000 0.000000 0.000000
# 3 -0.001739 -0.001739 0.009112 0.000000 0.000000 0.000000
# 4 0.000000 0.000000 0.000000 0.040099 0.000000 0.000000
# 5 0.000000 0.000000 0.000000 0.000000 0.040099 0.000000
# 6 0.000000 0.000000 0.000000 0.000000 0.000000 0.021241
#
#
# Mechanical properties :
#
#
# Convention : Reuss Voigt Hill
#
# Bulk Modulus (GPa) = 69.23977 69.70681 69.47329
# Shear Modulus (GPa) = 32.94084 35.82107 34.38096
#
# Velocity S-wave (km/s) = 3.55103 3.70302 3.62782
# Velocity P-wave (km/s) = 6.58166 6.70575 6.64399
#
# Compressibility (1/GPa) = 0.01444257
#
# Stress axis : x y z
#
# Youngs Moduli (GPa) = 95.80178 95.80178 109.74587
#
# Poissons Ratio (x) = 0.41155 0.19080
# Poissons Ratio (y) = 0.41155 0.19080
# Poissons Ratio (z) = 0.16656 0.16656
#
# Static dielectric constant tensor:
#      x y z
#    x 2.081520 0.000000 0.000000 
#    y 0.000000 2.081520 0.000000 
#    z 0.000000 0.000000 2.157190 
# 
# From -- ./inp_files/2284.got.cif
#   From: 2010.05.17/outbox.cif.g08.bks.cpg/sg116_2_cif.got.tgz:2284.got - 2010.05.20 11:11:43.
