data_PCOD9557330
_publ_section_title
;
Structure prediction by ZEFSAII (Michael W. Deem and Ramdas Pophale) SiO2 
 PCOD9557330
Probable space group: P -4 M 2
;
_chemical_formula_sum "Si O2"
_cell_formula_units_Z 48
_cell_length_a 9.092695
_cell_length_b 9.092695
_cell_length_c 31.393881
_cell_angle_alpha 90.000000
_cell_angle_beta 90.000000
_cell_angle_gamma 90.000000
_cell_volume 2595.555113
_symmetry_space_group_name_H-M "P -4 M 2"
_symmetry_group_IT_number 115
_symmetry_cell_setting 'tetragonal'
loop_
_space_group_symop_operation_xyz
x,y,z
y,-x,-z
-x,-y,z
-y,x,-z
y,x,-z
-y,-x,-z
-x,y,z
x,-y,z
loop_
_atom_site_type_symbol
_atom_site_label
_atom_site_fract_x
_atom_site_fract_y
_atom_site_fract_z
Si Si1 0.824742 0.174475 0.209958
Si Si2 0.674093 0.675993 0.870779
Si Si3 0.675207 0.173806 0.040035
Si Si4 0.825533 0.825750 0.371930
Si Si5 0.325060 0.325167 0.450874
Si Si6 0.324883 0.325205 0.291218
O O1 0.760135 0.247029 0.167405
O O2 0.748918 0.248561 0.250647
O O3 0.000000 0.196447 0.212088
O O4 0.795473 0.000000 0.209897
O O5 0.500000 0.705501 0.870668
O O6 0.694858 0.500000 0.864975
O O7 0.744016 0.716264 0.916280
O O8 0.500000 0.196318 0.033495
O O9 0.701616 0.000000 0.044441
O O10 0.760894 0.239107 0.000000
O O11 0.765336 0.765722 0.416660
O O12 0.743188 0.742117 0.333978
O O13 0.000000 0.800231 0.368624
O O14 0.798717 0.000000 0.368367
O O15 0.289063 0.289063 0.500000
O O16 0.500000 0.300306 0.444955
O O17 0.299543 0.500000 0.444914
O O18 0.500000 0.300979 0.290516
O O19 0.298319 0.500000 0.289774
#
# Coordination Sequence:
#
# PCOD9557330 Si02
#       6
#     8   8   8   8   8   8
#     4  11  24  40  59  86 119 152 187 229 279 335
#     4  10  21  38  61  87 114 148 192 237 281 334
#     4  10  21  37  58  84 114 150 191 235 285 338
#     4  11  24  39  56  83 118 152 188 232 282 336
#     4   9  19  37  60  85 113 147 190 237 282 333
#     4  11  24  41  62  87 113 145 189 236 281 334
#
# _framework density 18.493153
#
# number of rings (size 3 to 8) (size 9 to 14) (size 15 to 20)
#    0.000    1.667    0.000    4.500    0.000   13.667 
#    0.000    2.500    0.000    0.000    0.000    0.000 
#    0.000    0.000    0.000    0.000    0.000    0.000 
#
# Total GULP energy -268385.152386 kJ/mol
# GULP energy per Si atom -5591.357341 kJ/mol
# Density = 1.845106 g / cm^3
# Si number density = 18.493153 Si / 1000 Ang^3
#
#
#
# Elastic Constant Matrix: (Units=GPa)
#
#
# Indices 1 2 3 4 5 6 
#
# 1 111.3823 104.7209 102.7220 0.0000 0.0000 0.0000
# 2 104.7209 111.3829 102.7233 0.0000 0.0000 0.0000
# 3 102.7220 102.7233 171.0842 0.0000 0.0000 0.0000
# 4 0.0000 0.0000 0.0000 91.6666 0.0000 0.0000
# 5 0.0000 0.0000 0.0000 0.0000 91.6637 0.0000
# 6 0.0000 0.0000 0.0000 0.0000 0.0000 33.9093
#
#
#
# Elastic Compliance Matrix: (Units=1/GPa)
#
#
# Indices 1 2 3 4 5 6 
#
# 1 0.080446 -0.069665 -0.006472 0.000000 0.000000 0.000000
# 2 -0.069665 0.080448 -0.006475 0.000000 0.000000 0.000000
# 3 -0.006472 -0.006475 0.013619 0.000000 0.000000 0.000000
# 4 0.000000 0.000000 0.000000 0.010909 0.000000 0.000000
# 5 0.000000 0.000000 0.000000 0.000000 0.010909 0.000000
# 6 0.000000 0.000000 0.000000 0.000000 0.000000 0.029490
#
#
# Mechanical properties :
#
#
# Convention : Reuss Voigt Hill
#
# Bulk Modulus (GPa) = 107.66639 112.68688 110.17664
# Shear Modulus (GPa) = 12.68579 49.02680 30.85630
#
# Velocity S-wave (km/s) = 2.62195 5.15445 4.08919
# Velocity P-wave (km/s) = 8.21658 9.82299 9.05547
#
# Compressibility (1/GPa) = 0.00928795
#
# Stress axis : x y z
#
# Youngs Moduli (GPa) = 12.43071 12.43045 73.42790
#
# Poissons Ratio (x) = 0.86597 0.47526
# Poissons Ratio (y) = 0.86599 0.47542
# Poissons Ratio (z) = 0.08046 0.08048
#
# Static dielectric constant tensor:
#      x y z
#    x 1.614430 0.000000 0.000000 
#    y 0.000000 1.614430 0.000000 
#    z 0.000000 0.000000 1.599250 
# 
# From -- ./inp_files/6027.got.cif
#   From: 2010.05.17/outbox.cif.g08.bks.cpg/sg115_4_cif.got.tgz:6027.got - 2010.05.20 11:07:42.
