data_PCOD9557154
_publ_section_title
;
Structure prediction by ZEFSAII (Michael W. Deem and Ramdas Pophale) SiO2 
 PCOD9557154
Probable space group: P -4 M 2
;
_chemical_formula_sum "Si O2"
_cell_formula_units_Z 29
_cell_length_a 8.106531
_cell_length_b 8.106531
_cell_length_c 21.686152
_cell_angle_alpha 90.000000
_cell_angle_beta 90.000000
_cell_angle_gamma 90.000000
_cell_volume 1425.123800
_symmetry_space_group_name_H-M "P -4 M 2"
_symmetry_group_IT_number 115
_symmetry_cell_setting 'tetragonal'
loop_
_space_group_symop_operation_xyz
x,y,z
y,-x,-z
-x,-y,z
-y,x,-z
y,x,-z
-y,-x,-z
-x,y,z
x,-y,z
loop_
_atom_site_type_symbol
_atom_site_label
_atom_site_fract_x
_atom_site_fract_y
_atom_site_fract_z
Si Si1 0.306409 0.193952 0.668291
Si Si2 0.500000 0.813974 0.410505
Si Si3 0.195732 0.309359 0.933497
Si Si4 0.500000 0.500000 0.500000
Si Si5 0.188237 0.803258 0.802868
O O1 0.500000 0.202834 0.652378
O O2 0.211278 0.332940 0.629723
O O3 0.283642 0.238406 0.740538
O O4 0.253948 0.000000 0.660075
O O5 0.500000 0.666239 0.459560
O O6 0.500000 0.000000 0.436217
O O7 0.236926 0.500000 0.936344
O O8 0.265540 0.243912 0.868763
O O9 0.000000 0.285348 0.927279
O O10 0.238657 0.238657 0.000000
O O11 0.000000 0.735896 0.797568
O O12 0.176612 0.000000 0.803959
#
# Coordination Sequence:
#
# PCOD9557154 Si02
#       5
#     8   4   8   1   8
#     4  10  21  40  67 101 140 177 222 277 332 394
#     4  12  26  46  76 104 142 187 221 274 327 382
#     4  10  21  35  51  74 108 152 205 262 320 385
#     4  12  28  52  68 112 148 176 234 260 324 388
#     4   9  18  33  55  85 118 156 207 263 322 389
#
# _framework density 20.349108000000001
#
# number of rings (size 3 to 8) (size 9 to 14) (size 15 to 20)
#    0.000    1.931    1.379    1.655    1.931    5.517 
#    0.000    2.759    0.000    0.000    0.000    0.000 
#    0.000    0.000    0.000    0.000    0.000    0.000 
#
# Total GULP energy -161702.403515 kJ/mol
# GULP energy per Si atom -5575.944949 kJ/mol
# Density = 2.030279 g / cm^3
# Si number density = 20.349108 Si / 1000 Ang^3
#
#
#
# Elastic Constant Matrix: (Units=GPa)
#
#
# Indices 1 2 3 4 5 6 
#
# 1 84.1361 22.1933 44.9923 0.0000 0.0000 0.0000
# 2 22.1933 84.1361 44.9923 0.0000 0.0000 0.0000
# 3 44.9923 44.9923 116.7465 0.0000 0.0000 0.0000
# 4 0.0000 0.0000 0.0000 32.7093 0.0000 0.0000
# 5 0.0000 0.0000 0.0000 0.0000 32.7093 0.0000
# 6 0.0000 0.0000 0.0000 0.0000 0.0000 14.9243
#
#
#
# Elastic Compliance Matrix: (Units=1/GPa)
#
#
# Indices 1 2 3 4 5 6 
#
# 1 0.015050 -0.001094 -0.005379 0.000000 0.000000 0.000000
# 2 -0.001094 0.015050 -0.005379 0.000000 0.000000 0.000000
# 3 -0.005379 -0.005379 0.012711 0.000000 0.000000 0.000000
# 4 0.000000 0.000000 0.000000 0.030572 0.000000 0.000000
# 5 0.000000 0.000000 0.000000 0.000000 0.030572 0.000000
# 6 0.000000 0.000000 0.000000 0.000000 0.000000 0.067005
#
#
# Mechanical properties :
#
#
# Convention : Reuss Voigt Hill
#
# Bulk Modulus (GPa) = 52.32911 56.59719 54.46315
# Shear Modulus (GPa) = 24.87155 27.59132 26.23143
#
# Velocity S-wave (km/s) = 3.49985 3.68625 3.59426
# Velocity P-wave (km/s) = 6.48872 6.78169 6.63682
#
# Compressibility (1/GPa) = 0.01910982
#
# Stress axis : x y z
#
# Youngs Moduli (GPa) = 66.44407 66.44407 78.67034
#
# Poissons Ratio (x) = 0.07267 0.42314
# Poissons Ratio (y) = 0.07267 0.42314
# Poissons Ratio (z) = 0.35738 0.35738
#
# Static dielectric constant tensor:
#      x y z
#    x 1.726980 0.000000 0.000000 
#    y 0.000000 1.726980 0.000000 
#    z 0.000000 0.000000 1.783710 
# 
# From -- ./inp_files/4599.got.cif
#   From: 2010.05.17/outbox.cif.g08.bks.cpg/sg115_3_cif.got.tgz:4599.got - 2010.05.20 11:07:42.
