data_PCOD9557076
_publ_section_title
;
Structure prediction by ZEFSAII (Michael W. Deem and Ramdas Pophale) SiO2 
 PCOD9557076
Probable space group: P -4 M 2
;
_chemical_formula_sum "Si O2"
_cell_formula_units_Z 36
_cell_length_a 16.599724
_cell_length_b 16.599724
_cell_length_c 7.433348
_cell_angle_alpha 90.000000
_cell_angle_beta 90.000000
_cell_angle_gamma 90.000000
_cell_volume 2048.265262
_symmetry_space_group_name_H-M "P -4 M 2"
_symmetry_group_IT_number 115
_symmetry_cell_setting 'tetragonal'
loop_
_space_group_symop_operation_xyz
x,y,z
y,-x,-z
-x,-y,z
-y,x,-z
y,x,-z
-y,-x,-z
-x,y,z
x,-y,z
loop_
_atom_site_type_symbol
_atom_site_label
_atom_site_fract_x
_atom_site_fract_y
_atom_site_fract_z
Si Si1 0.724549 0.409041 0.500001
Si Si2 0.000000 0.279556 0.784460
Si Si3 0.137100 0.591212 0.213452
Si Si4 0.591212 0.137101 0.213450
Si Si5 0.000000 0.279556 0.215541
Si Si6 0.000000 0.863060 0.500000
O O1 0.655107 0.344894 0.500000
O O2 0.692950 0.500000 0.500001
O O3 0.782572 0.399298 0.328107
O O4 0.782571 0.399298 0.671896
O O5 0.075767 0.337318 0.741342
O O6 0.000000 0.197757 0.670512
O O7 0.000000 0.264166 0.000000
O O8 0.105336 0.500000 0.251722
O O9 0.075767 0.662682 0.258659
O O10 0.151716 0.594909 0.000001
O O11 0.500000 0.105336 0.251721
O O12 0.000000 0.197757 0.329489
O O13 0.077993 0.922008 0.500000
#
# Coordination Sequence:
#
# PCOD9557076 Si02
#       6
#     8   4   8   8   4   4
#     4  10  21  35  51  73 103 141 181 218 256 298
#     4  10  20  35  59  85 105 133 171 207 252 316
#     4   9  18  33  54  82 113 137 160 202 261 317
#     4   9  18  33  54  82 113 137 160 202 261 317
#     4  10  20  35  59  85 105 133 171 207 252 316
#     4  11  26  44  55  68 100 142 181 224 264 295
#
# _framework density 17.575847
#
# number of rings (size 3 to 8) (size 9 to 14) (size 15 to 20)
#    0.000    2.333    0.000    2.000    0.000    8.222 
#    0.000   10.000    0.000    0.000    0.000    6.222 
#    0.000    0.000    0.000    0.000    0.000    0.000 
#
# Total GULP energy -200833.477500 kJ/mol
# GULP energy per Si atom -5578.707708 kJ/mol
# Density = 1.753584 g / cm^3
# Si number density = 17.575847 Si / 1000 Ang^3
#
#
#
# Elastic Constant Matrix: (Units=GPa)
#
#
# Indices 1 2 3 4 5 6 
#
# 1 141.1600 103.5505 61.5921 0.0000 0.0000 0.0000
# 2 103.5505 141.1665 61.5935 0.0000 0.0000 0.0000
# 3 61.5921 61.5935 70.2989 0.0000 0.0000 0.0000
# 4 0.0000 0.0000 0.0000 31.0800 0.0000 0.0000
# 5 0.0000 0.0000 0.0000 0.0000 31.0776 0.0000
# 6 0.0000 0.0000 0.0000 0.0000 0.0000 43.4157
#
#
#
# Elastic Compliance Matrix: (Units=1/GPa)
#
#
# Indices 1 2 3 4 5 6 
#
# 1 0.016949 -0.009638 -0.006405 0.000000 0.000000 0.000000
# 2 -0.009638 0.016948 -0.006405 0.000000 0.000000 0.000000
# 3 -0.006405 -0.006405 0.025449 0.000000 0.000000 0.000000
# 4 0.000000 0.000000 0.000000 0.032175 0.000000 0.000000
# 5 0.000000 0.000000 0.000000 0.000000 0.032178 0.000000
# 6 0.000000 0.000000 0.000000 0.000000 0.000000 0.023033
#
#
# Mechanical properties :
#
#
# Convention : Reuss Voigt Hill
#
# Bulk Modulus (GPa) = 69.20787 89.56639 79.38713
# Shear Modulus (GPa) = 25.45223 29.50726 27.47975
#
# Velocity S-wave (km/s) = 3.80957 4.10183 3.95840
# Velocity P-wave (km/s) = 7.66894 8.57344 8.13377
#
# Compressibility (1/GPa) = 0.01444922
#
# Stress axis : x y z
#
# Youngs Moduli (GPa) = 59.00004 59.00267 39.29398
#
# Poissons Ratio (x) = 0.56867 0.25170
# Poissons Ratio (y) = 0.56864 0.25169
# Poissons Ratio (z) = 0.37792 0.37793
#
# Static dielectric constant tensor:
#      x y z
#    x 1.576990 0.000000 0.000000 
#    y 0.000000 1.576990 0.000000 
#    z 0.000000 0.000000 1.611150 
# 
# From -- ./inp_files/1536.got.cif
#   From: 2010.05.17/outbox.cif.g08.bks.cpg/sg115_1_cif.got.tgz:1536.got - 2010.05.20 11:07:42.
