data_PCOD9557483
_publ_section_title
;
Structure prediction by ZEFSAII (Michael W. Deem and Ramdas Pophale) SiO2 
 PCOD9557483
Probable space group: P -4 M 2
;
_chemical_formula_sum "Si O2"
_cell_formula_units_Z 40
_cell_length_a 9.000000
_cell_length_b 9.000000
_cell_length_c 27.000000
_cell_angle_alpha 90.000000
_cell_angle_beta 90.000000
_cell_angle_gamma 90.000000
_cell_volume 2187.000000
_symmetry_space_group_name_H-M "P -4 M 2"
_symmetry_group_IT_number 115
_symmetry_cell_setting 'tetragonal'
loop_
_space_group_symop_operation_xyz
x,y,z
y,-x,-z
-x,-y,z
-y,x,-z
y,x,-z
-y,-x,-z
-x,y,z
x,-y,z
loop_
_atom_site_type_symbol
_atom_site_label
_atom_site_fract_x
_atom_site_fract_y
_atom_site_fract_z
Si Si1 0.677009 0.323416 0.149102
Si Si2 0.672244 0.318860 0.554037
Si Si3 0.674840 0.823304 0.047060
Si Si4 0.823463 0.325043 0.250971
Si Si5 0.823395 0.325627 0.655023
O O1 0.500000 0.299916 0.153865
O O2 0.703678 0.500000 0.144238
O O3 0.728855 0.244781 0.098980
O O4 0.754167 0.270152 0.199329
O O5 0.729809 0.270192 0.500000
O O6 0.500000 0.275109 0.559479
O O7 0.676042 0.500000 0.552234
O O8 0.760781 0.270802 0.602364
O O9 0.500000 0.784057 0.042304
O O10 0.687683 0.000000 0.048710
O O11 0.759153 0.759153 0.000000
O O12 0.784996 0.500000 0.255310
O O13 0.759808 0.242907 0.298521
O O14 0.000000 0.311197 0.248975
O O15 0.781792 0.500000 0.659625
O O16 0.000000 0.315008 0.654894
#
# Coordination Sequence:
#
# PCOD9557483 Si02
#       5
#     8   8   8   8   8
#     4   9  18  34  56  79 103 134 173 216 259 303
#     4   8  14  27  49  74  98 128 169 215 258 299
#     4  10  21  36  55  80 109 140 174 212 254 302
#     4  10  21  36  54  77 104 135 172 213 258 307
#     4  10  20  33  51  76 105 137 172 210 254 305
#
# _framework density 18.289895000000001
#
# number of rings (size 3 to 8) (size 9 to 14) (size 15 to 20)
#    0.000    2.600    0.000    2.400    0.000    5.200 
#    0.000    5.000    0.000    3.600    0.000    0.000 
#    0.000    0.000    0.000    0.000    0.000    0.000 
#
# Total GULP energy -223115.424675 kJ/mol
# GULP energy per Si atom -5577.885617 kJ/mol
# Density = 1.824827 g / cm^3
# Si number density = 18.289895 Si / 1000 Ang^3
#
#
#
# Elastic Constant Matrix: (Units=GPa)
#
#
# Indices 1 2 3 4 5 6 
#
# 1 15.7808 30.5820 51.8655 0.0000 0.0000 0.0000
# 2 30.5820 15.7809 51.8655 0.0000 0.0000 0.0000
# 3 51.8655 51.8655 203.1078 0.0000 0.0000 0.0000
# 4 0.0000 0.0000 0.0000 -43.7462 0.0000 0.0000
# 5 0.0000 0.0000 0.0000 0.0000 -43.7459 0.0000
# 6 0.0000 0.0000 0.0000 0.0000 0.0000 16.6794
#
#
#
# Elastic Compliance Matrix: (Units=1/GPa)
#
#
# Indices 1 2 3 4 5 6 
#
# 1 -0.008623 0.058939 -0.012849 0.000000 0.000000 0.000000
# 2 0.058939 -0.008623 -0.012849 0.000000 0.000000 0.000000
# 3 -0.012849 -0.012849 0.011486 0.000000 0.000000 0.000000
# 4 0.000000 0.000000 0.000000 -0.022859 0.000000 0.000000
# 5 0.000000 0.000000 0.000000 0.000000 -0.022859 0.000000
# 6 0.000000 0.000000 0.000000 0.000000 0.000000 0.059954
#
#
# Mechanical properties :
#
#
# Convention : Reuss Voigt Hill
#
# Bulk Modulus (GPa) = 16.46812 55.92173 36.19493
# Shear Modulus (GPa) = -132.39199 -7.47211 -69.93205
#
# Velocity S-wave (km/s) = -8.51719 -2.02342 -6.19018
# Velocity P-wave (km/s) = 9.36482 5.01823 5.59094
#
# Compressibility (1/GPa) = 0.06072338
#
# Stress axis : x y z
#
# Youngs Moduli (GPa) = -115.96739 -115.97412 87.06553
#
# Poissons Ratio (x) = 6.83543 1.11868
# Poissons Ratio (y) = 6.83504 1.11869
# Poissons Ratio (z) = -1.49003 -1.49013
#
# Static dielectric constant tensor:
#      x y z
#    x 1.614770 0.000000 0.000000 
#    y 0.000000 1.614770 0.000000 
#    z 0.000000 0.000000 1.616610 
# 
# From -- ./inp_files/5083.got.cif
#   From: 2010.05.17/outbox.ucp.g08.bks.cvg/sg115_3_cif.got.tgz:5083.got - 2010.06.11 11:33:38.
