data_PCOD9557158
_publ_section_title
;
Structure prediction by ZEFSAII (Michael W. Deem and Ramdas Pophale) SiO2 
 PCOD9557158
Probable space group: P -4 M 2
;
_chemical_formula_sum "Si O2"
_cell_formula_units_Z 44
_cell_length_a 9.511715
_cell_length_b 9.511715
_cell_length_c 28.883633
_cell_angle_alpha 90.000000
_cell_angle_beta 90.000000
_cell_angle_gamma 90.000000
_cell_volume 2613.180906
_symmetry_space_group_name_H-M "P -4 M 2"
_symmetry_group_IT_number 115
_symmetry_cell_setting 'tetragonal'
loop_
_space_group_symop_operation_xyz
x,y,z
y,-x,-z
-x,-y,z
-y,x,-z
y,x,-z
-y,-x,-z
-x,y,z
x,-y,z
loop_
_atom_site_type_symbol
_atom_site_label
_atom_site_fract_x
_atom_site_fract_y
_atom_site_fract_z
Si Si1 0.666265 0.831441 0.855299
Si Si2 0.665371 0.667649 0.684308
Si Si3 0.833348 0.666945 0.408193
Si Si4 0.331573 0.834196 0.223177
Si Si5 0.833006 0.166995 0.500000
Si Si6 0.332376 0.834167 0.961249
O O1 0.500000 0.800974 0.848691
O O2 0.758797 0.749328 0.818422
O O3 0.704212 0.793845 0.908350
O O4 0.683378 0.000000 0.850473
O O5 0.500000 0.697843 0.693500
O O6 0.678531 0.500000 0.677027
O O7 0.707345 0.749119 0.637853
O O8 0.758246 0.706758 0.728603
O O9 0.812990 0.500000 0.415449
O O10 0.788740 0.750594 0.453954
O O11 0.000000 0.691614 0.401214
O O12 0.500000 0.817071 0.217113
O O13 0.300767 0.000000 0.224906
O O14 0.000000 0.189815 0.506473
O O15 0.500000 0.815616 0.966051
O O16 0.302280 0.000000 0.966354
O O17 0.252189 0.747812 0.000000
#
# Coordination Sequence:
#
# PCOD9557158 Si02
#       6
#     8   8   8   8   4   8
#     4   9  19  36  55  74  99 133 171 208 247 294
#     4   9  18  33  51  70  95 128 163 199 242 291
#     4   9  18  32  49  70  95 123 158 198 238 283
#     4  10  21  35  51  75 105 133 164 205 252 300
#     4   9  18  32  48  67  94 126 156 189 234 286
#     4   9  19  35  53  75 103 133 167 207 249 295
#
# _framework density 16.837717999999999
#
# number of rings (size 3 to 8) (size 9 to 14) (size 15 to 20)
#    0.000    2.818    0.000    1.636    0.000    5.455 
#    0.000    7.273    0.000    0.000    0.000    0.000 
#    0.000    0.000    0.000    0.000    0.000    0.000 
#
# Total GULP energy -245365.658427 kJ/mol
# GULP energy per Si atom -5576.492237 kJ/mol
# Density = 1.679939 g / cm^3
# Si number density = 16.837718 Si / 1000 Ang^3
#
#
#
# Elastic Constant Matrix: (Units=GPa)
#
#
# Indices 1 2 3 4 5 6 
#
# 1 55.7914 51.5920 92.7364 0.0000 0.0000 0.0000
# 2 51.5920 55.7946 92.7388 0.0000 0.0000 0.0000
# 3 92.7364 92.7388 205.1883 0.0000 0.0000 0.0000
# 4 0.0000 0.0000 0.0000 55.3189 0.0000 0.0000
# 5 0.0000 0.0000 0.0000 0.0000 55.3182 0.0000
# 6 0.0000 0.0000 0.0000 0.0000 0.0000 26.0236
#
#
#
# Elastic Compliance Matrix: (Units=1/GPa)
#
#
# Indices 1 2 3 4 5 6 
#
# 1 0.140250 -0.097795 -0.019187 0.000000 0.000000 0.000000
# 2 -0.097795 0.140240 -0.019185 0.000000 0.000000 0.000000
# 3 -0.019187 -0.019185 0.022216 0.000000 0.000000 0.000000
# 4 0.000000 0.000000 0.000000 0.018077 0.000000 0.000000
# 5 0.000000 0.000000 0.000000 0.000000 0.018077 0.000000
# 6 0.000000 0.000000 0.000000 0.000000 0.000000 0.038427
#
#
# Mechanical properties :
#
#
# Convention : Reuss Voigt Hill
#
# Bulk Modulus (GPa) = 32.92414 87.87874 60.40144
# Shear Modulus (GPa) = 7.57870 32.64594 20.11232
#
# Velocity S-wave (km/s) = 2.12386 4.40802 3.45987
# Velocity P-wave (km/s) = 5.06070 8.84378 7.20497
#
# Compressibility (1/GPa) = 0.03037285
#
# Stress axis : x y z
#
# Youngs Moduli (GPa) = 7.13015 7.13064 45.01216
#
# Poissons Ratio (x) = 0.69734 0.86363
# Poissons Ratio (y) = 0.69729 0.86357
# Poissons Ratio (z) = 0.13680 0.13680
#
# Static dielectric constant tensor:
#      x y z
#    x 1.555970 0.000000 0.000000 
#    y 0.000000 1.555970 0.000000 
#    z 0.000000 0.000000 1.542490 
# 
# From -- ./inp_files/5730.got.cif
#   From: 2010.05.17/outbox.cif.g08.bks.cpg/sg115_3_cif.got.tgz:5730.got - 2010.05.20 11:07:42.
