data_PCOD9557981
_publ_section_title
;
Structure prediction by ZEFSAII (Michael W. Deem and Ramdas Pophale) SiO2 
 PCOD9557981
Probable space group: P -4 C 2
;
_chemical_formula_sum "Si O2"
_cell_formula_units_Z 18
_cell_length_a 5.437302
_cell_length_b 5.437302
_cell_length_c 24.585518
_cell_angle_alpha 90.000000
_cell_angle_beta 90.000000
_cell_angle_gamma 90.000000
_cell_volume 726.852475
_symmetry_space_group_name_H-M "P -4 C 2"
_symmetry_group_IT_number 116
_symmetry_cell_setting 'tetragonal'
loop_
_space_group_symop_operation_xyz
x,y,z
y,-x,-z
-x,-y,z
-y,x,-z
y,x,1/2-z
-y,-x,1/2-z
-x,y,1/2+z
x,-y,1/2+z
loop_
_atom_site_type_symbol
_atom_site_label
_atom_site_fract_x
_atom_site_fract_y
_atom_site_fract_z
Si Si1 0.343826 0.246263 0.189777
Si Si2 0.500000 0.500000 0.000000
Si Si3 0.859827 0.249395 0.572626
O O1 0.500000 0.500000 0.188071
O O2 0.230345 0.230345 0.250000
O O3 0.170151 0.252009 0.137742
O O4 0.500000 0.000000 0.182500
O O5 0.291080 0.604610 0.959303
O O6 0.000000 0.500000 0.559029
O O7 0.000000 0.000000 0.558328
#
# Coordination Sequence:
#
# PCOD9557981 Si02
#       3
#     8   2   8
#     4  11  24  48  81 118 161 205 265 337 414 495
#     4  12  32  52  74 116 172 216 288 354 396 512
#     4  12  29  50  83 117 161 218 276 340 419 489
#
# _framework density 24.764309999999998
#
# number of rings (size 3 to 8) (size 9 to 14) (size 15 to 20)
#    0.000    0.444    2.222    4.000    6.222    4.444 
#    0.000    0.000    0.000    0.000    0.000    0.000 
#    0.000    0.000    0.000    0.000    0.000    0.000 
#
# Total GULP energy -100861.246932 kJ/mol
# GULP energy per Si atom -5603.402607 kJ/mol
# Density = 2.470795 g / cm^3
# Si number density = 24.764310 Si / 1000 Ang^3
#
#
#
# Elastic Constant Matrix: (Units=GPa)
#
#
# Indices 1 2 3 4 5 6 
#
# 1 147.0227 60.3369 37.6869 0.0000 0.0000 0.0000
# 2 60.3369 147.0227 37.6869 0.0000 0.0000 0.0000
# 3 37.6869 37.6869 207.2914 0.0000 0.0000 0.0000
# 4 0.0000 0.0000 0.0000 -288.8232 0.0000 0.0000
# 5 0.0000 0.0000 0.0000 0.0000 -288.8232 0.0000
# 6 0.0000 0.0000 0.0000 0.0000 0.0000 58.3106
#
#
#
# Elastic Compliance Matrix: (Units=1/GPa)
#
#
# Indices 1 2 3 4 5 6 
#
# 1 0.008350 -0.003186 -0.000939 0.000000 0.000000 0.000000
# 2 -0.003186 0.008350 -0.000939 0.000000 0.000000 0.000000
# 3 -0.000939 -0.000939 0.005165 0.000000 0.000000 0.000000
# 4 0.000000 0.000000 0.000000 -0.003462 0.000000 0.000000
# 5 0.000000 0.000000 0.000000 0.000000 -0.003462 0.000000
# 6 0.000000 0.000000 0.000000 0.000000 0.000000 0.017150
#
#
# Mechanical properties :
#
#
# Convention : Reuss Voigt Hill
#
# Bulk Modulus (GPa) = 85.19462 85.86204 85.52833
# Shear Modulus (GPa) = 108.38921 -79.49210 14.44856
#
# Velocity S-wave (km/s) = 6.62294 -5.67179 2.41808
# Velocity P-wave (km/s) = 9.64164 2.85399 6.51214
#
# Compressibility (1/GPa) = 0.01173783
#
# Stress axis : x y z
#
# Youngs Moduli (GPa) = 119.76265 119.76265 193.59240
#
# Poissons Ratio (x) = 0.38157 0.18175
# Poissons Ratio (y) = 0.38157 0.18175
# Poissons Ratio (z) = 0.11243 0.11243
#
# Static dielectric constant tensor:
#      x y z
#    x 1.863090 0.000000 0.000000 
#    y 0.000000 1.863090 0.000000 
#    z 0.000000 0.000000 2.008770 
# 
# From -- ./inp_files/4235.got.cif
#   From: 2010.05.17/outbox.cif.g08.bks.cpg/sg116_3_cif.got.tgz:4235.got - 2010.05.20 11:11:43.
