data_PCOD9557411
_publ_section_title
;
Structure prediction by ZEFSAII (Michael W. Deem and Ramdas Pophale) SiO2 
 PCOD9557411
Probable space group: P -4 M 2
;
_chemical_formula_sum "Si O2"
_cell_formula_units_Z 19
_cell_length_a 9.865622
_cell_length_b 9.865622
_cell_length_c 10.074845
_cell_angle_alpha 90.000000
_cell_angle_beta 90.000000
_cell_angle_gamma 90.000000
_cell_volume 980.589676
_symmetry_space_group_name_H-M "P -4 M 2"
_symmetry_group_IT_number 115
_symmetry_cell_setting 'tetragonal'
loop_
_space_group_symop_operation_xyz
x,y,z
y,-x,-z
-x,-y,z
-y,x,-z
y,x,-z
-y,-x,-z
-x,y,z
x,-y,z
loop_
_atom_site_type_symbol
_atom_site_label
_atom_site_fract_x
_atom_site_fract_y
_atom_site_fract_z
Si Si1 0.242281 0.000000 0.717999
Si Si2 0.000000 0.500000 0.465842
Si Si3 0.663898 0.269036 0.848018
Si Si4 0.500000 0.158483 0.281302
Si Si5 0.000000 0.000000 0.500000
O O1 0.261637 0.128932 0.812894
O O2 0.371721 0.000000 0.624567
O O3 0.122879 0.000000 0.607718
O O4 0.128784 0.500000 0.562830
O O5 0.500000 0.264640 0.822870
O O6 0.749977 0.374640 0.761435
O O7 0.686654 0.313347 0.000000
O O8 0.500000 0.000000 0.225673
#
# Coordination Sequence:
#
# PCOD9557411 Si02
#       5
#     4   2   8   4   1
#     4  12  26  46  73 101 139 189 236 296 367 423
#     4  10  22  48  66  96 140 182 236 284 350 426
#     4  12  25  44  72 104 144 186 239 297 359 427
#     4  10  25  42  71  98 141 189 233 293 354 412
#     4  12  28  48  74 100 152 180 244 314 356 448
#
# _framework density 19.376097999999999
#
# number of rings (size 3 to 8) (size 9 to 14) (size 15 to 20)
#    0.632    0.000    4.211    3.158    5.895    0.000 
#    0.000    0.000    4.632    0.000    0.000    0.000 
#    0.000    0.000    0.000    0.000    0.000    0.000 
#
# Total GULP energy -105843.424192 kJ/mol
# GULP energy per Si atom -5570.706536 kJ/mol
# Density = 1.933200 g / cm^3
# Si number density = 19.376098 Si / 1000 Ang^3
#
#
#
# Elastic Constant Matrix: (Units=GPa)
#
#
# Indices 1 2 3 4 5 6 
#
# 1 136.2404 26.5400 2.7260 0.0000 0.0000 0.0000
# 2 26.5400 136.2388 2.7246 0.0000 0.0000 0.0000
# 3 2.7260 2.7246 48.2738 0.0000 0.0000 0.0000
# 4 0.0000 0.0000 0.0000 45.2636 0.0000 0.0000
# 5 0.0000 0.0000 0.0000 0.0000 45.2635 0.0000
# 6 0.0000 0.0000 0.0000 0.0000 0.0000 34.3456
#
#
#
# Elastic Compliance Matrix: (Units=1/GPa)
#
#
# Indices 1 2 3 4 5 6 
#
# 1 0.007635 -0.001480 -0.000348 0.000000 0.000000 0.000000
# 2 -0.001480 0.007635 -0.000347 0.000000 0.000000 0.000000
# 3 -0.000348 -0.000347 0.020754 0.000000 0.000000 0.000000
# 4 0.000000 0.000000 0.000000 0.022093 0.000000 0.000000
# 5 0.000000 0.000000 0.000000 0.000000 0.022093 0.000000
# 6 0.000000 0.000000 0.000000 0.000000 0.000000 0.029116
#
#
# Mechanical properties :
#
#
# Convention : Reuss Voigt Hill
#
# Bulk Modulus (GPa) = 31.57129 42.74824 37.15976
# Shear Modulus (GPa) = 40.24615 44.22538 42.23576
#
# Velocity S-wave (km/s) = 4.56247 4.78270 4.67388
# Velocity P-wave (km/s) = 6.63959 7.25322 6.95318
#
# Compressibility (1/GPa) = 0.03167435
#
# Stress axis : x y z
#
# Youngs Moduli (GPa) = 130.97038 130.96894 48.18250
#
# Poissons Ratio (x) = 0.19389 0.01675
# Poissons Ratio (y) = 0.19389 0.01674
# Poissons Ratio (z) = 0.04553 0.04549
#
# Static dielectric constant tensor:
#      x y z
#    x 1.789460 0.000000 0.000000 
#    y 0.000000 1.789460 0.000000 
#    z 0.000000 0.000000 1.660450 
# 
# From -- ./inp_files/2308.got.cif
#   From: 2010.05.17/outbox.cif.g08.bks.cpg/sg115_2_cif.got.tgz:2308.got - 2010.05.20 11:07:42.
