data_PCOD9557968
_publ_section_title
;
Structure prediction by ZEFSAII (Michael W. Deem and Ramdas Pophale) SiO2 
 PCOD9557968
Probable space group: P -4 C 2
;
_chemical_formula_sum "Si O2"
_cell_formula_units_Z 22
_cell_length_a 5.152344
_cell_length_b 5.152344
_cell_length_c 36.414298
_cell_angle_alpha 90.000000
_cell_angle_beta 90.000000
_cell_angle_gamma 90.000000
_cell_volume 966.677576
_symmetry_space_group_name_H-M "P -4 C 2"
_symmetry_group_IT_number 116
_symmetry_cell_setting 'tetragonal'
loop_
_space_group_symop_operation_xyz
x,y,z
y,-x,-z
-x,-y,z
-y,x,-z
y,x,1/2-z
-y,-x,1/2-z
-x,y,1/2+z
x,-y,1/2+z
loop_
_atom_site_type_symbol
_atom_site_label
_atom_site_fract_x
_atom_site_fract_y
_atom_site_fract_z
Si Si1 0.500000 0.500000 0.598083
Si Si2 0.000000 0.500000 0.145821
Si Si3 0.000000 0.000000 0.500000
Si Si4 0.172359 0.253596 0.790337
Si Si5 0.500000 0.000000 0.549462
O O1 0.238491 0.591991 0.620017
O O2 0.427616 0.249538 0.573998
O O3 0.823978 0.342046 0.175055
O O4 0.935850 0.749555 0.475322
O O5 0.297308 0.297308 0.750000
O O6 0.000000 0.500000 0.798992
O O7 0.000000 0.000000 0.786210
#
# Coordination Sequence:
#
# PCOD9557968 Si02
#       5
#     4   4   2   8   4
#     4  12  28  45  73 106 158 182 242 282 380 444
#     4  12  26  45  69 102 144 206 230 316 374 440
#     4  12  24  48  84 104 148 180 242 280 356 404
#     4  11  24  44  68  98 135 189 258 319 368 431
#     4  12  26  49  75 116 140 192 228 296 340 450
#
# _framework density 22.758362999999999
#
# number of rings (size 3 to 8) (size 9 to 14) (size 15 to 20)
#    0.000    0.364    1.818    6.545    7.636    0.000 
#    0.000    0.000    0.000    0.000    0.000    0.000 
#    0.000    0.000    0.000    0.000    0.000    0.000 
#
# Total GULP energy -122805.203919 kJ/mol
# GULP energy per Si atom -5582.054724 kJ/mol
# Density = 2.270656 g / cm^3
# Si number density = 22.758363 Si / 1000 Ang^3
#
#
#
# Elastic Constant Matrix: (Units=GPa)
#
#
# Indices 1 2 3 4 5 6 
#
# 1 134.4069 19.0751 34.8919 0.0000 0.0000 0.0000
# 2 19.0751 134.4069 34.8919 0.0000 0.0000 0.0000
# 3 34.8919 34.8919 100.5296 0.0000 0.0000 0.0000
# 4 0.0000 0.0000 0.0000 21.0554 0.0000 0.0000
# 5 0.0000 0.0000 0.0000 0.0000 21.0554 0.0000
# 6 0.0000 0.0000 0.0000 0.0000 0.0000 54.1843
#
#
#
# Elastic Compliance Matrix: (Units=1/GPa)
#
#
# Indices 1 2 3 4 5 6 
#
# 1 0.008203 -0.000467 -0.002685 0.000000 0.000000 0.000000
# 2 -0.000467 0.008203 -0.002685 0.000000 0.000000 0.000000
# 3 -0.002685 -0.002685 0.011811 0.000000 0.000000 0.000000
# 4 0.000000 0.000000 0.000000 0.047494 0.000000 0.000000
# 5 0.000000 0.000000 0.000000 0.000000 0.047494 0.000000
# 6 0.000000 0.000000 0.000000 0.000000 0.000000 0.018456
#
#
# Mechanical properties :
#
#
# Convention : Reuss Voigt Hill
#
# Bulk Modulus (GPa) = 60.44739 60.78457 60.61598
# Shear Modulus (GPa) = 31.47617 37.95801 34.71709
#
# Velocity S-wave (km/s) = 3.72299 4.08839 3.90996
# Velocity P-wave (km/s) = 6.71558 7.00380 6.86120
#
# Compressibility (1/GPa) = 0.01654331
#
# Stress axis : x y z
#
# Youngs Moduli (GPa) = 121.90000 121.90000 84.66533
#
# Poissons Ratio (x) = 0.05695 0.22734
# Poissons Ratio (y) = 0.05695 0.22734
# Poissons Ratio (z) = 0.32731 0.32731
#
# Static dielectric constant tensor:
#      x y z
#    x 1.856410 0.000000 0.000000 
#    y 0.000000 1.856410 0.000000 
#    z 0.000000 0.000000 1.975400 
# 
# From -- ./inp_files/5068.got.cif
#   From: 2010.05.17/outbox.cif.g08.bks.cpg/sg116_3_cif.got.tgz:5068.got - 2010.05.20 11:11:43.
