data_PCOD9557369
_publ_section_title
;
Structure prediction by ZEFSAII (Michael W. Deem and Ramdas Pophale) SiO2 
 PCOD9557369
Probable space group: P -4 M 2
;
_chemical_formula_sum "Si O2"
_cell_formula_units_Z 33
_cell_length_a 8.101455
_cell_length_b 8.101455
_cell_length_c 24.369062
_cell_angle_alpha 90.000000
_cell_angle_beta 90.000000
_cell_angle_gamma 90.000000
_cell_volume 1599.428613
_symmetry_space_group_name_H-M "P -4 M 2"
_symmetry_group_IT_number 115
_symmetry_cell_setting 'tetragonal'
loop_
_space_group_symop_operation_xyz
x,y,z
y,-x,-z
-x,-y,z
-y,x,-z
y,x,-z
-y,-x,-z
-x,y,z
x,-y,z
loop_
_atom_site_type_symbol
_atom_site_label
_atom_site_fract_x
_atom_site_fract_y
_atom_site_fract_z
Si Si1 0.695220 0.323690 0.846071
Si Si2 0.698740 0.698740 0.500000
Si Si3 0.184559 0.805463 0.263906
Si Si4 0.000000 0.000000 0.000000
Si Si5 0.000000 0.296239 0.085765
Si Si6 0.695591 0.301372 0.618732
O O1 0.500000 0.329967 0.855121
O O2 0.768348 0.500000 0.863703
O O3 0.724439 0.300220 0.781287
O O4 0.749814 0.162037 0.878644
O O5 0.723555 0.500000 0.499205
O O6 0.759258 0.760424 0.440770
O O7 0.232545 0.776966 0.326803
O O8 0.000000 0.739254 0.255326
O O9 0.186030 0.000000 0.253181
O O10 0.000000 0.171270 0.034680
O O11 0.000000 0.500000 0.075936
O O12 0.500000 0.264156 0.621590
O O13 0.712694 0.500000 0.619264
#
# Coordination Sequence:
#
# PCOD9557369 Si02
#       6
#     8   4   8   1   4   8
#     4  10  21  39  65  93 123 163 207 254 310 365
#     4   7  12  26  48  71  96 130 178 239 298 361
#     4  11  23  35  50  77 116 154 195 245 305 371
#     4  12  28  44  76 104 140 180 224 250 300 372
#     4  10  24  46  68 100 140 174 213 265 306 353
#     4   9  17  31  52  76 101 135 185 242 303 369
#
# _framework density 20.632366999999999
#
# number of rings (size 3 to 8) (size 9 to 14) (size 15 to 20)
#    0.000    2.303    1.212    2.909    1.697    6.303 
#    0.000    1.212    0.000    5.818    0.000    0.000 
#    0.000    0.000    0.000    0.000    0.000    0.000 
#
# Total GULP energy -183988.465748 kJ/mol
# GULP energy per Si atom -5575.408053 kJ/mol
# Density = 2.058541 g / cm^3
# Si number density = 20.632367 Si / 1000 Ang^3
#
#
#
# Elastic Constant Matrix: (Units=GPa)
#
#
# Indices 1 2 3 4 5 6 
#
# 1 33.6431 52.0978 35.1419 0.0000 0.0000 0.0000
# 2 52.0978 33.6431 35.1419 0.0000 0.0000 0.0000
# 3 35.1419 35.1419 114.5239 0.0000 0.0000 0.0000
# 4 0.0000 0.0000 0.0000 32.2017 0.0000 0.0000
# 5 0.0000 0.0000 0.0000 0.0000 32.2017 0.0000
# 6 0.0000 0.0000 0.0000 0.0000 0.0000 4.6246
#
#
#
# Elastic Compliance Matrix: (Units=1/GPa)
#
#
# Indices 1 2 3 4 5 6 
#
# 1 -0.019302 0.034885 -0.004782 0.000000 0.000000 0.000000
# 2 0.034885 -0.019302 -0.004782 0.000000 0.000000 0.000000
# 3 -0.004782 -0.004782 0.011666 0.000000 0.000000 0.000000
# 4 0.000000 0.000000 0.000000 0.031054 0.000000 0.000000
# 5 0.000000 0.000000 0.000000 0.000000 0.031054 0.000000
# 6 0.000000 0.000000 0.000000 0.000000 0.000000 0.216236
#
#
# Mechanical properties :
#
#
# Convention : Reuss Voigt Hill
#
# Bulk Modulus (GPa) = 42.18479 47.39705 44.79092
# Shear Modulus (GPa) = 23.96182 17.76748 20.86465
#
# Velocity S-wave (km/s) = 3.41159 2.93771 3.18348
# Velocity P-wave (km/s) = 6.00074 5.87613 5.93876
#
# Compressibility (1/GPa) = 0.02370523
#
# Stress axis : x y z
#
# Youngs Moduli (GPa) = -51.80800 -51.80800 85.71736
#
# Poissons Ratio (x) = 1.80730 0.40986
# Poissons Ratio (y) = 1.80730 0.40986
# Poissons Ratio (z) = -0.24772 -0.24772
#
# Static dielectric constant tensor:
#      x y z
#    x 1.746170 0.000000 0.000000 
#    y 0.000000 1.746170 0.000000 
#    z 0.000000 0.000000 1.743260 
# 
# From -- ./inp_files/4700.got.cif
#   From: 2010.05.17/outbox.cif.g08.bks.cpg/sg115_3_cif.got.tgz:4700.got - 2010.05.20 11:07:42.
