data_PCOD9557064
_publ_section_title
;
Structure prediction by ZEFSAII (Michael W. Deem and Ramdas Pophale) SiO2 
 PCOD9557064
Probable space group: P -4 M 2
;
_chemical_formula_sum "Si O2"
_cell_formula_units_Z 48
_cell_length_a 9.135104
_cell_length_b 9.135104
_cell_length_c 31.932104
_cell_angle_alpha 90.000000
_cell_angle_beta 90.000000
_cell_angle_gamma 90.000000
_cell_volume 2664.738073
_symmetry_space_group_name_H-M "P -4 M 2"
_symmetry_group_IT_number 115
_symmetry_cell_setting 'tetragonal'
loop_
_space_group_symop_operation_xyz
x,y,z
y,-x,-z
-x,-y,z
-y,x,-z
y,x,-z
-y,-x,-z
-x,y,z
x,-y,z
loop_
_atom_site_type_symbol
_atom_site_label
_atom_site_fract_x
_atom_site_fract_y
_atom_site_fract_z
Si Si1 0.174196 0.325496 0.460270
Si Si2 0.673236 0.325175 0.125010
Si Si3 0.173449 0.325703 0.039147
Si Si4 0.824107 0.326738 0.618648
Si Si5 0.175661 0.672704 0.788933
Si Si6 0.821810 0.831981 0.704328
O O1 0.249549 0.249549 0.500000
O O2 0.198093 0.500000 0.461808
O O3 0.244040 0.257960 0.418485
O O4 0.000000 0.298716 0.461006
O O5 0.500000 0.295268 0.119674
O O6 0.691763 0.500000 0.129432
O O7 0.757040 0.277183 0.083281
O O8 0.722456 0.248073 0.167730
O O9 0.202142 0.500000 0.035090
O O10 0.000000 0.303131 0.039773
O O11 0.244848 0.244848 0.000000
O O12 0.795500 0.500000 0.617046
O O13 0.779483 0.260818 0.663593
O O14 0.000000 0.305881 0.613979
O O15 0.208592 0.500000 0.783348
O O16 0.226258 0.760078 0.747974
O O17 0.000000 0.687030 0.792282
O O18 0.000000 0.830857 0.705139
O O19 0.774032 0.000000 0.700637
#
# Coordination Sequence:
#
# PCOD9557064 Si02
#       6
#     8   8   8   8   8   8
#     4  11  24  40  58  82 111 142 178 219 264 316
#     4   9  18  33  52  73  99 133 171 210 256 311
#     4  10  21  36  54  76 102 133 170 212 259 311
#     4  10  20  35  57  83 109 140 180 223 266 313
#     4   9  17  30  49  73 100 131 170 215 259 306
#     4   9  17  30  50  76 105 138 176 217 262 311
#
# _framework density 18.013029
#
# number of rings (size 3 to 8) (size 9 to 14) (size 15 to 20)
#    0.000    2.333    0.000    2.500    0.000    8.667 
#    0.000    2.500    0.000    3.000    0.000    0.000 
#    0.000    0.000    0.000    0.000    0.000    0.000 
#
# Total GULP energy -267939.090623 kJ/mol
# GULP energy per Si atom -5582.064388 kJ/mol
# Density = 1.797203 g / cm^3
# Si number density = 18.013029 Si / 1000 Ang^3
#
#
#
# Elastic Constant Matrix: (Units=GPa)
#
#
# Indices 1 2 3 4 5 6 
#
# 1 68.4828 63.3228 85.5141 0.0000 0.0000 0.0000
# 2 63.3228 68.4828 85.5141 0.0000 0.0000 0.0000
# 3 85.5141 85.5141 215.7932 0.0000 0.0000 0.0000
# 4 0.0000 0.0000 0.0000 36.2698 0.0000 0.0000
# 5 0.0000 0.0000 0.0000 0.0000 36.2698 0.0000
# 6 0.0000 0.0000 0.0000 0.0000 0.0000 20.8724
#
#
#
# Elastic Compliance Matrix: (Units=1/GPa)
#
#
# Indices 1 2 3 4 5 6 
#
# 1 0.104708 -0.089090 -0.006189 0.000000 0.000000 0.000000
# 2 -0.089090 0.104708 -0.006189 0.000000 0.000000 0.000000
# 3 -0.006189 -0.006189 0.009539 0.000000 0.000000 0.000000
# 4 0.000000 0.000000 0.000000 0.027571 0.000000 0.000000
# 5 0.000000 0.000000 0.000000 0.000000 0.027571 0.000000
# 6 0.000000 0.000000 0.000000 0.000000 0.000000 0.047910
#
#
# Mechanical properties :
#
#
# Convention : Reuss Voigt Hill
#
# Bulk Modulus (GPa) = 62.42749 91.27344 76.85046
# Shear Modulus (GPa) = 9.42892 26.57627 18.00260
#
# Velocity S-wave (km/s) = 2.29039 3.84525 3.16479
# Velocity P-wave (km/s) = 6.45961 8.39615 7.49073
#
# Compressibility (1/GPa) = 0.01601858
#
# Stress axis : x y z
#
# Youngs Moduli (GPa) = 9.55037 9.55037 104.83183
#
# Poissons Ratio (x) = 0.85085 0.64879
# Poissons Ratio (y) = 0.85085 0.64879
# Poissons Ratio (z) = 0.05911 0.05911
#
# Static dielectric constant tensor:
#      x y z
#    x 1.604440 0.000000 0.000000 
#    y 0.000000 1.604440 0.000000 
#    z 0.000000 0.000000 1.590500 
# 
# From -- ./inp_files/5929.got.cif
#   From: 2010.05.17/outbox.cif.g08.bks.cpg/sg115_3_cif.got.tgz:5929.got - 2010.05.20 11:07:42.
