data_PCOD9557921
_publ_section_title
;
Structure prediction by ZEFSAII (Michael W. Deem and Ramdas Pophale) SiO2 
 PCOD9557921
Probable space group: P -4 C 2
;
_chemical_formula_sum "Si O2"
_cell_formula_units_Z 34
_cell_length_a 8.794446
_cell_length_b 8.794446
_cell_length_c 21.123201
_cell_angle_alpha 90.000000
_cell_angle_beta 90.000000
_cell_angle_gamma 90.000000
_cell_volume 1633.716536
_symmetry_space_group_name_H-M "P -4 C 2"
_symmetry_group_IT_number 116
_symmetry_cell_setting 'tetragonal'
loop_
_space_group_symop_operation_xyz
x,y,z
y,-x,-z
-x,-y,z
-y,x,-z
y,x,1/2-z
-y,-x,1/2-z
-x,y,1/2+z
x,-y,1/2+z
loop_
_atom_site_type_symbol
_atom_site_label
_atom_site_fract_x
_atom_site_fract_y
_atom_site_fract_z
Si Si1 0.656868 0.407425 0.323561
Si Si2 0.157877 0.183967 0.894698
Si Si3 0.043110 0.676683 0.690117
Si Si4 0.128277 0.315990 0.332604
Si Si5 0.000000 0.000000 0.000000
O O1 0.500000 0.500000 0.330710
O O2 0.654373 0.345628 0.250000
O O3 0.695448 0.290593 0.380460
O O4 0.800221 0.518633 0.329744
O O5 0.999617 0.272077 0.882693
O O6 0.125416 0.087695 0.957561
O O7 0.194850 0.061678 0.840484
O O8 0.208263 0.723257 0.664081
O O9 0.049593 0.703186 0.764670
O O10 0.000000 0.500000 0.677583
#
# Coordination Sequence:
#
# PCOD9557921 Si02
#       5
#     8   8   8   8   2
#     4  11  22  40  70 110 144 163 201 282 379 447
#     4  12  23  43  65  90 137 177 237 281 324 389
#     4  11  20  35  62 100 131 166 208 274 358 423
#     4  11  21  36  63  99 135 169 208 272 362 424
#     4  12  28  48  62  92 128 196 264 298 292 360
#
# _framework density 20.811440999999999
#
# number of rings (size 3 to 8) (size 9 to 14) (size 15 to 20)
#    0.000    0.706    2.353    9.882    0.000    1.882 
#    0.000    2.353    0.000    0.000    0.000    0.000 
#    0.000    0.000    0.000    0.000    0.000    0.000 
#
# Total GULP energy -189503.141837 kJ/mol
# GULP energy per Si atom -5573.621819 kJ/mol
# Density = 2.076407 g / cm^3
# Si number density = 20.811441 Si / 1000 Ang^3
#
#
#
# Elastic Constant Matrix: (Units=GPa)
#
#
# Indices 1 2 3 4 5 6 
#
# 1 76.0640 50.0567 33.2468 0.0000 0.0000 0.0000
# 2 50.0567 76.0646 33.2469 0.0000 0.0000 0.0000
# 3 33.2468 33.2469 59.0111 0.0000 0.0000 0.0000
# 4 0.0000 0.0000 0.0000 23.9602 0.0000 0.0000
# 5 0.0000 0.0000 0.0000 0.0000 23.9602 0.0000
# 6 0.0000 0.0000 0.0000 0.0000 0.0000 62.2328
#
#
#
# Elastic Compliance Matrix: (Units=1/GPa)
#
#
# Indices 1 2 3 4 5 6 
#
# 1 0.024865 -0.013586 -0.006355 0.000000 0.000000 0.000000
# 2 -0.013586 0.024865 -0.006355 0.000000 0.000000 0.000000
# 3 -0.006355 -0.006355 0.024106 0.000000 0.000000 0.000000
# 4 0.000000 0.000000 0.000000 0.041736 0.000000 0.000000
# 5 0.000000 0.000000 0.000000 0.000000 0.041736 0.000000
# 6 0.000000 0.000000 0.000000 0.000000 0.000000 0.016069
#
#
# Mechanical properties :
#
#
# Convention : Reuss Voigt Hill
#
# Bulk Modulus (GPa) = 47.06756 49.36005 48.21380
# Shear Modulus (GPa) = 21.45475 28.33658 24.89567
#
# Velocity S-wave (km/s) = 3.21426 3.69397 3.46244
# Velocity P-wave (km/s) = 6.03661 6.47790 6.26114
#
# Compressibility (1/GPa) = 0.02124606
#
# Stress axis : x y z
#
# Youngs Moduli (GPa) = 40.21730 40.21772 41.48261
#
# Poissons Ratio (x) = 0.54638 0.26361
# Poissons Ratio (y) = 0.54637 0.26361
# Poissons Ratio (z) = 0.25557 0.25557
#
# Static dielectric constant tensor:
#      x y z
#    x 1.901310 0.000000 0.000000 
#    y 0.000000 1.901310 0.000000 
#    z 0.000000 0.000000 1.700160 
# 
# From -- ./inp_files/3900.got.cif
#   From: 2010.05.17/outbox.cif.g08.bks.cpg/sg116_2_cif.got.tgz:3900.got - 2010.05.20 11:11:43.
