data_PCOD9557307
_publ_section_title
;
Structure prediction by ZEFSAII (Michael W. Deem and Ramdas Pophale) SiO2 
 PCOD9557307
Probable space group: P -4 M 2
;
_chemical_formula_sum "Si O2"
_cell_formula_units_Z 48
_cell_length_a 9.075584
_cell_length_b 9.075584
_cell_length_c 32.108194
_cell_angle_alpha 90.000000
_cell_angle_beta 90.000000
_cell_angle_gamma 90.000000
_cell_volume 2644.630729
_symmetry_space_group_name_H-M "P -4 M 2"
_symmetry_group_IT_number 115
_symmetry_cell_setting 'tetragonal'
loop_
_space_group_symop_operation_xyz
x,y,z
y,-x,-z
-x,-y,z
-y,x,-z
y,x,-z
-y,-x,-z
-x,y,z
x,-y,z
loop_
_atom_site_type_symbol
_atom_site_label
_atom_site_fract_x
_atom_site_fract_y
_atom_site_fract_z
Si Si1 0.175638 0.675622 0.540017
Si Si2 0.676663 0.825709 0.301124
Si Si3 0.179694 0.171476 0.045459
Si Si4 0.324825 0.175443 0.619832
Si Si5 0.174157 0.324041 0.129856
Si Si6 0.676657 0.327359 0.215058
O O1 0.249929 0.750072 0.500000
O O2 0.200869 0.500000 0.539356
O O3 0.245449 0.745302 0.581348
O O4 0.000000 0.700787 0.539423
O O5 0.500000 0.802416 0.305800
O O6 0.760331 0.740838 0.337556
O O7 0.720272 0.763340 0.255889
O O8 0.704505 0.000000 0.303820
O O9 0.229668 0.255053 0.086707
O O10 0.000000 0.178681 0.044345
O O11 0.219967 0.000000 0.049091
O O12 0.228735 0.228735 0.000000
O O13 0.500000 0.202404 0.617944
O O14 0.300412 0.000000 0.617498
O O15 0.192231 0.500000 0.127428
O O16 0.252922 0.273023 0.171998
O O17 0.000000 0.291748 0.133260
O O18 0.500000 0.319858 0.211362
O O19 0.717225 0.500000 0.220767
#
# Coordination Sequence:
#
# PCOD9557307 Si02
#       6
#     8   8   8   8   8   8
#     4  11  24  41  62  89 119 151 189 230 272 320
#     4  10  21  37  57  81 108 139 177 220 266 317
#     4   8  14  26  44  64  87 118 155 193 237 293
#     4  11  24  40  59  85 115 147 185 226 268 318
#     4   9  17  29  46  68  93 121 157 202 247 292
#     4   9  18  33  51  70  97 134 169 202 249 308
#
# _framework density 18.149982999999999
#
# number of rings (size 3 to 8) (size 9 to 14) (size 15 to 20)
#    0.000    2.333    0.000    3.000    0.000    9.000 
#    0.000    2.500    0.000    1.000    0.000    0.000 
#    0.000    0.000    0.000    0.000    0.000    0.000 
#
# Total GULP energy -267882.947259 kJ/mol
# GULP energy per Si atom -5580.894735 kJ/mol
# Density = 1.810867 g / cm^3
# Si number density = 18.149983 Si / 1000 Ang^3
#
#
#
# Elastic Constant Matrix: (Units=GPa)
#
#
# Indices 1 2 3 4 5 6 
#
# 1 68.4317 66.5525 82.4134 0.0000 0.0000 0.0000
# 2 66.5525 68.4321 82.4134 0.0000 0.0000 0.0000
# 3 82.4134 82.4134 216.6263 0.0000 0.0000 0.0000
# 4 0.0000 0.0000 0.0000 38.1582 0.0000 0.0000
# 5 0.0000 0.0000 0.0000 0.0000 38.1582 0.0000
# 6 0.0000 0.0000 0.0000 0.0000 0.0000 21.6609
#
#
#
# Elastic Compliance Matrix: (Units=1/GPa)
#
#
# Indices 1 2 3 4 5 6 
#
# 1 0.272966 -0.259130 -0.005264 0.000000 0.000000 0.000000
# 2 -0.259130 0.272964 -0.005263 0.000000 0.000000 0.000000
# 3 -0.005264 -0.005263 0.008621 0.000000 0.000000 0.000000
# 4 0.000000 0.000000 0.000000 0.026207 0.000000 0.000000
# 5 0.000000 0.000000 0.000000 0.000000 0.026207 0.000000
# 6 0.000000 0.000000 0.000000 0.000000 0.000000 0.046166
#
#
# Mechanical properties :
#
#
# Convention : Reuss Voigt Hill
#
# Bulk Modulus (GPa) = 65.62585 90.69429 78.16007
# Shear Modulus (GPa) = 4.17528 27.73619 15.95574
#
# Velocity S-wave (km/s) = 1.51836 3.91342 2.96819
# Velocity P-wave (km/s) = 6.26976 8.39629 7.40971
#
# Compressibility (1/GPa) = 0.01523790
#
# Stress axis : x y z
#
# Youngs Moduli (GPa) = 3.66346 3.66349 115.99298
#
# Poissons Ratio (x) = 0.94932 0.61059
# Poissons Ratio (y) = 0.94931 0.61049
# Poissons Ratio (z) = 0.01928 0.01928
#
# Static dielectric constant tensor:
#      x y z
#    x 1.610210 0.000000 0.000000 
#    y 0.000000 1.610210 0.000000 
#    z 0.000000 0.000000 1.611500 
# 
# From -- ./inp_files/5981.got.cif
#   From: 2010.05.17/outbox.cif.g08.bks.cpg/sg115_3_cif.got.tgz:5981.got - 2010.05.20 11:07:42.
