data_PCOD9557398
_publ_section_title
;
Structure prediction by ZEFSAII (Michael W. Deem and Ramdas Pophale) SiO2 
 PCOD9557398
Probable space group: P -4 M 2
;
_chemical_formula_sum "Si O2"
_cell_formula_units_Z 48
_cell_length_a 9.631415
_cell_length_b 9.631415
_cell_length_c 27.970937
_cell_angle_alpha 90.000000
_cell_angle_beta 90.000000
_cell_angle_gamma 90.000000
_cell_volume 2594.700333
_symmetry_space_group_name_H-M "P -4 M 2"
_symmetry_group_IT_number 115
_symmetry_cell_setting 'tetragonal'
loop_
_space_group_symop_operation_xyz
x,y,z
y,-x,-z
-x,-y,z
-y,x,-z
y,x,-z
-y,-x,-z
-x,y,z
x,-y,z
loop_
_atom_site_type_symbol
_atom_site_label
_atom_site_fract_x
_atom_site_fract_y
_atom_site_fract_z
Si Si1 0.000000 0.831912 0.787742
Si Si2 0.000000 0.163051 0.902752
Si Si3 0.658134 0.241087 0.051702
Si Si4 0.662554 0.164243 0.537679
Si Si5 0.669729 0.248679 0.262764
Si Si6 0.668001 0.162366 0.648914
Si Si7 0.652878 0.500000 0.122870
Si Si8 0.168548 0.500000 0.213153
O O1 0.124711 0.745121 0.764820
O O2 0.000000 0.819269 0.845291
O O3 0.000000 0.000000 0.777039
O O4 0.130460 0.237378 0.926630
O O5 0.000000 0.000000 0.912792
O O6 0.500000 0.186965 0.048184
O O7 0.656749 0.367991 0.088631
O O8 0.706355 0.293646 0.000000
O O9 0.751157 0.248844 0.500000
O O10 0.500000 0.199795 0.532927
O O11 0.701381 0.187213 0.593247
O O12 0.677351 0.000000 0.528950
O O13 0.500000 0.250295 0.259797
O O14 0.726692 0.257720 0.317102
O O15 0.750472 0.374422 0.237612
O O16 0.500000 0.174657 0.654211
O O17 0.701924 0.000000 0.660766
O O18 0.500000 0.500000 0.148193
O O19 0.782795 0.500000 0.158236
O O20 0.000000 0.500000 0.218992
#
# Coordination Sequence:
#
# PCOD9557398 Si02
#       8
#     4   4   8   8   8   8   4   4
#     4  11  25  47  67  89 127 173 211 255 320 393
#     4  11  27  45  65  93 125 163 209 251 298 365
#     4  11  23  42  66  94 124 162 199 250 313 371
#     4   9  19  36  58  86 121 163 211 262 315 374
#     4  12  24  39  64  95 128 163 213 267 322 377
#     4   9  18  36  61  88 120 166 215 262 319 381
#     4  10  22  40  66  92 126 156 208 262 313 370
#     4  12  24  40  62  94 128 168 212 262 313 380
#
# _framework density 18.499244000000001
#
# number of rings (size 3 to 8) (size 9 to 14) (size 15 to 20)
#    0.000    1.500    1.667    4.750    1.167    5.667 
#    1.500    1.667    0.000    0.000    0.000    0.000 
#    0.000    0.000    0.000    0.000    0.000    0.000 
#
# Total GULP energy -267727.621533 kJ/mol
# GULP energy per Si atom -5577.658782 kJ/mol
# Density = 1.845714 g / cm^3
# Si number density = 18.499244 Si / 1000 Ang^3
#
#
#
# Elastic Constant Matrix: (Units=GPa)
#
#
# Indices 1 2 3 4 5 6 
#
# 1 143.0689 73.0305 65.1109 0.0000 0.0000 0.0000
# 2 73.0305 143.0727 65.1120 0.0000 0.0000 0.0000
# 3 65.1109 65.1120 114.4609 0.0000 0.0000 0.0000
# 4 0.0000 0.0000 0.0000 56.5931 0.0000 0.0000
# 5 0.0000 0.0000 0.0000 0.0000 56.5932 0.0000
# 6 0.0000 0.0000 0.0000 0.0000 0.0000 30.4320
#
#
#
# Elastic Compliance Matrix: (Units=1/GPa)
#
#
# Indices 1 2 3 4 5 6 
#
# 1 0.010659 -0.003618 -0.004005 0.000000 0.000000 0.000000
# 2 -0.003618 0.010659 -0.004005 0.000000 0.000000 0.000000
# 3 -0.004005 -0.004005 0.013294 0.000000 0.000000 0.000000
# 4 0.000000 0.000000 0.000000 0.017670 0.000000 0.000000
# 5 0.000000 0.000000 0.000000 0.000000 0.017670 0.000000
# 6 0.000000 0.000000 0.000000 0.000000 0.000000 0.032860
#
#
# Mechanical properties :
#
#
# Convention : Reuss Voigt Hill
#
# Bulk Modulus (GPa) = 88.07230 89.67882 88.87556
# Shear Modulus (GPa) = 38.50455 41.88025 40.19240
#
# Velocity S-wave (km/s) = 4.56720 4.76320 4.66623
# Velocity P-wave (km/s) = 8.69047 8.87879 8.78514
#
# Compressibility (1/GPa) = 0.01135431
#
# Stress axis : x y z
#
# Youngs Moduli (GPa) = 93.81376 93.81600 75.22467
#
# Poissons Ratio (x) = 0.33945 0.30130
# Poissons Ratio (y) = 0.33944 0.30130
# Poissons Ratio (z) = 0.37576 0.37576
#
# Static dielectric constant tensor:
#      x y z
#    x 1.359660 0.000000 0.000000 
#    y 0.000000 1.359660 0.000000 
#    z 0.000000 0.000000 1.648060 
# 
# From -- ./inp_files/6282.got.cif
#   From: 2010.05.17/outbox.cif.g08.bks.cpg/sg115_4_cif.got.tgz:6282.got - 2010.05.20 11:07:42.
