data_PCOD9557138
_publ_section_title
;
Structure prediction by ZEFSAII (Michael W. Deem and Ramdas Pophale) SiO2 
 PCOD9557138
Probable space group: P -4 M 2
;
_chemical_formula_sum "Si O2"
_cell_formula_units_Z 48
_cell_length_a 9.486980
_cell_length_b 9.486980
_cell_length_c 31.768875
_cell_angle_alpha 90.000000
_cell_angle_beta 90.000000
_cell_angle_gamma 90.000000
_cell_volume 2859.287370
_symmetry_space_group_name_H-M "P -4 M 2"
_symmetry_group_IT_number 115
_symmetry_cell_setting 'tetragonal'
loop_
_space_group_symop_operation_xyz
x,y,z
y,-x,-z
-x,-y,z
-y,x,-z
y,x,-z
-y,-x,-z
-x,y,z
x,-y,z
loop_
_atom_site_type_symbol
_atom_site_label
_atom_site_fract_x
_atom_site_fract_y
_atom_site_fract_z
Si Si1 0.666752 0.830947 0.631674
Si Si2 0.668451 0.665793 0.212245
Si Si3 0.328621 0.162203 0.869991
Si Si4 0.830392 0.666471 0.035937
Si Si5 0.668214 0.166123 0.535494
Si Si6 0.166239 0.330962 0.703600
O O1 0.500000 0.800443 0.637578
O O2 0.705337 0.792818 0.583509
O O3 0.759000 0.749011 0.665413
O O4 0.683820 0.000000 0.635943
O O5 0.500000 0.675638 0.206956
O O6 0.702852 0.500000 0.219367
O O7 0.744058 0.714374 0.169523
O O8 0.709107 0.756935 0.252786
O O9 0.500000 0.162772 0.870796
O O10 0.285668 0.210789 0.916712
O O11 0.284147 0.000000 0.864153
O O12 0.797348 0.500000 0.031692
O O13 0.000000 0.680365 0.033192
O O14 0.753896 0.753896 0.000000
O O15 0.747379 0.252622 0.500000
O O16 0.500000 0.183821 0.531358
O O17 0.699177 0.000000 0.530917
O O18 0.183472 0.500000 0.698470
O O19 0.000000 0.300273 0.705295
#
# Coordination Sequence:
#
# PCOD9557138 Si02
#       6
#     8   8   8   8   8   8
#     4   9  19  36  55  74  98 130 168 207 244 285
#     4   9  17  30  49  71  94 123 160 199 240 288
#     4   8  15  29  48  69  93 121 156 199 242 284
#     4   9  18  32  49  71  99 129 162 200 242 289
#     4   9  19  35  53  75 103 132 164 203 245 290
#     4  10  21  35  50  72 103 134 162 197 244 294
#
# _framework density 16.787400999999999
#
# number of rings (size 3 to 8) (size 9 to 14) (size 15 to 20)
#    0.000    3.000    0.000    2.500    0.000    4.667 
#    0.000    9.167    0.000    3.000    0.000    0.000 
#    0.000    0.000    0.000    0.000    0.000    0.000 
#
# Total GULP energy -267508.946726 kJ/mol
# GULP energy per Si atom -5573.103057 kJ/mol
# Density = 1.674919 g / cm^3
# Si number density = 16.787401 Si / 1000 Ang^3
#
#
#
# Elastic Constant Matrix: (Units=GPa)
#
#
# Indices 1 2 3 4 5 6 
#
# 1 47.0458 42.3340 80.7085 0.0000 0.0000 0.0000
# 2 42.3340 47.0428 80.7061 0.0000 0.0000 0.0000
# 3 80.7085 80.7061 201.3098 0.0000 0.0000 0.0000
# 4 0.0000 0.0000 0.0000 225.3718 0.0000 0.0000
# 5 0.0000 0.0000 0.0000 0.0000 225.3424 0.0000
# 6 0.0000 0.0000 0.0000 0.0000 0.0000 25.2515
#
#
#
# Elastic Compliance Matrix: (Units=1/GPa)
#
#
# Indices 1 2 3 4 5 6 
#
# 1 0.126415 -0.085878 -0.016253 0.000000 0.000000 0.000000
# 2 -0.085878 0.126426 -0.016255 0.000000 0.000000 0.000000
# 3 -0.016253 -0.016255 0.018000 0.000000 0.000000 0.000000
# 4 0.000000 0.000000 0.000000 0.004437 0.000000 0.000000
# 5 0.000000 0.000000 0.000000 0.000000 0.004438 0.000000
# 6 0.000000 0.000000 0.000000 0.000000 0.000000 0.039602
#
#
# Mechanical properties :
#
#
# Convention : Reuss Voigt Hill
#
# Bulk Modulus (GPa) = 29.35171 78.09951 53.72561
# Shear Modulus (GPa) = 8.81142 101.30314 55.05728
#
# Velocity S-wave (km/s) = 2.29352 7.77662 5.73306
# Velocity P-wave (km/s) = 4.95338 11.28087 8.71189
#
# Compressibility (1/GPa) = 0.03406956
#
# Stress axis : x y z
#
# Youngs Moduli (GPa) = 7.91043 7.90980 55.55480
#
# Poissons Ratio (x) = 0.67928 0.90294
# Poissons Ratio (y) = 0.67933 0.90303
# Poissons Ratio (z) = 0.12857 0.12857
#
# Static dielectric constant tensor:
#      x y z
#    x 1.553010 0.000000 0.000000 
#    y 0.000000 1.553010 0.000000 
#    z 0.000000 0.000000 1.557480 
# 
# From -- ./inp_files/5899.got.cif
#   From: 2010.05.17/outbox.cif.g08.bks.cpg/sg115_3_cif.got.tgz:5899.got - 2010.05.20 11:07:42.
