data_PCOD9557471
_publ_section_title
;
Structure prediction by ZEFSAII (Michael W. Deem and Ramdas Pophale) SiO2 
 PCOD9557471
Probable space group: P -4 M 2
;
_chemical_formula_sum "Si O2"
_cell_formula_units_Z 36
_cell_length_a 23.477158
_cell_length_b 23.477158
_cell_length_c 5.340200
_cell_angle_alpha 90.000000
_cell_angle_beta 90.000000
_cell_angle_gamma 90.000000
_cell_volume 2943.395136
_symmetry_space_group_name_H-M "P -4 M 2"
_symmetry_group_IT_number 115
_symmetry_cell_setting 'tetragonal'
loop_
_space_group_symop_operation_xyz
x,y,z
y,-x,-z
-x,-y,z
-y,x,-z
y,x,-z
-y,-x,-z
-x,y,z
x,-y,z
loop_
_atom_site_type_symbol
_atom_site_label
_atom_site_fract_x
_atom_site_fract_y
_atom_site_fract_z
Si Si1 0.430660 0.131903 0.757272
Si Si2 0.431261 0.326585 0.310843
Si Si3 0.934131 0.569429 0.742103
Si Si4 0.736584 0.569598 0.193207
Si Si5 0.565987 0.434014 0.000000
O O1 0.500000 0.131700 0.755742
O O2 0.412243 0.100501 0.503680
O O3 0.413431 0.197843 0.771296
O O4 0.412656 0.097346 0.003714
O O5 0.500000 0.321470 0.323169
O O6 0.410081 0.301208 0.571993
O O7 0.411909 0.288915 0.072919
O O8 0.421034 0.391427 0.226091
O O9 0.934102 0.500000 0.741412
O O10 0.000000 0.587356 0.734891
O O11 0.734910 0.500000 0.190979
O O12 0.500000 0.425895 0.925448
#
# Coordination Sequence:
#
# PCOD9557471 Si02
#       5
#     8   8   8   8   4
#     4   9  15  22  32  44  59  79  99 117 135 153
#     4   9  17  28  40  52  64  76  92 114 139 175
#     4   9  15  21  29  43  62  81  99 117 135 153
#     4   9  16  26  38  50  62  77  97 117 135 158
#     4   9  18  32  46  58  70  82  94 114 154 204
#
# _framework density 12.230772999999999
#
# number of rings (size 3 to 8) (size 9 to 14) (size 15 to 20)
#    0.000    3.000    0.000    2.000    0.000    8.889 
#    0.000    3.333    0.000    9.333    0.000    0.000 
#    0.000    0.000    0.000    0.000    0.000    0.000 
#
# Total GULP energy -200608.317008 kJ/mol
# GULP energy per Si atom -5572.453250 kJ/mol
# Density = 1.220294 g / cm^3
# Si number density = 12.230773 Si / 1000 Ang^3
#
#
#
# Elastic Constant Matrix: (Units=GPa)
#
#
# Indices 1 2 3 4 5 6 
#
# 1 55.1006 7.9088 27.3305 0.0000 0.0000 0.0000
# 2 7.9088 55.1029 27.3306 0.0000 0.0000 0.0000
# 3 27.3305 27.3306 97.0526 0.0000 0.0000 0.0000
# 4 0.0000 0.0000 0.0000 10.7604 0.0000 0.0000
# 5 0.0000 0.0000 0.0000 0.0000 10.7607 0.0000
# 6 0.0000 0.0000 0.0000 0.0000 0.0000 0.8924
#
#
#
# Elastic Compliance Matrix: (Units=1/GPa)
#
#
# Indices 1 2 3 4 5 6 
#
# 1 0.021096 -0.000094 -0.005914 0.000000 0.000000 0.000000
# 2 -0.000094 0.021095 -0.005914 0.000000 0.000000 0.000000
# 3 -0.005914 -0.005914 0.013634 0.000000 0.000000 0.000000
# 4 0.000000 0.000000 0.000000 0.092934 0.000000 0.000000
# 5 0.000000 0.000000 0.000000 0.000000 0.092931 0.000000
# 6 0.000000 0.000000 0.000000 0.000000 0.000000 1.120537
#
#
# Mechanical properties :
#
#
# Convention : Reuss Voigt Hill
#
# Bulk Modulus (GPa) = 31.26943 36.93287 34.10115
# Shear Modulus (GPa) = 3.57979 14.12846 8.85413
#
# Velocity S-wave (km/s) = 1.71267 3.40245 2.69350
# Velocity P-wave (km/s) = 5.43440 6.76001 6.13312
#
# Compressibility (1/GPa) = 0.03198012
#
# Stress axis : x y z
#
# Youngs Moduli (GPa) = 47.40329 47.40554 73.34357
#
# Poissons Ratio (x) = 0.00448 0.43376
# Poissons Ratio (y) = 0.00448 0.43374
# Poissons Ratio (z) = 0.28034 0.28034
#
# Static dielectric constant tensor:
#      x y z
#    x 1.386340 0.000000 0.000000 
#    y 0.000000 1.386340 0.000000 
#    z 0.000000 0.000000 1.432090 
# 
# From -- ./inp_files/584.got.cif
#   From: 2010.05.17/outbox.cif.g08.bks.cpg/sg115_1_cif.got.tgz:584.got - 2010.05.20 11:07:42.
