data_PCOD9557675
_publ_section_title
;
Structure prediction by ZEFSAII (Michael W. Deem and Ramdas Pophale) SiO2 
 PCOD9557675
Probable space group: P -4 C 2
;
_chemical_formula_sum "Si O2"
_cell_formula_units_Z 22
_cell_length_a 9.143246
_cell_length_b 9.143246
_cell_length_c 14.237975
_cell_angle_alpha 90.000000
_cell_angle_beta 90.000000
_cell_angle_gamma 90.000000
_cell_volume 1190.279723
_symmetry_space_group_name_H-M "P -4 C 2"
_symmetry_group_IT_number 116
_symmetry_cell_setting 'tetragonal'
loop_
_space_group_symop_operation_xyz
x,y,z
y,-x,-z
-x,-y,z
-y,x,-z
y,x,1/2-z
-y,-x,1/2-z
-x,y,1/2+z
x,-y,1/2+z
loop_
_atom_site_type_symbol
_atom_site_label
_atom_site_fract_x
_atom_site_fract_y
_atom_site_fract_z
Si Si1 0.655983 0.283328 0.146928
Si Si2 0.074926 0.215355 0.525392
Si Si3 0.500000 0.000000 0.590959
Si Si4 0.500000 0.500000 0.500000
O O1 0.650313 0.349688 0.250000
O O2 0.820875 0.240012 0.114724
O O3 0.563572 0.134551 0.148435
O O4 0.589762 0.389793 0.067329
O O5 0.910091 0.154508 0.537606
O O6 0.059340 0.368183 0.472813
#
# Coordination Sequence:
#
# PCOD9557675 Si02
#       4
#     8   8   4   2
#     4  11  23  40  63  93 121 165 214 252 318 385
#     4   9  19  38  62  85 123 166 202 258 320 365
#     4  10  20  40  62  90 124 168 202 262 318 360
#     4  12  22  44  60  90 136 160 202 276 316 370
#
# _framework density 18.483051
#
# number of rings (size 3 to 8) (size 9 to 14) (size 15 to 20)
#    0.000    1.818    3.636    0.545    0.000    1.455 
#    0.000   14.545    0.000    0.000    0.000    0.000 
#    0.000    0.000    0.000    0.000    0.000    0.000 
#
# Total GULP energy -122674.043727 kJ/mol
# GULP energy per Si atom -5576.092897 kJ/mol
# Density = 1.844098 g / cm^3
# Si number density = 18.483051 Si / 1000 Ang^3
#
#
#
# Elastic Constant Matrix: (Units=GPa)
#
#
# Indices 1 2 3 4 5 6 
#
# 1 117.2881 34.0463 51.5217 0.0000 0.0000 0.0000
# 2 34.0463 117.2875 51.5215 0.0000 0.0000 0.0000
# 3 51.5217 51.5215 107.1151 0.0000 0.0000 0.0000
# 4 0.0000 0.0000 0.0000 10.4926 0.0000 0.0000
# 5 0.0000 0.0000 0.0000 0.0000 10.4927 0.0000
# 6 0.0000 0.0000 0.0000 0.0000 0.0000 21.9396
#
#
#
# Elastic Compliance Matrix: (Units=1/GPa)
#
#
# Indices 1 2 3 4 5 6 
#
# 1 0.010920 -0.001094 -0.004726 0.000000 0.000000 0.000000
# 2 -0.001094 0.010920 -0.004726 0.000000 0.000000 0.000000
# 3 -0.004726 -0.004726 0.013882 0.000000 0.000000 0.000000
# 4 0.000000 0.000000 0.000000 0.095305 0.000000 0.000000
# 5 0.000000 0.000000 0.000000 0.000000 0.095304 0.000000
# 6 0.000000 0.000000 0.000000 0.000000 0.000000 0.045580
#
#
# Mechanical properties :
#
#
# Convention : Reuss Voigt Hill
#
# Bulk Modulus (GPa) = 68.35566 68.42997 68.39282
# Shear Modulus (GPa) = 16.78533 22.22507 19.50520
#
# Velocity S-wave (km/s) = 3.01682 3.47141 3.25207
# Velocity P-wave (km/s) = 7.01413 7.29185 7.15434
#
# Compressibility (1/GPa) = 0.01462937
#
# Stress axis : x y z
#
# Youngs Moduli (GPa) = 91.57858 91.57823 72.03411
#
# Poissons Ratio (x) = 0.10015 0.34045
# Poissons Ratio (y) = 0.10015 0.34045
# Poissons Ratio (z) = 0.43282 0.43282
#
# Static dielectric constant tensor:
#      x y z
#    x 1.660310 0.000000 0.000000 
#    y 0.000000 1.660310 0.000000 
#    z 0.000000 0.000000 1.583280 
# 
# From -- ./inp_files/1347.got.cif
#   From: 2010.05.17/outbox.cif.g08.bks.cpg/sg116_1_cif.got.tgz:1347.got - 2010.05.20 11:11:43.
