data_PCOD9557376
_publ_section_title
;
Structure prediction by ZEFSAII (Michael W. Deem and Ramdas Pophale) SiO2 
 PCOD9557376
Probable space group: P -4 M 2
;
_chemical_formula_sum "Si O2"
_cell_formula_units_Z 36
_cell_length_a 14.660388
_cell_length_b 14.660388
_cell_length_c 7.643962
_cell_angle_alpha 90.000000
_cell_angle_beta 90.000000
_cell_angle_gamma 90.000000
_cell_volume 1642.893640
_symmetry_space_group_name_H-M "P -4 M 2"
_symmetry_group_IT_number 115
_symmetry_cell_setting 'tetragonal'
loop_
_space_group_symop_operation_xyz
x,y,z
y,-x,-z
-x,-y,z
-y,x,-z
y,x,-z
-y,-x,-z
-x,y,z
x,-y,z
loop_
_atom_site_type_symbol
_atom_site_label
_atom_site_fract_x
_atom_site_fract_y
_atom_site_fract_z
Si Si1 0.601679 0.655695 0.316002
Si Si2 0.000000 0.256788 0.853317
Si Si3 0.195707 0.602740 0.193783
Si Si4 0.599342 0.150021 0.215107
Si Si5 0.000000 0.299899 0.256307
Si Si6 0.146150 0.000000 0.455336
O O1 0.605225 0.605225 0.500000
O O2 0.500000 0.637122 0.233189
O O3 0.700795 0.636825 0.229850
O O4 0.604531 0.764781 0.343389
O O5 0.084816 0.315194 0.781876
O O6 0.000000 0.163650 0.751214
O O7 0.000000 0.253646 0.062467
O O8 0.192147 0.500000 0.261375
O O9 0.099407 0.648660 0.256044
O O10 0.188476 0.601177 0.982806
O O11 0.500000 0.105004 0.237710
O O12 0.000000 0.234309 0.421961
O O13 0.088273 0.088273 0.500000
#
# Coordination Sequence:
#
# PCOD9557376 Si02
#       6
#     8   4   8   8   4   4
#     4  11  24  39  58  91 135 182 232 282 339 410
#     4  10  22  41  71  99 131 171 219 285 348 415
#     4  10  21  40  65  93 130 171 222 285 340 404
#     4   9  20  39  62  92 127 170 222 281 347 408
#     4  10  24  43  71 105 131 171 227 281 348 416
#     4  11  28  48  65  96 136 172 215 272 344 424
#
# _framework density 21.912557
#
# number of rings (size 3 to 8) (size 9 to 14) (size 15 to 20)
#    0.000    1.889    0.000    2.000    6.222    5.111 
#    0.000    3.333    0.000    8.000    0.000    0.000 
#    0.000    0.000    0.000    0.000    0.000    0.000 
#
# Total GULP energy -200536.915257 kJ/mol
# GULP energy per Si atom -5570.469868 kJ/mol
# Density = 2.186268 g / cm^3
# Si number density = 21.912557 Si / 1000 Ang^3
#
#
#
# Elastic Constant Matrix: (Units=GPa)
#
#
# Indices 1 2 3 4 5 6 
#
# 1 114.1023 33.5240 35.4908 0.0000 0.0000 0.0000
# 2 33.5240 114.1023 35.4908 0.0000 0.0000 0.0000
# 3 35.4908 35.4908 42.5483 0.0000 0.0000 0.0000
# 4 0.0000 0.0000 0.0000 30.2458 0.0000 0.0000
# 5 0.0000 0.0000 0.0000 0.0000 30.2458 0.0000
# 6 0.0000 0.0000 0.0000 0.0000 0.0000 49.1491
#
#
#
# Elastic Compliance Matrix: (Units=1/GPa)
#
#
# Indices 1 2 3 4 5 6 
#
# 1 0.011860 -0.000550 -0.009434 0.000000 0.000000 0.000000
# 2 -0.000550 0.011860 -0.009434 0.000000 0.000000 0.000000
# 3 -0.009434 -0.009434 0.039241 0.000000 0.000000 0.000000
# 4 0.000000 0.000000 0.000000 0.033062 0.000000 0.000000
# 5 0.000000 0.000000 0.000000 0.000000 0.033062 0.000000
# 6 0.000000 0.000000 0.000000 0.000000 0.000000 0.020346
#
#
# Mechanical properties :
#
#
# Convention : Reuss Voigt Hill
#
# Bulk Modulus (GPa) = 41.45070 53.30711 47.37891
# Shear Modulus (GPa) = 25.46995 33.01130 29.24062
#
# Velocity S-wave (km/s) = 3.41302 3.88558 3.65694
# Velocity P-wave (km/s) = 5.87274 6.67160 6.28488
#
# Compressibility (1/GPa) = 0.02412505
#
# Stress axis : x y z
#
# Youngs Moduli (GPa) = 84.31650 84.31650 25.48363
#
# Poissons Ratio (x) = 0.04639 0.24041
# Poissons Ratio (y) = 0.04639 0.24041
# Poissons Ratio (z) = 0.79543 0.79543
#
# Static dielectric constant tensor:
#      x y z
#    x 1.856570 0.000000 0.000000 
#    y 0.000000 1.856570 0.000000 
#    z 0.000000 0.000000 1.814900 
# 
# From -- ./inp_files/1535.got.cif
#   From: 2010.05.17/outbox.cif.g08.bks.cpg/sg115_1_cif.got.tgz:1535.got - 2010.05.20 11:07:42.
