data_PCOD9557683
_publ_section_title
;
Structure prediction by ZEFSAII (Michael W. Deem and Ramdas Pophale) SiO2 
 PCOD9557683
Probable space group: P -4 C 2
;
_chemical_formula_sum "Si O2"
_cell_formula_units_Z 22
_cell_length_a 8.394768
_cell_length_b 8.394768
_cell_length_c 13.331364
_cell_angle_alpha 90.000000
_cell_angle_beta 90.000000
_cell_angle_gamma 90.000000
_cell_volume 939.489614
_symmetry_space_group_name_H-M "P -4 C 2"
_symmetry_group_IT_number 116
_symmetry_cell_setting 'tetragonal'
loop_
_space_group_symop_operation_xyz
x,y,z
y,-x,-z
-x,-y,z
-y,x,-z
y,x,1/2-z
-y,-x,1/2-z
-x,y,1/2+z
x,-y,1/2+z
loop_
_atom_site_type_symbol
_atom_site_label
_atom_site_fract_x
_atom_site_fract_y
_atom_site_fract_z
Si Si1 0.761673 0.277815 0.933975
Si Si2 0.000000 0.500000 0.313994
Si Si3 0.500000 0.500000 0.000000
Si Si4 0.943683 0.670911 0.624431
O O1 0.879586 0.396855 0.878135
O O2 0.767491 0.108095 0.880154
O O3 0.589683 0.363572 0.936619
O O4 0.815207 0.256285 0.049892
O O5 0.906365 0.380565 0.237697
O O6 0.000000 0.500000 0.578757
#
# Coordination Sequence:
#
# PCOD9557683 Si02
#       4
#     8   4   2   8
#     4  12  21  43  64  96 137 171 222 276 327 409
#     4  10  20  42  64  96 134 164 220 284 326 400
#     4  12  20  36  70  92 124 182 216 272 338 380
#     4  10  23  39  64  95 130 175 213 269 338 381
#
# _framework density 23.416968000000001
#
# number of rings (size 3 to 8) (size 9 to 14) (size 15 to 20)
#    1.091    0.000    5.455    1.091    0.000    0.727 
#    0.000   23.636    0.000    8.727    0.000    0.000 
#    0.000    0.000    0.000    0.000    0.000    0.000 
#
# Total GULP energy -122840.314795 kJ/mol
# GULP energy per Si atom -5583.650673 kJ/mol
# Density = 2.336367 g / cm^3
# Si number density = 23.416968 Si / 1000 Ang^3
#
#
#
# Elastic Constant Matrix: (Units=GPa)
#
#
# Indices 1 2 3 4 5 6 
#
# 1 60.9544 27.5217 17.3047 0.0000 0.0000 0.0000
# 2 27.5217 60.9544 17.3047 0.0000 0.0000 0.0000
# 3 17.3047 17.3047 108.9188 0.0000 0.0000 0.0000
# 4 0.0000 0.0000 0.0000 15.3462 0.0000 0.0000
# 5 0.0000 0.0000 0.0000 0.0000 15.3462 0.0000
# 6 0.0000 0.0000 0.0000 0.0000 0.0000 42.8845
#
#
#
# Elastic Compliance Matrix: (Units=1/GPa)
#
#
# Indices 1 2 3 4 5 6 
#
# 1 0.020981 -0.008930 -0.001915 0.000000 0.000000 0.000000
# 2 -0.008930 0.020981 -0.001915 0.000000 0.000000 0.000000
# 3 -0.001915 -0.001915 0.009790 0.000000 0.000000 0.000000
# 4 0.000000 0.000000 0.000000 0.065163 0.000000 0.000000
# 5 0.000000 0.000000 0.000000 0.000000 0.065163 0.000000
# 6 0.000000 0.000000 0.000000 0.000000 0.000000 0.023318
#
#
# Mechanical properties :
#
#
# Convention : Reuss Voigt Hill
#
# Bulk Modulus (GPa) = 38.11893 39.45442 38.78668
# Shear Modulus (GPa) = 20.86300 25.96181 23.41240
#
# Velocity S-wave (km/s) = 2.98809 3.33329 3.16540
# Velocity P-wave (km/s) = 5.31212 5.63024 5.47349
#
# Compressibility (1/GPa) = 0.02623368
#
# Stress axis : x y z
#
# Youngs Moduli (GPa) = 47.66181 47.66181 102.14973
#
# Poissons Ratio (x) = 0.42561 0.19559
# Poissons Ratio (y) = 0.42561 0.19559
# Poissons Ratio (z) = 0.09126 0.09126
#
# Static dielectric constant tensor:
#      x y z
#    x 1.935310 0.000000 0.000000 
#    y 0.000000 1.935310 0.000000 
#    z 0.000000 0.000000 1.858050 
# 
# From -- ./inp_files/2204.got.cif
#   From: 2010.05.17/outbox.cif.g08.bks.cpg/sg116_2_cif.got.tgz:2204.got - 2010.05.20 11:11:43.
