data_PCOD9557231
_publ_section_title
;
Structure prediction by ZEFSAII (Michael W. Deem and Ramdas Pophale) SiO2 
 PCOD9557231
Probable space group: P -4 M 2
;
_chemical_formula_sum "Si O2"
_cell_formula_units_Z 48
_cell_length_a 9.421658
_cell_length_b 9.421658
_cell_length_c 32.000161
_cell_angle_alpha 90.000000
_cell_angle_beta 90.000000
_cell_angle_gamma 90.000000
_cell_volume 2840.578755
_symmetry_space_group_name_H-M "P -4 M 2"
_symmetry_group_IT_number 115
_symmetry_cell_setting 'tetragonal'
loop_
_space_group_symop_operation_xyz
x,y,z
y,-x,-z
-x,-y,z
-y,x,-z
y,x,-z
-y,-x,-z
-x,y,z
x,-y,z
loop_
_atom_site_type_symbol
_atom_site_label
_atom_site_fract_x
_atom_site_fract_y
_atom_site_fract_z
Si Si1 0.669338 0.333268 0.121121
Si Si2 0.831095 0.168638 0.711406
Si Si3 0.830959 0.331511 0.628094
Si Si4 0.668610 0.831534 0.794872
Si Si5 0.168488 0.330670 0.963380
Si Si6 0.664093 0.326996 0.545903
O O1 0.500000 0.321973 0.127484
O O2 0.702132 0.500000 0.113159
O O3 0.749470 0.288829 0.163210
O O4 0.707413 0.240195 0.080897
O O5 0.784072 0.250253 0.669778
O O6 0.751020 0.214940 0.753353
O O7 0.000000 0.191345 0.716450
O O8 0.807242 0.000000 0.706111
O O9 0.804594 0.500000 0.633011
O O10 0.753854 0.282098 0.585910
O O11 0.000000 0.311314 0.623578
O O12 0.500000 0.809882 0.788949
O O13 0.693222 0.000000 0.800454
O O14 0.191791 0.500000 0.969844
O O15 0.000000 0.305526 0.962555
O O16 0.243773 0.243773 0.000000
O O17 0.718034 0.281967 0.500000
O O18 0.500000 0.283755 0.550771
O O19 0.666181 0.500000 0.544689
#
# Coordination Sequence:
#
# PCOD9557231 Si02
#       6
#     8   8   8   8   8   8
#     4   9  18  33  52  73  98 128 160 195 238 286
#     4   9  18  32  47  63  88 122 153 181 222 275
#     4   9  17  29  45  65  88 114 146 184 223 263
#     4   9  18  32  49  69  93 121 154 192 232 274
#     4  10  21  36  54  77 104 134 168 205 245 289
#     4   8  14  26  44  64  86 113 144 178 219 267
#
# _framework density 16.897964000000002
#
# number of rings (size 3 to 8) (size 9 to 14) (size 15 to 20)
#    0.000    3.000    0.000    1.000    0.000    3.667 
#    0.000    2.500    0.000    1.000    0.000    0.000 
#    0.000    0.000    0.000    0.000    0.000    0.000 
#
# Total GULP energy -267494.620512 kJ/mol
# GULP energy per Si atom -5572.804594 kJ/mol
# Density = 1.685950 g / cm^3
# Si number density = 16.897964 Si / 1000 Ang^3
#
#
#
# Elastic Constant Matrix: (Units=GPa)
#
#
# Indices 1 2 3 4 5 6 
#
# 1 39.7220 39.9367 79.1574 0.0000 0.0000 0.0000
# 2 39.9367 39.7222 79.1574 0.0000 0.0000 0.0000
# 3 79.1574 79.1574 221.4077 0.0000 0.0000 0.0000
# 4 0.0000 0.0000 0.0000 -263.7827 0.0000 0.0000
# 5 0.0000 0.0000 0.0000 0.0000 -263.7256 0.0000
# 6 0.0000 0.0000 0.0000 0.0000 0.0000 16.6077
#
#
#
# Elastic Compliance Matrix: (Units=1/GPa)
#
#
# Indices 1 2 3 4 5 6 
#
# 1 -2.307498 2.350854 -0.015501 0.000000 0.000000 0.000000
# 2 2.350854 -2.307475 -0.015509 0.000000 0.000000 0.000000
# 3 -0.015501 -0.015509 0.015603 0.000000 0.000000 0.000000
# 4 0.000000 0.000000 0.000000 -0.003791 0.000000 0.000000
# 5 0.000000 0.000000 0.000000 0.000000 -0.003792 0.000000
# 6 0.000000 0.000000 0.000000 0.000000 0.000000 0.060213
#
#
# Mechanical properties :
#
#
# Convention : Reuss Voigt Hill
#
# Bulk Modulus (GPa) = 24.80169 77.48387 51.14278
# Shear Modulus (GPa) = -0.54508 -95.34008 -47.94258
#
# Velocity S-wave (km/s) = -0.56857 -7.51954 -5.33230
# Velocity P-wave (km/s) = 3.77865 5.42567 2.75315
#
# Compressibility (1/GPa) = 0.04031983
#
# Stress axis : x y z
#
# Youngs Moduli (GPa) = -0.43337 -0.43337 64.08953
#
# Poissons Ratio (x) = 1.01880 0.99346
# Poissons Ratio (y) = 1.01879 0.99395
# Poissons Ratio (z) = -0.00672 -0.00672
#
# Static dielectric constant tensor:
#      x y z
#    x 1.563470 0.000000 0.000000 
#    y 0.000000 1.563470 0.000000 
#    z 0.000000 0.000000 1.555630 
# 
# From -- ./inp_files/6103.got.cif
#   From: 2010.05.17/outbox.cif.g08.bks.cpg/sg115_4_cif.got.tgz:6103.got - 2010.05.20 11:07:42.
