data_PCOD9557570
_publ_section_title
;
Structure prediction by ZEFSAII (Michael W. Deem and Ramdas Pophale) SiO2 
 PCOD9557570
Probable space group: P -4 C 2
;
_chemical_formula_sum "Si O2"
_cell_formula_units_Z 38
_cell_length_a 15.201055
_cell_length_b 15.201055
_cell_length_c 9.072491
_cell_angle_alpha 90.000000
_cell_angle_beta 90.000000
_cell_angle_gamma 90.000000
_cell_volume 2096.399304
_symmetry_space_group_name_H-M "P -4 C 2"
_symmetry_group_IT_number 116
_symmetry_cell_setting 'tetragonal'
loop_
_space_group_symop_operation_xyz
x,y,z
y,-x,-z
-x,-y,z
-y,x,-z
y,x,1/2-z
-y,-x,1/2-z
-x,y,1/2+z
x,-y,1/2+z
loop_
_atom_site_type_symbol
_atom_site_label
_atom_site_fract_x
_atom_site_fract_y
_atom_site_fract_z
Si Si1 0.883920 0.632413 0.771894
Si Si2 0.303640 0.696361 0.250000
Si Si3 0.395498 0.022976 0.441994
Si Si4 0.803019 0.556492 0.205350
Si Si5 0.500000 0.500000 0.000000
Si Si6 0.556322 0.310634 0.515426
O O1 0.796361 0.685448 0.799188
O O2 0.849601 0.532242 0.764264
O O3 0.937185 0.650102 0.623627
O O4 0.955509 0.637818 0.897597
O O5 0.370927 0.680412 0.385753
O O6 0.386847 0.114999 0.352531
O O7 0.500000 0.000000 0.447043
O O8 0.745505 0.588287 0.344102
O O9 0.740708 0.523285 0.070171
O O10 0.474777 0.406373 0.073204
#
# Coordination Sequence:
#
# PCOD9557570 Si02
#       6
#     8   4   8   8   2   8
#     4  10  20  35  55  84 109 144 177 238 299 352
#     4  10  24  39  52  76 122 151 182 240 296 332
#     4  10  19  32  60  85 107 138 191 243 300 356
#     4  10  20  35  55  79 105 143 199 249 292 324
#     4  12  24  38  48  74 104 174 224 226 252 310
#     4  11  23  37  53  71 110 159 206 245 271 313
#
# _framework density 18.126317
#
# number of rings (size 3 to 8) (size 9 to 14) (size 15 to 20)
#    0.000    1.684    2.105    4.421    5.895    3.789 
#    0.000    0.000    0.000    0.000    0.000    0.000 
#    0.000    2.526    0.000    0.000    0.000    0.000 
#
# Total GULP energy -211866.488628 kJ/mol
# GULP energy per Si atom -5575.433911 kJ/mol
# Density = 1.808506 g / cm^3
# Si number density = 18.126317 Si / 1000 Ang^3
#
#
#
# Elastic Constant Matrix: (Units=GPa)
#
#
# Indices 1 2 3 4 5 6 
#
# 1 55.0676 11.7530 9.4266 0.0000 0.0000 0.0000
# 2 11.7530 55.0676 9.4270 0.0000 0.0000 0.0000
# 3 9.4266 9.4270 58.8709 0.0000 0.0000 0.0000
# 4 0.0000 0.0000 0.0000 26.0702 0.0000 0.0000
# 5 0.0000 0.0000 0.0000 0.0000 26.0703 0.0000
# 6 0.0000 0.0000 0.0000 0.0000 0.0000 13.2789
#
#
#
# Elastic Compliance Matrix: (Units=1/GPa)
#
#
# Indices 1 2 3 4 5 6 
#
# 1 0.019380 -0.003707 -0.002510 0.000000 0.000000 0.000000
# 2 -0.003707 0.019380 -0.002510 0.000000 0.000000 0.000000
# 3 -0.002510 -0.002510 0.017790 0.000000 0.000000 0.000000
# 4 0.000000 0.000000 0.000000 0.038358 0.000000 0.000000
# 5 0.000000 0.000000 0.000000 0.000000 0.038358 0.000000
# 6 0.000000 0.000000 0.000000 0.000000 0.000000 0.075307
#
#
# Mechanical properties :
#
#
# Convention : Reuss Voigt Hill
#
# Bulk Modulus (GPa) = 25.57663 25.57993 25.57828
# Shear Modulus (GPa) = 20.91535 22.31051 21.61293
#
# Velocity S-wave (km/s) = 3.40055 3.51213 3.45679
# Velocity P-wave (km/s) = 5.43683 5.53077 5.48400
#
# Compressibility (1/GPa) = 0.03909819
#
# Stress axis : x y z
#
# Youngs Moduli (GPa) = 51.59898 51.59889 56.21112
#
# Poissons Ratio (x) = 0.19126 0.14107
# Poissons Ratio (y) = 0.19126 0.14108
# Poissons Ratio (z) = 0.12950 0.12951
#
# Static dielectric constant tensor:
#      x y z
#    x 1.653290 0.000000 0.000000 
#    y 0.000000 1.653290 0.000000 
#    z 0.000000 0.000000 1.707230 
# 
# From -- ./inp_files/712.got.cif
#   From: 2010.05.17/outbox.cif.g08.bks.cpg/sg116_1_cif.got.tgz:712.got - 2010.05.20 11:11:43.
