data_PCOD9557226
_publ_section_title
;
Structure prediction by ZEFSAII (Michael W. Deem and Ramdas Pophale) SiO2 
 PCOD9557226
Probable space group: P -4 M 2
;
_chemical_formula_sum "Si O2"
_cell_formula_units_Z 48
_cell_length_a 9.316071
_cell_length_b 9.316071
_cell_length_c 32.127670
_cell_angle_alpha 90.000000
_cell_angle_beta 90.000000
_cell_angle_gamma 90.000000
_cell_volume 2788.334099
_symmetry_space_group_name_H-M "P -4 M 2"
_symmetry_group_IT_number 115
_symmetry_cell_setting 'tetragonal'
loop_
_space_group_symop_operation_xyz
x,y,z
y,-x,-z
-x,-y,z
-y,x,-z
y,x,-z
-y,-x,-z
-x,y,z
x,-y,z
loop_
_atom_site_type_symbol
_atom_site_label
_atom_site_fract_x
_atom_site_fract_y
_atom_site_fract_z
Si Si1 0.828306 0.828756 0.197490
Si Si2 0.335244 0.824642 0.627642
Si Si3 0.829728 0.328685 0.962558
Si Si4 0.175124 0.165997 0.454228
Si Si5 0.332074 0.672196 0.877001
Si Si6 0.174731 0.834331 0.290899
O O1 0.748390 0.740785 0.162153
O O2 0.782504 0.786659 0.244498
O O3 0.000000 0.807472 0.194111
O O4 0.801966 0.000000 0.193099
O O5 0.500000 0.781037 0.627192
O O6 0.255519 0.777599 0.585639
O O7 0.258359 0.776272 0.670002
O O8 0.330227 0.000000 0.627725
O O9 0.808282 0.500000 0.969273
O O10 0.752336 0.289956 0.919253
O O11 0.000000 0.302270 0.959878
O O12 0.758462 0.241539 0.000000
O O13 0.220084 0.220084 0.500000
O O14 0.000000 0.167646 0.455145
O O15 0.218352 0.000000 0.449335
O O16 0.500000 0.709990 0.880597
O O17 0.321648 0.500000 0.872033
O O18 0.000000 0.832299 0.290887
O O19 0.217717 0.000000 0.296510
#
# Coordination Sequence:
#
# PCOD9557226 Si02
#       6
#     8   8   8   8   8   8
#     4   9  18  32  50  73 100 130 165 204 245 289
#     4   9  15  21  32  54  83 111 140 179 227 273
#     4  10  21  37  57  79 102 130 164 201 243 290
#     4   8  13  21  33  49  71 102 138 173 213 265
#     4  10  21  36  54  76 102 134 170 205 243 288
#     4   8  14  25  40  59  87 122 154 185 228 281
#
# _framework density 17.214579000000001
#
# number of rings (size 3 to 8) (size 9 to 14) (size 15 to 20)
#    0.000    3.000    0.000    3.000    0.000    5.667 
#    0.000    1.667    0.000    0.000    0.000    1.167 
#    0.000    7.000    0.000    0.000    0.000    0.000 
#
# Total GULP energy -267464.881843 kJ/mol
# GULP energy per Si atom -5572.185038 kJ/mol
# Density = 1.717540 g / cm^3
# Si number density = 17.214579 Si / 1000 Ang^3
#
#
#
# Elastic Constant Matrix: (Units=GPa)
#
#
# Indices 1 2 3 4 5 6 
#
# 1 54.9625 41.2363 83.9079 0.0000 0.0000 0.0000
# 2 41.2363 54.9619 83.9087 0.0000 0.0000 0.0000
# 3 83.9079 83.9087 222.3048 0.0000 0.0000 0.0000
# 4 0.0000 0.0000 0.0000 -15.0339 0.0000 0.0000
# 5 0.0000 0.0000 0.0000 0.0000 -15.0327 0.0000
# 6 0.0000 0.0000 0.0000 0.0000 0.0000 17.3177
#
#
#
# Elastic Compliance Matrix: (Units=1/GPa)
#
#
# Indices 1 2 3 4 5 6 
#
# 1 0.051644 -0.021210 -0.011487 0.000000 0.000000 0.000000
# 2 -0.021210 0.051647 -0.011488 0.000000 0.000000 0.000000
# 3 -0.011487 -0.011488 0.013170 0.000000 0.000000 0.000000
# 4 0.000000 0.000000 0.000000 -0.066517 0.000000 0.000000
# 5 0.000000 0.000000 0.000000 0.000000 -0.066522 0.000000
# 6 0.000000 0.000000 0.000000 0.000000 0.000000 0.057744
#
#
# Mechanical properties :
#
#
# Convention : Reuss Voigt Hill
#
# Bulk Modulus (GPa) = 35.59982 83.37055 59.48519
# Shear Modulus (GPa) = 35.99689 5.66198 20.82943
#
# Velocity S-wave (km/s) = 4.57778 1.81554 3.48226
# Velocity P-wave (km/s) = 6.97613 7.27532 7.12729
#
# Compressibility (1/GPa) = 0.02809003
#
# Stress axis : x y z
#
# Youngs Moduli (GPa) = 19.36339 19.36239 75.92830
#
# Poissons Ratio (x) = 0.41068 0.87219
# Poissons Ratio (y) = 0.41070 0.87229
# Poissons Ratio (z) = 0.22243 0.22244
#
# Static dielectric constant tensor:
#      x y z
#    x 1.569220 0.000000 0.000000 
#    y 0.000000 1.569220 0.000000 
#    z 0.000000 0.000000 1.582140 
# 
# From -- ./inp_files/5993.got.cif
#   From: 2010.05.17/outbox.cif.g08.bks.cpg/sg115_3_cif.got.tgz:5993.got - 2010.05.20 11:07:42.
