data_PCOD9557965
_publ_section_title
;
Structure prediction by ZEFSAII (Michael W. Deem and Ramdas Pophale) SiO2 
 PCOD9557965
Probable space group: P -4 C 2
;
_chemical_formula_sum "Si O2"
_cell_formula_units_Z 40
_cell_length_a 8.887488
_cell_length_b 8.887488
_cell_length_c 24.690962
_cell_angle_alpha 90.000000
_cell_angle_beta 90.000000
_cell_angle_gamma 90.000000
_cell_volume 1950.275952
_symmetry_space_group_name_H-M "P -4 C 2"
_symmetry_group_IT_number 116
_symmetry_cell_setting 'tetragonal'
loop_
_space_group_symop_operation_xyz
x,y,z
y,-x,-z
-x,-y,z
-y,x,-z
y,x,1/2-z
-y,-x,1/2-z
-x,y,1/2+z
x,-y,1/2+z
loop_
_atom_site_type_symbol
_atom_site_label
_atom_site_fract_x
_atom_site_fract_y
_atom_site_fract_z
Si Si1 0.335669 0.947077 0.386017
Si Si2 0.253419 0.154311 0.694174
Si Si3 0.927973 0.757292 0.496912
Si Si4 0.145875 0.750279 0.877453
Si Si5 0.556863 0.670695 0.198113
O O1 0.273143 0.816182 0.348223
O O2 0.341889 0.904905 0.449692
O O3 0.500000 0.000000 0.368158
O O4 0.212892 0.081452 0.381592
O O5 0.159477 0.159477 0.750000
O O6 0.419474 0.215426 0.708117
O O7 0.254463 0.995124 0.663485
O O8 0.898380 0.694678 0.437273
O O9 0.097651 0.820589 0.496326
O O10 0.274712 0.645749 0.853669
O O11 0.500000 0.500000 0.191895
O O12 0.666082 0.666082 0.250000
#
# Coordination Sequence:
#
# PCOD9557965 Si02
#       5
#     8   8   8   8   8
#     4  11  24  40  68 100 138 176 226 285 348 410
#     4  12  25  42  67 101 133 176 233 285 334 415
#     4   9  18  41  66  96 134 173 224 290 343 392
#     4  11  24  42  72  97 131 183 236 285 339 415
#     4  11  24  46  65  94 141 184 220 279 360 415
#
# _framework density 20.509917999999999
#
# number of rings (size 3 to 8) (size 9 to 14) (size 15 to 20)
#    0.000    1.200    4.000    2.400    2.800    2.400 
#    0.000    0.000    0.000    0.000    0.000    0.000 
#    0.000    0.000    0.000    0.000    0.000    0.000 
#
# Total GULP energy -223575.012842 kJ/mol
# GULP energy per Si atom -5589.375321 kJ/mol
# Density = 2.046324 g / cm^3
# Si number density = 20.509918 Si / 1000 Ang^3
#
#
#
# Elastic Constant Matrix: (Units=GPa)
#
#
# Indices 1 2 3 4 5 6 
#
# 1 60.2265 6.7570 36.4330 0.0000 0.0000 0.0000
# 2 6.7570 60.2265 36.4330 0.0000 0.0000 0.0000
# 3 36.4330 36.4330 149.6435 0.0000 0.0000 0.0000
# 4 0.0000 0.0000 0.0000 23.3358 0.0000 0.0000
# 5 0.0000 0.0000 0.0000 0.0000 23.3358 0.0000
# 6 0.0000 0.0000 0.0000 0.0000 0.0000 30.6732
#
#
#
# Elastic Compliance Matrix: (Units=1/GPa)
#
#
# Indices 1 2 3 4 5 6 
#
# 1 0.019505 0.000803 -0.004944 0.000000 0.000000 0.000000
# 2 0.000803 0.019505 -0.004944 0.000000 0.000000 0.000000
# 3 -0.004944 -0.004944 0.009090 0.000000 0.000000 0.000000
# 4 0.000000 0.000000 0.000000 0.042853 0.000000 0.000000
# 5 0.000000 0.000000 0.000000 0.000000 0.042853 0.000000
# 6 0.000000 0.000000 0.000000 0.000000 0.000000 0.032602
#
#
# Mechanical properties :
#
#
# Convention : Reuss Voigt Hill
#
# Bulk Modulus (GPa) = 33.41331 47.70475 40.55903
# Shear Modulus (GPa) = 25.69979 28.16719 26.93349
#
# Velocity S-wave (km/s) = 3.54367 3.70989 3.62773
# Velocity P-wave (km/s) = 5.75067 6.45452 6.11273
#
# Compressibility (1/GPa) = 0.02992819
#
# Stress axis : x y z
#
# Youngs Moduli (GPa) = 51.26938 51.26938 110.01086
#
# Poissons Ratio (x) = -0.04115 0.54391
# Poissons Ratio (y) = -0.04115 0.54391
# Poissons Ratio (z) = 0.25348 0.25348
#
# Static dielectric constant tensor:
#      x y z
#    x 1.739960 0.000000 0.000000 
#    y 0.000000 1.739960 0.000000 
#    z 0.000000 0.000000 1.755870 
# 
# From -- ./inp_files/4433.got.cif
#   From: 2010.05.17/outbox.cif.g08.bks.cpg/sg116_3_cif.got.tgz:4433.got - 2010.05.20 11:11:43.
