data_PCOD9557623
_publ_section_title
;
Structure prediction by ZEFSAII (Michael W. Deem and Ramdas Pophale) SiO2 
 PCOD9557623
Probable space group: P -4 C 2
;
_chemical_formula_sum "Si O2"
_cell_formula_units_Z 36
_cell_length_a 11.849565
_cell_length_b 11.849565
_cell_length_c 9.529296
_cell_angle_alpha 90.000000
_cell_angle_beta 90.000000
_cell_angle_gamma 90.000000
_cell_volume 1338.029327
_symmetry_space_group_name_H-M "P -4 C 2"
_symmetry_group_IT_number 116
_symmetry_cell_setting 'tetragonal'
loop_
_space_group_symop_operation_xyz
x,y,z
y,-x,-z
-x,-y,z
-y,x,-z
y,x,1/2-z
-y,-x,1/2-z
-x,y,1/2+z
x,-y,1/2+z
loop_
_atom_site_type_symbol
_atom_site_label
_atom_site_fract_x
_atom_site_fract_y
_atom_site_fract_z
Si Si1 0.000000 0.000000 0.750000
Si Si2 0.717489 0.583913 0.101074
Si Si3 0.500000 0.500000 0.250000
Si Si4 0.194601 0.431213 0.384945
Si Si5 0.217489 0.083913 0.601074
Si Si6 0.694601 0.068787 0.384945
O O1 0.112764 0.006325 0.655871
O O2 0.612764 0.506325 0.155871
O O3 0.815808 0.565014 0.217371
O O4 0.663728 0.707063 0.102296
O O5 0.754271 0.545653 0.948364
O O6 0.102691 0.397309 0.500000
O O7 0.163728 0.207063 0.602296
O O8 0.315808 0.065014 0.717371
O O9 0.254271 0.045653 0.448364
#
# Coordination Sequence:
#
# PCOD9557623 Si02
#       6
#     2   8   2   8   8   8
#     4   8  16  30  52  82 104 130 168 226 288 318
#     4  10  20  33  57  83 112 142 179 233 282 337
#     4   8  16  30  52  82 104 130 168 226 288 318
#     4  10  21  36  56  83 110 145 183 227 283 331
#     4  10  20  33  57  83 112 142 179 233 282 337
#     4  10  21  36  56  83 110 145 183 227 283 331
#
# _framework density 26.905239999999999
#
# number of rings (size 3 to 8) (size 9 to 14) (size 15 to 20)
#    0.000    2.667    0.000    5.333    0.000   12.444 
#    0.000    0.000    0.000   10.667    0.000    0.000 
#    0.000    0.000    0.000    0.000    0.000    0.000 
#
# Total GULP energy -201289.273534 kJ/mol
# GULP energy per Si atom -5591.368709 kJ/mol
# Density = 2.684400 g / cm^3
# Si number density = 26.905240 Si / 1000 Ang^3
#
#
#
# Elastic Constant Matrix: (Units=GPa)
#
#
# Indices 1 2 3 4 5 6 
#
# 1 25.1934 24.9268 30.4088 0.0000 0.0000 0.0000
# 2 24.9268 25.1934 30.4088 0.0000 0.0000 0.0000
# 3 30.4088 30.4088 166.5356 0.0000 0.0000 0.0000
# 4 0.0000 0.0000 0.0000 47.8220 0.0000 0.0000
# 5 0.0000 0.0000 0.0000 0.0000 47.8220 0.0000
# 6 0.0000 0.0000 0.0000 0.0000 0.0000 49.2658
#
#
#
# Elastic Compliance Matrix: (Units=1/GPa)
#
#
# Indices 1 2 3 4 5 6 
#
# 1 1.888366 -1.862735 -0.004680 0.000000 0.000000 0.000000
# 2 -1.862735 1.888366 -0.004680 0.000000 0.000000 0.000000
# 3 -0.004680 -0.004680 0.007714 0.000000 0.000000 0.000000
# 4 0.000000 0.000000 0.000000 0.020911 0.000000 0.000000
# 5 0.000000 0.000000 0.000000 0.000000 0.020911 0.000000
# 6 0.000000 0.000000 0.000000 0.000000 0.000000 0.020298
#
#
# Mechanical properties :
#
#
# Convention : Reuss Voigt Hill
#
# Bulk Modulus (GPa) = 24.84137 43.15683 33.99910
# Shear Modulus (GPa) = 0.65753 37.72716 19.19235
#
# Velocity S-wave (km/s) = 0.49489 3.74869 2.67372
# Velocity P-wave (km/s) = 3.09508 5.90017 4.71124
#
# Compressibility (1/GPa) = 0.04025543
#
# Stress axis : x y z
#
# Youngs Moduli (GPa) = 0.52956 0.52956 129.63641
#
# Poissons Ratio (x) = 0.98643 0.60672
# Poissons Ratio (y) = 0.98643 0.60672
# Poissons Ratio (z) = 0.00248 0.00248
#
# Static dielectric constant tensor:
#      x y z
#    x 2.148140 0.000000 0.000000 
#    y 0.000000 2.148140 0.000000 
#    z 0.000000 0.000000 2.104240 
# 
# From -- ./inp_files/715.got.cif
#   From: 2010.05.17/outbox.cif.g08.bks.cpg/sg116_1_cif.got.tgz:715.got - 2010.05.20 11:11:43.
