data_PCOD9557462
_publ_section_title
;
Structure prediction by ZEFSAII (Michael W. Deem and Ramdas Pophale) SiO2 
 PCOD9557462
Probable space group: P -4 M 2
;
_chemical_formula_sum "Si O2"
_cell_formula_units_Z 34
_cell_length_a 11.586354
_cell_length_b 11.586354
_cell_length_c 12.065842
_cell_angle_alpha 90.000000
_cell_angle_beta 90.000000
_cell_angle_gamma 90.000000
_cell_volume 1619.762055
_symmetry_space_group_name_H-M "P -4 M 2"
_symmetry_group_IT_number 115
_symmetry_cell_setting 'tetragonal'
loop_
_space_group_symop_operation_xyz
x,y,z
y,-x,-z
-x,-y,z
-y,x,-z
y,x,-z
-y,-x,-z
-x,y,z
x,-y,z
loop_
_atom_site_type_symbol
_atom_site_label
_atom_site_fract_x
_atom_site_fract_y
_atom_site_fract_z
Si Si1 0.267437 0.000000 0.301901
Si Si2 0.365305 0.634696 0.500000
Si Si3 0.737522 0.000000 0.057611
Si Si4 0.000000 0.000000 0.000000
Si Si5 0.000000 0.000000 0.500000
Si Si6 0.260779 0.219781 0.684622
Si Si7 0.218169 0.635715 0.071615
Si Si8 0.276611 0.000000 0.548406
O O1 0.321485 0.000000 0.179068
O O2 0.202986 0.123054 0.303132
O O3 0.325513 0.000000 0.423414
O O4 0.500000 0.652527 0.525772
O O5 0.327443 0.710049 0.394074
O O6 0.697583 0.888870 0.989333
O O7 0.878065 0.000000 0.066641
O O8 0.000000 0.864609 0.459132
O O9 0.315142 0.229910 0.804964
O O10 0.310499 0.111911 0.617110
O O11 0.198884 0.500000 0.074337
O O12 0.329311 0.670690 0.000000
#
# Coordination Sequence:
#
# PCOD9557462 Si02
#       8
#     4   4   4   1   1   8   8   4
#     4  12  20  40  71 105 139 180 217 283 353 418
#     4  11  25  46  69  93 130 182 238 291 339 408
#     4  12  24  44  70 104 148 176 232 294 360 435
#     4  12  20  42  72 112 134 188 226 284 358 436
#     4  12  16  30  52 100 138 180 210 248 308 406
#     4  12  23  44  69 104 141 178 229 284 357 430
#     4  12  27  48  72 101 139 188 241 301 361 427
#     4  12  21  36  66 102 145 178 211 275 346 419
#
# _framework density 20.990739000000001
#
# number of rings (size 3 to 8) (size 9 to 14) (size 15 to 20)
#    0.000    0.118    8.235    1.765    0.000    2.588 
#    0.000    3.529    0.000    0.000    0.000    0.000 
#    0.000    0.000    0.000    0.000    0.000    0.000 
#
# Total GULP energy -189772.072943 kJ/mol
# GULP energy per Si atom -5581.531557 kJ/mol
# Density = 2.094296 g / cm^3
# Si number density = 20.990739 Si / 1000 Ang^3
#
#
#
# Elastic Constant Matrix: (Units=GPa)
#
#
# Indices 1 2 3 4 5 6 
#
# 1 88.0347 28.7838 36.6176 0.0000 0.0000 0.0000
# 2 28.7838 88.0368 36.6186 0.0000 0.0000 0.0000
# 3 36.6176 36.6186 193.2105 0.0000 0.0000 0.0000
# 4 0.0000 0.0000 0.0000 4.4776 0.0000 0.0000
# 5 0.0000 0.0000 0.0000 0.0000 4.4781 0.0000
# 6 0.0000 0.0000 0.0000 0.0000 0.0000 16.5751
#
#
#
# Elastic Compliance Matrix: (Units=1/GPa)
#
#
# Indices 1 2 3 4 5 6 
#
# 1 0.013296 -0.003581 -0.001841 0.000000 0.000000 0.000000
# 2 -0.003581 0.013296 -0.001841 0.000000 0.000000 0.000000
# 3 -0.001841 -0.001841 0.005874 0.000000 0.000000 0.000000
# 4 0.000000 0.000000 0.000000 0.223332 0.000000 0.000000
# 5 0.000000 0.000000 0.000000 0.000000 0.223309 0.000000
# 6 0.000000 0.000000 0.000000 0.000000 0.000000 0.060331
#
#
# Mechanical properties :
#
#
# Convention : Reuss Voigt Hill
#
# Bulk Modulus (GPa) = 55.74766 63.70244 59.72505
# Shear Modulus (GPa) = 8.92946 22.92363 15.92654
#
# Velocity S-wave (km/s) = 2.06476 3.30825 2.75751
# Velocity P-wave (km/s) = 5.68333 6.70869 6.21718
#
# Compressibility (1/GPa) = 0.01793797
#
# Stress axis : x y z
#
# Youngs Moduli (GPa) = 75.21108 75.21268 170.25394
#
# Poissons Ratio (x) = 0.26936 0.31346
# Poissons Ratio (y) = 0.26936 0.31346
# Poissons Ratio (z) = 0.13847 0.13848
#
# Static dielectric constant tensor:
#      x y z
#    x 1.743950 0.000000 0.000000 
#    y 0.000000 1.743960 0.000000 
#    z 0.000000 0.000000 1.748470 
# 
# From -- ./inp_files/2698.got.cif
#   From: 2010.05.17/outbox.cif.g08.bks.cpg/sg115_2_cif.got.tgz:2698.got - 2010.05.20 11:07:42.
