data_PCOD9557832
_publ_section_title
;
Structure prediction by ZEFSAII (Michael W. Deem and Ramdas Pophale) SiO2 
 PCOD9557832
Probable space group: P -4 C 2
;
_chemical_formula_sum "Si O2"
_cell_formula_units_Z 42
_cell_length_a 14.077400
_cell_length_b 14.077400
_cell_length_c 9.593979
_cell_angle_alpha 90.000000
_cell_angle_beta 90.000000
_cell_angle_gamma 90.000000
_cell_volume 1901.269431
_symmetry_space_group_name_H-M "P -4 C 2"
_symmetry_group_IT_number 116
_symmetry_cell_setting 'tetragonal'
loop_
_space_group_symop_operation_xyz
x,y,z
y,-x,-z
-x,-y,z
-y,x,-z
y,x,1/2-z
-y,-x,1/2-z
-x,y,1/2+z
x,-y,1/2+z
loop_
_atom_site_type_symbol
_atom_site_label
_atom_site_fract_x
_atom_site_fract_y
_atom_site_fract_z
Si Si1 0.416610 0.799771 0.572475
Si Si2 0.965263 0.207685 0.577394
Si Si3 0.586852 0.731129 0.757886
Si Si4 0.000000 0.000000 0.000000
Si Si5 0.306241 0.087877 0.711481
Si Si6 0.773823 0.773823 0.250000
Si Si7 0.000000 0.500000 0.858499
O O1 0.491559 0.749013 0.673896
O O2 0.422415 0.760049 0.417912
O O3 0.314093 0.780780 0.642113
O O4 0.453817 0.909334 0.564303
O O5 0.951773 0.249193 0.422083
O O6 0.872018 0.234050 0.664685
O O7 0.973418 0.094631 0.581808
O O8 0.058990 0.249258 0.650989
O O9 0.625567 0.625567 0.750000
O O10 0.666604 0.802550 0.693492
O O11 0.409601 0.038913 0.724687
#
# Coordination Sequence:
#
# PCOD9557832 Si02
#       7
#     8   8   8   2   8   4   4
#     4  11  26  45  79 109 153 195 253 321 386 466
#     4  12  27  47  68 104 145 205 250 318 370 470
#     4  11  27  47  75 112 149 193 248 314 387 462
#     4  12  32  46  68 102 156 210 272 294 380 470
#     4  11  25  42  75 103 147 188 249 312 388 443
#     4  12  26  47  75 104 148 200 252 316 402 458
#     4  10  22  44  68 116 140 186 250 318 386 440
#
# _framework density 22.090502999999998
#
# number of rings (size 3 to 8) (size 9 to 14) (size 15 to 20)
#    0.000    0.762    1.905    3.429   13.333    6.476 
#    0.000    0.476    0.000    0.000    0.000    0.000 
#    0.000    0.000    0.000    0.000    0.000    0.000 
#
# Total GULP energy -234987.877473 kJ/mol
# GULP energy per Si atom -5594.949464 kJ/mol
# Density = 2.204022 g / cm^3
# Si number density = 22.090503 Si / 1000 Ang^3
#
#
#
# Elastic Constant Matrix: (Units=GPa)
#
#
# Indices 1 2 3 4 5 6 
#
# 1 72.1853 7.3827 12.6655 0.0000 0.0000 0.0000
# 2 7.3827 72.1853 12.6655 0.0000 0.0000 0.0000
# 3 12.6655 12.6655 98.0213 0.0000 0.0000 0.0000
# 4 0.0000 0.0000 0.0000 -5.6594 0.0000 0.0000
# 5 0.0000 0.0000 0.0000 0.0000 -5.6594 0.0000
# 6 0.0000 0.0000 0.0000 0.0000 0.0000 42.2352
#
#
#
# Elastic Compliance Matrix: (Units=1/GPa)
#
#
# Indices 1 2 3 4 5 6 
#
# 1 0.014269 -0.001162 -0.001694 0.000000 0.000000 0.000000
# 2 -0.001162 0.014269 -0.001694 0.000000 0.000000 0.000000
# 3 -0.001694 -0.001694 0.010640 0.000000 0.000000 0.000000
# 4 0.000000 0.000000 0.000000 -0.176697 0.000000 0.000000
# 5 0.000000 0.000000 0.000000 0.000000 -0.176697 0.000000
# 6 0.000000 0.000000 0.000000 0.000000 0.000000 0.023677
#
#
# Mechanical properties :
#
#
# Convention : Reuss Voigt Hill
#
# Bulk Modulus (GPa) = 33.24549 34.20214 33.72381
# Shear Modulus (GPa) = -18.42203 20.16181 0.86989
#
# Velocity S-wave (km/s) = -2.89093 3.02436 0.62820
# Velocity P-wave (km/s) = 1.98471 5.26422 3.97813
#
# Compressibility (1/GPa) = 0.03007927
#
# Stress axis : x y z
#
# Youngs Moduli (GPa) = 70.08071 70.08071 93.98909
#
# Poissons Ratio (x) = 0.08145 0.15918
# Poissons Ratio (y) = 0.08145 0.15918
# Poissons Ratio (z) = 0.11869 0.11869
#
# Static dielectric constant tensor:
#      x y z
#    x 1.847460 0.000000 0.000000 
#    y 0.000000 1.847460 0.000000 
#    z 0.000000 0.000000 1.785240 
# 
# From -- ./inp_files/873.got.cif
#   From: 2010.05.17/outbox.cif.g08.bks.cpg/sg116_1_cif.got.tgz:873.got - 2010.05.20 11:11:43.
