data_PCOD9557079
_publ_section_title
;
Structure prediction by ZEFSAII (Michael W. Deem and Ramdas Pophale) SiO2 
 PCOD9557079
Probable space group: P -4 M 2
;
_chemical_formula_sum "Si O2"
_cell_formula_units_Z 37
_cell_length_a 11.190488
_cell_length_b 11.190488
_cell_length_c 16.880046
_cell_angle_alpha 90.000000
_cell_angle_beta 90.000000
_cell_angle_gamma 90.000000
_cell_volume 2113.837886
_symmetry_space_group_name_H-M "P -4 M 2"
_symmetry_group_IT_number 115
_symmetry_cell_setting 'tetragonal'
loop_
_space_group_symop_operation_xyz
x,y,z
y,-x,-z
-x,-y,z
-y,x,-z
y,x,-z
-y,-x,-z
-x,y,z
x,-y,z
loop_
_atom_site_type_symbol
_atom_site_label
_atom_site_fract_x
_atom_site_fract_y
_atom_site_fract_z
Si Si1 0.358745 0.358745 0.500000
Si Si2 0.136338 0.299457 0.202120
Si Si3 0.500000 0.500000 0.000000
Si Si4 0.257220 0.500000 0.102263
Si Si5 0.500000 0.140230 0.064878
Si Si6 0.858639 0.240058 0.917622
Si Si7 0.358028 0.862879 0.620527
O O1 0.347566 0.500000 0.526467
O O2 0.251004 0.339785 0.436805
O O3 0.226256 0.388825 0.158068
O O4 0.155829 0.177941 0.154297
O O5 0.156776 0.293056 0.295654
O O6 0.000000 0.342254 0.191147
O O7 0.384253 0.500000 0.057485
O O8 0.165097 0.500000 0.028746
O O9 0.375224 0.186228 0.098016
O O10 0.500000 0.000000 0.079631
O O11 0.000000 0.241604 0.928826
O O12 0.801509 0.198492 0.000000
O O13 0.500000 0.864476 0.638167
O O14 0.329055 0.000000 0.591708
#
# Coordination Sequence:
#
# PCOD9557079 Si02
#       7
#     4   8   1   4   4   8   8
#     4   9  18  36  60  89 120 144 174 227 284 336
#     4  11  21  35  56  79 105 141 186 233 274 326
#     4  12  28  36  44  76 120 150 184 252 292 328
#     4  12  20  36  52  74 104 141 187 230 284 323
#     4  10  20  36  54  70  97 142 190 234 276 330
#     4  11  22  35  52  74 104 144 190 236 281 326
#     4   9  18  35  59  86 112 144 185 224 270 341
#
# _framework density 17.503706999999999
#
# number of rings (size 3 to 8) (size 9 to 14) (size 15 to 20)
#    0.000    1.622    3.243    2.919    0.000    1.514 
#    3.892    1.081    0.000    1.622    0.000    0.000 
#    0.000    0.000    0.000    0.000    0.000    0.000 
#
# Total GULP energy -206045.902339 kJ/mol
# GULP energy per Si atom -5568.808171 kJ/mol
# Density = 1.746387 g / cm^3
# Si number density = 17.503707 Si / 1000 Ang^3
#
#
#
# Elastic Constant Matrix: (Units=GPa)
#
#
# Indices 1 2 3 4 5 6 
#
# 1 83.3030 59.5716 49.9611 0.0000 0.0000 0.0000
# 2 59.5716 83.3021 49.9609 0.0000 0.0000 0.0000
# 3 49.9611 49.9609 84.2277 0.0000 0.0000 0.0000
# 4 0.0000 0.0000 0.0000 17.5066 0.0000 0.0000
# 5 0.0000 0.0000 0.0000 0.0000 17.5061 0.0000
# 6 0.0000 0.0000 0.0000 0.0000 0.0000 18.8680
#
#
#
# Elastic Compliance Matrix: (Units=1/GPa)
#
#
# Indices 1 2 3 4 5 6 
#
# 1 0.027050 -0.015089 -0.007095 0.000000 0.000000 0.000000
# 2 -0.015089 0.027050 -0.007095 0.000000 0.000000 0.000000
# 3 -0.007095 -0.007095 0.020290 0.000000 0.000000 0.000000
# 4 0.000000 0.000000 0.000000 0.057121 0.000000 0.000000
# 5 0.000000 0.000000 0.000000 0.000000 0.057123 0.000000
# 6 0.000000 0.000000 0.000000 0.000000 0.000000 0.053000
#
#
# Mechanical properties :
#
#
# Convention : Reuss Voigt Hill
#
# Bulk Modulus (GPa) = 63.16297 63.31334 63.23816
# Shear Modulus (GPa) = 16.36827 16.86541 16.61684
#
# Velocity S-wave (km/s) = 3.06131 3.10745 3.08447
# Velocity P-wave (km/s) = 6.97562 7.00892 6.99229
#
# Compressibility (1/GPa) = 0.01583206
#
# Stress axis : x y z
#
# Youngs Moduli (GPa) = 36.96861 36.96821 49.28644
#
# Poissons Ratio (x) = 0.55781 0.34968
# Poissons Ratio (y) = 0.55782 0.34969
# Poissons Ratio (z) = 0.26229 0.26229
#
# Static dielectric constant tensor:
#      x y z
#    x 1.636780 0.000000 0.000000 
#    y 0.000000 1.636780 0.000000 
#    z 0.000000 0.000000 1.551390 
# 
# From -- ./inp_files/3673.got.cif
#   From: 2010.05.17/outbox.cif.g08.bks.cpg/sg115_2_cif.got.tgz:3673.got - 2010.05.20 11:07:42.
