data_PCOD9557472
_publ_section_title
;
Structure prediction by ZEFSAII (Michael W. Deem and Ramdas Pophale) SiO2 
 PCOD9557472
Probable space group: P -4 M 2
;
_chemical_formula_sum "Si O2"
_cell_formula_units_Z 48
_cell_length_a 9.300586
_cell_length_b 9.300586
_cell_length_c 32.182365
_cell_angle_alpha 90.000000
_cell_angle_beta 90.000000
_cell_angle_gamma 90.000000
_cell_volume 2783.803535
_symmetry_space_group_name_H-M "P -4 M 2"
_symmetry_group_IT_number 115
_symmetry_cell_setting 'tetragonal'
loop_
_space_group_symop_operation_xyz
x,y,z
y,-x,-z
-x,-y,z
-y,x,-z
y,x,-z
-y,-x,-z
-x,y,z
x,-y,z
loop_
_atom_site_type_symbol
_atom_site_label
_atom_site_fract_x
_atom_site_fract_y
_atom_site_fract_z
Si Si1 0.671425 0.328843 0.833260
Si Si2 0.671344 0.328657 0.000000
Si Si3 0.324879 0.165496 0.083345
Si Si4 0.169910 0.327876 0.415803
Si Si5 0.675431 0.665601 0.667350
Si Si6 0.165552 0.324661 0.250339
Si Si7 0.170881 0.829120 0.500000
O O1 0.500000 0.308113 0.838938
O O2 0.694799 0.500000 0.827440
O O3 0.753337 0.280377 0.874687
O O4 0.718398 0.245355 0.791964
O O5 0.719971 0.246792 0.041425
O O6 0.500000 0.306463 0.994508
O O7 0.500000 0.168705 0.083310
O O8 0.279185 0.000000 0.083336
O O9 0.185920 0.500000 0.420057
O O10 0.256923 0.280069 0.375200
O O11 0.217253 0.252163 0.458293
O O12 0.000000 0.298054 0.409676
O O13 0.500000 0.667752 0.667646
O O14 0.720756 0.500000 0.668633
O O15 0.723043 0.750830 0.708371
O O16 0.167201 0.500000 0.250795
O O17 0.000000 0.278787 0.250959
O O18 0.000000 0.805411 0.505158
#
# Coordination Sequence:
#
# PCOD9557472 Si02
#       7
#     8   4   8   8   8   8   4
#     4   9  16  27  45  68  91 115 146 184 223 263
#     4   9  16  28  48  71  92 116 150 189 224 262
#     4   9  17  29  46  68  92 118 148 183 224 267
#     4   9  17  29  45  65  89 117 148 182 221 264
#     4   9  16  26  42  66  94 120 146 181 226 270
#     4   9  16  26  42  65  92 120 150 185 224 265
#     4   9  18  32  48  65  88 120 154 185 220 264
#
# _framework density 17.242595000000001
#
# number of rings (size 3 to 8) (size 9 to 14) (size 15 to 20)
#    0.000    3.000    0.000    1.500    0.000    6.667 
#    0.000    0.833    0.000    6.750    0.000    0.000 
#    0.000    0.000    0.000    0.000    0.000    0.000 
#
# Total GULP energy -267494.747131 kJ/mol
# GULP energy per Si atom -5572.807232 kJ/mol
# Density = 1.720335 g / cm^3
# Si number density = 17.242595 Si / 1000 Ang^3
#
#
#
# Elastic Constant Matrix: (Units=GPa)
#
#
# Indices 1 2 3 4 5 6 
#
# 1 49.7167 35.7278 76.7505 0.0000 0.0000 0.0000
# 2 35.7278 49.7173 76.7504 0.0000 0.0000 0.0000
# 3 76.7505 76.7504 230.4661 0.0000 0.0000 0.0000
# 4 0.0000 0.0000 0.0000 -8.5486 0.0000 0.0000
# 5 0.0000 0.0000 0.0000 0.0000 -8.5464 0.0000
# 6 0.0000 0.0000 0.0000 0.0000 0.0000 8.2484
#
#
#
# Elastic Compliance Matrix: (Units=1/GPa)
#
#
# Indices 1 2 3 4 5 6 
#
# 1 0.050309 -0.021175 -0.009702 0.000000 0.000000 0.000000
# 2 -0.021175 0.050308 -0.009702 0.000000 0.000000 0.000000
# 3 -0.009702 -0.009702 0.010801 0.000000 0.000000 0.000000
# 4 0.000000 0.000000 0.000000 -0.116978 0.000000 0.000000
# 5 0.000000 0.000000 0.000000 0.000000 -0.117009 0.000000
# 6 0.000000 0.000000 0.000000 0.000000 0.000000 0.121235
#
#
# Mechanical properties :
#
#
# Convention : Reuss Voigt Hill
#
# Bulk Modulus (GPa) = 33.04799 78.70638 55.87718
# Shear Modulus (GPa) = 55.61084 7.60878 31.60981
#
# Velocity S-wave (km/s) = 5.68525 2.10294 4.28628
# Velocity P-wave (km/s) = 7.89330 7.18624 7.54805
#
# Compressibility (1/GPa) = 0.03025903
#
# Stress axis : x y z
#
# Youngs Moduli (GPa) = 19.87723 19.87772 92.58454
#
# Poissons Ratio (x) = 0.42092 0.89827
# Poissons Ratio (y) = 0.42091 0.89823
# Poissons Ratio (z) = 0.19285 0.19285
#
# Static dielectric constant tensor:
#      x y z
#    x 1.573080 0.000000 0.000000 
#    y 0.000000 1.573080 0.000000 
#    z 0.000000 0.000000 1.568100 
# 
# From -- ./inp_files/6189.got.cif
#   From: 2010.05.17/outbox.cif.g08.bks.cpg/sg115_4_cif.got.tgz:6189.got - 2010.05.20 11:07:42.
