data_PCOD9557876
_publ_section_title
;
Structure prediction by ZEFSAII (Michael W. Deem and Ramdas Pophale) SiO2 
 PCOD9557876
Probable space group: P -4 C 2
;
_chemical_formula_sum "Si O2"
_cell_formula_units_Z 20
_cell_length_a 5.174951
_cell_length_b 5.174951
_cell_length_c 28.645501
_cell_angle_alpha 90.000000
_cell_angle_beta 90.000000
_cell_angle_gamma 90.000000
_cell_volume 767.129893
_symmetry_space_group_name_H-M "P -4 C 2"
_symmetry_group_IT_number 116
_symmetry_cell_setting 'tetragonal'
loop_
_space_group_symop_operation_xyz
x,y,z
y,-x,-z
-x,-y,z
-y,x,-z
y,x,1/2-z
-y,-x,1/2-z
-x,y,1/2+z
x,-y,1/2+z
loop_
_atom_site_type_symbol
_atom_site_label
_atom_site_fract_x
_atom_site_fract_y
_atom_site_fract_z
Si Si1 0.500000 0.500000 0.750000
Si Si2 0.175930 0.244312 0.072063
Si Si3 0.181551 0.756437 0.679420
Si Si4 0.500000 0.500000 0.000000
O O1 0.427894 0.722633 0.712760
O O2 0.269017 0.226281 0.125586
O O3 0.000000 0.500000 0.069433
O O4 0.398575 0.281129 0.034633
O O5 0.000000 0.000000 0.062119
O O6 0.000000 0.500000 0.684650
O O7 0.000000 0.000000 0.690191
#
# Coordination Sequence:
#
# PCOD9557876 Si02
#       4
#     2   8   8   2
#     4  12  24  36  74 100 144 196 264 310 376 468
#     4  10  25  46  70 105 153 199 253 319 394 462
#     4  10  24  45  68 104 150 197 250 318 390 459
#     4  12  26  40  76 106 144 200 270 320 388 478
#
# _framework density 26.071207999999999
#
# number of rings (size 3 to 8) (size 9 to 14) (size 15 to 20)
#    0.000    1.600    0.000    1.800   11.200    0.000 
#    0.000   12.000    0.000    0.000    0.000    0.000 
#    0.000    0.000    0.000    0.000    0.000    0.000 
#
# Total GULP energy -112102.689887 kJ/mol
# GULP energy per Si atom -5605.134494 kJ/mol
# Density = 2.601187 g / cm^3
# Si number density = 26.071208 Si / 1000 Ang^3
#
#
#
# Elastic Constant Matrix: (Units=GPa)
#
#
# Indices 1 2 3 4 5 6 
#
# 1 167.0004 71.7581 79.6137 0.0000 0.0000 0.0000
# 2 71.7581 167.0004 79.6137 0.0000 0.0000 0.0000
# 3 79.6137 79.6137 213.6071 0.0000 0.0000 0.0000
# 4 0.0000 0.0000 0.0000 -30.5819 0.0000 0.0000
# 5 0.0000 0.0000 0.0000 0.0000 -30.5819 0.0000
# 6 0.0000 0.0000 0.0000 0.0000 0.0000 39.9645
#
#
#
# Elastic Compliance Matrix: (Units=1/GPa)
#
#
# Indices 1 2 3 4 5 6 
#
# 1 0.008037 -0.002463 -0.002077 0.000000 0.000000 0.000000
# 2 -0.002463 0.008037 -0.002077 0.000000 0.000000 0.000000
# 3 -0.002077 -0.002077 0.006230 0.000000 0.000000 0.000000
# 4 0.000000 0.000000 0.000000 -0.032699 0.000000 0.000000
# 5 0.000000 0.000000 0.000000 0.000000 -0.032699 0.000000
# 6 0.000000 0.000000 0.000000 0.000000 0.000000 0.025022
#
#
# Mechanical properties :
#
#
# Convention : Reuss Voigt Hill
#
# Bulk Modulus (GPa) = 110.27872 112.17543 111.22707
# Shear Modulus (GPa) = -2755.30818 16.86831 -1369.21993
#
# Velocity S-wave (km/s) = -32.54434 2.54640 -22.94177
# Velocity P-wave (km/s) = 37.01064 7.19482 25.67121
#
# Compressibility (1/GPa) = 0.00906793
#
# Stress axis : x y z
#
# Youngs Moduli (GPa) = 124.43010 124.43010 160.51292
#
# Poissons Ratio (x) = 0.30646 0.33345
# Poissons Ratio (y) = 0.30646 0.33345
# Poissons Ratio (z) = 0.25849 0.25849
#
# Static dielectric constant tensor:
#      x y z
#    x 1.735120 0.000000 0.000000 
#    y 0.000000 1.735120 0.000000 
#    z 0.000000 0.000000 2.010200 
# 
# From -- ./inp_files/4708.got.cif
#   From: 2010.05.17/outbox.cif.g08.bks.cpg/sg116_3_cif.got.tgz:4708.got - 2010.05.20 11:11:43.
