data_PCOD9557789
_publ_section_title
;
Structure prediction by ZEFSAII (Michael W. Deem and Ramdas Pophale) SiO2 
 PCOD9557789
Probable space group: P -4 C 2
;
_chemical_formula_sum "Si O2"
_cell_formula_units_Z 30
_cell_length_a 11.111334
_cell_length_b 11.111334
_cell_length_c 9.214368
_cell_angle_alpha 90.000000
_cell_angle_beta 90.000000
_cell_angle_gamma 90.000000
_cell_volume 1137.621936
_symmetry_space_group_name_H-M "P -4 C 2"
_symmetry_group_IT_number 116
_symmetry_cell_setting 'tetragonal'
loop_
_space_group_symop_operation_xyz
x,y,z
y,-x,-z
-x,-y,z
-y,x,-z
y,x,1/2-z
-y,-x,1/2-z
-x,y,1/2+z
x,-y,1/2+z
loop_
_atom_site_type_symbol
_atom_site_label
_atom_site_fract_x
_atom_site_fract_y
_atom_site_fract_z
Si Si1 0.730263 0.730263 0.250000
Si Si2 0.000000 0.000000 0.250000
Si Si3 0.439549 0.308411 0.018779
Si Si4 0.235764 0.026407 0.080869
Si Si5 0.080135 0.382309 0.677608
O O1 0.592622 0.730534 0.184482
O O2 0.766410 0.832495 0.130702
O O3 0.889128 0.015848 0.141054
O O4 0.353168 0.423652 0.992017
O O5 0.408248 0.206114 0.901499
O O6 0.337357 0.942857 0.159640
O O7 0.273218 0.022442 0.914994
O O8 0.000000 0.500000 0.657663
#
# Coordination Sequence:
#
# PCOD9557789 Si02
#       5
#     4   2   8   8   8
#     4   9  20  42  60  85 126 156 196 259 312 352
#     4  10  24  42  64  96 132 162 212 264 320 386
#     4  10  22  39  61  87 118 158 204 253 306 366
#     4  10  23  40  65  92 124 166 205 257 314 373
#     4  11  23  42  64  91 125 165 210 255 313 378
#
# _framework density 26.370801
#
# number of rings (size 3 to 8) (size 9 to 14) (size 15 to 20)
#    0.000    1.867    0.000    2.400    0.000   13.867 
#    0.000    2.667    0.000    0.000    0.000    0.000 
#    0.000    0.000    0.000    0.000    0.000    0.000 
#
# Total GULP energy -167171.139255 kJ/mol
# GULP energy per Si atom -5572.371308 kJ/mol
# Density = 2.631078 g / cm^3
# Si number density = 26.370801 Si / 1000 Ang^3
#
#
#
# Elastic Constant Matrix: (Units=GPa)
#
#
# Indices 1 2 3 4 5 6 
#
# 1 104.6620 66.6595 11.4321 0.0000 0.0000 0.0000
# 2 66.6595 104.6620 11.4321 0.0000 0.0000 0.0000
# 3 11.4321 11.4321 76.6153 0.0000 0.0000 0.0000
# 4 0.0000 0.0000 0.0000 16.0060 0.0000 0.0000
# 5 0.0000 0.0000 0.0000 0.0000 16.0060 0.0000
# 6 0.0000 0.0000 0.0000 0.0000 0.0000 36.2499
#
#
#
# Elastic Compliance Matrix: (Units=1/GPa)
#
#
# Indices 1 2 3 4 5 6 
#
# 1 0.016135 -0.010179 -0.000889 0.000000 0.000000 0.000000
# 2 -0.010179 0.016135 -0.000889 0.000000 0.000000 0.000000
# 3 -0.000889 -0.000889 0.013317 0.000000 0.000000 0.000000
# 4 0.000000 0.000000 0.000000 0.062476 0.000000 0.000000
# 5 0.000000 0.000000 0.000000 0.000000 0.062476 0.000000
# 6 0.000000 0.000000 0.000000 0.000000 0.000000 0.027586
#
#
# Mechanical properties :
#
#
# Convention : Reuss Voigt Hill
#
# Bulk Modulus (GPa) = 46.13835 51.66519 48.90177
# Shear Modulus (GPa) = 21.80892 26.74676 24.27784
#
# Velocity S-wave (km/s) = 2.87890 3.18819 3.03749
# Velocity P-wave (km/s) = 5.34647 5.76083 5.55751
#
# Compressibility (1/GPa) = 0.02167395
#
# Stress axis : x y z
#
# Youngs Moduli (GPa) = 61.97778 61.97778 75.08956
#
# Poissons Ratio (x) = 0.63089 0.06673
# Poissons Ratio (y) = 0.63089 0.06673
# Poissons Ratio (z) = 0.05508 0.05508
#
# Static dielectric constant tensor:
#      x y z
#    x 2.104260 0.000000 0.000000 
#    y 0.000000 2.104260 0.000000 
#    z 0.000000 0.000000 2.048770 
# 
# From -- ./inp_files/1513.got.cif
#   From: 2010.05.17/outbox.cif.g08.bks.cpg/sg116_1_cif.got.tgz:1513.got - 2010.05.20 11:11:43.
