data_PCOD9557911
_publ_section_title
;
Structure prediction by ZEFSAII (Michael W. Deem and Ramdas Pophale) SiO2 
 PCOD9557911
Probable space group: P -4 C 2
;
_chemical_formula_sum "Si O2"
_cell_formula_units_Z 18
_cell_length_a 9.450779
_cell_length_b 9.450779
_cell_length_c 8.068505
_cell_angle_alpha 90.000000
_cell_angle_beta 90.000000
_cell_angle_gamma 90.000000
_cell_volume 720.656466
_symmetry_space_group_name_H-M "P -4 C 2"
_symmetry_group_IT_number 116
_symmetry_cell_setting 'tetragonal'
loop_
_space_group_symop_operation_xyz
x,y,z
y,-x,-z
-x,-y,z
-y,x,-z
y,x,1/2-z
-y,-x,1/2-z
-x,y,1/2+z
x,-y,1/2+z
loop_
_atom_site_type_symbol
_atom_site_label
_atom_site_fract_x
_atom_site_fract_y
_atom_site_fract_z
Si Si1 0.673620 0.326381 0.250000
Si Si2 0.157965 0.441185 0.050521
Si Si3 0.000000 0.000000 0.500000
Si Si4 0.831567 0.831567 0.250000
O O1 0.717908 0.451545 0.115626
O O2 0.795617 0.358920 0.383730
O O3 0.147466 0.326558 0.194912
O O4 0.000000 0.500000 0.028326
O O5 0.873102 0.060778 0.606456
#
# Coordination Sequence:
#
# PCOD9557911 Si02
#       4
#     4   8   2   4
#     4  12  30  53  80 125 170 224 306 345 448 531
#     4  12  30  53  87 126 177 234 290 373 442 531
#     4  10  28  50  84 130 176 222 292 358 440 546
#     4  11  28  51  86 128 172 231 290 361 446 534
#
# _framework density 24.977229000000001
#
# number of rings (size 3 to 8) (size 9 to 14) (size 15 to 20)
#    0.000    0.444    0.000    4.000   18.667    7.111 
#    0.000    0.000    0.000    0.000    0.000    0.000 
#    0.000    0.000    0.000    0.000    0.000    0.000 
#
# Total GULP energy -100503.237547 kJ/mol
# GULP energy per Si atom -5583.513197 kJ/mol
# Density = 2.492038 g / cm^3
# Si number density = 24.977229 Si / 1000 Ang^3
#
#
#
# Elastic Constant Matrix: (Units=GPa)
#
#
# Indices 1 2 3 4 5 6 
#
# 1 138.0329 120.2987 72.7888 0.0000 0.0000 0.0000
# 2 120.2987 138.0318 72.7887 0.0000 0.0000 0.0000
# 3 72.7888 72.7887 108.3310 0.0000 0.0000 0.0000
# 4 0.0000 0.0000 0.0000 19.4902 0.0000 0.0000
# 5 0.0000 0.0000 0.0000 0.0000 19.4904 0.0000
# 6 0.0000 0.0000 0.0000 0.0000 0.0000 71.5192
#
#
#
# Elastic Compliance Matrix: (Units=1/GPa)
#
#
# Indices 1 2 3 4 5 6 
#
# 1 0.031310 -0.025080 -0.004186 0.000000 0.000000 0.000000
# 2 -0.025080 0.031310 -0.004186 0.000000 0.000000 0.000000
# 3 -0.004186 -0.004186 0.014856 0.000000 0.000000 0.000000
# 4 0.000000 0.000000 0.000000 0.051308 0.000000 0.000000
# 5 0.000000 0.000000 0.000000 0.000000 0.051307 0.000000
# 6 0.000000 0.000000 0.000000 0.000000 0.000000 0.013982
#
#
# Mechanical properties :
#
#
# Convention : Reuss Voigt Hill
#
# Bulk Modulus (GPa) = 94.58791 101.79423 98.19107
# Shear Modulus (GPa) = 18.90351 30.00126 24.45239
#
# Velocity S-wave (km/s) = 2.75404 3.46951 3.13227
# Velocity P-wave (km/s) = 6.93288 7.54277 7.24424
#
# Compressibility (1/GPa) = 0.01057218
#
# Stress axis : x y z
#
# Youngs Moduli (GPa) = 31.93897 31.93863 67.31233
#
# Poissons Ratio (x) = 0.80102 0.28176
# Poissons Ratio (y) = 0.80103 0.28177
# Poissons Ratio (z) = 0.13369 0.13370
#
# Static dielectric constant tensor:
#      x y z
#    x 1.988780 0.000000 0.000000 
#    y 0.000000 1.988780 0.000000 
#    z 0.000000 0.000000 2.059930 
# 
# From -- ./inp_files/369.got.cif
#   From: 2010.05.17/outbox.cif.g08.bks.cpg/sg116_1_cif.got.tgz:369.got - 2010.05.20 11:11:43.
