data_PCOD9557122
_publ_section_title
;
Structure prediction by ZEFSAII (Michael W. Deem and Ramdas Pophale) SiO2 
 PCOD9557122
Probable space group: P -4 M 2
;
_chemical_formula_sum "Si O2"
_cell_formula_units_Z 25
_cell_length_a 10.976304
_cell_length_b 10.976304
_cell_length_c 9.247400
_cell_angle_alpha 90.000000
_cell_angle_beta 90.000000
_cell_angle_gamma 90.000000
_cell_volume 1114.119812
_symmetry_space_group_name_H-M "P -4 M 2"
_symmetry_group_IT_number 115
_symmetry_cell_setting 'tetragonal'
loop_
_space_group_symop_operation_xyz
x,y,z
y,-x,-z
-x,-y,z
-y,x,-z
y,x,-z
-y,-x,-z
-x,y,z
x,-y,z
loop_
_atom_site_type_symbol
_atom_site_label
_atom_site_fract_x
_atom_site_fract_y
_atom_site_fract_z
Si Si1 0.760096 0.857627 0.146501
Si Si2 0.758716 0.500000 0.178029
Si Si3 0.500000 0.858772 0.141408
Si Si4 0.500000 0.500000 0.000000
Si Si5 0.860104 0.719456 0.376847
O O1 0.627607 0.810466 0.198492
O O2 0.861039 0.830792 0.263779
O O3 0.751086 0.000000 0.115283
O O4 0.789733 0.789733 0.000000
O O5 0.621432 0.500000 0.105282
O O6 0.799093 0.612614 0.280426
O O7 0.840725 0.500000 0.031973
O O8 0.500000 0.000000 0.179219
O O9 0.770129 0.770129 0.500000
O O10 0.000000 0.690073 0.422742
#
# Coordination Sequence:
#
# PCOD9557122 Si02
#       5
#     8   4   4   1   8
#     4  11  22  38  65  97 134 185 246 311 377 443
#     4  12  24  46  74 104 143 189 240 301 380 441
#     4  10  20  39  65  97 134 174 235 305 365 432
#     4  12  28  48  82 120 152 180 242 332 376 440
#     4  12  27  46  69 101 148 199 248 305 373 450
#
# _framework density 22.439240999999999
#
# number of rings (size 3 to 8) (size 9 to 14) (size 15 to 20)
#    0.000    0.640    3.200    5.280    0.000    6.400 
#    0.000    3.200    0.000    0.000    0.000    0.000 
#    0.000    0.000    0.000    0.000    0.000    0.000 
#
# Total GULP energy -139402.217070 kJ/mol
# GULP energy per Si atom -5576.088683 kJ/mol
# Density = 2.238817 g / cm^3
# Si number density = 22.439241 Si / 1000 Ang^3
#
#
#
# Elastic Constant Matrix: (Units=GPa)
#
#
# Indices 1 2 3 4 5 6 
#
# 1 125.1523 49.8593 23.7417 0.0000 0.0000 0.0000
# 2 49.8593 125.1523 23.7417 0.0000 0.0000 0.0000
# 3 23.7417 23.7417 74.2462 0.0000 0.0000 0.0000
# 4 0.0000 0.0000 0.0000 23.3501 0.0000 0.0000
# 5 0.0000 0.0000 0.0000 0.0000 23.3501 0.0000
# 6 0.0000 0.0000 0.0000 0.0000 0.0000 26.2076
#
#
#
# Elastic Compliance Matrix: (Units=1/GPa)
#
#
# Indices 1 2 3 4 5 6 
#
# 1 0.009769 -0.003512 -0.002001 0.000000 0.000000 0.000000
# 2 -0.003512 0.009769 -0.002001 0.000000 0.000000 0.000000
# 3 -0.002001 -0.002001 0.014748 0.000000 0.000000 0.000000
# 4 0.000000 0.000000 0.000000 0.042826 0.000000 0.000000
# 5 0.000000 0.000000 0.000000 0.000000 0.042826 0.000000
# 6 0.000000 0.000000 0.000000 0.000000 0.000000 0.038157
#
#
# Mechanical properties :
#
#
# Convention : Reuss Voigt Hill
#
# Bulk Modulus (GPa) = 51.92418 57.69290 54.80854
# Shear Modulus (GPa) = 27.84844 29.72877 28.78860
#
# Velocity S-wave (km/s) = 3.52669 3.64381 3.58573
# Velocity P-wave (km/s) = 6.30663 6.59315 6.45148
#
# Compressibility (1/GPa) = 0.01925885
#
# Stress axis : x y z
#
# Youngs Moduli (GPa) = 102.36375 102.36375 67.80476
#
# Poissons Ratio (x) = 0.35954 0.13566
# Poissons Ratio (y) = 0.35954 0.13566
# Poissons Ratio (z) = 0.20480 0.20480
#
# Static dielectric constant tensor:
#      x y z
#    x 1.884540 0.000000 0.000000 
#    y 0.000000 1.884540 0.000000 
#    z 0.000000 0.000000 1.792330 
# 
# From -- ./inp_files/1132.got.cif
#   From: 2010.05.17/outbox.cif.g08.bks.cpg/sg115_1_cif.got.tgz:1132.got - 2010.05.20 11:07:42.
