data_PCOD9557119
_publ_section_title
;
Structure prediction by ZEFSAII (Michael W. Deem and Ramdas Pophale) SiO2 
 PCOD9557119
Probable space group: P -4 M 2
;
_chemical_formula_sum "Si O2"
_cell_formula_units_Z 25
_cell_length_a 7.721017
_cell_length_b 7.721017
_cell_length_c 19.592108
_cell_angle_alpha 90.000000
_cell_angle_beta 90.000000
_cell_angle_gamma 90.000000
_cell_volume 1167.965954
_symmetry_space_group_name_H-M "P -4 M 2"
_symmetry_group_IT_number 115
_symmetry_cell_setting 'tetragonal'
loop_
_space_group_symop_operation_xyz
x,y,z
y,-x,-z
-x,-y,z
-y,x,-z
y,x,-z
-y,-x,-z
-x,y,z
x,-y,z
loop_
_atom_site_type_symbol
_atom_site_label
_atom_site_fract_x
_atom_site_fract_y
_atom_site_fract_z
Si Si1 0.791196 0.208805 0.500000
Si Si2 0.210198 0.796613 0.646864
Si Si3 0.800186 0.298441 0.797391
Si Si4 0.500000 0.500000 0.000000
Si Si5 0.186495 0.500000 0.104618
O O1 0.726997 0.274264 0.573548
O O2 0.000000 0.235074 0.498014
O O3 0.260840 0.714906 0.718591
O O4 0.000000 0.783864 0.644146
O O5 0.254595 0.000000 0.650725
O O6 0.800315 0.500000 0.816499
O O7 0.667405 0.204708 0.846804
O O8 0.000000 0.234536 0.800701
O O9 0.334992 0.500000 0.048916
O O10 0.000000 0.500000 0.070595
#
# Coordination Sequence:
#
# PCOD9557119 Si02
#       5
#     4   8   8   1   4
#     4   7  10  18  36  66 107 154 206 268 321 359
#     4   8  13  23  44  76 112 156 214 269 315 365
#     4  10  20  37  63  94 130 171 215 263 314 370
#     4  12  28  52  68 104 136 162 196 248 308 380
#     4  12  26  46  74 100 131 169 204 249 309 374
#
# _framework density 21.404736
#
# number of rings (size 3 to 8) (size 9 to 14) (size 15 to 20)
#    0.000    2.720    1.600    2.880    0.000    3.200 
#    0.000    0.000    3.520    0.000    0.000    0.000 
#    0.000    0.000    0.000    0.000    0.000    0.000 
#
# Total GULP energy -139463.329885 kJ/mol
# GULP energy per Si atom -5578.533195 kJ/mol
# Density = 2.135602 g / cm^3
# Si number density = 21.404736 Si / 1000 Ang^3
#
#
#
# Elastic Constant Matrix: (Units=GPa)
#
#
# Indices 1 2 3 4 5 6 
#
# 1 80.1417 21.0286 49.4591 0.0000 0.0000 0.0000
# 2 21.0286 80.1412 49.4591 0.0000 0.0000 0.0000
# 3 49.4591 49.4591 131.5036 0.0000 0.0000 0.0000
# 4 0.0000 0.0000 0.0000 20.6177 0.0000 0.0000
# 5 0.0000 0.0000 0.0000 0.0000 20.6178 0.0000
# 6 0.0000 0.0000 0.0000 0.0000 0.0000 0.1083
#
#
#
# Elastic Compliance Matrix: (Units=1/GPa)
#
#
# Indices 1 2 3 4 5 6 
#
# 1 0.016275 -0.000642 -0.005880 0.000000 0.000000 0.000000
# 2 -0.000642 0.016275 -0.005880 0.000000 0.000000 0.000000
# 3 -0.005880 -0.005880 0.012027 0.000000 0.000000 0.000000
# 4 0.000000 0.000000 0.000000 0.048502 0.000000 0.000000
# 5 0.000000 0.000000 0.000000 0.000000 0.048502 0.000000
# 6 0.000000 0.000000 0.000000 0.000000 0.000000 9.233954
#
#
# Mechanical properties :
#
#
# Convention : Reuss Voigt Hill
#
# Bulk Modulus (GPa) = 50.56978 59.07556 54.82267
# Shear Modulus (GPa) = 0.53152 19.72476 10.12814
#
# Velocity S-wave (km/s) = 0.49886 3.03894 2.17761
# Velocity P-wave (km/s) = 4.89986 6.32240 5.65603
#
# Compressibility (1/GPa) = 0.01977465
#
# Stress axis : x y z
#
# Youngs Moduli (GPa) = 61.44422 61.44374 83.14543
#
# Poissons Ratio (x) = 0.03943 0.48887
# Poissons Ratio (y) = 0.03944 0.48887
# Poissons Ratio (z) = 0.36127 0.36127
#
# Static dielectric constant tensor:
#      x y z
#    x 1.782150 0.000000 0.000000 
#    y 0.000000 1.782150 0.000000 
#    z 0.000000 0.000000 1.773600 
# 
# From -- ./inp_files/3986.got.cif
#   From: 2010.05.17/outbox.cif.g08.bks.cpg/sg115_2_cif.got.tgz:3986.got - 2010.05.20 11:07:42.
