data_PCOD9557882
_publ_section_title
;
Structure prediction by ZEFSAII (Michael W. Deem and Ramdas Pophale) SiO2 
 PCOD9557882
Probable space group: P -4 C 2
;
_chemical_formula_sum "Si O2"
_cell_formula_units_Z 40
_cell_length_a 13.762291
_cell_length_b 13.762291
_cell_length_c 9.402768
_cell_angle_alpha 90.000000
_cell_angle_beta 90.000000
_cell_angle_gamma 90.000000
_cell_volume 1780.890405
_symmetry_space_group_name_H-M "P -4 C 2"
_symmetry_group_IT_number 116
_symmetry_cell_setting 'tetragonal'
loop_
_space_group_symop_operation_xyz
x,y,z
y,-x,-z
-x,-y,z
-y,x,-z
y,x,1/2-z
-y,-x,1/2-z
-x,y,1/2+z
x,-y,1/2+z
loop_
_atom_site_type_symbol
_atom_site_label
_atom_site_fract_x
_atom_site_fract_y
_atom_site_fract_z
Si Si1 0.928410 0.199208 0.532978
Si Si2 0.000000 0.500000 0.651469
Si Si3 0.500000 0.500000 0.500000
Si Si4 0.801919 0.198082 0.250000
Si Si5 0.358028 0.169720 0.267563
Si Si6 0.389704 0.389704 0.250000
Si Si7 0.000000 0.000000 0.500000
Si Si8 0.329772 0.119169 0.962794
O O1 0.881278 0.191355 0.375854
O O2 0.863664 0.269528 0.631154
O O3 0.950118 0.089510 0.583061
O O4 0.031441 0.253168 0.526001
O O5 0.077263 0.568812 0.730716
O O6 0.068759 0.431959 0.559134
O O7 0.422544 0.452133 0.388745
O O8 0.817675 0.299981 0.172611
O O9 0.401643 0.276049 0.296535
O O10 0.324502 0.178279 0.105636
#
# Coordination Sequence:
#
# PCOD9557882 Si02
#       8
#     8   4   2   4   8   4   2   8
#     4  11  24  45  66 100 150 196 255 285 353 428
#     4  10  24  46  78 108 150 182 248 300 380 442
#     4  10  28  58  76 118 136 186 256 318 372 478
#     4  12  24  43  62 100 140 193 248 304 338 433
#     4  11  25  49  78 111 146 196 238 313 375 453
#     4  11  26  52  84 105 154 186 246 311 392 436
#     4  12  24  42  68  94 156 214 240 298 336 422
#     4  11  24  45  68 107 145 187 244 301 361 441
#
# _framework density 22.460674999999998
#
# number of rings (size 3 to 8) (size 9 to 14) (size 15 to 20)
#    0.000    1.000    2.000    4.200    2.800    2.000 
#    7.200    0.000    0.000    0.000    0.000    0.000 
#    0.000    0.000    0.000    0.000    0.000    0.000 
#
# Total GULP energy -223389.714923 kJ/mol
# GULP energy per Si atom -5584.742873 kJ/mol
# Density = 2.240955 g / cm^3
# Si number density = 22.460675 Si / 1000 Ang^3
#
#
#
# Elastic Constant Matrix: (Units=GPa)
#
#
# Indices 1 2 3 4 5 6 
#
# 1 114.9610 35.7462 42.3832 0.0000 0.0000 0.0000
# 2 35.7462 114.9616 42.3833 0.0000 0.0000 0.0000
# 3 42.3832 42.3833 140.0982 0.0000 0.0000 0.0000
# 4 0.0000 0.0000 0.0000 13.8891 0.0000 0.0000
# 5 0.0000 0.0000 0.0000 0.0000 13.8889 0.0000
# 6 0.0000 0.0000 0.0000 0.0000 0.0000 41.6741
#
#
#
# Elastic Compliance Matrix: (Units=1/GPa)
#
#
# Indices 1 2 3 4 5 6 
#
# 1 0.010310 -0.002314 -0.002419 0.000000 0.000000 0.000000
# 2 -0.002314 0.010310 -0.002419 0.000000 0.000000 0.000000
# 3 -0.002419 -0.002419 0.008601 0.000000 0.000000 0.000000
# 4 0.000000 0.000000 0.000000 0.071999 0.000000 0.000000
# 5 0.000000 0.000000 0.000000 0.000000 0.072000 0.000000
# 6 0.000000 0.000000 0.000000 0.000000 0.000000 0.023996
#
#
# Mechanical properties :
#
#
# Convention : Reuss Voigt Hill
#
# Bulk Modulus (GPa) = 67.03568 67.89404 67.46486
# Shear Modulus (GPa) = 23.09555 30.52430 26.80992
#
# Velocity S-wave (km/s) = 3.21014 3.69048 3.45866
# Velocity P-wave (km/s) = 6.60686 6.96082 6.78615
#
# Compressibility (1/GPa) = 0.01491743
#
# Stress axis : x y z
#
# Youngs Moduli (GPa) = 96.99392 96.99441 116.25944
#
# Poissons Ratio (x) = 0.22444 0.28123
# Poissons Ratio (y) = 0.22444 0.28123
# Poissons Ratio (z) = 0.23463 0.23463
#
# Static dielectric constant tensor:
#      x y z
#    x 1.853120 0.000000 0.000000 
#    y 0.000000 1.853120 0.000000 
#    z 0.000000 0.000000 1.796960 
# 
# From -- ./inp_files/884.got.cif
#   From: 2010.05.17/outbox.cif.g08.bks.cpg/sg116_1_cif.got.tgz:884.got - 2010.05.20 11:11:43.
