data_PCOD9557862
_publ_section_title
;
Structure prediction by ZEFSAII (Michael W. Deem and Ramdas Pophale) SiO2 
 PCOD9557862
Probable space group: P -4 C 2
;
_chemical_formula_sum "Si O2"
_cell_formula_units_Z 42
_cell_length_a 8.474950
_cell_length_b 8.474950
_cell_length_c 25.667386
_cell_angle_alpha 90.000000
_cell_angle_beta 90.000000
_cell_angle_gamma 90.000000
_cell_volume 1843.554289
_symmetry_space_group_name_H-M "P -4 C 2"
_symmetry_group_IT_number 116
_symmetry_cell_setting 'tetragonal'
loop_
_space_group_symop_operation_xyz
x,y,z
y,-x,-z
-x,-y,z
-y,x,-z
y,x,1/2-z
-y,-x,1/2-z
-x,y,1/2+z
x,-y,1/2+z
loop_
_atom_site_type_symbol
_atom_site_label
_atom_site_fract_x
_atom_site_fract_y
_atom_site_fract_z
Si Si1 0.247958 0.085581 0.492315
Si Si2 0.500000 0.500000 0.000000
Si Si3 0.198571 0.283209 0.901699
Si Si4 0.000000 0.000000 0.851457
Si Si5 0.748406 0.569503 0.089252
Si Si6 0.000000 0.500000 0.335115
Si Si7 0.754624 0.222941 0.692941
O O1 0.342693 0.150657 0.541171
O O2 0.342775 0.105569 0.439155
O O3 0.090587 0.192802 0.494619
O O4 0.619095 0.580170 0.042161
O O5 0.382786 0.242092 0.899201
O O6 0.083131 0.135884 0.886773
O O7 0.146470 0.427866 0.866267
O O8 0.857518 0.074706 0.817682
O O9 0.723729 0.661464 0.143872
O O10 0.068803 0.354156 0.305732
O O11 0.713933 0.286068 0.750000
#
# Coordination Sequence:
#
# PCOD9557862 Si02
#       7
#     8   2   8   4   8   4   8
#     4  11  23  40  63  97 141 187 238 293 354 432
#     4  12  24  48  58 104 140 188 236 294 380 444
#     4  11  23  44  69 101 137 182 234 292 364 433
#     4  10  23  46  73 100 142 188 248 300 358 430
#     4  12  25  42  70 100 145 188 239 301 361 447
#     4  10  24  46  72  94 140 190 224 298 364 426
#     4  11  25  46  72 106 142 189 248 299 361 433
#
# _framework density 22.782081000000002
#
# number of rings (size 3 to 8) (size 9 to 14) (size 15 to 20)
#    0.000    0.952    1.905    6.000    0.000    6.095 
#    0.000    6.190    0.000    0.000    0.000    0.000 
#    0.000    0.000    0.000    0.000    0.000    0.000 
#
# Total GULP energy -234325.040994 kJ/mol
# GULP energy per Si atom -5579.167643 kJ/mol
# Density = 2.273023 g / cm^3
# Si number density = 22.782081 Si / 1000 Ang^3
#
#
#
# Elastic Constant Matrix: (Units=GPa)
#
#
# Indices 1 2 3 4 5 6 
#
# 1 80.7641 18.6706 19.3435 0.0000 0.0000 0.0000
# 2 18.6706 80.7634 19.3430 0.0000 0.0000 0.0000
# 3 19.3435 19.3430 125.7283 0.0000 0.0000 0.0000
# 4 0.0000 0.0000 0.0000 -13.1957 0.0000 0.0000
# 5 0.0000 0.0000 0.0000 0.0000 -13.1976 0.0000
# 6 0.0000 0.0000 0.0000 0.0000 0.0000 29.8634
#
#
#
# Elastic Compliance Matrix: (Units=1/GPa)
#
#
# Indices 1 2 3 4 5 6 
#
# 1 0.013401 -0.002704 -0.001646 0.000000 0.000000 0.000000
# 2 -0.002704 0.013401 -0.001646 0.000000 0.000000 0.000000
# 3 -0.001646 -0.001646 0.008460 0.000000 0.000000 0.000000
# 4 0.000000 0.000000 0.000000 -0.075782 0.000000 0.000000
# 5 0.000000 0.000000 0.000000 0.000000 -0.075771 0.000000
# 6 0.000000 0.000000 0.000000 0.000000 0.000000 0.033486
#
#
# Mechanical properties :
#
#
# Convention : Reuss Voigt Hill
#
# Bulk Modulus (GPa) = 42.97117 44.66333 43.81725
# Shear Modulus (GPa) = -79.29239 16.02059 -31.63590
#
# Velocity S-wave (km/s) = -5.90595 2.65469 -3.73048
# Velocity P-wave (km/s) = 5.25398 5.38921 0.84834
#
# Compressibility (1/GPa) = 0.02327142
#
# Stress axis : x y z
#
# Youngs Moduli (GPa) = 74.62143 74.62094 118.20246
#
# Poissons Ratio (x) = 0.20176 0.19454
# Poissons Ratio (y) = 0.20176 0.19453
# Poissons Ratio (z) = 0.12281 0.12281
#
# Static dielectric constant tensor:
#      x y z
#    x 2.167030 0.000000 0.000000 
#    y 0.000000 2.166860 0.000000 
#    z 0.000000 0.000000 1.926110 
# 
# From -- ./inp_files/4913.got.cif
#   From: 2010.05.17/outbox.cif.g08.bks.cpg/sg116_3_cif.got.tgz:4913.got - 2010.05.20 11:11:43.
