data_PCOD9557271
_publ_section_title
;
Structure prediction by ZEFSAII (Michael W. Deem and Ramdas Pophale) SiO2 
 PCOD9557271
Probable space group: P -4 M 2
;
_chemical_formula_sum "Si O2"
_cell_formula_units_Z 40
_cell_length_a 9.074727
_cell_length_b 9.074727
_cell_length_c 26.363773
_cell_angle_alpha 90.000000
_cell_angle_beta 90.000000
_cell_angle_gamma 90.000000
_cell_volume 2171.074374
_symmetry_space_group_name_H-M "P -4 M 2"
_symmetry_group_IT_number 115
_symmetry_cell_setting 'tetragonal'
loop_
_space_group_symop_operation_xyz
x,y,z
y,-x,-z
-x,-y,z
-y,x,-z
y,x,-z
-y,-x,-z
-x,y,z
x,-y,z
loop_
_atom_site_type_symbol
_atom_site_label
_atom_site_fract_x
_atom_site_fract_y
_atom_site_fract_z
Si Si1 0.324878 0.175419 0.145883
Si Si2 0.324397 0.824391 0.951277
Si Si3 0.326346 0.323884 0.347372
Si Si4 0.676406 0.174384 0.757975
Si Si5 0.674642 0.174942 0.452162
O O1 0.500000 0.202732 0.143688
O O2 0.245510 0.255123 0.099109
O O3 0.258991 0.238684 0.197885
O O4 0.300746 0.000000 0.142738
O O5 0.500000 0.799210 0.952217
O O6 0.299115 0.000000 0.951927
O O7 0.249757 0.750244 0.000000
O O8 0.500000 0.290533 0.339436
O O9 0.312572 0.500000 0.354203
O O10 0.236520 0.281856 0.297291
O O11 0.276440 0.245018 0.398782
O O12 0.500000 0.198205 0.764131
O O13 0.703962 0.000000 0.761161
O O14 0.757391 0.242610 0.500000
O O15 0.500000 0.207459 0.457339
O O16 0.693824 0.000000 0.450625
#
# Coordination Sequence:
#
# PCOD9557271 Si02
#       5
#     8   8   8   8   8
#     4  11  24  40  59  85 116 151 192 235 279 330
#     4  11  24  41  62  89 119 151 190 234 280 333
#     4   9  18  34  56  80 108 145 187 229 274 327
#     4  10  21  37  58  85 115 147 185 229 278 333
#     4  10  21  36  55  80 110 144 183 228 277 330
#
# _framework density 18.424057999999999
#
# number of rings (size 3 to 8) (size 9 to 14) (size 15 to 20)
#    0.000    1.800    0.000    3.600    0.000   12.000 
#    0.000    4.000    0.000    0.000    0.000    0.000 
#    0.000    0.000    0.000    0.000    0.000    0.000 
#
# Total GULP energy -223572.984487 kJ/mol
# GULP energy per Si atom -5589.324612 kJ/mol
# Density = 1.838212 g / cm^3
# Si number density = 18.424058 Si / 1000 Ang^3
#
#
#
# Elastic Constant Matrix: (Units=GPa)
#
#
# Indices 1 2 3 4 5 6 
#
# 1 91.1631 86.4170 94.5087 0.0000 0.0000 0.0000
# 2 86.4170 91.1665 94.5111 0.0000 0.0000 0.0000
# 3 94.5087 94.5111 200.2993 0.0000 0.0000 0.0000
# 4 0.0000 0.0000 0.0000 269.2607 0.0000 0.0000
# 5 0.0000 0.0000 0.0000 0.0000 269.2737 0.0000
# 6 0.0000 0.0000 0.0000 0.0000 0.0000 27.1216
#
#
#
# Elastic Compliance Matrix: (Units=1/GPa)
#
#
# Indices 1 2 3 4 5 6 
#
# 1 0.110969 -0.099654 -0.005337 0.000000 0.000000 0.000000
# 2 -0.099654 0.110966 -0.005339 0.000000 0.000000 0.000000
# 3 -0.005337 -0.005339 0.010030 0.000000 0.000000 0.000000
# 4 0.000000 0.000000 0.000000 0.003714 0.000000 0.000000
# 5 0.000000 0.000000 0.000000 0.000000 0.003714 0.000000
# 6 0.000000 0.000000 0.000000 0.000000 0.000000 0.036871
#
#
# Mechanical properties :
#
#
# Convention : Reuss Voigt Hill
#
# Bulk Modulus (GPa) = 88.46403 103.72249 96.09326
# Shear Modulus (GPa) = 9.98618 120.27735 65.13176
#
# Velocity S-wave (km/s) = 2.33065 8.08854 5.95216
# Velocity P-wave (km/s) = 7.44059 11.98550 9.97533
#
# Compressibility (1/GPa) = 0.01130403
#
# Stress axis : x y z
#
# Youngs Moduli (GPa) = 9.01153 9.01177 99.70198
#
# Poissons Ratio (x) = 0.89806 0.53215
# Poissons Ratio (y) = 0.89804 0.53226
# Poissons Ratio (z) = 0.04810 0.04811
#
# Static dielectric constant tensor:
#      x y z
#    x 1.615040 0.000000 0.000000 
#    y 0.000000 1.615040 0.000000 
#    z 0.000000 0.000000 1.597630 
# 
# From -- ./inp_files/5069.got.cif
#   From: 2010.05.17/outbox.cif.g08.bks.cpg/sg115_3_cif.got.tgz:5069.got - 2010.05.20 11:07:42.
