data_PCOD9557333
_publ_section_title
;
Structure prediction by ZEFSAII (Michael W. Deem and Ramdas Pophale) SiO2 
 PCOD9557333
Probable space group: P -4 M 2
;
_chemical_formula_sum "Si O2"
_cell_formula_units_Z 48
_cell_length_a 8.175982
_cell_length_b 8.175982
_cell_length_c 35.252498
_cell_angle_alpha 90.000000
_cell_angle_beta 90.000000
_cell_angle_gamma 90.000000
_cell_volume 2356.512512
_symmetry_space_group_name_H-M "P -4 M 2"
_symmetry_group_IT_number 115
_symmetry_cell_setting 'tetragonal'
loop_
_space_group_symop_operation_xyz
x,y,z
y,-x,-z
-x,-y,z
-y,x,-z
y,x,-z
-y,-x,-z
-x,y,z
x,-y,z
loop_
_atom_site_type_symbol
_atom_site_label
_atom_site_fract_x
_atom_site_fract_y
_atom_site_fract_z
Si Si1 0.813232 0.310337 0.385790
Si Si2 0.198576 0.500000 0.742331
Si Si3 0.301328 0.500000 0.829469
Si Si4 0.807045 0.188021 0.695268
Si Si5 0.188233 0.198743 0.959252
Si Si6 0.186633 0.693849 0.123578
Si Si7 0.316010 0.813584 0.462534
O O1 0.811231 0.500000 0.375132
O O2 0.757151 0.215720 0.348472
O O3 0.723116 0.289481 0.425448
O O4 0.000000 0.257662 0.393215
O O5 0.249070 0.500000 0.785956
O O6 0.259076 0.666882 0.721833
O O7 0.000000 0.500000 0.739516
O O8 0.500000 0.500000 0.831818
O O9 0.241714 0.333479 0.850183
O O10 0.000000 0.176008 0.702923
O O11 0.740301 0.000000 0.699048
O O12 0.279193 0.235637 0.920348
O O13 0.000000 0.253204 0.955119
O O14 0.187051 0.000000 0.962387
O O15 0.256247 0.256247 0.000000
O O16 0.175967 0.500000 0.130319
O O17 0.000000 0.760973 0.129060
O O18 0.210225 0.789776 0.500000
O O19 0.500000 0.779600 0.475444
O O20 0.302902 0.000000 0.449589
#
# Coordination Sequence:
#
# PCOD9557333 Si02
#       7
#     8   4   4   8   8   8   8
#     4  10  21  37  58  85 114 144 182 227 274 331
#     4  10  22  38  58  84 112 140 182 234 278 334
#     4  10  22  38  54  76 108 142 182 226 276 338
#     4   9  19  37  59  83 114 148 180 224 282 339
#     4   8  14  27  48  73 101 133 172 220 270 318
#     4   9  18  34  53  72 102 142 180 221 273 333
#     4  11  24  39  56  80 111 148 190 233 277 328
#
# _framework density 20.369085999999999
#
# number of rings (size 3 to 8) (size 9 to 14) (size 15 to 20)
#    0.000    2.500    0.000    2.000    1.167    6.333 
#    1.500    0.000    0.000    0.000    0.000    0.000 
#    0.000    0.000    0.000    0.000    0.000    0.000 
#
# Total GULP energy -267507.006855 kJ/mol
# GULP energy per Si atom -5573.062643 kJ/mol
# Density = 2.032273 g / cm^3
# Si number density = 20.369086 Si / 1000 Ang^3
#
#
#
# Elastic Constant Matrix: (Units=GPa)
#
#
# Indices 1 2 3 4 5 6 
#
# 1 28.0024 35.9286 34.8528 0.0000 0.0000 0.0000
# 2 35.9286 28.0007 34.8528 0.0000 0.0000 0.0000
# 3 34.8528 34.8528 116.8162 0.0000 0.0000 0.0000
# 4 0.0000 0.0000 0.0000 37.7389 0.0000 0.0000
# 5 0.0000 0.0000 0.0000 0.0000 37.7389 0.0000
# 6 0.0000 0.0000 0.0000 0.0000 0.0000 9.7295
#
#
#
# Elastic Compliance Matrix: (Units=1/GPa)
#
#
# Indices 1 2 3 4 5 6 
#
# 1 -0.051481 0.074667 -0.006918 0.000000 0.000000 0.000000
# 2 0.074667 -0.051486 -0.006916 0.000000 0.000000 0.000000
# 3 -0.006918 -0.006916 0.012688 0.000000 0.000000 0.000000
# 4 0.000000 0.000000 0.000000 0.026498 0.000000 0.000000
# 5 0.000000 0.000000 0.000000 0.000000 0.026498 0.000000
# 6 0.000000 0.000000 0.000000 0.000000 0.000000 0.102780
#
#
# Mechanical properties :
#
#
# Convention : Reuss Voigt Hill
#
# Bulk Modulus (GPa) = 31.85962 42.67640 37.26801
# Shear Modulus (GPa) = -109.39412 21.52047 -43.93683
#
# Velocity S-wave (km/s) = -7.33638 3.25395 -4.64943
# Velocity P-wave (km/s) = 7.48921 5.92576 3.23834
#
# Compressibility (1/GPa) = 0.03138769
#
# Stress axis : x y z
#
# Youngs Moduli (GPa) = -19.42478 -19.42286 78.81477
#
# Poissons Ratio (x) = 1.45025 0.54523
# Poissons Ratio (y) = 1.45039 0.54511
# Poissons Ratio (z) = -0.13438 -0.13434
#
# Static dielectric constant tensor:
#      x y z
#    x 1.753910 0.000000 0.000000 
#    y 0.000000 1.753910 0.000000 
#    z 0.000000 0.000000 1.756000 
# 
# From -- ./inp_files/6204.got.cif
#   From: 2010.05.17/outbox.cif.g08.bks.cpg/sg115_4_cif.got.tgz:6204.got - 2010.05.20 11:07:42.
