data_PCOD9557846
_publ_section_title
;
Structure prediction by ZEFSAII (Michael W. Deem and Ramdas Pophale) SiO2 
 PCOD9557846
Probable space group: P -4 C 2
;
_chemical_formula_sum "Si O2"
_cell_formula_units_Z 40
_cell_length_a 15.086330
_cell_length_b 15.086330
_cell_length_c 8.683892
_cell_angle_alpha 90.000000
_cell_angle_beta 90.000000
_cell_angle_gamma 90.000000
_cell_volume 1976.430832
_symmetry_space_group_name_H-M "P -4 C 2"
_symmetry_group_IT_number 116
_symmetry_cell_setting 'tetragonal'
loop_
_space_group_symop_operation_xyz
x,y,z
y,-x,-z
-x,-y,z
-y,x,-z
y,x,1/2-z
-y,-x,1/2-z
-x,y,1/2+z
x,-y,1/2+z
loop_
_atom_site_type_symbol
_atom_site_label
_atom_site_fract_x
_atom_site_fract_y
_atom_site_fract_z
Si Si1 0.410223 0.814895 0.983514
Si Si2 0.116649 0.778566 0.519285
Si Si3 0.442703 0.613251 0.919280
Si Si4 0.929104 0.243856 0.882688
Si Si5 0.909165 0.554670 0.333828
O O1 0.312592 0.839996 0.040919
O O2 0.410944 0.713289 0.933194
O O3 0.427531 0.879964 0.840145
O O4 0.491255 0.833909 0.096830
O O5 0.090503 0.767482 0.700505
O O6 0.187509 0.857577 0.521417
O O7 0.026397 0.790766 0.425383
O O8 0.422249 0.577752 0.750000
O O9 0.394814 0.546363 0.038055
O O10 0.920689 0.349542 0.914008
O O11 0.000000 0.500000 0.341835
#
# Coordination Sequence:
#
# PCOD9557846 Si02
#       5
#     8   8   8   8   8
#     4  11  24  38  65  92 124 167 210 263 314 377
#     4  10  23  42  64  90 126 162 210 257 315 378
#     4  11  24  42  64  90 130 173 216 260 316 385
#     4  10  23  41  65  92 125 165 202 261 316 375
#     4  11  22  40  63  95 127 161 208 264 323 375
#
# _framework density 20.238503000000001
#
# number of rings (size 3 to 8) (size 9 to 14) (size 15 to 20)
#    0.000    1.400    2.000    3.000   11.200    1.200 
#    0.000    2.000    4.400    0.000    0.000    0.000 
#    0.000    0.000    0.000    0.000    0.000    0.000 
#
# Total GULP energy -223511.538633 kJ/mol
# GULP energy per Si atom -5587.788466 kJ/mol
# Density = 2.019244 g / cm^3
# Si number density = 20.238503 Si / 1000 Ang^3
#
#
#
# Elastic Constant Matrix: (Units=GPa)
#
#
# Indices 1 2 3 4 5 6 
#
# 1 97.9312 80.5926 8.0490 0.0000 0.0000 0.0000
# 2 80.5926 97.9323 8.0487 0.0000 0.0000 0.0000
# 3 8.0490 8.0487 13.9947 0.0000 0.0000 0.0000
# 4 0.0000 0.0000 0.0000 13.9685 0.0000 0.0000
# 5 0.0000 0.0000 0.0000 0.0000 13.9628 0.0000
# 6 0.0000 0.0000 0.0000 0.0000 0.0000 34.6161
#
#
#
# Elastic Compliance Matrix: (Units=1/GPa)
#
#
# Indices 1 2 3 4 5 6 
#
# 1 0.031791 -0.025883 -0.003399 0.000000 0.000000 0.000000
# 2 -0.025883 0.031790 -0.003397 0.000000 0.000000 0.000000
# 3 -0.003399 -0.003397 0.075364 0.000000 0.000000 0.000000
# 4 0.000000 0.000000 0.000000 0.071590 0.000000 0.000000
# 5 0.000000 0.000000 0.000000 0.000000 0.071619 0.000000
# 6 0.000000 0.000000 0.000000 0.000000 0.000000 0.028888
#
#
# Mechanical properties :
#
#
# Convention : Reuss Voigt Hill
#
# Bulk Modulus (GPa) = 13.58907 44.80431 29.19669
# Shear Modulus (GPa) = 12.47108 20.05402 16.26255
#
# Velocity S-wave (km/s) = 2.48504 3.15125 2.83776
# Velocity P-wave (km/s) = 3.86820 5.95203 5.01944
#
# Compressibility (1/GPa) = 0.07358858
#
# Stress axis : x y z
#
# Youngs Moduli (GPa) = 31.45576 31.45624 13.26891
#
# Poissons Ratio (x) = 0.81417 0.04510
# Poissons Ratio (y) = 0.81416 0.04508
# Poissons Ratio (z) = 0.10690 0.10686
#
# Static dielectric constant tensor:
#      x y z
#    x 1.721740 0.000000 0.000000 
#    y 0.000000 1.721720 0.000000 
#    z 0.000000 0.000000 1.742340 
# 
# From -- ./inp_files/820.got.cif
#   From: 2010.05.17/outbox.cif.g08.bks.cpg/sg116_1_cif.got.tgz:820.got - 2010.05.20 11:11:43.
