data_PCOD9557943
_publ_section_title
;
Structure prediction by ZEFSAII (Michael W. Deem and Ramdas Pophale) SiO2 
 PCOD9557943
Probable space group: P -4 C 2
;
_chemical_formula_sum "Si O2"
_cell_formula_units_Z 42
_cell_length_a 15.055123
_cell_length_b 15.055123
_cell_length_c 9.103971
_cell_angle_alpha 90.000000
_cell_angle_beta 90.000000
_cell_angle_gamma 90.000000
_cell_volume 2063.476284
_symmetry_space_group_name_H-M "P -4 C 2"
_symmetry_group_IT_number 116
_symmetry_cell_setting 'tetragonal'
loop_
_space_group_symop_operation_xyz
x,y,z
y,-x,-z
-x,-y,z
-y,x,-z
y,x,1/2-z
-y,-x,1/2-z
-x,y,1/2+z
x,-y,1/2+z
loop_
_atom_site_type_symbol
_atom_site_label
_atom_site_fract_x
_atom_site_fract_y
_atom_site_fract_z
Si Si1 0.398420 0.174951 0.947069
Si Si2 0.415160 0.853365 0.107409
Si Si3 0.735736 0.243200 0.919838
Si Si4 0.701538 0.023140 0.619929
Si Si5 0.180438 0.064450 0.396723
Si Si6 0.000000 0.000000 0.750000
O O1 0.414608 0.180977 0.774217
O O2 0.489642 0.160533 0.033904
O O3 0.335235 0.255143 0.994138
O O4 0.335962 0.095384 0.007047
O O5 0.379200 0.953428 0.129868
O O6 0.344640 0.808051 0.997489
O O7 0.729956 0.270045 0.750000
O O8 0.817975 0.171119 0.922355
O O9 0.739030 0.052628 0.778008
O O10 0.786163 0.976250 0.547362
O O11 0.090932 0.013900 0.345510
#
# Coordination Sequence:
#
# PCOD9557943 Si02
#       6
#     8   8   8   8   8   2
#     4  12  23  42  66  97 131 168 222 279 341 412
#     4  11  26  39  69 100 129 176 221 281 342 406
#     4  11  22  44  66  92 136 174 217 273 346 406
#     4  11  23  42  61  92 131 173 231 284 339 388
#     4  11  24  40  62  91 129 187 231 285 333 383
#     4  12  24  42  60  90 132 182 248 270 312 378
#
# _framework density 20.354001
#
# number of rings (size 3 to 8) (size 9 to 14) (size 15 to 20)
#    0.000    0.762    4.762    2.286    2.667    6.857 
#    0.000    0.000    0.000    0.571    0.000    4.000 
#    0.000    0.000    0.000    0.000    0.000    0.000 
#
# Total GULP energy -234319.069156 kJ/mol
# GULP energy per Si atom -5579.025456 kJ/mol
# Density = 2.030767 g / cm^3
# Si number density = 20.354001 Si / 1000 Ang^3
#
#
#
# Elastic Constant Matrix: (Units=GPa)
#
#
# Indices 1 2 3 4 5 6 
#
# 1 104.9055 35.2747 36.7410 0.0000 0.0000 0.0000
# 2 35.2747 104.9054 36.7410 0.0000 0.0000 0.0000
# 3 36.7410 36.7410 146.2836 0.0000 0.0000 0.0000
# 4 0.0000 0.0000 0.0000 31.0904 0.0000 0.0000
# 5 0.0000 0.0000 0.0000 0.0000 31.0905 0.0000
# 6 0.0000 0.0000 0.0000 0.0000 0.0000 12.1754
#
#
#
# Elastic Compliance Matrix: (Units=1/GPa)
#
#
# Indices 1 2 3 4 5 6 
#
# 1 0.011288 -0.003073 -0.002063 0.000000 0.000000 0.000000
# 2 -0.003073 0.011288 -0.002063 0.000000 0.000000 0.000000
# 3 -0.002063 -0.002063 0.007873 0.000000 0.000000 0.000000
# 4 0.000000 0.000000 0.000000 0.032164 0.000000 0.000000
# 5 0.000000 0.000000 0.000000 0.000000 0.032164 0.000000
# 6 0.000000 0.000000 0.000000 0.000000 0.000000 0.082133
#
#
# Mechanical properties :
#
#
# Convention : Reuss Voigt Hill
#
# Bulk Modulus (GPa) = 62.30681 63.73419 63.02050
# Shear Modulus (GPa) = 25.42454 31.36043 28.39249
#
# Velocity S-wave (km/s) = 3.53812 3.92950 3.73893
# Velocity P-wave (km/s) = 6.88252 7.20894 7.04762
#
# Compressibility (1/GPa) = 0.01604961
#
# Stress axis : x y z
#
# Youngs Moduli (GPa) = 88.58665 88.58657 127.02406
#
# Poissons Ratio (x) = 0.27223 0.26210
# Poissons Ratio (y) = 0.27224 0.26210
# Poissons Ratio (z) = 0.18279 0.18279
#
# Static dielectric constant tensor:
#      x y z
#    x 1.771410 0.000000 0.000000 
#    y 0.000000 1.771410 0.000000 
#    z 0.000000 0.000000 1.730290 
# 
# From -- ./inp_files/846.got.cif
#   From: 2010.05.17/outbox.cif.g08.bks.cpg/sg116_1_cif.got.tgz:846.got - 2010.05.20 11:11:43.
