data_PCOD9557861
_publ_section_title
;
Structure prediction by ZEFSAII (Michael W. Deem and Ramdas Pophale) SiO2 
 PCOD9557861
Probable space group: P -4 C 2
;
_chemical_formula_sum "Si O2"
_cell_formula_units_Z 44
_cell_length_a 7.844427
_cell_length_b 7.844427
_cell_length_c 32.692824
_cell_angle_alpha 90.000000
_cell_angle_beta 90.000000
_cell_angle_gamma 90.000000
_cell_volume 2011.754068
_symmetry_space_group_name_H-M "P -4 C 2"
_symmetry_group_IT_number 116
_symmetry_cell_setting 'tetragonal'
loop_
_space_group_symop_operation_xyz
x,y,z
y,-x,-z
-x,-y,z
-y,x,-z
y,x,1/2-z
-y,-x,1/2-z
-x,y,1/2+z
x,-y,1/2+z
loop_
_atom_site_type_symbol
_atom_site_label
_atom_site_fract_x
_atom_site_fract_y
_atom_site_fract_z
Si Si1 0.500000 0.500000 0.500000
Si Si2 0.296976 0.772192 0.457319
Si Si3 0.839457 0.771774 0.631336
Si Si4 0.500000 0.500000 0.750000
Si Si5 0.783464 0.818767 0.121390
Si Si6 0.070663 0.674745 0.958361
Si Si7 0.517668 0.204940 0.184284
O O1 0.362322 0.586576 0.470504
O O2 0.333451 0.803595 0.410139
O O3 0.362509 0.880511 0.495207
O O4 0.094228 0.792976 0.460968
O O5 0.702056 0.740924 0.666275
O O6 0.039855 0.746802 0.638763
O O7 0.806410 0.974908 0.623572
O O8 0.330347 0.508384 0.777889
O O9 0.753953 0.790937 0.072598
O O10 0.622974 0.766215 0.148554
O O11 0.000000 0.500000 0.938314
O O12 0.500000 0.000000 0.193514
#
# Coordination Sequence:
#
# PCOD9557861 Si02
#       7
#     2   8   8   2   8   8   8
#     4  12  24  34  48  72 124 170 212 272 318 344
#     4  11  22  36  54  83 118 169 219 259 308 357
#     4   9  19  38  63  93 125 165 220 260 311 381
#     4  12  28  46  72 104 130 160 204 252 326 416
#     4   9  18  37  66  91 122 172 210 260 321 370
#     4  11  20  35  56  83 123 168 221 269 311 363
#     4  10  23  45  70  96 131 165 200 260 327 391
#
# _framework density 21.871459999999999
#
# number of rings (size 3 to 8) (size 9 to 14) (size 15 to 20)
#    0.000    1.818    1.818    3.818    0.000    4.000 
#    0.000    0.000    0.000    0.000    0.000    0.000 
#    0.000    0.000    0.000    0.000    0.000    0.000 
#
# Total GULP energy -245377.271949 kJ/mol
# GULP energy per Si atom -5576.756181 kJ/mol
# Density = 2.182168 g / cm^3
# Si number density = 21.871460 Si / 1000 Ang^3
#
#
#
# Elastic Constant Matrix: (Units=GPa)
#
#
# Indices 1 2 3 4 5 6 
#
# 1 85.6040 27.9483 55.5159 0.0000 0.0000 0.0000
# 2 27.9483 85.6040 55.5159 0.0000 0.0000 0.0000
# 3 55.5159 55.5159 128.6477 0.0000 0.0000 0.0000
# 4 0.0000 0.0000 0.0000 33.0662 0.0000 0.0000
# 5 0.0000 0.0000 0.0000 0.0000 33.0662 0.0000
# 6 0.0000 0.0000 0.0000 0.0000 0.0000 15.0754
#
#
#
# Elastic Compliance Matrix: (Units=1/GPa)
#
#
# Indices 1 2 3 4 5 6 
#
# 1 0.016290 -0.001055 -0.006574 0.000000 0.000000 0.000000
# 2 -0.001055 0.016290 -0.006574 0.000000 0.000000 0.000000
# 3 -0.006574 -0.006574 0.013447 0.000000 0.000000 0.000000
# 4 0.000000 0.000000 0.000000 0.030242 0.000000 0.000000
# 5 0.000000 0.000000 0.000000 0.000000 0.030242 0.000000
# 6 0.000000 0.000000 0.000000 0.000000 0.000000 0.066333
#
#
# Mechanical properties :
#
#
# Convention : Reuss Voigt Hill
#
# Bulk Modulus (GPa) = 56.75482 64.20178 60.47830
# Shear Modulus (GPa) = 24.14001 26.96660 25.55331
#
# Velocity S-wave (km/s) = 3.32584 3.51516 3.42181
# Velocity P-wave (km/s) = 6.38387 6.77444 6.58205
#
# Compressibility (1/GPa) = 0.01761965
#
# Stress axis : x y z
#
# Youngs Moduli (GPa) = 61.38861 61.38861 74.36405
#
# Poissons Ratio (x) = 0.06474 0.48890
# Poissons Ratio (y) = 0.06474 0.48890
# Poissons Ratio (z) = 0.40360 0.40360
#
# Static dielectric constant tensor:
#      x y z
#    x 1.870140 0.000000 0.000000 
#    y 0.000000 1.870140 0.000000 
#    z 0.000000 0.000000 1.765080 
# 
# From -- ./inp_files/5203.got.cif
#   From: 2010.05.17/outbox.cif.g08.bks.cpg/sg116_3_cif.got.tgz:5203.got - 2010.05.20 11:11:43.
