data_PCOD9557055
_publ_section_title
;
Structure prediction by ZEFSAII (Michael W. Deem and Ramdas Pophale) SiO2 
 PCOD9557055
Probable space group: P -4 M 2
;
_chemical_formula_sum "Si O2"
_cell_formula_units_Z 44
_cell_length_a 9.178593
_cell_length_b 9.178593
_cell_length_c 29.591078
_cell_angle_alpha 90.000000
_cell_angle_beta 90.000000
_cell_angle_gamma 90.000000
_cell_volume 2492.946808
_symmetry_space_group_name_H-M "P -4 M 2"
_symmetry_group_IT_number 115
_symmetry_cell_setting 'tetragonal'
loop_
_space_group_symop_operation_xyz
x,y,z
y,-x,-z
-x,-y,z
-y,x,-z
y,x,-z
-y,-x,-z
-x,y,z
x,-y,z
loop_
_atom_site_type_symbol
_atom_site_label
_atom_site_fract_x
_atom_site_fract_y
_atom_site_fract_z
Si Si1 0.327524 0.675044 0.915493
Si Si2 0.832675 0.677355 0.823290
Si Si3 0.822325 0.830885 0.450584
Si Si4 0.671903 0.325153 0.732291
Si Si5 0.826643 0.826643 0.000000
Si Si6 0.827798 0.674038 0.359693
O O1 0.500000 0.703618 0.916252
O O2 0.307259 0.500000 0.920629
O O3 0.258803 0.719580 0.867423
O O4 0.247550 0.756457 0.956052
O O5 0.831754 0.500000 0.822470
O O6 0.759206 0.725049 0.776451
O O7 0.000000 0.725067 0.826790
O O8 0.774572 0.774572 0.500000
O O9 0.774334 0.745039 0.406277
O O10 0.000000 0.825689 0.451882
O O11 0.780668 0.000000 0.446175
O O12 0.500000 0.291633 0.738214
O O13 0.685221 0.500000 0.728802
O O14 0.723218 0.253551 0.685600
O O15 0.000000 0.801057 0.998928
O O16 0.810638 0.500000 0.363020
O O17 0.000000 0.705899 0.355197
#
# Coordination Sequence:
#
# PCOD9557055 Si02
#       6
#     8   8   8   8   4   8
#     4  10  20  35  57  82 104 131 171 211 246 293
#     4   9  17  30  50  75 101 129 162 202 245 286
#     4   8  14  26  44  63  83 111 147 184 224 274
#     4   9  17  30  47  66  91 124 159 193 232 281
#     4  11  24  39  54  76 108 141 170 205 252 298
#     4   9  17  29  45  65  89 117 150 189 232 277
#
# _framework density 17.649795000000001
#
# number of rings (size 3 to 8) (size 9 to 14) (size 15 to 20)
#    0.000    2.818    0.000    2.182    0.000    5.818 
#    0.000    1.818    0.000    4.364    0.000    0.000 
#    0.000    0.000    0.000    0.000    0.000    0.000 
#
# Total GULP energy -245279.309892 kJ/mol
# GULP energy per Si atom -5574.529770 kJ/mol
# Density = 1.760962 g / cm^3
# Si number density = 17.649795 Si / 1000 Ang^3
#
#
#
# Elastic Constant Matrix: (Units=GPa)
#
#
# Indices 1 2 3 4 5 6 
#
# 1 50.2221 45.1944 73.9869 0.0000 0.0000 0.0000
# 2 45.1944 50.2221 73.9869 0.0000 0.0000 0.0000
# 3 73.9869 73.9869 223.1451 0.0000 0.0000 0.0000
# 4 0.0000 0.0000 0.0000 44.2744 0.0000 0.0000
# 5 0.0000 0.0000 0.0000 0.0000 44.2744 0.0000
# 6 0.0000 0.0000 0.0000 0.0000 0.0000 16.1627
#
#
#
# Elastic Compliance Matrix: (Units=1/GPa)
#
#
# Indices 1 2 3 4 5 6 
#
# 1 0.110236 -0.088663 -0.007153 0.000000 0.000000 0.000000
# 2 -0.088663 0.110236 -0.007153 0.000000 0.000000 0.000000
# 3 -0.007153 -0.007153 0.009225 0.000000 0.000000 0.000000
# 4 0.000000 0.000000 0.000000 0.022586 0.000000 0.000000
# 5 0.000000 0.000000 0.000000 0.000000 0.022586 0.000000
# 6 0.000000 0.000000 0.000000 0.000000 0.000000 0.061871
#
#
# Mechanical properties :
#
#
# Convention : Reuss Voigt Hill
#
# Bulk Modulus (GPa) = 42.08836 78.88065 60.48450
# Shear Modulus (GPa) = 9.08104 29.63704 19.35904
#
# Velocity S-wave (km/s) = 2.27075 4.10222 3.31545
# Velocity P-wave (km/s) = 5.54736 8.19919 7.00000
#
# Compressibility (1/GPa) = 0.02375954
#
# Stress axis : x y z
#
# Youngs Moduli (GPa) = 9.07144 9.07144 108.40458
#
# Poissons Ratio (x) = 0.80430 0.77541
# Poissons Ratio (y) = 0.80430 0.77541
# Poissons Ratio (z) = 0.06489 0.06489
#
# Static dielectric constant tensor:
#      x y z
#    x 1.593010 0.000000 0.000000 
#    y 0.000000 1.593010 0.000000 
#    z 0.000000 0.000000 1.595900 
# 
# From -- ./inp_files/5838.got.cif
#   From: 2010.05.17/outbox.cif.g08.bks.cpg/sg115_3_cif.got.tgz:5838.got - 2010.05.20 11:07:42.
