data_PCOD9557494
_publ_section_title
;
Structure prediction by ZEFSAII (Michael W. Deem and Ramdas Pophale) SiO2 
 PCOD9557494
Probable space group: P -4 M 2
;
_chemical_formula_sum "Si O2"
_cell_formula_units_Z 40
_cell_length_a 18.000000
_cell_length_b 18.000000
_cell_length_c 6.000000
_cell_angle_alpha 90.000000
_cell_angle_beta 90.000000
_cell_angle_gamma 90.000000
_cell_volume 1944.000000
_symmetry_space_group_name_H-M "P -4 M 2"
_symmetry_group_IT_number 115
_symmetry_cell_setting 'tetragonal'
loop_
_space_group_symop_operation_xyz
x,y,z
y,-x,-z
-x,-y,z
-y,x,-z
y,x,-z
-y,-x,-z
-x,y,z
x,-y,z
loop_
_atom_site_type_symbol
_atom_site_label
_atom_site_fract_x
_atom_site_fract_y
_atom_site_fract_z
Si Si1 0.412646 0.358464 0.252318
Si Si2 0.787880 0.414533 0.994995
Si Si3 0.798911 0.914217 0.949575
Si Si4 0.192168 0.297865 0.360272
Si Si5 0.914353 0.341690 0.738279
O O1 0.380193 0.380193 0.500000
O O2 0.500000 0.375958 0.271665
O O3 0.389711 0.389711 0.000000
O O4 0.403430 0.270282 0.206391
O O5 0.781755 0.500000 0.068723
O O6 0.770766 0.355686 0.189351
O O7 0.870026 0.394146 0.909391
O O8 0.760844 0.857897 0.776285
O O9 0.802083 0.000000 0.874633
O O10 0.878887 0.878887 0.000000
O O11 0.741896 0.911977 0.158934
O O12 0.252106 0.252106 0.500000
O O13 0.133480 0.340586 0.514873
O O14 0.000000 0.362365 0.708140
#
# Coordination Sequence:
#
# PCOD9557494 Si02
#       5
#     8   8   8   8   8
#     4  11  26  46  72 105 144 187 234 290 351 422
#     4  10  26  44  64  99 138 173 222 288 350 413
#     4  10  20  37  59  92 133 171 222 282 341 411
#     4  11  22  39  69  97 128 178 233 284 346 416
#     4  10  22  40  65  93 128 174 225 279 340 415
#
# _framework density 20.576132000000001
#
# number of rings (size 3 to 8) (size 9 to 14) (size 15 to 20)
#    0.000    1.600    2.000    1.200    5.600    3.400 
#    0.000    0.000    0.000    0.000    0.000    0.000 
#    0.000    0.000    0.000    0.000    0.000    0.000 
#
# Total GULP energy -223360.812422 kJ/mol
# GULP energy per Si atom -5584.020311 kJ/mol
# Density = 2.052930 g / cm^3
# Si number density = 20.576132 Si / 1000 Ang^3
#
#
#
# Elastic Constant Matrix: (Units=GPa)
#
#
# Indices 1 2 3 4 5 6 
#
# 1 125.1687 55.2227 54.1489 0.0000 0.0000 0.0000
# 2 55.2227 125.1687 54.1489 0.0000 0.0000 0.0000
# 3 54.1489 54.1489 119.1164 0.0000 0.0000 0.0000
# 4 0.0000 0.0000 0.0000 29.6469 0.0000 0.0000
# 5 0.0000 0.0000 0.0000 0.0000 29.6469 0.0000
# 6 0.0000 0.0000 0.0000 0.0000 0.0000 18.1616
#
#
#
# Elastic Compliance Matrix: (Units=1/GPa)
#
#
# Indices 1 2 3 4 5 6 
#
# 1 0.010960 -0.003336 -0.003466 0.000000 0.000000 0.000000
# 2 -0.003336 0.010960 -0.003466 0.000000 0.000000 0.000000
# 3 -0.003466 -0.003466 0.011546 0.000000 0.000000 0.000000
# 4 0.000000 0.000000 0.000000 0.033730 0.000000 0.000000
# 5 0.000000 0.000000 0.000000 0.000000 0.033730 0.000000
# 6 0.000000 0.000000 0.000000 0.000000 0.000000 0.055061
#
#
# Mechanical properties :
#
#
# Convention : Reuss Voigt Hill
#
# Bulk Modulus (GPa) = 77.33247 77.38833 77.36040
# Shear Modulus (GPa) = 27.64943 29.21998 28.43470
#
# Velocity S-wave (km/s) = 3.66971 3.77250 3.72146
# Velocity P-wave (km/s) = 7.45794 7.52782 7.49296
#
# Compressibility (1/GPa) = 0.01293118
#
# Stress axis : x y z
#
# Youngs Moduli (GPa) = 91.23680 91.23680 86.60818
#
# Poissons Ratio (x) = 0.30439 0.30017
# Poissons Ratio (y) = 0.30439 0.30017
# Poissons Ratio (z) = 0.31622 0.31622
#
# Static dielectric constant tensor:
#      x y z
#    x 1.733000 0.000000 0.000000 
#    y 0.000000 1.733000 0.000000 
#    z 0.000000 0.000000 1.769380 
# 
# From -- ./inp_files/504.got.cif
#   From: 2010.05.17/outbox.ucp.g08.bks.cvg/sg115_1_cif.got.tgz:504.got - 2010.06.11 11:33:38.
