data_PCOD9557320
_publ_section_title
;
Structure prediction by ZEFSAII (Michael W. Deem and Ramdas Pophale) SiO2 
 PCOD9557320
Probable space group: P -4 M 2
;
_chemical_formula_sum "Si O2"
_cell_formula_units_Z 48
_cell_length_a 9.060503
_cell_length_b 9.060503
_cell_length_c 31.570155
_cell_angle_alpha 90.000000
_cell_angle_beta 90.000000
_cell_angle_gamma 90.000000
_cell_volume 2591.679725
_symmetry_space_group_name_H-M "P -4 M 2"
_symmetry_group_IT_number 115
_symmetry_cell_setting 'tetragonal'
loop_
_space_group_symop_operation_xyz
x,y,z
y,-x,-z
-x,-y,z
-y,x,-z
y,x,-z
-y,-x,-z
-x,y,z
x,-y,z
loop_
_atom_site_type_symbol
_atom_site_label
_atom_site_fract_x
_atom_site_fract_y
_atom_site_fract_z
Si Si1 0.825347 0.176597 0.743316
Si Si2 0.174845 0.174845 0.000000
Si Si3 0.824080 0.325577 0.168510
Si Si4 0.675962 0.675962 0.500000
Si Si5 0.324353 0.675358 0.337094
Si Si6 0.824119 0.175880 0.418374
Si Si7 0.676234 0.325345 0.919420
O O1 0.763934 0.217953 0.789585
O O2 0.740319 0.261975 0.706577
O O3 0.000000 0.204024 0.740483
O O4 0.801135 0.000000 0.738123
O O5 0.242448 0.248743 0.958268
O O6 0.000000 0.201305 0.001450
O O7 0.794841 0.500000 0.175554
O O8 0.741197 0.278534 0.125926
O O9 0.000000 0.308362 0.162025
O O10 0.701184 0.500000 0.499928
O O11 0.748294 0.747963 0.541390
O O12 0.500000 0.699590 0.339956
O O13 0.296960 0.500000 0.339190
O O14 0.243740 0.755716 0.375873
O O15 0.000000 0.201075 0.419557
O O16 0.798734 0.000000 0.419369
O O17 0.500000 0.299645 0.923763
O O18 0.702018 0.500000 0.920280
#
# Coordination Sequence:
#
# PCOD9557320 Si02
#       7
#     8   4   8   4   8   8   8
#     4  10  21  37  58  85 116 150 189 233 281 335
#     4  11  24  39  56  80 110 145 186 231 278 330
#     4   9  18  34  56  81 112 151 190 228 274 329
#     4  11  24  41  62  90 122 155 194 237 282 336
#     4  11  24  40  59  85 116 151 193 239 286 338
#     4  11  24  41  62  89 119 152 193 238 285 340
#     4  10  21  37  58  84 113 145 183 228 278 333
#
# _framework density 18.520809
#
# number of rings (size 3 to 8) (size 9 to 14) (size 15 to 20)
#    0.000    1.667    0.000    4.000    0.000   13.333 
#    0.000    3.333    0.000    0.000    0.000    0.000 
#    0.000    0.000    0.000    0.000    0.000    0.000 
#
# Total GULP energy -268367.865710 kJ/mol
# GULP energy per Si atom -5590.997202 kJ/mol
# Density = 1.847865 g / cm^3
# Si number density = 18.520809 Si / 1000 Ang^3
#
#
#
# Elastic Constant Matrix: (Units=GPa)
#
#
# Indices 1 2 3 4 5 6 
#
# 1 103.8733 100.0751 102.9817 0.0000 0.0000 0.0000
# 2 100.0751 103.8733 102.9817 0.0000 0.0000 0.0000
# 3 102.9817 102.9817 201.0892 0.0000 0.0000 0.0000
# 4 0.0000 0.0000 0.0000 42.6914 0.0000 0.0000
# 5 0.0000 0.0000 0.0000 0.0000 42.6914 0.0000
# 6 0.0000 0.0000 0.0000 0.0000 0.0000 30.2089
#
#
#
# Elastic Compliance Matrix: (Units=1/GPa)
#
#
# Indices 1 2 3 4 5 6 
#
# 1 0.136720 -0.126565 -0.005201 0.000000 0.000000 0.000000
# 2 -0.126565 0.136720 -0.005201 0.000000 0.000000 0.000000
# 3 -0.005201 -0.005201 0.010300 0.000000 0.000000 0.000000
# 4 0.000000 0.000000 0.000000 0.023424 0.000000 0.000000
# 5 0.000000 0.000000 0.000000 0.000000 0.023424 0.000000
# 6 0.000000 0.000000 0.000000 0.000000 0.000000 0.033103
#
#
# Mechanical properties :
#
#
# Convention : Reuss Voigt Hill
#
# Bulk Modulus (GPa) = 101.96375 113.43473 107.69924
# Shear Modulus (GPa) = 7.80162 29.97149 18.88656
#
# Velocity S-wave (km/s) = 2.05463 4.02713 3.19681
# Velocity P-wave (km/s) = 7.79755 9.11064 8.47955
#
# Compressibility (1/GPa) = 0.00980741
#
# Stress axis : x y z
#
# Youngs Moduli (GPa) = 7.31421 7.31421 97.09011
#
# Poissons Ratio (x) = 0.92572 0.50494
# Poissons Ratio (y) = 0.92572 0.50494
# Poissons Ratio (z) = 0.03804 0.03804
#
# Static dielectric constant tensor:
#      x y z
#    x 1.618560 0.000000 0.000000 
#    y 0.000000 1.618560 0.000000 
#    z 0.000000 0.000000 1.599300 
# 
# From -- ./inp_files/6245.got.cif
#   From: 2010.05.17/outbox.cif.g08.bks.cpg/sg115_4_cif.got.tgz:6245.got - 2010.05.20 11:07:42.
