data_PCOD9557209
_publ_section_title
;
Structure prediction by ZEFSAII (Michael W. Deem and Ramdas Pophale) SiO2 
 PCOD9557209
Probable space group: P -4 M 2
;
_chemical_formula_sum "Si O2"
_cell_formula_units_Z 48
_cell_length_a 9.138773
_cell_length_b 9.138773
_cell_length_c 31.973236
_cell_angle_alpha 90.000000
_cell_angle_beta 90.000000
_cell_angle_gamma 90.000000
_cell_volume 2670.314249
_symmetry_space_group_name_H-M "P -4 M 2"
_symmetry_group_IT_number 115
_symmetry_cell_setting 'tetragonal'
loop_
_space_group_symop_operation_xyz
x,y,z
y,-x,-z
-x,-y,z
-y,x,-z
y,x,-z
-y,-x,-z
-x,y,z
x,-y,z
loop_
_atom_site_type_symbol
_atom_site_label
_atom_site_fract_x
_atom_site_fract_y
_atom_site_fract_z
Si Si1 0.326163 0.326163 0.000000
Si Si2 0.323807 0.325949 0.591427
Si Si3 0.171527 0.175525 0.330336
Si Si4 0.327405 0.174709 0.834183
Si Si5 0.173234 0.824986 0.921437
Si Si6 0.324608 0.675393 0.500000
Si Si7 0.326315 0.825864 0.243880
O O1 0.259298 0.249305 0.040777
O O2 0.300460 0.500000 0.002132
O O3 0.500000 0.309893 0.593037
O O4 0.292777 0.500000 0.594623
O O5 0.250936 0.242177 0.629491
O O6 0.271864 0.271643 0.545355
O O7 0.252449 0.219777 0.287569
O O8 0.000000 0.210038 0.327303
O O9 0.187470 0.000000 0.334328
O O10 0.500000 0.203933 0.838079
O O11 0.245639 0.215058 0.877128
O O12 0.259516 0.257972 0.794929
O O13 0.307619 0.000000 0.828122
O O14 0.000000 0.796005 0.920653
O O15 0.193797 0.000000 0.927391
O O16 0.500000 0.697731 0.499595
O O17 0.500000 0.803503 0.246090
O O18 0.298700 0.000000 0.238411
#
# Coordination Sequence:
#
# PCOD9557209 Si02
#       7
#     4   8   8   8   8   4   8
#     4  11  24  39  56  82 116 151 186 227 274 318
#     4   9  17  31  53  78 102 131 170 215 261 310
#     4  10  21  36  53  74 103 139 176 215 261 312
#     4  10  21  37  58  84 113 144 177 216 265 318
#     4  10  21  38  61  86 111 144 186 226 266 317
#     4   7  12  26  48  73 100 130 166 209 256 307
#     4  10  21  37  57  79 103 136 179 222 264 313
#
# _framework density 17.975411999999999
#
# number of rings (size 3 to 8) (size 9 to 14) (size 15 to 20)
#    0.000    2.333    0.000    3.500    0.000    7.333 
#    0.000    0.833    0.000    4.000    0.000    0.000 
#    0.000    0.000    0.000    0.000    0.000    0.000 
#
# Total GULP energy -267901.390571 kJ/mol
# GULP energy per Si atom -5581.278970 kJ/mol
# Density = 1.793450 g / cm^3
# Si number density = 17.975412 Si / 1000 Ang^3
#
#
#
# Elastic Constant Matrix: (Units=GPa)
#
#
# Indices 1 2 3 4 5 6 
#
# 1 69.6873 65.4675 93.6880 0.0000 0.0000 0.0000
# 2 65.4675 69.6869 93.6880 0.0000 0.0000 0.0000
# 3 93.6880 93.6880 225.2101 0.0000 0.0000 0.0000
# 4 0.0000 0.0000 0.0000 37.3914 0.0000 0.0000
# 5 0.0000 0.0000 0.0000 0.0000 37.3914 0.0000
# 6 0.0000 0.0000 0.0000 0.0000 0.0000 28.3648
#
#
#
# Elastic Compliance Matrix: (Units=1/GPa)
#
#
# Indices 1 2 3 4 5 6 
#
# 1 0.127235 -0.109755 -0.007272 0.000000 0.000000 0.000000
# 2 -0.109755 0.127236 -0.007272 0.000000 0.000000 0.000000
# 3 -0.007272 -0.007272 0.010491 0.000000 0.000000 0.000000
# 4 0.000000 0.000000 0.000000 0.026744 0.000000 0.000000
# 5 0.000000 0.000000 0.000000 0.000000 0.026744 0.000000
# 6 0.000000 0.000000 0.000000 0.000000 0.000000 0.035255
#
#
# Mechanical properties :
#
#
# Convention : Reuss Voigt Hill
#
# Bulk Modulus (GPa) = 61.10963 96.69682 78.90322
# Shear Modulus (GPa) = 8.22698 28.07889 18.15294
#
# Velocity S-wave (km/s) = 2.14167 3.95659 3.18130
# Velocity P-wave (km/s) = 6.33922 8.64775 7.58186
#
# Compressibility (1/GPa) = 0.01636403
#
# Stress axis : x y z
#
# Youngs Moduli (GPa) = 7.85949 7.85942 95.32270
#
# Poissons Ratio (x) = 0.86261 0.69317
# Poissons Ratio (y) = 0.86261 0.69321
# Poissons Ratio (z) = 0.05715 0.05716
#
# Static dielectric constant tensor:
#      x y z
#    x 1.599660 0.000000 0.000000 
#    y 0.000000 1.599660 0.000000 
#    z 0.000000 0.000000 1.597870 
# 
# From -- ./inp_files/6270.got.cif
#   From: 2010.05.17/outbox.cif.g08.bks.cpg/sg115_4_cif.got.tgz:6270.got - 2010.05.20 11:07:42.
