data_PCOD9557308
_publ_section_title
;
Structure prediction by ZEFSAII (Michael W. Deem and Ramdas Pophale) SiO2 
 PCOD9557308
Probable space group: P -4 M 2
;
_chemical_formula_sum "Si O2"
_cell_formula_units_Z 40
_cell_length_a 9.089634
_cell_length_b 9.089634
_cell_length_c 26.348089
_cell_angle_alpha 90.000000
_cell_angle_beta 90.000000
_cell_angle_gamma 90.000000
_cell_volume 2176.917219
_symmetry_space_group_name_H-M "P -4 M 2"
_symmetry_group_IT_number 115
_symmetry_cell_setting 'tetragonal'
loop_
_space_group_symop_operation_xyz
x,y,z
y,-x,-z
-x,-y,z
-y,x,-z
y,x,-z
-y,-x,-z
-x,y,z
x,-y,z
loop_
_atom_site_type_symbol
_atom_site_label
_atom_site_fract_x
_atom_site_fract_y
_atom_site_fract_z
Si Si1 0.325772 0.823749 0.355077
Si Si2 0.671996 0.322906 0.153342
Si Si3 0.324732 0.174789 0.548493
Si Si4 0.675632 0.825957 0.952067
Si Si5 0.176845 0.171962 0.750815
O O1 0.500000 0.794345 0.354819
O O2 0.247709 0.740163 0.400896
O O3 0.254464 0.781957 0.301191
O O4 0.305310 0.000000 0.361762
O O5 0.500000 0.283198 0.153294
O O6 0.683482 0.500000 0.157294
O O7 0.746639 0.279356 0.100156
O O8 0.753394 0.250849 0.200784
O O9 0.247778 0.247778 0.500000
O O10 0.500000 0.197827 0.545721
O O11 0.296686 0.000000 0.548883
O O12 0.500000 0.802524 0.958627
O O13 0.701766 0.000000 0.947968
O O14 0.758751 0.758751 0.000000
O O15 0.000000 0.182598 0.755808
O O16 0.216290 0.000000 0.747664
#
# Coordination Sequence:
#
# PCOD9557308 Si02
#       5
#     8   8   8   8   8
#     4  10  21  38  60  85 113 147 188 232 278 330
#     4  10  21  37  58  83 111 146 187 230 278 331
#     4  11  24  40  59  85 115 148 187 230 278 332
#     4  10  21  37  57  81 109 143 183 227 276 330
#     4  10  21  37  58  84 114 149 188 230 278 331
#
# _framework density 18.374609
#
# number of rings (size 3 to 8) (size 9 to 14) (size 15 to 20)
#    0.000    1.800    0.000    3.600    0.000   10.400 
#    0.000    0.000    0.000    0.000    0.000    0.000 
#    0.000    0.000    0.000    0.000    0.000    0.000 
#
# Total GULP energy -223586.152412 kJ/mol
# GULP energy per Si atom -5589.653810 kJ/mol
# Density = 1.833279 g / cm^3
# Si number density = 18.374609 Si / 1000 Ang^3
#
#
#
# Elastic Constant Matrix: (Units=GPa)
#
#
# Indices 1 2 3 4 5 6 
#
# 1 102.0366 88.8944 106.1073 0.0000 0.0000 0.0000
# 2 88.8944 102.0366 106.1073 0.0000 0.0000 0.0000
# 3 106.1073 106.1073 221.7382 0.0000 0.0000 0.0000
# 4 0.0000 0.0000 0.0000 43.6689 0.0000 0.0000
# 5 0.0000 0.0000 0.0000 0.0000 43.6689 0.0000
# 6 0.0000 0.0000 0.0000 0.0000 0.0000 31.2911
#
#
#
# Elastic Compliance Matrix: (Units=1/GPa)
#
#
# Indices 1 2 3 4 5 6 
#
# 1 0.043639 -0.032451 -0.005354 0.000000 0.000000 0.000000
# 2 -0.032451 0.043639 -0.005354 0.000000 0.000000 0.000000
# 3 -0.005354 -0.005354 0.009634 0.000000 0.000000 0.000000
# 4 0.000000 0.000000 0.000000 0.022900 0.000000 0.000000
# 5 0.000000 0.000000 0.000000 0.000000 0.022900 0.000000
# 6 0.000000 0.000000 0.000000 0.000000 0.000000 0.031958
#
#
# Mechanical properties :
#
#
# Convention : Reuss Voigt Hill
#
# Bulk Modulus (GPa) = 94.38684 114.22548 104.30616
# Shear Modulus (GPa) = 18.90223 32.03928 25.47075
#
# Velocity S-wave (km/s) = 3.21084 4.18026 3.72720
# Velocity P-wave (km/s) = 8.07623 9.25198 8.68403
#
# Compressibility (1/GPa) = 0.01059470
#
# Stress axis : x y z
#
# Youngs Moduli (GPa) = 22.91505 22.91505 103.80291
#
# Poissons Ratio (x) = 0.74363 0.55574
# Poissons Ratio (y) = 0.74363 0.55574
# Poissons Ratio (z) = 0.12268 0.12268
#
# Static dielectric constant tensor:
#      x y z
#    x 1.614830 0.000000 0.000000 
#    y 0.000000 1.614830 0.000000 
#    z 0.000000 0.000000 1.585660 
# 
# From -- ./inp_files/5058.got.cif
#   From: 2010.05.17/outbox.cif.g08.bks.cpg/sg115_3_cif.got.tgz:5058.got - 2010.05.20 11:07:42.
