data_PCOD9557823
_publ_section_title
;
Structure prediction by ZEFSAII (Michael W. Deem and Ramdas Pophale) SiO2 
 PCOD9557823
Probable space group: P -4 C 2
;
_chemical_formula_sum "Si O2"
_cell_formula_units_Z 34
_cell_length_a 11.531824
_cell_length_b 11.531824
_cell_length_c 11.391400
_cell_angle_alpha 90.000000
_cell_angle_beta 90.000000
_cell_angle_gamma 90.000000
_cell_volume 1514.862145
_symmetry_space_group_name_H-M "P -4 C 2"
_symmetry_group_IT_number 116
_symmetry_cell_setting 'tetragonal'
loop_
_space_group_symop_operation_xyz
x,y,z
y,-x,-z
-x,-y,z
-y,x,-z
y,x,1/2-z
-y,-x,1/2-z
-x,y,1/2+z
x,-y,1/2+z
loop_
_atom_site_type_symbol
_atom_site_label
_atom_site_fract_x
_atom_site_fract_y
_atom_site_fract_z
Si Si1 0.213651 0.795537 0.612959
Si Si2 0.765326 0.765326 0.750000
Si Si3 0.000000 0.500000 0.032727
Si Si4 0.037768 0.744918 0.070100
Si Si5 0.500000 0.500000 0.000000
Si Si6 0.753893 0.580708 0.938080
O O1 0.227874 0.772127 0.750000
O O2 0.267610 0.913841 0.562042
O O3 0.252604 0.684760 0.535557
O O4 0.077969 0.815515 0.585032
O O5 0.786992 0.859063 0.849684
O O6 0.771754 0.641468 0.812796
O O7 0.874329 0.514177 0.967647
O O8 0.992242 0.384830 0.109265
O O9 0.518087 0.372123 0.060502
#
# Coordination Sequence:
#
# PCOD9557823 Si02
#       6
#     8   4   4   8   2   8
#     4  10  23  42  65  97 136 181 229 286 347 426
#     4  10  22  43  67 102 140 180 232 292 350 422
#     4  10  22  46  70  92 134 190 232 276 348 442
#     4  10  23  42  64  99 134 177 234 286 350 417
#     4  12  24  50  64 112 154 176 246 300 364 414
#     4  10  23  44  68  99 141 182 234 290 352 422
#
# _framework density 22.444288
#
# number of rings (size 3 to 8) (size 9 to 14) (size 15 to 20)
#    0.000    1.882    0.000    2.824    9.882    1.882 
#   21.176    0.000    0.000    0.000    0.000    0.000 
#    0.000    0.000    0.000    0.000    0.000    0.000 
#
# Total GULP energy -189456.991602 kJ/mol
# GULP energy per Si atom -5572.264459 kJ/mol
# Density = 2.239320 g / cm^3
# Si number density = 22.444288 Si / 1000 Ang^3
#
#
#
# Elastic Constant Matrix: (Units=GPa)
#
#
# Indices 1 2 3 4 5 6 
#
# 1 99.4653 20.9637 2.9429 0.0000 0.0000 0.0000
# 2 20.9637 99.4654 2.9432 0.0000 0.0000 0.0000
# 3 2.9429 2.9432 82.8223 0.0000 0.0000 0.0000
# 4 0.0000 0.0000 0.0000 13.5027 0.0000 0.0000
# 5 0.0000 0.0000 0.0000 0.0000 13.5027 0.0000
# 6 0.0000 0.0000 0.0000 0.0000 0.0000 27.2315
#
#
#
# Elastic Compliance Matrix: (Units=1/GPa)
#
#
# Indices 1 2 3 4 5 6 
#
# 1 0.010528 -0.002210 -0.000296 0.000000 0.000000 0.000000
# 2 -0.002210 0.010528 -0.000296 0.000000 0.000000 0.000000
# 3 -0.000296 -0.000296 0.012095 0.000000 0.000000 0.000000
# 4 0.000000 0.000000 0.000000 0.074059 0.000000 0.000000
# 5 0.000000 0.000000 0.000000 0.000000 0.074059 0.000000
# 6 0.000000 0.000000 0.000000 0.000000 0.000000 0.036722
#
#
# Mechanical properties :
#
#
# Convention : Reuss Voigt Hill
#
# Bulk Modulus (GPa) = 36.29906 37.27250 36.78578
# Shear Modulus (GPa) = 21.47969 27.84094 24.66031
#
# Velocity S-wave (km/s) = 3.09693 3.52582 3.31831
# Velocity P-wave (km/s) = 5.38480 5.76350 5.57736
#
# Compressibility (1/GPa) = 0.02754892
#
# Stress axis : x y z
#
# Youngs Moduli (GPa) = 94.98167 94.98176 82.67850
#
# Poissons Ratio (x) = 0.20993 0.02444
# Poissons Ratio (y) = 0.20993 0.02444
# Poissons Ratio (z) = 0.02807 0.02808
#
# Static dielectric constant tensor:
#      x y z
#    x 1.913640 0.000000 0.000000 
#    y 0.000000 1.913640 0.000000 
#    z 0.000000 0.000000 1.809700 
# 
# From -- ./inp_files/1652.got.cif
#   From: 2010.05.17/outbox.cif.g08.bks.cpg/sg116_1_cif.got.tgz:1652.got - 2010.05.20 11:11:43.
