data_PCOD9557873
_publ_section_title
;
Structure prediction by ZEFSAII (Michael W. Deem and Ramdas Pophale) SiO2 
 PCOD9557873
Probable space group: P -4 C 2
;
_chemical_formula_sum "Si O2"
_cell_formula_units_Z 40
_cell_length_a 14.150543
_cell_length_b 14.150543
_cell_length_c 8.236374
_cell_angle_alpha 90.000000
_cell_angle_beta 90.000000
_cell_angle_gamma 90.000000
_cell_volume 1649.233963
_symmetry_space_group_name_H-M "P -4 C 2"
_symmetry_group_IT_number 116
_symmetry_cell_setting 'tetragonal'
loop_
_space_group_symop_operation_xyz
x,y,z
y,-x,-z
-x,-y,z
-y,x,-z
y,x,1/2-z
-y,-x,1/2-z
-x,y,1/2+z
x,-y,1/2+z
loop_
_atom_site_type_symbol
_atom_site_label
_atom_site_fract_x
_atom_site_fract_y
_atom_site_fract_z
Si Si1 0.437013 0.818346 0.675081
Si Si2 0.000000 0.000000 0.000000
Si Si3 0.136082 0.636263 0.466089
Si Si4 0.500000 0.500000 0.000000
Si Si5 0.927205 0.278282 0.988386
Si Si6 0.789876 0.789876 0.750000
Si Si7 0.111501 0.888500 0.750000
Si Si8 0.393833 0.393833 0.250000
O O1 0.543629 0.853859 0.646459
O O2 0.373749 0.868690 0.539451
O O3 0.415519 0.706949 0.671867
O O4 0.400409 0.845323 0.853567
O O5 0.914833 0.037021 0.890445
O O6 0.210079 0.710899 0.390500
O O7 0.035959 0.690619 0.477155
O O8 0.471643 0.587027 0.887556
O O9 0.901812 0.210527 0.837197
O O10 0.886923 0.228584 0.151125
#
# Coordination Sequence:
#
# PCOD9557873 Si02
#       8
#     8   2   8   2   8   4   4   4
#     4  12  26  49  76 118 161 210 274 342 426 515
#     4  10  28  46  76 106 140 202 260 350 416 506
#     4  12  28  49  80 116 165 214 281 352 428 517
#     4  10  24  42  72 106 148 198 248 314 380 462
#     4  12  28  48  75 113 157 214 273 351 428 518
#     4  12  28  48  78 110 160 226 284 354 438 514
#     4  11  27  48  74 108 153 197 276 336 426 509
#     4  11  23  44  74 108 151 199 252 312 392 479
#
# _framework density 24.253684
#
# number of rings (size 3 to 8) (size 9 to 14) (size 15 to 20)
#    0.000    0.400    0.000    7.200    8.400    4.800 
#    0.000    0.000    0.000    0.000    0.000    0.000 
#    0.000    0.000    0.000    0.000    0.000    0.000 
#
# Total GULP energy -224026.928572 kJ/mol
# GULP energy per Si atom -5600.673214 kJ/mol
# Density = 2.419848 g / cm^3
# Si number density = 24.253684 Si / 1000 Ang^3
#
#
#
# Elastic Constant Matrix: (Units=GPa)
#
#
# Indices 1 2 3 4 5 6 
#
# 1 128.4012 37.8288 44.9692 0.0000 0.0000 0.0000
# 2 37.8288 128.4020 44.9685 0.0000 0.0000 0.0000
# 3 44.9692 44.9685 123.5903 0.0000 0.0000 0.0000
# 4 0.0000 0.0000 0.0000 32.7767 0.0000 0.0000
# 5 0.0000 0.0000 0.0000 0.0000 32.7770 0.0000
# 6 0.0000 0.0000 0.0000 0.0000 0.0000 42.4597
#
#
#
# Elastic Compliance Matrix: (Units=1/GPa)
#
#
# Indices 1 2 3 4 5 6 
#
# 1 0.009266 -0.001775 -0.002725 0.000000 0.000000 0.000000
# 2 -0.001775 0.009266 -0.002725 0.000000 0.000000 0.000000
# 3 -0.002725 -0.002725 0.010075 0.000000 0.000000 0.000000
# 4 0.000000 0.000000 0.000000 0.030510 0.000000 0.000000
# 5 0.000000 0.000000 0.000000 0.000000 0.030509 0.000000
# 6 0.000000 0.000000 0.000000 0.000000 0.000000 0.023552
#
#
# Mechanical properties :
#
#
# Convention : Reuss Voigt Hill
#
# Bulk Modulus (GPa) = 70.65334 70.65850 70.65592
# Shear Modulus (GPa) = 37.77975 38.44447 38.11211
#
# Velocity S-wave (km/s) = 3.95104 3.98565 3.96838
# Velocity P-wave (km/s) = 7.07167 7.09767 7.08468
#
# Compressibility (1/GPa) = 0.01415361
#
# Stress axis : x y z
#
# Youngs Moduli (GPa) = 107.92579 107.92712 99.26020
#
# Poissons Ratio (x) = 0.19160 0.27053
# Poissons Ratio (y) = 0.19160 0.27052
# Poissons Ratio (z) = 0.29414 0.29414
#
# Static dielectric constant tensor:
#      x y z
#    x 1.944480 0.000000 0.000000 
#    y 0.000000 1.944480 0.000000 
#    z 0.000000 0.000000 1.940040 
# 
# From -- ./inp_files/889.got.cif
#   From: 2010.05.17/outbox.cif.g08.bks.cpg/sg116_1_cif.got.tgz:889.got - 2010.05.20 11:11:43.
