data_PCOD9557390
_publ_section_title
;
Structure prediction by ZEFSAII (Michael W. Deem and Ramdas Pophale) SiO2 
 PCOD9557390
Probable space group: P -4 M 2
;
_chemical_formula_sum "Si O2"
_cell_formula_units_Z 17
_cell_length_a 7.359250
_cell_length_b 7.359250
_cell_length_c 14.880473
_cell_angle_alpha 90.000000
_cell_angle_beta 90.000000
_cell_angle_gamma 90.000000
_cell_volume 805.904998
_symmetry_space_group_name_H-M "P -4 M 2"
_symmetry_group_IT_number 115
_symmetry_cell_setting 'tetragonal'
loop_
_space_group_symop_operation_xyz
x,y,z
y,-x,-z
-x,-y,z
-y,x,-z
y,x,-z
-y,-x,-z
-x,y,z
x,-y,z
loop_
_atom_site_type_symbol
_atom_site_label
_atom_site_fract_x
_atom_site_fract_y
_atom_site_fract_z
Si Si1 0.281141 0.000000 0.342393
Si Si2 0.282166 0.282166 0.000000
Si Si3 0.278665 0.709103 0.195133
Si Si4 0.000000 0.000000 0.500000
O O1 0.228632 0.171107 0.280039
O O2 0.173904 0.000000 0.434832
O O3 0.500000 0.000000 0.354839
O O4 0.217303 0.217344 0.902600
O O5 0.252859 0.500000 0.003027
O O6 0.500000 0.711238 0.191366
O O7 0.222298 0.500000 0.204732
#
# Coordination Sequence:
#
# PCOD9557390 Si02
#       4
#     4   4   8   1
#     4  10  22  40  59  77 103 139 176 222 275 316
#     4   7  10  20  44  79 114 142 168 201 242 299
#     4   8  14  28  53  83 112 142 174 207 251 312
#     4  12  28  44  56  78 104 128 180 244 280 314
#
# _framework density 21.094298999999999
#
# number of rings (size 3 to 8) (size 9 to 14) (size 15 to 20)
#    0.000    3.529    0.000    2.824    0.000    1.882 
#    0.000    2.353    0.000    5.647    0.000    0.000 
#    0.000    0.000    0.000    0.000    0.000    0.000 
#
# Total GULP energy -94829.689527 kJ/mol
# GULP energy per Si atom -5578.217031 kJ/mol
# Density = 2.104629 g / cm^3
# Si number density = 21.094299 Si / 1000 Ang^3
#
#
#
# Elastic Constant Matrix: (Units=GPa)
#
#
# Indices 1 2 3 4 5 6 
#
# 1 99.0838 21.9137 69.5840 0.0000 0.0000 0.0000
# 2 21.9137 99.0838 69.5840 0.0000 0.0000 0.0000
# 3 69.5840 69.5840 234.0655 0.0000 0.0000 0.0000
# 4 0.0000 0.0000 0.0000 53.4896 0.0000 0.0000
# 5 0.0000 0.0000 0.0000 0.0000 53.4896 0.0000
# 6 0.0000 0.0000 0.0000 0.0000 0.0000 1.4793
#
#
#
# Elastic Compliance Matrix: (Units=1/GPa)
#
#
# Indices 1 2 3 4 5 6 
#
# 1 0.012759 -0.000200 -0.003734 0.000000 0.000000 0.000000
# 2 -0.000200 0.012759 -0.003734 0.000000 0.000000 0.000000
# 3 -0.003734 -0.003734 0.006492 0.000000 0.000000 0.000000
# 4 0.000000 0.000000 0.000000 0.018695 0.000000 0.000000
# 5 0.000000 0.000000 0.000000 0.000000 0.018695 0.000000
# 6 0.000000 0.000000 0.000000 0.000000 0.000000 0.676009
#
#
# Mechanical properties :
#
#
# Convention : Reuss Voigt Hill
#
# Bulk Modulus (GPa) = 59.96758 83.82183 71.89471
# Shear Modulus (GPa) = 6.52485 39.76848 23.14666
#
# Velocity S-wave (km/s) = 1.76065 4.34668 3.31614
# Velocity P-wave (km/s) = 5.71168 8.06316 6.98705
#
# Compressibility (1/GPa) = 0.01667568
#
# Stress axis : x y z
#
# Youngs Moduli (GPa) = 78.37840 78.37840 154.03194
#
# Poissons Ratio (x) = 0.01566 0.57509
# Poissons Ratio (y) = 0.01566 0.57509
# Poissons Ratio (z) = 0.29263 0.29263
#
# Static dielectric constant tensor:
#      x y z
#    x 1.800890 0.000000 0.000000 
#    y 0.000000 1.800890 0.000000 
#    z 0.000000 0.000000 1.723820 
# 
# From -- ./inp_files/2223.got.cif
#   From: 2010.05.17/outbox.cif.g08.bks.cpg/sg115_2_cif.got.tgz:2223.got - 2010.05.20 11:07:42.
