data_PCOD9557686
_publ_section_title
;
Structure prediction by ZEFSAII (Michael W. Deem and Ramdas Pophale) SiO2 
 PCOD9557686
Probable space group: P -4 C 2
;
_chemical_formula_sum "Si O2"
_cell_formula_units_Z 34
_cell_length_a 11.261856
_cell_length_b 11.261856
_cell_length_c 11.979845
_cell_angle_alpha 90.000000
_cell_angle_beta 90.000000
_cell_angle_gamma 90.000000
_cell_volume 1519.396560
_symmetry_space_group_name_H-M "P -4 C 2"
_symmetry_group_IT_number 116
_symmetry_cell_setting 'tetragonal'
loop_
_space_group_symop_operation_xyz
x,y,z
y,-x,-z
-x,-y,z
-y,x,-z
y,x,1/2-z
-y,-x,1/2-z
-x,y,1/2+z
x,-y,1/2+z
loop_
_atom_site_type_symbol
_atom_site_label
_atom_site_fract_x
_atom_site_fract_y
_atom_site_fract_z
Si Si1 0.500000 0.500000 0.000000
Si Si2 0.765368 0.456218 0.965844
Si Si3 0.259605 0.908595 0.193702
Si Si4 0.301673 0.805629 0.958032
Si Si5 0.500000 0.000000 0.186774
Si Si6 0.860811 0.860811 0.250000
O O1 0.626522 0.489784 0.932585
O O2 0.752625 0.320121 0.997490
O O3 0.878613 0.464848 0.882038
O O4 0.791864 0.556866 0.057784
O O5 0.209489 0.790512 0.250000
O O6 0.381230 0.956955 0.247845
O O7 0.162300 0.009879 0.203572
O O8 0.284750 0.891321 0.062856
O O9 0.232962 0.839937 0.848242
#
# Coordination Sequence:
#
# PCOD9557686 Si02
#       6
#     2   8   8   8   4   4
#     4   8  16  32  64  98 136 180 234 276 374 428
#     4   9  18  39  68  99 138 185 225 303 354 445
#     4  11  26  43  68 103 138 190 237 300 362 439
#     4  10  23  43  71 101 142 180 241 292 371 428
#     4  10  20  42  68 102 142 174 252 294 374 428
#     4  12  25  44  68 103 138 192 237 294 358 440
#
# _framework density 22.377305
#
# number of rings (size 3 to 8) (size 9 to 14) (size 15 to 20)
#    0.000    1.882    2.353    0.353    3.294    1.882 
#    0.000    1.176    0.000    4.235    0.000    0.000 
#    0.000    0.000    0.000    0.000    0.000    0.000 
#
# Total GULP energy -189398.397992 kJ/mol
# GULP energy per Si atom -5570.541117 kJ/mol
# Density = 2.232637 g / cm^3
# Si number density = 22.377305 Si / 1000 Ang^3
#
#
#
# Elastic Constant Matrix: (Units=GPa)
#
#
# Indices 1 2 3 4 5 6 
#
# 1 126.3896 42.5137 17.2047 0.0000 0.0000 0.0000
# 2 42.5137 126.3906 17.2044 0.0000 0.0000 0.0000
# 3 17.2047 17.2044 58.2379 0.0000 0.0000 0.0000
# 4 0.0000 0.0000 0.0000 25.3595 0.0000 0.0000
# 5 0.0000 0.0000 0.0000 0.0000 25.3593 0.0000
# 6 0.0000 0.0000 0.0000 0.0000 0.0000 38.6040
#
#
#
# Elastic Compliance Matrix: (Units=1/GPa)
#
#
# Indices 1 2 3 4 5 6 
#
# 1 0.009111 -0.002811 -0.001861 0.000000 0.000000 0.000000
# 2 -0.002811 0.009111 -0.001861 0.000000 0.000000 0.000000
# 3 -0.001861 -0.001861 0.018271 0.000000 0.000000 0.000000
# 4 0.000000 0.000000 0.000000 0.039433 0.000000 0.000000
# 5 0.000000 0.000000 0.000000 0.000000 0.039433 0.000000
# 6 0.000000 0.000000 0.000000 0.000000 0.000000 0.025904
#
#
# Mechanical properties :
#
#
# Convention : Reuss Voigt Hill
#
# Bulk Modulus (GPa) = 42.68816 51.65154 47.16985
# Shear Modulus (GPa) = 30.83789 33.47090 32.15439
#
# Velocity S-wave (km/s) = 3.71629 3.87169 3.79478
# Velocity P-wave (km/s) = 6.12637 6.56650 6.35024
#
# Compressibility (1/GPa) = 0.02342570
#
# Stress axis : x y z
#
# Youngs Moduli (GPa) = 109.75713 109.75813 54.73295
#
# Poissons Ratio (x) = 0.30857 0.10186
# Poissons Ratio (y) = 0.30856 0.10186
# Poissons Ratio (z) = 0.20427 0.20426
#
# Static dielectric constant tensor:
#      x y z
#    x 1.878760 0.000000 0.000000 
#    y 0.000000 1.878760 0.000000 
#    z 0.000000 0.000000 1.791190 
# 
# From -- ./inp_files/1656.got.cif
#   From: 2010.05.17/outbox.cif.g08.bks.cpg/sg116_1_cif.got.tgz:1656.got - 2010.05.20 11:11:43.
