data_PCOD9557551
_publ_section_title
;
Structure prediction by ZEFSAII (Michael W. Deem and Ramdas Pophale) SiO2 
 PCOD9557551
Probable space group: P -4 C 2
;
_chemical_formula_sum "Si O2"
_cell_formula_units_Z 44
_cell_length_a 8.461021
_cell_length_b 8.461021
_cell_length_c 28.632932
_cell_angle_alpha 90.000000
_cell_angle_beta 90.000000
_cell_angle_gamma 90.000000
_cell_volume 2049.799429
_symmetry_space_group_name_H-M "P -4 C 2"
_symmetry_group_IT_number 116
_symmetry_cell_setting 'tetragonal'
loop_
_space_group_symop_operation_xyz
x,y,z
y,-x,-z
-x,-y,z
-y,x,-z
y,x,1/2-z
-y,-x,1/2-z
-x,y,1/2+z
x,-y,1/2+z
loop_
_atom_site_type_symbol
_atom_site_label
_atom_site_fract_x
_atom_site_fract_y
_atom_site_fract_z
Si Si1 0.781712 0.713854 0.111478
Si Si2 0.230266 0.398061 0.792778
Si Si3 0.257355 0.103084 0.207741
Si Si4 0.992629 0.682992 0.457710
Si Si5 0.183721 0.940185 0.438866
Si Si6 0.500000 0.500000 0.635083
O O1 0.785757 0.794005 0.162448
O O2 0.656244 0.571435 0.110137
O O3 0.963873 0.700965 0.094903
O O4 0.716475 0.843608 0.075095
O O5 0.319128 0.319128 0.750000
O O6 0.165094 0.569312 0.777176
O O7 0.355147 0.434560 0.833416
O O8 0.080016 0.287677 0.805397
O O9 0.137862 0.137862 0.250000
O O10 0.152135 0.754061 0.434557
O O11 0.000000 0.500000 0.464552
O O12 0.973335 0.759913 0.508656
O O13 0.000000 0.000000 0.432587
#
# Coordination Sequence:
#
# PCOD9557551 Si02
#       6
#     8   8   8   8   8   4
#     4  10  21  41  69  95 138 183 223 286 337 417
#     4  10  20  39  66  91 136 186 221 279 340 391
#     4  10  22  40  65  99 136 180 236 272 328 408
#     4  11  21  39  71  97 128 173 235 282 345 410
#     4  10  18  45  68  90 125 181 225 274 350 405
#     4  10  21  38  64 103 132 174 226 278 352 412
#
# _framework density 21.465513999999999
#
# number of rings (size 3 to 8) (size 9 to 14) (size 15 to 20)
#    0.000    1.818    3.636    2.455    5.091    0.364 
#   13.091    0.000    4.000    0.000    0.000    0.000 
#    0.000    0.000    0.000    0.000    0.000    0.000 
#
# Total GULP energy -245391.175275 kJ/mol
# GULP energy per Si atom -5577.072165 kJ/mol
# Density = 2.141666 g / cm^3
# Si number density = 21.465514 Si / 1000 Ang^3
#
#
#
# Elastic Constant Matrix: (Units=GPa)
#
#
# Indices 1 2 3 4 5 6 
#
# 1 110.6036 59.1455 28.2443 0.0000 0.0000 0.0000
# 2 59.1455 110.6036 28.2443 0.0000 0.0000 0.0000
# 3 28.2443 28.2443 68.6836 0.0000 0.0000 0.0000
# 4 0.0000 0.0000 0.0000 13.5634 0.0000 0.0000
# 5 0.0000 0.0000 0.0000 0.0000 13.5634 0.0000
# 6 0.0000 0.0000 0.0000 0.0000 0.0000 33.9805
#
#
#
# Elastic Compliance Matrix: (Units=1/GPa)
#
#
# Indices 1 2 3 4 5 6 
#
# 1 0.013129 -0.006304 -0.002807 0.000000 0.000000 0.000000
# 2 -0.006304 0.013129 -0.002807 0.000000 0.000000 0.000000
# 3 -0.002807 -0.002807 0.016868 0.000000 0.000000 0.000000
# 4 0.000000 0.000000 0.000000 0.073728 0.000000 0.000000
# 5 0.000000 0.000000 0.000000 0.000000 0.073728 0.000000
# 6 0.000000 0.000000 0.000000 0.000000 0.000000 0.029429
#
#
# Mechanical properties :
#
#
# Convention : Reuss Voigt Hill
#
# Bulk Modulus (GPa) = 51.83653 57.90653 54.87153
# Shear Modulus (GPa) = 19.97795 23.83856 21.90826
#
# Velocity S-wave (km/s) = 3.05405 3.33611 3.19819
# Velocity P-wave (km/s) = 6.05289 6.47106 6.26546
#
# Compressibility (1/GPa) = 0.01929142
#
# Stress axis : x y z
#
# Youngs Moduli (GPa) = 76.16640 76.16640 59.28459
#
# Poissons Ratio (x) = 0.48016 0.16639
# Poissons Ratio (y) = 0.48016 0.16639
# Poissons Ratio (z) = 0.21377 0.21377
#
# Static dielectric constant tensor:
#      x y z
#    x 1.907730 0.000000 0.000000 
#    y 0.000000 1.907730 0.000000 
#    z 0.000000 0.000000 1.749780 
# 
# From -- ./inp_files/5158.got.cif
#   From: 2010.05.17/outbox.cif.g08.bks.cpg/sg116_3_cif.got.tgz:5158.got - 2010.05.20 11:11:43.
