data_PCOD9557277
_publ_section_title
;
Structure prediction by ZEFSAII (Michael W. Deem and Ramdas Pophale) SiO2 
 PCOD9557277
Probable space group: P -4 M 2
;
_chemical_formula_sum "Si O2"
_cell_formula_units_Z 44
_cell_length_a 9.201383
_cell_length_b 9.201383
_cell_length_c 28.908394
_cell_angle_alpha 90.000000
_cell_angle_beta 90.000000
_cell_angle_gamma 90.000000
_cell_volume 2447.542161
_symmetry_space_group_name_H-M "P -4 M 2"
_symmetry_group_IT_number 115
_symmetry_cell_setting 'tetragonal'
loop_
_space_group_symop_operation_xyz
x,y,z
y,-x,-z
-x,-y,z
-y,x,-z
y,x,-z
-y,-x,-z
-x,y,z
x,-y,z
loop_
_atom_site_type_symbol
_atom_site_label
_atom_site_fract_x
_atom_site_fract_y
_atom_site_fract_z
Si Si1 0.672677 0.827380 0.404817
Si Si2 0.672001 0.673269 0.138656
Si Si3 0.172074 0.326798 0.042582
Si Si4 0.172182 0.826779 0.776134
Si Si5 0.827527 0.827527 0.500000
Si Si6 0.671460 0.826356 0.680330
O O1 0.500000 0.806530 0.405522
O O2 0.741647 0.783913 0.454013
O O3 0.744386 0.740682 0.362939
O O4 0.702367 0.000000 0.398746
O O5 0.500000 0.699954 0.135305
O O6 0.694317 0.500000 0.145598
O O7 0.749986 0.713570 0.090619
O O8 0.741271 0.758633 0.181268
O O9 0.194859 0.500000 0.035558
O O10 0.000000 0.300645 0.045984
O O11 0.240959 0.240959 0.000000
O O12 0.248866 0.785128 0.728000
O O13 0.000000 0.801340 0.773099
O O14 0.195918 0.000000 0.782855
O O15 0.000000 0.804611 0.492409
O O16 0.500000 0.797147 0.683975
O O17 0.691329 0.000000 0.674050
#
# Coordination Sequence:
#
# PCOD9557277 Si02
#       6
#     8   8   8   8   4   8
#     4  10  21  36  55  81 112 144 179 222 271 322
#     4  10  21  37  58  83 111 145 183 223 270 324
#     4  10  21  37  58  83 111 145 184 226 272 322
#     4  10  21  37  58  83 110 142 181 225 272 322
#     4   9  18  34  56  79 106 144 186 225 266 317
#     4  10  21  37  58  82 108 142 183 225 270 322
#
# _framework density 17.977219999999999
#
# number of rings (size 3 to 8) (size 9 to 14) (size 15 to 20)
#    0.000    2.091    0.000    2.727    0.000    7.636 
#    0.000    1.818    0.000    0.000    0.000    0.000 
#    0.000    0.000    0.000    0.000    0.000    0.000 
#
# Total GULP energy -245804.228553 kJ/mol
# GULP energy per Si atom -5586.459740 kJ/mol
# Density = 1.793630 g / cm^3
# Si number density = 17.977220 Si / 1000 Ang^3
#
#
#
# Elastic Constant Matrix: (Units=GPa)
#
#
# Indices 1 2 3 4 5 6 
#
# 1 79.7078 77.1533 105.2177 0.0000 0.0000 0.0000
# 2 77.1533 79.7078 105.2177 0.0000 0.0000 0.0000
# 3 105.2177 105.2177 214.5694 0.0000 0.0000 0.0000
# 4 0.0000 0.0000 0.0000 53.1345 0.0000 0.0000
# 5 0.0000 0.0000 0.0000 0.0000 53.1345 0.0000
# 6 0.0000 0.0000 0.0000 0.0000 0.0000 28.6604
#
#
#
# Elastic Compliance Matrix: (Units=1/GPa)
#
#
# Indices 1 2 3 4 5 6 
#
# 1 0.205052 -0.186420 -0.009137 0.000000 0.000000 0.000000
# 2 -0.186420 0.205052 -0.009137 0.000000 0.000000 0.000000
# 3 -0.009137 -0.009137 0.013621 0.000000 0.000000 0.000000
# 4 0.000000 0.000000 0.000000 0.018820 0.000000 0.000000
# 5 0.000000 0.000000 0.000000 0.000000 0.018820 0.000000
# 6 0.000000 0.000000 0.000000 0.000000 0.000000 0.034891
#
#
# Mechanical properties :
#
#
# Convention : Reuss Voigt Hill
#
# Bulk Modulus (GPa) = 69.73982 105.46248 87.60115
# Shear Modulus (GPa) = 5.49196 32.74562 19.11879
#
# Velocity S-wave (km/s) = 1.74974 4.27254 3.26467
# Velocity P-wave (km/s) = 6.55437 9.11764 7.94012
#
# Compressibility (1/GPa) = 0.01433901
#
# Stress axis : x y z
#
# Youngs Moduli (GPa) = 4.87682 4.87682 73.41578
#
# Poissons Ratio (x) = 0.90913 0.67077
# Poissons Ratio (y) = 0.90913 0.67077
# Poissons Ratio (z) = 0.04456 0.04456
#
# Static dielectric constant tensor:
#      x y z
#    x 1.599840 0.000000 0.000000 
#    y 0.000000 1.599840 0.000000 
#    z 0.000000 0.000000 1.572500 
# 
# From -- ./inp_files/5760.got.cif
#   From: 2010.05.17/outbox.cif.g08.bks.cpg/sg115_3_cif.got.tgz:5760.got - 2010.05.20 11:07:42.
