data_PCOD9557788
_publ_section_title
;
Structure prediction by ZEFSAII (Michael W. Deem and Ramdas Pophale) SiO2 
 PCOD9557788
Probable space group: P -4 C 2
;
_chemical_formula_sum "Si O2"
_cell_formula_units_Z 34
_cell_length_a 11.415367
_cell_length_b 11.415367
_cell_length_c 14.375432
_cell_angle_alpha 90.000000
_cell_angle_beta 90.000000
_cell_angle_gamma 90.000000
_cell_volume 1873.271223
_symmetry_space_group_name_H-M "P -4 C 2"
_symmetry_group_IT_number 116
_symmetry_cell_setting 'tetragonal'
loop_
_space_group_symop_operation_xyz
x,y,z
y,-x,-z
-x,-y,z
-y,x,-z
y,x,1/2-z
-y,-x,1/2-z
-x,y,1/2+z
x,-y,1/2+z
loop_
_atom_site_type_symbol
_atom_site_label
_atom_site_fract_x
_atom_site_fract_y
_atom_site_fract_z
Si Si1 0.395905 0.230878 0.804778
Si Si2 0.412609 0.103281 0.619417
Si Si3 0.860587 0.148117 0.356254
Si Si4 0.000000 0.000000 0.500000
Si Si5 0.471890 0.687762 0.981280
O O1 0.343914 0.343914 0.750000
O O2 0.441791 0.146695 0.723910
O O3 0.279422 0.174632 0.852447
O O4 0.489634 0.264817 0.881172
O O5 0.273529 0.078042 0.623081
O O6 0.430155 0.209267 0.547936
O O7 0.500000 0.000000 0.593214
O O8 0.888828 0.111173 0.250000
O O9 0.902768 0.056838 0.432537
O O10 0.587375 0.625924 0.023732
#
# Coordination Sequence:
#
# PCOD9557788 Si02
#       5
#     8   8   8   2   8
#     4   9  19  42  55  80 126 155 185 244 301 343
#     4  10  22  39  61  85 121 158 196 247 299 356
#     4   9  21  41  58  86 122 155 194 247 305 344
#     4  12  22  36  72  86 112 164 206 252 284 370
#     4  11  21  36  64  92 118 156 199 237 300 370
#
# _framework density 18.150065999999999
#
# number of rings (size 3 to 8) (size 9 to 14) (size 15 to 20)
#    0.000    2.588    4.706    0.353    3.294    1.882 
#    4.235    0.000   10.353    0.000    0.000    0.000 
#    0.000    0.000    0.000    0.000    0.000    0.000 
#
# Total GULP energy -189573.807599 kJ/mol
# GULP energy per Si atom -5575.700224 kJ/mol
# Density = 1.810876 g / cm^3
# Si number density = 18.150066 Si / 1000 Ang^3
#
#
#
# Elastic Constant Matrix: (Units=GPa)
#
#
# Indices 1 2 3 4 5 6 
#
# 1 36.0510 16.7572 24.5374 0.0000 0.0000 0.0000
# 2 16.7572 36.0513 24.5375 0.0000 0.0000 0.0000
# 3 24.5374 24.5375 97.7108 0.0000 0.0000 0.0000
# 4 0.0000 0.0000 0.0000 14.7655 0.0000 0.0000
# 5 0.0000 0.0000 0.0000 0.0000 14.7651 0.0000
# 6 0.0000 0.0000 0.0000 0.0000 0.0000 10.6227
#
#
#
# Elastic Compliance Matrix: (Units=1/GPa)
#
#
# Indices 1 2 3 4 5 6 
#
# 1 0.038265 -0.013564 -0.006203 0.000000 0.000000 0.000000
# 2 -0.013564 0.038265 -0.006203 0.000000 0.000000 0.000000
# 3 -0.006203 -0.006203 0.013350 0.000000 0.000000 0.000000
# 4 0.000000 0.000000 0.000000 0.067726 0.000000 0.000000
# 5 0.000000 0.000000 0.000000 0.000000 0.067727 0.000000
# 6 0.000000 0.000000 0.000000 0.000000 0.000000 0.094138
#
#
# Mechanical properties :
#
#
# Convention : Reuss Voigt Hill
#
# Bulk Modulus (GPa) = 26.35771 33.49746 29.92758
# Shear Modulus (GPa) = 13.01889 14.96275 13.99082
#
# Velocity S-wave (km/s) = 2.68114 2.87434 2.77941
# Velocity P-wave (km/s) = 4.91307 5.43246 5.17928
#
# Compressibility (1/GPa) = 0.03793956
#
# Stress axis : x y z
#
# Youngs Moduli (GPa) = 26.13329 26.13352 74.90818
#
# Poissons Ratio (x) = 0.35449 0.46465
# Poissons Ratio (y) = 0.35448 0.46465
# Poissons Ratio (z) = 0.16210 0.16210
#
# Static dielectric constant tensor:
#      x y z
#    x 1.621160 0.000000 0.000000 
#    y 0.000000 1.621160 0.000000 
#    z 0.000000 0.000000 1.612260 
# 
# From -- ./inp_files/2467.got.cif
#   From: 2010.05.17/outbox.cif.g08.bks.cpg/sg116_2_cif.got.tgz:2467.got - 2010.05.20 11:11:43.
