data_PCOD9557739
_publ_section_title
;
Structure prediction by ZEFSAII (Michael W. Deem and Ramdas Pophale) SiO2 
 PCOD9557739
Probable space group: P -4 C 2
;
_chemical_formula_sum "Si O2"
_cell_formula_units_Z 36
_cell_length_a 7.829388
_cell_length_b 7.829388
_cell_length_c 27.526829
_cell_angle_alpha 90.000000
_cell_angle_beta 90.000000
_cell_angle_gamma 90.000000
_cell_volume 1687.375802
_symmetry_space_group_name_H-M "P -4 C 2"
_symmetry_group_IT_number 116
_symmetry_cell_setting 'tetragonal'
loop_
_space_group_symop_operation_xyz
x,y,z
y,-x,-z
-x,-y,z
-y,x,-z
y,x,1/2-z
-y,-x,1/2-z
-x,y,1/2+z
x,-y,1/2+z
loop_
_atom_site_type_symbol
_atom_site_label
_atom_site_fract_x
_atom_site_fract_y
_atom_site_fract_z
Si Si1 0.367124 0.345656 0.808029
Si Si2 0.222952 0.886461 0.912761
Si Si3 0.500000 0.000000 0.346872
Si Si4 0.367384 0.745388 0.007930
Si Si5 0.888094 0.720746 0.891305
O O1 0.500000 0.500000 0.822172
O O2 0.355599 0.355599 0.750000
O O3 0.201272 0.355744 0.843626
O O4 0.411954 0.144525 0.815135
O O5 0.394766 0.876995 0.882615
O O6 0.258707 0.853338 0.969206
O O7 0.090269 0.750015 0.891386
O O8 0.169906 0.082168 0.902083
O O9 0.558345 0.717097 0.988121
O O10 0.376270 0.829583 0.060429
#
# Coordination Sequence:
#
# PCOD9557739 Si02
#       5
#     8   8   4   8   8
#     4  10  23  46  68  96 132 170 222 284 335 396
#     4  10  21  40  61  93 125 171 211 271 328 401
#     4  10  22  44  70  90 134 172 214 274 344 392
#     4  11  23  35  56  90 131 173 215 265 325 399
#     4  10  22  39  64  89 128 168 219 272 331 395
#
# _framework density 21.334904000000002
#
# number of rings (size 3 to 8) (size 9 to 14) (size 15 to 20)
#    0.000    1.778    0.000    4.000    6.222    4.444 
#    8.000    7.778    0.000    0.000    0.000    0.000 
#    0.000    0.000    0.000    0.000    0.000    0.000 
#
# Total GULP energy -200719.663386 kJ/mol
# GULP energy per Si atom -5575.546205 kJ/mol
# Density = 2.128634 g / cm^3
# Si number density = 21.334904 Si / 1000 Ang^3
#
#
#
# Elastic Constant Matrix: (Units=GPa)
#
#
# Indices 1 2 3 4 5 6 
#
# 1 85.8572 31.4113 50.9575 0.0000 0.0000 0.0000
# 2 31.4113 85.8572 50.9575 0.0000 0.0000 0.0000
# 3 50.9575 50.9575 134.3671 0.0000 0.0000 0.0000
# 4 0.0000 0.0000 0.0000 43.2536 0.0000 0.0000
# 5 0.0000 0.0000 0.0000 0.0000 43.2536 0.0000
# 6 0.0000 0.0000 0.0000 0.0000 0.0000 23.8282
#
#
#
# Elastic Compliance Matrix: (Units=1/GPa)
#
#
# Indices 1 2 3 4 5 6 
#
# 1 0.015543 -0.002824 -0.004824 0.000000 0.000000 0.000000
# 2 -0.002824 0.015543 -0.004824 0.000000 0.000000 0.000000
# 3 -0.004824 -0.004824 0.011101 0.000000 0.000000 0.000000
# 4 0.000000 0.000000 0.000000 0.023119 0.000000 0.000000
# 5 0.000000 0.000000 0.000000 0.000000 0.023119 0.000000
# 6 0.000000 0.000000 0.000000 0.000000 0.000000 0.041967
#
#
# Mechanical properties :
#
#
# Convention : Reuss Voigt Hill
#
# Bulk Modulus (GPa) = 57.98725 63.63712 60.81219
# Shear Modulus (GPa) = 31.03958 33.58406 32.31182
#
# Velocity S-wave (km/s) = 3.81842 3.97184 3.89589
# Velocity P-wave (km/s) = 6.83220 7.13628 6.98590
#
# Compressibility (1/GPa) = 0.01724517
#
# Stress axis : x y z
#
# Youngs Moduli (GPa) = 64.33642 64.33642 90.08124
#
# Poissons Ratio (x) = 0.18166 0.43454
# Poissons Ratio (y) = 0.18166 0.43454
# Poissons Ratio (z) = 0.31035 0.31035
#
# Static dielectric constant tensor:
#      x y z
#    x 2.004910 0.000000 0.000000 
#    y 0.000000 2.004910 0.000000 
#    z 0.000000 0.000000 1.734200 
# 
# From -- ./inp_files/3915.got.cif
#   From: 2010.05.17/outbox.cif.g08.bks.cpg/sg116_2_cif.got.tgz:3915.got - 2010.05.20 11:11:43.
