data_PCOD9557699
_publ_section_title
;
Structure prediction by ZEFSAII (Michael W. Deem and Ramdas Pophale) SiO2 
 PCOD9557699
Probable space group: P -4 C 2
;
_chemical_formula_sum "Si O2"
_cell_formula_units_Z 40
_cell_length_a 11.516792
_cell_length_b 11.516792
_cell_length_c 13.208944
_cell_angle_alpha 90.000000
_cell_angle_beta 90.000000
_cell_angle_gamma 90.000000
_cell_volume 1751.988074
_symmetry_space_group_name_H-M "P -4 C 2"
_symmetry_group_IT_number 116
_symmetry_cell_setting 'tetragonal'
loop_
_space_group_symop_operation_xyz
x,y,z
y,-x,-z
-x,-y,z
-y,x,-z
y,x,1/2-z
-y,-x,1/2-z
-x,y,1/2+z
x,-y,1/2+z
loop_
_atom_site_type_symbol
_atom_site_label
_atom_site_fract_x
_atom_site_fract_y
_atom_site_fract_z
Si Si1 0.393604 0.096536 0.526111
Si Si2 0.320527 0.512082 0.996574
Si Si3 0.943360 0.227448 0.288638
Si Si4 0.339984 0.831513 0.794972
Si Si5 0.404197 0.763680 0.297313
O O1 0.450932 0.218165 0.563661
O O2 0.282924 0.069986 0.598074
O O3 0.525466 0.179388 0.766233
O O4 0.500000 0.000000 0.524746
O O5 0.258777 0.584194 0.083763
O O6 0.412537 0.600659 0.949342
O O7 0.898715 0.101286 0.250000
O O8 0.859584 0.308753 0.222285
O O9 0.071731 0.262275 0.258268
O O10 0.285593 0.714408 0.750000
O O11 0.347532 0.868995 0.913740
O O12 0.356638 0.643362 0.250000
#
# Coordination Sequence:
#
# PCOD9557699 Si02
#       5
#     8   8   8   8   8
#     4  11  24  42  67  95 131 176 225 284 351 428
#     4  10  21  36  56  88 126 161 205 259 324 402
#     4  11  24  43  67  93 127 172 228 286 344 414
#     4  11  25  42  65  97 133 174 223 280 347 425
#     4  10  21  38  61  89 126 169 216 274 338 409
#
# _framework density 22.831206999999999
#
# number of rings (size 3 to 8) (size 9 to 14) (size 15 to 20)
#    0.000    1.400    0.000    6.600    0.000   15.200 
#    0.000    1.000    0.000    2.400    0.000    0.000 
#    0.000    0.000    0.000    0.000    0.000    0.000 
#
# Total GULP energy -222869.325951 kJ/mol
# GULP energy per Si atom -5571.733149 kJ/mol
# Density = 2.277924 g / cm^3
# Si number density = 22.831207 Si / 1000 Ang^3
#
#
#
# Elastic Constant Matrix: (Units=GPa)
#
#
# Indices 1 2 3 4 5 6 
#
# 1 44.7420 58.9776 0.6759 0.0000 0.0000 0.0000
# 2 58.9776 44.7635 0.6763 0.0000 0.0000 0.0000
# 3 0.6759 0.6763 114.4239 0.0000 0.0000 0.0000
# 4 0.0000 0.0000 0.0000 1.4079 0.0000 0.0000
# 5 0.0000 0.0000 0.0000 0.0000 1.4073 0.0000
# 6 0.0000 0.0000 0.0000 0.0000 0.0000 45.5349
#
#
#
# Elastic Compliance Matrix: (Units=1/GPa)
#
#
# Indices 1 2 3 4 5 6 
#
# 1 -0.030337 0.039970 -0.000057 0.000000 0.000000 0.000000
# 2 0.039970 -0.030322 -0.000057 0.000000 0.000000 0.000000
# 3 -0.000057 -0.000057 0.008740 0.000000 0.000000 0.000000
# 4 0.000000 0.000000 0.000000 0.710289 0.000000 0.000000
# 5 0.000000 0.000000 0.000000 0.000000 0.710583 0.000000
# 6 0.000000 0.000000 0.000000 0.000000 0.000000 0.021961
#
#
# Mechanical properties :
#
#
# Convention : Reuss Voigt Hill
#
# Bulk Modulus (GPa) = 35.97836 36.06544 36.02190
# Shear Modulus (GPa) = 3.78654 19.24333 11.51493
#
# Velocity S-wave (km/s) = 1.28922 2.90634 2.24821
# Velocity P-wave (km/s) = 4.24367 5.20512 4.74879
#
# Compressibility (1/GPa) = 0.02779449
#
# Stress axis : x y z
#
# Youngs Moduli (GPa) = -32.96351 -32.97938 114.41510
#
# Poissons Ratio (x) = 1.31820 0.00653
# Poissons Ratio (y) = 1.31756 0.00651
# Poissons Ratio (z) = -0.00188 -0.00188
#
# Static dielectric constant tensor:
#      x y z
#    x 1.923620 0.000000 0.000000 
#    y 0.000000 1.923630 0.000000 
#    z 0.000000 0.000000 1.912400 
# 
# From -- ./inp_files/2538.got.cif
#   From: 2010.05.17/outbox.cif.g08.bks.cpg/sg116_2_cif.got.tgz:2538.got - 2010.05.20 11:11:43.
