data_PCOD9557416
_publ_section_title
;
Structure prediction by ZEFSAII (Michael W. Deem and Ramdas Pophale) SiO2 
 PCOD9557416
Probable space group: P -4 M 2
;
_chemical_formula_sum "Si O2"
_cell_formula_units_Z 29
_cell_length_a 7.755865
_cell_length_b 7.755865
_cell_length_c 22.793895
_cell_angle_alpha 90.000000
_cell_angle_beta 90.000000
_cell_angle_gamma 90.000000
_cell_volume 1371.131239
_symmetry_space_group_name_H-M "P -4 M 2"
_symmetry_group_IT_number 115
_symmetry_cell_setting 'tetragonal'
loop_
_space_group_symop_operation_xyz
x,y,z
y,-x,-z
-x,-y,z
-y,x,-z
y,x,-z
-y,-x,-z
-x,y,z
x,-y,z
loop_
_atom_site_type_symbol
_atom_site_label
_atom_site_fract_x
_atom_site_fract_y
_atom_site_fract_z
Si Si1 0.306527 0.794965 0.436240
Si Si2 0.711977 0.000000 0.902319
Si Si3 0.710370 0.200146 0.312083
Si Si4 0.297656 0.693904 0.817028
Si Si5 0.000000 0.000000 0.000000
O O1 0.226558 0.773443 0.500000
O O2 0.500000 0.724009 0.441188
O O3 0.226447 0.727990 0.375058
O O4 0.316796 0.000000 0.426534
O O5 0.764222 0.166804 0.863571
O O6 0.827117 0.000000 0.960368
O O7 0.500000 0.000000 0.910591
O O8 0.500000 0.210466 0.315719
O O9 0.758024 0.280902 0.250116
O O10 0.759798 0.000000 0.307350
O O11 0.500000 0.677835 0.828451
O O12 0.220737 0.500000 0.820790
#
# Coordination Sequence:
#
# PCOD9557416 Si02
#       5
#     8   4   8   8   1
#     4   9  18  32  47  67  99 137 182 232 282 341
#     4  10  24  44  62  94 132 153 195 248 273 331
#     4   8  15  29  50  75 102 138 185 233 282 340
#     4   9  18  35  60  87 117 152 188 237 297 342
#     4  12  28  44  68  96 124 168 202 220 280 348
#
# _framework density 21.150417999999998
#
# number of rings (size 3 to 8) (size 9 to 14) (size 15 to 20)
#    0.000    3.034    0.000    1.655    1.931    2.759 
#    2.483    2.759    0.000    0.000    0.000    0.000 
#    0.000    0.000    0.000    0.000    0.000    0.000 
#
# Total GULP energy -161452.100814 kJ/mol
# GULP energy per Si atom -5567.313821 kJ/mol
# Density = 2.110228 g / cm^3
# Si number density = 21.150418 Si / 1000 Ang^3
#
#
#
# Elastic Constant Matrix: (Units=GPa)
#
#
# Indices 1 2 3 4 5 6 
#
# 1 53.5520 19.3807 51.5569 0.0000 0.0000 0.0000
# 2 19.3807 53.5518 51.5565 0.0000 0.0000 0.0000
# 3 51.5569 51.5565 189.2198 0.0000 0.0000 0.0000
# 4 0.0000 0.0000 0.0000 31.2197 0.0000 0.0000
# 5 0.0000 0.0000 0.0000 0.0000 31.2197 0.0000
# 6 0.0000 0.0000 0.0000 0.0000 0.0000 6.8273
#
#
#
# Elastic Compliance Matrix: (Units=1/GPa)
#
#
# Indices 1 2 3 4 5 6 
#
# 1 0.025784 -0.003481 -0.006077 0.000000 0.000000 0.000000
# 2 -0.003481 0.025784 -0.006077 0.000000 0.000000 0.000000
# 3 -0.006077 -0.006077 0.008596 0.000000 0.000000 0.000000
# 4 0.000000 0.000000 0.000000 0.032031 0.000000 0.000000
# 5 0.000000 0.000000 0.000000 0.000000 0.032031 0.000000
# 6 0.000000 0.000000 0.000000 0.000000 0.000000 0.146470
#
#
# Mechanical properties :
#
#
# Convention : Reuss Voigt Hill
#
# Bulk Modulus (GPa) = 34.60841 60.14574 47.37708
# Shear Modulus (GPa) = 16.04641 25.44199 20.74420
#
# Velocity S-wave (km/s) = 2.75740 3.47206 3.13516
# Velocity P-wave (km/s) = 5.15133 6.67626 5.96275
#
# Compressibility (1/GPa) = 0.02889471
#
# Stress axis : x y z
#
# Youngs Moduli (GPa) = 38.78426 38.78429 116.32786
#
# Poissons Ratio (x) = 0.13500 0.70691
# Poissons Ratio (y) = 0.13500 0.70691
# Poissons Ratio (z) = 0.23569 0.23569
#
# Static dielectric constant tensor:
#      x y z
#    x 1.793430 0.000000 0.000000 
#    y 0.000000 1.793430 0.000000 
#    z 0.000000 0.000000 1.783180 
# 
# From -- ./inp_files/4597.got.cif
#   From: 2010.05.17/outbox.cif.g08.bks.cpg/sg115_3_cif.got.tgz:4597.got - 2010.05.20 11:07:42.
