data_PCOD9557162
_publ_section_title
;
Structure prediction by ZEFSAII (Michael W. Deem and Ramdas Pophale) SiO2 
 PCOD9557162
Probable space group: P -4 M 2
;
_chemical_formula_sum "Si O2"
_cell_formula_units_Z 44
_cell_length_a 9.497511
_cell_length_b 9.497511
_cell_length_c 28.920046
_cell_angle_alpha 90.000000
_cell_angle_beta 90.000000
_cell_angle_gamma 90.000000
_cell_volume 2608.666673
_symmetry_space_group_name_H-M "P -4 M 2"
_symmetry_group_IT_number 115
_symmetry_cell_setting 'tetragonal'
loop_
_space_group_symop_operation_xyz
x,y,z
y,-x,-z
-x,-y,z
-y,x,-z
y,x,-z
-y,-x,-z
-x,y,z
x,-y,z
loop_
_atom_site_type_symbol
_atom_site_label
_atom_site_fract_x
_atom_site_fract_y
_atom_site_fract_z
Si Si1 0.334168 0.832046 0.276163
Si Si2 0.831259 0.165683 0.631533
Si Si3 0.331829 0.665526 0.553619
Si Si4 0.832724 0.832724 0.000000
Si Si5 0.666958 0.667239 0.816255
Si Si6 0.667179 0.832664 0.908123
O O1 0.500000 0.802469 0.284874
O O2 0.242944 0.791472 0.320661
O O3 0.291506 0.751020 0.229718
O O4 0.319828 0.000000 0.269210
O O5 0.752327 0.239476 0.589267
O O6 0.000000 0.182309 0.625982
O O7 0.799765 0.000000 0.633701
O O8 0.300196 0.699805 0.500000
O O9 0.500000 0.682140 0.559832
O O10 0.298931 0.500000 0.560955
O O11 0.750118 0.788300 0.954031
O O12 0.000000 0.809955 0.993511
O O13 0.500000 0.691678 0.809371
O O14 0.687733 0.500000 0.823305
O O15 0.711557 0.750551 0.862056
O O16 0.500000 0.809359 0.914659
O O17 0.689503 0.000000 0.901712
#
# Coordination Sequence:
#
# PCOD9557162 Si02
#       6
#     8   8   8   4   8   8
#     4   9  18  33  51  70  95 129 166 201 240 288
#     4  10  21  35  51  75 106 136 167 205 249 297
#     4   9  19  36  56  77 101 131 169 210 250 295
#     4   9  18  32  48  67  92 122 156 191 228 274
#     4   9  18  32  49  70  95 122 155 196 240 285
#     4   9  18  32  48  67  93 123 153 188 233 282
#
# _framework density 16.866855000000001
#
# number of rings (size 3 to 8) (size 9 to 14) (size 15 to 20)
#    0.000    2.818    0.000    1.091    0.000    5.091 
#    0.000    4.545    0.000    0.000    0.000    0.000 
#    0.000    0.000    0.000    0.000    0.000    0.000 
#
# Total GULP energy -245364.586444 kJ/mol
# GULP energy per Si atom -5576.467874 kJ/mol
# Density = 1.682847 g / cm^3
# Si number density = 16.866855 Si / 1000 Ang^3
#
#
#
# Elastic Constant Matrix: (Units=GPa)
#
#
# Indices 1 2 3 4 5 6 
#
# 1 55.2418 51.2675 92.0177 0.0000 0.0000 0.0000
# 2 51.2675 55.2417 92.0175 0.0000 0.0000 0.0000
# 3 92.0177 92.0175 201.9888 0.0000 0.0000 0.0000
# 4 0.0000 0.0000 0.0000 54.2280 0.0000 0.0000
# 5 0.0000 0.0000 0.0000 0.0000 54.2274 0.0000
# 6 0.0000 0.0000 0.0000 0.0000 0.0000 22.9366
#
#
#
# Elastic Compliance Matrix: (Units=1/GPa)
#
#
# Indices 1 2 3 4 5 6 
#
# 1 0.147866 -0.103756 -0.020095 0.000000 0.000000 0.000000
# 2 -0.103756 0.147866 -0.020095 0.000000 0.000000 0.000000
# 3 -0.020095 -0.020095 0.023259 0.000000 0.000000 0.000000
# 4 0.000000 0.000000 0.000000 0.018441 0.000000 0.000000
# 5 0.000000 0.000000 0.000000 0.000000 0.018441 0.000000
# 6 0.000000 0.000000 0.000000 0.000000 0.000000 0.043598
#
#
# Mechanical properties :
#
#
# Convention : Reuss Voigt Hill
#
# Bulk Modulus (GPa) = 32.15367 87.00863 59.58115
# Shear Modulus (GPa) = 7.16611 31.42304 19.29457
#
# Velocity S-wave (km/s) = 2.06346 4.32094 3.38588
# Velocity P-wave (km/s) = 4.97813 8.75166 7.11946
#
# Compressibility (1/GPa) = 0.03110065
#
# Stress axis : x y z
#
# Youngs Moduli (GPa) = 6.76288 6.76288 42.99356
#
# Poissons Ratio (x) = 0.70169 0.86394
# Poissons Ratio (y) = 0.70169 0.86393
# Poissons Ratio (z) = 0.13590 0.13590
#
# Static dielectric constant tensor:
#      x y z
#    x 1.559350 0.000000 0.000000 
#    y 0.000000 1.559350 0.000000 
#    z 0.000000 0.000000 1.539920 
# 
# From -- ./inp_files/5752.got.cif
#   From: 2010.05.17/outbox.cif.g08.bks.cpg/sg115_3_cif.got.tgz:5752.got - 2010.05.20 11:07:42.
