data_PCOD9557725
_publ_section_title
;
Structure prediction by ZEFSAII (Michael W. Deem and Ramdas Pophale) SiO2 
 PCOD9557725
Probable space group: P -4 C 2
;
_chemical_formula_sum "Si O2"
_cell_formula_units_Z 36
_cell_length_a 12.083676
_cell_length_b 12.083676
_cell_length_c 12.478469
_cell_angle_alpha 90.000000
_cell_angle_beta 90.000000
_cell_angle_gamma 90.000000
_cell_volume 1822.046467
_symmetry_space_group_name_H-M "P -4 C 2"
_symmetry_group_IT_number 116
_symmetry_cell_setting 'tetragonal'
loop_
_space_group_symop_operation_xyz
x,y,z
y,-x,-z
-x,-y,z
-y,x,-z
y,x,1/2-z
-y,-x,1/2-z
-x,y,1/2+z
x,-y,1/2+z
loop_
_atom_site_type_symbol
_atom_site_label
_atom_site_fract_x
_atom_site_fract_y
_atom_site_fract_z
Si Si1 0.841361 0.695866 0.007049
Si Si2 0.771613 0.935777 0.090262
Si Si3 0.633524 0.183258 0.760581
Si Si4 0.500000 0.500000 0.500000
Si Si5 0.695003 0.564971 0.843468
Si Si6 0.000000 0.000000 0.000000
O O1 0.788485 0.814985 0.037959
O O2 0.838980 0.622332 0.114037
O O3 0.765276 0.649303 0.914061
O O4 0.968697 0.706146 0.971572
O O5 0.707842 0.910192 0.201164
O O6 0.896528 0.982226 0.079805
O O7 0.706159 0.293842 0.750000
O O8 0.520084 0.215449 0.704373
O O9 0.506223 0.607066 0.576926
O O10 0.625704 0.625704 0.750000
#
# Coordination Sequence:
#
# PCOD9557725 Si02
#       6
#     8   8   8   2   8   2
#     4  10  22  40  62  89 123 159 205 258 314 386
#     4   9  19  39  62  89 122 161 204 254 315 380
#     4  10  21  39  60  86 120 159 204 258 314 374
#     4  12  22  40  64  86 120 164 214 264 308 370
#     4  12  24  39  62  90 119 162 211 259 317 384
#     4   8  16  36  66  92 120 162 210 256 308 378
#
# _framework density 19.758002999999999
#
# number of rings (size 3 to 8) (size 9 to 14) (size 15 to 20)
#    0.000    1.778    0.000    5.667    0.000    2.667 
#    0.000   27.222    0.000    0.000    0.000    0.000 
#    0.000    0.000    0.000    0.000    0.000    0.000 
#
# Total GULP energy -200746.317831 kJ/mol
# GULP energy per Si atom -5576.286606 kJ/mol
# Density = 1.971303 g / cm^3
# Si number density = 19.758003 Si / 1000 Ang^3
#
#
#
# Elastic Constant Matrix: (Units=GPa)
#
#
# Indices 1 2 3 4 5 6 
#
# 1 38.7111 17.2005 35.3382 0.0000 0.0000 0.0000
# 2 17.2005 38.7106 35.3384 0.0000 0.0000 0.0000
# 3 35.3382 35.3384 108.3890 0.0000 0.0000 0.0000
# 4 0.0000 0.0000 0.0000 23.1152 0.0000 0.0000
# 5 0.0000 0.0000 0.0000 0.0000 23.1165 0.0000
# 6 0.0000 0.0000 0.0000 0.0000 0.0000 13.8035
#
#
#
# Elastic Compliance Matrix: (Units=1/GPa)
#
#
# Indices 1 2 3 4 5 6 
#
# 1 0.038456 -0.008033 -0.009919 0.000000 0.000000 0.000000
# 2 -0.008033 0.038457 -0.009919 0.000000 0.000000 0.000000
# 3 -0.009919 -0.009919 0.015694 0.000000 0.000000 0.000000
# 4 0.000000 0.000000 0.000000 0.043261 0.000000 0.000000
# 5 0.000000 0.000000 0.000000 0.000000 0.043259 0.000000
# 6 0.000000 0.000000 0.000000 0.000000 0.000000 0.072445
#
#
# Mechanical properties :
#
#
# Convention : Reuss Voigt Hill
#
# Bulk Modulus (GPa) = 27.12569 40.17388 33.64979
# Shear Modulus (GPa) = 15.64434 18.53595 17.09015
#
# Velocity S-wave (km/s) = 2.81694 3.06624 2.94423
# Velocity P-wave (km/s) = 4.93346 5.73698 5.35032
#
# Compressibility (1/GPa) = 0.03686542
#
# Stress axis : x y z
#
# Youngs Moduli (GPa) = 26.00350 26.00292 63.71839
#
# Poissons Ratio (x) = 0.20887 0.63203
# Poissons Ratio (y) = 0.20887 0.63205
# Poissons Ratio (z) = 0.25793 0.25794
#
# Static dielectric constant tensor:
#      x y z
#    x 1.727650 0.000000 0.000000 
#    y 0.000000 1.727660 0.000000 
#    z 0.000000 0.000000 1.698160 
# 
# From -- ./inp_files/1753.got.cif
#   From: 2010.05.17/outbox.cif.g08.bks.cpg/sg116_1_cif.got.tgz:1753.got - 2010.05.20 11:11:43.
