data_PCOD9557953
_publ_section_title
;
Structure prediction by ZEFSAII (Michael W. Deem and Ramdas Pophale) SiO2 
 PCOD9557953
Probable space group: P -4 C 2
;
_chemical_formula_sum "Si O2"
_cell_formula_units_Z 34
_cell_length_a 10.891572
_cell_length_b 10.891572
_cell_length_c 13.604325
_cell_angle_alpha 90.000000
_cell_angle_beta 90.000000
_cell_angle_gamma 90.000000
_cell_volume 1613.831292
_symmetry_space_group_name_H-M "P -4 C 2"
_symmetry_group_IT_number 116
_symmetry_cell_setting 'tetragonal'
loop_
_space_group_symop_operation_xyz
x,y,z
y,-x,-z
-x,-y,z
-y,x,-z
y,x,1/2-z
-y,-x,1/2-z
-x,y,1/2+z
x,-y,1/2+z
loop_
_atom_site_type_symbol
_atom_site_label
_atom_site_fract_x
_atom_site_fract_y
_atom_site_fract_z
Si Si1 0.353705 0.183459 0.191566
Si Si2 0.392479 0.780905 0.274793
Si Si3 0.810453 0.052575 0.169931
Si Si4 0.578455 0.693252 0.990730
Si Si5 0.000000 0.000000 0.000000
O O1 0.295924 0.295924 0.250000
O O2 0.479362 0.158276 0.247774
O O3 0.388049 0.223754 0.082880
O O4 0.255530 0.075790 0.187843
O O5 0.362959 0.637042 0.250000
O O6 0.297733 0.850592 0.200236
O O7 0.389413 0.771686 0.393080
O O8 0.910822 0.089179 0.250000
O O9 0.885763 0.046977 0.067667
O O10 0.654342 0.565256 0.001122
#
# Coordination Sequence:
#
# PCOD9557953 Si02
#       5
#     8   8   8   8   2
#     4  12  24  44  73 105 145 194 238 304 374 454
#     4  11  24  46  70 109 155 183 241 309 370 452
#     4  11  28  50  72 100 143 192 256 315 368 433
#     4  11  23  41  73 112 152 199 236 296 384 462
#     4  12  26  52  80  98 132 208 262 312 376 446
#
# _framework density 21.067875999999998
#
# number of rings (size 3 to 8) (size 9 to 14) (size 15 to 20)
#    0.000    0.706    4.706    2.471    6.588    0.471 
#    4.235    2.353    0.000    0.000    0.000    0.000 
#    0.000    0.000    0.000    0.000    0.000    0.000 
#
# Total GULP energy -189363.141471 kJ/mol
# GULP energy per Si atom -5569.504161 kJ/mol
# Density = 2.101992 g / cm^3
# Si number density = 21.067876 Si / 1000 Ang^3
#
#
#
# Elastic Constant Matrix: (Units=GPa)
#
#
# Indices 1 2 3 4 5 6 
#
# 1 80.4522 40.6041 38.9536 0.0000 0.0000 0.0000
# 2 40.6041 80.4555 38.9524 0.0000 0.0000 0.0000
# 3 38.9536 38.9524 170.2567 0.0000 0.0000 0.0000
# 4 0.0000 0.0000 0.0000 18.2120 0.0000 0.0000
# 5 0.0000 0.0000 0.0000 0.0000 18.2122 0.0000
# 6 0.0000 0.0000 0.0000 0.0000 0.0000 42.2800
#
#
#
# Elastic Compliance Matrix: (Units=1/GPa)
#
#
# Indices 1 2 3 4 5 6 
#
# 1 0.017391 -0.007704 -0.002216 0.000000 0.000000 0.000000
# 2 -0.007704 0.017390 -0.002216 0.000000 0.000000 0.000000
# 3 -0.002216 -0.002216 0.006888 0.000000 0.000000 0.000000
# 4 0.000000 0.000000 0.000000 0.054909 0.000000 0.000000
# 5 0.000000 0.000000 0.000000 0.000000 0.054908 0.000000
# 6 0.000000 0.000000 0.000000 0.000000 0.000000 0.023652
#
#
# Mechanical properties :
#
#
# Convention : Reuss Voigt Hill
#
# Bulk Modulus (GPa) = 57.48394 63.13161 60.30778
# Shear Modulus (GPa) = 24.36543 29.91779 27.14161
#
# Velocity S-wave (km/s) = 3.40446 3.77247 3.59317
# Velocity P-wave (km/s) = 6.54203 7.00044 6.77511
#
# Compressibility (1/GPa) = 0.01739616
#
# Stress axis : x y z
#
# Youngs Moduli (GPa) = 57.50116 57.50424 145.18878
#
# Poissons Ratio (x) = 0.44300 0.32180
# Poissons Ratio (y) = 0.44297 0.32174
# Poissons Ratio (z) = 0.12745 0.12743
#
# Static dielectric constant tensor:
#      x y z
#    x 1.819770 0.000000 0.000000 
#    y 0.000000 1.819770 0.000000 
#    z 0.000000 0.000000 1.789400 
# 
# From -- ./inp_files/1611.got.cif
#   From: 2010.05.17/outbox.cif.g08.bks.cpg/sg116_1_cif.got.tgz:1611.got - 2010.05.20 11:11:43.
