data_PCOD9557927
_publ_section_title
;
Structure prediction by ZEFSAII (Michael W. Deem and Ramdas Pophale) SiO2 
 PCOD9557927
Probable space group: P -4 C 2
;
_chemical_formula_sum "Si O2"
_cell_formula_units_Z 56
_cell_length_a 14.384134
_cell_length_b 14.384134
_cell_length_c 12.145949
_cell_angle_alpha 90.000000
_cell_angle_beta 90.000000
_cell_angle_gamma 90.000000
_cell_volume 2513.037062
_symmetry_space_group_name_H-M "P -4 C 2"
_symmetry_group_IT_number 116
_symmetry_cell_setting 'tetragonal'
loop_
_space_group_symop_operation_xyz
x,y,z
y,-x,-z
-x,-y,z
-y,x,-z
y,x,1/2-z
-y,-x,1/2-z
-x,y,1/2+z
x,-y,1/2+z
loop_
_atom_site_type_symbol
_atom_site_label
_atom_site_fract_x
_atom_site_fract_y
_atom_site_fract_z
Si Si1 0.866631 0.743196 0.593537
Si Si2 0.265881 0.600547 0.702563
Si Si3 0.278341 0.835174 0.966064
Si Si4 0.674851 0.904836 0.151964
Si Si5 0.959118 0.165259 0.693960
Si Si6 0.391546 0.770914 0.245754
Si Si7 0.427744 0.064319 0.578218
O O1 0.771340 0.799946 0.575281
O O2 0.881484 0.696293 0.474348
O O3 0.846081 0.665245 0.683032
O O4 0.946139 0.815445 0.629654
O O5 0.363372 0.636629 0.750000
O O6 0.241348 0.655805 0.590429
O O7 0.186601 0.642614 0.783952
O O8 0.257839 0.489791 0.698547
O O9 0.199200 0.874520 0.885105
O O10 0.343267 0.920894 0.994341
O O11 0.762206 0.953859 0.206719
O O12 0.595968 0.982276 0.163570
O O13 0.930941 0.069060 0.750000
O O14 0.321220 0.678781 0.250000
O O15 0.428011 0.833664 0.138258
O O16 0.500000 0.000000 0.509635
#
# Coordination Sequence:
#
# PCOD9557927 Si02
#       7
#     8   8   8   8   8   8   8
#     4  12  23  41  70  99 144 186 236 292 358 425
#     4  11  24  45  70  98 142 184 244 302 373 441
#     4  11  23  41  70 102 140 186 233 301 364 423
#     4  11  21  41  68 100 136 186 229 297 354 423
#     4  11  22  39  69 104 138 189 241 283 360 432
#     4  12  27  43  68 104 143 190 237 302 374 435
#     4  12  24  41  68 109 144 174 238 297 359 430
#
# _framework density 22.283792999999999
#
# number of rings (size 3 to 8) (size 9 to 14) (size 15 to 20)
#    0.000    0.571    8.571    0.857    2.000    0.286 
#    0.000    0.000    0.000   12.000    0.000    0.000 
#    0.000    0.000    0.000    0.000    0.000    0.000 
#
# Total GULP energy -311875.503066 kJ/mol
# GULP energy per Si atom -5569.205412 kJ/mol
# Density = 2.223307 g / cm^3
# Si number density = 22.283793 Si / 1000 Ang^3
#
#
#
# Elastic Constant Matrix: (Units=GPa)
#
#
# Indices 1 2 3 4 5 6 
#
# 1 86.4288 50.4223 12.7016 0.0000 0.0000 0.0000
# 2 50.4223 86.4316 12.7020 0.0000 0.0000 0.0000
# 3 12.7016 12.7020 57.9008 0.0000 0.0000 0.0000
# 4 0.0000 0.0000 0.0000 15.6264 0.0000 0.0000
# 5 0.0000 0.0000 0.0000 0.0000 15.6259 0.0000
# 6 0.0000 0.0000 0.0000 0.0000 0.0000 34.8331
#
#
#
# Elastic Compliance Matrix: (Units=1/GPa)
#
#
# Indices 1 2 3 4 5 6 
#
# 1 0.017695 -0.010077 -0.001671 0.000000 0.000000 0.000000
# 2 -0.010077 0.017694 -0.001671 0.000000 0.000000 0.000000
# 3 -0.001671 -0.001671 0.018004 0.000000 0.000000 0.000000
# 4 0.000000 0.000000 0.000000 0.063994 0.000000 0.000000
# 5 0.000000 0.000000 0.000000 0.000000 0.063996 0.000000
# 6 0.000000 0.000000 0.000000 0.000000 0.000000 0.028708
#
#
# Mechanical properties :
#
#
# Convention : Reuss Voigt Hill
#
# Bulk Modulus (GPa) = 37.65823 42.49033 40.07428
# Shear Modulus (GPa) = 20.34321 23.54610 21.94465
#
# Velocity S-wave (km/s) = 3.02473 3.25414 3.14153
# Velocity P-wave (km/s) = 5.39766 5.76441 5.58404
#
# Compressibility (1/GPa) = 0.02655462
#
# Stress axis : x y z
#
# Youngs Moduli (GPa) = 56.51383 56.51558 55.54299
#
# Poissons Ratio (x) = 0.56952 0.09281
# Poissons Ratio (y) = 0.56950 0.09282
# Poissons Ratio (z) = 0.09443 0.09444
#
# Static dielectric constant tensor:
#      x y z
#    x 2.069810 0.000000 0.000000 
#    y 0.000000 2.069810 0.000000 
#    z 0.000000 0.000000 1.906780 
# 
# From -- ./inp_files/1998.got.cif
#   From: 2010.05.17/outbox.cif.g08.bks.cpg/sg116_1_cif.got.tgz:1998.got - 2010.05.20 11:11:43.
