data_PCOD9557089
_publ_section_title
;
Structure prediction by ZEFSAII (Michael W. Deem and Ramdas Pophale) SiO2 
 PCOD9557089
Probable space group: P -4 M 2
;
_chemical_formula_sum "Si O2"
_cell_formula_units_Z 40
_cell_length_a 8.105689
_cell_length_b 8.105689
_cell_length_c 29.327585
_cell_angle_alpha 90.000000
_cell_angle_beta 90.000000
_cell_angle_gamma 90.000000
_cell_volume 1926.886684
_symmetry_space_group_name_H-M "P -4 M 2"
_symmetry_group_IT_number 115
_symmetry_cell_setting 'tetragonal'
loop_
_space_group_symop_operation_xyz
x,y,z
y,-x,-z
-x,-y,z
-y,x,-z
y,x,-z
-y,-x,-z
-x,y,z
x,-y,z
loop_
_atom_site_type_symbol
_atom_site_label
_atom_site_fract_x
_atom_site_fract_y
_atom_site_fract_z
Si Si1 0.807795 0.302931 0.450069
Si Si2 0.193491 0.000000 0.799919
Si Si3 0.682315 0.805529 0.355260
Si Si4 0.000000 0.688965 0.300565
Si Si5 0.680478 0.202090 0.147308
Si Si6 0.191922 0.798831 0.049718
O O1 0.749099 0.250902 0.500000
O O2 0.793141 0.500000 0.445588
O O3 0.706819 0.221287 0.409254
O O4 0.000000 0.257324 0.444754
O O5 0.208571 0.000000 0.745803
O O6 0.262141 0.167034 0.822287
O O7 0.000000 0.000000 0.812134
O O8 0.500000 0.743281 0.341996
O O9 0.836761 0.723925 0.330115
O O10 0.689034 0.000000 0.345428
O O11 0.000000 0.500000 0.286575
O O12 0.500000 0.256536 0.163014
O O13 0.710953 0.250831 0.094754
O O14 0.680676 0.000000 0.148326
O O15 0.000000 0.749769 0.055189
O O16 0.193458 0.000000 0.048040
O O17 0.255082 0.744919 0.000000
#
# Coordination Sequence:
#
# PCOD9557089 Si02
#       6
#     8   4   8   4   8   8
#     4  11  23  38  59  91 130 174 217 257 307 367
#     4  10  20  36  58  82 114 150 196 254 308 359
#     4  11  24  43  68  96 126 162 206 259 319 380
#     4  12  26  44  66  92 122 162 208 260 318 383
#     4   9  16  27  47  77 112 146 188 243 299 358
#     4   8  12  20  38  66 100 140 183 226 281 348
#
# _framework density 20.758876999999998
#
# number of rings (size 3 to 8) (size 9 to 14) (size 15 to 20)
#    0.000    2.000    2.000    3.300    0.000    6.000 
#    0.000    2.000    0.000    1.200    0.000    0.000 
#    0.000    0.000    0.000    0.000    0.000    0.000 
#
# Total GULP energy -223389.068391 kJ/mol
# GULP energy per Si atom -5584.726710 kJ/mol
# Density = 2.071163 g / cm^3
# Si number density = 20.758877 Si / 1000 Ang^3
#
#
#
# Elastic Constant Matrix: (Units=GPa)
#
#
# Indices 1 2 3 4 5 6 
#
# 1 67.7246 27.7436 15.0051 0.0000 0.0000 0.0000
# 2 27.7436 67.7233 15.0054 0.0000 0.0000 0.0000
# 3 15.0051 15.0054 87.5146 0.0000 0.0000 0.0000
# 4 0.0000 0.0000 0.0000 -13.9139 0.0000 0.0000
# 5 0.0000 0.0000 0.0000 0.0000 -13.9135 0.0000
# 6 0.0000 0.0000 0.0000 0.0000 0.0000 43.5211
#
#
#
# Elastic Compliance Matrix: (Units=1/GPa)
#
#
# Indices 1 2 3 4 5 6 
#
# 1 0.018042 -0.006970 -0.001898 0.000000 0.000000 0.000000
# 2 -0.006970 0.018042 -0.001898 0.000000 0.000000 0.000000
# 3 -0.001898 -0.001898 0.012078 0.000000 0.000000 0.000000
# 4 0.000000 0.000000 0.000000 -0.071870 0.000000 0.000000
# 5 0.000000 0.000000 0.000000 0.000000 -0.071873 0.000000
# 6 0.000000 0.000000 0.000000 0.000000 0.000000 0.022977
#
#
# Mechanical properties :
#
#
# Convention : Reuss Voigt Hill
#
# Bulk Modulus (GPa) = 37.55535 37.60786 37.58160
# Shear Modulus (GPa) = -118.49890 14.15263 -52.17313
#
# Velocity S-wave (km/s) = -7.56356 2.61389 -5.01871
# Velocity P-wave (km/s) = 7.62536 5.22166 3.92939
#
# Compressibility (1/GPa) = 0.02662737
#
# Stress axis : x y z
#
# Youngs Moduli (GPa) = 55.42721 55.42601 82.79770
#
# Poissons Ratio (x) = 0.38634 0.15717
# Poissons Ratio (y) = 0.38635 0.15718
# Poissons Ratio (z) = 0.10521 0.10522
#
# Static dielectric constant tensor:
#      x y z
#    x 1.749380 0.000000 0.000000 
#    y 0.000000 1.749380 0.000000 
#    z 0.000000 0.000000 1.709780 
# 
# From -- ./inp_files/5490.got.cif
#   From: 2010.05.17/outbox.cif.g08.bks.cpg/sg115_3_cif.got.tgz:5490.got - 2010.05.20 11:07:42.
