data_PCOD9557695
_publ_section_title
;
Structure prediction by ZEFSAII (Michael W. Deem and Ramdas Pophale) SiO2 
 PCOD9557695
Probable space group: P -4 C 2
;
_chemical_formula_sum "Si O2"
_cell_formula_units_Z 40
_cell_length_a 12.735644
_cell_length_b 12.735644
_cell_length_c 13.097652
_cell_angle_alpha 90.000000
_cell_angle_beta 90.000000
_cell_angle_gamma 90.000000
_cell_volume 2124.394990
_symmetry_space_group_name_H-M "P -4 C 2"
_symmetry_group_IT_number 116
_symmetry_cell_setting 'tetragonal'
loop_
_space_group_symop_operation_xyz
x,y,z
y,-x,-z
-x,-y,z
-y,x,-z
y,x,1/2-z
-y,-x,1/2-z
-x,y,1/2+z
x,-y,1/2+z
loop_
_atom_site_type_symbol
_atom_site_label
_atom_site_fract_x
_atom_site_fract_y
_atom_site_fract_z
Si Si1 0.619426 0.114824 0.446160
Si Si2 0.936996 0.387116 0.282509
Si Si3 0.398421 0.868802 0.000204
Si Si4 0.158251 0.826820 0.537898
Si Si5 0.845721 0.017740 0.168395
O O1 0.625534 0.118874 0.325003
O O2 0.512437 0.173894 0.474098
O O3 0.725275 0.144949 0.501820
O O4 0.603498 0.993611 0.478117
O O5 0.859067 0.385998 0.378504
O O6 0.997100 0.275380 0.294895
O O7 0.000000 0.500000 0.283837
O O8 0.296555 0.834178 0.938468
O O9 0.083853 0.841709 0.438365
O O10 0.118459 0.902624 0.628388
O O11 0.915827 0.084174 0.250000
#
# Coordination Sequence:
#
# PCOD9557695 Si02
#       5
#     8   8   8   8   8
#     4  11  19  35  60  80 112 153 200 246 288 349
#     4  11  18  33  61  83 108 147 207 248 289 332
#     4  10  21  35  57  81 113 155 192 248 287 346
#     4  11  21  39  58  87 122 156 201 239 299 362
#     4  11  23  38  58  85 121 168 192 241 301 371
#
# _framework density 18.828890999999999
#
# number of rings (size 3 to 8) (size 9 to 14) (size 15 to 20)
#    0.000    1.200   10.000    0.000    0.000    0.400 
#    0.000    9.000    0.000    0.600    0.000    0.000 
#    0.000    4.000    0.000    0.000    0.000    0.000 
#
# Total GULP energy -222851.378078 kJ/mol
# GULP energy per Si atom -5571.284452 kJ/mol
# Density = 1.878604 g / cm^3
# Si number density = 18.828891 Si / 1000 Ang^3
#
#
#
# Elastic Constant Matrix: (Units=GPa)
#
#
# Indices 1 2 3 4 5 6 
#
# 1 10.8657 119.0555 16.5410 0.0000 0.0000 0.0000
# 2 119.0555 10.8630 16.5489 0.0000 0.0000 0.0000
# 3 16.5410 16.5489 98.0095 0.0000 0.0000 0.0000
# 4 0.0000 0.0000 0.0000 25.5527 0.0000 0.0000
# 5 0.0000 0.0000 0.0000 0.0000 25.5528 0.0000
# 6 0.0000 0.0000 0.0000 0.0000 0.0000 4.9773
#
#
#
# Elastic Compliance Matrix: (Units=1/GPa)
#
#
# Indices 1 2 3 4 5 6 
#
# 1 -0.000600 0.008643 -0.001358 0.000000 0.000000 0.000000
# 2 0.008643 -0.000600 -0.001357 0.000000 0.000000 0.000000
# 3 -0.001358 -0.001357 0.010661 0.000000 0.000000 0.000000
# 4 0.000000 0.000000 0.000000 0.039135 0.000000 0.000000
# 5 0.000000 0.000000 0.000000 0.000000 0.039135 0.000000
# 6 0.000000 0.000000 0.000000 0.000000 0.000000 0.200911
#
#
# Mechanical properties :
#
#
# Convention : Reuss Voigt Hill
#
# Bulk Modulus (GPa) = 46.91235 47.11433 47.01334
# Shear Modulus (GPa) = 17.61234 9.05610 13.33422
#
# Velocity S-wave (km/s) = 3.06173 2.19548 2.66405
# Velocity P-wave (km/s) = 6.12112 5.61280 5.87246
#
# Compressibility (1/GPa) = 0.02131635
#
# Stress axis : x y z
#
# Youngs Moduli (GPa) = -1667.15278 -1666.05476 93.79559
#
# Poissons Ratio (x) = 14.39951 0.12739
# Poissons Ratio (y) = 14.40900 0.12731
# Poissons Ratio (z) = -2.26419 -2.26134
#
# Static dielectric constant tensor:
#      x y z
#    x 1.711660 0.000000 0.000000 
#    y 0.000000 1.711660 0.000000 
#    z 0.000000 0.000000 9.713840 
# 
# From -- ./inp_files/2571.got.cif
#   From: 2010.05.17/outbox.cif.g08.bks.cpg/sg116_2_cif.got.tgz:2571.got - 2010.05.20 11:11:43.
