data_PCOD9557288
_publ_section_title
;
Structure prediction by ZEFSAII (Michael W. Deem and Ramdas Pophale) SiO2 
 PCOD9557288
Probable space group: P -4 M 2
;
_chemical_formula_sum "Si O2"
_cell_formula_units_Z 48
_cell_length_a 9.170261
_cell_length_b 9.170261
_cell_length_c 31.760573
_cell_angle_alpha 90.000000
_cell_angle_beta 90.000000
_cell_angle_gamma 90.000000
_cell_volume 2670.863679
_symmetry_space_group_name_H-M "P -4 M 2"
_symmetry_group_IT_number 115
_symmetry_cell_setting 'tetragonal'
loop_
_space_group_symop_operation_xyz
x,y,z
y,-x,-z
-x,-y,z
-y,x,-z
y,x,-z
-y,-x,-z
-x,y,z
x,-y,z
loop_
_atom_site_type_symbol
_atom_site_label
_atom_site_fract_x
_atom_site_fract_y
_atom_site_fract_z
Si Si1 0.673170 0.326909 0.951170
Si Si2 0.326851 0.673690 0.204162
Si Si3 0.826927 0.827028 0.874586
Si Si4 0.174884 0.827531 0.717234
Si Si5 0.331061 0.677755 0.546007
Si Si6 0.174736 0.329400 0.631046
O O1 0.500000 0.301853 0.944760
O O2 0.698719 0.500000 0.944728
O O3 0.764892 0.234821 0.918272
O O4 0.706598 0.293403 0.000000
O O5 0.500000 0.701267 0.204175
O O6 0.303621 0.500000 0.203319
O O7 0.254401 0.746261 0.163382
O O8 0.254572 0.742837 0.245502
O O9 0.000000 0.801591 0.871754
O O10 0.800861 0.000000 0.871572
O O11 0.218393 0.762156 0.671939
O O12 0.000000 0.805367 0.721989
O O13 0.202945 0.000000 0.719071
O O14 0.274439 0.725562 0.500000
O O15 0.500000 0.720897 0.550353
O O16 0.327258 0.500000 0.544573
O O17 0.243800 0.723139 0.587278
O O18 0.215276 0.500000 0.637178
O O19 0.000000 0.322590 0.627476
#
# Coordination Sequence:
#
# PCOD9557288 Si02
#       6
#     8   8   8   8   8   8
#     4   9  19  37  60  85 113 146 186 230 272 315
#     4  11  24  40  59  83 108 136 175 221 266 315
#     4  11  24  39  56  82 115 148 182 221 266 317
#     4  10  21  37  56  78 106 139 174 213 260 315
#     4   8  14  26  45  68  94 126 165 209 255 302
#     4   9  17  30  49  72  98 130 168 209 254 306
#
# _framework density 17.971716000000001
#
# number of rings (size 3 to 8) (size 9 to 14) (size 15 to 20)
#    0.000    2.333    0.000    3.500    0.000    9.333 
#    0.000    5.000    0.000    1.000    0.000    0.000 
#    0.000    0.000    0.000    0.000    0.000    0.000 
#
# Total GULP energy -267929.304996 kJ/mol
# GULP energy per Si atom -5581.860521 kJ/mol
# Density = 1.793081 g / cm^3
# Si number density = 17.971716 Si / 1000 Ang^3
#
#
#
# Elastic Constant Matrix: (Units=GPa)
#
#
# Indices 1 2 3 4 5 6 
#
# 1 80.0523 75.4241 92.4120 0.0000 0.0000 0.0000
# 2 75.4241 80.0523 92.4122 0.0000 0.0000 0.0000
# 3 92.4120 92.4122 179.9098 0.0000 0.0000 0.0000
# 4 0.0000 0.0000 0.0000 82.4562 0.0000 0.0000
# 5 0.0000 0.0000 0.0000 0.0000 82.4561 0.0000
# 6 0.0000 0.0000 0.0000 0.0000 0.0000 25.6051
#
#
#
# Elastic Compliance Matrix: (Units=1/GPa)
#
#
# Indices 1 2 3 4 5 6 
#
# 1 0.116292 -0.099775 -0.008484 0.000000 0.000000 0.000000
# 2 -0.099775 0.116293 -0.008485 0.000000 0.000000 0.000000
# 3 -0.008484 -0.008485 0.014275 0.000000 0.000000 0.000000
# 4 0.000000 0.000000 0.000000 0.012128 0.000000 0.000000
# 5 0.000000 0.000000 0.000000 0.000000 0.012128 0.000000
# 6 0.000000 0.000000 0.000000 0.000000 0.000000 0.039055
#
#
# Mechanical properties :
#
#
# Convention : Reuss Voigt Hill
#
# Bulk Modulus (GPa) = 74.78146 95.61233 85.19689
# Shear Modulus (GPa) = 9.12217 43.42122 26.27170
#
# Velocity S-wave (km/s) = 2.25541 4.92070 3.82754
# Velocity P-wave (km/s) = 6.96301 9.25211 8.18795
#
# Compressibility (1/GPa) = 0.01337230
#
# Stress axis : x y z
#
# Youngs Moduli (GPa) = 8.59902 8.59896 70.05402
#
# Poissons Ratio (x) = 0.85796 0.59436
# Poissons Ratio (y) = 0.85797 0.59440
# Poissons Ratio (z) = 0.07296 0.07296
#
# Static dielectric constant tensor:
#      x y z
#    x 1.598830 0.000000 0.000000 
#    y 0.000000 1.598830 0.000000 
#    z 0.000000 0.000000 1.601730 
# 
# From -- ./inp_files/6006.got.cif
#   From: 2010.05.17/outbox.cif.g08.bks.cpg/sg115_4_cif.got.tgz:6006.got - 2010.05.20 11:07:42.
