data_PCOD9557294
_publ_section_title
;
Structure prediction by ZEFSAII (Michael W. Deem and Ramdas Pophale) SiO2 
 PCOD9557294
Probable space group: P -4 M 2
;
_chemical_formula_sum "Si O2"
_cell_formula_units_Z 44
_cell_length_a 9.258620
_cell_length_b 9.258620
_cell_length_c 29.414348
_cell_angle_alpha 90.000000
_cell_angle_beta 90.000000
_cell_angle_gamma 90.000000
_cell_volume 2521.458042
_symmetry_space_group_name_H-M "P -4 M 2"
_symmetry_group_IT_number 115
_symmetry_cell_setting 'tetragonal'
loop_
_space_group_symop_operation_xyz
x,y,z
y,-x,-z
-x,-y,z
-y,x,-z
y,x,-z
-y,-x,-z
-x,y,z
x,-y,z
loop_
_atom_site_type_symbol
_atom_site_label
_atom_site_fract_x
_atom_site_fract_y
_atom_site_fract_z
Si Si1 0.328015 0.328015 0.500000
Si Si2 0.328673 0.327862 0.231012
Si Si3 0.166055 0.676226 0.139922
Si Si4 0.669461 0.172677 0.323569
Si Si5 0.323764 0.332808 0.949972
Si Si6 0.171188 0.172901 0.416658
O O1 0.302870 0.500000 0.501408
O O2 0.252874 0.258575 0.455999
O O3 0.500000 0.303102 0.225125
O O4 0.306501 0.500000 0.235867
O O5 0.247330 0.277727 0.185711
O O6 0.282712 0.249880 0.277300
O O7 0.171470 0.500000 0.139563
O O8 0.242536 0.724553 0.093483
O O9 0.000000 0.720113 0.140921
O O10 0.500000 0.208853 0.331440
O O11 0.762526 0.211997 0.367622
O O12 0.678969 0.000000 0.317587
O O13 0.500000 0.330950 0.950918
O O14 0.280593 0.500000 0.944576
O O15 0.278654 0.278654 0.000000
O O16 0.000000 0.200415 0.418168
O O17 0.193147 0.000000 0.423123
#
# Coordination Sequence:
#
# PCOD9557294 Si02
#       6
#     4   8   8   8   8   8
#     4  11  24  39  56  80 108 137 170 209 252 296
#     4   9  17  29  46  68  94 124 157 194 236 282
#     4   9  16  25  39  62  91 119 148 187 234 279
#     4   9  18  33  52  73  99 131 164 200 243 288
#     4   8  13  22  38  59  81 108 145 186 226 272
#     4  10  21  37  57  80 105 135 171 208 248 297
#
# _framework density 17.450222
#
# number of rings (size 3 to 8) (size 9 to 14) (size 15 to 20)
#    0.000    2.818    0.000    2.182    0.000    6.545 
#    0.000    1.818    0.000    1.091    0.000    5.091 
#    0.000    0.000    0.000    0.000    0.000    0.000 
#
# Total GULP energy -245304.469135 kJ/mol
# GULP energy per Si atom -5575.101571 kJ/mol
# Density = 1.741050 g / cm^3
# Si number density = 17.450222 Si / 1000 Ang^3
#
#
#
# Elastic Constant Matrix: (Units=GPa)
#
#
# Indices 1 2 3 4 5 6 
#
# 1 55.0765 46.2175 84.2667 0.0000 0.0000 0.0000
# 2 46.2175 55.0765 84.2667 0.0000 0.0000 0.0000
# 3 84.2667 84.2667 224.2644 0.0000 0.0000 0.0000
# 4 0.0000 0.0000 0.0000 -26.5557 0.0000 0.0000
# 5 0.0000 0.0000 0.0000 0.0000 -26.5556 0.0000
# 6 0.0000 0.0000 0.0000 0.0000 0.0000 15.1462
#
#
#
# Elastic Compliance Matrix: (Units=1/GPa)
#
#
# Indices 1 2 3 4 5 6 
#
# 1 0.069609 -0.043271 -0.009896 0.000000 0.000000 0.000000
# 2 -0.043271 0.069609 -0.009896 0.000000 0.000000 0.000000
# 3 -0.009896 -0.009896 0.011896 0.000000 0.000000 0.000000
# 4 0.000000 0.000000 0.000000 -0.037657 0.000000 0.000000
# 5 0.000000 0.000000 0.000000 0.000000 -0.037657 0.000000
# 6 0.000000 0.000000 0.000000 0.000000 0.000000 0.066023
#
#
# Mechanical properties :
#
#
# Convention : Reuss Voigt Hill
#
# Bulk Modulus (GPa) = 40.02184 84.87993 62.45089
# Shear Modulus (GPa) = 18.09769 0.38475 9.24122
#
# Velocity S-wave (km/s) = 3.22390 0.47007 2.30375
# Velocity P-wave (km/s) = 6.06982 7.00296 6.55302
#
# Compressibility (1/GPa) = 0.02498636
#
# Stress axis : x y z
#
# Youngs Moduli (GPa) = 14.36605 14.36605 84.06106
#
# Poissons Ratio (x) = 0.62163 0.83190
# Poissons Ratio (y) = 0.62163 0.83190
# Poissons Ratio (z) = 0.14217 0.14217
#
# Static dielectric constant tensor:
#      x y z
#    x 1.580220 0.000000 0.000000 
#    y 0.000000 1.580220 0.000000 
#    z 0.000000 0.000000 1.583230 
# 
# From -- ./inp_files/5743.got.cif
#   From: 2010.05.17/outbox.cif.g08.bks.cpg/sg115_3_cif.got.tgz:5743.got - 2010.05.20 11:07:42.
