data_PCOD9557782
_publ_section_title
;
Structure prediction by ZEFSAII (Michael W. Deem and Ramdas Pophale) SiO2 
 PCOD9557782
Probable space group: P -4 C 2
;
_chemical_formula_sum "Si O2"
_cell_formula_units_Z 26
_cell_length_a 11.386951
_cell_length_b 11.386951
_cell_length_c 8.089080
_cell_angle_alpha 90.000000
_cell_angle_beta 90.000000
_cell_angle_gamma 90.000000
_cell_volume 1048.851574
_symmetry_space_group_name_H-M "P -4 C 2"
_symmetry_group_IT_number 116
_symmetry_cell_setting 'tetragonal'
loop_
_space_group_symop_operation_xyz
x,y,z
y,-x,-z
-x,-y,z
-y,x,-z
y,x,1/2-z
-y,-x,1/2-z
-x,y,1/2+z
x,-y,1/2+z
loop_
_atom_site_type_symbol
_atom_site_label
_atom_site_fract_x
_atom_site_fract_y
_atom_site_fract_z
Si Si1 0.000000 0.000000 0.500000
Si Si2 0.669905 0.864378 0.049792
Si Si3 0.901203 0.247326 0.583012
Si Si4 0.554484 0.342892 0.419425
O O1 0.034357 0.880988 0.598126
O O2 0.691524 0.866828 0.245755
O O3 0.783676 0.788956 0.986279
O O4 0.564848 0.792015 0.970986
O O5 0.675143 0.999684 0.001107
O O6 0.420139 0.382947 0.436590
O O7 0.616455 0.383546 0.250000
#
# Coordination Sequence:
#
# PCOD9557782 Si02
#       4
#     2   8   8   8
#     4   8  16  34  56 102 126 196 226 276 298 424
#     4  10  22  38  66  96 139 176 222 272 328 400
#     4   9  20  34  63  95 139 175 227 263 337 386
#     4  11  26  47  77  97 125 169 235 287 340 392
#
# _framework density 24.789019
#
# number of rings (size 3 to 8) (size 9 to 14) (size 15 to 20)
#    0.000    2.154    0.000    1.846   12.923   17.231 
#    0.000    1.538    0.000    0.000    0.000    0.000 
#    0.000    0.000    0.000    0.000    0.000    0.000 
#
# Total GULP energy -145129.744903 kJ/mol
# GULP energy per Si atom -5581.913265 kJ/mol
# Density = 2.473260 g / cm^3
# Si number density = 24.789019 Si / 1000 Ang^3
#
#
#
# Elastic Constant Matrix: (Units=GPa)
#
#
# Indices 1 2 3 4 5 6 
#
# 1 36.9820 9.9942 2.4095 0.0000 0.0000 0.0000
# 2 9.9942 36.9818 2.4095 0.0000 0.0000 0.0000
# 3 2.4095 2.4095 98.6994 0.0000 0.0000 0.0000
# 4 0.0000 0.0000 0.0000 26.3858 0.0000 0.0000
# 5 0.0000 0.0000 0.0000 0.0000 26.3856 0.0000
# 6 0.0000 0.0000 0.0000 0.0000 0.0000 59.1937
#
#
#
# Elastic Compliance Matrix: (Units=1/GPa)
#
#
# Indices 1 2 3 4 5 6 
#
# 1 0.029197 -0.007857 -0.000521 0.000000 0.000000 0.000000
# 2 -0.007857 0.029197 -0.000521 0.000000 0.000000 0.000000
# 3 -0.000521 -0.000521 0.010157 0.000000 0.000000 0.000000
# 4 0.000000 0.000000 0.000000 0.037899 0.000000 0.000000
# 5 0.000000 0.000000 0.000000 0.000000 0.037899 0.000000
# 6 0.000000 0.000000 0.000000 0.000000 0.000000 0.016894
#
#
# Mechanical properties :
#
#
# Convention : Reuss Voigt Hill
#
# Bulk Modulus (GPa) = 19.70250 22.47663 21.08957
# Shear Modulus (GPa) = 25.51546 32.91636 29.21591
#
# Velocity S-wave (km/s) = 3.21176 3.64794 3.43677
# Velocity P-wave (km/s) = 4.66039 5.17978 4.92693
#
# Compressibility (1/GPa) = 0.05075497
#
# Stress axis : x y z
#
# Youngs Moduli (GPa) = 34.24973 34.24954 98.45219
#
# Poissons Ratio (x) = 0.26908 0.05129
# Poissons Ratio (y) = 0.26908 0.05129
# Poissons Ratio (z) = 0.01784 0.01784
#
# Static dielectric constant tensor:
#      x y z
#    x 2.001210 0.000000 0.000000 
#    y 0.000000 2.001210 0.000000 
#    z 0.000000 0.000000 1.981010 
# 
# From -- ./inp_files/496.got.cif
#   From: 2010.05.17/outbox.cif.g08.bks.cpg/sg116_1_cif.got.tgz:496.got - 2010.05.20 11:11:43.
