data_PCOD9557206
_publ_section_title
;
Structure prediction by ZEFSAII (Michael W. Deem and Ramdas Pophale) SiO2 
 PCOD9557206
Probable space group: P -4 M 2
;
_chemical_formula_sum "Si O2"
_cell_formula_units_Z 44
_cell_length_a 9.336512
_cell_length_b 9.336512
_cell_length_c 29.268582
_cell_angle_alpha 90.000000
_cell_angle_beta 90.000000
_cell_angle_gamma 90.000000
_cell_volume 2551.355649
_symmetry_space_group_name_H-M "P -4 M 2"
_symmetry_group_IT_number 115
_symmetry_cell_setting 'tetragonal'
loop_
_space_group_symop_operation_xyz
x,y,z
y,-x,-z
-x,-y,z
-y,x,-z
y,x,-z
-y,-x,-z
-x,y,z
x,-y,z
loop_
_atom_site_type_symbol
_atom_site_label
_atom_site_fract_x
_atom_site_fract_y
_atom_site_fract_z
Si Si1 0.330516 0.669485 0.500000
Si Si2 0.671061 0.830192 0.675059
Si Si3 0.674296 0.165399 0.141808
Si Si4 0.827406 0.668400 0.959561
Si Si5 0.169764 0.670634 0.593366
Si Si6 0.328649 0.331788 0.767549
O O1 0.500000 0.690941 0.509228
O O2 0.240445 0.708515 0.544714
O O3 0.500000 0.805810 0.669197
O O4 0.754943 0.756815 0.633782
O O5 0.713858 0.758067 0.723113
O O6 0.695744 0.000000 0.676114
O O7 0.500000 0.167689 0.140827
O O8 0.718946 0.217183 0.091399
O O9 0.719156 0.255991 0.185591
O O10 0.717928 0.000000 0.147267
O O11 0.791135 0.500000 0.964110
O O12 0.000000 0.679645 0.961227
O O13 0.755989 0.755989 0.000000
O O14 0.193586 0.500000 0.600258
O O15 0.000000 0.696295 0.592619
O O16 0.500000 0.322393 0.772389
O O17 0.292075 0.500000 0.760593
#
# Coordination Sequence:
#
# PCOD9557206 Si02
#       6
#     4   8   8   8   8   8
#     4   9  18  34  56  79 104 136 172 209 248 293
#     4  10  21  36  53  74 103 138 171 205 249 298
#     4   8  15  29  48  69  94 124 159 201 247 294
#     4   9  18  32  49  71  99 130 165 204 247 296
#     4  10  21  36  55  80 107 135 170 210 250 295
#     4   9  17  30  50  74  97 124 162 206 249 295
#
# _framework density 17.245735
#
# number of rings (size 3 to 8) (size 9 to 14) (size 15 to 20)
#    0.000    2.818    0.000    2.182    0.000    4.727 
#    0.000    6.364    0.000    3.273    0.000    0.000 
#    0.000    0.000    0.000    0.000    0.000    0.000 
#
# Total GULP energy -245316.240748 kJ/mol
# GULP energy per Si atom -5575.369108 kJ/mol
# Density = 1.720648 g / cm^3
# Si number density = 17.245735 Si / 1000 Ang^3
#
#
#
# Elastic Constant Matrix: (Units=GPa)
#
#
# Indices 1 2 3 4 5 6 
#
# 1 48.2048 46.3477 82.6826 0.0000 0.0000 0.0000
# 2 46.3477 48.2046 82.6827 0.0000 0.0000 0.0000
# 3 82.6826 82.6827 213.3017 0.0000 0.0000 0.0000
# 4 0.0000 0.0000 0.0000 -32.8000 0.0000 0.0000
# 5 0.0000 0.0000 0.0000 0.0000 -32.8034 0.0000
# 6 0.0000 0.0000 0.0000 0.0000 0.0000 20.5087
#
#
#
# Elastic Compliance Matrix: (Units=1/GPa)
#
#
# Indices 1 2 3 4 5 6 
#
# 1 0.285674 -0.252837 -0.012728 0.000000 0.000000 0.000000
# 2 -0.252837 0.285679 -0.012731 0.000000 0.000000 0.000000
# 3 -0.012728 -0.012731 0.014557 0.000000 0.000000 0.000000
# 4 0.000000 0.000000 0.000000 -0.030488 0.000000 0.000000
# 5 0.000000 0.000000 0.000000 0.000000 -0.030485 0.000000
# 6 0.000000 0.000000 0.000000 0.000000 0.000000 0.048760
#
#
# Mechanical properties :
#
#
# Convention : Reuss Voigt Hill
#
# Bulk Modulus (GPa) = 34.10976 81.45966 57.78471
# Shear Modulus (GPa) = 4.38573 -2.48572 0.95000
#
# Velocity S-wave (km/s) = 1.59643 -1.20187 0.74301
# Velocity P-wave (km/s) = 4.81869 6.73879 5.85794
#
# Compressibility (1/GPa) = 0.02931712
#
# Stress axis : x y z
#
# Youngs Moduli (GPa) = 3.50050 3.50043 68.69589
#
# Poissons Ratio (x) = 0.88504 0.87438
# Poissons Ratio (y) = 0.88506 0.87455
# Poissons Ratio (z) = 0.04456 0.04456
#
# Static dielectric constant tensor:
#      x y z
#    x 1.573140 0.000000 0.000000 
#    y 0.000000 1.573140 0.000000 
#    z 0.000000 0.000000 1.571910 
# 
# From -- ./inp_files/5812.got.cif
#   From: 2010.05.17/outbox.cif.g08.bks.cpg/sg115_3_cif.got.tgz:5812.got - 2010.05.20 11:07:42.
