data_PCOD9557095
_publ_section_title
;
Structure prediction by ZEFSAII (Michael W. Deem and Ramdas Pophale) SiO2 
 PCOD9557095
Probable space group: P -4 M 2
;
_chemical_formula_sum "Si O2"
_cell_formula_units_Z 48
_cell_length_a 8.199109
_cell_length_b 8.199109
_cell_length_c 35.754850
_cell_angle_alpha 90.000000
_cell_angle_beta 90.000000
_cell_angle_gamma 90.000000
_cell_volume 2403.633678
_symmetry_space_group_name_H-M "P -4 M 2"
_symmetry_group_IT_number 115
_symmetry_cell_setting 'tetragonal'
loop_
_space_group_symop_operation_xyz
x,y,z
y,-x,-z
-x,-y,z
-y,x,-z
y,x,-z
-y,-x,-z
-x,y,z
x,-y,z
loop_
_atom_site_type_symbol
_atom_site_label
_atom_site_fract_x
_atom_site_fract_y
_atom_site_fract_z
Si Si1 0.000000 0.197274 0.170296
Si Si2 0.693450 0.000000 0.744005
Si Si3 0.817917 0.694120 0.614691
Si Si4 0.817301 0.694622 0.961015
Si Si5 0.199947 0.689885 0.879042
Si Si6 0.689607 0.197587 0.303892
Si Si7 0.809972 0.680968 0.462761
O O1 0.167688 0.249973 0.149490
O O2 0.000000 0.253802 0.212875
O O3 0.000000 0.000000 0.169385
O O4 0.755971 0.832801 0.724536
O O5 0.500000 0.000000 0.741124
O O6 0.831469 0.500000 0.618380
O O7 0.741719 0.742597 0.654525
O O8 0.733460 0.726629 0.575514
O O9 0.000000 0.766413 0.612035
O O10 0.828421 0.500000 0.958295
O O11 0.743401 0.741577 0.920867
O O12 0.000000 0.764629 0.963001
O O13 0.733564 0.733564 0.000000
O O14 0.248765 0.500000 0.871094
O O15 0.000000 0.687581 0.880191
O O16 0.500000 0.249479 0.295634
O O17 0.684493 0.000000 0.306096
O O18 0.784444 0.784444 0.500000
O O19 0.754572 0.500000 0.473077
O O20 0.000000 0.679738 0.454043
#
# Coordination Sequence:
#
# PCOD9557095 Si02
#       7
#     4   4   8   8   8   8   8
#     4  10  20  36  60  82 106 150 204 244 294 354
#     4  12  26  40  58  90 130 160 192 246 306 374
#     4   9  19  37  61  87 112 141 182 233 286 340
#     4   9  18  31  48  75 108 141 180 229 281 333
#     4   8  16  32  53  79 110 141 186 245 292 341
#     4   9  20  41  67  92 119 155 201 249 298 358
#     4  11  24  38  53  78 112 149 192 235 278 334
#
# _framework density 19.969763
#
# number of rings (size 3 to 8) (size 9 to 14) (size 15 to 20)
#    0.000    2.500    0.000    3.750    2.333    5.667 
#    0.000    4.167    0.000    1.000    0.000    0.000 
#    0.000    0.000    0.000    0.000    0.000    0.000 
#
# Total GULP energy -267378.752423 kJ/mol
# GULP energy per Si atom -5570.390675 kJ/mol
# Density = 1.992431 g / cm^3
# Si number density = 19.969763 Si / 1000 Ang^3
#
#
#
# Elastic Constant Matrix: (Units=GPa)
#
#
# Indices 1 2 3 4 5 6 
#
# 1 45.8575 18.5147 41.4574 0.0000 0.0000 0.0000
# 2 18.5147 45.8575 41.4574 0.0000 0.0000 0.0000
# 3 41.4574 41.4574 162.7157 0.0000 0.0000 0.0000
# 4 0.0000 0.0000 0.0000 47.6463 0.0000 0.0000
# 5 0.0000 0.0000 0.0000 0.0000 47.6463 0.0000
# 6 0.0000 0.0000 0.0000 0.0000 0.0000 17.0024
#
#
#
# Elastic Compliance Matrix: (Units=1/GPa)
#
#
# Indices 1 2 3 4 5 6 
#
# 1 0.029848 -0.006725 -0.005891 0.000000 0.000000 0.000000
# 2 -0.006725 0.029848 -0.005891 0.000000 0.000000 0.000000
# 3 -0.005891 -0.005891 0.009148 0.000000 0.000000 0.000000
# 4 0.000000 0.000000 0.000000 0.020988 0.000000 0.000000
# 5 0.000000 0.000000 0.000000 0.000000 0.020988 0.000000
# 6 0.000000 0.000000 0.000000 0.000000 0.000000 0.058815
#
#
# Mechanical properties :
#
#
# Convention : Reuss Voigt Hill
#
# Bulk Modulus (GPa) = 31.41851 50.80996 41.11423
# Shear Modulus (GPa) = 23.01397 32.65907 27.83652
#
# Velocity S-wave (km/s) = 3.39844 4.04843 3.73759
# Velocity P-wave (km/s) = 5.58269 6.88126 6.26571
#
# Compressibility (1/GPa) = 0.03182837
#
# Stress axis : x y z
#
# Youngs Moduli (GPa) = 33.50320 33.50320 109.31634
#
# Poissons Ratio (x) = 0.22530 0.64403
# Poissons Ratio (y) = 0.22530 0.64403
# Poissons Ratio (z) = 0.19738 0.19738
#
# Static dielectric constant tensor:
#      x y z
#    x 1.721590 0.000000 0.000000 
#    y 0.000000 1.721590 0.000000 
#    z 0.000000 0.000000 1.724080 
# 
# From -- ./inp_files/6207.got.cif
#   From: 2010.05.17/outbox.cif.g08.bks.cpg/sg115_4_cif.got.tgz:6207.got - 2010.05.20 11:07:42.
