data_PCOD9557362
_publ_section_title
;
Structure prediction by ZEFSAII (Michael W. Deem and Ramdas Pophale) SiO2 
 PCOD9557362
Probable space group: P -4 M 2
;
_chemical_formula_sum "Si O2"
_cell_formula_units_Z 17
_cell_length_a 11.674185
_cell_length_b 11.674185
_cell_length_c 6.488939
_cell_angle_alpha 90.000000
_cell_angle_beta 90.000000
_cell_angle_gamma 90.000000
_cell_volume 884.355404
_symmetry_space_group_name_H-M "P -4 M 2"
_symmetry_group_IT_number 115
_symmetry_cell_setting 'tetragonal'
loop_
_space_group_symop_operation_xyz
x,y,z
y,-x,-z
-x,-y,z
-y,x,-z
y,x,-z
-y,-x,-z
-x,y,z
x,-y,z
loop_
_atom_site_type_symbol
_atom_site_label
_atom_site_fract_x
_atom_site_fract_y
_atom_site_fract_z
Si Si1 0.630985 0.000000 0.840418
Si Si2 0.000000 0.232156 0.764948
Si Si3 0.368038 0.185835 0.483038
Si Si4 0.000000 0.000000 0.500000
O O1 0.638392 0.889041 0.692756
O O2 0.500000 0.000000 0.932723
O O3 0.739206 0.000000 0.993283
O O4 0.111293 0.297609 0.679959
O O5 0.000000 0.109111 0.654072
O O6 0.307131 0.307131 0.500000
O O7 0.500000 0.193594 0.423898
#
# Coordination Sequence:
#
# PCOD9557362 Si02
#       4
#     4   4   8   1
#     4   9  20  39  65  87 117 166 204 235 300 371
#     4  11  21  42  59  86 123 159 194 251 307 359
#     4  10  21  39  60  88 122 157 203 248 295 357
#     4  12  24  40  62  96 122 144 204 254 304 364
#
# _framework density 19.223042
#
# number of rings (size 3 to 8) (size 9 to 14) (size 15 to 20)
#    0.000    1.882    2.353    3.529    0.000    2.353 
#    0.000    7.059    0.000    0.000    0.000    6.588 
#    0.000    0.000    0.000    0.000    0.000    0.000 
#
# Total GULP energy -94874.138855 kJ/mol
# GULP energy per Si atom -5580.831697 kJ/mol
# Density = 1.917929 g / cm^3
# Si number density = 19.223042 Si / 1000 Ang^3
#
#
#
# Elastic Constant Matrix: (Units=GPa)
#
#
# Indices 1 2 3 4 5 6 
#
# 1 125.4596 53.9362 16.6008 0.0000 0.0000 0.0000
# 2 53.9362 125.4596 16.6008 0.0000 0.0000 0.0000
# 3 16.6008 16.6008 42.9973 0.0000 0.0000 0.0000
# 4 0.0000 0.0000 0.0000 3.0924 0.0000 0.0000
# 5 0.0000 0.0000 0.0000 0.0000 3.0924 0.0000
# 6 0.0000 0.0000 0.0000 0.0000 0.0000 31.3231
#
#
#
# Elastic Compliance Matrix: (Units=1/GPa)
#
#
# Indices 1 2 3 4 5 6 
#
# 1 0.009992 -0.003989 -0.002318 0.000000 0.000000 0.000000
# 2 -0.003989 0.009992 -0.002318 0.000000 0.000000 0.000000
# 3 -0.002318 -0.002318 0.025047 0.000000 0.000000 0.000000
# 4 0.000000 0.000000 0.000000 0.323375 0.000000 0.000000
# 5 0.000000 0.000000 0.000000 0.000000 0.323375 0.000000
# 6 0.000000 0.000000 0.000000 0.000000 0.000000 0.031925
#
#
# Mechanical properties :
#
#
# Convention : Reuss Voigt Hill
#
# Bulk Modulus (GPa) = 35.99408 52.02136 44.00772
# Shear Modulus (GPa) = 6.66474 21.28681 13.97577
#
# Velocity S-wave (km/s) = 1.86402 3.33131 2.69928
# Velocity P-wave (km/s) = 4.83714 6.47438 5.71469
#
# Compressibility (1/GPa) = 0.02778234
#
# Stress axis : x y z
#
# Youngs Moduli (GPa) = 100.07666 100.07666 39.92488
#
# Poissons Ratio (x) = 0.39922 0.09254
# Poissons Ratio (y) = 0.39922 0.09254
# Poissons Ratio (z) = 0.23196 0.23196
#
# Static dielectric constant tensor:
#      x y z
#    x 1.671470 0.000000 0.000000 
#    y 0.000000 1.671470 0.000000 
#    z 0.000000 0.000000 1.697010 
# 
# From -- ./inp_files/115.got.cif
#   From: 2010.05.17/outbox.cif.g08.bks.cpg/sg115_1_cif.got.tgz:115.got - 2010.05.20 11:07:42.
