data_PCOD9557804
_publ_section_title
;
Structure prediction by ZEFSAII (Michael W. Deem and Ramdas Pophale) SiO2 
 PCOD9557804
Probable space group: P -4 C 2
;
_chemical_formula_sum "Si O2"
_cell_formula_units_Z 26
_cell_length_a 10.203607
_cell_length_b 10.203607
_cell_length_c 9.411554
_cell_angle_alpha 90.000000
_cell_angle_beta 90.000000
_cell_angle_gamma 90.000000
_cell_volume 979.870729
_symmetry_space_group_name_H-M "P -4 C 2"
_symmetry_group_IT_number 116
_symmetry_cell_setting 'tetragonal'
loop_
_space_group_symop_operation_xyz
x,y,z
y,-x,-z
-x,-y,z
-y,x,-z
y,x,1/2-z
-y,-x,1/2-z
-x,y,1/2+z
x,-y,1/2+z
loop_
_atom_site_type_symbol
_atom_site_label
_atom_site_fract_x
_atom_site_fract_y
_atom_site_fract_z
Si Si1 0.922192 0.730823 0.493329
Si Si2 0.000000 0.000000 0.000000
Si Si3 0.540358 0.317371 0.439921
Si Si4 0.105076 0.611653 0.705669
O O1 0.800815 0.640238 0.535601
O O2 0.910465 0.724096 0.323427
O O3 0.050738 0.661466 0.555306
O O4 0.922137 0.875351 0.561438
O O5 0.444628 0.365742 0.568700
O O6 0.444223 0.249449 0.325038
O O7 0.000000 0.500000 0.751996
#
# Coordination Sequence:
#
# PCOD9557804 Si02
#       4
#     8   2   8   8
#     4  11  25  44  67 101 141 187 242 299 363 437
#     4  12  28  46  72 102 144 198 248 302 364 438
#     4  10  22  41  67 100 137 178 229 296 372 443
#     4  10  22  44  72 102 143 187 236 301 368 438
#
# _framework density 26.534115
#
# number of rings (size 3 to 8) (size 9 to 14) (size 15 to 20)
#    0.000    1.538    0.000    4.615    0.000    8.615 
#    0.000    9.231    0.000    0.000    0.000    0.000 
#    0.000    0.000    0.000    0.000    0.000    0.000 
#
# Total GULP energy -144956.615508 kJ/mol
# GULP energy per Si atom -5575.254443 kJ/mol
# Density = 2.647372 g / cm^3
# Si number density = 26.534115 Si / 1000 Ang^3
#
#
#
# Elastic Constant Matrix: (Units=GPa)
#
#
# Indices 1 2 3 4 5 6 
#
# 1 172.3071 60.6043 52.8317 0.0000 0.0000 0.0000
# 2 60.6043 172.3071 52.8317 0.0000 0.0000 0.0000
# 3 52.8317 52.8317 112.9853 0.0000 0.0000 0.0000
# 4 0.0000 0.0000 0.0000 15.0460 0.0000 0.0000
# 5 0.0000 0.0000 0.0000 0.0000 15.0460 0.0000
# 6 0.0000 0.0000 0.0000 0.0000 0.0000 66.3378
#
#
#
# Elastic Compliance Matrix: (Units=1/GPa)
#
#
# Indices 1 2 3 4 5 6 
#
# 1 0.007201 -0.001751 -0.002548 0.000000 0.000000 0.000000
# 2 -0.001751 0.007201 -0.002548 0.000000 0.000000 0.000000
# 3 -0.002548 -0.002548 0.011234 0.000000 0.000000 0.000000
# 4 0.000000 0.000000 0.000000 0.066463 0.000000 0.000000
# 5 0.000000 0.000000 0.000000 0.000000 0.066463 0.000000
# 6 0.000000 0.000000 0.000000 0.000000 0.000000 0.015074
#
#
# Mechanical properties :
#
#
# Convention : Reuss Voigt Hill
#
# Bulk Modulus (GPa) = 83.75176 87.79276 85.77226
# Shear Modulus (GPa) = 26.13540 38.70808 32.42174
#
# Velocity S-wave (km/s) = 3.14183 3.82357 3.49934
# Velocity P-wave (km/s) = 6.69282 7.25614 6.98016
#
# Compressibility (1/GPa) = 0.01194005
#
# Stress axis : x y z
#
# Youngs Moduli (GPa) = 138.87142 138.87142 89.01751
#
# Poissons Ratio (x) = 0.24322 0.22683
# Poissons Ratio (y) = 0.24322 0.22683
# Poissons Ratio (z) = 0.35387 0.35387
#
# Static dielectric constant tensor:
#      x y z
#    x 2.126030 0.000000 0.000000 
#    y 0.000000 2.126030 0.000000 
#    z 0.000000 0.000000 2.098200 
# 
# From -- ./inp_files/530.got.cif
#   From: 2010.05.17/outbox.cif.g08.bks.cpg/sg116_1_cif.got.tgz:530.got - 2010.05.20 11:11:43.
