data_PCOD9557258
_publ_section_title
;
Structure prediction by ZEFSAII (Michael W. Deem and Ramdas Pophale) SiO2 
 PCOD9557258
Probable space group: P -4 M 2
;
_chemical_formula_sum "Si O2"
_cell_formula_units_Z 60
_cell_length_a 12.480881
_cell_length_b 12.480881
_cell_length_c 19.833193
_cell_angle_alpha 90.000000
_cell_angle_beta 90.000000
_cell_angle_gamma 90.000000
_cell_volume 3089.463886
_symmetry_space_group_name_H-M "P -4 M 2"
_symmetry_group_IT_number 115
_symmetry_cell_setting 'tetragonal'
loop_
_space_group_symop_operation_xyz
x,y,z
y,-x,-z
-x,-y,z
-y,x,-z
y,x,-z
-y,-x,-z
-x,y,z
x,-y,z
loop_
_atom_site_type_symbol
_atom_site_label
_atom_site_fract_x
_atom_site_fract_y
_atom_site_fract_z
Si Si1 0.377790 0.201245 0.906533
Si Si2 0.803185 0.373927 0.888837
Si Si3 0.878876 0.708529 0.487820
Si Si4 0.381054 0.270951 0.629265
Si Si5 0.124239 0.333305 0.242627
Si Si6 0.760400 0.120001 0.237965
Si Si7 0.837567 0.620607 0.634266
Si Si8 0.000000 0.345596 0.995003
O O1 0.500000 0.226610 0.927653
O O2 0.295281 0.299677 0.914059
O O3 0.377421 0.168615 0.827832
O O4 0.341669 0.095528 0.947105
O O5 0.776863 0.500000 0.885168
O O6 0.836529 0.325961 0.816122
O O7 0.905313 0.359055 0.937369
O O8 0.823582 0.823582 0.500000
O O9 0.804269 0.648343 0.434155
O O10 0.876471 0.648608 0.559426
O O11 0.000000 0.716654 0.462966
O O12 0.500000 0.314132 0.622416
O O13 0.372796 0.196543 0.695513
O O14 0.290340 0.360844 0.633829
O O15 0.143640 0.205026 0.239043
O O16 0.000000 0.359634 0.251565
O O17 0.704053 0.120288 0.310742
O O18 0.793253 0.000000 0.219462
O O19 0.865977 0.500000 0.652515
#
# Coordination Sequence:
#
# PCOD9557258 Si02
#       8
#     8   8   8   8   8   8   8   4
#     4  11  23  39  62  90 120 155 194 239 291 346
#     4  11  23  39  62  90 120 155 194 239 291 346
#     4  10  21  36  54  80 112 146 187 232 278 330
#     4  10  21  36  55  81 112 147 189 235 283 336
#     4  10  21  37  58  85 116 151 193 238 286 341
#     4  10  21  37  58  85 116 151 193 238 286 341
#     4  10  21  36  55  81 112 147 189 235 283 336
#     4  12  23  40  64  87 116 151 192 238 283 342
#
# _framework density 19.420846000000001
#
# number of rings (size 3 to 8) (size 9 to 14) (size 15 to 20)
#    0.000    1.600    1.333    3.600    0.000    4.667 
#    0.000    0.000    0.000   16.800    0.000    0.000 
#    0.000    0.000    0.000    0.000    0.000    0.000 
#
# Total GULP energy -334018.421332 kJ/mol
# GULP energy per Si atom -5566.973689 kJ/mol
# Density = 1.937664 g / cm^3
# Si number density = 19.420846 Si / 1000 Ang^3
#
#
#
# Elastic Constant Matrix: (Units=GPa)
#
#
# Indices 1 2 3 4 5 6 
#
# 1 39.6878 74.2233 -9.7839 0.0000 0.0000 0.0000
# 2 74.2233 39.6878 -9.7839 0.0000 0.0000 0.0000
# 3 -9.7839 -9.7839 94.6767 0.0000 0.0000 0.0000
# 4 0.0000 0.0000 0.0000 11.1040 0.0000 0.0000
# 5 0.0000 0.0000 0.0000 0.0000 11.1040 0.0000
# 6 0.0000 0.0000 0.0000 0.0000 0.0000 -3.3233
#
#
#
# Elastic Compliance Matrix: (Units=1/GPa)
#
#
# Indices 1 2 3 4 5 6 
#
# 1 -0.010009 0.018947 0.000924 0.000000 0.000000 0.000000
# 2 0.018947 -0.010009 0.000924 0.000000 0.000000 0.000000
# 3 0.000924 0.000924 0.010753 0.000000 0.000000 0.000000
# 4 0.000000 0.000000 0.000000 0.090058 0.000000 0.000000
# 5 0.000000 0.000000 0.000000 0.000000 0.090058 0.000000
# 6 0.000000 0.000000 0.000000 0.000000 0.000000 -0.300902
#
#
# Mechanical properties :
#
#
# Convention : Reuss Voigt Hill
#
# Bulk Modulus (GPa) = 30.93831 31.48482 31.21157
# Shear Modulus (GPa) = -31.08195 11.73669 -9.67263
#
# Velocity S-wave (km/s) = -4.00489 2.46099 -2.23413
# Velocity P-wave (km/s) = 2.32820 4.93177 3.07424
#
# Compressibility (1/GPa) = 0.03232239
#
# Stress axis : x y z
#
# Youngs Moduli (GPa) = -99.90889 -99.90889 92.99598
#
# Poissons Ratio (x) = 1.89293 -0.08589
# Poissons Ratio (y) = 1.89293 -0.08589
# Poissons Ratio (z) = 0.09227 0.09227
#
# Static dielectric constant tensor:
#      x y z
#    x 1.669190 0.000000 0.000000 
#    y 0.000000 1.669190 0.000000 
#    z 0.000000 0.000000 1.680120 
# 
# From -- ./inp_files/5001.got.cif
#   From: 2010.05.17/outbox.cif.g08.bks.cpg/sg115_3_cif.got.tgz:5001.got - 2010.05.20 11:07:42.
