data_PCOD9557022
_publ_section_title
;
Structure prediction by ZEFSAII (Michael W. Deem and Ramdas Pophale) SiO2 
 PCOD9557022
Probable space group: P -4 M 2
;
_chemical_formula_sum "Si O2"
_cell_formula_units_Z 48
_cell_length_a 9.151394
_cell_length_b 9.151394
_cell_length_c 31.839578
_cell_angle_alpha 90.000000
_cell_angle_beta 90.000000
_cell_angle_gamma 90.000000
_cell_volume 2666.501365
_symmetry_space_group_name_H-M "P -4 M 2"
_symmetry_group_IT_number 115
_symmetry_cell_setting 'tetragonal'
loop_
_space_group_symop_operation_xyz
x,y,z
y,-x,-z
-x,-y,z
-y,x,-z
y,x,-z
-y,-x,-z
-x,y,z
x,-y,z
loop_
_atom_site_type_symbol
_atom_site_label
_atom_site_fract_x
_atom_site_fract_y
_atom_site_fract_z
Si Si1 0.673758 0.174070 0.960354
Si Si2 0.671129 0.676261 0.296589
Si Si3 0.825710 0.673024 0.539165
Si Si4 0.675603 0.827661 0.118185
Si Si5 0.825077 0.171600 0.625741
Si Si6 0.322339 0.668308 0.203096
O O1 0.500000 0.200364 0.962012
O O2 0.740658 0.242844 0.918257
O O3 0.698210 0.000000 0.961362
O O4 0.751004 0.248997 0.000000
O O5 0.500000 0.717048 0.300933
O O6 0.679100 0.500000 0.298503
O O7 0.761544 0.747248 0.333800
O O8 0.723417 0.718336 0.249633
O O9 0.743414 0.743414 0.500000
O O10 0.800550 0.500000 0.540996
O O11 0.779876 0.746556 0.583048
O O12 0.000000 0.698266 0.534241
O O13 0.500000 0.805884 0.113958
O O14 0.720636 0.767249 0.163898
O O15 0.704312 0.000000 0.114699
O O16 0.000000 0.190457 0.630178
O O17 0.793926 0.000000 0.621851
O O18 0.500000 0.666933 0.204403
O O19 0.275596 0.500000 0.196489
#
# Coordination Sequence:
#
# PCOD9557022 Si02
#       6
#     8   8   8   8   8   8
#     4  11  24  40  58  81 108 140 179 220 264 316
#     4   9  18  33  54  80 108 139 178 223 268 313
#     4  10  21  37  57  80 105 136 174 215 262 315
#     4  10  20  34  55  84 113 141 177 219 264 316
#     4  10  21  36  54  77 106 141 179 217 260 313
#     4   8  15  30  52  77 106 141 180 221 264 310
#
# _framework density 18.001114000000001
#
# number of rings (size 3 to 8) (size 9 to 14) (size 15 to 20)
#    0.000    2.333    0.000    3.500    0.000    8.000 
#    0.000    2.500    0.000    1.000    0.000    0.000 
#    0.000    0.000    0.000    0.000    0.000    0.000 
#
# Total GULP energy -267943.821451 kJ/mol
# GULP energy per Si atom -5582.162947 kJ/mol
# Density = 1.796014 g / cm^3
# Si number density = 18.001114 Si / 1000 Ang^3
#
#
#
# Elastic Constant Matrix: (Units=GPa)
#
#
# Indices 1 2 3 4 5 6 
#
# 1 70.3945 66.4027 85.2750 0.0000 0.0000 0.0000
# 2 66.4027 70.3956 85.2755 0.0000 0.0000 0.0000
# 3 85.2750 85.2755 205.3889 0.0000 0.0000 0.0000
# 4 0.0000 0.0000 0.0000 102.7855 0.0000 0.0000
# 5 0.0000 0.0000 0.0000 0.0000 102.7791 0.0000
# 6 0.0000 0.0000 0.0000 0.0000 0.0000 26.5421
#
#
#
# Elastic Compliance Matrix: (Units=1/GPa)
#
#
# Indices 1 2 3 4 5 6 
#
# 1 0.132817 -0.117661 -0.006292 0.000000 0.000000 0.000000
# 2 -0.117661 0.132814 -0.006292 0.000000 0.000000 0.000000
# 3 -0.006292 -0.006292 0.010094 0.000000 0.000000 0.000000
# 4 0.000000 0.000000 0.000000 0.009729 0.000000 0.000000
# 5 0.000000 0.000000 0.000000 0.000000 0.009730 0.000000
# 6 0.000000 0.000000 0.000000 0.000000 0.000000 0.037676
#
#
# Mechanical properties :
#
#
# Convention : Reuss Voigt Hill
#
# Bulk Modulus (GPa) = 65.64009 91.12062 78.38035
# Shear Modulus (GPa) = 8.35523 53.70306 31.02915
#
# Velocity S-wave (km/s) = 2.15675 5.46790 4.15629
# Velocity P-wave (km/s) = 6.53802 9.51805 8.16514
#
# Compressibility (1/GPa) = 0.01523459
#
# Stress axis : x y z
#
# Youngs Moduli (GPa) = 7.52917 7.52931 99.07326
#
# Poissons Ratio (x) = 0.88591 0.62339
# Poissons Ratio (y) = 0.88589 0.62334
# Poissons Ratio (z) = 0.04738 0.04737
#
# Static dielectric constant tensor:
#      x y z
#    x 1.599380 0.000000 0.000000 
#    y 0.000000 1.599380 0.000000 
#    z 0.000000 0.000000 1.597620 
# 
# From -- ./inp_files/5987.got.cif
#   From: 2010.05.17/outbox.cif.g08.bks.cpg/sg115_3_cif.got.tgz:5987.got - 2010.05.20 11:07:42.
