data_PCOD9557729
_publ_section_title
;
Structure prediction by ZEFSAII (Michael W. Deem and Ramdas Pophale) SiO2 
 PCOD9557729
Probable space group: P -4 C 2
;
_chemical_formula_sum "Si O2"
_cell_formula_units_Z 38
_cell_length_a 14.046564
_cell_length_b 14.046564
_cell_length_c 9.331993
_cell_angle_alpha 90.000000
_cell_angle_beta 90.000000
_cell_angle_gamma 90.000000
_cell_volume 1841.257840
_symmetry_space_group_name_H-M "P -4 C 2"
_symmetry_group_IT_number 116
_symmetry_cell_setting 'tetragonal'
loop_
_space_group_symop_operation_xyz
x,y,z
y,-x,-z
-x,-y,z
-y,x,-z
y,x,1/2-z
-y,-x,1/2-z
-x,y,1/2+z
x,-y,1/2+z
loop_
_atom_site_type_symbol
_atom_site_label
_atom_site_fract_x
_atom_site_fract_y
_atom_site_fract_z
Si Si1 0.483977 0.774562 0.055745
Si Si2 0.649443 0.497370 0.197995
Si Si3 0.109080 0.109080 0.750000
Si Si4 0.000000 0.000000 0.500000
Si Si5 0.912799 0.320265 0.377089
Si Si6 0.404000 0.941016 0.430046
O O1 0.504787 0.748770 0.219085
O O2 0.380591 0.826152 0.050132
O O3 0.489520 0.676504 0.966661
O O4 0.568886 0.839914 0.996524
O O5 0.579135 0.579135 0.250000
O O6 0.600488 0.399513 0.250000
O O7 0.215350 0.103266 0.684334
O O8 0.042781 0.078244 0.613060
O O9 0.937309 0.381521 0.236410
O O10 0.001712 0.323398 0.484938
O O11 0.500000 0.000000 0.453328
#
# Coordination Sequence:
#
# PCOD9557729 Si02
#       6
#     8   8   4   2   8   8
#     4  11  22  39  64  92 128 169 214 264 315 379
#     4  11  24  41  60  86 128 177 215 255 310 370
#     4  11  24  44  70  96 125 172 218 274 331 412
#     4  10  24  50  68  90 136 174 208 262 364 414
#     4  11  23  38  68  96 127 161 214 270 325 393
#     4  10  21  39  62  93 130 165 201 260 337 382
#
# _framework density 20.638068000000001
#
# number of rings (size 3 to 8) (size 9 to 14) (size 15 to 20)
#    0.000    1.263    2.105    4.421    4.421    3.368 
#    0.000    0.000    0.000    0.000    0.000    0.000 
#    0.000    0.000    0.000    0.000    0.000    0.000 
#
# Total GULP energy -211943.144242 kJ/mol
# GULP energy per Si atom -5577.451164 kJ/mol
# Density = 2.059109 g / cm^3
# Si number density = 20.638068 Si / 1000 Ang^3
#
#
#
# Elastic Constant Matrix: (Units=GPa)
#
#
# Indices 1 2 3 4 5 6 
#
# 1 63.8578 20.5010 19.1276 0.0000 0.0000 0.0000
# 2 20.5010 63.8594 19.1277 0.0000 0.0000 0.0000
# 3 19.1276 19.1277 98.1550 0.0000 0.0000 0.0000
# 4 0.0000 0.0000 0.0000 42.7167 0.0000 0.0000
# 5 0.0000 0.0000 0.0000 0.0000 42.7168 0.0000
# 6 0.0000 0.0000 0.0000 0.0000 0.0000 23.2544
#
#
#
# Elastic Compliance Matrix: (Units=1/GPa)
#
#
# Indices 1 2 3 4 5 6 
#
# 1 0.018034 -0.005030 -0.002534 0.000000 0.000000 0.000000
# 2 -0.005030 0.018033 -0.002534 0.000000 0.000000 0.000000
# 3 -0.002534 -0.002534 0.011176 0.000000 0.000000 0.000000
# 4 0.000000 0.000000 0.000000 0.023410 0.000000 0.000000
# 5 0.000000 0.000000 0.000000 0.000000 0.023410 0.000000
# 6 0.000000 0.000000 0.000000 0.000000 0.000000 0.043003
#
#
# Mechanical properties :
#
#
# Convention : Reuss Voigt Hill
#
# Bulk Modulus (GPa) = 36.97402 38.15386 37.56394
# Shear Modulus (GPa) = 30.07027 32.87867 31.47447
#
# Velocity S-wave (km/s) = 3.82125 3.99571 3.90945
# Velocity P-wave (km/s) = 6.11748 6.30990 6.21443
#
# Compressibility (1/GPa) = 0.02704601
#
# Stress axis : x y z
#
# Youngs Moduli (GPa) = 55.45145 55.45293 89.48104
#
# Poissons Ratio (x) = 0.27895 0.22674
# Poissons Ratio (y) = 0.27895 0.22674
# Poissons Ratio (z) = 0.14051 0.14051
#
# Static dielectric constant tensor:
#      x y z
#    x 1.769180 0.000000 0.000000 
#    y 0.000000 1.769180 0.000000 
#    z 0.000000 0.000000 1.700060 
# 
# From -- ./inp_files/723.got.cif
#   From: 2010.05.17/outbox.cif.g08.bks.cpg/sg116_1_cif.got.tgz:723.got - 2010.05.20 11:11:43.
