data_PCOD9557175
_publ_section_title
;
Structure prediction by ZEFSAII (Michael W. Deem and Ramdas Pophale) SiO2 
 PCOD9557175
Probable space group: P -4 M 2
;
_chemical_formula_sum "Si O2"
_cell_formula_units_Z 48
_cell_length_a 9.281468
_cell_length_b 9.281468
_cell_length_c 31.541778
_cell_angle_alpha 90.000000
_cell_angle_beta 90.000000
_cell_angle_gamma 90.000000
_cell_volume 2717.186912
_symmetry_space_group_name_H-M "P -4 M 2"
_symmetry_group_IT_number 115
_symmetry_cell_setting 'tetragonal'
loop_
_space_group_symop_operation_xyz
x,y,z
y,-x,-z
-x,-y,z
-y,x,-z
y,x,-z
-y,-x,-z
-x,y,z
x,-y,z
loop_
_atom_site_type_symbol
_atom_site_label
_atom_site_fract_x
_atom_site_fract_y
_atom_site_fract_z
Si Si1 0.671424 0.170370 0.289615
Si Si2 0.829930 0.828048 0.126127
Si Si3 0.328763 0.671257 0.202722
Si Si4 0.669653 0.672992 0.451984
Si Si5 0.329303 0.171617 0.038299
Si Si6 0.169535 0.827662 0.375848
O O1 0.500000 0.188089 0.296545
O O2 0.711986 0.258632 0.247790
O O3 0.754869 0.216187 0.331831
O O4 0.698892 0.000000 0.282402
O O5 0.759694 0.743414 0.164960
O O6 0.749222 0.791226 0.082373
O O7 0.000000 0.798244 0.122512
O O8 0.811813 0.000000 0.132981
O O9 0.500000 0.699355 0.196422
O O10 0.307256 0.500000 0.203611
O O11 0.713650 0.713650 0.500000
O O12 0.500000 0.707274 0.447014
O O13 0.683854 0.500000 0.448773
O O14 0.759385 0.749804 0.415726
O O15 0.500000 0.198173 0.041542
O O16 0.307885 0.000000 0.031054
O O17 0.259511 0.259511 0.000000
O O18 0.000000 0.798046 0.373917
O O19 0.190160 0.000000 0.380095
#
# Coordination Sequence:
#
# PCOD9557175 Si02
#       6
#     8   8   8   8   8   8
#     4   9  18  34  55  76 102 141 184 220 257 308
#     4  10  21  37  58  82 108 142 182 222 265 314
#     4  10  21  36  55  81 111 141 175 218 267 316
#     4   9  19  36  56  77 102 135 176 219 262 311
#     4  10  21  37  58  83 110 142 180 221 266 316
#     4  10  21  35  52  78 110 140 172 214 263 314
#
# _framework density 17.665327000000001
#
# number of rings (size 3 to 8) (size 9 to 14) (size 15 to 20)
#    0.000    2.333    0.000    2.500    0.000    7.000 
#    0.000    5.833    0.000    0.000    0.000    0.000 
#    0.000    0.000    0.000    0.000    0.000    0.000 
#
# Total GULP energy -267992.986310 kJ/mol
# GULP energy per Si atom -5583.187215 kJ/mol
# Density = 1.762512 g / cm^3
# Si number density = 17.665327 Si / 1000 Ang^3
#
#
#
# Elastic Constant Matrix: (Units=GPa)
#
#
# Indices 1 2 3 4 5 6 
#
# 1 72.2620 67.6014 101.4857 0.0000 0.0000 0.0000
# 2 67.6014 72.2620 101.4857 0.0000 0.0000 0.0000
# 3 101.4857 101.4857 210.3824 0.0000 0.0000 0.0000
# 4 0.0000 0.0000 0.0000 38.1970 0.0000 0.0000
# 5 0.0000 0.0000 0.0000 0.0000 38.1970 0.0000
# 6 0.0000 0.0000 0.0000 0.0000 0.0000 28.3486
#
#
#
# Elastic Compliance Matrix: (Units=1/GPa)
#
#
# Indices 1 2 3 4 5 6 
#
# 1 0.119202 -0.095365 -0.011498 0.000000 0.000000 0.000000
# 2 -0.095365 0.119202 -0.011498 0.000000 0.000000 0.000000
# 3 -0.011498 -0.011498 0.015847 0.000000 0.000000 0.000000
# 4 0.000000 0.000000 0.000000 0.026180 0.000000 0.000000
# 5 0.000000 0.000000 0.000000 0.000000 0.026180 0.000000
# 6 0.000000 0.000000 0.000000 0.000000 0.000000 0.035275
#
#
# Mechanical properties :
#
#
# Convention : Reuss Voigt Hill
#
# Bulk Modulus (GPa) = 57.05839 99.56135 78.30987
# Shear Modulus (GPa) = 8.55503 26.57073 17.56288
#
# Velocity S-wave (km/s) = 2.20303 3.88250 3.15652
# Velocity P-wave (km/s) = 6.23225 8.75103 7.59676
#
# Compressibility (1/GPa) = 0.01752591
#
# Stress axis : x y z
#
# Youngs Moduli (GPa) = 8.38914 8.38914 63.10515
#
# Poissons Ratio (x) = 0.80003 0.72561
# Poissons Ratio (y) = 0.80003 0.72561
# Poissons Ratio (z) = 0.09646 0.09646
#
# Static dielectric constant tensor:
#      x y z
#    x 1.587610 0.000000 0.000000 
#    y 0.000000 1.587610 0.000000 
#    z 0.000000 0.000000 1.567410 
# 
# From -- ./inp_files/5965.got.cif
#   From: 2010.05.17/outbox.cif.g08.bks.cpg/sg115_3_cif.got.tgz:5965.got - 2010.05.20 11:07:42.
