data_PCOD9557520
_publ_section_title
;
Structure prediction by ZEFSAII (Michael W. Deem and Ramdas Pophale) SiO2 
 PCOD9557520
Probable space group: P -4 C 2
;
_chemical_formula_sum "Si O2"
_cell_formula_units_Z 40
_cell_length_a 12.730062
_cell_length_b 12.730062
_cell_length_c 14.227557
_cell_angle_alpha 90.000000
_cell_angle_beta 90.000000
_cell_angle_gamma 90.000000
_cell_volume 2305.639330
_symmetry_space_group_name_H-M "P -4 C 2"
_symmetry_group_IT_number 116
_symmetry_cell_setting 'tetragonal'
loop_
_space_group_symop_operation_xyz
x,y,z
y,-x,-z
-x,-y,z
-y,x,-z
y,x,1/2-z
-y,-x,1/2-z
-x,y,1/2+z
x,-y,1/2+z
loop_
_atom_site_type_symbol
_atom_site_label
_atom_site_fract_x
_atom_site_fract_y
_atom_site_fract_z
Si Si1 0.262987 0.279163 0.861690
Si Si2 0.268990 0.703108 0.855342
Si Si3 0.609132 0.519497 0.849854
Si Si4 0.882611 0.376638 0.006424
Si Si5 0.127152 0.372098 0.006028
O O1 0.261980 0.261980 0.750000
O O2 0.322042 0.387456 0.889893
O O3 0.327974 0.186885 0.910255
O O4 0.153302 0.303028 0.913027
O O5 0.255656 0.744345 0.750000
O O6 0.329808 0.590584 0.845971
O O7 0.333276 0.789516 0.915507
O O8 0.162960 0.677564 0.912309
O O9 0.500000 0.500000 0.900608
O O10 0.571218 0.571218 0.750000
O O11 0.863555 0.501653 0.995973
O O12 0.004314 0.355788 0.027042
#
# Coordination Sequence:
#
# PCOD9557520 Si02
#       5
#     8   8   8   8   8
#     4  10  21  36  57  82 113 156 194 230 289 345
#     4  11  21  36  57  87 116 156 196 240 289 347
#     4  10  17  29  51  83 120 143 181 221 278 355
#     4  10  22  38  55  83 120 156 197 238 286 349
#     4  10  22  38  55  83 120 157 196 237 288 346
#
# _framework density 17.348766999999999
#
# number of rings (size 3 to 8) (size 9 to 14) (size 15 to 20)
#    0.000    1.800    4.000    1.200    2.800    1.600 
#    0.000    4.000    0.000    9.600    0.000   11.200 
#    0.000    0.000    0.000    0.000    0.000    0.000 
#
# Total GULP energy -222724.303336 kJ/mol
# GULP energy per Si atom -5568.107583 kJ/mol
# Density = 1.730928 g / cm^3
# Si number density = 17.348767 Si / 1000 Ang^3
#
#
#
# Elastic Constant Matrix: (Units=GPa)
#
#
# Indices 1 2 3 4 5 6 
#
# 1 87.7191 63.7324 42.7931 0.0000 0.0000 0.0000
# 2 63.7324 87.7188 42.7929 0.0000 0.0000 0.0000
# 3 42.7931 42.7929 129.5937 0.0000 0.0000 0.0000
# 4 0.0000 0.0000 0.0000 9.8878 0.0000 0.0000
# 5 0.0000 0.0000 0.0000 0.0000 9.8875 0.0000
# 6 0.0000 0.0000 0.0000 0.0000 0.0000 23.0417
#
#
#
# Elastic Compliance Matrix: (Units=1/GPa)
#
#
# Indices 1 2 3 4 5 6 
#
# 1 0.024904 -0.016786 -0.002681 0.000000 0.000000 0.000000
# 2 -0.016786 0.024904 -0.002680 0.000000 0.000000 0.000000
# 3 -0.002681 -0.002680 0.009487 0.000000 0.000000 0.000000
# 4 0.000000 0.000000 0.000000 0.101135 0.000000 0.000000
# 5 0.000000 0.000000 0.000000 0.000000 0.101137 0.000000
# 6 0.000000 0.000000 0.000000 0.000000 0.000000 0.043400
#
#
# Mechanical properties :
#
#
# Convention : Reuss Voigt Hill
#
# Bulk Modulus (GPa) = 66.66751 67.07424 66.87088
# Shear Modulus (GPa) = 14.11391 18.94429 16.52910
#
# Velocity S-wave (km/s) = 2.85536 3.30808 3.09002
# Velocity P-wave (km/s) = 7.02723 7.30324 7.16657
#
# Compressibility (1/GPa) = 0.01499981
#
# Stress axis : x y z
#
# Youngs Moduli (GPa) = 40.15458 40.15449 105.41112
#
# Poissons Ratio (x) = 0.67404 0.28255
# Poissons Ratio (y) = 0.67404 0.28255
# Poissons Ratio (z) = 0.10763 0.10763
#
# Static dielectric constant tensor:
#      x y z
#    x 1.621930 0.000000 0.000000 
#    y 0.000000 1.621930 0.000000 
#    z 0.000000 0.000000 1.690800 
# 
# From -- ./inp_files/2559.got.cif
#   From: 2010.05.17/outbox.cif.g08.bks.cpg/sg116_2_cif.got.tgz:2559.got - 2010.05.20 11:11:43.
