data_PCOD9557402
_publ_section_title
;
Structure prediction by ZEFSAII (Michael W. Deem and Ramdas Pophale) SiO2 
 PCOD9557402
Probable space group: P -4 M 2
;
_chemical_formula_sum "Si O2"
_cell_formula_units_Z 25
_cell_length_a 11.226447
_cell_length_b 11.226447
_cell_length_c 10.390115
_cell_angle_alpha 90.000000
_cell_angle_beta 90.000000
_cell_angle_gamma 90.000000
_cell_volume 1309.498530
_symmetry_space_group_name_H-M "P -4 M 2"
_symmetry_group_IT_number 115
_symmetry_cell_setting 'tetragonal'
loop_
_space_group_symop_operation_xyz
x,y,z
y,-x,-z
-x,-y,z
-y,x,-z
y,x,-z
-y,-x,-z
-x,y,z
x,-y,z
loop_
_atom_site_type_symbol
_atom_site_label
_atom_site_fract_x
_atom_site_fract_y
_atom_site_fract_z
Si Si1 0.761370 0.761370 0.000000
Si Si2 0.254942 0.745059 0.500000
Si Si3 0.500000 0.500000 0.000000
Si Si4 0.500000 0.852682 0.609568
Si Si5 0.500000 0.240179 0.905210
Si Si6 0.866982 0.140603 0.261812
O O1 0.788181 0.621002 0.018337
O O2 0.813620 0.820075 0.126892
O O3 0.386624 0.786817 0.543821
O O4 0.217134 0.821566 0.377054
O O5 0.500000 0.384770 0.907744
O O6 0.500000 0.817925 0.762904
O O7 0.500000 0.000000 0.596518
O O8 0.000000 0.193425 0.279816
O O9 0.877244 0.000000 0.262643
#
# Coordination Sequence:
#
# PCOD9557402 Si02
#       6
#     4   4   1   4   4   8
#     4  11  22  40  66  99 130 182 228 289 352 424
#     4  12  26  44  70 100 140 188 234 289 356 421
#     4   8  20  40  68  98 132 180 236 282 356 420
#     4  12  26  46  71 104 146 189 239 293 355 428
#     4  10  22  41  67  96 140 180 229 287 353 420
#     4  11  23  41  65  95 134 180 235 295 355 422
#
# _framework density 19.091276000000001
#
# number of rings (size 3 to 8) (size 9 to 14) (size 15 to 20)
#    0.000    0.960    3.200    3.840    0.000    6.720 
#    0.000    1.600    0.000    0.000    0.000    0.000 
#    0.000    0.000    0.000    0.000    0.000    0.000 
#
# Total GULP energy -139473.181457 kJ/mol
# GULP energy per Si atom -5578.927258 kJ/mol
# Density = 1.904782 g / cm^3
# Si number density = 19.091276 Si / 1000 Ang^3
#
#
#
# Elastic Constant Matrix: (Units=GPa)
#
#
# Indices 1 2 3 4 5 6 
#
# 1 122.5991 34.3423 33.7306 0.0000 0.0000 0.0000
# 2 34.3423 122.5977 33.7306 0.0000 0.0000 0.0000
# 3 33.7306 33.7306 112.8281 0.0000 0.0000 0.0000
# 4 0.0000 0.0000 0.0000 27.9095 0.0000 0.0000
# 5 0.0000 0.0000 0.0000 0.0000 27.9103 0.0000
# 6 0.0000 0.0000 0.0000 0.0000 0.0000 27.2377
#
#
#
# Elastic Compliance Matrix: (Units=1/GPa)
#
#
# Indices 1 2 3 4 5 6 
#
# 1 0.009321 -0.002010 -0.002186 0.000000 0.000000 0.000000
# 2 -0.002010 0.009321 -0.002186 0.000000 0.000000 0.000000
# 3 -0.002186 -0.002186 0.010170 0.000000 0.000000 0.000000
# 4 0.000000 0.000000 0.000000 0.035830 0.000000 0.000000
# 5 0.000000 0.000000 0.000000 0.000000 0.035829 0.000000
# 6 0.000000 0.000000 0.000000 0.000000 0.000000 0.036714
#
#
# Mechanical properties :
#
#
# Convention : Reuss Voigt Hill
#
# Bulk Modulus (GPa) = 62.30684 62.40355 62.35520
# Shear Modulus (GPa) = 32.19632 33.69293 32.94462
#
# Velocity S-wave (km/s) = 4.11109 4.20555 4.15859
# Velocity P-wave (km/s) = 7.43249 7.50600 7.46934
#
# Compressibility (1/GPa) = 0.01604960
#
# Stress axis : x y z
#
# Youngs Moduli (GPa) = 107.28499 107.28362 98.32889
#
# Poissons Ratio (x) = 0.21560 0.21492
# Poissons Ratio (y) = 0.21560 0.21493
# Poissons Ratio (z) = 0.23450 0.23450
#
# Static dielectric constant tensor:
#      x y z
#    x 1.695320 0.000000 0.000000 
#    y 0.000000 1.695320 0.000000 
#    z 0.000000 0.000000 1.590060 
# 
# From -- ./inp_files/1149.got.cif
#   From: 2010.05.17/outbox.cif.g08.bks.cpg/sg115_1_cif.got.tgz:1149.got - 2010.05.20 11:07:42.
