data_PCOD9557791
_publ_section_title
;
Structure prediction by ZEFSAII (Michael W. Deem and Ramdas Pophale) SiO2 
 PCOD9557791
Probable space group: P -4 C 2
;
_chemical_formula_sum "Si O2"
_cell_formula_units_Z 60
_cell_length_a 12.922871
_cell_length_b 12.922871
_cell_length_c 17.315283
_cell_angle_alpha 90.000000
_cell_angle_beta 90.000000
_cell_angle_gamma 90.000000
_cell_volume 2891.662562
_symmetry_space_group_name_H-M "P -4 C 2"
_symmetry_group_IT_number 116
_symmetry_cell_setting 'tetragonal'
loop_
_space_group_symop_operation_xyz
x,y,z
y,-x,-z
-x,-y,z
-y,x,-z
y,x,1/2-z
-y,-x,1/2-z
-x,y,1/2+z
x,-y,1/2+z
loop_
_atom_site_type_symbol
_atom_site_label
_atom_site_fract_x
_atom_site_fract_y
_atom_site_fract_z
Si Si1 0.042872 0.612649 0.810838
Si Si2 0.461007 0.393338 0.338867
Si Si3 0.207067 0.084045 0.444150
Si Si4 0.249455 0.657480 0.173603
Si Si5 0.388570 0.981785 0.357728
Si Si6 0.250524 0.285986 0.341974
Si Si7 0.209036 0.106571 0.627178
Si Si8 0.000000 0.000000 0.626181
O O1 0.153066 0.637430 0.847925
O O2 0.000000 0.500000 0.831154
O O3 0.054442 0.616887 0.717751
O O4 0.961693 0.700592 0.835199
O O5 0.500000 0.500000 0.375242
O O6 0.426050 0.426050 0.250000
O O7 0.557205 0.315681 0.351058
O O8 0.356505 0.340209 0.367491
O O9 0.230263 0.188826 0.397179
O O10 0.209391 0.090036 0.535602
O O11 0.293235 0.003885 0.413482
O O12 0.092716 0.051055 0.420482
O O13 0.309194 0.690807 0.250000
O O14 0.132719 0.616639 0.177387
O O15 0.232697 0.771337 0.136090
O O16 0.500000 0.000000 0.396103
O O17 0.256857 0.256857 0.250000
O O18 0.100236 0.061140 0.661939
#
# Coordination Sequence:
#
# PCOD9557791 Si02
#       8
#     8   8   8   8   8   8   8   4
#     4  11  25  40  64 101 136 171 220 283 342 406
#     4  10  22  39  70  99 127 176 227 284 343 407
#     4  12  24  44  66  98 134 184 224 276 350 416
#     4  12  23  40  65 101 134 175 230 284 340 403
#     4  11  24  40  66  97 137 176 221 281 336 406
#     4  11  23  40  66  97 131 175 225 279 338 414
#     4  12  26  42  69  97 138 180 228 283 343 420
#     4  12  25  44  65  94 135 184 227 266 341 422
#
# _framework density 20.749307000000002
#
# number of rings (size 3 to 8) (size 9 to 14) (size 15 to 20)
#    0.000    0.667    6.667    2.000    7.467    0.533 
#    0.000    5.333    0.000    0.000    0.000    0.000 
#    0.000    0.000    0.000    0.000    0.000    0.000 
#
# Total GULP energy -334703.222358 kJ/mol
# GULP energy per Si atom -5578.387039 kJ/mol
# Density = 2.070208 g / cm^3
# Si number density = 20.749307 Si / 1000 Ang^3
#
#
#
# Elastic Constant Matrix: (Units=GPa)
#
#
# Indices 1 2 3 4 5 6 
#
# 1 170.1882 76.3065 25.2548 0.0000 0.0000 0.0000
# 2 76.3065 170.1879 25.2542 0.0000 0.0000 0.0000
# 3 25.2548 25.2542 42.7521 0.0000 0.0000 0.0000
# 4 0.0000 0.0000 0.0000 -26.7267 0.0000 0.0000
# 5 0.0000 0.0000 0.0000 0.0000 -26.7592 0.0000
# 6 0.0000 0.0000 0.0000 0.0000 0.0000 48.1318
#
#
#
# Elastic Compliance Matrix: (Units=1/GPa)
#
#
# Indices 1 2 3 4 5 6 
#
# 1 0.007634 -0.003018 -0.002727 0.000000 0.000000 0.000000
# 2 -0.003018 0.007634 -0.002726 0.000000 0.000000 0.000000
# 3 -0.002727 -0.002726 0.026612 0.000000 0.000000 0.000000
# 4 0.000000 0.000000 0.000000 -0.037416 0.000000 0.000000
# 5 0.000000 0.000000 0.000000 0.000000 -0.037370 0.000000
# 6 0.000000 0.000000 0.000000 0.000000 0.000000 0.020776
#
#
# Mechanical properties :
#
#
# Convention : Reuss Voigt Hill
#
# Bulk Modulus (GPa) = 40.10109 70.75101 55.42605
# Shear Modulus (GPa) = 380.98904 16.01672 198.50288
#
# Velocity S-wave (km/s) = 13.56517 2.78135 9.79157
# Velocity P-wave (km/s) = 16.27023 6.66983 12.43396
#
# Compressibility (1/GPa) = 0.02493698
#
# Stress axis : x y z
#
# Youngs Moduli (GPa) = 130.99891 130.99926 37.57724
#
# Poissons Ratio (x) = 0.39537 0.10246
# Poissons Ratio (y) = 0.39536 0.10245
# Poissons Ratio (z) = 0.35718 0.35716
#
# Static dielectric constant tensor:
#      x y z
#    x 2.017810 0.000000 0.000000 
#    y 0.000000 2.017600 0.000000 
#    z 0.000000 0.000000 1.761820 
# 
# From -- ./inp_files/4205.got.cif
#   From: 2010.05.17/outbox.cif.g08.bks.cpg/sg116_3_cif.got.tgz:4205.got - 2010.05.20 11:11:43.
