data_PCOD9557857
_publ_section_title
;
Structure prediction by ZEFSAII (Michael W. Deem and Ramdas Pophale) SiO2 
 PCOD9557857
Probable space group: P -4 C 2
;
_chemical_formula_sum "Si O2"
_cell_formula_units_Z 34
_cell_length_a 11.035277
_cell_length_b 11.035277
_cell_length_c 11.779149
_cell_angle_alpha 90.000000
_cell_angle_beta 90.000000
_cell_angle_gamma 90.000000
_cell_volume 1434.433415
_symmetry_space_group_name_H-M "P -4 C 2"
_symmetry_group_IT_number 116
_symmetry_cell_setting 'tetragonal'
loop_
_space_group_symop_operation_xyz
x,y,z
y,-x,-z
-x,-y,z
-y,x,-z
y,x,1/2-z
-y,-x,1/2-z
-x,y,1/2+z
x,-y,1/2+z
loop_
_atom_site_type_symbol
_atom_site_label
_atom_site_fract_x
_atom_site_fract_y
_atom_site_fract_z
Si Si1 0.440341 0.711064 0.154895
Si Si2 0.955077 0.194755 0.832710
Si Si3 0.500000 0.500000 0.500000
Si Si4 0.920184 0.597540 0.688798
Si Si5 0.790397 0.202981 0.037191
O O1 0.370394 0.629607 0.250000
O O2 0.476246 0.825326 0.232271
O O3 0.349554 0.773788 0.064120
O O4 0.518675 0.617129 0.081178
O O5 0.911170 0.088831 0.750000
O O6 0.998122 0.312892 0.764515
O O7 0.072840 0.169306 0.911639
O O8 0.838494 0.215171 0.911332
O O9 0.852494 0.689719 0.607730
O O10 0.000000 0.500000 0.624301
#
# Coordination Sequence:
#
# PCOD9557857 Si02
#       5
#     8   8   2   8   8
#     4   9  22  44  63  95 134 172 225 286 335 396
#     4  11  23  41  69 101 131 176 227 276 341 423
#     4  12  22  40  76  94 124 184 234 284 332 410
#     4  10  23  43  64  93 140 178 220 284 342 400
#     4  10  23  43  64  97 140 173 219 286 344 400
#
# _framework density 23.702736999999999
#
# number of rings (size 3 to 8) (size 9 to 14) (size 15 to 20)
#    0.000    1.882    0.000    3.882    3.294    7.059 
#   21.176    0.000    0.000    0.000    0.000    0.000 
#    0.000    0.000    0.000    0.000    0.000    0.000 
#
# Total GULP energy -189836.056862 kJ/mol
# GULP energy per Si atom -5583.413437 kJ/mol
# Density = 2.364879 g / cm^3
# Si number density = 23.702737 Si / 1000 Ang^3
#
#
#
# Elastic Constant Matrix: (Units=GPa)
#
#
# Indices 1 2 3 4 5 6 
#
# 1 -31.0913 70.2644 -7.5981 0.0000 0.0000 0.0000
# 2 70.2644 -31.0905 -7.5900 0.0000 0.0000 0.0000
# 3 -7.5981 -7.5900 49.9446 0.0000 0.0000 0.0000
# 4 0.0000 0.0000 0.0000 3.5719 0.0000 0.0000
# 5 0.0000 0.0000 0.0000 0.0000 3.5724 0.0000
# 6 0.0000 0.0000 0.0000 0.0000 0.0000 66.1977
#
#
#
# Elastic Compliance Matrix: (Units=1/GPa)
#
#
# Indices 1 2 3 4 5 6 
#
# 1 0.008630 0.018496 0.004124 0.000000 0.000000 0.000000
# 2 0.018496 0.008631 0.004125 0.000000 0.000000 0.000000
# 3 0.004124 0.004125 0.021276 0.000000 0.000000 0.000000
# 4 0.000000 0.000000 0.000000 0.279963 0.000000 0.000000
# 5 0.000000 0.000000 0.000000 0.000000 0.279921 0.000000
# 6 0.000000 0.000000 0.000000 0.000000 0.000000 0.015106
#
#
# Mechanical properties :
#
#
# Convention : Reuss Voigt Hill
#
# Bulk Modulus (GPa) = 10.86624 10.87947 10.87286
# Shear Modulus (GPa) = 8.46436 10.18084 9.32260
#
# Velocity S-wave (km/s) = 1.89177 2.07474 1.98536
# Velocity P-wave (km/s) = 3.06040 3.21548 3.13890
#
# Compressibility (1/GPa) = 0.09202818
#
# Stress axis : x y z
#
# Youngs Moduli (GPa) = 115.87842 115.86652 47.00027
#
# Poissons Ratio (x) = -2.14312 -0.19382
# Poissons Ratio (y) = -2.14334 -0.19390
# Poissons Ratio (z) = -0.47785 -0.47800
#
# Static dielectric constant tensor:
#      x y z
#    x 1.948430 0.000000 0.000000 
#    y 0.000000 1.948420 0.000000 
#    z 0.000000 0.000000 1.885460 
# 
# From -- ./inp_files/1624.got.cif
#   From: 2010.05.17/outbox.cif.g08.bks.cpg/sg116_1_cif.got.tgz:1624.got - 2010.05.20 11:11:43.
