data_PCOD9557576
_publ_section_title
;
Structure prediction by ZEFSAII (Michael W. Deem and Ramdas Pophale) SiO2 
 PCOD9557576
Probable space group: P -4 C 2
;
_chemical_formula_sum "Si O2"
_cell_formula_units_Z 32
_cell_length_a 13.496436
_cell_length_b 13.496436
_cell_length_c 7.910071
_cell_angle_alpha 90.000000
_cell_angle_beta 90.000000
_cell_angle_gamma 90.000000
_cell_volume 1440.849370
_symmetry_space_group_name_H-M "P -4 C 2"
_symmetry_group_IT_number 116
_symmetry_cell_setting 'tetragonal'
loop_
_space_group_symop_operation_xyz
x,y,z
y,-x,-z
-x,-y,z
-y,x,-z
y,x,1/2-z
-y,-x,1/2-z
-x,y,1/2+z
x,-y,1/2+z
loop_
_atom_site_type_symbol
_atom_site_label
_atom_site_fract_x
_atom_site_fract_y
_atom_site_fract_z
Si Si1 0.840689 0.678143 0.442538
Si Si2 0.940063 0.866265 0.569601
Si Si3 0.219420 0.373985 0.109611
Si Si4 0.572122 0.259664 0.257344
O O1 0.918808 0.756784 0.508754
O O2 0.863787 0.637679 0.255083
O O3 0.734547 0.734457 0.419390
O O4 0.814133 0.603596 0.592567
O O5 0.891559 0.891559 0.750000
O O6 0.055858 0.890830 0.561078
O O7 0.287224 0.458744 0.199911
O O8 0.203922 0.412871 0.920355
O O9 0.645096 0.354905 0.250000
#
# Coordination Sequence:
#
# PCOD9557576 Si02
#       4
#     8   8   8   8
#     4  10  22  38  60  90 122 173 204 255 321 373
#     4  11  24  42  67 101 130 156 204 265 325 390
#     4  10  19  33  61  85 122 168 207 259 309 373
#     4  10  19  35  57  91 123 166 215 260 308 370
#
# _framework density 22.209122000000001
#
# number of rings (size 3 to 8) (size 9 to 14) (size 15 to 20)
#    0.000    1.750    2.500    3.750    7.000    0.000 
#    0.000    2.500    0.000    1.500    0.000    0.000 
#    0.000    0.000    0.000    0.000    0.000    0.000 
#
# Total GULP energy -178331.426890 kJ/mol
# GULP energy per Si atom -5572.857090 kJ/mol
# Density = 2.215857 g / cm^3
# Si number density = 22.209122 Si / 1000 Ang^3
#
#
#
# Elastic Constant Matrix: (Units=GPa)
#
#
# Indices 1 2 3 4 5 6 
#
# 1 0.4827 35.4475 -4.5213 0.0000 0.0000 0.0000
# 2 35.4475 0.4829 -4.5203 0.0000 0.0000 0.0000
# 3 -4.5213 -4.5203 174.8951 0.0000 0.0000 0.0000
# 4 0.0000 0.0000 0.0000 22.4799 0.0000 0.0000
# 5 0.0000 0.0000 0.0000 0.0000 22.4801 0.0000
# 6 0.0000 0.0000 0.0000 0.0000 0.0000 22.5546
#
#
#
# Elastic Compliance Matrix: (Units=1/GPa)
#
#
# Indices 1 2 3 4 5 6 
#
# 1 -0.000293 0.028307 0.000724 0.000000 0.000000 0.000000
# 2 0.028307 -0.000293 0.000724 0.000000 0.000000 0.000000
# 3 0.000724 0.000724 0.005755 0.000000 0.000000 0.000000
# 4 0.000000 0.000000 0.000000 0.044484 0.000000 0.000000
# 5 0.000000 0.000000 0.000000 0.000000 0.044484 0.000000
# 6 0.000000 0.000000 0.000000 0.000000 0.000000 0.044337
#
#
# Mechanical properties :
#
#
# Convention : Reuss Voigt Hill
#
# Bulk Modulus (GPa) = 15.46089 25.40808 20.43448
# Shear Modulus (GPa) = 49.73989 23.46655 36.60322
#
# Velocity S-wave (km/s) = 4.73759 3.25409 4.06410
# Velocity P-wave (km/s) = 6.07478 5.05807 5.58959
#
# Compressibility (1/GPa) = 0.06467932
#
# Stress axis : x y z
#
# Youngs Moduli (GPa) = -3409.77388 -3411.42602 173.75751
#
# Poissons Ratio (x) = 96.56743 -0.12581
# Poissons Ratio (y) = 96.52067 -0.12583
# Poissons Ratio (z) = 2.46880 2.47054
#
# Static dielectric constant tensor:
#      x y z
#    x 1.831330 0.000000 0.000000 
#    y 0.000000 1.831330 0.000000 
#    z 0.000000 0.000000 1.892670 
# 
# From -- ./inp_files/635.got.cif
#   From: 2010.05.17/outbox.cif.g08.bks.cpg/sg116_1_cif.got.tgz:635.got - 2010.05.20 11:11:43.
