data_PCOD9557446
_publ_section_title
;
Structure prediction by ZEFSAII (Michael W. Deem and Ramdas Pophale) SiO2 
 PCOD9557446
Probable space group: P -4 M 2
;
_chemical_formula_sum "Si O2"
_cell_formula_units_Z 32
_cell_length_a 14.283294
_cell_length_b 14.283294
_cell_length_c 7.549369
_cell_angle_alpha 90.000000
_cell_angle_beta 90.000000
_cell_angle_gamma 90.000000
_cell_volume 1540.165549
_symmetry_space_group_name_H-M "P -4 M 2"
_symmetry_group_IT_number 115
_symmetry_cell_setting 'tetragonal'
loop_
_space_group_symop_operation_xyz
x,y,z
y,-x,-z
-x,-y,z
-y,x,-z
y,x,-z
-y,-x,-z
-x,y,z
x,-y,z
loop_
_atom_site_type_symbol
_atom_site_label
_atom_site_fract_x
_atom_site_fract_y
_atom_site_fract_z
Si Si1 0.898985 0.890126 0.285916
Si Si2 0.237716 0.609596 0.467909
Si Si3 0.887940 0.694722 0.770590
Si Si4 0.391832 0.761136 0.945716
O O1 0.888873 0.888873 0.500000
O O2 0.802435 0.853511 0.208869
O O3 0.000000 0.847078 0.238261
O O4 0.903492 0.000000 0.236481
O O5 0.332805 0.667196 0.500000
O O6 0.248051 0.500000 0.510606
O O7 0.158891 0.654611 0.592610
O O8 0.380800 0.784670 0.739227
O O9 0.000000 0.693860 0.758176
O O10 0.848457 0.635283 0.932156
O O11 0.500000 0.735109 0.976150
O O12 0.323577 0.676424 0.000000
#
# Coordination Sequence:
#
# PCOD9557446 Si02
#       4
#     8   8   8   8
#     4   8  15  30  56  90 127 171 220 266 312 368
#     4  11  24  43  69  97 131 172 220 282 346 410
#     4  11  23  41  68  99 137 182 226 275 332 399
#     4  11  25  44  68  97 132 171 219 281 344 411
#
# _framework density 20.776989
#
# number of rings (size 3 to 8) (size 9 to 14) (size 15 to 20)
#    0.000    1.750    2.500    2.250    0.000    3.500 
#    0.000    6.250    0.000    0.000    0.000    7.000 
#    0.000    0.000    0.000    0.000    0.000    0.000 
#
# Total GULP energy -178902.312518 kJ/mol
# GULP energy per Si atom -5590.697266 kJ/mol
# Density = 2.072970 g / cm^3
# Si number density = 20.776989 Si / 1000 Ang^3
#
#
#
# Elastic Constant Matrix: (Units=GPa)
#
#
# Indices 1 2 3 4 5 6 
#
# 1 138.3624 62.2659 55.1719 0.0000 0.0000 0.0000
# 2 62.2659 138.3682 55.1718 0.0000 0.0000 0.0000
# 3 55.1719 55.1718 110.8498 0.0000 0.0000 0.0000
# 4 0.0000 0.0000 0.0000 9.4684 0.0000 0.0000
# 5 0.0000 0.0000 0.0000 0.0000 9.4697 0.0000
# 6 0.0000 0.0000 0.0000 0.0000 0.0000 19.2693
#
#
#
# Elastic Compliance Matrix: (Units=1/GPa)
#
#
# Indices 1 2 3 4 5 6 
#
# 1 0.010002 -0.003139 -0.003416 0.000000 0.000000 0.000000
# 2 -0.003139 0.010002 -0.003416 0.000000 0.000000 0.000000
# 3 -0.003416 -0.003416 0.012421 0.000000 0.000000 0.000000
# 4 0.000000 0.000000 0.000000 0.105614 0.000000 0.000000
# 5 0.000000 0.000000 0.000000 0.000000 0.105599 0.000000
# 6 0.000000 0.000000 0.000000 0.000000 0.000000 0.051896
#
#
# Mechanical properties :
#
#
# Convention : Reuss Voigt Hill
#
# Bulk Modulus (GPa) = 80.10213 81.42219 80.76216
# Shear Modulus (GPa) = 15.64275 21.97287 18.80781
#
# Velocity S-wave (km/s) = 2.74686 3.25554 3.01196
# Velocity P-wave (km/s) = 6.97834 7.30788 7.14501
#
# Compressibility (1/GPa) = 0.01248406
#
# Stress axis : x y z
#
# Youngs Moduli (GPa) = 99.97933 99.98462 80.50618
#
# Poissons Ratio (x) = 0.31384 0.27500
# Poissons Ratio (y) = 0.31383 0.27498
# Poissons Ratio (z) = 0.34152 0.34151
#
# Static dielectric constant tensor:
#      x y z
#    x 1.731800 0.000000 0.000000 
#    y 0.000000 1.731800 0.000000 
#    z 0.000000 0.000000 1.749060 
# 
# From -- ./inp_files/1339.got.cif
#   From: 2010.05.17/outbox.cif.g08.bks.cpg/sg115_1_cif.got.tgz:1339.got - 2010.05.20 11:07:42.
