data_PCOD9557727
_publ_section_title
;
Structure prediction by ZEFSAII (Michael W. Deem and Ramdas Pophale) SiO2 
 PCOD9557727
Probable space group: P -4 C 2
;
_chemical_formula_sum "Si O2"
_cell_formula_units_Z 58
_cell_length_a 18.442103
_cell_length_b 18.442103
_cell_length_c 8.465657
_cell_angle_alpha 90.000000
_cell_angle_beta 90.000000
_cell_angle_gamma 90.000000
_cell_volume 2879.264448
_symmetry_space_group_name_H-M "P -4 C 2"
_symmetry_group_IT_number 116
_symmetry_cell_setting 'tetragonal'
loop_
_space_group_symop_operation_xyz
x,y,z
y,-x,-z
-x,-y,z
-y,x,-z
y,x,1/2-z
-y,-x,1/2-z
-x,y,1/2+z
x,-y,1/2+z
loop_
_atom_site_type_symbol
_atom_site_label
_atom_site_fract_x
_atom_site_fract_y
_atom_site_fract_z
Si Si1 0.918831 0.521809 0.871067
Si Si2 0.155776 0.968061 0.122117
Si Si3 0.144597 0.603785 0.076124
Si Si4 0.343931 0.893633 0.910214
Si Si5 0.000000 0.000000 0.500000
Si Si6 0.741075 0.960378 0.903339
Si Si7 0.315373 0.226341 0.145354
Si Si8 0.783101 0.176864 0.071394
O O1 0.869301 0.558178 0.735403
O O2 0.000000 0.500000 0.816536
O O3 0.888102 0.448456 0.942971
O O4 0.917733 0.580154 0.014456
O O5 0.189990 0.947869 0.290042
O O6 0.166450 0.892145 0.029976
O O7 0.215502 0.024859 0.062953
O O8 0.074147 0.993663 0.101044
O O9 0.099052 0.678483 0.090494
O O10 0.221909 0.628815 0.002386
O O11 0.340197 0.835530 0.769305
O O12 0.302124 0.966380 0.861948
O O13 0.297163 0.856463 0.050609
O O14 0.297885 0.297885 0.250000
O O15 0.238418 0.209483 0.060686
O O16 0.794524 0.205477 0.250000
#
# Coordination Sequence:
#
# PCOD9557727 Si02
#       8
#     8   8   8   8   2   8   8   8
#     4  12  24  39  58  99 135 164 197 261 342 436
#     4  11  27  41  60  75 106 143 202 282 366 427
#     4  12  24  38  64  89 126 161 205 252 333 411
#     4  10  21  39  61  87 118 158 205 257 330 414
#     4  12  32  46  56  86 108 146 212 318 404 406
#     4  11  23  41  61  78 108 154 197 251 334 440
#     4  10  22  39  62  83 111 158 220 267 306 381
#     4  10  21  40  63  83 107 153 216 273 333 415
#
# _framework density 20.144034000000001
#
# number of rings (size 3 to 8) (size 9 to 14) (size 15 to 20)
#    0.000    1.103    1.379    5.379    7.724    1.103 
#    0.000    0.000    0.000    0.000    0.000    0.000 
#    0.000    0.000    0.000    0.000    0.000  180.690 
#
# Total GULP energy -323621.687972 kJ/mol
# GULP energy per Si atom -5579.684275 kJ/mol
# Density = 2.009818 g / cm^3
# Si number density = 20.144034 Si / 1000 Ang^3
#
#
#
# Elastic Constant Matrix: (Units=GPa)
#
#
# Indices 1 2 3 4 5 6 
#
# 1 82.1161 26.9918 36.2064 0.0000 0.0000 0.0000
# 2 26.9918 82.1167 36.2062 0.0000 0.0000 0.0000
# 3 36.2064 36.2062 90.9879 0.0000 0.0000 0.0000
# 4 0.0000 0.0000 0.0000 37.2281 0.0000 0.0000
# 5 0.0000 0.0000 0.0000 0.0000 37.2281 0.0000
# 6 0.0000 0.0000 0.0000 0.0000 0.0000 23.3546
#
#
#
# Elastic Compliance Matrix: (Units=1/GPa)
#
#
# Indices 1 2 3 4 5 6 
#
# 1 0.015298 -0.002843 -0.004956 0.000000 0.000000 0.000000
# 2 -0.002843 0.015297 -0.004956 0.000000 0.000000 0.000000
# 3 -0.004956 -0.004956 0.014935 0.000000 0.000000 0.000000
# 4 0.000000 0.000000 0.000000 0.026861 0.000000 0.000000
# 5 0.000000 0.000000 0.000000 0.000000 0.026861 0.000000
# 6 0.000000 0.000000 0.000000 0.000000 0.000000 0.042818
#
#
# Mechanical properties :
#
#
# Convention : Reuss Voigt Hill
#
# Bulk Modulus (GPa) = 49.95075 50.44774 50.19924
# Shear Modulus (GPa) = 28.69379 29.94992 29.32185
#
# Velocity S-wave (km/s) = 3.77826 3.86007 3.81938
# Velocity P-wave (km/s) = 6.62452 6.70558 6.66517
#
# Compressibility (1/GPa) = 0.02001972
#
# Stress axis : x y z
#
# Youngs Moduli (GPa) = 65.36978 65.37047 66.95862
#
# Poissons Ratio (x) = 0.18586 0.33184
# Poissons Ratio (y) = 0.18586 0.33184
# Poissons Ratio (z) = 0.32397 0.32396
#
# Static dielectric constant tensor:
#      x y z
#    x 1.752410 0.000000 0.000000 
#    y 0.000000 1.752410 0.000000 
#    z 0.000000 0.000000 1.882480 
# 
# From -- ./inp_files/1037.got.cif
#   From: 2010.05.17/outbox.cif.g08.bks.cpg/sg116_1_cif.got.tgz:1037.got - 2010.05.20 11:11:43.
