data_PCOD9557580
_publ_section_title
;
Structure prediction by ZEFSAII (Michael W. Deem and Ramdas Pophale) SiO2 
 PCOD9557580
Probable space group: P -4 C 2
;
_chemical_formula_sum "Si O2"
_cell_formula_units_Z 40
_cell_length_a 15.231029
_cell_length_b 15.231029
_cell_length_c 8.738410
_cell_angle_alpha 90.000000
_cell_angle_beta 90.000000
_cell_angle_gamma 90.000000
_cell_volume 2027.173441
_symmetry_space_group_name_H-M "P -4 C 2"
_symmetry_group_IT_number 116
_symmetry_cell_setting 'tetragonal'
loop_
_space_group_symop_operation_xyz
x,y,z
y,-x,-z
-x,-y,z
-y,x,-z
y,x,1/2-z
-y,-x,1/2-z
-x,y,1/2+z
x,-y,1/2+z
loop_
_atom_site_type_symbol
_atom_site_label
_atom_site_fract_x
_atom_site_fract_y
_atom_site_fract_z
Si Si1 0.088052 0.175809 0.107611
Si Si2 0.065473 0.762167 0.303249
Si Si3 0.278408 0.257727 0.086621
Si Si4 0.500000 0.000000 0.824164
Si Si5 0.072031 0.622939 0.919334
Si Si6 0.265009 0.265009 0.750000
O O1 0.112828 0.112828 0.250000
O O2 0.172657 0.241071 0.099324
O O3 0.995328 0.212587 0.162622
O O4 0.077741 0.158088 0.926200
O O5 0.159146 0.726159 0.252767
O O6 0.009494 0.687671 0.388635
O O7 0.302086 0.302086 0.250000
O O8 0.324091 0.162201 0.083057
O O9 0.296323 0.297985 0.917440
O O10 0.552879 0.067202 0.717919
O O11 0.431617 0.052163 0.928894
#
# Coordination Sequence:
#
# PCOD9557580 Si02
#       6
#     8   8   8   4   8   4
#     4  10  20  32  49  72  85 133 181 214 292 314
#     4  11  20  33  55  66 105 128 178 242 261 337
#     4  10  19  34  54  75  99 133 188 221 273 334
#     4  10  24  32  54  80 100 142 174 228 314 314
#     4  11  20  38  52  76 104 136 181 240 276 348
#     4  10  22  30  49  82  90 144 182 220 309 300
#
# _framework density 19.731908000000001
#
# number of rings (size 3 to 8) (size 9 to 14) (size 15 to 20)
#    0.000    1.600    4.000    3.600    5.600    0.000 
#    0.000    0.500    0.000    0.000    0.000    0.000 
#    0.000    0.000    0.000    0.000    0.000    3.000 
#
# Total GULP energy -222814.367313 kJ/mol
# GULP energy per Si atom -5570.359183 kJ/mol
# Density = 1.968700 g / cm^3
# Si number density = 19.731908 Si / 1000 Ang^3
#
#
#
# Elastic Constant Matrix: (Units=GPa)
#
#
# Indices 1 2 3 4 5 6 
#
# 1 24.0963 10.5449 12.6144 0.0000 0.0000 0.0000
# 2 10.5449 24.0963 12.6144 0.0000 0.0000 0.0000
# 3 12.6144 12.6144 180.6530 0.0000 0.0000 0.0000
# 4 0.0000 0.0000 0.0000 22.2022 0.0000 0.0000
# 5 0.0000 0.0000 0.0000 0.0000 22.2022 0.0000
# 6 0.0000 0.0000 0.0000 0.0000 0.0000 5.8774
#
#
#
# Elastic Compliance Matrix: (Units=1/GPa)
#
#
# Indices 1 2 3 4 5 6 
#
# 1 0.052104 -0.021689 -0.002124 0.000000 0.000000 0.000000
# 2 -0.021689 0.052104 -0.002124 0.000000 0.000000 0.000000
# 3 -0.002124 -0.002124 0.005832 0.000000 0.000000 0.000000
# 4 0.000000 0.000000 0.000000 0.045041 0.000000 0.000000
# 5 0.000000 0.000000 0.000000 0.000000 0.045041 0.000000
# 6 0.000000 0.000000 0.000000 0.000000 0.000000 0.170143
#
#
# Mechanical properties :
#
#
# Convention : Reuss Voigt Hill
#
# Bulk Modulus (GPa) = 17.19237 33.37697 25.28467
# Shear Modulus (GPa) = 11.32437 22.92782 17.12610
#
# Velocity S-wave (km/s) = 2.39824 3.41246 2.94928
# Velocity P-wave (km/s) = 4.04977 5.69899 4.94364
#
# Compressibility (1/GPa) = 0.05816535
#
# Stress axis : x y z
#
# Youngs Moduli (GPa) = 19.19257 19.19257 171.46613
#
# Poissons Ratio (x) = 0.41628 0.36414
# Poissons Ratio (y) = 0.41628 0.36414
# Poissons Ratio (z) = 0.04076 0.04076
#
# Static dielectric constant tensor:
#      x y z
#    x 1.708280 0.000000 0.000000 
#    y 0.000000 1.708280 0.000000 
#    z 0.000000 0.000000 1.824030 
# 
# From -- ./inp_files/844.got.cif
#   From: 2010.05.17/outbox.cif.g08.bks.cpg/sg116_1_cif.got.tgz:844.got - 2010.05.20 11:11:43.
