data_PCOD9557750
_publ_section_title
;
Structure prediction by ZEFSAII (Michael W. Deem and Ramdas Pophale) SiO2 
 PCOD9557750
Probable space group: P -4 C 2
;
_chemical_formula_sum "Si O2"
_cell_formula_units_Z 40
_cell_length_a 8.559724
_cell_length_b 8.559724
_cell_length_c 27.264855
_cell_angle_alpha 90.000000
_cell_angle_beta 90.000000
_cell_angle_gamma 90.000000
_cell_volume 1997.665252
_symmetry_space_group_name_H-M "P -4 C 2"
_symmetry_group_IT_number 116
_symmetry_cell_setting 'tetragonal'
loop_
_space_group_symop_operation_xyz
x,y,z
y,-x,-z
-x,-y,z
-y,x,-z
y,x,1/2-z
-y,-x,1/2-z
-x,y,1/2+z
x,-y,1/2+z
loop_
_atom_site_type_symbol
_atom_site_label
_atom_site_fract_x
_atom_site_fract_y
_atom_site_fract_z
Si Si1 0.500000 0.500000 0.353629
Si Si2 0.000000 0.500000 0.141161
Si Si3 0.261127 0.694322 0.086727
Si Si4 0.202654 0.842982 0.510836
Si Si5 0.283961 0.760672 0.806992
Si Si6 0.316610 0.960070 0.611678
O O1 0.625873 0.415172 0.388234
O O2 0.593074 0.623679 0.320680
O O3 0.874254 0.416626 0.106701
O O4 0.916868 0.629373 0.174945
O O5 0.233510 0.872644 0.104297
O O6 0.261528 0.704144 0.027939
O O7 0.270614 0.852823 0.565165
O O8 0.021146 0.793340 0.510062
O O9 0.244219 0.755782 0.750000
O O10 0.130634 0.731426 0.839707
O O11 0.500000 0.000000 0.610823
#
# Coordination Sequence:
#
# PCOD9557750 Si02
#       6
#     4   4   8   8   8   8
#     4  10  21  42  61  96 124 176 206 274 322 404
#     4  10  24  40  64  92 124 166 216 270 324 394
#     4  10  21  41  65  91 132 166 212 261 328 394
#     4   9  19  36  62  91 124 168 203 254 323 384
#     4  11  24  42  65  90 129 168 221 271 338 385
#     4  11  22  40  64  94 128 166 216 267 317 393
#
# _framework density 20.023375000000001
#
# number of rings (size 3 to 8) (size 9 to 14) (size 15 to 20)
#    0.000    1.800    2.000    1.500    2.800    2.400 
#    3.600    3.000    0.000    0.000    0.000    0.000 
#    0.000    0.000    0.000    0.000    0.000    0.000 
#
# Total GULP energy -223606.180267 kJ/mol
# GULP energy per Si atom -5590.154507 kJ/mol
# Density = 1.997780 g / cm^3
# Si number density = 20.023375 Si / 1000 Ang^3
#
#
#
# Elastic Constant Matrix: (Units=GPa)
#
#
# Indices 1 2 3 4 5 6 
#
# 1 30.6172 -12.8508 18.0999 0.0000 0.0000 0.0000
# 2 -12.8508 30.6172 18.0999 0.0000 0.0000 0.0000
# 3 18.0999 18.0999 149.6380 0.0000 0.0000 0.0000
# 4 0.0000 0.0000 0.0000 19.8994 0.0000 0.0000
# 5 0.0000 0.0000 0.0000 0.0000 19.8994 0.0000
# 6 0.0000 0.0000 0.0000 0.0000 0.0000 27.6113
#
#
#
# Elastic Compliance Matrix: (Units=1/GPa)
#
#
# Indices 1 2 3 4 5 6 
#
# 1 0.048850 0.025845 -0.009035 0.000000 0.000000 0.000000
# 2 0.025845 0.048850 -0.009035 0.000000 0.000000 0.000000
# 3 -0.009035 -0.009035 0.008869 0.000000 0.000000 0.000000
# 4 0.000000 0.000000 0.000000 0.050253 0.000000 0.000000
# 5 0.000000 0.000000 0.000000 0.000000 0.050253 0.000000
# 6 0.000000 0.000000 0.000000 0.000000 0.000000 0.036217
#
#
# Mechanical properties :
#
#
# Convention : Reuss Voigt Hill
#
# Bulk Modulus (GPa) = 8.18873 28.61895 18.40384
# Shear Modulus (GPa) = 18.62556 25.98357 22.30457
#
# Velocity S-wave (km/s) = 3.05321 3.60622 3.34117
# Velocity P-wave (km/s) = 4.06546 5.62703 4.90874
#
# Compressibility (1/GPa) = 0.12211902
#
# Stress axis : x y z
#
# Youngs Moduli (GPa) = 20.47070 20.47069 112.75856
#
# Poissons Ratio (x) = -0.52906 1.01877
# Poissons Ratio (y) = -0.52906 1.01877
# Poissons Ratio (z) = 0.18495 0.18495
#
# Static dielectric constant tensor:
#      x y z
#    x 1.719890 0.000000 0.000000 
#    y 0.000000 1.719890 0.000000 
#    z 0.000000 0.000000 1.664780 
# 
# From -- ./inp_files/4498.got.cif
#   From: 2010.05.17/outbox.cif.g08.bks.cpg/sg116_3_cif.got.tgz:4498.got - 2010.05.20 11:11:43.
