data_PCOD9557887
_publ_section_title
;
Structure prediction by ZEFSAII (Michael W. Deem and Ramdas Pophale) SiO2 
 PCOD9557887
Probable space group: P -4 C 2
;
_chemical_formula_sum "Si O2"
_cell_formula_units_Z 28
_cell_length_a 9.551776
_cell_length_b 9.551776
_cell_length_c 15.195248
_cell_angle_alpha 90.000000
_cell_angle_beta 90.000000
_cell_angle_gamma 90.000000
_cell_volume 1386.360101
_symmetry_space_group_name_H-M "P -4 C 2"
_symmetry_group_IT_number 116
_symmetry_cell_setting 'tetragonal'
loop_
_space_group_symop_operation_xyz
x,y,z
y,-x,-z
-x,-y,z
-y,x,-z
y,x,1/2-z
-y,-x,1/2-z
-x,y,1/2+z
x,-y,1/2+z
loop_
_atom_site_type_symbol
_atom_site_label
_atom_site_fract_x
_atom_site_fract_y
_atom_site_fract_z
Si Si1 0.738243 0.738243 0.750000
Si Si2 0.168146 0.522821 0.110618
Si Si3 0.967051 0.835460 0.887504
Si Si4 0.246963 0.226846 0.038308
O O1 0.594669 0.764222 0.803018
O O2 0.860040 0.767591 0.820179
O O3 0.236773 0.377856 0.080876
O O4 0.000000 0.500000 0.121104
O O5 0.198976 0.628822 0.029870
O O6 0.111658 0.752872 0.885908
O O7 0.894603 0.806801 0.982350
O O8 0.000000 0.000000 0.871711
#
# Coordination Sequence:
#
# PCOD9557887 Si02
#       4
#     4   8   8   8
#     4  10  25  40  68 103 146 174 220 293 367 412
#     4  11  23  44  70 103 138 182 234 292 346 424
#     4  11  18  38  70 106 126 174 241 298 334 401
#     4  11  20  39  74  97 129 181 236 282 341 412
#
# _framework density 20.196771999999999
#
# number of rings (size 3 to 8) (size 9 to 14) (size 15 to 20)
#    0.000    1.143    5.714    2.143    0.000    0.571 
#   10.286    0.000    6.286    0.000    0.000    0.000 
#    0.000    0.000    0.000    0.000    0.000    0.000 
#
# Total GULP energy -156307.319474 kJ/mol
# GULP energy per Si atom -5582.404267 kJ/mol
# Density = 2.015080 g / cm^3
# Si number density = 20.196772 Si / 1000 Ang^3
#
#
#
# Elastic Constant Matrix: (Units=GPa)
#
#
# Indices 1 2 3 4 5 6 
#
# 1 142.4162 28.0451 43.2004 0.0000 0.0000 0.0000
# 2 28.0451 142.4162 43.2004 0.0000 0.0000 0.0000
# 3 43.2004 43.2004 77.9355 0.0000 0.0000 0.0000
# 4 0.0000 0.0000 0.0000 33.4999 0.0000 0.0000
# 5 0.0000 0.0000 0.0000 0.0000 33.4999 0.0000
# 6 0.0000 0.0000 0.0000 0.0000 0.0000 29.0404
#
#
#
# Elastic Compliance Matrix: (Units=1/GPa)
#
#
# Indices 1 2 3 4 5 6 
#
# 1 0.008451 -0.000292 -0.004522 0.000000 0.000000 0.000000
# 2 -0.000292 0.008451 -0.004522 0.000000 0.000000 0.000000
# 3 -0.004522 -0.004522 0.017845 0.000000 0.000000 0.000000
# 4 0.000000 0.000000 0.000000 0.029851 0.000000 0.000000
# 5 0.000000 0.000000 0.000000 0.000000 0.029851 0.000000
# 6 0.000000 0.000000 0.000000 0.000000 0.000000 0.034435
#
#
# Mechanical properties :
#
#
# Convention : Reuss Voigt Hill
#
# Bulk Modulus (GPa) = 62.21840 65.73996 63.97918
# Shear Modulus (GPa) = 32.69782 35.76286 34.23034
#
# Velocity S-wave (km/s) = 4.02800 4.21256 4.12131
# Velocity P-wave (km/s) = 7.24610 7.50208 7.37520
#
# Compressibility (1/GPa) = 0.01607242
#
# Stress axis : x y z
#
# Youngs Moduli (GPa) = 118.32802 118.32802 56.03872
#
# Poissons Ratio (x) = 0.03460 0.25343
# Poissons Ratio (y) = 0.03460 0.25343
# Poissons Ratio (z) = 0.53513 0.53513
#
# Static dielectric constant tensor:
#      x y z
#    x 1.708470 0.000000 0.000000 
#    y 0.000000 1.708470 0.000000 
#    z 0.000000 0.000000 1.766730 
# 
# From -- ./inp_files/3054.got.cif
#   From: 2010.05.17/outbox.cif.g08.bks.cpg/sg116_2_cif.got.tgz:3054.got - 2010.05.20 11:11:43.
