data_PCOD9557146
_publ_section_title
;
Structure prediction by ZEFSAII (Michael W. Deem and Ramdas Pophale) SiO2 
 PCOD9557146
Probable space group: P -4 M 2
;
_chemical_formula_sum "Si O2"
_cell_formula_units_Z 48
_cell_length_a 9.507739
_cell_length_b 9.507739
_cell_length_c 31.738963
_cell_angle_alpha 90.000000
_cell_angle_beta 90.000000
_cell_angle_gamma 90.000000
_cell_volume 2869.110241
_symmetry_space_group_name_H-M "P -4 M 2"
_symmetry_group_IT_number 115
_symmetry_cell_setting 'tetragonal'
loop_
_space_group_symop_operation_xyz
x,y,z
y,-x,-z
-x,-y,z
-y,x,-z
y,x,-z
-y,-x,-z
-x,y,z
x,-y,z
loop_
_atom_site_type_symbol
_atom_site_label
_atom_site_fract_x
_atom_site_fract_y
_atom_site_fract_z
Si Si1 0.832292 0.165617 0.712498
Si Si2 0.334127 0.832274 0.964693
Si Si3 0.671382 0.337570 0.546331
Si Si4 0.666576 0.832626 0.628448
Si Si5 0.668653 0.833679 0.868300
Si Si6 0.334143 0.168493 0.203196
O O1 0.750408 0.208573 0.670359
O O2 0.793275 0.257862 0.752961
O O3 0.000000 0.178874 0.705847
O O4 0.802170 0.000000 0.720640
O O5 0.500000 0.801988 0.969325
O O6 0.293655 0.795625 0.916566
O O7 0.315767 0.000000 0.969027
O O8 0.247729 0.752272 0.000000
O O9 0.715665 0.284336 0.500000
O O10 0.500000 0.336202 0.545083
O O11 0.714913 0.500000 0.551448
O O12 0.715151 0.247007 0.586413
O O13 0.500000 0.804742 0.634215
O O14 0.683979 0.000000 0.622716
O O15 0.500000 0.816691 0.863944
O O16 0.750606 0.741095 0.834702
O O17 0.699234 0.000000 0.862290
O O18 0.500000 0.199420 0.204860
O O19 0.317165 0.000000 0.197649
#
# Coordination Sequence:
#
# PCOD9557146 Si02
#       6
#     8   8   8   8   8   8
#     4   9  18  33  50  66  90 126 160 189 231 287
#     4   9  19  35  53  75 103 133 166 204 244 287
#     4   8  14  26  44  64  87 117 150 182 221 272
#     4   9  17  29  46  68  91 115 149 193 233 270
#     4   9  19  36  55  74  99 132 168 204 242 287
#     4  10  21  35  51  74 102 129 160 201 247 293
#
# _framework density 16.729925000000001
#
# number of rings (size 3 to 8) (size 9 to 14) (size 15 to 20)
#    0.000    3.000    0.000    2.000    0.000    4.333 
#    0.000    7.500    0.000    1.000    0.000    0.000 
#    0.000    0.000    0.000    0.000    0.000    0.000 
#
# Total GULP energy -267513.677376 kJ/mol
# GULP energy per Si atom -5573.201612 kJ/mol
# Density = 1.669185 g / cm^3
# Si number density = 16.729925 Si / 1000 Ang^3
#
#
#
# Elastic Constant Matrix: (Units=GPa)
#
#
# Indices 1 2 3 4 5 6 
#
# 1 48.2652 43.7533 84.9520 0.0000 0.0000 0.0000
# 2 43.7533 48.2623 84.9498 0.0000 0.0000 0.0000
# 3 84.9520 84.9498 206.3241 0.0000 0.0000 0.0000
# 4 0.0000 0.0000 0.0000 35.9115 0.0000 0.0000
# 5 0.0000 0.0000 0.0000 0.0000 35.9114 0.0000
# 6 0.0000 0.0000 0.0000 0.0000 0.0000 23.0273
#
#
#
# Elastic Compliance Matrix: (Units=1/GPa)
#
#
# Indices 1 2 3 4 5 6 
#
# 1 0.133512 -0.088192 -0.018661 0.000000 0.000000 0.000000
# 2 -0.088192 0.133523 -0.018663 0.000000 0.000000 0.000000
# 3 -0.018661 -0.018663 0.020215 0.000000 0.000000 0.000000
# 4 0.000000 0.000000 0.000000 0.027846 0.000000 0.000000
# 5 0.000000 0.000000 0.000000 0.000000 0.027846 0.000000
# 6 0.000000 0.000000 0.000000 0.000000 0.000000 0.043427
#
#
# Mechanical properties :
#
#
# Convention : Reuss Voigt Hill
#
# Bulk Modulus (GPa) = 27.61119 81.12909 54.37014
# Shear Modulus (GPa) = 7.69854 24.91647 16.30751
#
# Velocity S-wave (km/s) = 2.14748 3.86338 3.12549
# Velocity P-wave (km/s) = 4.76327 8.27645 6.75235
#
# Compressibility (1/GPa) = 0.03621720
#
# Stress axis : x y z
#
# Youngs Moduli (GPa) = 7.48996 7.48936 49.46941
#
# Poissons Ratio (x) = 0.66050 0.92316
# Poissons Ratio (y) = 0.66055 0.92326
# Poissons Ratio (z) = 0.13977 0.13978
#
# Static dielectric constant tensor:
#      x y z
#    x 1.553320 0.000000 0.000000 
#    y 0.000000 1.553320 0.000000 
#    z 0.000000 0.000000 1.551440 
# 
# From -- ./inp_files/6060.got.cif
#   From: 2010.05.17/outbox.cif.g08.bks.cpg/sg115_4_cif.got.tgz:6060.got - 2010.05.20 11:07:42.
