data_PCOD9557558
_publ_section_title
;
Structure prediction by ZEFSAII (Michael W. Deem and Ramdas Pophale) SiO2 
 PCOD9557558
Probable space group: P -4 C 2
;
_chemical_formula_sum "Si O2"
_cell_formula_units_Z 64
_cell_length_a 26.720804
_cell_length_b 26.720804
_cell_length_c 5.391980
_cell_angle_alpha 90.000000
_cell_angle_beta 90.000000
_cell_angle_gamma 90.000000
_cell_volume 3849.881088
_symmetry_space_group_name_H-M "P -4 C 2"
_symmetry_group_IT_number 116
_symmetry_cell_setting 'tetragonal'
loop_
_space_group_symop_operation_xyz
x,y,z
y,-x,-z
-x,-y,z
-y,x,-z
y,x,1/2-z
-y,-x,1/2-z
-x,y,1/2+z
x,-y,1/2+z
loop_
_atom_site_type_symbol
_atom_site_label
_atom_site_fract_x
_atom_site_fract_y
_atom_site_fract_z
Si Si1 0.443936 0.979021 0.717460
Si Si2 0.567295 0.863554 0.304459
Si Si3 0.172681 0.387480 0.697179
Si Si4 0.807643 0.727657 0.767095
Si Si5 0.772897 0.145941 0.733141
Si Si6 0.221839 0.972479 0.799503
Si Si7 0.026010 0.101677 0.186180
Si Si8 0.486847 0.229742 0.799168
O O1 0.449945 0.920013 0.760310
O O2 0.500000 0.000000 0.694444
O O3 0.419339 0.994490 0.456344
O O4 0.595319 0.860801 0.568029
O O5 0.522179 0.821779 0.302996
O O6 0.603398 0.851417 0.072550
O O7 0.190749 0.331550 0.735045
O O8 0.215918 0.429066 0.705073
O O9 0.753182 0.753182 0.750000
O O10 0.838544 0.751318 0.535922
O O11 0.830123 0.743091 0.034236
O O12 0.828161 0.171840 0.750000
O O13 0.769141 0.086450 0.765088
O O14 0.161440 0.976231 0.810702
O O15 0.240014 0.003809 0.559524
O O16 0.080283 0.080283 0.250000
O O17 0.991506 0.084250 0.415504
O O18 0.500827 0.257085 0.550323
#
# Coordination Sequence:
#
# PCOD9557558 Si02
#       8
#     8   8   8   8   8   8   8   8
#     4  10  21  27  43  63  88 121 161 203 242 258
#     4  10  19  31  47  69  91 124 162 190 230 284
#     4  10  19  31  51  67  94 118 145 192 242 277
#     4  10  21  36  55  79  95 118 156 201 249 293
#     4  10  20  36  58  76  92 115 153 192 229 278
#     4  10  20  34  53  75  89 111 135 169 216 258
#     4  10  20  31  44  64  90 111 133 151 174 223
#     4   8  16  25  44  64  88 115 150 180 218 263
#
# _framework density 16.623889999999999
#
# number of rings (size 3 to 8) (size 9 to 14) (size 15 to 20)
#    0.000    2.250    0.000    3.000   10.500    0.750 
#    0.000    3.750    0.000   15.000    0.000    0.000 
#    0.000    0.000    0.000    0.000    0.000    0.000 
#
# Total GULP energy -356478.203108 kJ/mol
# GULP energy per Si atom -5569.971924 kJ/mol
# Density = 1.658605 g / cm^3
# Si number density = 16.623890 Si / 1000 Ang^3
#
#
#
# Elastic Constant Matrix: (Units=GPa)
#
#
# Indices 1 2 3 4 5 6 
#
# 1 30.3415 20.9008 -6.6812 0.0000 0.0000 0.0000
# 2 20.9008 30.3507 -6.6732 0.0000 0.0000 0.0000
# 3 -6.6812 -6.6732 97.8242 0.0000 0.0000 0.0000
# 4 0.0000 0.0000 0.0000 13.3106 0.0000 0.0000
# 5 0.0000 0.0000 0.0000 0.0000 13.3106 0.0000
# 6 0.0000 0.0000 0.0000 0.0000 0.0000 7.8881
#
#
#
# Elastic Compliance Matrix: (Units=1/GPa)
#
#
# Indices 1 2 3 4 5 6 
#
# 1 0.062880 -0.043003 0.001361 0.000000 0.000000 0.000000
# 2 -0.043003 0.062859 0.001351 0.000000 0.000000 0.000000
# 3 0.001361 0.001351 0.010408 0.000000 0.000000 0.000000
# 4 0.000000 0.000000 0.000000 0.075128 0.000000 0.000000
# 5 0.000000 0.000000 0.000000 0.000000 0.075128 0.000000
# 6 0.000000 0.000000 0.000000 0.000000 0.000000 0.126773
#
#
# Mechanical properties :
#
#
# Convention : Reuss Voigt Hill
#
# Bulk Modulus (GPa) = 17.99688 19.28992 18.64340
# Shear Modulus (GPa) = 9.76030 16.96653 13.36341
#
# Velocity S-wave (km/s) = 2.42569 3.19817 2.83833
# Velocity P-wave (km/s) = 4.32374 5.02659 4.68836
#
# Compressibility (1/GPa) = 0.05556518
#
# Stress axis : x y z
#
# Youngs Moduli (GPa) = 15.90321 15.90868 96.08415
#
# Poissons Ratio (x) = 0.68412 -0.13078
# Poissons Ratio (y) = 0.68388 -0.12981
# Poissons Ratio (z) = -0.02165 -0.02149
#
# Static dielectric constant tensor:
#      x y z
#    x 1.536790 0.000000 0.000000 
#    y 0.000000 1.536790 0.000000 
#    z 0.000000 0.000000 1.661000 
# 
# From -- ./inp_files/264.got.cif
#   From: 2010.05.17/outbox.cif.g08.bks.cpg/sg116_1_cif.got.tgz:264.got - 2010.05.20 11:11:43.
