data_PCOD9557812
_publ_section_title
;
Structure prediction by ZEFSAII (Michael W. Deem and Ramdas Pophale) SiO2 
 PCOD9557812
Probable space group: P -4 C 2
;
_chemical_formula_sum "Si O2"
_cell_formula_units_Z 46
_cell_length_a 10.807908
_cell_length_b 10.807908
_cell_length_c 18.373111
_cell_angle_alpha 90.000000
_cell_angle_beta 90.000000
_cell_angle_gamma 90.000000
_cell_volume 2146.179179
_symmetry_space_group_name_H-M "P -4 C 2"
_symmetry_group_IT_number 116
_symmetry_cell_setting 'tetragonal'
loop_
_space_group_symop_operation_xyz
x,y,z
y,-x,-z
-x,-y,z
-y,x,-z
y,x,1/2-z
-y,-x,1/2-z
-x,y,1/2+z
x,-y,1/2+z
loop_
_atom_site_type_symbol
_atom_site_label
_atom_site_fract_x
_atom_site_fract_y
_atom_site_fract_z
Si Si1 0.728965 0.713115 0.672496
Si Si2 0.400487 0.339981 0.527992
Si Si3 0.352720 0.012766 0.331322
Si Si4 0.000000 0.000000 0.500000
Si Si5 0.052422 0.636808 0.504507
Si Si6 0.027532 0.196338 0.882855
Si Si7 0.151264 0.848737 0.750000
O O1 0.675040 0.675040 0.750000
O O2 0.664113 0.641808 0.606465
O O3 0.729958 0.859451 0.654153
O O4 0.874775 0.693280 0.681872
O O5 0.352481 0.450310 0.475759
O O6 0.364888 0.199881 0.508452
O O7 0.314012 0.038981 0.414179
O O8 0.285882 0.114355 0.281017
O O9 0.500000 0.000000 0.323396
O O10 0.064930 0.906525 0.443244
O O11 0.975277 0.704341 0.440719
O O12 0.000000 0.500000 0.506833
O O13 0.941630 0.139992 0.819572
#
# Coordination Sequence:
#
# PCOD9557812 Si02
#       7
#     8   8   8   2   8   8   4
#     4  11  22  43  68  94 134 178 219 283 355 409
#     4  10  22  42  69  98 128 176 234 285 336 417
#     4  11  24  42  65  97 136 181 229 284 355 424
#     4  12  24  34  60  92 128 162 220 272 316 414
#     4  10  22  42  66  93 128 175 225 283 338 413
#     4  11  23  38  63  97 126 173 221 272 344 408
#     4  12  24  41  64  96 143 174 224 290 347 432
#
# _framework density 21.433440000000001
#
# number of rings (size 3 to 8) (size 9 to 14) (size 15 to 20)
#    0.000    1.217    1.739    5.217    0.000    5.565 
#    3.130    1.739    0.000    0.000    0.000    0.000 
#    0.000    0.000    0.000    0.000    0.000    0.000 
#
# Total GULP energy -256306.183248 kJ/mol
# GULP energy per Si atom -5571.873549 kJ/mol
# Density = 2.138466 g / cm^3
# Si number density = 21.433440 Si / 1000 Ang^3
#
#
#
# Elastic Constant Matrix: (Units=GPa)
#
#
# Indices 1 2 3 4 5 6 
#
# 1 47.1849 25.1206 43.3340 0.0000 0.0000 0.0000
# 2 25.1206 47.1846 43.3337 0.0000 0.0000 0.0000
# 3 43.3340 43.3337 154.3346 0.0000 0.0000 0.0000
# 4 0.0000 0.0000 0.0000 28.2403 0.0000 0.0000
# 5 0.0000 0.0000 0.0000 0.0000 28.2406 0.0000
# 6 0.0000 0.0000 0.0000 0.0000 0.0000 21.0118
#
#
#
# Elastic Compliance Matrix: (Units=1/GPa)
#
#
# Indices 1 2 3 4 5 6 
#
# 1 0.033084 -0.012238 -0.005853 0.000000 0.000000 0.000000
# 2 -0.012238 0.033084 -0.005853 0.000000 0.000000 0.000000
# 3 -0.005853 -0.005853 0.009766 0.000000 0.000000 0.000000
# 4 0.000000 0.000000 0.000000 0.035410 0.000000 0.000000
# 5 0.000000 0.000000 0.000000 0.000000 0.035410 0.000000
# 6 0.000000 0.000000 0.000000 0.000000 0.000000 0.047592
#
#
# Mechanical properties :
#
#
# Convention : Reuss Voigt Hill
#
# Bulk Modulus (GPa) = 35.65595 52.47563 44.06579
# Shear Modulus (GPa) = 19.87405 24.62629 22.25017
#
# Velocity S-wave (km/s) = 3.04837 3.39332 3.22546
# Velocity P-wave (km/s) = 5.39091 6.31578 5.87158
#
# Compressibility (1/GPa) = 0.02804581
#
# Stress axis : x y z
#
# Youngs Moduli (GPa) = 30.22605 30.22591 102.39323
#
# Poissons Ratio (x) = 0.36991 0.59932
# Poissons Ratio (y) = 0.36991 0.59932
# Poissons Ratio (z) = 0.17692 0.17691
#
# Static dielectric constant tensor:
#      x y z
#    x 1.787290 0.000000 0.000000 
#    y 0.000000 1.787290 0.000000 
#    z 0.000000 0.000000 1.810700 
# 
# From -- ./inp_files/3437.got.cif
#   From: 2010.05.17/outbox.cif.g08.bks.cpg/sg116_2_cif.got.tgz:3437.got - 2010.05.20 11:11:43.
