data_PCOD9557807
_publ_section_title
;
Structure prediction by ZEFSAII (Michael W. Deem and Ramdas Pophale) SiO2 
 PCOD9557807
Probable space group: P -4 C 2
;
_chemical_formula_sum "Si O2"
_cell_formula_units_Z 32
_cell_length_a 8.368962
_cell_length_b 8.368962
_cell_length_c 19.918889
_cell_angle_alpha 90.000000
_cell_angle_beta 90.000000
_cell_angle_gamma 90.000000
_cell_volume 1395.109523
_symmetry_space_group_name_H-M "P -4 C 2"
_symmetry_group_IT_number 116
_symmetry_cell_setting 'tetragonal'
loop_
_space_group_symop_operation_xyz
x,y,z
y,-x,-z
-x,-y,z
-y,x,-z
y,x,1/2-z
-y,-x,1/2-z
-x,y,1/2+z
x,-y,1/2+z
loop_
_atom_site_type_symbol
_atom_site_label
_atom_site_fract_x
_atom_site_fract_y
_atom_site_fract_z
Si Si1 0.244827 0.064406 0.406536
Si Si2 0.244783 0.063693 0.613670
Si Si3 0.244492 0.569723 0.486760
Si Si4 0.682611 0.052278 0.752673
O O1 0.376343 0.116116 0.458507
O O2 0.304663 0.024752 0.331883
O O3 0.120339 0.212444 0.404233
O O4 0.151092 0.902796 0.422920
O O5 0.397108 0.157986 0.584804
O O6 0.228838 0.051791 0.694683
O O7 0.397448 0.685832 0.495607
O O8 0.770100 0.229901 0.750000
O O9 0.500000 0.000000 0.735882
#
# Coordination Sequence:
#
# PCOD9557807 Si02
#       4
#     8   8   8   8
#     4  10  22  42  67 100 133 181 236 290 349 432
#     4  10  22  41  68  97 135 178 236 291 351 428
#     4  11  26  42  65 102 142 185 234 295 365 437
#     4  10  23  41  69 104 140 185 239 297 366 440
#
# _framework density 22.937268
#
# number of rings (size 3 to 8) (size 9 to 14) (size 15 to 20)
#    0.000    1.750    0.000    2.250   10.500    7.000 
#    0.000    0.000    0.000    1.500    0.000    0.000 
#    0.000    0.000    0.000    0.000    0.000    0.000 
#
# Total GULP energy -178195.076874 kJ/mol
# GULP energy per Si atom -5568.596152 kJ/mol
# Density = 2.288506 g / cm^3
# Si number density = 22.937268 Si / 1000 Ang^3
#
#
#
# Elastic Constant Matrix: (Units=GPa)
#
#
# Indices 1 2 3 4 5 6 
#
# 1 95.1075 67.6949 35.8401 0.0000 0.0000 0.0000
# 2 67.6949 95.1068 35.8398 0.0000 0.0000 0.0000
# 3 35.8401 35.8398 138.8910 0.0000 0.0000 0.0000
# 4 0.0000 0.0000 0.0000 17.5993 0.0000 0.0000
# 5 0.0000 0.0000 0.0000 0.0000 17.5996 0.0000
# 6 0.0000 0.0000 0.0000 0.0000 0.0000 55.7100
#
#
#
# Elastic Compliance Matrix: (Units=1/GPa)
#
#
# Indices 1 2 3 4 5 6 
#
# 1 0.021705 -0.014775 -0.001788 0.000000 0.000000 0.000000
# 2 -0.014775 0.021705 -0.001788 0.000000 0.000000 0.000000
# 3 -0.001788 -0.001788 0.008123 0.000000 0.000000 0.000000
# 4 0.000000 0.000000 0.000000 0.056820 0.000000 0.000000
# 5 0.000000 0.000000 0.000000 0.000000 0.056820 0.000000
# 6 0.000000 0.000000 0.000000 0.000000 0.000000 0.017950
#
#
# Mechanical properties :
#
#
# Convention : Reuss Voigt Hill
#
# Bulk Modulus (GPa) = 67.43304 67.53943 67.48624
# Shear Modulus (GPa) = 22.24508 30.83047 26.53778
#
# Velocity S-wave (km/s) = 3.11758 3.67020 3.40512
# Velocity P-wave (km/s) = 6.51320 6.88983 6.70416
#
# Compressibility (1/GPa) = 0.01482953
#
# Stress axis : x y z
#
# Youngs Moduli (GPa) = 46.07267 46.07243 123.11104
#
# Poissons Ratio (x) = 0.68073 0.22015
# Poissons Ratio (y) = 0.68073 0.22014
# Poissons Ratio (z) = 0.08239 0.08238
#
# Static dielectric constant tensor:
#      x y z
#    x 1.913940 0.000000 0.000000 
#    y 0.000000 1.913940 0.000000 
#    z 0.000000 0.000000 1.846520 
# 
# From -- ./inp_files/3773.got.cif
#   From: 2010.05.17/outbox.cif.g08.bks.cpg/sg116_2_cif.got.tgz:3773.got - 2010.05.20 11:11:43.
