data_PCOD9557841
_publ_section_title
;
Structure prediction by ZEFSAII (Michael W. Deem and Ramdas Pophale) SiO2 
 PCOD9557841
Probable space group: P -4 C 2
;
_chemical_formula_sum "Si O2"
_cell_formula_units_Z 40
_cell_length_a 18.706691
_cell_length_b 18.706691
_cell_length_c 5.188558
_cell_angle_alpha 90.000000
_cell_angle_beta 90.000000
_cell_angle_gamma 90.000000
_cell_volume 1815.685482
_symmetry_space_group_name_H-M "P -4 C 2"
_symmetry_group_IT_number 116
_symmetry_cell_setting 'tetragonal'
loop_
_space_group_symop_operation_xyz
x,y,z
y,-x,-z
-x,-y,z
-y,x,-z
y,x,1/2-z
-y,-x,1/2-z
-x,y,1/2+z
x,-y,1/2+z
loop_
_atom_site_type_symbol
_atom_site_label
_atom_site_fract_x
_atom_site_fract_y
_atom_site_fract_z
Si Si1 0.047226 0.166320 0.699075
Si Si2 0.669273 0.549128 0.267928
Si Si3 0.120424 0.319923 0.687208
Si Si4 0.079324 0.529561 0.347489
Si Si5 0.787201 0.329521 0.688569
O O1 0.110454 0.110454 0.750000
O O2 0.078530 0.246312 0.716779
O O3 0.012296 0.156288 0.419344
O O4 0.598563 0.598563 0.250000
O O5 0.670907 0.509009 0.540559
O O6 0.735862 0.602919 0.232069
O O7 0.074535 0.389078 0.762928
O O8 0.149388 0.328984 0.398134
O O9 0.184101 0.323664 0.897505
O O10 0.116306 0.515045 0.619945
O O11 0.000000 0.500000 0.394521
O O12 0.740040 0.259961 0.750000
#
# Coordination Sequence:
#
# PCOD9557841 Si02
#       5
#     8   8   8   8   8
#     4  12  28  48  77 107 141 183 238 296 364 435
#     4  11  24  41  64  94 135 179 234 299 355 419
#     4  12  25  43  74 100 138 188 226 282 346 423
#     4  10  23  39  62  93 140 173 216 261 322 391
#     4  11  24  43  66  96 134 174 229 289 337 403
#
# _framework density 22.030248
#
# number of rings (size 3 to 8) (size 9 to 14) (size 15 to 20)
#    0.000    0.800    0.000    6.600    5.600   10.400 
#    0.000    0.000    0.000    0.000    0.000    0.000 
#    0.000    0.000    0.000    0.000    0.000    0.000 
#
# Total GULP energy -224014.825933 kJ/mol
# GULP energy per Si atom -5600.370648 kJ/mol
# Density = 2.198011 g / cm^3
# Si number density = 22.030248 Si / 1000 Ang^3
#
#
#
# Elastic Constant Matrix: (Units=GPa)
#
#
# Indices 1 2 3 4 5 6 
#
# 1 66.7268 28.5933 -17.0578 0.0000 0.0000 0.0000
# 2 28.5933 66.7346 -17.0563 0.0000 0.0000 0.0000
# 3 -17.0578 -17.0563 88.7590 0.0000 0.0000 0.0000
# 4 0.0000 0.0000 0.0000 25.8643 0.0000 0.0000
# 5 0.0000 0.0000 0.0000 0.0000 25.8629 0.0000
# 6 0.0000 0.0000 0.0000 0.0000 0.0000 45.0762
#
#
#
# Elastic Compliance Matrix: (Units=1/GPa)
#
#
# Indices 1 2 3 4 5 6 
#
# 1 0.018744 -0.007478 0.002165 0.000000 0.000000 0.000000
# 2 -0.007478 0.018742 0.002164 0.000000 0.000000 0.000000
# 3 0.002165 0.002164 0.012099 0.000000 0.000000 0.000000
# 4 0.000000 0.000000 0.000000 0.038663 0.000000 0.000000
# 5 0.000000 0.000000 0.000000 0.000000 0.038665 0.000000
# 6 0.000000 0.000000 0.000000 0.000000 0.000000 0.022185
#
#
# Mechanical properties :
#
#
# Convention : Reuss Voigt Hill
#
# Bulk Modulus (GPa) = 23.10074 23.46431 23.28253
# Shear Modulus (GPa) = 29.44224 34.54342 31.99283
#
# Velocity S-wave (km/s) = 3.65971 3.96409 3.81494
# Velocity P-wave (km/s) = 5.32604 5.62371 5.47690
#
# Compressibility (1/GPa) = 0.04328865
#
# Stress axis : x y z
#
# Youngs Moduli (GPa) = 53.34928 53.35633 82.65466
#
# Poissons Ratio (x) = 0.39899 -0.17898
# Poissons Ratio (y) = 0.39894 -0.17890
# Poissons Ratio (z) = -0.11552 -0.11549
#
# Static dielectric constant tensor:
#      x y z
#    x 2.044710 0.000000 0.000000 
#    y 0.000000 2.044750 0.000000 
#    z 0.000000 0.000000 1.846500 
# 
# From -- ./inp_files/133.got.cif
#   From: 2010.05.17/outbox.cif.g08.bks.cpg/sg116_1_cif.got.tgz:133.got - 2010.05.20 11:11:43.
