data_PCOD9557356
_publ_section_title
;
Structure prediction by ZEFSAII (Michael W. Deem and Ramdas Pophale) SiO2 
 PCOD9557356
Probable space group: P -4 M 2
;
_chemical_formula_sum "Si O2"
_cell_formula_units_Z 28
_cell_length_a 9.069419
_cell_length_b 9.069419
_cell_length_c 18.365448
_cell_angle_alpha 90.000000
_cell_angle_beta 90.000000
_cell_angle_gamma 90.000000
_cell_volume 1510.638190
_symmetry_space_group_name_H-M "P -4 M 2"
_symmetry_group_IT_number 115
_symmetry_cell_setting 'tetragonal'
loop_
_space_group_symop_operation_xyz
x,y,z
y,-x,-z
-x,-y,z
-y,x,-z
y,x,-z
-y,-x,-z
-x,y,z
x,-y,z
loop_
_atom_site_type_symbol
_atom_site_label
_atom_site_fract_x
_atom_site_fract_y
_atom_site_fract_z
Si Si1 0.174956 0.324432 0.569730
Si Si2 0.674488 0.823656 0.708342
Si Si3 0.823732 0.825758 0.138464
Si Si4 0.674938 0.325063 0.000000
O O1 0.247038 0.247038 0.500000
O O2 0.197467 0.500000 0.565103
O O3 0.249020 0.260977 0.642412
O O4 0.000000 0.295633 0.571036
O O5 0.500000 0.793747 0.709940
O O6 0.747758 0.784330 0.785523
O O7 0.694471 0.000000 0.697772
O O8 0.739665 0.753720 0.071182
O O9 0.000000 0.806619 0.127597
O O10 0.793697 0.000000 0.142735
O O11 0.500000 0.299175 0.994894
#
# Coordination Sequence:
#
# PCOD9557356 Si02
#       4
#     8   8   8   4
#     4  11  24  40  59  85 116 151 192 236 284 338
#     4  10  21  38  61  88 117 150 189 233 283 339
#     4  10  21  38  61  87 114 148 191 236 284 339
#     4  11  24  39  56  82 116 153 192 235 286 340
#
# _framework density 18.535214
#
# number of rings (size 3 to 8) (size 9 to 14) (size 15 to 20)
#    0.000    1.571    0.000    4.286    0.000   13.143 
#    0.000    0.000    0.000    0.000    0.000    0.000 
#    0.000    0.000    0.000    0.000    0.000    0.000 
#
# Total GULP energy -156589.958321 kJ/mol
# GULP energy per Si atom -5592.498511 kJ/mol
# Density = 1.849303 g / cm^3
# Si number density = 18.535214 Si / 1000 Ang^3
#
#
#
# Elastic Constant Matrix: (Units=GPa)
#
#
# Indices 1 2 3 4 5 6 
#
# 1 116.1486 107.9926 116.2543 0.0000 0.0000 0.0000
# 2 107.9926 116.1495 116.2545 0.0000 0.0000 0.0000
# 3 116.2543 116.2545 209.4478 0.0000 0.0000 0.0000
# 4 0.0000 0.0000 0.0000 77.1535 0.0000 0.0000
# 5 0.0000 0.0000 0.0000 0.0000 77.1550 0.0000
# 6 0.0000 0.0000 0.0000 0.0000 0.0000 32.0033
#
#
#
# Elastic Compliance Matrix: (Units=1/GPa)
#
#
# Indices 1 2 3 4 5 6 
#
# 1 0.066560 -0.056043 -0.005837 0.000000 0.000000 0.000000
# 2 -0.056043 0.066559 -0.005837 0.000000 0.000000 0.000000
# 3 -0.005837 -0.005837 0.011254 0.000000 0.000000 0.000000
# 4 0.000000 0.000000 0.000000 0.012961 0.000000 0.000000
# 5 0.000000 0.000000 0.000000 0.000000 0.012961 0.000000
# 6 0.000000 0.000000 0.000000 0.000000 0.000000 0.031247
#
#
# Mechanical properties :
#
#
# Convention : Reuss Voigt Hill
#
# Bulk Modulus (GPa) = 111.87419 124.74984 118.31202
# Shear Modulus (GPa) = 14.70775 44.01199 29.35987
#
# Velocity S-wave (km/s) = 2.81998 4.87818 3.98427
# Velocity P-wave (km/s) = 8.43159 9.95887 9.22689
#
# Compressibility (1/GPa) = 0.00893861
#
# Stress axis : x y z
#
# Youngs Moduli (GPa) = 15.02406 15.02424 88.85366
#
# Poissons Ratio (x) = 0.84200 0.51868
# Poissons Ratio (y) = 0.84199 0.51865
# Poissons Ratio (z) = 0.08770 0.08770
#
# Static dielectric constant tensor:
#      x y z
#    x 1.617620 0.000000 0.000000 
#    y 0.000000 1.617620 0.000000 
#    z 0.000000 0.000000 1.591520 
# 
# From -- ./inp_files/4017.got.cif
#   From: 2010.05.17/outbox.cif.g08.bks.cpg/sg115_3_cif.got.tgz:4017.got - 2010.05.20 11:07:42.
