data_PCOD9557749
_publ_section_title
;
Structure prediction by ZEFSAII (Michael W. Deem and Ramdas Pophale) SiO2 
 PCOD9557749
Probable space group: P -4 C 2
;
_chemical_formula_sum "Si O2"
_cell_formula_units_Z 56
_cell_length_a 11.680879
_cell_length_b 11.680879
_cell_length_c 19.378779
_cell_angle_alpha 90.000000
_cell_angle_beta 90.000000
_cell_angle_gamma 90.000000
_cell_volume 2644.097468
_symmetry_space_group_name_H-M "P -4 C 2"
_symmetry_group_IT_number 116
_symmetry_cell_setting 'tetragonal'
loop_
_space_group_symop_operation_xyz
x,y,z
y,-x,-z
-x,-y,z
-y,x,-z
y,x,1/2-z
-y,-x,1/2-z
-x,y,1/2+z
x,-y,1/2+z
loop_
_atom_site_type_symbol
_atom_site_label
_atom_site_fract_x
_atom_site_fract_y
_atom_site_fract_z
Si Si1 0.278182 0.680395 0.439667
Si Si2 0.175132 0.702430 0.929902
Si Si3 0.524403 0.740133 0.303958
Si Si4 0.961622 0.376506 0.496966
Si Si5 0.293975 0.086347 0.356974
Si Si6 0.327602 0.538072 0.852514
Si Si7 0.161835 0.727472 0.182614
O O1 0.335851 0.751146 0.501801
O O2 0.169346 0.630850 0.478234
O O3 0.338439 0.575144 0.399646
O O4 0.229313 0.771606 0.384814
O O5 0.209896 0.823489 0.895273
O O6 0.213219 0.605938 0.875708
O O7 0.045799 0.707453 0.956201
O O8 0.624515 0.834843 0.309955
O O9 0.506607 0.690429 0.227411
O O10 0.571608 0.634390 0.351131
O O11 0.407457 0.804457 0.322242
O O12 0.969826 0.361578 0.578748
O O13 0.000000 0.500000 0.474710
O O14 0.249554 0.973892 0.318143
O O15 0.218928 0.781072 0.250000
#
# Coordination Sequence:
#
# PCOD9557749 Si02
#       7
#     8   8   8   8   8   8   8
#     4  11  23  38  62  97 128 166 220 274 334 400
#     4  10  22  40  68  95 128 171 221 282 336 394
#     4  10  22  40  66  91 133 177 217 268 342 404
#     4  11  20  38  68  92 127 169 220 277 330 403
#     4  10  23  41  66  96 130 174 222 274 332 402
#     4  10  21  41  61  97 129 171 218 271 334 403
#     4  12  23  40  63  96 131 174 223 272 331 407
#
# _framework density 21.179251000000001
#
# number of rings (size 3 to 8) (size 9 to 14) (size 15 to 20)
#    0.000    1.429    4.286    1.286    0.000    2.857 
#    2.571    0.714    0.000    0.857    0.000    0.000 
#    0.000    0.000    0.000    0.000    0.000    0.000 
#
# Total GULP energy -312314.876863 kJ/mol
# GULP energy per Si atom -5577.051373 kJ/mol
# Density = 2.113105 g / cm^3
# Si number density = 21.179251 Si / 1000 Ang^3
#
#
#
# Elastic Constant Matrix: (Units=GPa)
#
#
# Indices 1 2 3 4 5 6 
#
# 1 61.8094 14.1278 9.7906 0.0000 0.0000 0.0000
# 2 14.1278 61.8109 9.7907 0.0000 0.0000 0.0000
# 3 9.7906 9.7907 59.0162 0.0000 0.0000 0.0000
# 4 0.0000 0.0000 0.0000 9.0198 0.0000 0.0000
# 5 0.0000 0.0000 0.0000 0.0000 9.0190 0.0000
# 6 0.0000 0.0000 0.0000 0.0000 0.0000 15.5285
#
#
#
# Elastic Compliance Matrix: (Units=1/GPa)
#
#
# Indices 1 2 3 4 5 6 
#
# 1 0.017365 -0.003607 -0.002282 0.000000 0.000000 0.000000
# 2 -0.003607 0.017364 -0.002282 0.000000 0.000000 0.000000
# 3 -0.002282 -0.002282 0.017702 0.000000 0.000000 0.000000
# 4 0.000000 0.000000 0.000000 0.110867 0.000000 0.000000
# 5 0.000000 0.000000 0.000000 0.000000 0.110877 0.000000
# 6 0.000000 0.000000 0.000000 0.000000 0.000000 0.064398
#
#
# Mechanical properties :
#
#
# Convention : Reuss Voigt Hill
#
# Bulk Modulus (GPa) = 27.71083 27.78383 27.74733
# Shear Modulus (GPa) = 13.62600 16.64196 15.13398
#
# Velocity S-wave (km/s) = 2.53922 2.80619 2.67604
# Velocity P-wave (km/s) = 4.65931 4.86277 4.76213
#
# Compressibility (1/GPa) = 0.03608697
#
# Stress axis : x y z
#
# Youngs Moduli (GPa) = 57.58762 57.58899 56.49158
#
# Poissons Ratio (x) = 0.20775 0.12893
# Poissons Ratio (y) = 0.20775 0.12893
# Poissons Ratio (z) = 0.13143 0.13143
#
# Static dielectric constant tensor:
#      x y z
#    x 1.807130 0.000000 0.000000 
#    y 0.000000 1.807130 0.000000 
#    z 0.000000 0.000000 1.785740 
# 
# From -- ./inp_files/4139.got.cif
#   From: 2010.05.17/outbox.cif.g08.bks.cpg/sg116_3_cif.got.tgz:4139.got - 2010.05.20 11:11:43.
