data_PCOD9557769
_publ_section_title
;
Structure prediction by ZEFSAII (Michael W. Deem and Ramdas Pophale) SiO2 
 PCOD9557769
Probable space group: P -4 C 2
;
_chemical_formula_sum "Si O2"
_cell_formula_units_Z 38
_cell_length_a 11.591869
_cell_length_b 11.591869
_cell_length_c 14.658789
_cell_angle_alpha 90.000000
_cell_angle_beta 90.000000
_cell_angle_gamma 90.000000
_cell_volume 1969.722395
_symmetry_space_group_name_H-M "P -4 C 2"
_symmetry_group_IT_number 116
_symmetry_cell_setting 'tetragonal'
loop_
_space_group_symop_operation_xyz
x,y,z
y,-x,-z
-x,-y,z
-y,x,-z
y,x,1/2-z
-y,-x,1/2-z
-x,y,1/2+z
x,-y,1/2+z
loop_
_atom_site_type_symbol
_atom_site_label
_atom_site_fract_x
_atom_site_fract_y
_atom_site_fract_z
Si Si1 0.017820 0.779100 0.621551
Si Si2 0.381395 0.933614 0.722765
Si Si3 0.583882 0.644475 0.047548
Si Si4 0.741433 0.139594 0.550937
Si Si5 0.000000 0.000000 0.750000
Si Si6 0.343449 0.343449 0.250000
O O1 0.007061 0.670952 0.688088
O O2 0.147770 0.789565 0.584380
O O3 0.932236 0.773232 0.537421
O O4 0.999201 0.890061 0.684543
O O5 0.299507 0.941808 0.634027
O O6 0.373758 0.794655 0.744493
O O7 0.500000 0.000000 0.702326
O O8 0.639967 0.769154 0.033386
O O9 0.606203 0.611702 0.153732
O O10 0.642199 0.549271 0.982030
#
# Coordination Sequence:
#
# PCOD9557769 Si02
#       6
#     8   8   8   8   2   4
#     4  12  23  42  67  95 135 179 217 276 342 403
#     4  11  23  43  69  98 133 179 221 280 348 395
#     4  10  23  43  67  95 131 178 223 275 345 399
#     4  11  24  43  66  97 136 176 223 283 333 408
#     4  12  22  46  64  94 142 176 212 270 350 412
#     4  10  21  47  66  92 148 170 216 304 341 385
#
# _framework density 19.292058000000001
#
# number of rings (size 3 to 8) (size 9 to 14) (size 15 to 20)
#    0.000    1.053    6.316    1.263    2.947    5.895 
#    0.000    0.000    0.000    0.000    0.000    0.000 
#    0.000    0.000    0.000    0.000    0.000    0.000 
#
# Total GULP energy -212060.528477 kJ/mol
# GULP energy per Si atom -5580.540223 kJ/mol
# Density = 1.924815 g / cm^3
# Si number density = 19.292058 Si / 1000 Ang^3
#
#
#
# Elastic Constant Matrix: (Units=GPa)
#
#
# Indices 1 2 3 4 5 6 
#
# 1 47.5772 3.9512 26.9844 0.0000 0.0000 0.0000
# 2 3.9512 47.5772 26.9844 0.0000 0.0000 0.0000
# 3 26.9844 26.9844 157.7008 0.0000 0.0000 0.0000
# 4 0.0000 0.0000 0.0000 33.2473 0.0000 0.0000
# 5 0.0000 0.0000 0.0000 0.0000 33.2473 0.0000
# 6 0.0000 0.0000 0.0000 0.0000 0.0000 34.4382
#
#
#
# Elastic Compliance Matrix: (Units=1/GPa)
#
#
# Indices 1 2 3 4 5 6 
#
# 1 0.023283 0.000361 -0.004046 0.000000 0.000000 0.000000
# 2 0.000361 0.023283 -0.004046 0.000000 0.000000 0.000000
# 3 -0.004046 -0.004046 0.007726 0.000000 0.000000 0.000000
# 4 0.000000 0.000000 0.000000 0.030078 0.000000 0.000000
# 5 0.000000 0.000000 0.000000 0.000000 0.030078 0.000000
# 6 0.000000 0.000000 0.000000 0.000000 0.000000 0.029038
#
#
# Mechanical properties :
#
#
# Convention : Reuss Voigt Hill
#
# Bulk Modulus (GPa) = 25.75271 40.96612 33.35941
# Shear Modulus (GPa) = 29.08847 33.18225 31.13536
#
# Velocity S-wave (km/s) = 3.88725 4.15178 4.02169
# Velocity P-wave (km/s) = 5.79011 6.65311 6.23656
#
# Compressibility (1/GPa) = 0.03883087
#
# Stress axis : x y z
#
# Youngs Moduli (GPa) = 42.94956 42.94956 129.43844
#
# Poissons Ratio (x) = -0.01551 0.52368
# Poissons Ratio (y) = -0.01551 0.52368
# Poissons Ratio (z) = 0.17376 0.17376
#
# Static dielectric constant tensor:
#      x y z
#    x 1.679590 0.000000 0.000000 
#    y 0.000000 1.679590 0.000000 
#    z 0.000000 0.000000 1.666980 
# 
# From -- ./inp_files/2624.got.cif
#   From: 2010.05.17/outbox.cif.g08.bks.cpg/sg116_2_cif.got.tgz:2624.got - 2010.05.20 11:11:43.
