data_PCOD9557396
_publ_section_title
;
Structure prediction by ZEFSAII (Michael W. Deem and Ramdas Pophale) SiO2 
 PCOD9557396
Probable space group: P -4 M 2
;
_chemical_formula_sum "Si O2"
_cell_formula_units_Z 56
_cell_length_a 14.503067
_cell_length_b 14.503067
_cell_length_c 13.204046
_cell_angle_alpha 90.000000
_cell_angle_beta 90.000000
_cell_angle_gamma 90.000000
_cell_volume 2777.325203
_symmetry_space_group_name_H-M "P -4 M 2"
_symmetry_group_IT_number 115
_symmetry_cell_setting 'tetragonal'
loop_
_space_group_symop_operation_xyz
x,y,z
y,-x,-z
-x,-y,z
-y,x,-z
y,x,-z
-y,-x,-z
-x,y,z
x,-y,z
loop_
_atom_site_type_symbol
_atom_site_label
_atom_site_fract_x
_atom_site_fract_y
_atom_site_fract_z
Si Si1 0.753181 0.702389 0.219754
Si Si2 0.602458 0.401137 0.881001
Si Si3 0.889263 0.602149 0.923901
Si Si4 0.102904 0.258991 0.516277
Si Si5 0.100519 0.398636 0.331284
Si Si6 0.890638 0.774485 0.069863
Si Si7 0.610735 0.176045 0.309837
O O1 0.682730 0.668439 0.136473
O O2 0.816094 0.618997 0.256783
O O3 0.827302 0.772214 0.170789
O O4 0.680794 0.736490 0.304669
O O5 0.500000 0.387257 0.836837
O O6 0.638874 0.500000 0.842056
O O7 0.591846 0.408155 0.000000
O O8 0.853261 0.500000 0.953929
O O9 0.861265 0.617809 0.806303
O O10 0.000000 0.598816 0.924592
O O11 0.865874 0.683185 0.002680
O O12 0.180694 0.180694 0.500000
O O13 0.105277 0.320440 0.415123
O O14 0.116710 0.333712 0.607039
O O15 0.000000 0.218390 0.527637
O O16 0.106612 0.500000 0.377953
O O17 0.000000 0.392386 0.279386
O O18 0.000000 0.774630 0.090550
O O19 0.859549 0.859549 0.000000
O O20 0.500000 0.186467 0.331166
#
# Coordination Sequence:
#
# PCOD9557396 Si02
#       7
#     8   8   8   8   8   8   8
#     4  12  21  36  57  89 122 161 201 253 303 361
#     4   9  19  34  52  79 118 163 207 245 288 350
#     4   9  19  36  58  87 120 152 195 252 306 356
#     4  11  23  43  68  95 125 157 197 245 302 365
#     4  10  22  40  63  90 121 158 200 248 304 368
#     4  11  23  39  58  83 119 165 211 253 303 362
#     4  11  22  37  63  94 122 155 200 251 308 365
#
# _framework density 20.163284000000001
#
# number of rings (size 3 to 8) (size 9 to 14) (size 15 to 20)
#    0.000    1.571    2.857    3.000    0.000    2.857 
#    0.000    1.429    0.000    0.000    0.000    1.000 
#    0.000    0.000    0.000    0.000    0.000    0.000 
#
# Total GULP energy -311950.533982 kJ/mol
# GULP energy per Si atom -5570.545250 kJ/mol
# Density = 2.011739 g / cm^3
# Si number density = 20.163284 Si / 1000 Ang^3
#
#
#
# Elastic Constant Matrix: (Units=GPa)
#
#
# Indices 1 2 3 4 5 6 
#
# 1 119.9362 51.9338 18.1525 0.0000 0.0000 0.0000
# 2 51.9338 119.9362 18.1525 0.0000 0.0000 0.0000
# 3 18.1525 18.1525 30.6102 0.0000 0.0000 0.0000
# 4 0.0000 0.0000 0.0000 23.3173 0.0000 0.0000
# 5 0.0000 0.0000 0.0000 0.0000 23.3173 0.0000
# 6 0.0000 0.0000 0.0000 0.0000 0.0000 22.8528
#
#
#
# Elastic Compliance Matrix: (Units=1/GPa)
#
#
# Indices 1 2 3 4 5 6 
#
# 1 0.010678 -0.004027 -0.003945 0.000000 0.000000 0.000000
# 2 -0.004027 0.010678 -0.003945 0.000000 0.000000 0.000000
# 3 -0.003945 -0.003945 0.037347 0.000000 0.000000 0.000000
# 4 0.000000 0.000000 0.000000 0.042887 0.000000 0.000000
# 5 0.000000 0.000000 0.000000 0.000000 0.042887 0.000000
# 6 0.000000 0.000000 0.000000 0.000000 0.000000 0.043758
#
#
# Mechanical properties :
#
#
# Convention : Reuss Voigt Hill
#
# Bulk Modulus (GPa) = 28.67605 49.66223 39.16914
# Shear Modulus (GPa) = 22.35218 26.04705 24.19962
#
# Velocity S-wave (km/s) = 3.33311 3.59807 3.46812
# Velocity P-wave (km/s) = 5.39126 6.47649 5.95863
#
# Compressibility (1/GPa) = 0.03487231
#
# Stress axis : x y z
#
# Youngs Moduli (GPa) = 93.64641 93.64638 26.77572
#
# Poissons Ratio (x) = 0.37710 0.10562
# Poissons Ratio (y) = 0.37710 0.10562
# Poissons Ratio (z) = 0.36939 0.36939
#
# Static dielectric constant tensor:
#      x y z
#    x 1.758100 0.000000 0.000000 
#    y 0.000000 1.758100 0.000000 
#    z 0.000000 0.000000 1.738210 
# 
# From -- ./inp_files/3066.got.cif
#   From: 2010.05.17/outbox.cif.g08.bks.cpg/sg115_2_cif.got.tgz:3066.got - 2010.05.20 11:07:42.
