data_PCOD9557177
_publ_section_title
;
Structure prediction by ZEFSAII (Michael W. Deem and Ramdas Pophale) SiO2 
 PCOD9557177
Probable space group: P -4 M 2
;
_chemical_formula_sum "Si O2"
_cell_formula_units_Z 48
_cell_length_a 9.214515
_cell_length_b 9.214515
_cell_length_c 31.715575
_cell_angle_alpha 90.000000
_cell_angle_beta 90.000000
_cell_angle_gamma 90.000000
_cell_volume 2692.883419
_symmetry_space_group_name_H-M "P -4 M 2"
_symmetry_group_IT_number 115
_symmetry_cell_setting 'tetragonal'
loop_
_space_group_symop_operation_xyz
x,y,z
y,-x,-z
-x,-y,z
-y,x,-z
y,x,-z
-y,-x,-z
-x,y,z
x,-y,z
loop_
_atom_site_type_symbol
_atom_site_label
_atom_site_fract_x
_atom_site_fract_y
_atom_site_fract_z
Si Si1 0.670747 0.174719 0.367616
Si Si2 0.326955 0.329319 0.204308
Si Si3 0.672937 0.826800 0.960574
Si Si4 0.673566 0.172077 0.117288
Si Si5 0.828917 0.326811 0.290599
Si Si6 0.830293 0.674512 0.538142
O O1 0.500000 0.210490 0.363105
O O2 0.759093 0.247449 0.330345
O O3 0.719031 0.219521 0.414808
O O4 0.683009 0.000000 0.365639
O O5 0.500000 0.317271 0.211161
O O6 0.294129 0.500000 0.196515
O O7 0.289428 0.236209 0.163212
O O8 0.245512 0.282248 0.246630
O O9 0.500000 0.800254 0.961088
O O10 0.743676 0.761351 0.918466
O O11 0.696099 0.000000 0.962878
O O12 0.748565 0.748565 0.000000
O O13 0.500000 0.194452 0.110862
O O14 0.701250 0.000000 0.115255
O O15 0.805429 0.500000 0.294924
O O16 0.000000 0.299451 0.288703
O O17 0.742793 0.742793 0.500000
O O18 0.820632 0.500000 0.536753
O O19 0.000000 0.713497 0.534053
#
# Coordination Sequence:
#
# PCOD9557177 Si02
#       6
#     8   8   8   8   8   8
#     4   9  19  36  55  74 100 136 176 216 259 310
#     4   9  18  34  55  77 105 144 185 221 260 310
#     4  11  24  40  59  84 113 146 184 225 269 317
#     4  10  21  37  58  85 114 143 179 222 267 317
#     4  10  21  35  52  78 110 140 173 217 266 314
#     4   9  19  35  53  75 103 134 170 213 260 311
#
# _framework density 17.824757999999999
#
# number of rings (size 3 to 8) (size 9 to 14) (size 15 to 20)
#    0.000    2.333    0.000    3.000    0.000    8.667 
#    0.000    8.333    0.000    0.000    0.000    0.000 
#    0.000    0.000    0.000    0.000    0.000    0.000 
#
# Total GULP energy -267952.693621 kJ/mol
# GULP energy per Si atom -5582.347784 kJ/mol
# Density = 1.778419 g / cm^3
# Si number density = 17.824758 Si / 1000 Ang^3
#
#
#
# Elastic Constant Matrix: (Units=GPa)
#
#
# Indices 1 2 3 4 5 6 
#
# 1 64.4593 58.0224 84.6505 0.0000 0.0000 0.0000
# 2 58.0224 64.4593 84.6505 0.0000 0.0000 0.0000
# 3 84.6505 84.6505 196.3309 0.0000 0.0000 0.0000
# 4 0.0000 0.0000 0.0000 115.6293 0.0000 0.0000
# 5 0.0000 0.0000 0.0000 0.0000 115.6293 0.0000
# 6 0.0000 0.0000 0.0000 0.0000 0.0000 27.0789
#
#
#
# Elastic Compliance Matrix: (Units=1/GPa)
#
#
# Indices 1 2 3 4 5 6 
#
# 1 0.087782 -0.067574 -0.008713 0.000000 0.000000 0.000000
# 2 -0.067574 0.087782 -0.008713 0.000000 0.000000 0.000000
# 3 -0.008713 -0.008713 0.012607 0.000000 0.000000 0.000000
# 4 0.000000 0.000000 0.000000 0.008648 0.000000 0.000000
# 5 0.000000 0.000000 0.000000 0.000000 0.008648 0.000000
# 6 0.000000 0.000000 0.000000 0.000000 0.000000 0.036929
#
#
# Mechanical properties :
#
#
# Convention : Reuss Voigt Hill
#
# Bulk Modulus (GPa) = 55.03254 86.65514 70.84384
# Shear Modulus (GPa) = 11.94873 58.19591 35.07232
#
# Velocity S-wave (km/s) = 2.59191 5.72012 4.44060
# Velocity P-wave (km/s) = 6.31653 9.60973 8.13159
#
# Compressibility (1/GPa) = 0.01817107
#
# Stress axis : x y z
#
# Youngs Moduli (GPa) = 11.39182 11.39182 79.32222
#
# Poissons Ratio (x) = 0.76979 0.69113
# Poissons Ratio (y) = 0.76979 0.69113
# Poissons Ratio (z) = 0.09926 0.09926
#
# Static dielectric constant tensor:
#      x y z
#    x 1.592280 0.000000 0.000000 
#    y 0.000000 1.592280 0.000000 
#    z 0.000000 0.000000 1.586100 
# 
# From -- ./inp_files/5928.got.cif
#   From: 2010.05.17/outbox.cif.g08.bks.cpg/sg115_3_cif.got.tgz:5928.got - 2010.05.20 11:07:42.
