data_PCOD9557657
_publ_section_title
;
Structure prediction by ZEFSAII (Michael W. Deem and Ramdas Pophale) SiO2 
 PCOD9557657
Probable space group: P -4 C 2
;
_chemical_formula_sum "Si O2"
_cell_formula_units_Z 58
_cell_length_a 18.106317
_cell_length_b 18.106317
_cell_length_c 8.705561
_cell_angle_alpha 90.000000
_cell_angle_beta 90.000000
_cell_angle_gamma 90.000000
_cell_volume 2854.019934
_symmetry_space_group_name_H-M "P -4 C 2"
_symmetry_group_IT_number 116
_symmetry_cell_setting 'tetragonal'
loop_
_space_group_symop_operation_xyz
x,y,z
y,-x,-z
-x,-y,z
-y,x,-z
y,x,1/2-z
-y,-x,1/2-z
-x,y,1/2+z
x,-y,1/2+z
loop_
_atom_site_type_symbol
_atom_site_label
_atom_site_fract_x
_atom_site_fract_y
_atom_site_fract_z
Si Si1 0.150025 0.565101 0.011412
Si Si2 0.587341 0.360354 0.091441
Si Si3 0.340550 0.727495 0.600016
Si Si4 0.500000 0.500000 0.500000
Si Si5 0.721513 0.102932 0.090766
Si Si6 0.808844 0.574970 0.867066
Si Si7 0.825366 0.206733 0.930410
Si Si8 0.048968 0.297712 0.561974
O O1 0.184350 0.565966 0.183028
O O2 0.082362 0.621912 0.018143
O O3 0.210960 0.596587 0.891465
O O4 0.137714 0.482711 0.953020
O O5 0.629445 0.370556 0.250000
O O6 0.561515 0.275694 0.080490
O O7 0.652726 0.371243 0.970622
O O8 0.526303 0.424545 0.082668
O O9 0.300095 0.699906 0.750000
O O10 0.275905 0.773458 0.515477
O O11 0.656708 0.164280 0.088891
O O12 0.719495 0.069517 0.261838
O O13 0.797465 0.140198 0.036275
O O14 0.703908 0.037040 0.973585
O O15 0.811901 0.188100 0.750000
O O16 0.907159 0.236825 0.960998
#
# Coordination Sequence:
#
# PCOD9557657 Si02
#       8
#     8   8   8   2   8   8   8   8
#     4  10  23  39  57  91 118 159 214 258 338 384
#     4  12  24  43  60  83 118 163 218 274 329 393
#     4  10  21  37  62  85 114 155 207 265 313 381
#     4  12  30  40  56  86 122 168 216 282 346 388
#     4  11  22  41  64  95 128 166 212 258 326 382
#     4  11  24  39  64  85 118 167 210 276 320 403
#     4  10  20  37  64  97 125 161 207 253 306 372
#     4  10  23  39  63  93 131 165 205 264 315 389
#
# _framework density 20.322213000000001
#
# number of rings (size 3 to 8) (size 9 to 14) (size 15 to 20)
#    0.000    1.379    2.759    2.276    1.931    3.862 
#    0.000    2.759    0.000    0.414    0.000    2.897 
#    0.000    0.000    0.000    0.000    0.000    0.000 
#
# Total GULP energy -323614.080430 kJ/mol
# GULP energy per Si atom -5579.553111 kJ/mol
# Density = 2.027596 g / cm^3
# Si number density = 20.322213 Si / 1000 Ang^3
#
#
#
# Elastic Constant Matrix: (Units=GPa)
#
#
# Indices 1 2 3 4 5 6 
#
# 1 66.9004 -0.8659 6.0402 0.0000 0.0000 0.0000
# 2 -0.8659 66.9005 6.0399 0.0000 0.0000 0.0000
# 3 6.0402 6.0399 30.3226 0.0000 0.0000 0.0000
# 4 0.0000 0.0000 0.0000 27.4298 0.0000 0.0000
# 5 0.0000 0.0000 0.0000 0.0000 27.4301 0.0000
# 6 0.0000 0.0000 0.0000 0.0000 0.0000 18.0221
#
#
#
# Elastic Compliance Matrix: (Units=1/GPa)
#
#
# Indices 1 2 3 4 5 6 
#
# 1 0.015236 0.000480 -0.003131 0.000000 0.000000 0.000000
# 2 0.000480 0.015236 -0.003131 0.000000 0.000000 0.000000
# 3 -0.003131 -0.003131 0.034226 0.000000 0.000000 0.000000
# 4 0.000000 0.000000 0.000000 0.036457 0.000000 0.000000
# 5 0.000000 0.000000 0.000000 0.000000 0.036456 0.000000
# 6 0.000000 0.000000 0.000000 0.000000 0.000000 0.055487
#
#
# Mechanical properties :
#
#
# Convention : Reuss Voigt Hill
#
# Bulk Modulus (GPa) = 18.81958 20.72800 19.77379
# Shear Modulus (GPa) = 22.48465 24.77034 23.62750
#
# Velocity S-wave (km/s) = 3.32988 3.49503 3.41346
# Velocity P-wave (km/s) = 4.90559 5.14867 5.02860
#
# Compressibility (1/GPa) = 0.05313613
#
# Stress axis : x y z
#
# Youngs Moduli (GPa) = 65.63207 65.63223 29.21763
#
# Poissons Ratio (x) = -0.03149 0.09147
# Poissons Ratio (y) = -0.03149 0.09147
# Poissons Ratio (z) = 0.20547 0.20546
#
# Static dielectric constant tensor:
#      x y z
#    x 1.734530 0.000000 0.000000 
#    y 0.000000 1.734530 0.000000 
#    z 0.000000 0.000000 1.742430 
# 
# From -- ./inp_files/1053.got.cif
#   From: 2010.05.17/outbox.cif.g08.bks.cpg/sg116_1_cif.got.tgz:1053.got - 2010.05.20 11:11:43.
