data_PCOD9557026
_publ_section_title
;
Structure prediction by ZEFSAII (Michael W. Deem and Ramdas Pophale) SiO2 
 PCOD9557026
Probable space group: P -4 M 2
;
_chemical_formula_sum "Si O2"
_cell_formula_units_Z 40
_cell_length_a 7.935783
_cell_length_b 7.935783
_cell_length_c 30.666804
_cell_angle_alpha 90.000000
_cell_angle_beta 90.000000
_cell_angle_gamma 90.000000
_cell_volume 1931.292638
_symmetry_space_group_name_H-M "P -4 M 2"
_symmetry_group_IT_number 115
_symmetry_cell_setting 'tetragonal'
loop_
_space_group_symop_operation_xyz
x,y,z
y,-x,-z
-x,-y,z
-y,x,-z
y,x,-z
-y,-x,-z
-x,y,z
x,-y,z
loop_
_atom_site_type_symbol
_atom_site_label
_atom_site_fract_x
_atom_site_fract_y
_atom_site_fract_z
Si Si1 0.706839 0.195213 0.858968
Si Si2 0.796858 0.500000 0.696851
Si Si3 0.500000 0.296445 0.202353
Si Si4 0.688222 0.200436 0.953376
Si Si5 0.807550 0.198524 0.360090
Si Si6 0.697368 0.191764 0.546457
O O1 0.500000 0.194598 0.860759
O O2 0.759656 0.331069 0.823105
O O3 0.765859 0.255253 0.907223
O O4 0.757792 0.000000 0.850775
O O5 0.758417 0.500000 0.747767
O O6 0.730603 0.668896 0.672998
O O7 0.000000 0.500000 0.691280
O O8 0.500000 0.500000 0.201059
O O9 0.500000 0.273117 0.956285
O O10 0.676428 0.000000 0.947841
O O11 0.770230 0.229771 0.000000
O O12 0.741270 0.217644 0.409722
O O13 0.000000 0.268889 0.357831
O O14 0.822066 0.000000 0.351197
O O15 0.722926 0.277075 0.500000
O O16 0.500000 0.190334 0.555968
O O17 0.759325 0.000000 0.541057
#
# Coordination Sequence:
#
# PCOD9557026 Si02
#       6
#     8   4   4   8   8   8
#     4   8  16  32  51  74 107 139 174 223 271 325
#     4  10  22  38  56  80 108 138 178 234 284 327
#     4  10  20  34  56  80 102 138 184 222 276 335
#     4   9  18  31  48  73 103 136 174 216 262 316
#     4   9  19  37  58  77 104 145 185 224 274 333
#     4  10  21  35  53  80 112 145 181 221 267 323
#
# _framework density 20.711516
#
# number of rings (size 3 to 8) (size 9 to 14) (size 15 to 20)
#    0.000    2.800    0.000    1.800    2.800    3.200 
#    0.000    1.000    0.000    1.200    0.000    0.000 
#    0.000    0.000    0.000    0.000    0.000    0.000 
#
# Total GULP energy -222891.588625 kJ/mol
# GULP energy per Si atom -5572.289716 kJ/mol
# Density = 2.066438 g / cm^3
# Si number density = 20.711516 Si / 1000 Ang^3
#
#
#
# Elastic Constant Matrix: (Units=GPa)
#
#
# Indices 1 2 3 4 5 6 
#
# 1 48.1206 20.5894 47.7258 0.0000 0.0000 0.0000
# 2 20.5894 48.1209 47.7255 0.0000 0.0000 0.0000
# 3 47.7258 47.7255 173.4599 0.0000 0.0000 0.0000
# 4 0.0000 0.0000 0.0000 35.6377 0.0000 0.0000
# 5 0.0000 0.0000 0.0000 0.0000 35.6376 0.0000
# 6 0.0000 0.0000 0.0000 0.0000 0.0000 6.7529
#
#
#
# Elastic Compliance Matrix: (Units=1/GPa)
#
#
# Indices 1 2 3 4 5 6 
#
# 1 0.029941 -0.006382 -0.006482 0.000000 0.000000 0.000000
# 2 -0.006382 0.029940 -0.006482 0.000000 0.000000 0.000000
# 3 -0.006482 -0.006482 0.009332 0.000000 0.000000 0.000000
# 4 0.000000 0.000000 0.000000 0.028060 0.000000 0.000000
# 5 0.000000 0.000000 0.000000 0.000000 0.028060 0.000000
# 6 0.000000 0.000000 0.000000 0.000000 0.000000 0.148084
#
#
# Mechanical properties :
#
#
# Convention : Reuss Voigt Hill
#
# Bulk Modulus (GPa) = 32.76409 55.75367 44.25888
# Shear Modulus (GPa) = 15.51437 25.84968 20.68203
#
# Velocity S-wave (km/s) = 2.73988 3.53665 3.16345
# Velocity P-wave (km/s) = 5.08556 6.60718 5.89566
#
# Compressibility (1/GPa) = 0.03052122
#
# Stress axis : x y z
#
# Youngs Moduli (GPa) = 33.39956 33.40003 107.15998
#
# Poissons Ratio (x) = 0.21316 0.69460
# Poissons Ratio (y) = 0.21315 0.69458
# Poissons Ratio (z) = 0.21649 0.21649
#
# Static dielectric constant tensor:
#      x y z
#    x 1.767860 0.000000 0.000000 
#    y 0.000000 1.767860 0.000000 
#    z 0.000000 0.000000 1.740210 
# 
# From -- ./inp_files/5499.got.cif
#   From: 2010.05.17/outbox.cif.g08.bks.cpg/sg115_3_cif.got.tgz:5499.got - 2010.05.20 11:07:42.
