data_PCOD9557118
_publ_section_title
;
Structure prediction by ZEFSAII (Michael W. Deem and Ramdas Pophale) SiO2 
 PCOD9557118
Probable space group: P -4 M 2
;
_chemical_formula_sum "Si O2"
_cell_formula_units_Z 48
_cell_length_a 8.585097
_cell_length_b 8.585097
_cell_length_c 29.685330
_cell_angle_alpha 90.000000
_cell_angle_beta 90.000000
_cell_angle_gamma 90.000000
_cell_volume 2187.924312
_symmetry_space_group_name_H-M "P -4 M 2"
_symmetry_group_IT_number 115
_symmetry_cell_setting 'tetragonal'
loop_
_space_group_symop_operation_xyz
x,y,z
y,-x,-z
-x,-y,z
-y,x,-z
y,x,-z
-y,-x,-z
-x,y,z
x,-y,z
loop_
_atom_site_type_symbol
_atom_site_label
_atom_site_fract_x
_atom_site_fract_y
_atom_site_fract_z
Si Si1 0.817408 0.000000 0.092043
Si Si2 0.687352 0.824599 0.224490
Si Si3 0.331130 0.331130 0.000000
Si Si4 0.311846 0.676495 0.133526
Si Si5 0.685785 0.816440 0.404551
Si Si6 0.685580 0.314421 0.500000
Si Si7 0.670481 0.000000 0.997841
Si Si8 0.814258 0.676541 0.313403
O O1 0.743343 0.162201 0.109909
O O2 0.792515 0.000000 0.037984
O O3 0.000000 0.000000 0.102301
O O4 0.500000 0.823186 0.225422
O O5 0.736952 0.704631 0.185668
O O6 0.746868 0.781939 0.273710
O O7 0.737895 0.000000 0.212034
O O8 0.166959 0.327046 0.026265
O O9 0.330660 0.500000 0.975921
O O10 0.500000 0.677409 0.131385
O O11 0.262517 0.500000 0.119043
O O12 0.500000 0.785331 0.402940
O O13 0.742050 0.762289 0.453724
O O14 0.762965 0.730522 0.362750
O O15 0.710373 0.000000 0.399628
O O16 0.500000 0.288057 0.503617
O O17 0.500000 0.000000 0.020883
O O18 0.759127 0.500000 0.305871
O O19 0.000000 0.680669 0.310845
#
# Coordination Sequence:
#
# PCOD9557118 Si02
#       8
#     4   8   4   8   8   4   4   8
#     4  12  26  40  60  96 136 176 214 266 330 393
#     4  10  20  37  63  89 114 149 198 250 301 361
#     4   9  20  39  64  96 130 171 222 275 336 398
#     4  10  21  41  67  90 121 168 220 270 318 379
#     4  10  21  37  57  81 108 139 179 225 275 337
#     4   9  18  34  56  79 104 138 176 219 272 329
#     4  10  22  40  66  94 128 172 220 273 325 388
#     4  11  24  38  53  79 114 149 187 234 288 345
#
# _framework density 21.938600999999998
#
# number of rings (size 3 to 8) (size 9 to 14) (size 15 to 20)
#    0.000    1.833    0.833    2.750    1.167    7.667 
#    0.000    3.333    0.000    0.000    0.000    0.000 
#    0.000    0.000    0.000    0.000    0.000    0.000 
#
# Total GULP energy -267828.091980 kJ/mol
# GULP energy per Si atom -5579.751916 kJ/mol
# Density = 2.188867 g / cm^3
# Si number density = 21.938601 Si / 1000 Ang^3
#
#
#
# Elastic Constant Matrix: (Units=GPa)
#
#
# Indices 1 2 3 4 5 6 
#
# 1 15.5140 135.5980 30.3883 0.0000 0.0000 0.0000
# 2 135.5980 15.5130 30.3891 0.0000 0.0000 0.0000
# 3 30.3883 30.3891 100.1164 0.0000 0.0000 0.0000
# 4 0.0000 0.0000 0.0000 8.8945 0.0000 0.0000
# 5 0.0000 0.0000 0.0000 0.0000 8.8954 0.0000
# 6 0.0000 0.0000 0.0000 0.0000 0.0000 21.6143
#
#
#
# Elastic Compliance Matrix: (Units=1/GPa)
#
#
# Indices 1 2 3 4 5 6 
#
# 1 -0.000395 0.007933 -0.002288 0.000000 0.000000 0.000000
# 2 0.007933 -0.000395 -0.002288 0.000000 0.000000 0.000000
# 3 -0.002288 -0.002288 0.011377 0.000000 0.000000 0.000000
# 4 0.000000 0.000000 0.000000 0.112429 0.000000 0.000000
# 5 0.000000 0.000000 0.000000 0.000000 0.112417 0.000000
# 6 0.000000 0.000000 0.000000 0.000000 0.000000 0.046266
#
#
# Mechanical properties :
#
#
# Convention : Reuss Voigt Hill
#
# Bulk Modulus (GPa) = 57.79981 58.21045 58.00513
# Shear Modulus (GPa) = 17.80922 3.53205 10.67064
#
# Velocity S-wave (km/s) = 2.85226 1.27022 2.20781
# Velocity P-wave (km/s) = 6.10332 5.36118 5.74425
#
# Compressibility (1/GPa) = 0.01730109
#
# Stress axis : x y z
#
# Youngs Moduli (GPa) = -2533.21744 -2532.62573 87.89402
#
# Poissons Ratio (x) = 20.09048 0.20111
# Poissons Ratio (y) = 20.09517 0.20110
# Poissons Ratio (z) = -5.79610 -5.79452
#
# Static dielectric constant tensor:
#      x y z
#    x 1.830060 0.000000 0.000000 
#    y 0.000000 1.830060 0.000000 
#    z 0.000000 0.000000 1.866090 
# 
# From -- ./inp_files/6325.got.cif
#   From: 2010.05.17/outbox.cif.g08.bks.cpg/sg115_4_cif.got.tgz:6325.got - 2010.05.20 11:07:42.
