data_PCOD9557002
_publ_section_title
;
Structure prediction by ZEFSAII (Michael W. Deem and Ramdas Pophale) SiO2 
 PCOD9557002
Probable space group: P -4 M 2
;
_chemical_formula_sum "Si O2"
_cell_formula_units_Z 48
_cell_length_a 8.215783
_cell_length_b 8.215783
_cell_length_c 34.548957
_cell_angle_alpha 90.000000
_cell_angle_beta 90.000000
_cell_angle_gamma 90.000000
_cell_volume 2332.023168
_symmetry_space_group_name_H-M "P -4 M 2"
_symmetry_group_IT_number 115
_symmetry_cell_setting 'tetragonal'
loop_
_space_group_symop_operation_xyz
x,y,z
y,-x,-z
-x,-y,z
-y,x,-z
y,x,-z
-y,-x,-z
-x,y,z
x,-y,z
loop_
_atom_site_type_symbol
_atom_site_label
_atom_site_fract_x
_atom_site_fract_y
_atom_site_fract_z
Si Si1 0.805994 0.823241 0.660627
Si Si2 0.306296 0.306296 0.000000
Si Si3 0.685046 0.693619 0.417190
Si Si4 0.802563 0.500000 0.703943
Si Si5 0.807339 0.689657 0.916484
Si Si6 0.807065 0.807065 0.500000
Si Si7 0.697514 0.500000 0.792613
Si Si8 0.693837 0.178473 0.837017
O O1 0.774006 0.797486 0.615129
O O2 0.741490 0.664214 0.682832
O O3 0.000000 0.825755 0.666759
O O4 0.739843 0.000000 0.672866
O O5 0.249546 0.229213 0.040227
O O6 0.277811 0.500000 0.002850
O O7 0.500000 0.750188 0.410392
O O8 0.692098 0.500000 0.411997
O O9 0.733658 0.734560 0.460871
O O10 0.750618 0.500000 0.748324
O O11 0.000000 0.500000 0.701518
O O12 0.750866 0.500000 0.914340
O O13 0.724628 0.788946 0.882299
O O14 0.000000 0.691995 0.910122
O O15 0.000000 0.777570 0.499968
O O16 0.500000 0.500000 0.794824
O O17 0.757915 0.335866 0.813934
O O18 0.500000 0.174701 0.830563
O O19 0.760333 0.000000 0.826071
#
# Coordination Sequence:
#
# PCOD9557002 Si02
#       8
#     8   4   8   4   8   4   4   8
#     4  10  21  39  63  89 118 157 201 241 293 361
#     4   9  18  32  52  77 110 156 202 241 285 342
#     4  11  23  38  58  86 119 155 199 249 303 358
#     4  10  22  40  62  90 122 156 194 242 298 356
#     4  10  20  34  54  81 114 151 193 242 295 350
#     4  11  24  39  56  82 116 157 204 251 300 358
#     4  10  22  40  62  88 120 152 192 246 296 358
#     4  10  21  38  61  86 113 152 197 241 295 358
#
# _framework density 20.582985000000001
#
# number of rings (size 3 to 8) (size 9 to 14) (size 15 to 20)
#    0.000    1.833    1.667    2.000    0.000    8.667 
#    0.000    1.667    0.000    0.000    0.000    0.000 
#    0.000    0.000    0.000    0.000    0.000    0.000 
#
# Total GULP energy -268124.017916 kJ/mol
# GULP energy per Si atom -5585.917040 kJ/mol
# Density = 2.053614 g / cm^3
# Si number density = 20.582985 Si / 1000 Ang^3
#
#
#
# Elastic Constant Matrix: (Units=GPa)
#
#
# Indices 1 2 3 4 5 6 
#
# 1 39.6386 61.6053 28.7783 0.0000 0.0000 0.0000
# 2 61.6053 39.6386 28.7783 0.0000 0.0000 0.0000
# 3 28.7783 28.7783 113.4612 0.0000 0.0000 0.0000
# 4 0.0000 0.0000 0.0000 40.2756 0.0000 0.0000
# 5 0.0000 0.0000 0.0000 0.0000 40.2756 0.0000
# 6 0.0000 0.0000 0.0000 0.0000 0.0000 11.9494
#
#
#
# Elastic Compliance Matrix: (Units=1/GPa)
#
#
# Indices 1 2 3 4 5 6 
#
# 1 -0.016991 0.028532 -0.002927 0.000000 0.000000 0.000000
# 2 0.028532 -0.016991 -0.002927 0.000000 0.000000 0.000000
# 3 -0.002927 -0.002927 0.010299 0.000000 0.000000 0.000000
# 4 0.000000 0.000000 0.000000 0.024829 0.000000 0.000000
# 5 0.000000 0.000000 0.000000 0.000000 0.024829 0.000000
# 6 0.000000 0.000000 0.000000 0.000000 0.000000 0.083686
#
#
# Mechanical properties :
#
#
# Convention : Reuss Voigt Hill
#
# Bulk Modulus (GPa) = 46.14285 47.89581 47.01933
# Shear Modulus (GPa) = 69.90159 23.40521 46.65340
#
# Velocity S-wave (km/s) = 5.83392 3.37577 4.76605
# Velocity P-wave (km/s) = 8.23687 6.20601 7.29248
#
# Compressibility (1/GPa) = 0.02167183
#
# Stress axis : x y z
#
# Youngs Moduli (GPa) = -58.85439 -58.85439 97.10092
#
# Poissons Ratio (x) = 1.67926 0.28425
# Poissons Ratio (y) = 1.67926 0.28425
# Poissons Ratio (z) = -0.17229 -0.17229
#
# Static dielectric constant tensor:
#      x y z
#    x 1.743500 0.000000 0.000000 
#    y 0.000000 1.743500 0.000000 
#    z 0.000000 0.000000 1.694660 
# 
# From -- ./inp_files/6294.got.cif
#   From: 2010.05.17/outbox.cif.g08.bks.cpg/sg115_4_cif.got.tgz:6294.got - 2010.05.20 11:07:42.
