data_PCOD9557157
_publ_section_title
;
Structure prediction by ZEFSAII (Michael W. Deem and Ramdas Pophale) SiO2 
 PCOD9557157
Probable space group: P -4 M 2
;
_chemical_formula_sum "Si O2"
_cell_formula_units_Z 44
_cell_length_a 9.405934
_cell_length_b 9.405934
_cell_length_c 29.101889
_cell_angle_alpha 90.000000
_cell_angle_beta 90.000000
_cell_angle_gamma 90.000000
_cell_volume 2574.690520
_symmetry_space_group_name_H-M "P -4 M 2"
_symmetry_group_IT_number 115
_symmetry_cell_setting 'tetragonal'
loop_
_space_group_symop_operation_xyz
x,y,z
y,-x,-z
-x,-y,z
-y,x,-z
y,x,-z
-y,-x,-z
-x,y,z
x,-y,z
loop_
_atom_site_type_symbol
_atom_site_label
_atom_site_fract_x
_atom_site_fract_y
_atom_site_fract_z
Si Si1 0.329806 0.832786 0.039695
Si Si2 0.167323 0.329800 0.224116
Si Si3 0.330577 0.330577 0.500000
Si Si4 0.668991 0.331143 0.682644
Si Si5 0.170776 0.667954 0.856060
Si Si6 0.326952 0.163518 0.408607
O O1 0.500000 0.817725 0.036132
O O2 0.290302 0.788780 0.091740
O O3 0.296362 0.000000 0.034970
O O4 0.253981 0.746020 0.000000
O O5 0.184297 0.500000 0.218209
O O6 0.244923 0.291312 0.271809
O O7 0.240875 0.249569 0.182060
O O8 0.000000 0.298165 0.226447
O O9 0.309049 0.500000 0.493267
O O10 0.283779 0.246747 0.454574
O O11 0.500000 0.313100 0.674408
O O12 0.694002 0.500000 0.690062
O O13 0.755410 0.283928 0.637773
O O14 0.202885 0.500000 0.850136
O O15 0.000000 0.683345 0.852240
O O16 0.500000 0.164977 0.408618
O O17 0.280401 0.000000 0.408934
#
# Coordination Sequence:
#
# PCOD9557157 Si02
#       6
#     8   8   4   8   8   8
#     4   9  19  35  53  75 103 133 167 207 249 295
#     4  10  21  35  51  75 105 133 164 205 252 300
#     4   9  16  28  48  71  94 122 156 193 234 282
#     4   9  17  31  51  72  95 126 163 201 242 289
#     4   9  19  36  55  74  99 133 171 208 247 294
#     4   9  17  29  47  72  97 121 156 200 240 281
#
# _framework density 17.089433
#
# number of rings (size 3 to 8) (size 9 to 14) (size 15 to 20)
#    0.000    2.818    0.000    2.182    0.000    6.182 
#    0.000    8.182    0.000    5.727    0.000    0.000 
#    0.000    0.000    0.000    0.000    0.000    0.000 
#
# Total GULP energy -245347.733231 kJ/mol
# GULP energy per Si atom -5576.084846 kJ/mol
# Density = 1.705054 g / cm^3
# Si number density = 17.089433 Si / 1000 Ang^3
#
#
#
# Elastic Constant Matrix: (Units=GPa)
#
#
# Indices 1 2 3 4 5 6 
#
# 1 54.5097 45.6906 85.0559 0.0000 0.0000 0.0000
# 2 45.6906 54.5129 85.0583 0.0000 0.0000 0.0000
# 3 85.0559 85.0583 207.8220 0.0000 0.0000 0.0000
# 4 0.0000 0.0000 0.0000 -24.8332 0.0000 0.0000
# 5 0.0000 0.0000 0.0000 0.0000 -24.8310 0.0000
# 6 0.0000 0.0000 0.0000 0.0000 0.0000 21.0371
#
#
#
# Elastic Compliance Matrix: (Units=1/GPa)
#
#
# Indices 1 2 3 4 5 6 
#
# 1 0.073039 -0.040333 -0.013385 0.000000 0.000000 0.000000
# 2 -0.040333 0.073034 -0.013385 0.000000 0.000000 0.000000
# 3 -0.013385 -0.013385 0.015768 0.000000 0.000000 0.000000
# 4 0.000000 0.000000 0.000000 -0.040269 0.000000 0.000000
# 5 0.000000 0.000000 0.000000 0.000000 -0.040272 0.000000
# 6 0.000000 0.000000 0.000000 0.000000 0.000000 0.047535
#
#
# Mechanical properties :
#
#
# Convention : Reuss Voigt Hill
#
# Bulk Modulus (GPa) = 36.18512 83.16158 59.67335
# Shear Modulus (GPa) = 18.36531 1.01056 9.68793
#
# Velocity S-wave (km/s) = 3.28176 0.76982 2.38354
# Velocity P-wave (km/s) = 5.96488 7.03977 6.52450
#
# Compressibility (1/GPa) = 0.02763567
#
# Stress axis : x y z
#
# Youngs Moduli (GPa) = 13.69135 13.69222 63.41934
#
# Poissons Ratio (x) = 0.55225 0.84888
# Poissons Ratio (y) = 0.55221 0.84884
# Poissons Ratio (z) = 0.18326 0.18326
#
# Static dielectric constant tensor:
#      x y z
#    x 1.564130 0.000000 0.000000 
#    y 0.000000 1.564130 0.000000 
#    z 0.000000 0.000000 1.558290 
# 
# From -- ./inp_files/5831.got.cif
#   From: 2010.05.17/outbox.cif.g08.bks.cpg/sg115_3_cif.got.tgz:5831.got - 2010.05.20 11:07:42.
