data_PCOD9557067
_publ_section_title
;
Structure prediction by ZEFSAII (Michael W. Deem and Ramdas Pophale) SiO2 
 PCOD9557067
Probable space group: P -4 M 2
;
_chemical_formula_sum "Si O2"
_cell_formula_units_Z 48
_cell_length_a 8.198901
_cell_length_b 8.198901
_cell_length_c 35.314700
_cell_angle_alpha 90.000000
_cell_angle_beta 90.000000
_cell_angle_gamma 90.000000
_cell_volume 2373.923973
_symmetry_space_group_name_H-M "P -4 M 2"
_symmetry_group_IT_number 115
_symmetry_cell_setting 'tetragonal'
loop_
_space_group_symop_operation_xyz
x,y,z
y,-x,-z
-x,-y,z
-y,x,-z
y,x,-z
-y,-x,-z
-x,y,z
x,-y,z
loop_
_atom_site_type_symbol
_atom_site_label
_atom_site_fract_x
_atom_site_fract_y
_atom_site_fract_z
Si Si1 0.803313 0.813515 0.880463
Si Si2 0.691170 0.197106 0.376774
Si Si3 0.683428 0.805386 0.460708
Si Si4 0.700274 0.000000 0.759452
Si Si5 0.694667 0.000000 0.672339
Si Si6 0.304716 0.677477 0.803141
Si Si7 0.187881 0.691848 0.960496
O O1 0.733809 0.702356 0.847387
O O2 0.743410 0.776256 0.922888
O O3 0.000000 0.794096 0.881087
O O4 0.763810 0.000000 0.870831
O O5 0.500000 0.248470 0.370088
O O6 0.742216 0.252950 0.419461
O O7 0.833083 0.251690 0.348452
O O8 0.688755 0.000000 0.375966
O O9 0.770412 0.770412 0.500000
O O10 0.500000 0.741688 0.464793
O O11 0.677785 0.000000 0.457233
O O12 0.752091 0.000000 0.715841
O O13 0.757411 0.164366 0.780589
O O14 0.500000 0.000000 0.760705
O O15 0.500000 0.000000 0.672783
O O16 0.500000 0.676377 0.798525
O O17 0.241607 0.500000 0.790555
O O18 0.187833 0.500000 0.952748
O O19 0.000000 0.747126 0.965317
O O20 0.274766 0.725235 0.000000
#
# Coordination Sequence:
#
# PCOD9557067 Si02
#       7
#     8   8   8   4   4   8   8
#     4  10  20  35  57  83 111 145 183 228 285 344
#     4   9  20  40  60  81 116 159 200 244 298 361
#     4   9  19  34  52  77 109 145 187 234 284 341
#     4   9  20  39  57  83 119 149 187 237 291 353
#     4  11  23  37  61  91 117 153 199 251 305 361
#     4  10  20  36  60  85 111 147 187 231 286 347
#     4  10  21  36  53  75 105 142 184 228 274 327
#
# _framework density 20.219685999999999
#
# number of rings (size 3 to 8) (size 9 to 14) (size 15 to 20)
#    0.000    2.333    0.833    2.250    1.167    4.667 
#    0.000    5.000    0.000    0.000    0.000    0.000 
#    0.000    0.000    0.000    0.000    0.000    0.000 
#
# Total GULP energy -267644.494699 kJ/mol
# GULP energy per Si atom -5575.926973 kJ/mol
# Density = 2.017366 g / cm^3
# Si number density = 20.219686 Si / 1000 Ang^3
#
#
#
# Elastic Constant Matrix: (Units=GPa)
#
#
# Indices 1 2 3 4 5 6 
#
# 1 61.8851 25.4516 44.2378 0.0000 0.0000 0.0000
# 2 25.4516 61.8856 44.2383 0.0000 0.0000 0.0000
# 3 44.2378 44.2383 142.4359 0.0000 0.0000 0.0000
# 4 0.0000 0.0000 0.0000 27.5537 0.0000 0.0000
# 5 0.0000 0.0000 0.0000 0.0000 27.5537 0.0000
# 6 0.0000 0.0000 0.0000 0.0000 0.0000 36.5771
#
#
#
# Elastic Compliance Matrix: (Units=1/GPa)
#
#
# Indices 1 2 3 4 5 6 
#
# 1 0.022077 -0.005370 -0.005189 0.000000 0.000000 0.000000
# 2 -0.005370 0.022077 -0.005189 0.000000 0.000000 0.000000
# 3 -0.005189 -0.005189 0.010244 0.000000 0.000000 0.000000
# 4 0.000000 0.000000 0.000000 0.036293 0.000000 0.000000
# 5 0.000000 0.000000 0.000000 0.000000 0.036293 0.000000
# 6 0.000000 0.000000 0.000000 0.000000 0.000000 0.027340
#
#
# Mechanical properties :
#
#
# Convention : Reuss Voigt Hill
#
# Bulk Modulus (GPa) = 43.66516 54.89576 49.28046
# Shear Modulus (GPa) = 25.84630 28.48884 27.16757
#
# Velocity S-wave (km/s) = 3.57917 3.75769 3.66952
# Velocity P-wave (km/s) = 6.22277 6.78495 6.50993
#
# Compressibility (1/GPa) = 0.02290155
#
# Stress axis : x y z
#
# Youngs Moduli (GPa) = 45.29666 45.29685 97.62085
#
# Poissons Ratio (x) = 0.24326 0.50652
# Poissons Ratio (y) = 0.24326 0.50652
# Poissons Ratio (z) = 0.23503 0.23503
#
# Static dielectric constant tensor:
#      x y z
#    x 1.729890 0.000000 0.000000 
#    y 0.000000 1.729890 0.000000 
#    z 0.000000 0.000000 1.721730 
# 
# From -- ./inp_files/6178.got.cif
#   From: 2010.05.17/outbox.cif.g08.bks.cpg/sg115_4_cif.got.tgz:6178.got - 2010.05.20 11:07:42.
