data_PCOD9557646
_publ_section_title
;
Structure prediction by ZEFSAII (Michael W. Deem and Ramdas Pophale) SiO2 
 PCOD9557646
Probable space group: P -4 C 2
;
_chemical_formula_sum "Si O2"
_cell_formula_units_Z 40
_cell_length_a 8.276112
_cell_length_b 8.276112
_cell_length_c 28.787728
_cell_angle_alpha 90.000000
_cell_angle_beta 90.000000
_cell_angle_gamma 90.000000
_cell_volume 1971.787501
_symmetry_space_group_name_H-M "P -4 C 2"
_symmetry_group_IT_number 116
_symmetry_cell_setting 'tetragonal'
loop_
_space_group_symop_operation_xyz
x,y,z
y,-x,-z
-x,-y,z
-y,x,-z
y,x,1/2-z
-y,-x,1/2-z
-x,y,1/2+z
x,-y,1/2+z
loop_
_atom_site_type_symbol
_atom_site_label
_atom_site_fract_x
_atom_site_fract_y
_atom_site_fract_z
Si Si1 0.885990 0.258649 0.796183
Si Si2 0.000000 0.500000 0.053050
Si Si3 0.253182 0.411921 0.986873
Si Si4 0.726386 0.762028 0.894628
Si Si5 0.750169 0.393722 0.296259
Si Si6 0.000000 0.000000 0.633004
O O1 0.825358 0.174643 0.750000
O O2 0.775026 0.415496 0.804878
O O3 0.069183 0.321640 0.789262
O O4 0.893823 0.122248 0.835550
O O5 0.133774 0.579876 0.085418
O O6 0.095481 0.381576 0.017925
O O7 0.234779 0.374606 0.932643
O O8 0.305407 0.597478 0.994520
O O9 0.691236 0.690720 0.843727
O O10 0.878175 0.883146 0.893345
O O11 0.648843 0.351158 0.250000
#
# Coordination Sequence:
#
# PCOD9557646 Si02
#       6
#     8   4   8   8   8   4
#     4  10  20  37  58  80 116 160 200 247 296 348
#     4  10  22  38  62  88 116 158 200 250 308 366
#     4   9  20  40  61  85 118 157 199 247 307 363
#     4  10  22  39  60  87 121 158 199 250 304 361
#     4  10  22  38  58  88 121 158 202 245 299 366
#     4  10  21  36  59  88 114 150 200 250 306 360
#
# _framework density 20.286163999999999
#
# number of rings (size 3 to 8) (size 9 to 14) (size 15 to 20)
#    0.000    2.200    0.000    2.700    0.000   11.600 
#    0.000    6.000    0.000    0.000    0.000    0.000 
#    0.000    0.000    0.000    0.000    0.000    0.000 
#
# Total GULP energy -223275.539468 kJ/mol
# GULP energy per Si atom -5581.888487 kJ/mol
# Density = 2.023999 g / cm^3
# Si number density = 20.286164 Si / 1000 Ang^3
#
#
#
# Elastic Constant Matrix: (Units=GPa)
#
#
# Indices 1 2 3 4 5 6 
#
# 1 49.4664 31.2386 48.4821 0.0000 0.0000 0.0000
# 2 31.2386 49.4711 48.4800 0.0000 0.0000 0.0000
# 3 48.4821 48.4800 150.0403 0.0000 0.0000 0.0000
# 4 0.0000 0.0000 0.0000 30.5940 0.0000 0.0000
# 5 0.0000 0.0000 0.0000 0.0000 30.5936 0.0000
# 6 0.0000 0.0000 0.0000 0.0000 0.0000 17.9643
#
#
#
# Elastic Compliance Matrix: (Units=1/GPa)
#
#
# Indices 1 2 3 4 5 6 
#
# 1 0.037557 -0.017301 -0.006545 0.000000 0.000000 0.000000
# 2 -0.017301 0.037550 -0.006542 0.000000 0.000000 0.000000
# 3 -0.006545 -0.006542 0.010894 0.000000 0.000000 0.000000
# 4 0.000000 0.000000 0.000000 0.032686 0.000000 0.000000
# 5 0.000000 0.000000 0.000000 0.000000 0.032687 0.000000
# 6 0.000000 0.000000 0.000000 0.000000 0.000000 0.055666
#
#
# Mechanical properties :
#
#
# Convention : Reuss Voigt Hill
#
# Bulk Modulus (GPa) = 39.64669 56.15323 47.89996
# Shear Modulus (GPa) = 18.10126 23.88222 20.99174
#
# Velocity S-wave (km/s) = 2.99037 3.43485 3.22029
# Velocity P-wave (km/s) = 5.61331 6.59330 6.12294
#
# Compressibility (1/GPa) = 0.02522279
#
# Stress axis : x y z
#
# Youngs Moduli (GPa) = 26.62648 26.63124 91.79504
#
# Poissons Ratio (x) = 0.46074 0.60084
# Poissons Ratio (y) = 0.46066 0.60057
# Poissons Ratio (z) = 0.17428 0.17423
#
# Static dielectric constant tensor:
#      x y z
#    x 1.745990 0.000000 0.000000 
#    y 0.000000 1.745990 0.000000 
#    z 0.000000 0.000000 1.706550 
# 
# From -- ./inp_files/4873.got.cif
#   From: 2010.05.17/outbox.cif.g08.bks.cpg/sg116_3_cif.got.tgz:4873.got - 2010.05.20 11:11:43.
