data_PCOD9557964
_publ_section_title
;
Structure prediction by ZEFSAII (Michael W. Deem and Ramdas Pophale) SiO2 
 PCOD9557964
Probable space group: P -4 C 2
;
_chemical_formula_sum "Si O2"
_cell_formula_units_Z 24
_cell_length_a 7.807050
_cell_length_b 7.807050
_cell_length_c 15.762363
_cell_angle_alpha 90.000000
_cell_angle_beta 90.000000
_cell_angle_gamma 90.000000
_cell_volume 960.716493
_symmetry_space_group_name_H-M "P -4 C 2"
_symmetry_group_IT_number 116
_symmetry_cell_setting 'tetragonal'
loop_
_space_group_symop_operation_xyz
x,y,z
y,-x,-z
-x,-y,z
-y,x,-z
y,x,1/2-z
-y,-x,1/2-z
-x,y,1/2+z
x,-y,1/2+z
loop_
_atom_site_type_symbol
_atom_site_label
_atom_site_fract_x
_atom_site_fract_y
_atom_site_fract_z
Si Si1 0.747022 0.890836 0.832639
Si Si2 0.756381 0.606218 0.123619
Si Si3 0.561270 0.188748 0.073562
O O1 0.856713 0.856713 0.750000
O O2 0.554679 0.811967 0.818663
O O3 0.809071 0.761239 0.904816
O O4 0.737619 0.088288 0.859137
O O5 0.566896 0.685769 0.125367
O O6 0.775514 0.542057 0.026405
O O7 0.500000 0.000000 0.092819
#
# Coordination Sequence:
#
# PCOD9557964 Si02
#       3
#     8   8   8
#     4  11  26  46  70 110 155 190 250 313 388 459
#     4  11  23  46  74 107 144 200 258 307 381 459
#     4  12  23  43  76 105 146 195 253 317 377 459
#
# _framework density 24.981358
#
# number of rings (size 3 to 8) (size 9 to 14) (size 15 to 20)
#    0.000    0.667    6.667    1.000    4.667    4.000 
#    0.000    5.000    0.000    0.000    0.000    0.000 
#    0.000    0.000    0.000    0.000    0.000    0.000 
#
# Total GULP energy -134263.226513 kJ/mol
# GULP energy per Si atom -5594.301105 kJ/mol
# Density = 2.492450 g / cm^3
# Si number density = 24.981358 Si / 1000 Ang^3
#
#
#
# Elastic Constant Matrix: (Units=GPa)
#
#
# Indices 1 2 3 4 5 6 
#
# 1 78.4434 26.5595 20.1859 0.0000 0.0000 0.0000
# 2 26.5595 78.4434 20.1859 0.0000 0.0000 0.0000
# 3 20.1859 20.1859 73.6493 0.0000 0.0000 0.0000
# 4 0.0000 0.0000 0.0000 20.2616 0.0000 0.0000
# 5 0.0000 0.0000 0.0000 0.0000 20.2616 0.0000
# 6 0.0000 0.0000 0.0000 0.0000 0.0000 43.0004
#
#
#
# Elastic Compliance Matrix: (Units=1/GPa)
#
#
# Indices 1 2 3 4 5 6 
#
# 1 0.014960 -0.004314 -0.002918 0.000000 0.000000 0.000000
# 2 -0.004314 0.014960 -0.002918 0.000000 0.000000 0.000000
# 3 -0.002918 -0.002918 0.015177 0.000000 0.000000 0.000000
# 4 0.000000 0.000000 0.000000 0.049354 0.000000 0.000000
# 5 0.000000 0.000000 0.000000 0.000000 0.049354 0.000000
# 6 0.000000 0.000000 0.000000 0.000000 0.000000 0.023256
#
#
# Mechanical properties :
#
#
# Convention : Reuss Voigt Hill
#
# Bulk Modulus (GPa) = 40.32720 40.48874 40.40797
# Shear Modulus (GPa) = 25.55901 27.61172 26.58537
#
# Velocity S-wave (km/s) = 3.20210 3.32820 3.26576
# Velocity P-wave (km/s) = 5.46344 5.56884 5.51639
#
# Compressibility (1/GPa) = 0.02479716
#
# Stress axis : x y z
#
# Youngs Moduli (GPa) = 66.84681 66.84681 65.88817
#
# Poissons Ratio (x) = 0.28839 0.19224
# Poissons Ratio (y) = 0.28839 0.19224
# Poissons Ratio (z) = 0.19504 0.19504
#
# Static dielectric constant tensor:
#      x y z
#    x 2.196880 0.000000 0.000000 
#    y 0.000000 2.196880 0.000000 
#    z 0.000000 0.000000 1.938680 
# 
# From -- ./inp_files/2273.got.cif
#   From: 2010.05.17/outbox.cif.g08.bks.cpg/sg116_2_cif.got.tgz:2273.got - 2010.05.20 11:11:43.
