data_PCOD9557910
_publ_section_title
;
Structure prediction by ZEFSAII (Michael W. Deem and Ramdas Pophale) SiO2 
 PCOD9557910
Probable space group: P -4 C 2
;
_chemical_formula_sum "Si O2"
_cell_formula_units_Z 16
_cell_length_a 7.633909
_cell_length_b 7.633909
_cell_length_c 9.379096
_cell_angle_alpha 90.000000
_cell_angle_beta 90.000000
_cell_angle_gamma 90.000000
_cell_volume 546.581513
_symmetry_space_group_name_H-M "P -4 C 2"
_symmetry_group_IT_number 116
_symmetry_cell_setting 'tetragonal'
loop_
_space_group_symop_operation_xyz
x,y,z
y,-x,-z
-x,-y,z
-y,x,-z
y,x,1/2-z
-y,-x,1/2-z
-x,y,1/2+z
x,-y,1/2+z
loop_
_atom_site_type_symbol
_atom_site_label
_atom_site_fract_x
_atom_site_fract_y
_atom_site_fract_z
Si Si1 0.799997 0.799997 0.750000
Si Si2 0.000000 0.000000 0.500000
Si Si3 0.500000 0.500000 0.000000
Si Si4 0.829565 0.422295 0.811090
O O1 0.866434 0.902266 0.608681
O O2 0.827227 0.595828 0.709249
O O3 0.449354 0.337528 0.093984
O O4 0.773325 0.226676 0.750000
O O5 0.000000 0.500000 0.894172
#
# Coordination Sequence:
#
# PCOD9557910 Si02
#       4
#     4   2   2   8
#     4  11  25  54  82 128 186 236 300 378 446 554
#     4  10  28  46  88 142 180 246 308 366 472 542
#     4  12  26  56  80 130 172 230 304 376 458 538
#     4  12  29  53  82 124 179 238 298 374 456 540
#
# _framework density 29.272852
#
# number of rings (size 3 to 8) (size 9 to 14) (size 15 to 20)
#    0.000    0.500    5.000    0.000   14.000    2.000 
#    0.000    0.000    0.000    0.000    0.000    0.000 
#    0.000    0.000    0.000    0.000    0.000    0.000 
#
# Total GULP energy -89076.871699 kJ/mol
# GULP energy per Si atom -5567.304481 kJ/mol
# Density = 2.920623 g / cm^3
# Si number density = 29.272852 Si / 1000 Ang^3
#
#
#
# Elastic Constant Matrix: (Units=GPa)
#
#
# Indices 1 2 3 4 5 6 
#
# 1 183.8583 46.0909 53.6542 0.0000 0.0000 0.0000
# 2 46.0909 183.8592 53.6541 0.0000 0.0000 0.0000
# 3 53.6542 53.6541 143.5448 0.0000 0.0000 0.0000
# 4 0.0000 0.0000 0.0000 39.3177 0.0000 0.0000
# 5 0.0000 0.0000 0.0000 0.0000 39.3167 0.0000
# 6 0.0000 0.0000 0.0000 0.0000 0.0000 78.0810
#
#
#
# Elastic Compliance Matrix: (Units=1/GPa)
#
#
# Indices 1 2 3 4 5 6 
#
# 1 0.006263 -0.000995 -0.001969 0.000000 0.000000 0.000000
# 2 -0.000995 0.006263 -0.001969 0.000000 0.000000 0.000000
# 3 -0.001969 -0.001969 0.008438 0.000000 0.000000 0.000000
# 4 0.000000 0.000000 0.000000 0.025434 0.000000 0.000000
# 5 0.000000 0.000000 0.000000 0.000000 0.025434 0.000000
# 6 0.000000 0.000000 0.000000 0.000000 0.000000 0.012807
#
#
# Mechanical properties :
#
#
# Convention : Reuss Voigt Hill
#
# Bulk Modulus (GPa) = 90.10749 90.89564 90.50157
# Shear Modulus (GPa) = 50.91338 55.20062 53.05700
#
# Velocity S-wave (km/s) = 4.17498 4.34721 4.26196
# Velocity P-wave (km/s) = 7.35455 7.50441 7.42986
#
# Compressibility (1/GPa) = 0.01109786
#
# Stress axis : x y z
#
# Youngs Moduli (GPa) = 159.66507 159.66609 118.50655
#
# Poissons Ratio (x) = 0.15895 0.23333
# Poissons Ratio (y) = 0.15895 0.23333
# Poissons Ratio (z) = 0.31437 0.31437
#
# Static dielectric constant tensor:
#      x y z
#    x 6.048440 0.000000 0.000000 
#    y 0.000000 6.047330 0.000000 
#    z 0.000000 0.000000 2.258730 
# 
# From -- ./inp_files/337.got.cif
#   From: 2010.05.17/outbox.cif.g08.bks.cpg/sg116_1_cif.got.tgz:337.got - 2010.05.20 11:11:43.
