data_PCOD9557418
_publ_section_title
;
Structure prediction by ZEFSAII (Michael W. Deem and Ramdas Pophale) SiO2 
 PCOD9557418
Probable space group: P -4 M 2
;
_chemical_formula_sum "Si O2"
_cell_formula_units_Z 25
_cell_length_a 7.720836
_cell_length_b 7.720836
_cell_length_c 20.033659
_cell_angle_alpha 90.000000
_cell_angle_beta 90.000000
_cell_angle_gamma 90.000000
_cell_volume 1194.232628
_symmetry_space_group_name_H-M "P -4 M 2"
_symmetry_group_IT_number 115
_symmetry_cell_setting 'tetragonal'
loop_
_space_group_symop_operation_xyz
x,y,z
y,-x,-z
-x,-y,z
-y,x,-z
y,x,-z
-y,-x,-z
-x,y,z
x,-y,z
loop_
_atom_site_type_symbol
_atom_site_label
_atom_site_fract_x
_atom_site_fract_y
_atom_site_fract_z
Si Si1 0.204871 0.204871 0.500000
Si Si2 0.197232 0.704729 0.643688
Si Si3 0.802755 0.205018 0.788444
Si Si4 0.500000 0.500000 0.000000
Si Si5 0.212190 0.500000 0.111658
O O1 0.259500 0.280011 0.428439
O O2 0.000000 0.238456 0.503801
O O3 0.185477 0.500000 0.648902
O O4 0.271652 0.767120 0.713777
O O5 0.000000 0.779767 0.642127
O O6 0.668535 0.263262 0.844424
O O7 0.000000 0.278289 0.791767
O O8 0.817532 0.000000 0.797338
O O9 0.327311 0.500000 0.045522
O O10 0.000000 0.500000 0.102073
#
# Coordination Sequence:
#
# PCOD9557418 Si02
#       5
#     4   8   8   1   4
#     4   9  16  28  46  67 100 146 194 245 296 345
#     4   9  17  29  48  76 107 145 194 242 293 346
#     4   9  18  36  62  88 116 153 198 247 294 344
#     4  12  28  44  68  96 128 162 188 232 288 360
#     4  10  24  44  64  96 127 155 198 237 285 356
#
# _framework density 20.933944
#
# number of rings (size 3 to 8) (size 9 to 14) (size 15 to 20)
#    0.000    2.720    0.000    0.960    2.240    5.120 
#    2.880    0.000    0.000    0.000    0.000    0.000 
#    0.000    0.000    0.000    0.000    0.000    0.000 
#
# Total GULP energy -139278.375140 kJ/mol
# GULP energy per Si atom -5571.135006 kJ/mol
# Density = 2.088630 g / cm^3
# Si number density = 20.933944 Si / 1000 Ang^3
#
#
#
# Elastic Constant Matrix: (Units=GPa)
#
#
# Indices 1 2 3 4 5 6 
#
# 1 73.9158 11.9235 53.1330 0.0000 0.0000 0.0000
# 2 11.9235 73.9158 53.1330 0.0000 0.0000 0.0000
# 3 53.1330 53.1330 193.5353 0.0000 0.0000 0.0000
# 4 0.0000 0.0000 0.0000 39.2507 0.0000 0.0000
# 5 0.0000 0.0000 0.0000 0.0000 39.2507 0.0000
# 6 0.0000 0.0000 0.0000 0.0000 0.0000 5.6906
#
#
#
# Elastic Compliance Matrix: (Units=1/GPa)
#
#
# Indices 1 2 3 4 5 6 
#
# 1 0.016889 0.000758 -0.004845 0.000000 0.000000 0.000000
# 2 0.000758 0.016889 -0.004845 0.000000 0.000000 0.000000
# 3 -0.004845 -0.004845 0.007827 0.000000 0.000000 0.000000
# 4 0.000000 0.000000 0.000000 0.025477 0.000000 0.000000
# 5 0.000000 0.000000 0.000000 0.000000 0.025477 0.000000
# 6 0.000000 0.000000 0.000000 0.000000 0.000000 0.175728
#
#
# Mechanical properties :
#
#
# Convention : Reuss Voigt Hill
#
# Bulk Modulus (GPa) = 42.11839 64.19398 53.15619
# Shear Modulus (GPa) = 17.00301 31.71691 24.35996
#
# Velocity S-wave (km/s) = 2.85304 3.89664 3.41494
# Velocity P-wave (km/s) = 5.56924 7.13980 6.40286
#
# Compressibility (1/GPa) = 0.02374260
#
# Stress axis : x y z
#
# Youngs Moduli (GPa) = 59.20911 59.20911 127.75850
#
# Poissons Ratio (x) = -0.04490 0.61898
# Poissons Ratio (y) = -0.04490 0.61898
# Poissons Ratio (z) = 0.28686 0.28686
#
# Static dielectric constant tensor:
#      x y z
#    x 1.774690 0.000000 0.000000 
#    y 0.000000 1.774690 0.000000 
#    z 0.000000 0.000000 1.772710 
# 
# From -- ./inp_files/3988.got.cif
#   From: 2010.05.17/outbox.cif.g08.bks.cpg/sg115_2_cif.got.tgz:3988.got - 2010.05.20 11:07:42.
