data_PCOD9557358
_publ_section_title
;
Structure prediction by ZEFSAII (Michael W. Deem and Ramdas Pophale) SiO2 
 PCOD9557358
Probable space group: P -4 M 2
;
_chemical_formula_sum "Si O2"
_cell_formula_units_Z 48
_cell_length_a 9.096918
_cell_length_b 9.096918
_cell_length_c 31.398175
_cell_angle_alpha 90.000000
_cell_angle_beta 90.000000
_cell_angle_gamma 90.000000
_cell_volume 2598.321971
_symmetry_space_group_name_H-M "P -4 M 2"
_symmetry_group_IT_number 115
_symmetry_cell_setting 'tetragonal'
loop_
_space_group_symop_operation_xyz
x,y,z
y,-x,-z
-x,-y,z
-y,x,-z
y,x,-z
-y,-x,-z
-x,y,z
x,-y,z
loop_
_atom_site_type_symbol
_atom_site_label
_atom_site_fract_x
_atom_site_fract_y
_atom_site_fract_z
Si Si1 0.826252 0.825301 0.371959
Si Si2 0.825401 0.675128 0.040617
Si Si3 0.826566 0.175847 0.210835
Si Si4 0.674041 0.824229 0.121275
Si Si5 0.673520 0.324587 0.291358
Si Si6 0.324881 0.325354 0.548989
O O1 0.742076 0.746757 0.333482
O O2 0.765345 0.763690 0.416400
O O3 0.000000 0.796282 0.368315
O O4 0.802992 0.000000 0.369463
O O5 0.802885 0.500000 0.037838
O O6 0.751289 0.738631 0.083082
O O7 0.000000 0.703531 0.041343
O O8 0.753033 0.753033 0.000000
O O9 0.747227 0.213750 0.166497
O O10 0.753780 0.259192 0.250132
O O11 0.000000 0.207782 0.208132
O O12 0.809712 0.000000 0.217322
O O13 0.500000 0.794167 0.122155
O O14 0.693562 0.000000 0.114739
O O15 0.500000 0.291810 0.289172
O O16 0.692071 0.500000 0.292928
O O17 0.287994 0.287994 0.500000
O O18 0.500000 0.301777 0.554567
O O19 0.298400 0.500000 0.554763
#
# Coordination Sequence:
#
# PCOD9557358 Si02
#       6
#     8   8   8   8   8   8
#     4  11  24  39  56  82 115 149 187 232 281 334
#     4  11  24  40  59  85 116 151 192 237 286 339
#     4  10  21  38  61  88 117 150 189 232 280 335
#     4  10  21  38  61  88 117 151 191 233 280 335
#     4  11  24  40  59  84 113 147 189 235 283 336
#     4   9  19  37  60  85 113 146 186 231 278 331
#
# _framework density 18.473462999999999
#
# number of rings (size 3 to 8) (size 9 to 14) (size 15 to 20)
#    0.000    1.667    0.000    4.500    0.000   13.667 
#    0.000    2.500    0.000    0.000    0.000    0.000 
#    0.000    0.000    0.000    0.000    0.000    0.000 
#
# Total GULP energy -268385.944368 kJ/mol
# GULP energy per Si atom -5591.373841 kJ/mol
# Density = 1.843142 g / cm^3
# Si number density = 18.473463 Si / 1000 Ang^3
#
#
#
# Elastic Constant Matrix: (Units=GPa)
#
#
# Indices 1 2 3 4 5 6 
#
# 1 108.0784 97.4957 99.2707 0.0000 0.0000 0.0000
# 2 97.4957 108.0784 99.2707 0.0000 0.0000 0.0000
# 3 99.2707 99.2707 169.2504 0.0000 0.0000 0.0000
# 4 0.0000 0.0000 0.0000 42.2700 0.0000 0.0000
# 5 0.0000 0.0000 0.0000 0.0000 42.2700 0.0000
# 6 0.0000 0.0000 0.0000 0.0000 0.0000 33.5000
#
#
#
# Elastic Compliance Matrix: (Units=1/GPa)
#
#
# Indices 1 2 3 4 5 6 
#
# 1 0.052857 -0.041637 -0.006581 0.000000 0.000000 0.000000
# 2 -0.041637 0.052857 -0.006581 0.000000 0.000000 0.000000
# 3 -0.006581 -0.006581 0.013628 0.000000 0.000000 0.000000
# 4 0.000000 0.000000 0.000000 0.023657 0.000000 0.000000
# 5 0.000000 0.000000 0.000000 0.000000 0.023657 0.000000
# 6 0.000000 0.000000 0.000000 0.000000 0.000000 0.029851
#
#
# Mechanical properties :
#
#
# Convention : Reuss Voigt Hill
#
# Bulk Modulus (GPa) = 102.61879 108.60902 105.61391
# Shear Modulus (GPa) = 16.16270 29.56599 22.86434
#
# Velocity S-wave (km/s) = 2.96110 4.00491 3.52189
# Velocity P-wave (km/s) = 8.20736 8.96132 8.59261
#
# Compressibility (1/GPa) = 0.00974480
#
# Stress axis : x y z
#
# Youngs Moduli (GPa) = 18.91896 18.91896 73.37572
#
# Poissons Ratio (x) = 0.78772 0.48289
# Poissons Ratio (y) = 0.78772 0.48289
# Poissons Ratio (z) = 0.12451 0.12451
#
# Static dielectric constant tensor:
#      x y z
#    x 1.614690 0.000000 0.000000 
#    y 0.000000 1.614690 0.000000 
#    z 0.000000 0.000000 1.597280 
# 
# From -- ./inp_files/5943.got.cif
#   From: 2010.05.17/outbox.cif.g08.bks.cpg/sg115_3_cif.got.tgz:5943.got - 2010.05.20 11:07:42.
