data_PCOD9557185
_publ_section_title
;
Structure prediction by ZEFSAII (Michael W. Deem and Ramdas Pophale) SiO2 
 PCOD9557185
Probable space group: P -4 M 2
;
_chemical_formula_sum "Si O2"
_cell_formula_units_Z 44
_cell_length_a 9.154190
_cell_length_b 9.154190
_cell_length_c 29.706770
_cell_angle_alpha 90.000000
_cell_angle_beta 90.000000
_cell_angle_gamma 90.000000
_cell_volume 2489.403399
_symmetry_space_group_name_H-M "P -4 M 2"
_symmetry_group_IT_number 115
_symmetry_cell_setting 'tetragonal'
loop_
_space_group_symop_operation_xyz
x,y,z
y,-x,-z
-x,-y,z
-y,x,-z
y,x,-z
-y,-x,-z
-x,y,z
x,-y,z
loop_
_atom_site_type_symbol
_atom_site_label
_atom_site_fract_x
_atom_site_fract_y
_atom_site_fract_z
Si Si1 0.326606 0.677193 0.951638
Si Si2 0.828693 0.324430 0.407378
Si Si3 0.673614 0.326387 0.500000
Si Si4 0.824346 0.671168 0.676523
Si Si5 0.673420 0.323893 0.147004
Si Si6 0.175222 0.171437 0.769115
O O1 0.500000 0.709304 0.951504
O O2 0.314438 0.500000 0.952000
O O3 0.270363 0.724497 0.902709
O O4 0.268122 0.731879 0.000000
O O5 0.812548 0.500000 0.403701
O O6 0.758516 0.280777 0.455141
O O7 0.747358 0.249494 0.365985
O O8 0.000000 0.289141 0.406427
O O9 0.500000 0.303339 0.493101
O O10 0.787920 0.500000 0.677753
O O11 0.779493 0.747411 0.723235
O O12 0.000000 0.685302 0.672748
O O13 0.500000 0.292864 0.151186
O O14 0.689454 0.500000 0.148347
O O15 0.759026 0.251500 0.187648
O O16 0.000000 0.188299 0.773492
O O17 0.208398 0.000000 0.765612
#
# Coordination Sequence:
#
# PCOD9557185 Si02
#       6
#     8   8   4   8   8   8
#     4   7  10  19  38  65  95 123 152 192 242 291
#     4  10  21  36  55  81 111 140 170 206 249 296
#     4   9  18  34  54  75 104 142 178 209 242 283
#     4  10  21  37  57  78  99 128 168 212 256 301
#     4   9  17  29  48  75 101 125 159 203 249 297
#     4  10  21  36  52  70  96 132 170 206 248 299
#
# _framework density 17.674918999999999
#
# number of rings (size 3 to 8) (size 9 to 14) (size 15 to 20)
#    0.000    2.818    0.000    3.273    0.000    5.091 
#    0.000    1.818    0.000    1.091    0.000    6.364 
#    0.000    0.000    0.000    0.000    0.000    0.000 
#
# Total GULP energy -245224.874867 kJ/mol
# GULP energy per Si atom -5573.292611 kJ/mol
# Density = 1.763469 g / cm^3
# Si number density = 17.674919 Si / 1000 Ang^3
#
#
#
# Elastic Constant Matrix: (Units=GPa)
#
#
# Indices 1 2 3 4 5 6 
#
# 1 51.0371 45.2536 80.0620 0.0000 0.0000 0.0000
# 2 45.2536 51.0373 80.0619 0.0000 0.0000 0.0000
# 3 80.0620 80.0619 239.0083 0.0000 0.0000 0.0000
# 4 0.0000 0.0000 0.0000 -54.0482 0.0000 0.0000
# 5 0.0000 0.0000 0.0000 0.0000 -54.0431 0.0000
# 6 0.0000 0.0000 0.0000 0.0000 0.0000 23.0336
#
#
#
# Elastic Compliance Matrix: (Units=1/GPa)
#
#
# Indices 1 2 3 4 5 6 
#
# 1 0.098175 -0.074729 -0.007854 0.000000 0.000000 0.000000
# 2 -0.074729 0.098174 -0.007853 0.000000 0.000000 0.000000
# 3 -0.007854 -0.007853 0.009445 0.000000 0.000000 0.000000
# 4 0.000000 0.000000 0.000000 -0.018502 0.000000 0.000000
# 5 0.000000 0.000000 0.000000 0.000000 -0.018504 0.000000
# 6 0.000000 0.000000 0.000000 0.000000 0.000000 0.043415
#
#
# Mechanical properties :
#
#
# Convention : Reuss Voigt Hill
#
# Bulk Modulus (GPa) = 40.12630 83.53754 61.83192
# Shear Modulus (GPa) = 12.45694 -7.96454 2.24620
#
# Velocity S-wave (km/s) = 2.65765 -2.12507 1.12854
# Velocity P-wave (km/s) = 5.67179 6.42999 6.06275
#
# Compressibility (1/GPa) = 0.02492131
#
# Stress axis : x y z
#
# Youngs Moduli (GPa) = 10.18590 10.18603 105.87160
#
# Poissons Ratio (x) = 0.76120 0.83148
# Poissons Ratio (y) = 0.76119 0.83144
# Poissons Ratio (z) = 0.08000 0.07999
#
# Static dielectric constant tensor:
#      x y z
#    x 1.588130 0.000000 0.000000 
#    y 0.000000 1.588130 0.000000 
#    z 0.000000 0.000000 1.609520 
# 
# From -- ./inp_files/5735.got.cif
#   From: 2010.05.17/outbox.cif.g08.bks.cpg/sg115_3_cif.got.tgz:5735.got - 2010.05.20 11:07:42.
