data_PCOD9557410
_publ_section_title
;
Structure prediction by ZEFSAII (Michael W. Deem and Ramdas Pophale) SiO2 
 PCOD9557410
Probable space group: P -4 M 2
;
_chemical_formula_sum "Si O2"
_cell_formula_units_Z 33
_cell_length_a 11.487851
_cell_length_b 11.487851
_cell_length_c 11.781164
_cell_angle_alpha 90.000000
_cell_angle_beta 90.000000
_cell_angle_gamma 90.000000
_cell_volume 1554.768703
_symmetry_space_group_name_H-M "P -4 M 2"
_symmetry_group_IT_number 115
_symmetry_cell_setting 'tetragonal'
loop_
_space_group_symop_operation_xyz
x,y,z
y,-x,-z
-x,-y,z
-y,x,-z
y,x,-z
-y,-x,-z
-x,y,z
x,-y,z
loop_
_atom_site_type_symbol
_atom_site_label
_atom_site_fract_x
_atom_site_fract_y
_atom_site_fract_z
Si Si1 0.362802 0.750516 0.611804
Si Si2 0.626665 0.134899 0.954316
Si Si3 0.000000 0.642071 0.681096
Si Si4 0.229909 0.701857 0.816054
Si Si5 0.000000 0.000000 0.500000
Si Si6 0.738732 0.000000 0.575621
O O1 0.304207 0.695794 0.500000
O O2 0.500000 0.758439 0.596012
O O3 0.328353 0.675865 0.722807
O O4 0.309298 0.880075 0.627481
O O5 0.500000 0.149983 0.897947
O O6 0.729177 0.177593 0.873464
O O7 0.640191 0.000000 0.984286
O O8 0.627365 0.207755 0.070946
O O9 0.112327 0.692270 0.744728
O O10 0.000000 0.688143 0.552929
O O11 0.000000 0.500000 0.684281
O O12 0.120934 0.000000 0.570091
#
# Coordination Sequence:
#
# PCOD9557410 Si02
#       6
#     8   8   4   8   1   4
#     4  12  26  44  68 103 143 188 233 280 342 414
#     4  10  22  43  70  98 134 179 231 290 355 421
#     4  12  22  42  71  99 138 191 237 276 345 421
#     4  11  23  40  68 104 132 176 233 290 339 412
#     4  12  20  44  68 104 132 166 228 296 340 392
#     4  12  24  44  71 102 145 181 227 285 353 416
#
# _framework density 21.225023
#
# number of rings (size 3 to 8) (size 9 to 14) (size 15 to 20)
#    0.000    0.727    4.848    2.545    1.697    1.212 
#    2.182    0.000    0.000   26.909    0.000    0.000 
#    0.000    0.000    0.000    0.000    0.000    0.000 
#
# Total GULP energy -184216.716975 kJ/mol
# GULP energy per Si atom -5582.324757 kJ/mol
# Density = 2.117671 g / cm^3
# Si number density = 21.225023 Si / 1000 Ang^3
#
#
#
# Elastic Constant Matrix: (Units=GPa)
#
#
# Indices 1 2 3 4 5 6 
#
# 1 117.3363 68.1051 28.8185 0.0000 0.0000 0.0000
# 2 68.1051 117.3347 28.8185 0.0000 0.0000 0.0000
# 3 28.8185 28.8185 115.8936 0.0000 0.0000 0.0000
# 4 0.0000 0.0000 0.0000 21.3218 0.0000 0.0000
# 5 0.0000 0.0000 0.0000 0.0000 21.3216 0.0000
# 6 0.0000 0.0000 0.0000 0.0000 0.0000 -29.1042
#
#
#
# Elastic Compliance Matrix: (Units=1/GPa)
#
#
# Indices 1 2 3 4 5 6 
#
# 1 0.013078 -0.007234 -0.001453 0.000000 0.000000 0.000000
# 2 -0.007234 0.013079 -0.001453 0.000000 0.000000 0.000000
# 3 -0.001453 -0.001453 0.009351 0.000000 0.000000 0.000000
# 4 0.000000 0.000000 0.000000 0.046900 0.000000 0.000000
# 5 0.000000 0.000000 0.000000 0.000000 0.046901 0.000000
# 6 0.000000 0.000000 0.000000 0.000000 0.000000 -0.034359
#
#
# Mechanical properties :
#
#
# Convention : Reuss Voigt Hill
#
# Bulk Modulus (GPa) = 65.67350 66.89431 66.28391
# Shear Modulus (GPa) = 41.56027 17.69600 29.62813
#
# Velocity S-wave (km/s) = 4.42982 2.89058 3.74024
# Velocity P-wave (km/s) = 7.56129 6.53649 7.06749
#
# Compressibility (1/GPa) = 0.01522684
#
# Stress axis : x y z
#
# Youngs Moduli (GPa) = 76.46214 76.46105 106.93647
#
# Poissons Ratio (x) = 0.55314 0.15540
# Poissons Ratio (y) = 0.55314 0.15541
# Poissons Ratio (z) = 0.11112 0.11112
#
# Static dielectric constant tensor:
#      x y z
#    x 1.745360 0.000000 0.000000 
#    y 0.000000 1.745360 0.000000 
#    z 0.000000 0.000000 1.800220 
# 
# From -- ./inp_files/2602.got.cif
#   From: 2010.05.17/outbox.cif.g08.bks.cpg/sg115_2_cif.got.tgz:2602.got - 2010.05.20 11:07:42.
