data_PCOD9557123
_publ_section_title
;
Structure prediction by ZEFSAII (Michael W. Deem and Ramdas Pophale) SiO2 
 PCOD9557123
Probable space group: P -4 M 2
;
_chemical_formula_sum "Si O2"
_cell_formula_units_Z 33
_cell_length_a 16.056558
_cell_length_b 16.056558
_cell_length_c 6.865153
_cell_angle_alpha 90.000000
_cell_angle_beta 90.000000
_cell_angle_gamma 90.000000
_cell_volume 1769.926067
_symmetry_space_group_name_H-M "P -4 M 2"
_symmetry_group_IT_number 115
_symmetry_cell_setting 'tetragonal'
loop_
_space_group_symop_operation_xyz
x,y,z
y,-x,-z
-x,-y,z
-y,x,-z
y,x,-z
-y,-x,-z
-x,y,z
x,-y,z
loop_
_atom_site_type_symbol
_atom_site_label
_atom_site_fract_x
_atom_site_fract_y
_atom_site_fract_z
Si Si1 0.099481 0.689087 0.728370
Si Si2 0.782360 0.324280 0.388775
Si Si3 0.098923 0.500000 0.853289
Si Si4 0.779778 0.779778 0.000000
Si Si5 0.500000 0.500000 0.500000
Si Si6 0.385383 0.500000 0.122255
Si Si7 0.500000 0.801361 0.766547
O O1 0.144967 0.712542 0.525841
O O2 0.125941 0.592384 0.776547
O O3 0.000000 0.692103 0.716433
O O4 0.134795 0.753161 0.891046
O O5 0.697194 0.302807 0.500000
O O6 0.773717 0.285977 0.175222
O O7 0.802482 0.419505 0.364490
O O8 0.000000 0.500000 0.826986
O O9 0.125176 0.500000 0.078480
O O10 0.423303 0.500000 0.343025
O O11 0.286904 0.500000 0.123132
O O12 0.422379 0.577622 0.000000
#
# Coordination Sequence:
#
# PCOD9557123 Si02
#       7
#     8   8   4   4   1   4   4
#     4  10  21  39  61  87 123 157 193 241 294 358
#     4  10  23  37  55  86 116 154 202 247 293 353
#     4  10  21  37  58  87 121 158 196 237 294 353
#     4  10  20  40  60  89 121 148 198 240 296 354
#     4   8  18  44  48  70 104 148 206 240 292 326
#     4   9  22  38  51  73 104 146 195 248 289 336
#     4  12  22  35  60  80 112 162 197 254 295 344
#
# _framework density 18.644848
#
# number of rings (size 3 to 8) (size 9 to 14) (size 15 to 20)
#    0.000    2.061    2.424    0.727    3.394    1.939 
#    4.364    0.000    0.000    0.364    0.000    0.000 
#    0.000    0.000    0.000    0.000    0.000    0.000 
#
# Total GULP energy -183760.570513 kJ/mol
# GULP energy per Si atom -5568.502137 kJ/mol
# Density = 1.860241 g / cm^3
# Si number density = 18.644848 Si / 1000 Ang^3
#
#
#
# Elastic Constant Matrix: (Units=GPa)
#
#
# Indices 1 2 3 4 5 6 
#
# 1 19.2847 43.0598 29.7681 0.0000 0.0000 0.0000
# 2 43.0598 19.2697 29.7661 0.0000 0.0000 0.0000
# 3 29.7681 29.7661 124.4416 0.0000 0.0000 0.0000
# 4 0.0000 0.0000 0.0000 17.4705 0.0000 0.0000
# 5 0.0000 0.0000 0.0000 0.0000 17.4712 0.0000
# 6 0.0000 0.0000 0.0000 0.0000 0.0000 21.6842
#
#
#
# Elastic Compliance Matrix: (Units=1/GPa)
#
#
# Indices 1 2 3 4 5 6 
#
# 1 -0.010622 0.031420 -0.004975 0.000000 0.000000 0.000000
# 2 0.031420 -0.010634 -0.004972 0.000000 0.000000 0.000000
# 3 -0.004975 -0.004972 0.010415 0.000000 0.000000 0.000000
# 4 0.000000 0.000000 0.000000 0.057239 0.000000 0.000000
# 5 0.000000 0.000000 0.000000 0.000000 0.057237 0.000000
# 6 0.000000 0.000000 0.000000 0.000000 0.000000 0.046116
#
#
# Mechanical properties :
#
#
# Convention : Reuss Voigt Hill
#
# Bulk Modulus (GPa) = 31.14805 40.90931 36.02868
# Shear Modulus (GPa) = 42.55014 15.35200 28.95107
#
# Velocity S-wave (km/s) = 4.78236 2.87259 3.94479
# Velocity P-wave (km/s) = 6.87291 5.74381 6.33357
#
# Compressibility (1/GPa) = 0.03210474
#
# Stress axis : x y z
#
# Youngs Moduli (GPa) = -94.14599 -94.03765 96.01297
#
# Poissons Ratio (x) = 2.95463 0.47763
# Poissons Ratio (y) = 2.95803 0.47741
# Poissons Ratio (z) = -0.46834 -0.46759
#
# Static dielectric constant tensor:
#      x y z
#    x 1.667400 0.000000 0.000000 
#    y 0.000000 1.667410 0.000000 
#    z 0.000000 0.000000 1.701350 
# 
# From -- ./inp_files/491.got.cif
#   From: 2010.05.17/outbox.cif.g08.bks.cpg/sg115_1_cif.got.tgz:491.got - 2010.05.20 11:07:42.
