data_PCOD9557954
_publ_section_title
;
Structure prediction by ZEFSAII (Michael W. Deem and Ramdas Pophale) SiO2 
 PCOD9557954
Probable space group: P -4 C 2
;
_chemical_formula_sum "Si O2"
_cell_formula_units_Z 42
_cell_length_a 15.233813
_cell_length_b 15.233813
_cell_length_c 9.040007
_cell_angle_alpha 90.000000
_cell_angle_beta 90.000000
_cell_angle_gamma 90.000000
_cell_volume 2097.905913
_symmetry_space_group_name_H-M "P -4 C 2"
_symmetry_group_IT_number 116
_symmetry_cell_setting 'tetragonal'
loop_
_space_group_symop_operation_xyz
x,y,z
y,-x,-z
-x,-y,z
-y,x,-z
y,x,1/2-z
-y,-x,1/2-z
-x,y,1/2+z
x,-y,1/2+z
loop_
_atom_site_type_symbol
_atom_site_label
_atom_site_fract_x
_atom_site_fract_y
_atom_site_fract_z
Si Si1 0.399353 0.173420 0.953018
Si Si2 0.415310 0.854569 0.111058
Si Si3 0.729665 0.249008 0.921875
Si Si4 0.700887 0.022868 0.626335
Si Si5 0.181720 0.074609 0.407809
Si Si6 0.000000 0.000000 0.000000
O O1 0.415247 0.178744 0.778984
O O2 0.489807 0.157216 0.038742
O O3 0.340283 0.256455 0.995396
O O4 0.336870 0.095661 0.015114
O O5 0.379321 0.953574 0.135728
O O6 0.348675 0.804092 0.000555
O O7 0.725135 0.274866 0.750000
O O8 0.810928 0.179178 0.929515
O O9 0.745451 0.054871 0.779485
O O10 0.779104 0.969577 0.552391
O O11 0.083100 0.036574 0.404172
#
# Coordination Sequence:
#
# PCOD9557954 Si02
#       6
#     8   8   8   8   8   2
#     4  12  23  42  66  97 135 170 230 285 351 426
#     4  11  26  40  70 102 130 181 223 289 351 412
#     4  11  23  44  68  93 138 177 221 281 354 414
#     4  11  23  42  64  92 135 175 239 296 351 400
#     4  11  25  41  63  94 130 191 238 297 346 401
#     4  12  28  42  64  94 136 194 264 290 346 420
#
# _framework density 20.019962
#
# number of rings (size 3 to 8) (size 9 to 14) (size 15 to 20)
#    0.000    0.762    3.810    3.429    2.667    3.048 
#    0.000    0.000    0.000    0.571    0.000    4.000 
#    0.000    0.000    0.000    0.000    0.000    0.000 
#
# Total GULP energy -234220.358828 kJ/mol
# GULP energy per Si atom -5576.675210 kJ/mol
# Density = 1.997440 g / cm^3
# Si number density = 20.019962 Si / 1000 Ang^3
#
#
#
# Elastic Constant Matrix: (Units=GPa)
#
#
# Indices 1 2 3 4 5 6 
#
# 1 107.8811 39.9155 39.0773 0.0000 0.0000 0.0000
# 2 39.9155 107.8809 39.0772 0.0000 0.0000 0.0000
# 3 39.0773 39.0772 136.2286 0.0000 0.0000 0.0000
# 4 0.0000 0.0000 0.0000 25.0160 0.0000 0.0000
# 5 0.0000 0.0000 0.0000 0.0000 25.0161 0.0000
# 6 0.0000 0.0000 0.0000 0.0000 0.0000 10.1176
#
#
#
# Elastic Compliance Matrix: (Units=1/GPa)
#
#
# Indices 1 2 3 4 5 6 
#
# 1 0.011345 -0.003369 -0.002288 0.000000 0.000000 0.000000
# 2 -0.003369 0.011345 -0.002288 0.000000 0.000000 0.000000
# 3 -0.002288 -0.002288 0.008653 0.000000 0.000000 0.000000
# 4 0.000000 0.000000 0.000000 0.039974 0.000000 0.000000
# 5 0.000000 0.000000 0.000000 0.000000 0.039974 0.000000
# 6 0.000000 0.000000 0.000000 0.000000 0.000000 0.098838
#
#
# Mechanical properties :
#
#
# Convention : Reuss Voigt Hill
#
# Bulk Modulus (GPa) = 64.71073 65.34787 65.02930
# Shear Modulus (GPa) = 21.62923 27.62466 24.62694
#
# Velocity S-wave (km/s) = 3.29048 3.71867 3.51111
# Velocity P-wave (km/s) = 6.84322 7.15194 6.99928
#
# Compressibility (1/GPa) = 0.01545339
#
# Stress axis : x y z
#
# Youngs Moduli (GPa) = 88.14762 88.14746 115.56462
#
# Poissons Ratio (x) = 0.29694 0.26440
# Poissons Ratio (y) = 0.29695 0.26440
# Poissons Ratio (z) = 0.20167 0.20167
#
# Static dielectric constant tensor:
#      x y z
#    x 1.739300 0.000000 0.000000 
#    y 0.000000 1.739300 0.000000 
#    z 0.000000 0.000000 1.707060 
# 
# From -- ./inp_files/836.got.cif
#   From: 2010.05.17/outbox.cif.g08.bks.cpg/sg116_1_cif.got.tgz:836.got - 2010.05.20 11:11:43.
