data_PCOD9557300
_publ_section_title
;
Structure prediction by ZEFSAII (Michael W. Deem and Ramdas Pophale) SiO2 
 PCOD9557300
Probable space group: P -4 M 2
;
_chemical_formula_sum "Si O2"
_cell_formula_units_Z 44
_cell_length_a 9.264471
_cell_length_b 9.264471
_cell_length_c 29.451502
_cell_angle_alpha 90.000000
_cell_angle_beta 90.000000
_cell_angle_gamma 90.000000
_cell_volume 2527.834872
_symmetry_space_group_name_H-M "P -4 M 2"
_symmetry_group_IT_number 115
_symmetry_cell_setting 'tetragonal'
loop_
_space_group_symop_operation_xyz
x,y,z
y,-x,-z
-x,-y,z
-y,x,-z
y,x,-z
-y,-x,-z
-x,y,z
x,-y,z
loop_
_atom_site_type_symbol
_atom_site_label
_atom_site_fract_x
_atom_site_fract_y
_atom_site_fract_z
Si Si1 0.328893 0.672801 0.916850
Si Si2 0.830715 0.672593 0.823909
Si Si3 0.667306 0.676034 0.450270
Si Si4 0.828128 0.171354 0.731671
Si Si5 0.828089 0.828089 0.000000
Si Si6 0.828078 0.671414 0.359694
O O1 0.500000 0.700311 0.918336
O O2 0.307019 0.500000 0.923369
O O3 0.262492 0.711718 0.867882
O O4 0.247157 0.758637 0.956082
O O5 0.821765 0.500000 0.817999
O O6 0.782282 0.749193 0.777668
O O7 0.000000 0.709274 0.831753
O O8 0.722788 0.722788 0.500000
O O9 0.500000 0.718209 0.445581
O O10 0.671413 0.500000 0.451546
O O11 0.754347 0.723230 0.406105
O O12 0.749780 0.222737 0.686007
O O13 0.000000 0.192503 0.726667
O O14 0.801050 0.000000 0.736435
O O15 0.000000 0.802990 0.998575
O O16 0.801297 0.500000 0.355386
O O17 0.000000 0.693071 0.363379
#
# Coordination Sequence:
#
# PCOD9557300 Si02
#       6
#     8   8   8   8   4   8
#     4  10  21  37  57  81 108 137 169 207 253 301
#     4   9  18  33  52  73  99 131 164 200 243 288
#     4   8  14  26  44  64  86 114 148 185 227 276
#     4   9  18  32  48  66  92 126 159 192 234 284
#     4  11  24  39  56  80 108 139 176 213 248 292
#     4   9  17  29  45  65  89 117 150 189 232 277
#
# _framework density 17.406199999999998
#
# number of rings (size 3 to 8) (size 9 to 14) (size 15 to 20)
#    0.000    2.818    0.000    1.636    0.000    5.091 
#    0.000    2.727    0.000    1.091    0.000    0.000 
#    0.000    0.000    0.000    0.000    0.000    0.000 
#
# Total GULP energy -245294.723826 kJ/mol
# GULP energy per Si atom -5574.880087 kJ/mol
# Density = 1.736658 g / cm^3
# Si number density = 17.406200 Si / 1000 Ang^3
#
#
#
# Elastic Constant Matrix: (Units=GPa)
#
#
# Indices 1 2 3 4 5 6 
#
# 1 46.1117 46.4824 80.1700 0.0000 0.0000 0.0000
# 2 46.4824 46.1117 80.1700 0.0000 0.0000 0.0000
# 3 80.1700 80.1700 223.4519 0.0000 0.0000 0.0000
# 4 0.0000 0.0000 0.0000 51.5732 0.0000 0.0000
# 5 0.0000 0.0000 0.0000 0.0000 51.5732 0.0000
# 6 0.0000 0.0000 0.0000 0.0000 0.0000 18.2390
#
#
#
# Elastic Compliance Matrix: (Units=1/GPa)
#
#
# Indices 1 2 3 4 5 6 
#
# 1 -1.334348 1.362864 -0.010231 0.000000 0.000000 0.000000
# 2 1.362864 -1.334348 -0.010231 0.000000 0.000000 0.000000
# 3 -0.010231 -0.010231 0.011817 0.000000 0.000000 0.000000
# 4 0.000000 0.000000 0.000000 0.019390 0.000000 0.000000
# 5 0.000000 0.000000 0.000000 0.000000 0.019390 0.000000
# 6 0.000000 0.000000 0.000000 0.000000 0.000000 0.054828
#
#
# Mechanical properties :
#
#
# Convention : Reuss Voigt Hill
#
# Bulk Modulus (GPa) = 35.81000 81.03554 58.42277
# Shear Modulus (GPa) = -0.95442 31.53393 15.28975
#
# Velocity S-wave (km/s) = -0.74129 4.26097 2.96701
# Velocity P-wave (km/s) = 4.45927 8.41810 6.73608
#
# Compressibility (1/GPa) = 0.02792516
#
# Stress axis : x y z
#
# Youngs Moduli (GPa) = -0.74943 -0.74943 84.62604
#
# Poissons Ratio (x) = 1.02137 0.86582
# Poissons Ratio (y) = 1.02137 0.86582
# Poissons Ratio (z) = -0.00767 -0.00767
#
# Static dielectric constant tensor:
#      x y z
#    x 1.582700 0.000000 0.000000 
#    y 0.000000 1.582700 0.000000 
#    z 0.000000 0.000000 1.582860 
# 
# From -- ./inp_files/5835.got.cif
#   From: 2010.05.17/outbox.cif.g08.bks.cpg/sg115_3_cif.got.tgz:5835.got - 2010.05.20 11:07:42.
