data_PCOD9557131
_publ_section_title
;
Structure prediction by ZEFSAII (Michael W. Deem and Ramdas Pophale) SiO2 
 PCOD9557131
Probable space group: P -4 M 2
;
_chemical_formula_sum "Si O2"
_cell_formula_units_Z 48
_cell_length_a 9.248492
_cell_length_b 9.248492
_cell_length_c 32.409213
_cell_angle_alpha 90.000000
_cell_angle_beta 90.000000
_cell_angle_gamma 90.000000
_cell_volume 2772.109209
_symmetry_space_group_name_H-M "P -4 M 2"
_symmetry_group_IT_number 115
_symmetry_cell_setting 'tetragonal'
loop_
_space_group_symop_operation_xyz
x,y,z
y,-x,-z
-x,-y,z
-y,x,-z
y,x,-z
-y,-x,-z
-x,y,z
x,-y,z
loop_
_atom_site_type_symbol
_atom_site_label
_atom_site_fract_x
_atom_site_fract_y
_atom_site_fract_z
Si Si1 0.672821 0.329548 0.121786
Si Si2 0.829546 0.173115 0.710251
Si Si3 0.672152 0.325983 0.634808
Si Si4 0.670682 0.827218 0.794098
Si Si5 0.171257 0.327441 0.962316
Si Si6 0.675084 0.327967 0.544332
O O1 0.500000 0.314817 0.126707
O O2 0.704973 0.500000 0.115497
O O3 0.750087 0.282163 0.163824
O O4 0.717035 0.241563 0.081279
O O5 0.755300 0.251312 0.671867
O O6 0.757185 0.218726 0.753481
O O7 0.000000 0.202056 0.710999
O O8 0.807858 0.000000 0.706429
O O9 0.500000 0.297762 0.638310
O O10 0.690489 0.500000 0.636445
O O11 0.722717 0.273191 0.589201
O O12 0.500000 0.796318 0.788060
O O13 0.686947 0.000000 0.798818
O O14 0.196717 0.500000 0.967056
O O15 0.000000 0.302670 0.961795
O O16 0.245111 0.245111 0.000000
O O17 0.729620 0.270380 0.500000
O O18 0.500000 0.314162 0.544011
O O19 0.704985 0.500000 0.544440
#
# Coordination Sequence:
#
# PCOD9557131 Si02
#       6
#     8   8   8   8   8   8
#     4   9  18  33  53  76 101 129 161 199 244 292
#     4  10  21  35  49  67  95 132 169 201 238 287
#     4   9  17  29  48  74  98 121 155 199 244 290
#     4   9  18  33  52  72  94 123 161 203 244 287
#     4  10  21  36  54  77 105 137 172 207 243 286
#     4   7  10  19  38  65  94 119 145 185 238 289
#
# _framework density 17.315337
#
# number of rings (size 3 to 8) (size 9 to 14) (size 15 to 20)
#    0.000    3.000    0.000    2.500    0.000    4.333 
#    0.000    3.333    0.000    1.000    0.000    5.833 
#    0.000    0.000    0.000    0.000    0.000    0.000 
#
# Total GULP energy -267403.566355 kJ/mol
# GULP energy per Si atom -5570.907632 kJ/mol
# Density = 1.727593 g / cm^3
# Si number density = 17.315337 Si / 1000 Ang^3
#
#
#
# Elastic Constant Matrix: (Units=GPa)
#
#
# Indices 1 2 3 4 5 6 
#
# 1 36.4117 40.1889 75.9545 0.0000 0.0000 0.0000
# 2 40.1889 36.4119 75.9546 0.0000 0.0000 0.0000
# 3 75.9545 75.9546 238.6346 0.0000 0.0000 0.0000
# 4 0.0000 0.0000 0.0000 -19.7312 0.0000 0.0000
# 5 0.0000 0.0000 0.0000 0.0000 -19.7309 0.0000
# 6 0.0000 0.0000 0.0000 0.0000 0.0000 18.9833
#
#
#
# Elastic Compliance Matrix: (Units=1/GPa)
#
#
# Indices 1 2 3 4 5 6 
#
# 1 -0.114680 0.150078 -0.011267 0.000000 0.000000 0.000000
# 2 0.150078 -0.114679 -0.011267 0.000000 0.000000 0.000000
# 3 -0.011267 -0.011267 0.011363 0.000000 0.000000 0.000000
# 4 0.000000 0.000000 0.000000 -0.050681 0.000000 0.000000
# 5 0.000000 0.000000 0.000000 0.000000 -0.050682 0.000000
# 6 0.000000 0.000000 0.000000 0.000000 0.000000 0.052678
#
#
# Mechanical properties :
#
#
# Convention : Reuss Voigt Hill
#
# Bulk Modulus (GPa) = 26.95996 77.29491 52.12744
# Shear Modulus (GPa) = -9.81533 3.86161 -2.97686
#
# Velocity S-wave (km/s) = -2.38346 1.49499 -1.31261
# Velocity P-wave (km/s) = 2.83360 6.90771 5.27948
#
# Compressibility (1/GPa) = 0.03709204
#
# Stress axis : x y z
#
# Youngs Moduli (GPa) = -8.71989 -8.71998 88.00687
#
# Poissons Ratio (x) = 1.30868 0.99155
# Poissons Ratio (y) = 1.30867 0.99158
# Poissons Ratio (z) = -0.09824 -0.09825
#
# Static dielectric constant tensor:
#      x y z
#    x 1.572710 0.000000 0.000000 
#    y 0.000000 1.572710 0.000000 
#    z 0.000000 0.000000 1.597470 
# 
# From -- ./inp_files/6102.got.cif
#   From: 2010.05.17/outbox.cif.g08.bks.cpg/sg115_4_cif.got.tgz:6102.got - 2010.05.20 11:07:42.
