data_PCOD9557197
_publ_section_title
;
Structure prediction by ZEFSAII (Michael W. Deem and Ramdas Pophale) SiO2 
 PCOD9557197
Probable space group: P -4 M 2
;
_chemical_formula_sum "Si O2"
_cell_formula_units_Z 40
_cell_length_a 13.527745
_cell_length_b 13.527745
_cell_length_c 12.850198
_cell_angle_alpha 90.000000
_cell_angle_beta 90.000000
_cell_angle_gamma 90.000000
_cell_volume 2351.584753
_symmetry_space_group_name_H-M "P -4 M 2"
_symmetry_group_IT_number 115
_symmetry_cell_setting 'tetragonal'
loop_
_space_group_symop_operation_xyz
x,y,z
y,-x,-z
-x,-y,z
-y,x,-z
y,x,-z
-y,-x,-z
-x,y,z
x,-y,z
loop_
_atom_site_type_symbol
_atom_site_label
_atom_site_fract_x
_atom_site_fract_y
_atom_site_fract_z
Si Si1 0.778362 0.615809 0.621738
Si Si2 0.720012 0.116092 0.806014
Si Si3 0.219676 0.383103 1.000000
Si Si4 0.615809 0.778361 0.621738
Si Si5 0.279988 0.116092 0.193986
O O1 0.766356 0.500000 0.644440
O O2 0.676810 0.676810 0.638093
O O3 0.805263 0.626305 0.500000
O O4 0.857217 0.665110 0.698374
O O5 0.665109 0.142784 0.698374
O O6 0.821677 0.178322 0.808939
O O7 0.735206 0.000000 0.817545
O O8 0.652768 0.159068 0.899006
O O9 0.233688 0.500000 1.000000
O O10 0.159068 0.347232 0.899006
O O11 0.322301 0.322301 0.000000
O O12 0.500000 0.766356 0.644440
O O13 0.264793 0.000000 0.182455
#
# Coordination Sequence:
#
# PCOD9557197 Si02
#       5
#     8   8   8   8   8
#     4   9  18  32  50  74 103 133 166 204 246 295
#     4  10  21  36  53  74 100 130 167 210 252 295
#     4  10  21  36  54  78 106 134 165 200 240 290
#     4   9  18  32  50  74 103 133 166 204 246 295
#     4  10  21  36  53  74 100 130 167 210 252 295
#
# _framework density 17.009803999999999
#
# number of rings (size 3 to 8) (size 9 to 14) (size 15 to 20)
#    0.000    2.400    0.000    1.800    0.000    5.800 
#    0.000    4.000    0.000   10.800    0.000    5.600 
#    0.000    0.000    0.000    0.000    0.000    0.000 
#
# Total GULP energy -223178.669733 kJ/mol
# GULP energy per Si atom -5579.466743 kJ/mol
# Density = 1.697109 g / cm^3
# Si number density = 17.009804 Si / 1000 Ang^3
#
#
#
# Elastic Constant Matrix: (Units=GPa)
#
#
# Indices 1 2 3 4 5 6 
#
# 1 9.2885 220.5280 61.1641 0.0000 0.0000 0.0000
# 2 220.5280 9.2885 61.1641 0.0000 0.0000 0.0000
# 3 61.1641 61.1641 70.9418 0.0000 0.0000 0.0000
# 4 0.0000 0.0000 0.0000 17.0575 0.0000 0.0000
# 5 0.0000 0.0000 0.0000 0.0000 17.0575 0.0000
# 6 0.0000 0.0000 0.0000 0.0000 0.0000 3.4322
#
#
#
# Elastic Compliance Matrix: (Units=1/GPa)
#
#
# Indices 1 2 3 4 5 6 
#
# 1 0.001654 0.006388 -0.006934 0.000000 0.000000 0.000000
# 2 0.006388 0.001654 -0.006934 0.000000 0.000000 0.000000
# 3 -0.006934 -0.006934 0.026052 0.000000 0.000000 0.000000
# 4 0.000000 0.000000 0.000000 0.058625 0.000000 0.000000
# 5 0.000000 0.000000 0.000000 0.000000 0.058625 0.000000
# 6 0.000000 0.000000 0.000000 0.000000 0.000000 0.291357
#
#
# Mechanical properties :
#
#
# Convention : Reuss Voigt Hill
#
# Bulk Modulus (GPa) = 69.43674 86.13682 77.78678
# Shear Modulus (GPa) = 10.92356 -9.37974 0.77191
#
# Velocity S-wave (km/s) = 2.53690 -2.35080 0.67438
# Velocity P-wave (km/s) = 7.03501 6.58643 6.81441
#
# Compressibility (1/GPa) = 0.01440160
#
# Stress axis : x y z
#
# Youngs Moduli (GPa) = 604.60146 604.60146 38.38491
#
# Poissons Ratio (x) = -3.86216 0.26614
# Poissons Ratio (y) = -3.86216 0.26614
# Poissons Ratio (z) = 4.19203 4.19203
#
# Static dielectric constant tensor:
#      x y z
#    x 1.544220 0.000000 0.000000 
#    y 0.000000 1.544220 0.000000 
#    z 0.000000 0.000000 1.591130 
# 
# From -- ./inp_files/3597.got.cif
#   From: 2010.05.17/outbox.cif.g08.bks.cpg/sg115_2_cif.got.tgz:3597.got - 2010.05.20 11:07:42.
