data_PCOD9557671
_publ_section_title
;
Structure prediction by ZEFSAII (Michael W. Deem and Ramdas Pophale) SiO2 
 PCOD9557671
Probable space group: P -4 C 2
;
_chemical_formula_sum "Si O2"
_cell_formula_units_Z 40
_cell_length_a 13.335032
_cell_length_b 13.335032
_cell_length_c 8.833484
_cell_angle_alpha 90.000000
_cell_angle_beta 90.000000
_cell_angle_gamma 90.000000
_cell_volume 1570.797318
_symmetry_space_group_name_H-M "P -4 C 2"
_symmetry_group_IT_number 116
_symmetry_cell_setting 'tetragonal'
loop_
_space_group_symop_operation_xyz
x,y,z
y,-x,-z
-x,-y,z
-y,x,-z
y,x,1/2-z
-y,-x,1/2-z
-x,y,1/2+z
x,-y,1/2+z
loop_
_atom_site_type_symbol
_atom_site_label
_atom_site_fract_x
_atom_site_fract_y
_atom_site_fract_z
Si Si1 0.936671 0.725545 0.250707
Si Si2 0.407353 0.243898 0.729903
Si Si3 0.528856 0.340004 0.959971
Si Si4 0.942195 0.849201 0.988033
Si Si5 0.406371 0.067477 0.972152
O O1 0.024806 0.781988 0.346845
O O2 0.890709 0.654364 0.381479
O O3 0.883252 0.799631 0.128524
O O4 0.988044 0.657265 0.123983
O O5 0.300985 0.300985 0.750000
O O6 0.432247 0.242416 0.552465
O O7 0.417717 0.151750 0.842757
O O8 0.496267 0.315134 0.791588
O O9 0.424635 0.388131 0.019222
O O10 0.884946 0.950221 0.945178
O O11 0.500000 0.000000 0.026101
#
# Coordination Sequence:
#
# PCOD9557671 Si02
#       5
#     8   8   8   8   8
#     4  10  23  39  61  92 124 175 220 274 330 407
#     4  10  22  38  64  94 126 166 220 279 337 407
#     4   9  18  36  63  95 127 159 201 270 346 413
#     4  10  20  39  69 100 131 166 211 277 360 428
#     4  11  25  42  63  85 131 186 236 275 341 413
#
# _framework density 25.464777000000002
#
# number of rings (size 3 to 8) (size 9 to 14) (size 15 to 20)
#    0.000    2.000    0.000    2.400    5.600    7.200 
#    0.000    0.000    0.000    0.000    0.000    0.000 
#    0.000    0.000    0.000    0.000    0.000    0.000 
#
# Total GULP energy -223004.110277 kJ/mol
# GULP energy per Si atom -5575.102757 kJ/mol
# Density = 2.540682 g / cm^3
# Si number density = 25.464777 Si / 1000 Ang^3
#
#
#
# Elastic Constant Matrix: (Units=GPa)
#
#
# Indices 1 2 3 4 5 6 
#
# 1 53.2942 2.7510 18.4227 0.0000 0.0000 0.0000
# 2 2.7510 53.2942 18.4227 0.0000 0.0000 0.0000
# 3 18.4227 18.4227 89.3169 0.0000 0.0000 0.0000
# 4 0.0000 0.0000 0.0000 20.2370 0.0000 0.0000
# 5 0.0000 0.0000 0.0000 0.0000 20.2370 0.0000
# 6 0.0000 0.0000 0.0000 0.0000 0.0000 5.8654
#
#
#
# Elastic Compliance Matrix: (Units=1/GPa)
#
#
# Indices 1 2 3 4 5 6 
#
# 1 0.020213 0.000428 -0.004258 0.000000 0.000000 0.000000
# 2 0.000428 0.020213 -0.004258 0.000000 0.000000 0.000000
# 3 -0.004258 -0.004258 0.012952 0.000000 0.000000 0.000000
# 4 0.000000 0.000000 0.000000 0.049415 0.000000 0.000000
# 5 0.000000 0.000000 0.000000 0.000000 0.049415 0.000000
# 6 0.000000 0.000000 0.000000 0.000000 0.000000 0.170490
#
#
# Mechanical properties :
#
#
# Convention : Reuss Voigt Hill
#
# Bulk Modulus (GPa) = 26.87768 30.56646 28.72207
# Shear Modulus (GPa) = 14.23390 19.68846 16.96118
#
# Velocity S-wave (km/s) = 2.36681 2.78360 2.58362
# Velocity P-wave (km/s) = 4.24815 4.72871 4.49486
#
# Compressibility (1/GPa) = 0.03720559
#
# Stress axis : x y z
#
# Youngs Moduli (GPa) = 49.47201 49.47201 77.20529
#
# Poissons Ratio (x) = -0.02119 0.32871
# Poissons Ratio (y) = -0.02119 0.32871
# Poissons Ratio (z) = 0.21063 0.21063
#
# Static dielectric constant tensor:
#      x y z
#    x 2.185090 0.000000 0.000000 
#    y 0.000000 2.185090 0.000000 
#    z 0.000000 0.000000 1.936660 
# 
# From -- ./inp_files/772.got.cif
#   From: 2010.05.17/outbox.cif.g08.bks.cpg/sg116_1_cif.got.tgz:772.got - 2010.05.20 11:11:43.
