data_PCOD9557658
_publ_section_title
;
Structure prediction by ZEFSAII (Michael W. Deem and Ramdas Pophale) SiO2 
 PCOD9557658
Probable space group: P -4 C 2
;
_chemical_formula_sum "Si O2"
_cell_formula_units_Z 56
_cell_length_a 13.206079
_cell_length_b 13.206079
_cell_length_c 14.774654
_cell_angle_alpha 90.000000
_cell_angle_beta 90.000000
_cell_angle_gamma 90.000000
_cell_volume 2576.707378
_symmetry_space_group_name_H-M "P -4 C 2"
_symmetry_group_IT_number 116
_symmetry_cell_setting 'tetragonal'
loop_
_space_group_symop_operation_xyz
x,y,z
y,-x,-z
-x,-y,z
-y,x,-z
y,x,1/2-z
-y,-x,1/2-z
-x,y,1/2+z
x,-y,1/2+z
loop_
_atom_site_type_symbol
_atom_site_label
_atom_site_fract_x
_atom_site_fract_y
_atom_site_fract_z
Si Si1 0.759039 0.403039 0.343368
Si Si2 0.050720 0.607475 0.679960
Si Si3 0.266654 0.852976 0.309300
Si Si4 0.950133 0.604959 0.970481
Si Si5 0.172257 0.684975 0.992354
Si Si6 0.567277 0.637543 0.964214
Si Si7 0.360987 0.764379 0.691120
O O1 0.791535 0.352197 0.248313
O O2 0.852332 0.372766 0.410269
O O3 0.646373 0.380570 0.382110
O O4 0.759795 0.522874 0.335579
O O5 0.082056 0.594598 0.575305
O O6 0.138919 0.642363 0.744501
O O7 0.000000 0.500000 0.707213
O O8 0.964820 0.691871 0.685934
O O9 0.167752 0.832249 0.250000
O O10 0.254706 0.819430 0.413610
O O11 0.000000 0.500000 0.937889
O O12 0.052592 0.672567 0.972723
O O13 0.243309 0.586226 0.015538
O O14 0.221315 0.711646 0.896008
O O15 0.610452 0.552565 0.037062
O O16 0.330678 0.669322 0.750000
#
# Coordination Sequence:
#
# PCOD9557658 Si02
#       7
#     8   8   8   8   8   8   8
#     4  12  23  40  65  93 128 181 221 278 341 398
#     4  10  22  39  65  99 125 168 227 284 348 407
#     4  11  23  39  64  94 127 169 221 279 337 421
#     4  10  20  37  68  91 124 165 217 289 339 390
#     4  11  23  41  58  92 126 171 223 274 341 391
#     4  11  23  39  61  85 133 184 218 265 329 420
#     4  12  26  40  63  96 132 169 224 289 343 416
#
# _framework density 21.733163999999999
#
# number of rings (size 3 to 8) (size 9 to 14) (size 15 to 20)
#    0.000    1.000    5.714    0.857    2.000    1.143 
#    0.000    0.000    0.000    0.429    0.000    0.000 
#    0.000    3.143    0.000    0.000    0.000    0.000 
#
# Total GULP energy -312073.758926 kJ/mol
# GULP energy per Si atom -5572.745695 kJ/mol
# Density = 2.168370 g / cm^3
# Si number density = 21.733164 Si / 1000 Ang^3
#
#
#
# Elastic Constant Matrix: (Units=GPa)
#
#
# Indices 1 2 3 4 5 6 
#
# 1 76.2364 27.5705 29.3554 0.0000 0.0000 0.0000
# 2 27.5705 76.2378 29.3573 0.0000 0.0000 0.0000
# 3 29.3554 29.3573 129.4512 0.0000 0.0000 0.0000
# 4 0.0000 0.0000 0.0000 18.2771 0.0000 0.0000
# 5 0.0000 0.0000 0.0000 0.0000 18.2781 0.0000
# 6 0.0000 0.0000 0.0000 0.0000 0.0000 25.2011
#
#
#
# Elastic Compliance Matrix: (Units=1/GPa)
#
#
# Indices 1 2 3 4 5 6 
#
# 1 0.015799 -0.004749 -0.002506 0.000000 0.000000 0.000000
# 2 -0.004749 0.015799 -0.002506 0.000000 0.000000 0.000000
# 3 -0.002506 -0.002506 0.008862 0.000000 0.000000 0.000000
# 4 0.000000 0.000000 0.000000 0.054713 0.000000 0.000000
# 5 0.000000 0.000000 0.000000 0.000000 0.054710 0.000000
# 6 0.000000 0.000000 0.000000 0.000000 0.000000 0.039681
#
#
# Mechanical properties :
#
#
# Convention : Reuss Voigt Hill
#
# Bulk Modulus (GPa) = 47.75852 50.49909 49.12881
# Shear Modulus (GPa) = 23.14115 25.39408 24.26761
#
# Velocity S-wave (km/s) = 3.26664 3.42197 3.34521
# Velocity P-wave (km/s) = 6.02085 6.23695 6.12985
#
# Compressibility (1/GPa) = 0.02093867
#
# Stress axis : x y z
#
# Youngs Moduli (GPa) = 63.29377 63.29422 112.84749
#
# Poissons Ratio (x) = 0.30057 0.28278
# Poissons Ratio (y) = 0.30056 0.28281
# Poissons Ratio (z) = 0.15861 0.15862
#
# Static dielectric constant tensor:
#      x y z
#    x 1.828240 0.000000 0.000000 
#    y 0.000000 1.828240 0.000000 
#    z 0.000000 0.000000 1.873740 
# 
# From -- ./inp_files/2729.got.cif
#   From: 2010.05.17/outbox.cif.g08.bks.cpg/sg116_2_cif.got.tgz:2729.got - 2010.05.20 11:11:43.
