data_PCOD9557283
_publ_section_title
;
Structure prediction by ZEFSAII (Michael W. Deem and Ramdas Pophale) SiO2 
 PCOD9557283
Probable space group: P -4 M 2
;
_chemical_formula_sum "Si O2"
_cell_formula_units_Z 48
_cell_length_a 9.206835
_cell_length_b 9.206835
_cell_length_c 32.416478
_cell_angle_alpha 90.000000
_cell_angle_beta 90.000000
_cell_angle_gamma 90.000000
_cell_volume 2747.809038
_symmetry_space_group_name_H-M "P -4 M 2"
_symmetry_group_IT_number 115
_symmetry_cell_setting 'tetragonal'
loop_
_space_group_symop_operation_xyz
x,y,z
y,-x,-z
-x,-y,z
-y,x,-z
y,x,-z
-y,-x,-z
-x,y,z
x,-y,z
loop_
_atom_site_type_symbol
_atom_site_label
_atom_site_fract_x
_atom_site_fract_y
_atom_site_fract_z
Si Si1 0.827468 0.827199 0.452473
Si Si2 0.828482 0.825872 0.301247
Si Si3 0.323201 0.671925 0.955605
Si Si4 0.330374 0.677092 0.866016
Si Si5 0.672728 0.671562 0.622498
Si Si6 0.825977 0.670444 0.782919
O O1 0.791206 0.791206 0.500000
O O2 0.737730 0.738715 0.419227
O O3 0.000000 0.801587 0.446769
O O4 0.803533 0.000000 0.446889
O O5 0.750492 0.746191 0.338765
O O6 0.759399 0.781434 0.257458
O O7 0.000000 0.797182 0.301848
O O8 0.807268 0.000000 0.305616
O O9 0.500000 0.681795 0.955466
O O10 0.288909 0.500000 0.955820
O O11 0.275381 0.730247 0.910946
O O12 0.269949 0.730052 0.000000
O O13 0.500000 0.715212 0.861945
O O14 0.322677 0.500000 0.867246
O O15 0.244482 0.723654 0.825520
O O16 0.500000 0.693692 0.623396
O O17 0.702635 0.500000 0.624553
O O18 0.787742 0.500000 0.777252
O O19 0.000000 0.679419 0.786608
#
# Coordination Sequence:
#
# PCOD9557283 Si02
#       6
#     8   8   8   8   8   8
#     4   9  19  37  60  84 109 139 176 213 246 284
#     4  10  21  37  56  75  95 124 165 208 247 292
#     4   7   9  14  26  47  76 107 139 177 219 262
#     4   8  13  21  35  57  84 113 145 182 224 271
#     4  11  24  38  53  78 110 139 167 203 248 295
#     4   9  17  29  45  66  92 119 147 185 236 289
#
# _framework density 17.468463
#
# number of rings (size 3 to 8) (size 9 to 14) (size 15 to 20)
#    0.000    3.000    0.000    3.500    0.000    6.000 
#    0.000    4.167    0.000    0.000    0.000    1.167 
#    0.000    4.000    0.000    0.000    0.000    0.000 
#
# Total GULP energy -267376.751390 kJ/mol
# GULP energy per Si atom -5570.348987 kJ/mol
# Density = 1.742870 g / cm^3
# Si number density = 17.468463 Si / 1000 Ang^3
#
#
#
# Elastic Constant Matrix: (Units=GPa)
#
#
# Indices 1 2 3 4 5 6 
#
# 1 44.1369 45.2134 79.7353 0.0000 0.0000 0.0000
# 2 45.2134 44.1368 79.7353 0.0000 0.0000 0.0000
# 3 79.7353 79.7353 214.2031 0.0000 0.0000 0.0000
# 4 0.0000 0.0000 0.0000 61.6438 0.0000 0.0000
# 5 0.0000 0.0000 0.0000 0.0000 61.6431 0.0000
# 6 0.0000 0.0000 0.0000 0.0000 0.0000 18.4513
#
#
#
# Elastic Compliance Matrix: (Units=1/GPa)
#
#
# Indices 1 2 3 4 5 6 
#
# 1 -0.447779 0.481127 -0.012413 0.000000 0.000000 0.000000
# 2 0.481127 -0.447783 -0.012412 0.000000 0.000000 0.000000
# 3 -0.012413 -0.012412 0.013910 0.000000 0.000000 0.000000
# 4 0.000000 0.000000 0.000000 0.016222 0.000000 0.000000
# 5 0.000000 0.000000 0.000000 0.000000 0.016222 0.000000
# 6 0.000000 0.000000 0.000000 0.000000 0.000000 0.054197
#
#
# Mechanical properties :
#
#
# Convention : Reuss Voigt Hill
#
# Bulk Modulus (GPa) = 32.30970 79.09389 55.70179
# Shear Modulus (GPa) = -2.94586 34.86715 15.96064
#
# Velocity S-wave (km/s) = -1.30002 4.47251 3.02600
# Velocity P-wave (km/s) = 4.03519 8.48808 6.64569
#
# Compressibility (1/GPa) = 0.03095046
#
# Stress axis : x y z
#
# Youngs Moduli (GPa) = -2.23324 -2.23323 71.89301
#
# Poissons Ratio (x) = 1.07446 0.89244
# Poissons Ratio (y) = 1.07447 0.89234
# Poissons Ratio (z) = -0.02772 -0.02772
#
# Static dielectric constant tensor:
#      x y z
#    x 1.580710 0.000000 0.000000 
#    y 0.000000 1.580710 0.000000 
#    z 0.000000 0.000000 1.617320 
# 
# From -- ./inp_files/5911.got.cif
#   From: 2010.05.17/outbox.cif.g08.bks.cpg/sg115_3_cif.got.tgz:5911.got - 2010.05.20 11:07:42.
