data_PCOD9557469
_publ_section_title
;
Structure prediction by ZEFSAII (Michael W. Deem and Ramdas Pophale) SiO2 
 PCOD9557469
Probable space group: P -4 M 2
;
_chemical_formula_sum "Si O2"
_cell_formula_units_Z 56
_cell_length_a 15.129479
_cell_length_b 15.129479
_cell_length_c 15.259022
_cell_angle_alpha 90.000000
_cell_angle_beta 90.000000
_cell_angle_gamma 90.000000
_cell_volume 3492.807452
_symmetry_space_group_name_H-M "P -4 M 2"
_symmetry_group_IT_number 115
_symmetry_cell_setting 'tetragonal'
loop_
_space_group_symop_operation_xyz
x,y,z
y,-x,-z
-x,-y,z
-y,x,-z
y,x,-z
-y,-x,-z
-x,y,z
x,-y,z
loop_
_atom_site_type_symbol
_atom_site_label
_atom_site_fract_x
_atom_site_fract_y
_atom_site_fract_z
Si Si1 0.094735 0.102323 0.893806
Si Si2 0.712558 0.891806 0.892443
Si Si3 0.107349 0.399384 0.742162
Si Si4 0.750242 0.102978 0.595515
Si Si5 0.892593 0.400780 0.274714
Si Si6 0.896741 0.243252 0.612633
Si Si7 0.107377 0.397994 0.941911
O O1 0.189157 0.141487 0.868949
O O2 0.000000 0.144877 0.869383
O O3 0.092218 0.000000 0.863323
O O4 0.098180 0.098180 0.000000
O O5 0.644121 0.867943 0.816885
O O6 0.719104 0.000000 0.895373
O O7 0.672952 0.863201 0.985888
O O8 0.135630 0.500000 0.720765
O O9 0.133040 0.325126 0.672503
O O10 0.135132 0.379194 0.842135
O O11 0.000000 0.400477 0.742108
O O12 0.663877 0.133876 0.647176
O O13 0.834166 0.159374 0.625433
O O14 0.736214 0.109856 0.491181
O O15 0.765509 0.000000 0.616399
O O16 0.859176 0.500000 0.283048
O O17 0.000000 0.404430 0.275713
O O18 0.000000 0.224129 0.631474
O O19 0.132146 0.500000 0.963795
O O20 0.000000 0.396343 0.943186
#
# Coordination Sequence:
#
# PCOD9557469 Si02
#       7
#     8   8   8   8   8   8   8
#     4   8  14  25  37  48  70 109 153 191 220 245
#     4   9  15  24  39  56  76 106 144 183 223 265
#     4   8  14  25  42  64  86 106 135 180 231 277
#     4   9  18  31  45  62  85 115 151 188 222 261
#     4   9  17  29  44  62  83 107 142 190 235 271
#     4   9  17  30  47  64  85 115 149 184 223 268
#     4   8  13  22  37  57  78  99 129 173 222 268
#
# _framework density 16.032948000000001
#
# number of rings (size 3 to 8) (size 9 to 14) (size 15 to 20)
#    0.000    3.429    0.000    1.714    0.000    2.571 
#    2.571    5.000    0.000    2.571    0.000    0.000 
#    0.000    0.571    0.000    3.143    0.000    0.286 
#
# Total GULP energy -311771.616705 kJ/mol
# GULP energy per Si atom -5567.350298 kJ/mol
# Density = 1.599646 g / cm^3
# Si number density = 16.032948 Si / 1000 Ang^3
#
#
#
# Elastic Constant Matrix: (Units=GPa)
#
#
# Indices 1 2 3 4 5 6 
#
# 1 75.2641 41.2401 45.8872 0.0000 0.0000 0.0000
# 2 41.2401 75.2641 45.8872 0.0000 0.0000 0.0000
# 3 45.8872 45.8872 58.4823 0.0000 0.0000 0.0000
# 4 0.0000 0.0000 0.0000 12.4047 0.0000 0.0000
# 5 0.0000 0.0000 0.0000 0.0000 12.4047 0.0000
# 6 0.0000 0.0000 0.0000 0.0000 0.0000 1.4114
#
#
#
# Elastic Compliance Matrix: (Units=1/GPa)
#
#
# Indices 1 2 3 4 5 6 
#
# 1 0.025933 -0.003458 -0.017634 0.000000 0.000000 0.000000
# 2 -0.003458 0.025933 -0.017634 0.000000 0.000000 0.000000
# 3 -0.017634 -0.017634 0.044772 0.000000 0.000000 0.000000
# 4 0.000000 0.000000 0.000000 0.080615 0.000000 0.000000
# 5 0.000000 0.000000 0.000000 0.000000 0.080615 0.000000
# 6 0.000000 0.000000 0.000000 0.000000 0.000000 0.708523
#
#
# Mechanical properties :
#
#
# Convention : Reuss Voigt Hill
#
# Bulk Modulus (GPa) = 52.12668 52.78216 52.45442
# Shear Modulus (GPa) = 4.76083 10.31056 7.53569
#
# Velocity S-wave (km/s) = 1.72506 2.53866 2.17033
# Velocity P-wave (km/s) = 6.04571 6.44869 6.25045
#
# Compressibility (1/GPa) = 0.01918404
#
# Stress axis : x y z
#
# Youngs Moduli (GPa) = 38.56125 38.56125 22.33533
#
# Poissons Ratio (x) = 0.13335 0.39387
# Poissons Ratio (y) = 0.13335 0.39387
# Poissons Ratio (z) = 0.68000 0.68000
#
# Static dielectric constant tensor:
#      x y z
#    x 1.539920 0.000000 0.000000 
#    y 0.000000 1.539920 0.000000 
#    z 0.000000 0.000000 1.563750 
# 
# From -- ./inp_files/3813.got.cif
#   From: 2010.05.17/outbox.cif.g08.bks.cpg/sg115_2_cif.got.tgz:3813.got - 2010.05.20 11:07:42.
