data_PCOD9557512
_publ_section_title
;
Structure prediction by ZEFSAII (Michael W. Deem and Ramdas Pophale) SiO2 
 PCOD9557512
Probable space group: P -4 C 2
;
_chemical_formula_sum "Si O2"
_cell_formula_units_Z 48
_cell_length_a 21.125287
_cell_length_b 21.125287
_cell_length_c 5.450939
_cell_angle_alpha 90.000000
_cell_angle_beta 90.000000
_cell_angle_gamma 90.000000
_cell_volume 2432.632797
_symmetry_space_group_name_H-M "P -4 C 2"
_symmetry_group_IT_number 116
_symmetry_cell_setting 'tetragonal'
loop_
_space_group_symop_operation_xyz
x,y,z
y,-x,-z
-x,-y,z
-y,x,-z
y,x,1/2-z
-y,-x,1/2-z
-x,y,1/2+z
x,-y,1/2+z
loop_
_atom_site_type_symbol
_atom_site_label
_atom_site_fract_x
_atom_site_fract_y
_atom_site_fract_z
Si Si1 0.712185 0.428874 0.166916
Si Si2 0.020333 0.399259 0.748263
Si Si3 0.967804 0.744029 0.238714
Si Si4 0.283732 0.823045 0.735023
Si Si5 0.661819 0.572055 0.169084
Si Si6 0.833226 0.635596 0.767231
O O1 0.681392 0.498779 0.146718
O O2 0.678318 0.399967 0.405116
O O3 0.785661 0.423429 0.232436
O O4 0.701932 0.400894 0.896388
O O5 0.995433 0.431158 0.992592
O O6 0.983011 0.331619 0.737702
O O7 0.094301 0.385181 0.766839
O O8 0.892289 0.749455 0.246320
O O9 0.998848 0.768826 0.986640
O O10 0.233039 0.766962 0.750000
O O11 0.319666 0.822654 0.471614
O O12 0.329505 0.819378 0.974312
O O13 0.590553 0.590553 0.250000
#
# Coordination Sequence:
#
# PCOD9557512 Si02
#       6
#     8   8   8   8   8   8
#     4  10  23  37  61  91 111 148 185 232 281 340
#     4  10  16  30  53  72 101 150 198 222 259 333
#     4  10  16  32  51  67 101 151 199 225 263 331
#     4  12  23  32  48  81 121 152 185 233 283 344
#     4  10  21  42  64  83 111 149 188 225 272 337
#     4  12  21  35  52  82 119 150 182 230 286 341
#
# _framework density 19.73171
#
# number of rings (size 3 to 8) (size 9 to 14) (size 15 to 20)
#    0.000    1.333    6.667    2.000    0.000    4.000 
#    0.000    0.000    0.000   24.000    0.000   14.000 
#    0.000    2.000    0.000    0.000    0.000    0.000 
#
# Total GULP energy -267481.783735 kJ/mol
# GULP energy per Si atom -5572.537161 kJ/mol
# Density = 1.968680 g / cm^3
# Si number density = 19.731710 Si / 1000 Ang^3
#
#
#
# Elastic Constant Matrix: (Units=GPa)
#
#
# Indices 1 2 3 4 5 6 
#
# 1 67.2981 48.0881 21.0803 0.0000 0.0000 0.0000
# 2 48.0881 67.2990 21.0792 0.0000 0.0000 0.0000
# 3 21.0803 21.0792 202.0246 0.0000 0.0000 0.0000
# 4 0.0000 0.0000 0.0000 24.7851 0.0000 0.0000
# 5 0.0000 0.0000 0.0000 0.0000 24.7845 0.0000
# 6 0.0000 0.0000 0.0000 0.0000 0.0000 -15.5434
#
#
#
# Elastic Compliance Matrix: (Units=1/GPa)
#
#
# Indices 1 2 3 4 5 6 
#
# 1 0.030533 -0.021522 -0.000940 0.000000 0.000000 0.000000
# 2 -0.021522 0.030532 -0.000940 0.000000 0.000000 0.000000
# 3 -0.000940 -0.000940 0.005146 0.000000 0.000000 0.000000
# 4 0.000000 0.000000 0.000000 0.040347 0.000000 0.000000
# 5 0.000000 0.000000 0.000000 0.000000 0.040348 0.000000
# 6 0.000000 0.000000 0.000000 0.000000 0.000000 -0.064336
#
#
# Mechanical properties :
#
#
# Convention : Reuss Voigt Hill
#
# Bulk Modulus (GPa) = 51.53152 57.45744 54.49448
# Shear Modulus (GPa) = 36.80703 23.23017 30.01860
#
# Velocity S-wave (km/s) = 4.32368 3.43491 3.90466
# Velocity P-wave (km/s) = 7.14832 6.70179 6.92865
#
# Compressibility (1/GPa) = 0.01940560
#
# Stress axis : x y z
#
# Youngs Moduli (GPa) = 32.75177 32.75232 194.32250
#
# Poissons Ratio (x) = 0.70491 0.18272
# Poissons Ratio (y) = 0.70490 0.18266
# Poissons Ratio (z) = 0.03080 0.03079
#
# Static dielectric constant tensor:
#      x y z
#    x 1.621520 0.000000 0.000000 
#    y 0.000000 1.621520 0.000000 
#    z 0.000000 0.000000 1.868260 
# 
# From -- ./inp_files/181.got.cif
#   From: 2010.05.17/outbox.cif.g08.bks.cpg/sg116_1_cif.got.tgz:181.got - 2010.05.20 11:11:43.
