data_PCOD9557639
_publ_section_title
;
Structure prediction by ZEFSAII (Michael W. Deem and Ramdas Pophale) SiO2 
 PCOD9557639
Probable space group: P -4 C 2
;
_chemical_formula_sum "Si O2"
_cell_formula_units_Z 46
_cell_length_a 11.563938
_cell_length_b 11.563938
_cell_length_c 18.450859
_cell_angle_alpha 90.000000
_cell_angle_beta 90.000000
_cell_angle_gamma 90.000000
_cell_volume 2467.334885
_symmetry_space_group_name_H-M "P -4 C 2"
_symmetry_group_IT_number 116
_symmetry_cell_setting 'tetragonal'
loop_
_space_group_symop_operation_xyz
x,y,z
y,-x,-z
-x,-y,z
-y,x,-z
y,x,1/2-z
-y,-x,1/2-z
-x,y,1/2+z
x,-y,1/2+z
loop_
_atom_site_type_symbol
_atom_site_label
_atom_site_fract_x
_atom_site_fract_y
_atom_site_fract_z
Si Si1 0.500000 0.500000 0.500000
Si Si2 0.194006 0.614379 0.733383
Si Si3 0.700392 0.826994 0.518499
Si Si4 0.000000 0.500000 0.141913
Si Si5 0.338908 0.912285 0.481544
Si Si6 0.424653 0.670026 0.901282
Si Si7 0.203313 0.516310 0.890035
O O1 0.613354 0.522326 0.549106
O O2 0.260397 0.739604 0.750000
O O3 0.074867 0.592104 0.688934
O O4 0.285323 0.552356 0.678989
O O5 0.171203 0.551167 0.808893
O O6 0.820077 0.761759 0.529984
O O7 0.637935 0.767498 0.449107
O O8 0.615775 0.809478 0.586828
O O9 0.709741 0.961367 0.499581
O O10 0.920959 0.423738 0.087581
O O11 0.414047 0.871347 0.550569
O O12 0.332801 0.565921 0.895412
#
# Coordination Sequence:
#
# PCOD9557639 Si02
#       7
#     2   8   8   4   8   8   8
#     4  12  20  32  62  88 128 168 202 264 316 376
#     4  10  23  39  60  92 131 172 209 264 337 406
#     4  11  21  39  61  94 122 166 216 265 314 383
#     4  12  22  40  64  92 124 170 224 260 328 402
#     4  11  23  39  68  88 127 165 219 270 313 387
#     4  10  20  36  58  88 125 164 205 254 322 390
#     4  10  20  38  62  89 121 161 210 257 322 388
#
# _framework density 18.643597
#
# number of rings (size 3 to 8) (size 9 to 14) (size 15 to 20)
#    0.000    1.391    5.217    0.000    4.870    0.348 
#    0.000    8.261    0.000    0.000    0.000    1.217 
#    0.000    0.000    0.000    0.000    0.000    0.000 
#
# Total GULP energy -256422.801455 kJ/mol
# GULP energy per Si atom -5574.408727 kJ/mol
# Density = 1.860116 g / cm^3
# Si number density = 18.643597 Si / 1000 Ang^3
#
#
#
# Elastic Constant Matrix: (Units=GPa)
#
#
# Indices 1 2 3 4 5 6 
#
# 1 101.2382 53.5461 38.0318 0.0000 0.0000 0.0000
# 2 53.5461 101.2383 38.0318 0.0000 0.0000 0.0000
# 3 38.0318 38.0318 133.6788 0.0000 0.0000 0.0000
# 4 0.0000 0.0000 0.0000 22.3701 0.0000 0.0000
# 5 0.0000 0.0000 0.0000 0.0000 22.3707 0.0000
# 6 0.0000 0.0000 0.0000 0.0000 0.0000 32.2985
#
#
#
# Elastic Compliance Matrix: (Units=1/GPa)
#
#
# Indices 1 2 3 4 5 6 
#
# 1 0.014239 -0.006729 -0.002137 0.000000 0.000000 0.000000
# 2 -0.006729 0.014239 -0.002137 0.000000 0.000000 0.000000
# 3 -0.002137 -0.002137 0.008696 0.000000 0.000000 0.000000
# 4 0.000000 0.000000 0.000000 0.044702 0.000000 0.000000
# 5 0.000000 0.000000 0.000000 0.000000 0.044701 0.000000
# 6 0.000000 0.000000 0.000000 0.000000 0.000000 0.030961
#
#
# Mechanical properties :
#
#
# Convention : Reuss Voigt Hill
#
# Bulk Modulus (GPa) = 65.91694 66.15273 66.03483
# Shear Modulus (GPa) = 27.08542 29.17756 28.13149
#
# Velocity S-wave (km/s) = 3.81570 3.96032 3.88868
# Velocity P-wave (km/s) = 7.40580 7.51479 7.46049
#
# Compressibility (1/GPa) = 0.01517061
#
# Stress axis : x y z
#
# Youngs Moduli (GPa) = 70.22850 70.22854 114.98937
#
# Poissons Ratio (x) = 0.47254 0.24571
# Poissons Ratio (y) = 0.47254 0.24571
# Poissons Ratio (z) = 0.15006 0.15006
#
# Static dielectric constant tensor:
#      x y z
#    x 1.681540 0.000000 0.000000 
#    y 0.000000 1.681540 0.000000 
#    z 0.000000 0.000000 1.714460 
# 
# From -- ./inp_files/3458.got.cif
#   From: 2010.05.17/outbox.cif.g08.bks.cpg/sg116_2_cif.got.tgz:3458.got - 2010.05.20 11:11:43.
