data_PCOD9557244
_publ_section_title
;
Structure prediction by ZEFSAII (Michael W. Deem and Ramdas Pophale) SiO2 
 PCOD9557244
Probable space group: P -4 M 2
;
_chemical_formula_sum "Si O2"
_cell_formula_units_Z 48
_cell_length_a 9.294977
_cell_length_b 9.294977
_cell_length_c 31.429026
_cell_angle_alpha 90.000000
_cell_angle_beta 90.000000
_cell_angle_gamma 90.000000
_cell_volume 2715.360907
_symmetry_space_group_name_H-M "P -4 M 2"
_symmetry_group_IT_number 115
_symmetry_cell_setting 'tetragonal'
loop_
_space_group_symop_operation_xyz
x,y,z
y,-x,-z
-x,-y,z
-y,x,-z
y,x,-z
-y,-x,-z
-x,y,z
x,-y,z
loop_
_atom_site_type_symbol
_atom_site_label
_atom_site_fract_x
_atom_site_fract_y
_atom_site_fract_z
Si Si1 0.168950 0.328073 0.211589
Si Si2 0.171285 0.170115 0.624703
Si Si3 0.171834 0.169360 0.875112
Si Si4 0.329538 0.828279 0.038451
Si Si5 0.329434 0.329795 0.549664
Si Si6 0.329894 0.327726 0.298178
O O1 0.180793 0.500000 0.205912
O O2 0.214027 0.250056 0.168240
O O3 0.261392 0.287289 0.252719
O O4 0.000000 0.294310 0.219202
O O5 0.237403 0.235938 0.581755
O O6 0.245172 0.250435 0.664154
O O7 0.000000 0.191690 0.625649
O O8 0.200822 0.000000 0.627104
O O9 0.214812 0.259393 0.916508
O O10 0.000000 0.183836 0.869625
O O11 0.203485 0.000000 0.882350
O O12 0.500000 0.803351 0.038900
O O13 0.304586 0.000000 0.033250
O O14 0.254948 0.745053 0.000000
O O15 0.299399 0.299399 0.500000
O O16 0.500000 0.305577 0.556787
O O17 0.302879 0.500000 0.556929
O O18 0.500000 0.299122 0.298928
O O19 0.309157 0.500000 0.303684
#
# Coordination Sequence:
#
# PCOD9557244 Si02
#       6
#     8   8   8   8   8   8
#     4   9  18  33  53  77 105 137 173 213 258 310
#     4  11  24  38  53  78 111 144 179 221 267 314
#     4   9  18  33  53  76 103 137 175 214 257 308
#     4  10  21  36  54  77 105 138 177 219 263 313
#     4   9  19  37  60  84 109 139 177 219 263 315
#     4  10  21  37  57  80 106 139 180 222 264 314
#
# _framework density 17.677208
#
# number of rings (size 3 to 8) (size 9 to 14) (size 15 to 20)
#    0.000    2.333    0.000    2.500    0.000    8.333 
#    0.000    5.833    0.000    0.000    0.000    0.000 
#    0.000    0.000    0.000    0.000    0.000    0.000 
#
# Total GULP energy -267993.920774 kJ/mol
# GULP energy per Si atom -5583.206683 kJ/mol
# Density = 1.763697 g / cm^3
# Si number density = 17.677208 Si / 1000 Ang^3
#
#
#
# Elastic Constant Matrix: (Units=GPa)
#
#
# Indices 1 2 3 4 5 6 
#
# 1 80.9587 76.2734 101.2083 0.0000 0.0000 0.0000
# 2 76.2734 80.9585 101.2087 0.0000 0.0000 0.0000
# 3 101.2083 101.2087 178.7840 0.0000 0.0000 0.0000
# 4 0.0000 0.0000 0.0000 37.7218 0.0000 0.0000
# 5 0.0000 0.0000 0.0000 0.0000 37.7218 0.0000
# 6 0.0000 0.0000 0.0000 0.0000 0.0000 25.8377
#
#
#
# Elastic Compliance Matrix: (Units=1/GPa)
#
#
# Indices 1 2 3 4 5 6 
#
# 1 0.118442 -0.094995 -0.013273 0.000000 0.000000 0.000000
# 2 -0.094995 0.118446 -0.013276 0.000000 0.000000 0.000000
# 3 -0.013273 -0.013276 0.020623 0.000000 0.000000 0.000000
# 4 0.000000 0.000000 0.000000 0.026510 0.000000 0.000000
# 5 0.000000 0.000000 0.000000 0.000000 0.026510 0.000000
# 6 0.000000 0.000000 0.000000 0.000000 0.000000 0.038703
#
#
# Mechanical properties :
#
#
# Convention : Reuss Voigt Hill
#
# Bulk Modulus (GPa) = 69.33276 99.78689 84.55982
# Shear Modulus (GPa) = 8.37341 24.39031 16.38186
#
# Velocity S-wave (km/s) = 2.17879 3.71854 3.04751
# Velocity P-wave (km/s) = 6.75546 8.66076 7.76675
#
# Compressibility (1/GPa) = 0.01442320
#
# Stress axis : x y z
#
# Youngs Moduli (GPa) = 8.44294 8.44268 48.49038
#
# Poissons Ratio (x) = 0.80201 0.64363
# Poissons Ratio (y) = 0.80203 0.64375
# Poissons Ratio (z) = 0.11207 0.11208
#
# Static dielectric constant tensor:
#      x y z
#    x 1.587140 0.000000 0.000000 
#    y 0.000000 1.587140 0.000000 
#    z 0.000000 0.000000 1.573930 
# 
# From -- ./inp_files/5903.got.cif
#   From: 2010.05.17/outbox.cif.g08.bks.cpg/sg115_3_cif.got.tgz:5903.got - 2010.05.20 11:07:42.
