data_PCOD9557424
_publ_section_title
;
Structure prediction by ZEFSAII (Michael W. Deem and Ramdas Pophale) SiO2 
 PCOD9557424
Probable space group: P -4 M 2
;
_chemical_formula_sum "Si O2"
_cell_formula_units_Z 48
_cell_length_a 14.001506
_cell_length_b 14.001506
_cell_length_c 13.538041
_cell_angle_alpha 90.000000
_cell_angle_beta 90.000000
_cell_angle_gamma 90.000000
_cell_volume 2654.026939
_symmetry_space_group_name_H-M "P -4 M 2"
_symmetry_group_IT_number 115
_symmetry_cell_setting 'tetragonal'
loop_
_space_group_symop_operation_xyz
x,y,z
y,-x,-z
-x,-y,z
-y,x,-z
y,x,-z
-y,-x,-z
-x,y,z
x,-y,z
loop_
_atom_site_type_symbol
_atom_site_label
_atom_site_fract_x
_atom_site_fract_y
_atom_site_fract_z
Si Si1 0.186612 0.891081 0.896590
Si Si2 0.112111 0.256382 0.552633
Si Si3 0.704745 0.607673 0.904385
Si Si4 0.388069 0.110118 0.634834
Si Si5 0.893318 0.397146 0.025515
Si Si6 0.761257 0.247237 0.740822
O O1 0.168964 0.815541 0.810950
O O2 0.161506 0.000000 0.872359
O O3 0.139218 0.860783 0.000000
O O4 0.301330 0.884050 0.912106
O O5 0.166865 0.166865 0.500000
O O6 0.115019 0.343933 0.475242
O O7 0.173582 0.281228 0.649781
O O8 0.000000 0.235458 0.572277
O O9 0.672423 0.500000 0.883618
O O10 0.813761 0.605623 0.942420
O O11 0.709132 0.674017 0.808604
O O12 0.648791 0.648791 0.000000
O O13 0.500000 0.134254 0.637279
O O14 0.321117 0.178959 0.697898
O O15 0.377316 0.000000 0.669297
O O16 0.882087 0.500000 0.079291
O O17 0.000000 0.395006 0.983717
#
# Coordination Sequence:
#
# PCOD9557424 Si02
#       6
#     8   8   8   8   8   8
#     4  11  21  35  51  74 113 152 188 225 265 313
#     4   9  20  37  58  82 113 144 177 219 272 333
#     4  11  22  38  55  77 113 151 188 227 273 328
#     4   9  19  37  60  84 108 134 170 224 284 333
#     4   9  17  31  53  76 100 138 185 230 272 308
#     4  11  20  35  55  87 107 141 183 229 272 319
#
# _framework density 18.085725
#
# number of rings (size 3 to 8) (size 9 to 14) (size 15 to 20)
#    0.000    2.000    3.333    0.500    0.000    4.500 
#    0.000    1.667    0.000    0.000    0.000    0.000 
#    0.000    0.000    0.000    0.000    0.000    0.000 
#
# Total GULP energy -267536.459710 kJ/mol
# GULP energy per Si atom -5573.676244 kJ/mol
# Density = 1.804456 g / cm^3
# Si number density = 18.085725 Si / 1000 Ang^3
#
#
#
# Elastic Constant Matrix: (Units=GPa)
#
#
# Indices 1 2 3 4 5 6 
#
# 1 89.2978 19.5572 43.4551 0.0000 0.0000 0.0000
# 2 19.5572 89.2969 43.4544 0.0000 0.0000 0.0000
# 3 43.4551 43.4544 102.8299 0.0000 0.0000 0.0000
# 4 0.0000 0.0000 0.0000 11.9193 0.0000 0.0000
# 5 0.0000 0.0000 0.0000 0.0000 11.9193 0.0000
# 6 0.0000 0.0000 0.0000 0.0000 0.0000 17.8449
#
#
#
# Elastic Compliance Matrix: (Units=1/GPa)
#
#
# Indices 1 2 3 4 5 6 
#
# 1 0.014102 -0.000237 -0.005859 0.000000 0.000000 0.000000
# 2 -0.000237 0.014102 -0.005859 0.000000 0.000000 0.000000
# 3 -0.005859 -0.005859 0.014677 0.000000 0.000000 0.000000
# 4 0.000000 0.000000 0.000000 0.083898 0.000000 0.000000
# 5 0.000000 0.000000 0.000000 0.000000 0.083898 0.000000
# 6 0.000000 0.000000 0.000000 0.000000 0.000000 0.056038
#
#
# Mechanical properties :
#
#
# Convention : Reuss Voigt Hill
#
# Bulk Modulus (GPa) = 52.71586 54.92869 53.82227
# Shear Modulus (GPa) = 16.83801 20.00056 18.41928
#
# Velocity S-wave (km/s) = 3.05456 3.32908 3.19477
# Velocity P-wave (km/s) = 6.45380 6.72415 6.59036
#
# Compressibility (1/GPa) = 0.01896962
#
# Stress axis : x y z
#
# Youngs Moduli (GPa) = 70.91399 70.91364 68.13568
#
# Poissons Ratio (x) = 0.01683 0.39920
# Poissons Ratio (y) = 0.01683 0.39920
# Poissons Ratio (z) = 0.41548 0.41547
#
# Static dielectric constant tensor:
#      x y z
#    x 1.634910 0.000000 0.000000 
#    y 0.000000 1.634910 0.000000 
#    z 0.000000 0.000000 1.642820 
# 
# From -- ./inp_files/2934.got.cif
#   From: 2010.05.17/outbox.cif.g08.bks.cpg/sg115_2_cif.got.tgz:2934.got - 2010.05.20 11:07:42.
