data_PCOD9557337
_publ_section_title
;
Structure prediction by ZEFSAII (Michael W. Deem and Ramdas Pophale) SiO2 
 PCOD9557337
Probable space group: P -4 M 2
;
_chemical_formula_sum "Si O2"
_cell_formula_units_Z 48
_cell_length_a 9.084726
_cell_length_b 9.084726
_cell_length_c 31.494410
_cell_angle_alpha 90.000000
_cell_angle_beta 90.000000
_cell_angle_gamma 90.000000
_cell_volume 2599.304409
_symmetry_space_group_name_H-M "P -4 M 2"
_symmetry_group_IT_number 115
_symmetry_cell_setting 'tetragonal'
loop_
_space_group_symop_operation_xyz
x,y,z
y,-x,-z
-x,-y,z
-y,x,-z
y,x,-z
-y,-x,-z
-x,y,z
x,-y,z
loop_
_atom_site_type_symbol
_atom_site_label
_atom_site_fract_x
_atom_site_fract_y
_atom_site_fract_z
Si Si1 0.324590 0.174378 0.668603
Si Si2 0.825414 0.825414 0.500000
Si Si3 0.325984 0.176129 0.411697
Si Si4 0.324024 0.674005 0.919473
Si Si5 0.825298 0.174703 0.000000
Si Si6 0.674284 0.175567 0.250381
Si Si7 0.826008 0.676152 0.169777
O O1 0.500000 0.196007 0.670365
O O2 0.260059 0.242216 0.625523
O O3 0.249440 0.253085 0.708536
O O4 0.294660 0.000000 0.670173
O O5 0.737010 0.782901 0.457896
O O6 0.000000 0.802740 0.492461
O O7 0.500000 0.204511 0.409324
O O8 0.302879 0.000000 0.406563
O O9 0.500000 0.693093 0.925880
O O10 0.294019 0.500000 0.917147
O O11 0.239688 0.746635 0.958532
O O12 0.284937 0.751522 0.875073
O O13 0.000000 0.200518 0.002899
O O14 0.500000 0.206724 0.249639
O O15 0.749653 0.240168 0.208370
O O16 0.694426 0.000000 0.252293
O O17 0.807410 0.500000 0.175910
O O18 0.000000 0.707216 0.168588
#
# Coordination Sequence:
#
# PCOD9557337 Si02
#       7
#     8   4   8   8   4   8   8
#     4  11  24  40  59  84 113 147 189 235 283 336
#     4   9  18  34  56  81 112 152 192 229 274 329
#     4  10  21  37  58  85 116 149 187 232 281 334
#     4  10  21  38  61  87 114 148 190 234 283 338
#     4  11  24  39  56  82 116 153 192 235 284 336
#     4  11  24  40  59  85 116 150 189 232 280 335
#     4  10  21  38  61  88 117 150 189 232 280 335
#
# _framework density 18.466480000000001
#
# number of rings (size 3 to 8) (size 9 to 14) (size 15 to 20)
#    0.000    1.667    0.000    4.000    0.000   12.667 
#    0.000    1.667    0.000    0.000    0.000    0.000 
#    0.000    0.000    0.000    0.000    0.000    0.000 
#
# Total GULP energy -268383.902520 kJ/mol
# GULP energy per Si atom -5591.331302 kJ/mol
# Density = 1.842445 g / cm^3
# Si number density = 18.466480 Si / 1000 Ang^3
#
#
#
# Elastic Constant Matrix: (Units=GPa)
#
#
# Indices 1 2 3 4 5 6 
#
# 1 112.2694 101.6517 112.6965 0.0000 0.0000 0.0000
# 2 101.6517 112.2689 112.6963 0.0000 0.0000 0.0000
# 3 112.6965 112.6963 204.6980 0.0000 0.0000 0.0000
# 4 0.0000 0.0000 0.0000 42.8060 0.0000 0.0000
# 5 0.0000 0.0000 0.0000 0.0000 42.8058 0.0000
# 6 0.0000 0.0000 0.0000 0.0000 0.0000 30.7655
#
#
#
# Elastic Compliance Matrix: (Units=1/GPa)
#
#
# Indices 1 2 3 4 5 6 
#
# 1 0.052658 -0.041526 -0.006129 0.000000 0.000000 0.000000
# 2 -0.041526 0.052659 -0.006129 0.000000 0.000000 0.000000
# 3 -0.006129 -0.006129 0.011634 0.000000 0.000000 0.000000
# 4 0.000000 0.000000 0.000000 0.023361 0.000000 0.000000
# 5 0.000000 0.000000 0.000000 0.000000 0.023361 0.000000
# 6 0.000000 0.000000 0.000000 0.000000 0.000000 0.032504
#
#
# Mechanical properties :
#
#
# Convention : Reuss Voigt Hill
#
# Bulk Modulus (GPa) = 106.57900 120.36947 113.47424
# Shear Modulus (GPa) = 16.29343 30.08824 23.19083
#
# Velocity S-wave (km/s) = 2.97362 4.04089 3.54762
# Velocity P-wave (km/s) = 8.34446 9.33252 8.85229
#
# Compressibility (1/GPa) = 0.00938271
#
# Stress axis : x y z
#
# Youngs Moduli (GPa) = 18.99038 18.99026 85.95793
#
# Poissons Ratio (x) = 0.78860 0.52681
# Poissons Ratio (y) = 0.78860 0.52682
# Poissons Ratio (z) = 0.11639 0.11639
#
# Static dielectric constant tensor:
#      x y z
#    x 1.616270 0.000000 0.000000 
#    y 0.000000 1.616270 0.000000 
#    z 0.000000 0.000000 1.591810 
# 
# From -- ./inp_files/6226.got.cif
#   From: 2010.05.17/outbox.cif.g08.bks.cpg/sg115_4_cif.got.tgz:6226.got - 2010.05.20 11:07:42.
