data_PCOD9557510
_publ_section_title
;
Structure prediction by ZEFSAII (Michael W. Deem and Ramdas Pophale) SiO2 
 PCOD9557510
Probable space group: P -4 C 2
;
_chemical_formula_sum "Si O2"
_cell_formula_units_Z 56
_cell_length_a 25.127717
_cell_length_b 25.127717
_cell_length_c 5.245743
_cell_angle_alpha 90.000000
_cell_angle_beta 90.000000
_cell_angle_gamma 90.000000
_cell_volume 3312.173470
_symmetry_space_group_name_H-M "P -4 C 2"
_symmetry_group_IT_number 116
_symmetry_cell_setting 'tetragonal'
loop_
_space_group_symop_operation_xyz
x,y,z
y,-x,-z
-x,-y,z
-y,x,-z
y,x,1/2-z
-y,-x,1/2-z
-x,y,1/2+z
x,-y,1/2+z
loop_
_atom_site_type_symbol
_atom_site_label
_atom_site_fract_x
_atom_site_fract_y
_atom_site_fract_z
Si Si1 0.143421 0.466105 0.670360
Si Si2 0.963701 0.125990 0.760545
Si Si3 0.723076 0.276924 0.250000
Si Si4 0.774840 0.774840 0.250000
Si Si5 0.749329 0.032888 0.696498
Si Si6 0.808064 0.357362 0.241467
Si Si7 0.304503 0.860110 0.759753
Si Si8 0.439024 0.022421 0.724687
O O1 0.147815 0.488620 0.385772
O O2 0.185381 0.420213 0.727613
O O3 0.084029 0.442264 0.706346
O O4 0.913037 0.086964 0.750000
O O5 0.949055 0.188894 0.767873
O O6 0.000741 0.116348 0.513004
O O7 0.748661 0.250931 0.500431
O O8 0.746995 0.336342 0.248757
O O9 0.834667 0.754990 0.243402
O O10 0.706004 0.077859 0.752622
O O11 0.742957 0.013083 0.407398
O O12 0.838392 0.334730 0.490833
O O13 0.837441 0.334037 0.990331
O O14 0.500000 0.000000 0.694679
O O15 0.413610 0.010726 0.453006
#
# Coordination Sequence:
#
# PCOD9557510 Si02
#       8
#     8   8   4   4   8   8   8   8
#     4  12  21  33  52  73 102 132 172 210 246 290
#     4  10  21  35  51  74  94 122 153 185 239 304
#     4   8  16  34  50  72 104 118 154 199 259 286
#     4   8  16  28  54  74  84 116 149 206 232 285
#     4  10  21  36  52  66  99 124 145 198 245 301
#     4  10  21  35  54  79  99 128 164 212 243 296
#     4  10  19  36  53  72  95 120 164 194 248 292
#     4  10  16  30  46  60  86 127 161 205 243 271
#
# _framework density 16.907328
#
# number of rings (size 3 to 8) (size 9 to 14) (size 15 to 20)
#    0.000    2.000    2.857    2.143    1.000    0.857 
#    0.000    4.286    0.000    0.000    0.000    0.000 
#    0.000    0.000    0.000    0.000    0.000    2.143 
#
# Total GULP energy -312181.232599 kJ/mol
# GULP energy per Si atom -5574.664868 kJ/mol
# Density = 1.686885 g / cm^3
# Si number density = 16.907328 Si / 1000 Ang^3
#
#
#
# Elastic Constant Matrix: (Units=GPa)
#
#
# Indices 1 2 3 4 5 6 
#
# 1 24.4022 16.1176 -6.7273 0.0000 0.0000 0.0000
# 2 16.1176 24.4020 -6.7280 0.0000 0.0000 0.0000
# 3 -6.7273 -6.7280 102.3896 0.0000 0.0000 0.0000
# 4 0.0000 0.0000 0.0000 8.2475 0.0000 0.0000
# 5 0.0000 0.0000 0.0000 0.0000 8.2475 0.0000
# 6 0.0000 0.0000 0.0000 0.0000 0.0000 18.9615
#
#
#
# Elastic Compliance Matrix: (Units=1/GPa)
#
#
# Indices 1 2 3 4 5 6 
#
# 1 0.072968 -0.047739 0.001657 0.000000 0.000000 0.000000
# 2 -0.047739 0.072969 0.001658 0.000000 0.000000 0.000000
# 3 0.001657 0.001658 0.009984 0.000000 0.000000 0.000000
# 4 0.000000 0.000000 0.000000 0.121248 0.000000 0.000000
# 5 0.000000 0.000000 0.000000 0.000000 0.121249 0.000000
# 6 0.000000 0.000000 0.000000 0.000000 0.000000 0.052739
#
#
# Mechanical properties :
#
#
# Convention : Reuss Voigt Hill
#
# Bulk Modulus (GPa) = 14.90863 17.39092 16.14977
# Shear Modulus (GPa) = 8.89105 16.99339 12.94222
#
# Velocity S-wave (km/s) = 2.29567 3.17375 2.76973
# Velocity P-wave (km/s) = 3.98294 4.87223 4.44986
#
# Compressibility (1/GPa) = 0.06707526
#
# Stress axis : x y z
#
# Youngs Moduli (GPa) = 13.70458 13.70443 100.15552
#
# Poissons Ratio (x) = 0.65423 -0.16599
# Poissons Ratio (y) = 0.65424 -0.16608
# Poissons Ratio (z) = -0.02271 -0.02272
#
# Static dielectric constant tensor:
#      x y z
#    x 1.676980 0.000000 0.000000 
#    y 0.000000 1.676990 0.000000 
#    z 0.000000 0.000000 1.601170 
# 
# From -- ./inp_files/255.got.cif
#   From: 2010.05.17/outbox.cif.g08.bks.cpg/sg116_1_cif.got.tgz:255.got - 2010.05.20 11:11:43.
