data_PCOD9557019
_publ_section_title
;
Structure prediction by ZEFSAII (Michael W. Deem and Ramdas Pophale) SiO2 
 PCOD9557019
Probable space group: P -4 M 2
;
_chemical_formula_sum "Si O2"
_cell_formula_units_Z 48
_cell_length_a 9.154682
_cell_length_b 9.154682
_cell_length_c 31.848076
_cell_angle_alpha 90.000000
_cell_angle_beta 90.000000
_cell_angle_gamma 90.000000
_cell_volume 2669.130003
_symmetry_space_group_name_H-M "P -4 M 2"
_symmetry_group_IT_number 115
_symmetry_cell_setting 'tetragonal'
loop_
_space_group_symop_operation_xyz
x,y,z
y,-x,-z
-x,-y,z
-y,x,-z
y,x,-z
-y,-x,-z
-x,y,z
x,-y,z
loop_
_atom_site_type_symbol
_atom_site_label
_atom_site_fract_x
_atom_site_fract_y
_atom_site_fract_z
Si Si1 0.824421 0.672262 0.118077
Si Si2 0.827122 0.674551 0.539194
Si Si3 0.168415 0.177574 0.797132
Si Si4 0.826288 0.674018 0.960386
Si Si5 0.826601 0.824961 0.296606
Si Si6 0.324322 0.329884 0.374473
O O1 0.795770 0.500000 0.114475
O O2 0.779060 0.732271 0.163801
O O3 0.742963 0.759548 0.081694
O O4 0.000000 0.694042 0.113908
O O5 0.756234 0.756234 0.500000
O O6 0.803375 0.500000 0.534336
O O7 0.752498 0.720651 0.582907
O O8 0.000000 0.700793 0.541152
O O9 0.216730 0.224172 0.750521
O O10 0.000000 0.223460 0.803874
O O11 0.167746 0.000000 0.795969
O O12 0.801791 0.500000 0.961347
O O13 0.000000 0.700219 0.962104
O O14 0.748898 0.748898 0.000000
O O15 0.744767 0.743516 0.333656
O O16 0.000000 0.795706 0.299675
O O17 0.806887 0.000000 0.300214
O O18 0.500000 0.319379 0.371657
O O19 0.284199 0.500000 0.377090
#
# Coordination Sequence:
#
# PCOD9557019 Si02
#       6
#     8   8   8   8   8   8
#     4  10  20  34  55  83 111 140 177 219 264 315
#     4  10  21  37  57  79 103 134 172 213 260 313
#     4   8  15  30  52  77 106 141 180 221 264 310
#     4  11  24  40  58  81 108 139 177 218 262 315
#     4   9  18  33  54  80 108 139 178 223 268 313
#     4  10  21  36  54  77 106 141 179 217 260 313
#
# _framework density 17.98339
#
# number of rings (size 3 to 8) (size 9 to 14) (size 15 to 20)
#    0.000    2.333    0.000    3.500    0.000    8.000 
#    0.000    2.500    0.000    1.000    0.000    0.000 
#    0.000    0.000    0.000    0.000    0.000    0.000 
#
# Total GULP energy -267934.639174 kJ/mol
# GULP energy per Si atom -5581.971649 kJ/mol
# Density = 1.794246 g / cm^3
# Si number density = 17.983390 Si / 1000 Ang^3
#
#
#
# Elastic Constant Matrix: (Units=GPa)
#
#
# Indices 1 2 3 4 5 6 
#
# 1 70.2023 67.9458 87.5177 0.0000 0.0000 0.0000
# 2 67.9458 70.2023 87.5177 0.0000 0.0000 0.0000
# 3 87.5177 87.5177 206.4864 0.0000 0.0000 0.0000
# 4 0.0000 0.0000 0.0000 107.4197 0.0000 0.0000
# 5 0.0000 0.0000 0.0000 0.0000 107.4197 0.0000
# 6 0.0000 0.0000 0.0000 0.0000 0.0000 26.7573
#
#
#
# Elastic Compliance Matrix: (Units=1/GPa)
#
#
# Indices 1 2 3 4 5 6 
#
# 1 0.229398 -0.213763 -0.006627 0.000000 0.000000 0.000000
# 2 -0.213763 0.229398 -0.006627 0.000000 0.000000 0.000000
# 3 -0.006627 -0.006627 0.010460 0.000000 0.000000 0.000000
# 4 0.000000 0.000000 0.000000 0.009309 0.000000 0.000000
# 5 0.000000 0.000000 0.000000 0.000000 0.009309 0.000000
# 6 0.000000 0.000000 0.000000 0.000000 0.000000 0.037373
#
#
# Mechanical properties :
#
#
# Convention : Reuss Voigt Hill
#
# Bulk Modulus (GPa) = 65.69018 92.53926 79.11472
# Shear Modulus (GPa) = 5.07948 55.24668 30.16308
#
# Velocity S-wave (km/s) = 1.68246 5.54866 4.09990
# Velocity P-wave (km/s) = 6.35467 9.62393 8.15481
#
# Compressibility (1/GPa) = 0.01522298
#
# Stress axis : x y z
#
# Youngs Moduli (GPa) = 4.35924 4.35924 95.60045
#
# Poissons Ratio (x) = 0.93185 0.63351
# Poissons Ratio (y) = 0.93185 0.63351
# Poissons Ratio (z) = 0.02889 0.02889
#
# Static dielectric constant tensor:
#      x y z
#    x 1.599270 0.000000 0.000000 
#    y 0.000000 1.599270 0.000000 
#    z 0.000000 0.000000 1.596410 
# 
# From -- ./inp_files/5960.got.cif
#   From: 2010.05.17/outbox.cif.g08.bks.cpg/sg115_3_cif.got.tgz:5960.got - 2010.05.20 11:07:42.
