data_PCOD9557855
_publ_section_title
;
Structure prediction by ZEFSAII (Michael W. Deem and Ramdas Pophale) SiO2 
 PCOD9557855
Probable space group: P -4 C 2
;
_chemical_formula_sum "Si O2"
_cell_formula_units_Z 28
_cell_length_a 11.628862
_cell_length_b 11.628862
_cell_length_c 10.266888
_cell_angle_alpha 90.000000
_cell_angle_beta 90.000000
_cell_angle_gamma 90.000000
_cell_volume 1388.395694
_symmetry_space_group_name_H-M "P -4 C 2"
_symmetry_group_IT_number 116
_symmetry_cell_setting 'tetragonal'
loop_
_space_group_symop_operation_xyz
x,y,z
y,-x,-z
-x,-y,z
-y,x,-z
y,x,1/2-z
-y,-x,1/2-z
-x,y,1/2+z
x,-y,1/2+z
loop_
_atom_site_type_symbol
_atom_site_label
_atom_site_fract_x
_atom_site_fract_y
_atom_site_fract_z
Si Si1 0.698667 0.662059 0.599137
Si Si2 0.752030 0.080281 0.080494
Si Si3 0.000000 0.000000 0.500000
Si Si4 0.620237 0.057638 0.355694
Si Si5 0.500000 0.500000 0.000000
O O1 0.686989 0.686989 0.750000
O O2 0.727058 0.787061 0.539788
O O3 0.585151 0.592794 0.564472
O O4 0.815868 0.590966 0.587985
O O5 0.698392 0.062282 0.224858
O O6 0.687304 0.006033 0.971228
O O7 0.887165 0.046495 0.077343
O O8 0.500000 0.000000 0.321345
#
# Coordination Sequence:
#
# PCOD9557855 Si02
#       5
#     8   8   2   8   2
#     4  10  23  43  61  95 129 169 222 279 335 389
#     4  11  24  43  70  98 135 181 221 280 343 406
#     4  12  24  46  72 102 148 174 228 286 348 418
#     4  11  23  43  67  97 137 174 225 278 334 405
#     4  12  22  40  72  86 128 180 226 276 332 406
#
# _framework density 20.167159999999999
#
# number of rings (size 3 to 8) (size 9 to 14) (size 15 to 20)
#    0.000    1.143    2.857    3.000    0.000    4.571 
#    0.000    2.857    0.000    0.000    0.000    0.000 
#    0.000    0.000    0.000    0.000    0.000    0.000 
#
# Total GULP energy -156051.173615 kJ/mol
# GULP energy per Si atom -5573.256201 kJ/mol
# Density = 2.012126 g / cm^3
# Si number density = 20.167160 Si / 1000 Ang^3
#
#
#
# Elastic Constant Matrix: (Units=GPa)
#
#
# Indices 1 2 3 4 5 6 
#
# 1 120.8396 50.6097 29.4957 0.0000 0.0000 0.0000
# 2 50.6097 120.8396 29.4957 0.0000 0.0000 0.0000
# 3 29.4957 29.4957 73.0827 0.0000 0.0000 0.0000
# 4 0.0000 0.0000 0.0000 29.3479 0.0000 0.0000
# 5 0.0000 0.0000 0.0000 0.0000 29.3479 0.0000
# 6 0.0000 0.0000 0.0000 0.0000 0.0000 42.0548
#
#
#
# Elastic Compliance Matrix: (Units=1/GPa)
#
#
# Indices 1 2 3 4 5 6 
#
# 1 0.010506 -0.003733 -0.002734 0.000000 0.000000 0.000000
# 2 -0.003733 0.010506 -0.002734 0.000000 0.000000 0.000000
# 3 -0.002734 -0.002734 0.015890 0.000000 0.000000 0.000000
# 4 0.000000 0.000000 0.000000 0.034074 0.000000 0.000000
# 5 0.000000 0.000000 0.000000 0.000000 0.034074 0.000000
# 6 0.000000 0.000000 0.000000 0.000000 0.000000 0.023778
#
#
# Mechanical properties :
#
#
# Convention : Reuss Voigt Hill
#
# Bulk Modulus (GPa) = 54.04938 59.32933 56.68935
# Shear Modulus (GPa) = 32.59542 33.82750 33.21146
#
# Velocity S-wave (km/s) = 4.02464 4.10000 4.06249
# Velocity P-wave (km/s) = 6.96102 7.20388 7.08349
#
# Compressibility (1/GPa) = 0.01850160
#
# Stress axis : x y z
#
# Youngs Moduli (GPa) = 95.18301 95.18301 62.93394
#
# Poissons Ratio (x) = 0.35531 0.17204
# Poissons Ratio (y) = 0.35531 0.17204
# Poissons Ratio (z) = 0.26019 0.26019
#
# Static dielectric constant tensor:
#      x y z
#    x 1.274630 0.000000 0.000000 
#    y 0.000000 1.274630 0.000000 
#    z 0.000000 0.000000 1.681590 
# 
# From -- ./inp_files/1500.got.cif
#   From: 2010.05.17/outbox.cif.g08.bks.cpg/sg116_1_cif.got.tgz:1500.got - 2010.05.20 11:11:43.
