data_PCOD9557008
_publ_section_title
;
Structure prediction by ZEFSAII (Michael W. Deem and Ramdas Pophale) SiO2 
 PCOD9557008
Probable space group: P -4 M 2
;
_chemical_formula_sum "Si O2"
_cell_formula_units_Z 44
_cell_length_a 9.289673
_cell_length_b 9.289673
_cell_length_c 29.319876
_cell_angle_alpha 90.000000
_cell_angle_beta 90.000000
_cell_angle_gamma 90.000000
_cell_volume 2530.247376
_symmetry_space_group_name_H-M "P -4 M 2"
_symmetry_group_IT_number 115
_symmetry_cell_setting 'tetragonal'
loop_
_space_group_symop_operation_xyz
x,y,z
y,-x,-z
-x,-y,z
-y,x,-z
y,x,-z
-y,-x,-z
-x,y,z
x,-y,z
loop_
_atom_site_type_symbol
_atom_site_label
_atom_site_fract_x
_atom_site_fract_y
_atom_site_fract_z
Si Si1 0.171587 0.171587 0.500000
Si Si2 0.330757 0.173004 0.142728
Si Si3 0.325047 0.834268 0.674514
Si Si4 0.329715 0.327011 0.416813
Si Si5 0.327041 0.830820 0.040725
Si Si6 0.331736 0.173332 0.775946
O O1 0.244600 0.243771 0.455977
O O2 0.000000 0.196628 0.499602
O O3 0.500000 0.208395 0.147309
O O4 0.282667 0.217780 0.091714
O O5 0.243311 0.244567 0.183234
O O6 0.318148 0.000000 0.144669
O O7 0.500000 0.836480 0.676206
O O8 0.284346 0.733498 0.632549
O O9 0.278588 0.785832 0.725042
O O10 0.278778 0.000000 0.666719
O O11 0.500000 0.299088 0.419685
O O12 0.308536 0.500000 0.422252
O O13 0.500000 0.818214 0.038685
O O14 0.291547 0.000000 0.036378
O O15 0.255588 0.744413 0.000000
O O16 0.500000 0.213830 0.779913
O O17 0.323687 0.000000 0.778037
#
# Coordination Sequence:
#
# PCOD9557008 Si02
#       6
#     4   8   8   8   8   8
#     4  11  24  39  54  74 102 137 174 209 248 296
#     4   9  19  35  51  69  98 134 168 203 247 298
#     4   8  15  30  51  74 103 137 168 202 247 294
#     4  10  20  34  55  82 106 130 166 209 251 298
#     4   9  19  35  52  71  97 128 163 205 251 299
#     4   9  18  32  51  77 105 132 167 208 247 292
#
# _framework density 17.389602
#
# number of rings (size 3 to 8) (size 9 to 14) (size 15 to 20)
#    0.000    2.818    0.000    3.273    0.000    6.182 
#    0.000    8.182    0.000    1.091    0.000    0.000 
#    0.000    0.000    0.000    0.000    0.000    0.000 
#
# Total GULP energy -245303.012267 kJ/mol
# GULP energy per Si atom -5575.068461 kJ/mol
# Density = 1.735002 g / cm^3
# Si number density = 17.389602 Si / 1000 Ang^3
#
#
#
# Elastic Constant Matrix: (Units=GPa)
#
#
# Indices 1 2 3 4 5 6 
#
# 1 44.2758 38.3342 66.2097 0.0000 0.0000 0.0000
# 2 38.3342 44.2783 66.2115 0.0000 0.0000 0.0000
# 3 66.2097 66.2115 191.4595 0.0000 0.0000 0.0000
# 4 0.0000 0.0000 0.0000 43.9305 0.0000 0.0000
# 5 0.0000 0.0000 0.0000 0.0000 43.9309 0.0000
# 6 0.0000 0.0000 0.0000 0.0000 0.0000 28.3800
#
#
#
# Elastic Compliance Matrix: (Units=1/GPa)
#
#
# Indices 1 2 3 4 5 6 
#
# 1 0.097719 -0.070555 -0.009393 0.000000 0.000000 0.000000
# 2 -0.070555 0.097713 -0.009393 0.000000 0.000000 0.000000
# 3 -0.009393 -0.009393 0.011720 0.000000 0.000000 0.000000
# 4 0.000000 0.000000 0.000000 0.022763 0.000000 0.000000
# 5 0.000000 0.000000 0.000000 0.000000 0.022763 0.000000
# 6 0.000000 0.000000 0.000000 0.000000 0.000000 0.035236
#
#
# Mechanical properties :
#
#
# Convention : Reuss Voigt Hill
#
# Bulk Modulus (GPa) = 35.12432 69.05826 52.09129
# Shear Modulus (GPa) = 10.50232 30.53217 20.51725
#
# Velocity S-wave (km/s) = 2.46019 4.19474 3.43863
# Velocity P-wave (km/s) = 5.32094 7.95360 6.76654
#
# Compressibility (1/GPa) = 0.02847030
#
# Stress axis : x y z
#
# Youngs Moduli (GPa) = 10.23344 10.23403 85.32772
#
# Poissons Ratio (x) = 0.72206 0.80149
# Poissons Ratio (y) = 0.72202 0.80146
# Poissons Ratio (z) = 0.09612 0.09613
#
# Static dielectric constant tensor:
#      x y z
#    x 1.574220 0.000000 0.000000 
#    y 0.000000 1.574220 0.000000 
#    z 0.000000 0.000000 1.590990 
# 
# From -- ./inp_files/5765.got.cif
#   From: 2010.05.17/outbox.cif.g08.bks.cpg/sg115_3_cif.got.tgz:5765.got - 2010.05.20 11:07:42.
