data_PCOD9557552
_publ_section_title
;
Structure prediction by ZEFSAII (Michael W. Deem and Ramdas Pophale) SiO2 
 PCOD9557552
Probable space group: P -4 C 2
;
_chemical_formula_sum "Si O2"
_cell_formula_units_Z 64
_cell_length_a 18.431701
_cell_length_b 18.431701
_cell_length_c 11.447919
_cell_angle_alpha 90.000000
_cell_angle_beta 90.000000
_cell_angle_gamma 90.000000
_cell_volume 3889.174067
_symmetry_space_group_name_H-M "P -4 C 2"
_symmetry_group_IT_number 116
_symmetry_cell_setting 'tetragonal'
loop_
_space_group_symop_operation_xyz
x,y,z
y,-x,-z
-x,-y,z
-y,x,-z
y,x,1/2-z
-y,-x,1/2-z
-x,y,1/2+z
x,-y,1/2+z
loop_
_atom_site_type_symbol
_atom_site_label
_atom_site_fract_x
_atom_site_fract_y
_atom_site_fract_z
Si Si1 0.287471 0.168211 0.721812
Si Si2 0.403483 0.285125 0.771590
Si Si3 0.442111 0.172993 0.390588
Si Si4 0.573267 0.693811 0.244837
Si Si5 0.075835 0.342065 0.565732
Si Si6 0.789167 0.417106 0.979209
Si Si7 0.541610 0.928002 0.742153
Si Si8 0.339820 0.078178 0.535727
O O1 0.224606 0.224606 0.750000
O O2 0.361696 0.217124 0.711389
O O3 0.294617 0.113284 0.831841
O O4 0.278377 0.124805 0.601230
O O5 0.353432 0.353432 0.750000
O O6 0.485278 0.307917 0.739852
O O7 0.402074 0.258709 0.905511
O O8 0.413102 0.251852 0.353555
O O9 0.500624 0.183654 0.495057
O O10 0.487812 0.137492 0.281552
O O11 0.378074 0.120349 0.429678
O O12 0.619451 0.619451 0.250000
O O13 0.594725 0.738973 0.130731
O O14 0.140427 0.365748 0.479377
O O15 0.056737 0.414985 0.637912
O O16 0.002482 0.317711 0.503173
O O17 0.599285 0.922151 0.638143
O O18 0.500000 0.000000 0.710654
#
# Coordination Sequence:
#
# PCOD9557552 Si02
#       8
#     8   8   8   8   8   8   8   8
#     4   9  19  36  54  74 103 141 176 208 257 316
#     4   9  19  37  55  67  88 127 183 227 262 317
#     4  10  20  33  46  70  99 133 168 201 267 333
#     4  11  23  34  47  71  96 127 175 228 272 308
#     4   9  19  31  47  78  99 129 169 202 243 311
#     4   9  19  33  49  68  97 128 156 210 270 314
#     4  10  19  28  45  75 106 128 161 207 256 312
#     4  11  20  29  51  73 101 138 165 208 247 306
#
# _framework density 16.455935
#
# number of rings (size 3 to 8) (size 9 to 14) (size 15 to 20)
#    0.000    2.250    1.250    3.750    5.250    5.250 
#    0.000    0.000    0.000    3.000    0.000    0.000 
#    0.000    1.500    0.000    0.000    0.000    0.000 
#
# Total GULP energy -356319.281050 kJ/mol
# GULP energy per Si atom -5567.488766 kJ/mol
# Density = 1.641848 g / cm^3
# Si number density = 16.455935 Si / 1000 Ang^3
#
#
#
# Elastic Constant Matrix: (Units=GPa)
#
#
# Indices 1 2 3 4 5 6 
#
# 1 79.4211 45.1885 17.4277 0.0000 0.0000 0.0000
# 2 45.1885 79.4211 17.4277 0.0000 0.0000 0.0000
# 3 17.4277 17.4277 23.2466 0.0000 0.0000 0.0000
# 4 0.0000 0.0000 0.0000 14.9758 0.0000 0.0000
# 5 0.0000 0.0000 0.0000 0.0000 14.9758 0.0000
# 6 0.0000 0.0000 0.0000 0.0000 0.0000 19.6967
#
#
#
# Elastic Compliance Matrix: (Units=1/GPa)
#
#
# Indices 1 2 3 4 5 6 
#
# 1 0.019683 -0.009529 -0.007613 0.000000 0.000000 0.000000
# 2 -0.009529 0.019683 -0.007613 0.000000 0.000000 0.000000
# 3 -0.007613 -0.007613 0.054431 0.000000 0.000000 0.000000
# 4 0.000000 0.000000 0.000000 0.066774 0.000000 0.000000
# 5 0.000000 0.000000 0.000000 0.000000 0.066774 0.000000
# 6 0.000000 0.000000 0.000000 0.000000 0.000000 0.050770
#
#
# Mechanical properties :
#
#
# Convention : Reuss Voigt Hill
#
# Bulk Modulus (GPa) = 22.57873 38.01963 30.29918
# Shear Modulus (GPa) = 14.60332 16.73265 15.66799
#
# Velocity S-wave (km/s) = 2.98219 3.19221 3.08899
# Velocity P-wave (km/s) = 5.06048 6.06144 5.58343
#
# Compressibility (1/GPa) = 0.04428948
#
# Stress axis : x y z
#
# Youngs Moduli (GPa) = 50.80476 50.80476 18.37177
#
# Poissons Ratio (x) = 0.48410 0.13986
# Poissons Ratio (y) = 0.48410 0.13986
# Poissons Ratio (z) = 0.38676 0.38676
#
# Static dielectric constant tensor:
#      x y z
#    x 1.579180 0.000000 0.000000 
#    y 0.000000 1.579180 0.000000 
#    z 0.000000 0.000000 1.596540 
# 
# From -- ./inp_files/2086.got.cif
#   From: 2010.05.17/outbox.cif.g08.bks.cpg/sg116_2_cif.got.tgz:2086.got - 2010.05.20 11:11:43.
