data_PCOD9557765
_publ_section_title
;
Structure prediction by ZEFSAII (Michael W. Deem and Ramdas Pophale) SiO2 
 PCOD9557765
Probable space group: P -4 C 2
;
_chemical_formula_sum "Si O2"
_cell_formula_units_Z 56
_cell_length_a 14.644277
_cell_length_b 14.644277
_cell_length_c 12.044433
_cell_angle_alpha 90.000000
_cell_angle_beta 90.000000
_cell_angle_gamma 90.000000
_cell_volume 2582.987059
_symmetry_space_group_name_H-M "P -4 C 2"
_symmetry_group_IT_number 116
_symmetry_cell_setting 'tetragonal'
loop_
_space_group_symop_operation_xyz
x,y,z
y,-x,-z
-x,-y,z
-y,x,-z
y,x,1/2-z
-y,-x,1/2-z
-x,y,1/2+z
x,-y,1/2+z
loop_
_atom_site_type_symbol
_atom_site_label
_atom_site_fract_x
_atom_site_fract_y
_atom_site_fract_z
Si Si1 0.557436 0.367220 0.966682
Si Si2 0.569866 0.071811 0.899540
Si Si3 0.833147 0.416260 0.962414
Si Si4 0.834518 0.864124 0.626932
Si Si5 0.694269 0.296715 0.375370
Si Si6 0.968796 0.737317 0.487789
Si Si7 0.398744 0.746232 0.763956
O O1 0.550469 0.327772 0.842829
O O2 0.462498 0.389854 0.023511
O O3 0.620089 0.300889 0.039109
O O4 0.662696 0.021675 0.935890
O O5 0.596593 0.158967 0.828369
O O6 0.500000 0.000000 0.841318
O O7 0.504391 0.109880 0.998859
O O8 0.769862 0.435517 0.857293
O O9 0.776399 0.376260 0.068743
O O10 0.898204 0.331415 0.927046
O O11 0.873698 0.873698 0.750000
O O12 0.751467 0.791897 0.630766
O O13 0.792301 0.957611 0.582992
O O14 0.909881 0.812977 0.552591
O O15 0.672160 0.327841 0.250000
O O16 0.298635 0.701366 0.750000
#
# Coordination Sequence:
#
# PCOD9557765 Si02
#       7
#     8   8   8   8   8   8   8
#     4  11  25  44  64  98 142 194 248 297 357 430
#     4  10  24  46  72 106 143 192 246 307 366 447
#     4  10  23  46  69 108 138 187 247 302 370 425
#     4  10  23  44  69 100 133 180 226 284 369 442
#     4  10  21  44  68  91 135 187 232 292 356 427
#     4  10  23  44  71 101 146 176 233 298 367 450
#     4  12  25  43  74 103 148 194 245 313 376 435
#
# _framework density 21.680326999999998
#
# number of rings (size 3 to 8) (size 9 to 14) (size 15 to 20)
#    0.000    1.571    1.429    1.714    4.000    4.286 
#   12.857    2.857    0.000    0.000    0.000    0.000 
#    0.000    0.000    0.000    0.000    0.000    0.000 
#
# Total GULP energy -312747.224291 kJ/mol
# GULP energy per Si atom -5584.771862 kJ/mol
# Density = 2.163098 g / cm^3
# Si number density = 21.680327 Si / 1000 Ang^3
#
#
#
# Elastic Constant Matrix: (Units=GPa)
#
#
# Indices 1 2 3 4 5 6 
#
# 1 125.4338 49.2854 45.2040 0.0000 0.0000 0.0000
# 2 49.2854 125.4341 45.2047 0.0000 0.0000 0.0000
# 3 45.2040 45.2047 90.2993 0.0000 0.0000 0.0000
# 4 0.0000 0.0000 0.0000 15.9981 0.0000 0.0000
# 5 0.0000 0.0000 0.0000 0.0000 15.9987 0.0000
# 6 0.0000 0.0000 0.0000 0.0000 0.0000 44.9194
#
#
#
# Elastic Compliance Matrix: (Units=1/GPa)
#
#
# Indices 1 2 3 4 5 6 
#
# 1 0.010428 -0.002704 -0.003867 0.000000 0.000000 0.000000
# 2 -0.002704 0.010428 -0.003867 0.000000 0.000000 0.000000
# 3 -0.003867 -0.003867 0.014946 0.000000 0.000000 0.000000
# 4 0.000000 0.000000 0.000000 0.062507 0.000000 0.000000
# 5 0.000000 0.000000 0.000000 0.000000 0.062505 0.000000
# 6 0.000000 0.000000 0.000000 0.000000 0.000000 0.022262
#
#
# Mechanical properties :
#
#
# Convention : Reuss Voigt Hill
#
# Bulk Modulus (GPa) = 66.99216 68.95061 67.97138
# Shear Modulus (GPa) = 23.93172 28.81480 26.37326
#
# Velocity S-wave (km/s) = 3.32602 3.64960 3.49156
# Velocity P-wave (km/s) = 6.76143 7.04499 6.90466
#
# Compressibility (1/GPa) = 0.01492712
#
# Stress axis : x y z
#
# Youngs Moduli (GPa) = 95.89313 95.89262 66.90825
#
# Poissons Ratio (x) = 0.25929 0.25872
# Poissons Ratio (y) = 0.25929 0.25873
# Poissons Ratio (z) = 0.37080 0.37081
#
# Static dielectric constant tensor:
#      x y z
#    x 1.828090 0.000000 0.000000 
#    y 0.000000 1.828090 0.000000 
#    z 0.000000 0.000000 1.805090 
# 
# From -- ./inp_files/2012.got.cif
#   From: 2010.05.17/outbox.cif.g08.bks.cpg/sg116_2_cif.got.tgz:2012.got - 2010.05.20 11:11:43.
