data_PCOD9557207
_publ_section_title
;
Structure prediction by ZEFSAII (Michael W. Deem and Ramdas Pophale) SiO2 
 PCOD9557207
Probable space group: P -4 M 2
;
_chemical_formula_sum "Si O2"
_cell_formula_units_Z 40
_cell_length_a 9.205627
_cell_length_b 9.205627
_cell_length_c 26.676415
_cell_angle_alpha 90.000000
_cell_angle_beta 90.000000
_cell_angle_gamma 90.000000
_cell_volume 2260.654601
_symmetry_space_group_name_H-M "P -4 M 2"
_symmetry_group_IT_number 115
_symmetry_cell_setting 'tetragonal'
loop_
_space_group_symop_operation_xyz
x,y,z
y,-x,-z
-x,-y,z
-y,x,-z
y,x,-z
-y,-x,-z
-x,y,z
x,-y,z
loop_
_atom_site_type_symbol
_atom_site_label
_atom_site_fract_x
_atom_site_fract_y
_atom_site_fract_z
Si Si1 0.677062 0.331795 0.445171
Si Si2 0.175009 0.829881 0.757646
Si Si3 0.325627 0.670457 0.850044
Si Si4 0.670337 0.174124 0.344210
Si Si5 0.172019 0.326677 0.046181
O O1 0.724383 0.275618 0.500000
O O2 0.500000 0.328509 0.446873
O O3 0.720418 0.500000 0.439806
O O4 0.722151 0.243675 0.396271
O O5 0.248147 0.745212 0.803249
O O6 0.219859 0.760636 0.704449
O O7 0.000000 0.815779 0.761291
O O8 0.211669 0.000000 0.759637
O O9 0.500000 0.683799 0.844306
O O10 0.289488 0.500000 0.852676
O O11 0.285486 0.749827 0.901868
O O12 0.500000 0.212707 0.337032
O O13 0.678917 0.000000 0.348320
O O14 0.194368 0.500000 0.038779
O O15 0.000000 0.300231 0.049793
O O16 0.241355 0.241355 0.000000
#
# Coordination Sequence:
#
# PCOD9557207 Si02
#       5
#     8   8   8   8   8
#     4   8  14  26  45  68  93 122 158 201 248 298
#     4  10  21  36  53  74 103 138 173 211 257 308
#     4  10  21  37  58  82 106 135 173 216 260 305
#     4   9  17  30  48  69  94 126 164 205 249 300
#     4  10  21  37  57  81 109 141 175 211 253 301
#
# _framework density 17.693991
#
# number of rings (size 3 to 8) (size 9 to 14) (size 15 to 20)
#    0.000    2.600    0.000    2.400    0.000    5.200 
#    0.000    3.000    0.000    1.200    0.000    0.000 
#    0.000    0.000    0.000    0.000    0.000    0.000 
#
# Total GULP energy -223130.803144 kJ/mol
# GULP energy per Si atom -5578.270079 kJ/mol
# Density = 1.765372 g / cm^3
# Si number density = 17.693991 Si / 1000 Ang^3
#
#
#
# Elastic Constant Matrix: (Units=GPa)
#
#
# Indices 1 2 3 4 5 6 
#
# 1 60.9324 50.1703 83.5032 0.0000 0.0000 0.0000
# 2 50.1703 60.9325 83.5032 0.0000 0.0000 0.0000
# 3 83.5032 83.5032 218.6517 0.0000 0.0000 0.0000
# 4 0.0000 0.0000 0.0000 -625.5543 0.0000 0.0000
# 5 0.0000 0.0000 0.0000 0.0000 -625.3471 0.0000
# 6 0.0000 0.0000 0.0000 0.0000 0.0000 21.9633
#
#
#
# Elastic Compliance Matrix: (Units=1/GPa)
#
#
# Indices 1 2 3 4 5 6 
#
# 1 0.057025 -0.035893 -0.008070 0.000000 0.000000 0.000000
# 2 -0.035893 0.057024 -0.008070 0.000000 0.000000 0.000000
# 3 -0.008070 -0.008070 0.010737 0.000000 0.000000 0.000000
# 4 0.000000 0.000000 0.000000 -0.001599 0.000000 0.000000
# 5 0.000000 0.000000 0.000000 0.000000 -0.001599 0.000000
# 6 0.000000 0.000000 0.000000 0.000000 0.000000 0.045530
#
#
# Mechanical properties :
#
#
# Convention : Reuss Voigt Hill
#
# Bulk Modulus (GPa) = 48.26285 86.09665 67.17975
# Shear Modulus (GPa) = 17.97962 -237.56496 -109.79267
#
# Velocity S-wave (km/s) = 3.19116 -11.59976 -7.88578
# Velocity P-wave (km/s) = 6.39637 11.42986 6.69806
#
# Compressibility (1/GPa) = 0.02071987
#
# Stress axis : x y z
#
# Youngs Moduli (GPa) = 17.53625 17.53634 93.13218
#
# Poissons Ratio (x) = 0.62943 0.75159
# Poissons Ratio (y) = 0.62943 0.75158
# Poissons Ratio (z) = 0.14152 0.14152
#
# Static dielectric constant tensor:
#      x y z
#    x 1.593900 0.000000 0.000000 
#    y 0.000000 1.593900 0.000000 
#    z 0.000000 0.000000 1.584490 
# 
# From -- ./inp_files/5081.got.cif
#   From: 2010.05.17/outbox.cif.g08.bks.cpg/sg115_3_cif.got.tgz:5081.got - 2010.05.20 11:07:42.
