data_PCOD9557047
_publ_section_title
;
Structure prediction by ZEFSAII (Michael W. Deem and Ramdas Pophale) SiO2 
 PCOD9557047
Probable space group: P -4 M 2
;
_chemical_formula_sum "Si O2"
_cell_formula_units_Z 40
_cell_length_a 14.720474
_cell_length_b 14.720474
_cell_length_c 9.381640
_cell_angle_alpha 90.000000
_cell_angle_beta 90.000000
_cell_angle_gamma 90.000000
_cell_volume 2032.929663
_symmetry_space_group_name_H-M "P -4 M 2"
_symmetry_group_IT_number 115
_symmetry_cell_setting 'tetragonal'
loop_
_space_group_symop_operation_xyz
x,y,z
y,-x,-z
-x,-y,z
-y,x,-z
y,x,-z
-y,-x,-z
-x,y,z
x,-y,z
loop_
_atom_site_type_symbol
_atom_site_label
_atom_site_fract_x
_atom_site_fract_y
_atom_site_fract_z
Si Si1 0.765704 0.896351 0.090444
Si Si2 0.102568 0.606124 0.396700
Si Si3 0.603113 0.719728 0.791867
Si Si4 0.398111 0.232913 0.126239
Si Si5 0.900528 0.772262 0.581272
O O1 0.665539 0.854539 0.108659
O O2 0.797047 0.896953 0.254100
O O3 0.766371 0.000000 0.036182
O O4 0.828277 0.828277 0.000000
O O5 0.108235 0.500000 0.430316
O O6 0.185114 0.625840 0.287522
O O7 0.110117 0.666913 0.538327
O O8 0.000000 0.622820 0.336764
O O9 0.500000 0.691486 0.745122
O O10 0.687898 0.650420 0.780127
O O11 0.596592 0.734021 0.961780
O O12 0.500000 0.214950 0.176983
O O13 0.823347 0.823347 0.500000
O O14 0.000000 0.799756 0.526598
#
# Coordination Sequence:
#
# PCOD9557047 Si02
#       5
#     8   8   8   8   8
#     4  11  24  42  61  86 119 154 195 243 299 358
#     4   9  18  34  58  87 118 152 194 244 294 345
#     4   9  17  32  55  85 119 156 200 241 286 343
#     4  10  20  35  55  83 119 156 196 241 291 345
#     4  10  22  38  59  85 113 150 192 237 292 347
#
# _framework density 19.676037999999998
#
# number of rings (size 3 to 8) (size 9 to 14) (size 15 to 20)
#    0.000    2.200    2.000    1.200    0.000    3.600 
#    0.000    8.000    0.000    0.000    0.000    0.000 
#    0.000    4.800    0.000    0.000    0.000    0.000 
#
# Total GULP energy -222788.474879 kJ/mol
# GULP energy per Si atom -5569.711872 kJ/mol
# Density = 1.963125 g / cm^3
# Si number density = 19.676038 Si / 1000 Ang^3
#
#
#
# Elastic Constant Matrix: (Units=GPa)
#
#
# Indices 1 2 3 4 5 6 
#
# 1 121.0501 79.0400 29.9652 0.0000 0.0000 0.0000
# 2 79.0400 121.0501 29.9652 0.0000 0.0000 0.0000
# 3 29.9652 29.9652 43.4856 0.0000 0.0000 0.0000
# 4 0.0000 0.0000 0.0000 22.4637 0.0000 0.0000
# 5 0.0000 0.0000 0.0000 0.0000 22.4637 0.0000
# 6 0.0000 0.0000 0.0000 0.0000 0.0000 10.9515
#
#
#
# Elastic Compliance Matrix: (Units=1/GPa)
#
#
# Indices 1 2 3 4 5 6 
#
# 1 0.015051 -0.008753 -0.004339 0.000000 0.000000 0.000000
# 2 -0.008753 0.015051 -0.004339 0.000000 0.000000 0.000000
# 3 -0.004339 -0.004339 0.028977 0.000000 0.000000 0.000000
# 4 0.000000 0.000000 0.000000 0.044516 0.000000 0.000000
# 5 0.000000 0.000000 0.000000 0.000000 0.044516 0.000000
# 6 0.000000 0.000000 0.000000 0.000000 0.000000 0.091312
#
#
# Mechanical properties :
#
#
# Convention : Reuss Voigt Hill
#
# Bulk Modulus (GPa) = 41.29897 62.61404 51.95650
# Shear Modulus (GPa) = 17.70802 20.95014 19.32908
#
# Velocity S-wave (km/s) = 3.00322 3.26660 3.13767
# Velocity P-wave (km/s) = 5.74985 6.79110 6.29206
#
# Compressibility (1/GPa) = 0.02421368
#
# Stress axis : x y z
#
# Youngs Moduli (GPa) = 66.44230 66.44230 34.51052
#
# Poissons Ratio (x) = 0.58158 0.14976
# Poissons Ratio (y) = 0.58158 0.14976
# Poissons Ratio (z) = 0.28833 0.28833
#
# Static dielectric constant tensor:
#      x y z
#    x 1.728590 0.000000 0.000000 
#    y 0.000000 1.728590 0.000000 
#    z 0.000000 0.000000 1.698070 
# 
# From -- ./inp_files/1602.got.cif
#   From: 2010.05.17/outbox.cif.g08.bks.cpg/sg115_1_cif.got.tgz:1602.got - 2010.05.20 11:07:42.
