data_PCOD9557811
_publ_section_title
;
Structure prediction by ZEFSAII (Michael W. Deem and Ramdas Pophale) SiO2 
 PCOD9557811
Probable space group: P -4 C 2
;
_chemical_formula_sum "Si O2"
_cell_formula_units_Z 40
_cell_length_a 8.720952
_cell_length_b 8.720952
_cell_length_c 24.086289
_cell_angle_alpha 90.000000
_cell_angle_beta 90.000000
_cell_angle_gamma 90.000000
_cell_volume 1831.882801
_symmetry_space_group_name_H-M "P -4 C 2"
_symmetry_group_IT_number 116
_symmetry_cell_setting 'tetragonal'
loop_
_space_group_symop_operation_xyz
x,y,z
y,-x,-z
-x,-y,z
-y,x,-z
y,x,1/2-z
-y,-x,1/2-z
-x,y,1/2+z
x,-y,1/2+z
loop_
_atom_site_type_symbol
_atom_site_label
_atom_site_fract_x
_atom_site_fract_y
_atom_site_fract_z
Si Si1 0.000000 0.500000 0.278126
Si Si2 0.944462 0.216733 0.840459
Si Si3 0.500000 0.000000 0.407436
Si Si4 0.062319 0.738606 0.185947
Si Si5 0.047930 0.197862 0.964365
Si Si6 0.256364 0.436483 0.003693
O O1 0.091286 0.387070 0.319420
O O2 0.083534 0.616475 0.235280
O O3 0.116666 0.174041 0.819881
O O4 0.958001 0.183640 0.906494
O O5 0.822996 0.102629 0.812646
O O6 0.637896 0.057985 0.369189
O O7 0.453389 0.146221 0.443799
O O8 0.141912 0.354626 0.960822
O O9 0.929490 0.173539 0.015841
O O10 0.326415 0.598409 0.985621
#
# Coordination Sequence:
#
# PCOD9557811 Si02
#       6
#     4   8   4   8   8   8
#     4  11  24  37  62  94 122 161 208 263 330 392
#     4  11  22  41  66  95 127 167 220 278 332 389
#     4  11  22  41  64  88 126 175 226 273 332 400
#     4  10  22  42  66  89 121 168 221 277 329 386
#     4  11  22  39  65  98 130 170 224 278 333 399
#     4  11  23  37  56  89 133 176 216 270 338 406
#
# _framework density 21.835456000000001
#
# number of rings (size 3 to 8) (size 9 to 14) (size 15 to 20)
#    0.000    1.200    0.000    8.400    0.000    5.600 
#    0.000    0.000    0.000   21.600    0.000    0.000 
#    0.000    0.000    0.000    0.000    0.000    0.000 
#
# Total GULP energy -223186.537101 kJ/mol
# GULP energy per Si atom -5579.663428 kJ/mol
# Density = 2.178576 g / cm^3
# Si number density = 21.835456 Si / 1000 Ang^3
#
#
#
# Elastic Constant Matrix: (Units=GPa)
#
#
# Indices 1 2 3 4 5 6 
#
# 1 98.6487 28.6240 33.1353 0.0000 0.0000 0.0000
# 2 28.6240 98.6487 33.1353 0.0000 0.0000 0.0000
# 3 33.1353 33.1353 112.5393 0.0000 0.0000 0.0000
# 4 0.0000 0.0000 0.0000 39.5021 0.0000 0.0000
# 5 0.0000 0.0000 0.0000 0.0000 39.5021 0.0000
# 6 0.0000 0.0000 0.0000 0.0000 0.0000 22.5451
#
#
#
# Elastic Compliance Matrix: (Units=1/GPa)
#
#
# Indices 1 2 3 4 5 6 
#
# 1 0.011780 -0.002500 -0.002732 0.000000 0.000000 0.000000
# 2 -0.002500 0.011780 -0.002732 0.000000 0.000000 0.000000
# 3 -0.002732 -0.002732 0.010495 0.000000 0.000000 0.000000
# 4 0.000000 0.000000 0.000000 0.025315 0.000000 0.000000
# 5 0.000000 0.000000 0.000000 0.000000 0.025315 0.000000
# 6 0.000000 0.000000 0.000000 0.000000 0.000000 0.044355
#
#
# Mechanical properties :
#
#
# Convention : Reuss Voigt Hill
#
# Bulk Modulus (GPa) = 55.17164 55.51398 55.34281
# Shear Modulus (GPa) = 33.10979 34.63932 33.87455
#
# Velocity S-wave (km/s) = 3.89823 3.98726 3.94300
# Velocity P-wave (km/s) = 6.75155 6.83203 6.79191
#
# Compressibility (1/GPa) = 0.01812526
#
# Stress axis : x y z
#
# Youngs Moduli (GPa) = 84.88777 84.88777 95.28575
#
# Poissons Ratio (x) = 0.21225 0.26035
# Poissons Ratio (y) = 0.21225 0.26035
# Poissons Ratio (z) = 0.23194 0.23194
#
# Static dielectric constant tensor:
#      x y z
#    x 1.835480 0.000000 0.000000 
#    y 0.000000 1.835480 0.000000 
#    z 0.000000 0.000000 1.864100 
# 
# From -- ./inp_files/4897.got.cif
#   From: 2010.05.17/outbox.cif.g08.bks.cpg/sg116_3_cif.got.tgz:4897.got - 2010.05.20 11:11:43.
