data_PCOD9557637
_publ_section_title
;
Structure prediction by ZEFSAII (Michael W. Deem and Ramdas Pophale) SiO2 
 PCOD9557637
Probable space group: P -4 C 2
;
_chemical_formula_sum "Si O2"
_cell_formula_units_Z 50
_cell_length_a 11.961056
_cell_length_b 11.961056
_cell_length_c 19.263357
_cell_angle_alpha 90.000000
_cell_angle_beta 90.000000
_cell_angle_gamma 90.000000
_cell_volume 2755.948011
_symmetry_space_group_name_H-M "P -4 C 2"
_symmetry_group_IT_number 116
_symmetry_cell_setting 'tetragonal'
loop_
_space_group_symop_operation_xyz
x,y,z
y,-x,-z
-x,-y,z
-y,x,-z
y,x,1/2-z
-y,-x,1/2-z
-x,y,1/2+z
x,-y,1/2+z
loop_
_atom_site_type_symbol
_atom_site_label
_atom_site_fract_x
_atom_site_fract_y
_atom_site_fract_z
Si Si1 0.974441 0.784125 0.821910
Si Si2 0.211967 0.397365 0.558732
Si Si3 0.118719 0.165734 0.108424
Si Si4 0.000000 0.000000 0.000000
Si Si5 0.004415 0.373133 0.452507
Si Si6 0.345540 0.769806 0.970810
Si Si7 0.261204 0.091905 0.830451
O O1 0.861630 0.852466 0.838285
O O2 0.944062 0.724894 0.749592
O O3 0.083569 0.862876 0.826020
O O4 0.006738 0.704179 0.885415
O O5 0.106619 0.372363 0.507136
O O6 0.239105 0.529009 0.558479
O O7 0.312857 0.326039 0.525620
O O8 0.173390 0.350275 0.633516
O O9 0.074048 0.083561 0.047232
O O10 0.220538 0.245028 0.084979
O O11 0.021713 0.252355 0.127000
O O12 0.000000 0.500000 0.427432
O O13 0.889035 0.342778 0.490388
#
# Coordination Sequence:
#
# PCOD9557637 Si02
#       7
#     8   8   8   2   8   8   8
#     4  11  21  36  56  83 122 159 192 236 302 371
#     4  11  22  39  60  88 117 158 208 262 310 359
#     4  12  20  33  53  87 120 156 191 240 297 374
#     4  12  20  28  58  88 116 152 194 236 300 360
#     4  10  20  36  57  84 110 149 197 248 300 361
#     4  11  22  36  62  85 121 152 207 257 303 361
#     4  11  22  35  56  88 124 157 193 242 305 370
#
# _framework density 18.142578
#
# number of rings (size 3 to 8) (size 9 to 14) (size 15 to 20)
#    0.000    0.960    6.400    2.400    0.000    1.600 
#    2.880    0.000    0.000    0.000    0.000    0.000 
#    0.000    0.000    0.000    0.000    0.000    0.000 
#
# Total GULP energy -278779.944145 kJ/mol
# GULP energy per Si atom -5575.598883 kJ/mol
# Density = 1.810128 g / cm^3
# Si number density = 18.142578 Si / 1000 Ang^3
#
#
#
# Elastic Constant Matrix: (Units=GPa)
#
#
# Indices 1 2 3 4 5 6 
#
# 1 78.7742 18.7601 27.1182 0.0000 0.0000 0.0000
# 2 18.7601 78.7742 27.1182 0.0000 0.0000 0.0000
# 3 27.1182 27.1182 78.6604 0.0000 0.0000 0.0000
# 4 0.0000 0.0000 0.0000 18.1871 0.0000 0.0000
# 5 0.0000 0.0000 0.0000 0.0000 18.1871 0.0000
# 6 0.0000 0.0000 0.0000 0.0000 0.0000 18.4046
#
#
#
# Elastic Compliance Matrix: (Units=1/GPa)
#
#
# Indices 1 2 3 4 5 6 
#
# 1 0.014674 -0.001989 -0.004373 0.000000 0.000000 0.000000
# 2 -0.001989 0.014674 -0.004373 0.000000 0.000000 0.000000
# 3 -0.004373 -0.004373 0.015728 0.000000 0.000000 0.000000
# 4 0.000000 0.000000 0.000000 0.054984 0.000000 0.000000
# 5 0.000000 0.000000 0.000000 0.000000 0.054984 0.000000
# 6 0.000000 0.000000 0.000000 0.000000 0.000000 0.054334
#
#
# Mechanical properties :
#
#
# Convention : Reuss Voigt Hill
#
# Bulk Modulus (GPa) = 42.36370 42.46688 42.41529
# Shear Modulus (GPa) = 20.94536 21.83656 21.39096
#
# Velocity S-wave (km/s) = 3.40146 3.47307 3.43745
# Velocity P-wave (km/s) = 6.23119 6.28817 6.25974
#
# Compressibility (1/GPa) = 0.02360512
#
# Stress axis : x y z
#
# Youngs Moduli (GPa) = 68.14937 68.14937 63.58062
#
# Poissons Ratio (x) = 0.13556 0.27804
# Poissons Ratio (y) = 0.13556 0.27804
# Poissons Ratio (z) = 0.29802 0.29802
#
# Static dielectric constant tensor:
#      x y z
#    x 1.662050 0.000000 0.000000 
#    y 0.000000 1.662050 0.000000 
#    z 0.000000 0.000000 1.653400 
# 
# From -- ./inp_files/4091.got.cif
#   From: 2010.05.17/outbox.cif.g08.bks.cpg/sg116_3_cif.got.tgz:4091.got - 2010.05.20 11:11:43.
