data_PCOD9557775
_publ_section_title
;
Structure prediction by ZEFSAII (Michael W. Deem and Ramdas Pophale) SiO2 
 PCOD9557775
Probable space group: P -4 C 2
;
_chemical_formula_sum "Si O2"
_cell_formula_units_Z 30
_cell_length_a 11.857254
_cell_length_b 11.857254
_cell_length_c 11.266731
_cell_angle_alpha 90.000000
_cell_angle_beta 90.000000
_cell_angle_gamma 90.000000
_cell_volume 1584.040101
_symmetry_space_group_name_H-M "P -4 C 2"
_symmetry_group_IT_number 116
_symmetry_cell_setting 'tetragonal'
loop_
_space_group_symop_operation_xyz
x,y,z
y,-x,-z
-x,-y,z
-y,x,-z
y,x,1/2-z
-y,-x,1/2-z
-x,y,1/2+z
x,-y,1/2+z
loop_
_atom_site_type_symbol
_atom_site_label
_atom_site_fract_x
_atom_site_fract_y
_atom_site_fract_z
Si Si1 0.687762 0.746856 0.116755
Si Si2 0.425403 0.275259 0.586688
Si Si3 0.836778 0.907995 0.982748
Si Si4 0.500000 0.500000 0.000000
Si Si5 0.774552 0.774552 0.750000
O O1 0.709523 0.709523 0.250000
O O2 0.554767 0.762286 0.090577
O O3 0.739399 0.648016 0.032870
O O4 0.751412 0.860331 0.080400
O O5 0.436766 0.411917 0.584995
O O6 0.349209 0.223050 0.689872
O O7 0.794068 0.864362 0.854700
O O8 0.958775 0.852912 0.008144
#
# Coordination Sequence:
#
# PCOD9557775 Si02
#       5
#     8   8   8   2   4
#     4  10  22  37  63  89 128 157 206 249 304 364
#     4   9  20  35  57  95 119 168 194 245 302 366
#     4  10  24  43  68  89 110 160 219 258 302 350
#     4   8  16  30  56  88 122 160 214 224 280 374
#     4  10  22  38  64  88 128 150 202 258 302 362
#
# _framework density 18.938914
#
# number of rings (size 3 to 8) (size 9 to 14) (size 15 to 20)
#    0.000    2.400    0.000    0.000   18.667    1.067 
#    0.000    5.333    0.000    0.000    0.000    0.000 
#    0.000    0.000    0.000    0.000    0.000    0.000 
#
# Total GULP energy -167201.556137 kJ/mol
# GULP energy per Si atom -5573.385205 kJ/mol
# Density = 1.889581 g / cm^3
# Si number density = 18.938914 Si / 1000 Ang^3
#
#
#
# Elastic Constant Matrix: (Units=GPa)
#
#
# Indices 1 2 3 4 5 6 
#
# 1 79.3065 59.4699 46.5426 0.0000 0.0000 0.0000
# 2 59.4699 79.3065 46.5426 0.0000 0.0000 0.0000
# 3 46.5426 46.5426 87.9607 0.0000 0.0000 0.0000
# 4 0.0000 0.0000 0.0000 12.7163 0.0000 0.0000
# 5 0.0000 0.0000 0.0000 0.0000 12.7163 0.0000
# 6 0.0000 0.0000 0.0000 0.0000 0.0000 34.4178
#
#
#
# Elastic Compliance Matrix: (Units=1/GPa)
#
#
# Indices 1 2 3 4 5 6 
#
# 1 0.030791 -0.019621 -0.005911 0.000000 0.000000 0.000000
# 2 -0.019621 0.030791 -0.005911 0.000000 0.000000 0.000000
# 3 -0.005911 -0.005911 0.017624 0.000000 0.000000 0.000000
# 4 0.000000 0.000000 0.000000 0.078639 0.000000 0.000000
# 5 0.000000 0.000000 0.000000 0.000000 0.078639 0.000000
# 6 0.000000 0.000000 0.000000 0.000000 0.000000 0.029055
#
#
# Mechanical properties :
#
#
# Convention : Reuss Voigt Hill
#
# Bulk Modulus (GPa) = 61.26662 61.29819 61.28241
# Shear Modulus (GPa) = 14.97620 18.23800 16.60710
#
# Velocity S-wave (km/s) = 2.81510 3.10658 2.96442
# Velocity P-wave (km/s) = 6.55639 6.73085 6.64419
#
# Compressibility (1/GPa) = 0.01632210
#
# Stress axis : x y z
#
# Youngs Moduli (GPa) = 32.47689 32.47689 56.74197
#
# Poissons Ratio (x) = 0.63722 0.33538
# Poissons Ratio (y) = 0.63722 0.33538
# Poissons Ratio (z) = 0.19196 0.19196
#
# Static dielectric constant tensor:
#      x y z
#    x 1.667580 0.000000 0.000000 
#    y 0.000000 1.667580 0.000000 
#    z 0.000000 0.000000 1.685260 
# 
# From -- ./inp_files/1488.got.cif
#   From: 2010.05.17/outbox.cif.g08.bks.cpg/sg116_1_cif.got.tgz:1488.got - 2010.05.20 11:11:43.
