data_PCOD9557460
_publ_section_title
;
Structure prediction by ZEFSAII (Michael W. Deem and Ramdas Pophale) SiO2 
 PCOD9557460
Probable space group: P -4 M 2
;
_chemical_formula_sum "Si O2"
_cell_formula_units_Z 40
_cell_length_a 14.611420
_cell_length_b 14.611420
_cell_length_c 9.104133
_cell_angle_alpha 90.000000
_cell_angle_beta 90.000000
_cell_angle_gamma 90.000000
_cell_volume 1943.674078
_symmetry_space_group_name_H-M "P -4 M 2"
_symmetry_group_IT_number 115
_symmetry_cell_setting 'tetragonal'
loop_
_space_group_symop_operation_xyz
x,y,z
y,-x,-z
-x,-y,z
-y,x,-z
y,x,-z
-y,-x,-z
-x,y,z
x,-y,z
loop_
_atom_site_type_symbol
_atom_site_label
_atom_site_fract_x
_atom_site_fract_y
_atom_site_fract_z
Si Si1 0.888954 0.395693 0.372243
Si Si2 0.607759 0.101873 0.951424
Si Si3 0.890957 0.231381 0.589881
Si Si4 0.390888 0.394318 0.325628
Si Si5 0.228997 0.297589 0.845659
O O1 0.856285 0.500000 0.400800
O O2 0.861312 0.361869 0.209110
O O3 0.863970 0.322021 0.494831
O O4 0.000000 0.399003 0.368843
O O5 0.500000 0.093246 0.928316
O O6 0.647366 0.000000 0.973729
O O7 0.622430 0.162851 0.093532
O O8 0.856108 0.143892 0.500000
O O9 0.832651 0.238276 0.737367
O O10 0.000000 0.231888 0.611632
O O11 0.377720 0.377720 0.500000
O O12 0.500000 0.388185 0.298168
O O13 0.363209 0.500000 0.293111
O O14 0.338526 0.318728 0.231519
O O15 0.249738 0.249738 0.000000
#
# Coordination Sequence:
#
# PCOD9557460 Si02
#       5
#     8   8   8   8   8
#     4   8  16  34  61  91 123 158 196 243 299 359
#     4   9  18  34  56  84 120 159 196 240 298 359
#     4  11  24  43  66  91 118 154 204 257 311 372
#     4   9  20  40  62  84 119 171 225 269 306 355
#     4  12  24  37  56  89 126 159 199 250 314 376
#
# _framework density 20.57958
#
# number of rings (size 3 to 8) (size 9 to 14) (size 15 to 20)
#    0.000    2.200    0.000    4.800    0.000    3.400 
#    0.000    9.000    0.000    0.000    0.000    0.000 
#    0.000    0.000    0.000    0.000    0.000    0.000 
#
# Total GULP energy -223322.349946 kJ/mol
# GULP energy per Si atom -5583.058749 kJ/mol
# Density = 2.053274 g / cm^3
# Si number density = 20.579580 Si / 1000 Ang^3
#
#
#
# Elastic Constant Matrix: (Units=GPa)
#
#
# Indices 1 2 3 4 5 6 
#
# 1 105.4006 46.3213 61.5782 0.0000 0.0000 0.0000
# 2 46.3213 105.4030 61.5791 0.0000 0.0000 0.0000
# 3 61.5782 61.5791 124.0900 0.0000 0.0000 0.0000
# 4 0.0000 0.0000 0.0000 30.2791 0.0000 0.0000
# 5 0.0000 0.0000 0.0000 0.0000 30.2782 0.0000
# 6 0.0000 0.0000 0.0000 0.0000 0.0000 25.2565
#
#
#
# Elastic Compliance Matrix: (Units=1/GPa)
#
#
# Indices 1 2 3 4 5 6 
#
# 1 0.013981 -0.002945 -0.005477 0.000000 0.000000 0.000000
# 2 -0.002945 0.013981 -0.005477 0.000000 0.000000 0.000000
# 3 -0.005477 -0.005477 0.013494 0.000000 0.000000 0.000000
# 4 0.000000 0.000000 0.000000 0.033026 0.000000 0.000000
# 5 0.000000 0.000000 0.000000 0.000000 0.033027 0.000000
# 6 0.000000 0.000000 0.000000 0.000000 0.000000 0.039594
#
#
# Mechanical properties :
#
#
# Convention : Reuss Voigt Hill
#
# Bulk Modulus (GPa) = 73.20510 74.87231 74.03871
# Shear Modulus (GPa) = 27.86227 28.19042 28.02635
#
# Velocity S-wave (km/s) = 3.68350 3.70513 3.69433
# Velocity P-wave (km/s) = 7.33075 7.40033 7.36562
#
# Compressibility (1/GPa) = 0.01366025
#
# Stress axis : x y z
#
# Youngs Moduli (GPa) = 71.52314 71.52463 74.10515
#
# Poissons Ratio (x) = 0.21062 0.40586
# Poissons Ratio (y) = 0.21062 0.40586
# Poissons Ratio (z) = 0.39172 0.39173
#
# Static dielectric constant tensor:
#      x y z
#    x 1.790030 0.000000 0.000000 
#    y 0.000000 1.790030 0.000000 
#    z 0.000000 0.000000 1.737130 
# 
# From -- ./inp_files/1590.got.cif
#   From: 2010.05.17/outbox.cif.g08.bks.cpg/sg115_1_cif.got.tgz:1590.got - 2010.05.20 11:07:42.
