data_PCOD9557427
_publ_section_title
;
Structure prediction by ZEFSAII (Michael W. Deem and Ramdas Pophale) SiO2 
 PCOD9557427
Probable space group: P -4 M 2
;
_chemical_formula_sum "Si O2"
_cell_formula_units_Z 40
_cell_length_a 14.802806
_cell_length_b 14.802806
_cell_length_c 9.137226
_cell_angle_alpha 90.000000
_cell_angle_beta 90.000000
_cell_angle_gamma 90.000000
_cell_volume 2002.176971
_symmetry_space_group_name_H-M "P -4 M 2"
_symmetry_group_IT_number 115
_symmetry_cell_setting 'tetragonal'
loop_
_space_group_symop_operation_xyz
x,y,z
y,-x,-z
-x,-y,z
-y,x,-z
y,x,-z
-y,-x,-z
-x,y,z
x,-y,z
loop_
_atom_site_type_symbol
_atom_site_label
_atom_site_fract_x
_atom_site_fract_y
_atom_site_fract_z
Si Si1 0.600785 0.893201 0.547497
Si Si2 0.268014 0.607843 0.914743
Si Si3 0.792680 0.723731 0.653247
Si Si4 0.390163 0.896429 0.871176
Si Si5 0.895397 0.898712 0.678260
O O1 0.500000 0.855148 0.523689
O O2 0.663716 0.874874 0.410358
O O3 0.636478 0.863758 0.707563
O O4 0.593337 0.000000 0.565309
O O5 0.269133 0.500000 0.896544
O O6 0.261343 0.662143 0.764233
O O7 0.354636 0.645365 0.000000
O O8 0.177922 0.633601 0.008405
O O9 0.742422 0.742422 0.500000
O O10 0.833368 0.815112 0.722435
O O11 0.500000 0.899793 0.866953
O O12 0.359094 0.000000 0.898480
O O13 0.895394 0.895394 0.500000
O O14 0.000000 0.888607 0.724419
O O15 0.864237 0.000000 0.719942
#
# Coordination Sequence:
#
# PCOD9557427 Si02
#       5
#     8   8   8   8   8
#     4   9  17  31  53  82 116 151 185 228 285 341
#     4  11  24  42  62  84 112 149 195 245 303 372
#     4  11  21  33  54  86 116 146 192 248 303 353
#     4   8  16  33  57  85 119 156 189 227 284 354
#     4   8  15  29  49  76 115 161 201 233 270 327
#
# _framework density 19.978252999999999
#
# number of rings (size 3 to 8) (size 9 to 14) (size 15 to 20)
#    0.000    2.600    0.000    4.200    0.000    2.600 
#    0.000    4.000    0.000    0.000    0.000    2.800 
#    0.000    4.800    0.000    0.000    0.000    0.000 
#
# Total GULP energy -223050.163131 kJ/mol
# GULP energy per Si atom -5576.254078 kJ/mol
# Density = 1.993278 g / cm^3
# Si number density = 19.978253 Si / 1000 Ang^3
#
#
#
# Elastic Constant Matrix: (Units=GPa)
#
#
# Indices 1 2 3 4 5 6 
#
# 1 98.6470 42.6802 33.9929 0.0000 0.0000 0.0000
# 2 42.6802 98.6495 33.9938 0.0000 0.0000 0.0000
# 3 33.9929 33.9938 54.2009 0.0000 0.0000 0.0000
# 4 0.0000 0.0000 0.0000 18.4304 0.0000 0.0000
# 5 0.0000 0.0000 0.0000 0.0000 18.4295 0.0000
# 6 0.0000 0.0000 0.0000 0.0000 0.0000 26.9445
#
#
#
# Elastic Compliance Matrix: (Units=1/GPa)
#
#
# Indices 1 2 3 4 5 6 
#
# 1 0.014000 -0.003867 -0.006355 0.000000 0.000000 0.000000
# 2 -0.003867 0.014000 -0.006355 0.000000 0.000000 0.000000
# 3 -0.006355 -0.006355 0.026421 0.000000 0.000000 0.000000
# 4 0.000000 0.000000 0.000000 0.054258 0.000000 0.000000
# 5 0.000000 0.000000 0.000000 0.000000 0.054261 0.000000
# 6 0.000000 0.000000 0.000000 0.000000 0.000000 0.037113
#
#
# Mechanical properties :
#
#
# Convention : Reuss Voigt Hill
#
# Bulk Modulus (GPa) = 47.02167 52.53681 49.77924
# Shear Modulus (GPa) = 20.80754 22.14957 21.47856
#
# Velocity S-wave (km/s) = 3.23074 3.33330 3.28242
# Velocity P-wave (km/s) = 6.12409 6.41628 6.27189
#
# Compressibility (1/GPa) = 0.02126679
#
# Stress axis : x y z
#
# Youngs Moduli (GPa) = 71.42744 71.42881 37.84827
#
# Poissons Ratio (x) = 0.27623 0.24053
# Poissons Ratio (y) = 0.27623 0.24053
# Poissons Ratio (z) = 0.45392 0.45394
#
# Static dielectric constant tensor:
#      x y z
#    x 1.758320 0.000000 0.000000 
#    y 0.000000 1.758310 0.000000 
#    z 0.000000 0.000000 1.716570 
# 
# From -- ./inp_files/1589.got.cif
#   From: 2010.05.17/outbox.cif.g08.bks.cpg/sg115_1_cif.got.tgz:1589.got - 2010.05.20 11:07:42.
