data_PCOD9557164
_publ_section_title
;
Structure prediction by ZEFSAII (Michael W. Deem and Ramdas Pophale) SiO2 
 PCOD9557164
Probable space group: P -4 M 2
;
_chemical_formula_sum "Si O2"
_cell_formula_units_Z 40
_cell_length_a 9.393589
_cell_length_b 9.393589
_cell_length_c 26.278146
_cell_angle_alpha 90.000000
_cell_angle_beta 90.000000
_cell_angle_gamma 90.000000
_cell_volume 2318.770840
_symmetry_space_group_name_H-M "P -4 M 2"
_symmetry_group_IT_number 115
_symmetry_cell_setting 'tetragonal'
loop_
_space_group_symop_operation_xyz
x,y,z
y,-x,-z
-x,-y,z
-y,x,-z
y,x,-z
-y,-x,-z
-x,y,z
x,-y,z
loop_
_atom_site_type_symbol
_atom_site_label
_atom_site_fract_x
_atom_site_fract_y
_atom_site_fract_z
Si Si1 0.830203 0.167295 0.147857
Si Si2 0.332503 0.329419 0.647020
Si Si3 0.167822 0.330175 0.749166
Si Si4 0.169844 0.331108 0.044897
Si Si5 0.167799 0.829555 0.558305
O O1 0.749573 0.210111 0.199228
O O2 0.790944 0.260084 0.098861
O O3 0.000000 0.180113 0.155594
O O4 0.798689 0.000000 0.138042
O O5 0.500000 0.298852 0.648925
O O6 0.313769 0.500000 0.641778
O O7 0.257103 0.286442 0.699824
O O8 0.259302 0.251711 0.599833
O O9 0.184451 0.500000 0.756095
O O10 0.000000 0.301465 0.740159
O O11 0.194956 0.500000 0.045698
O O12 0.000000 0.307348 0.037440
O O13 0.255844 0.255844 0.000000
O O14 0.207050 0.792951 0.500000
O O15 0.000000 0.797158 0.565133
O O16 0.184190 0.000000 0.563657
#
# Coordination Sequence:
#
# PCOD9557164 Si02
#       5
#     8   8   8   8   8
#     4   9  18  33  53  76 101 131 169 212 256 301
#     4  10  21  35  51  75 107 140 173 209 252 304
#     4   9  18  33  52  73  99 134 174 211 249 298
#     4  10  21  36  54  77 105 137 173 212 255 305
#     4   9  19  36  56  77 101 131 170 215 260 306
#
# _framework density 17.250519000000001
#
# number of rings (size 3 to 8) (size 9 to 14) (size 15 to 20)
#    0.000    2.600    0.000    1.800    0.000    6.000 
#    0.000    7.000    0.000    0.000    0.000    0.000 
#    0.000    0.000    0.000    0.000    0.000    0.000 
#
# Total GULP energy -223185.535950 kJ/mol
# GULP energy per Si atom -5579.638399 kJ/mol
# Density = 1.721126 g / cm^3
# Si number density = 17.250519 Si / 1000 Ang^3
#
#
#
# Elastic Constant Matrix: (Units=GPa)
#
#
# Indices 1 2 3 4 5 6 
#
# 1 65.4492 60.8767 100.3335 0.0000 0.0000 0.0000
# 2 60.8767 65.4494 100.3336 0.0000 0.0000 0.0000
# 3 100.3335 100.3336 212.2490 0.0000 0.0000 0.0000
# 4 0.0000 0.0000 0.0000 -193.8813 0.0000 0.0000
# 5 0.0000 0.0000 0.0000 0.0000 -193.8528 0.0000
# 6 0.0000 0.0000 0.0000 0.0000 0.0000 24.4446
#
#
#
# Elastic Compliance Matrix: (Units=1/GPa)
#
#
# Indices 1 2 3 4 5 6 
#
# 1 0.125236 -0.093457 -0.015022 0.000000 0.000000 0.000000
# 2 -0.093457 0.125235 -0.015022 0.000000 0.000000 0.000000
# 3 -0.015022 -0.015022 0.018914 0.000000 0.000000 0.000000
# 4 0.000000 0.000000 0.000000 -0.005158 0.000000 0.000000
# 5 0.000000 0.000000 0.000000 0.000000 -0.005159 0.000000
# 6 0.000000 0.000000 0.000000 0.000000 0.000000 0.040909
#
#
# Mechanical properties :
#
#
# Convention : Reuss Voigt Hill
#
# Bulk Modulus (GPa) = 44.67810 96.24835 70.46323
# Shear Modulus (GPa) = 9.01809 -67.21763 -29.09977
#
# Velocity S-wave (km/s) = 2.28890 -6.24901 -4.11164
# Velocity P-wave (km/s) = 5.73944 1.96181 4.28894
#
# Compressibility (1/GPa) = 0.02238233
#
# Stress axis : x y z
#
# Youngs Moduli (GPa) = 7.98495 7.98496 52.87055
#
# Poissons Ratio (x) = 0.74625 0.79424
# Poissons Ratio (y) = 0.74625 0.79424
# Poissons Ratio (z) = 0.11995 0.11995
#
# Static dielectric constant tensor:
#      x y z
#    x 1.572160 0.000000 0.000000 
#    y 0.000000 1.572160 0.000000 
#    z 0.000000 0.000000 1.554390 
# 
# From -- ./inp_files/5099.got.cif
#   From: 2010.05.17/outbox.cif.g08.bks.cpg/sg115_3_cif.got.tgz:5099.got - 2010.05.20 11:07:42.
