data_PCOD9557756
_publ_section_title
;
Structure prediction by ZEFSAII (Michael W. Deem and Ramdas Pophale) SiO2 
 PCOD9557756
Probable space group: P -4 C 2
;
_chemical_formula_sum "Si O2"
_cell_formula_units_Z 26
_cell_length_a 7.163566
_cell_length_b 7.163566
_cell_length_c 18.251232
_cell_angle_alpha 90.000000
_cell_angle_beta 90.000000
_cell_angle_gamma 90.000000
_cell_volume 936.592593
_symmetry_space_group_name_H-M "P -4 C 2"
_symmetry_group_IT_number 116
_symmetry_cell_setting 'tetragonal'
loop_
_space_group_symop_operation_xyz
x,y,z
y,-x,-z
-x,-y,z
-y,x,-z
y,x,1/2-z
-y,-x,1/2-z
-x,y,1/2+z
x,-y,1/2+z
loop_
_atom_site_type_symbol
_atom_site_label
_atom_site_fract_x
_atom_site_fract_y
_atom_site_fract_z
Si Si1 0.233069 0.134908 0.832030
Si Si2 0.346825 0.739315 0.861308
Si Si3 0.177119 0.751739 0.485316
Si Si4 0.500000 0.500000 0.250000
O O1 0.173255 0.173255 0.750000
O O2 0.452388 0.182178 0.837717
O O3 0.159902 0.266391 0.898086
O O4 0.206323 0.911252 0.846007
O O5 0.337213 0.558270 0.809507
O O6 0.351274 0.712060 0.949304
O O7 0.962254 0.744051 0.509760
#
# Coordination Sequence:
#
# PCOD9557756 Si02
#       4
#     8   8   8   2
#     4  10  21  42  63  93 130 182 233 283 350 427
#     4  10  23  40  60  93 135 173 227 290 356 421
#     4   9  20  40  65  95 128 172 235 288 346 414
#     4  12  24  40  60 100 130 174 228 290 366 432
#
# _framework density 27.760200000000001
#
# number of rings (size 3 to 8) (size 9 to 14) (size 15 to 20)
#    0.000    2.154    1.538    0.000    4.308    2.462 
#    0.000    3.077    0.000    0.000    0.000    0.000 
#    0.000    0.000    0.000    0.000    0.000    0.000 
#
# Total GULP energy -144919.677831 kJ/mol
# GULP energy per Si atom -5573.833763 kJ/mol
# Density = 2.769702 g / cm^3
# Si number density = 27.760200 Si / 1000 Ang^3
#
#
#
# Elastic Constant Matrix: (Units=GPa)
#
#
# Indices 1 2 3 4 5 6 
#
# 1 66.7346 7.9143 76.5181 0.0000 0.0000 0.0000
# 2 7.9143 66.7346 76.5181 0.0000 0.0000 0.0000
# 3 76.5181 76.5181 351.9561 0.0000 0.0000 0.0000
# 4 0.0000 0.0000 0.0000 50.6012 0.0000 0.0000
# 5 0.0000 0.0000 0.0000 0.0000 50.6012 0.0000
# 6 0.0000 0.0000 0.0000 0.0000 0.0000 36.3527
#
#
#
# Elastic Compliance Matrix: (Units=1/GPa)
#
#
# Indices 1 2 3 4 5 6 
#
# 1 0.020584 0.003583 -0.005254 0.000000 0.000000 0.000000
# 2 0.003583 0.020584 -0.005254 0.000000 0.000000 0.000000
# 3 -0.005254 -0.005254 0.005126 0.000000 0.000000 0.000000
# 4 0.000000 0.000000 0.000000 0.019762 0.000000 0.000000
# 5 0.000000 0.000000 0.000000 0.000000 0.019762 0.000000
# 6 0.000000 0.000000 0.000000 0.000000 0.000000 0.027508
#
#
# Mechanical properties :
#
#
# Convention : Reuss Voigt Hill
#
# Bulk Modulus (GPa) = 30.82207 89.70291 60.26249
# Shear Modulus (GPa) = 36.23383 49.14266 42.68824
#
# Velocity S-wave (km/s) = 3.61674 4.21201 3.92567
# Velocity P-wave (km/s) = 5.34491 7.48587 6.50409
#
# Compressibility (1/GPa) = 0.03244428
#
# Stress axis : x y z
#
# Youngs Moduli (GPa) = 48.58067 48.58067 195.08777
#
# Poissons Ratio (x) = -0.17408 1.02504
# Poissons Ratio (y) = -0.17408 1.02504
# Poissons Ratio (z) = 0.25526 0.25526
#
# Static dielectric constant tensor:
#      x y z
#    x 2.375540 0.000000 0.000000 
#    y 0.000000 2.375540 0.000000 
#    z 0.000000 0.000000 2.190350 
# 
# From -- ./inp_files/3035.got.cif
#   From: 2010.05.17/outbox.cif.g08.bks.cpg/sg116_2_cif.got.tgz:3035.got - 2010.05.20 11:11:43.
