data_PCOD9557902
_publ_section_title
;
Structure prediction by ZEFSAII (Michael W. Deem and Ramdas Pophale) SiO2 
 PCOD9557902
Probable space group: P -4 C 2
;
_chemical_formula_sum "Si O2"
_cell_formula_units_Z 20
_cell_length_a 4.991112
_cell_length_b 4.991112
_cell_length_c 32.549382
_cell_angle_alpha 90.000000
_cell_angle_beta 90.000000
_cell_angle_gamma 90.000000
_cell_volume 810.844132
_symmetry_space_group_name_H-M "P -4 C 2"
_symmetry_group_IT_number 116
_symmetry_cell_setting 'tetragonal'
loop_
_space_group_symop_operation_xyz
x,y,z
y,-x,-z
-x,-y,z
-y,x,-z
y,x,1/2-z
-y,-x,1/2-z
-x,y,1/2+z
x,-y,1/2+z
loop_
_atom_site_type_symbol
_atom_site_label
_atom_site_fract_x
_atom_site_fract_y
_atom_site_fract_z
Si Si1 0.500000 0.500000 0.250000
Si Si2 0.000000 0.500000 0.944275
Si Si3 0.000000 0.000000 0.000000
Si Si4 0.815060 0.740431 0.685200
Si Si5 0.500000 0.500000 0.889489
O O1 0.730913 0.434743 0.283647
O O2 0.746290 0.402500 0.917346
O O3 0.912906 0.749904 0.972082
O O4 0.710349 0.645451 0.640838
O O5 0.000000 0.500000 0.701157
O O6 0.000000 0.000000 0.683473
#
# Coordination Sequence:
#
# PCOD9557902 Si02
#       5
#     2   4   2   8   4
#     4  10  26  40  66 104 148 194 258 312 380 446
#     4  12  26  48  76 110 150 194 244 310 370 466
#     4  12  28  48  76 112 148 194 244 300 388 448
#     4  11  25  44  71 105 146 200 252 315 379 449
#     4  11  26  44  74 109 146 198 250 311 378 452
#
# _framework density 24.665655000000001
#
# number of rings (size 3 to 8) (size 9 to 14) (size 15 to 20)
#    0.000    0.800    0.000    5.400   14.000    3.200 
#    0.000    0.000    0.000    0.000    0.000    0.000 
#    0.000    0.000    0.000    0.000    0.000    0.000 
#
# Total GULP energy -111757.894924 kJ/mol
# GULP energy per Si atom -5587.894746 kJ/mol
# Density = 2.460952 g / cm^3
# Si number density = 24.665655 Si / 1000 Ang^3
#
#
#
# Elastic Constant Matrix: (Units=GPa)
#
#
# Indices 1 2 3 4 5 6 
#
# 1 167.3870 54.1180 49.5199 0.0000 0.0000 0.0000
# 2 54.1180 167.3870 49.5199 0.0000 0.0000 0.0000
# 3 49.5199 49.5199 132.0584 0.0000 0.0000 0.0000
# 4 0.0000 0.0000 0.0000 -1.5531 0.0000 0.0000
# 5 0.0000 0.0000 0.0000 0.0000 -1.5531 0.0000
# 6 0.0000 0.0000 0.0000 0.0000 0.0000 60.2302
#
#
#
# Elastic Compliance Matrix: (Units=1/GPa)
#
#
# Indices 1 2 3 4 5 6 
#
# 1 0.007126 -0.001702 -0.002034 0.000000 0.000000 0.000000
# 2 -0.001702 0.007126 -0.002034 0.000000 0.000000 0.000000
# 3 -0.002034 -0.002034 0.009098 0.000000 0.000000 0.000000
# 4 0.000000 0.000000 0.000000 -0.643856 0.000000 0.000000
# 5 0.000000 0.000000 0.000000 0.000000 -0.643856 0.000000
# 6 0.000000 0.000000 0.000000 0.000000 0.000000 0.016603
#
#
# Mechanical properties :
#
#
# Convention : Reuss Voigt Hill
#
# Bulk Modulus (GPa) = 84.67334 85.90535 85.28935
# Shear Modulus (GPa) = -4.05751 32.33642 14.13946
#
# Velocity S-wave (km/s) = -1.28397 3.62469 2.39685
# Velocity P-wave (km/s) = 5.67493 7.24026 6.50485
#
# Compressibility (1/GPa) = 0.01181009
#
# Stress axis : x y z
#
# Youngs Moduli (GPa) = 140.32610 140.32610 109.91690
#
# Poissons Ratio (x) = 0.23887 0.22356
# Poissons Ratio (y) = 0.23887 0.22356
# Poissons Ratio (z) = 0.28541 0.28541
#
# Static dielectric constant tensor:
#      x y z
#    x 2.234460 0.000000 0.000000 
#    y 0.000000 2.234460 0.000000 
#    z 0.000000 0.000000 1.969300 
# 
# From -- ./inp_files/4733.got.cif
#   From: 2010.05.17/outbox.cif.g08.bks.cpg/sg116_3_cif.got.tgz:4733.got - 2010.05.20 11:11:43.
