data_PCOD9557760
_publ_section_title
;
Structure prediction by ZEFSAII (Michael W. Deem and Ramdas Pophale) SiO2 
 PCOD9557760
Probable space group: P -4 C 2
;
_chemical_formula_sum "Si O2"
_cell_formula_units_Z 48
_cell_length_a 14.330703
_cell_length_b 14.330703
_cell_length_c 10.172852
_cell_angle_alpha 90.000000
_cell_angle_beta 90.000000
_cell_angle_gamma 90.000000
_cell_volume 2089.188936
_symmetry_space_group_name_H-M "P -4 C 2"
_symmetry_group_IT_number 116
_symmetry_cell_setting 'tetragonal'
loop_
_space_group_symop_operation_xyz
x,y,z
y,-x,-z
-x,-y,z
-y,x,-z
y,x,1/2-z
-y,-x,1/2-z
-x,y,1/2+z
x,-y,1/2+z
loop_
_atom_site_type_symbol
_atom_site_label
_atom_site_fract_x
_atom_site_fract_y
_atom_site_fract_z
Si Si1 0.061575 0.317794 0.374950
Si Si2 0.977466 0.857739 0.025537
Si Si3 0.485976 0.152444 0.977424
Si Si4 0.310031 0.689970 0.250000
Si Si5 0.114145 0.398571 0.781108
Si Si6 0.366720 0.451553 0.524720
Si Si7 0.826701 0.173300 0.750000
O O1 0.093893 0.397669 0.472841
O O2 0.155261 0.271623 0.317386
O O3 0.008497 0.233817 0.448774
O O4 0.988708 0.356790 0.267873
O O5 0.911333 0.836142 0.147359
O O6 0.070730 0.915407 0.061558
O O7 0.570558 0.118450 0.066671
O O8 0.483183 0.136228 0.820460
O O9 0.472288 0.260833 0.015970
O O10 0.329210 0.799870 0.242262
O O11 0.369690 0.647879 0.369752
O O12 0.409564 0.552067 0.569116
#
# Coordination Sequence:
#
# PCOD9557760 Si02
#       7
#     8   8   8   4   8   8   4
#     4  11  24  41  66  96 137 184 228 291 350 423
#     4   9  20  37  60  91 128 171 228 287 352 407
#     4  11  25  47  67 102 135 183 231 283 351 428
#     4  10  22  43  66 107 136 180 234 278 356 421
#     4  11  25  46  71  97 140 182 232 284 350 426
#     4  10  21  42  68  99 136 175 225 286 349 411
#     4  10  22  41  60  98 128 173 238 292 352 417
#
# _framework density 22.975421999999998
#
# number of rings (size 3 to 8) (size 9 to 14) (size 15 to 20)
#    0.000    1.667    1.667    1.500    0.000   17.333 
#    6.000    0.000    0.000    0.000    0.000    0.000 
#    0.000    0.000    0.000    0.000    0.000    0.000 
#
# Total GULP energy -267960.474516 kJ/mol
# GULP energy per Si atom -5582.509886 kJ/mol
# Density = 2.292313 g / cm^3
# Si number density = 22.975422 Si / 1000 Ang^3
#
#
#
# Elastic Constant Matrix: (Units=GPa)
#
#
# Indices 1 2 3 4 5 6 
#
# 1 80.7107 44.7977 4.3045 0.0000 0.0000 0.0000
# 2 44.7977 80.7119 4.3043 0.0000 0.0000 0.0000
# 3 4.3045 4.3043 34.0868 0.0000 0.0000 0.0000
# 4 0.0000 0.0000 0.0000 14.8821 0.0000 0.0000
# 5 0.0000 0.0000 0.0000 0.0000 14.8811 0.0000
# 6 0.0000 0.0000 0.0000 0.0000 0.0000 34.6128
#
#
#
# Elastic Compliance Matrix: (Units=1/GPa)
#
#
# Indices 1 2 3 4 5 6 
#
# 1 0.017941 -0.009904 -0.001015 0.000000 0.000000 0.000000
# 2 -0.009904 0.017941 -0.001015 0.000000 0.000000 0.000000
# 3 -0.001015 -0.001015 0.029593 0.000000 0.000000 0.000000
# 4 0.000000 0.000000 0.000000 0.067195 0.000000 0.000000
# 5 0.000000 0.000000 0.000000 0.000000 0.067199 0.000000
# 6 0.000000 0.000000 0.000000 0.000000 0.000000 0.028891
#
#
# Mechanical properties :
#
#
# Convention : Reuss Voigt Hill
#
# Bulk Modulus (GPa) = 24.03391 33.59139 28.81265
# Shear Modulus (GPa) = 18.76195 22.34871 20.55533
#
# Velocity S-wave (km/s) = 2.86074 3.12223 2.99434
# Velocity P-wave (km/s) = 4.62549 5.25834 4.95203
#
# Compressibility (1/GPa) = 0.04160787
#
# Stress axis : x y z
#
# Youngs Moduli (GPa) = 55.73811 55.73901 33.79153
#
# Poissons Ratio (x) = 0.55202 0.03430
# Poissons Ratio (y) = 0.55202 0.03429
# Poissons Ratio (z) = 0.05658 0.05656
#
# Static dielectric constant tensor:
#      x y z
#    x 1.875400 0.000000 0.000000 
#    y 0.000000 1.875400 0.000000 
#    z 0.000000 0.000000 1.917760 
# 
# From -- ./inp_files/1938.got.cif
#   From: 2010.05.17/outbox.cif.g08.bks.cpg/sg116_1_cif.got.tgz:1938.got - 2010.05.20 11:11:43.
