data_PCOD9557268
_publ_section_title
;
Structure prediction by ZEFSAII (Michael W. Deem and Ramdas Pophale) SiO2 
 PCOD9557268
Probable space group: P -4 M 2
;
_chemical_formula_sum "Si O2"
_cell_formula_units_Z 48
_cell_length_a 9.364546
_cell_length_b 9.364546
_cell_length_c 31.131074
_cell_angle_alpha 90.000000
_cell_angle_beta 90.000000
_cell_angle_gamma 90.000000
_cell_volume 2730.030873
_symmetry_space_group_name_H-M "P -4 M 2"
_symmetry_group_IT_number 115
_symmetry_cell_setting 'tetragonal'
loop_
_space_group_symop_operation_xyz
x,y,z
y,-x,-z
-x,-y,z
-y,x,-z
y,x,-z
-y,-x,-z
-x,y,z
x,-y,z
loop_
_atom_site_type_symbol
_atom_site_label
_atom_site_fract_x
_atom_site_fract_y
_atom_site_fract_z
Si Si1 0.669687 0.330636 0.299972
Si Si2 0.833199 0.828979 0.126051
Si Si3 0.332843 0.671098 0.200652
Si Si4 0.669191 0.669242 0.450039
Si Si5 0.330578 0.170358 0.038172
Si Si6 0.169288 0.830725 0.375187
O O1 0.500000 0.308211 0.306655
O O2 0.696384 0.500000 0.305889
O O3 0.701782 0.294362 0.250300
O O4 0.758948 0.240849 0.333685
O O5 0.765137 0.750955 0.166755
O O6 0.745377 0.792042 0.083102
O O7 0.000000 0.792672 0.120815
O O8 0.822338 0.000000 0.131835
O O9 0.500000 0.707106 0.193446
O O10 0.319040 0.500000 0.195949
O O11 0.700922 0.700922 0.500000
O O12 0.500000 0.694344 0.443189
O O13 0.693992 0.500000 0.443192
O O14 0.760290 0.760121 0.417054
O O15 0.500000 0.196740 0.040512
O O16 0.309085 0.000000 0.031059
O O17 0.258037 0.258037 0.000000
O O18 0.000000 0.805218 0.374979
O O19 0.194821 0.000000 0.375061
#
# Coordination Sequence:
#
# PCOD9557268 Si02
#       6
#     8   8   8   8   8   8
#     4   9  19  37  59  80 103 136 180 225 266 312
#     4  10  21  36  55  80 110 144 179 216 261 314
#     4   9  19  36  57  81 108 138 175 221 269 314
#     4   9  19  37  60  83 105 133 174 221 265 313
#     4  10  21  37  57  80 106 139 179 220 264 315
#     4  11  24  37  50  76 113 146 176 215 263 314
#
# _framework density 17.582218999999998
#
# number of rings (size 3 to 8) (size 9 to 14) (size 15 to 20)
#    0.000    2.333    0.000    3.500    0.000    9.000 
#    0.000    7.500    0.000    0.000    0.000    0.000 
#    0.000    0.000    0.000    0.000    0.000    0.000 
#
# Total GULP energy -268016.521267 kJ/mol
# GULP energy per Si atom -5583.677526 kJ/mol
# Density = 1.754220 g / cm^3
# Si number density = 17.582219 Si / 1000 Ang^3
#
#
#
# Elastic Constant Matrix: (Units=GPa)
#
#
# Indices 1 2 3 4 5 6 
#
# 1 95.5260 88.3463 111.0270 0.0000 0.0000 0.0000
# 2 88.3463 95.5260 111.0270 0.0000 0.0000 0.0000
# 3 111.0270 111.0270 169.9657 0.0000 0.0000 0.0000
# 4 0.0000 0.0000 0.0000 78.2882 0.0000 0.0000
# 5 0.0000 0.0000 0.0000 0.0000 78.2882 0.0000
# 6 0.0000 0.0000 0.0000 0.0000 0.0000 34.1842
#
#
#
# Elastic Compliance Matrix: (Units=1/GPa)
#
#
# Indices 1 2 3 4 5 6 
#
# 1 0.082520 -0.056760 -0.016827 0.000000 0.000000 0.000000
# 2 -0.056760 0.082520 -0.016827 0.000000 0.000000 0.000000
# 3 -0.016827 -0.016827 0.027868 0.000000 0.000000 0.000000
# 4 0.000000 0.000000 0.000000 0.012773 0.000000 0.000000
# 5 0.000000 0.000000 0.000000 0.000000 0.012773 0.000000
# 6 0.000000 0.000000 0.000000 0.000000 0.000000 0.029253
#
#
# Mechanical properties :
#
#
# Convention : Reuss Voigt Hill
#
# Bulk Modulus (GPa) = 82.78979 109.09093 95.94036
# Shear Modulus (GPa) = 11.55896 41.52660 26.54278
#
# Velocity S-wave (km/s) = 2.56681 4.86516 3.88962
# Velocity P-wave (km/s) = 7.48159 9.68197 8.65201
#
# Compressibility (1/GPa) = 0.01207878
#
# Stress axis : x y z
#
# Youngs Moduli (GPa) = 12.11822 12.11822 35.88352
#
# Poissons Ratio (x) = 0.68783 0.60383
# Poissons Ratio (y) = 0.68783 0.60383
# Poissons Ratio (z) = 0.20392 0.20392
#
# Static dielectric constant tensor:
#      x y z
#    x 1.578580 0.000000 0.000000 
#    y 0.000000 1.578580 0.000000 
#    z 0.000000 0.000000 1.574430 
# 
# From -- ./inp_files/5922.got.cif
#   From: 2010.05.17/outbox.cif.g08.bks.cpg/sg115_3_cif.got.tgz:5922.got - 2010.05.20 11:07:42.
