data_PCOD9557678
_publ_section_title
;
Structure prediction by ZEFSAII (Michael W. Deem and Ramdas Pophale) SiO2 
 PCOD9557678
Probable space group: P -4 C 2
;
_chemical_formula_sum "Si O2"
_cell_formula_units_Z 34
_cell_length_a 13.918656
_cell_length_b 13.918656
_cell_length_c 8.123194
_cell_angle_alpha 90.000000
_cell_angle_beta 90.000000
_cell_angle_gamma 90.000000
_cell_volume 1573.698127
_symmetry_space_group_name_H-M "P -4 C 2"
_symmetry_group_IT_number 116
_symmetry_cell_setting 'tetragonal'
loop_
_space_group_symop_operation_xyz
x,y,z
y,-x,-z
-x,-y,z
-y,x,-z
y,x,1/2-z
-y,-x,1/2-z
-x,y,1/2+z
x,-y,1/2+z
loop_
_atom_site_type_symbol
_atom_site_label
_atom_site_fract_x
_atom_site_fract_y
_atom_site_fract_z
Si Si1 0.939320 0.722375 0.503916
Si Si2 0.000000 0.000000 0.000000
Si Si3 0.845147 0.352032 0.496839
Si Si4 0.888080 0.888080 0.250000
Si Si5 0.214940 0.785061 0.250000
Si Si6 0.105696 0.537631 0.808197
O O1 0.904603 0.792064 0.354855
O O2 0.889035 0.759780 0.671608
O O3 0.907361 0.614349 0.455071
O O4 0.054517 0.707789 0.512348
O O5 0.088230 0.969351 0.886622
O O6 0.771268 0.280102 0.411659
O O7 0.836340 0.404713 0.670425
O O8 0.849276 0.440218 0.371051
O O9 0.000000 0.500000 0.749813
#
# Coordination Sequence:
#
# PCOD9557678 Si02
#       6
#     8   2   8   4   4   8
#     4  11  24  38  59  88 123 169 225 281 330 393
#     4  10  28  42  56  74 120 186 228 274 312 386
#     4  11  23  40  65  91 128 168 217 278 345 405
#     4  11  26  42  56  80 120 173 236 270 320 379
#     4  12  26  38  60  93 132 177 220 272 338 398
#     4  10  20  40  64  93 121 162 215 287 360 402
#
# _framework density 21.605159
#
# number of rings (size 3 to 8) (size 9 to 14) (size 15 to 20)
#    0.000    1.176    0.000    7.765    9.882    0.000 
#    0.000    0.000    0.000    0.000    0.000    0.000 
#    0.000   61.176    0.000    0.000    0.000    0.000 
#
# Total GULP energy -189906.545687 kJ/mol
# GULP energy per Si atom -5585.486638 kJ/mol
# Density = 2.155598 g / cm^3
# Si number density = 21.605159 Si / 1000 Ang^3
#
#
#
# Elastic Constant Matrix: (Units=GPa)
#
#
# Indices 1 2 3 4 5 6 
#
# 1 74.1266 17.2288 26.4257 0.0000 0.0000 0.0000
# 2 17.2288 74.1277 26.4255 0.0000 0.0000 0.0000
# 3 26.4257 26.4255 123.3667 0.0000 0.0000 0.0000
# 4 0.0000 0.0000 0.0000 48.9088 0.0000 0.0000
# 5 0.0000 0.0000 0.0000 0.0000 48.9082 0.0000
# 6 0.0000 0.0000 0.0000 0.0000 0.0000 14.8503
#
#
#
# Elastic Compliance Matrix: (Units=1/GPa)
#
#
# Indices 1 2 3 4 5 6 
#
# 1 0.015035 -0.002540 -0.002676 0.000000 0.000000 0.000000
# 2 -0.002540 0.015035 -0.002676 0.000000 0.000000 0.000000
# 3 -0.002676 -0.002676 0.009252 0.000000 0.000000 0.000000
# 4 0.000000 0.000000 0.000000 0.020446 0.000000 0.000000
# 5 0.000000 0.000000 0.000000 0.000000 0.020446 0.000000
# 6 0.000000 0.000000 0.000000 0.000000 0.000000 0.067339
#
#
# Mechanical properties :
#
#
# Convention : Reuss Voigt Hill
#
# Bulk Modulus (GPa) = 42.48801 45.75345 44.12073
# Shear Modulus (GPa) = 29.20813 35.96953 32.58883
#
# Velocity S-wave (km/s) = 3.68082 4.08469 3.88800
# Velocity P-wave (km/s) = 6.14597 6.59313 6.37347
#
# Compressibility (1/GPa) = 0.02353605
#
# Stress axis : x y z
#
# Youngs Moduli (GPa) = 66.51144 66.51261 108.07891
#
# Poissons Ratio (x) = 0.16897 0.28926
# Poissons Ratio (y) = 0.16896 0.28926
# Poissons Ratio (z) = 0.17801 0.17801
#
# Static dielectric constant tensor:
#      x y z
#    x 1.806850 0.000000 0.000000 
#    y 0.000000 1.806850 0.000000 
#    z 0.000000 0.000000 1.893880 
# 
# From -- ./inp_files/679.got.cif
#   From: 2010.05.17/outbox.cif.g08.bks.cpg/sg116_1_cif.got.tgz:679.got - 2010.05.20 11:11:43.
