data_PCOD9557724
_publ_section_title
;
Structure prediction by ZEFSAII (Michael W. Deem and Ramdas Pophale) SiO2 
 PCOD9557724
Probable space group: P -4 C 2
;
_chemical_formula_sum "Si O2"
_cell_formula_units_Z 60
_cell_length_a 12.180973
_cell_length_b 12.180973
_cell_length_c 20.286350
_cell_angle_alpha 90.000000
_cell_angle_beta 90.000000
_cell_angle_gamma 90.000000
_cell_volume 3010.009562
_symmetry_space_group_name_H-M "P -4 C 2"
_symmetry_group_IT_number 116
_symmetry_cell_setting 'tetragonal'
loop_
_space_group_symop_operation_xyz
x,y,z
y,-x,-z
-x,-y,z
-y,x,-z
y,x,1/2-z
-y,-x,1/2-z
-x,y,1/2+z
x,-y,1/2+z
loop_
_atom_site_type_symbol
_atom_site_label
_atom_site_fract_x
_atom_site_fract_y
_atom_site_fract_z
Si Si1 0.817017 0.135901 0.318602
Si Si2 0.475496 0.664651 0.009437
Si Si3 0.429393 0.101009 0.822001
Si Si4 0.684358 0.503708 0.250480
Si Si5 0.860988 0.383751 0.030430
Si Si6 0.000000 0.500000 0.920631
Si Si7 0.205777 0.387316 0.867652
Si Si8 0.911946 0.138664 0.034334
O O1 0.880279 0.119721 0.250000
O O2 0.695629 0.095598 0.298469
O O3 0.794556 0.264439 0.338661
O O4 0.867285 0.083618 0.385487
O O5 0.403876 0.721849 0.066062
O O6 0.579885 0.593469 0.034822
O O7 0.537817 0.756243 0.968773
O O8 0.481749 0.219754 0.803674
O O9 0.409735 0.084211 0.900000
O O10 0.500000 0.000000 0.795609
O O11 0.618909 0.618909 0.250000
O O12 0.591162 0.408839 0.250000
O O13 0.746558 0.477420 0.318031
O O14 0.848080 0.252951 0.023249
O O15 0.929431 0.423139 0.968269
O O16 0.918162 0.577016 0.881195
O O17 0.032516 0.143264 0.000047
#
# Coordination Sequence:
#
# PCOD9557724 Si02
#       8
#     8   8   8   8   8   4   8   8
#     4  11  21  41  67  97 128 176 222 268 336 408
#     4  10  22  34  55  86 124 165 208 264 328 390
#     4  11  21  38  63  91 127 170 217 266 321 396
#     4  11  24  39  62  92 126 175 222 263 330 399
#     4  10  21  39  59  91 123 162 212 266 324 384
#     4  10  22  38  62  94 122 170 218 270 322 398
#     4  11  21  39  61  89 131 171 223 269 330 406
#     4  10  22  41  66  92 124 165 216 276 333 384
#
# _framework density 19.933489999999999
#
# number of rings (size 3 to 8) (size 9 to 14) (size 15 to 20)
#    0.000    1.467    3.333    2.400    2.800    2.133 
#    0.000    1.333    0.000    3.200    0.000    0.000 
#    0.000    0.000    0.000    0.000    0.000    0.000 
#
# Total GULP energy -334246.675157 kJ/mol
# GULP energy per Si atom -5570.777919 kJ/mol
# Density = 1.988812 g / cm^3
# Si number density = 19.933490 Si / 1000 Ang^3
#
#
#
# Elastic Constant Matrix: (Units=GPa)
#
#
# Indices 1 2 3 4 5 6 
#
# 1 73.9270 21.3416 18.2793 0.0000 0.0000 0.0000
# 2 21.3416 73.9275 18.2797 0.0000 0.0000 0.0000
# 3 18.2793 18.2797 57.7705 0.0000 0.0000 0.0000
# 4 0.0000 0.0000 0.0000 200.1691 0.0000 0.0000
# 5 0.0000 0.0000 0.0000 0.0000 200.7201 0.0000
# 6 0.0000 0.0000 0.0000 0.0000 0.0000 31.9402
#
#
#
# Elastic Compliance Matrix: (Units=1/GPa)
#
#
# Indices 1 2 3 4 5 6 
#
# 1 0.015482 -0.003535 -0.003780 0.000000 0.000000 0.000000
# 2 -0.003535 0.015482 -0.003780 0.000000 0.000000 0.000000
# 3 -0.003780 -0.003780 0.019702 0.000000 0.000000 0.000000
# 4 0.000000 0.000000 0.000000 0.004996 0.000000 0.000000
# 5 0.000000 0.000000 0.000000 0.000000 0.004982 0.000000
# 6 0.000000 0.000000 0.000000 0.000000 0.000000 0.031308
#
#
# Mechanical properties :
#
#
# Convention : Reuss Voigt Hill
#
# Bulk Modulus (GPa) = 35.11791 35.71403 35.41597
# Shear Modulus (GPa) = 40.44168 96.41418 68.42793
#
# Velocity S-wave (km/s) = 4.50914 6.96225 5.86538
# Velocity P-wave (km/s) = 6.69071 9.08769 7.97971
#
# Compressibility (1/GPa) = 0.02847550
#
# Stress axis : x y z
#
# Youngs Moduli (GPa) = 64.59122 64.59148 50.75577
#
# Poissons Ratio (x) = 0.22831 0.19187
# Poissons Ratio (y) = 0.22831 0.19188
# Poissons Ratio (z) = 0.24417 0.24418
#
# Static dielectric constant tensor:
#      x y z
#    x 1.513930 0.000000 0.000000 
#    y 0.000000 1.514500 0.000000 
#    z 0.000000 0.000000 1.727130 
# 
# From -- ./inp_files/4209.got.cif
#   From: 2010.05.17/outbox.cif.g08.bks.cpg/sg116_3_cif.got.tgz:4209.got - 2010.05.20 11:11:43.
