data_PCOD9557909
_publ_section_title
;
Structure prediction by ZEFSAII (Michael W. Deem and Ramdas Pophale) SiO2 
 PCOD9557909
Probable space group: P -4 C 2
;
_chemical_formula_sum "Si O2"
_cell_formula_units_Z 20
_cell_length_a 5.277319
_cell_length_b 5.277319
_cell_length_c 32.282110
_cell_angle_alpha 90.000000
_cell_angle_beta 90.000000
_cell_angle_gamma 90.000000
_cell_volume 899.059857
_symmetry_space_group_name_H-M "P -4 C 2"
_symmetry_group_IT_number 116
_symmetry_cell_setting 'tetragonal'
loop_
_space_group_symop_operation_xyz
x,y,z
y,-x,-z
-x,-y,z
-y,x,-z
y,x,1/2-z
-y,-x,1/2-z
-x,y,1/2+z
x,-y,1/2+z
loop_
_atom_site_type_symbol
_atom_site_label
_atom_site_fract_x
_atom_site_fract_y
_atom_site_fract_z
Si Si1 0.500000 0.500000 0.638193
Si Si2 0.000000 0.000000 0.000000
Si Si3 0.353033 0.254873 0.056349
Si Si4 0.000000 0.000000 0.250000
Si Si5 0.000000 0.500000 0.693313
O O1 0.620978 0.293679 0.605977
O O2 0.254528 0.447703 0.666271
O O3 0.214579 0.909328 0.967436
O O4 0.500000 0.500000 0.041491
O O5 0.500000 0.000000 0.046573
O O6 0.017503 0.250317 0.221629
#
# Coordination Sequence:
#
# PCOD9557909 Si02
#       5
#     4   2   8   2   4
#     4  10  28  47  79 106 154 200 252 312 380 458
#     4  12  28  46  76 104 172 194 284 336 384 458
#     4  10  28  45  73 109 148 207 264 314 394 441
#     4  12  28  46  80 120 140 198 232 304 398 452
#     4  12  26  48  80 108 158 182 250 306 378 476
#
# _framework density 22.245457999999999
#
# number of rings (size 3 to 8) (size 9 to 14) (size 15 to 20)
#    1.200    0.000    0.000    2.400   16.800    0.000 
#    0.000    0.000    0.000    0.000    0.000    0.000 
#    0.000    0.000    0.000    0.000    0.000    0.000 
#
# Total GULP energy -111398.486616 kJ/mol
# GULP energy per Si atom -5569.924331 kJ/mol
# Density = 2.219483 g / cm^3
# Si number density = 22.245458 Si / 1000 Ang^3
#
#
#
# Elastic Constant Matrix: (Units=GPa)
#
#
# Indices 1 2 3 4 5 6 
#
# 1 160.3127 38.5290 81.7874 0.0000 0.0000 0.0000
# 2 38.5290 160.3127 81.7874 0.0000 0.0000 0.0000
# 3 81.7874 81.7874 187.1724 0.0000 0.0000 0.0000
# 4 0.0000 0.0000 0.0000 26.9900 0.0000 0.0000
# 5 0.0000 0.0000 0.0000 0.0000 26.9900 0.0000
# 6 0.0000 0.0000 0.0000 0.0000 0.0000 35.3808
#
#
#
# Elastic Compliance Matrix: (Units=1/GPa)
#
#
# Indices 1 2 3 4 5 6 
#
# 1 0.008031 -0.000180 -0.003431 0.000000 0.000000 0.000000
# 2 -0.000180 0.008031 -0.003431 0.000000 0.000000 0.000000
# 3 -0.003431 -0.003431 0.008341 0.000000 0.000000 0.000000
# 4 0.000000 0.000000 0.000000 0.037051 0.000000 0.000000
# 5 0.000000 0.000000 0.000000 0.000000 0.037051 0.000000
# 6 0.000000 0.000000 0.000000 0.000000 0.000000 0.028264
#
#
# Mechanical properties :
#
#
# Convention : Reuss Voigt Hill
#
# Bulk Modulus (GPa) = 96.89328 101.33395 99.11362
# Shear Modulus (GPa) = 34.65187 38.25174 36.45180
#
# Velocity S-wave (km/s) = 3.95106 4.15122 4.05238
# Velocity P-wave (km/s) = 8.02904 8.28422 8.15763
#
# Compressibility (1/GPa) = 0.01032063
#
# Stress axis : x y z
#
# Youngs Moduli (GPa) = 124.51205 124.51205 119.89093
#
# Poissons Ratio (x) = 0.02240 0.41132
# Poissons Ratio (y) = 0.02240 0.41132
# Poissons Ratio (z) = 0.42717 0.42717
#
# Static dielectric constant tensor:
#      x y z
#    x 1.849620 0.000000 0.000000 
#    y 0.000000 1.849620 0.000000 
#    z 0.000000 0.000000 1.861050 
# 
# From -- ./inp_files/4693.got.cif
#   From: 2010.05.17/outbox.cif.g08.bks.cpg/sg116_3_cif.got.tgz:4693.got - 2010.05.20 11:11:43.
