data_PCOD9557837
_publ_section_title
;
Structure prediction by ZEFSAII (Michael W. Deem and Ramdas Pophale) SiO2 
 PCOD9557837
Probable space group: P -4 C 2
;
_chemical_formula_sum "Si O2"
_cell_formula_units_Z 20
_cell_length_a 5.037709
_cell_length_b 5.037709
_cell_length_c 32.645465
_cell_angle_alpha 90.000000
_cell_angle_beta 90.000000
_cell_angle_gamma 90.000000
_cell_volume 828.493324
_symmetry_space_group_name_H-M "P -4 C 2"
_symmetry_group_IT_number 116
_symmetry_cell_setting 'tetragonal'
loop_
_space_group_symop_operation_xyz
x,y,z
y,-x,-z
-x,-y,z
-y,x,-z
y,x,1/2-z
-y,-x,1/2-z
-x,y,1/2+z
x,-y,1/2+z
loop_
_atom_site_type_symbol
_atom_site_label
_atom_site_fract_x
_atom_site_fract_y
_atom_site_fract_z
Si Si1 0.500000 0.000000 0.055694
Si Si2 0.500000 0.500000 0.250000
Si Si3 0.500000 0.500000 0.500000
Si Si4 0.000000 0.000000 0.389592
Si Si5 0.178820 0.230878 0.811185
O O1 0.421316 0.750223 0.027868
O O2 0.247068 0.086569 0.082892
O O3 0.275913 0.565278 0.216475
O O4 0.787657 0.130960 0.357868
O O5 0.000000 0.500000 0.811496
O O6 0.000000 0.000000 0.792986
#
# Coordination Sequence:
#
# PCOD9557837 Si02
#       5
#     4   2   2   4   8
#     4  12  24  50  72 110 148 182 238 304 358 478
#     4  12  26  38  74  94 160 190 274 318 360 436
#     4  12  28  46  80 112 136 194 228 292 392 438
#     4  10  22  46  70 104 150 190 246 302 376 444
#     4  10  24  45  65 105 141 199 255 306 382 427
#
# _framework density 24.140205999999999
#
# number of rings (size 3 to 8) (size 9 to 14) (size 15 to 20)
#    1.200    0.000    2.000    3.000    5.600    1.600 
#    7.200    0.000    0.000    0.000    0.000    0.000 
#    0.000    0.000    0.000    0.000    0.000    0.000 
#
# Total GULP energy -111515.453446 kJ/mol
# GULP energy per Si atom -5575.772672 kJ/mol
# Density = 2.408526 g / cm^3
# Si number density = 24.140206 Si / 1000 Ang^3
#
#
#
# Elastic Constant Matrix: (Units=GPa)
#
#
# Indices 1 2 3 4 5 6 
#
# 1 150.1281 35.5555 40.7981 0.0000 0.0000 0.0000
# 2 35.5555 150.1281 40.7981 0.0000 0.0000 0.0000
# 3 40.7981 40.7981 140.9628 0.0000 0.0000 0.0000
# 4 0.0000 0.0000 0.0000 53.0027 0.0000 0.0000
# 5 0.0000 0.0000 0.0000 0.0000 53.0027 0.0000
# 6 0.0000 0.0000 0.0000 0.0000 0.0000 39.5451
#
#
#
# Elastic Compliance Matrix: (Units=1/GPa)
#
#
# Indices 1 2 3 4 5 6 
#
# 1 0.007449 -0.001279 -0.001786 0.000000 0.000000 0.000000
# 2 -0.001279 0.007449 -0.001786 0.000000 0.000000 0.000000
# 3 -0.001786 -0.001786 0.008128 0.000000 0.000000 0.000000
# 4 0.000000 0.000000 0.000000 0.018867 0.000000 0.000000
# 5 0.000000 0.000000 0.000000 0.000000 0.018867 0.000000
# 6 0.000000 0.000000 0.000000 0.000000 0.000000 0.025288
#
#
# Mechanical properties :
#
#
# Convention : Reuss Voigt Hill
#
# Bulk Modulus (GPa) = 75.04681 75.05804 75.05242
# Shear Modulus (GPa) = 49.90496 50.71459 50.30977
#
# Velocity S-wave (km/s) = 4.55169 4.58846 4.57011
# Velocity P-wave (km/s) = 7.66676 7.69623 7.68151
#
# Compressibility (1/GPa) = 0.01332502
#
# Stress axis : x y z
#
# Youngs Moduli (GPa) = 134.24303 134.24303 123.03463
#
# Poissons Ratio (x) = 0.17169 0.21972
# Poissons Ratio (y) = 0.17169 0.21972
# Poissons Ratio (z) = 0.23973 0.23973
#
# Static dielectric constant tensor:
#      x y z
#    x 1.947770 0.000000 0.000000 
#    y 0.000000 1.947770 0.000000 
#    z 0.000000 0.000000 1.944730 
# 
# From -- ./inp_files/5015.got.cif
#   From: 2010.05.17/outbox.cif.g08.bks.cpg/sg116_3_cif.got.tgz:5015.got - 2010.05.20 11:11:43.
