data_PCOD9557875
_publ_section_title
;
Structure prediction by ZEFSAII (Michael W. Deem and Ramdas Pophale) SiO2 
 PCOD9557875
Probable space group: P -4 C 2
;
_chemical_formula_sum "Si O2"
_cell_formula_units_Z 34
_cell_length_a 9.793287
_cell_length_b 9.793287
_cell_length_c 14.474765
_cell_angle_alpha 90.000000
_cell_angle_beta 90.000000
_cell_angle_gamma 90.000000
_cell_volume 1388.252569
_symmetry_space_group_name_H-M "P -4 C 2"
_symmetry_group_IT_number 116
_symmetry_cell_setting 'tetragonal'
loop_
_space_group_symop_operation_xyz
x,y,z
y,-x,-z
-x,-y,z
-y,x,-z
y,x,1/2-z
-y,-x,1/2-z
-x,y,1/2+z
x,-y,1/2+z
loop_
_atom_site_type_symbol
_atom_site_label
_atom_site_fract_x
_atom_site_fract_y
_atom_site_fract_z
Si Si1 0.277933 0.102584 0.451585
Si Si2 0.641315 0.330702 0.473849
Si Si3 0.339296 0.891321 0.753063
Si Si4 0.000000 0.000000 0.500000
Si Si5 0.372565 0.144580 0.652478
O O1 0.224688 0.224688 0.250000
O O2 0.367734 0.088389 0.361435
O O3 0.354742 0.081063 0.548851
O O4 0.139257 0.017635 0.443193
O O5 0.482639 0.320074 0.489172
O O6 0.736859 0.235148 0.535644
O O7 0.701205 0.322838 0.370063
O O8 0.476054 0.852875 0.696154
O O9 0.291095 0.037793 0.714548
#
# Coordination Sequence:
#
# PCOD9557875 Si02
#       5
#     8   8   8   2   8
#     4  10  24  43  72 102 151 202 257 324 395 462
#     4   9  19  43  74 104 143 191 253 325 392 462
#     4  11  21  42  72 108 154 201 256 326 388 481
#     4  12  24  52  74 108 156 218 264 332 402 480
#     4   9  23  41  66 111 142 199 267 309 404 471
#
# _framework density 24.491219999999998
#
# number of rings (size 3 to 8) (size 9 to 14) (size 15 to 20)
#    1.412    0.706    0.000    2.824    0.000    5.647 
#    8.471    8.824    0.000    4.235    0.000    0.000 
#    0.000    0.000    0.000    0.000    0.000    0.000 
#
# Total GULP energy -189494.317284 kJ/mol
# GULP energy per Si atom -5573.362273 kJ/mol
# Density = 2.443548 g / cm^3
# Si number density = 24.491220 Si / 1000 Ang^3
#
#
#
# Elastic Constant Matrix: (Units=GPa)
#
#
# Indices 1 2 3 4 5 6 
#
# 1 105.6613 39.3118 28.4299 0.0000 0.0000 0.0000
# 2 39.3118 105.6613 28.4299 0.0000 0.0000 0.0000
# 3 28.4299 28.4299 139.8859 0.0000 0.0000 0.0000
# 4 0.0000 0.0000 0.0000 15.6535 0.0000 0.0000
# 5 0.0000 0.0000 0.0000 0.0000 15.6535 0.0000
# 6 0.0000 0.0000 0.0000 0.0000 0.0000 48.2801
#
#
#
# Elastic Compliance Matrix: (Units=1/GPa)
#
#
# Indices 1 2 3 4 5 6 
#
# 1 0.011283 -0.003788 -0.001523 0.000000 0.000000 0.000000
# 2 -0.003788 0.011283 -0.001523 0.000000 0.000000 0.000000
# 3 -0.001523 -0.001523 0.007768 0.000000 0.000000 0.000000
# 4 0.000000 0.000000 0.000000 0.063884 0.000000 0.000000
# 5 0.000000 0.000000 0.000000 0.000000 0.063884 0.000000
# 6 0.000000 0.000000 0.000000 0.000000 0.000000 0.020712
#
#
# Mechanical properties :
#
#
# Convention : Reuss Voigt Hill
#
# Bulk Modulus (GPa) = 60.00534 60.39465 60.20000
# Shear Modulus (GPa) = 25.24751 32.91986 29.08369
#
# Velocity S-wave (km/s) = 3.21422 3.67024 3.44977
# Velocity P-wave (km/s) = 6.19103 6.53255 6.36408
#
# Compressibility (1/GPa) = 0.01666518
#
# Stress axis : x y z
#
# Youngs Moduli (GPa) = 88.62502 88.62502 128.73540
#
# Poissons Ratio (x) = 0.33573 0.19610
# Poissons Ratio (y) = 0.33573 0.19610
# Poissons Ratio (z) = 0.13500 0.13500
#
# Static dielectric constant tensor:
#      x y z
#    x 2.014580 0.000000 0.000000 
#    y 0.000000 2.014580 0.000000 
#    z 0.000000 0.000000 1.976800 
# 
# From -- ./inp_files/1728.got.cif
#   From: 2010.05.17/outbox.cif.g08.bks.cpg/sg116_1_cif.got.tgz:1728.got - 2010.05.20 11:11:43.
