data_PCOD9557889
_publ_section_title
;
Structure prediction by ZEFSAII (Michael W. Deem and Ramdas Pophale) SiO2 
 PCOD9557889
Probable space group: P -4 C 2
;
_chemical_formula_sum "Si O2"
_cell_formula_units_Z 40
_cell_length_a 8.756826
_cell_length_b 8.756826
_cell_length_c 23.573775
_cell_angle_alpha 90.000000
_cell_angle_beta 90.000000
_cell_angle_gamma 90.000000
_cell_volume 1807.684252
_symmetry_space_group_name_H-M "P -4 C 2"
_symmetry_group_IT_number 116
_symmetry_cell_setting 'tetragonal'
loop_
_space_group_symop_operation_xyz
x,y,z
y,-x,-z
-x,-y,z
-y,x,-z
y,x,1/2-z
-y,-x,1/2-z
-x,y,1/2+z
x,-y,1/2+z
loop_
_atom_site_type_symbol
_atom_site_label
_atom_site_fract_x
_atom_site_fract_y
_atom_site_fract_z
Si Si1 0.289138 0.479191 0.217033
Si Si2 0.915002 0.244738 0.501016
Si Si3 0.337523 0.045392 0.620839
Si Si4 0.237589 0.889653 0.303355
Si Si5 0.811325 0.287602 0.622161
O O1 0.320521 0.320521 0.250000
O O2 0.404873 0.595128 0.250000
O O3 0.147077 0.591750 0.217910
O O4 0.293580 0.416101 0.152369
O O5 0.900805 0.345318 0.444528
O O6 0.863023 0.327012 0.558544
O O7 0.089498 0.184463 0.507625
O O8 0.241195 0.170710 0.654913
O O9 0.500000 0.000000 0.646228
O O10 0.256766 0.881545 0.618759
O O11 0.124067 0.875934 0.250000
O O12 0.257641 0.043639 0.337630
#
# Coordination Sequence:
#
# PCOD9557889 Si02
#       5
#     8   8   8   8   8
#     4  10  25  43  66  93 138 183 228 289 361 440
#     4   9  18  41  67  98 136 176 233 303 359 415
#     4  11  25  39  67 106 140 176 234 296 357 430
#     4  11  25  42  67 100 135 179 237 291 350 436
#     4  11  23  43  73  95 132 190 237 294 364 422
#
# _framework density 22.127761
#
# number of rings (size 3 to 8) (size 9 to 14) (size 15 to 20)
#    0.000    1.600    2.000    1.200   11.200    2.400 
#    0.000    0.000    0.000    0.000    0.000    0.000 
#    0.000    0.000    0.000    0.000    0.000    0.000 
#
# Total GULP energy -222728.519515 kJ/mol
# GULP energy per Si atom -5568.212988 kJ/mol
# Density = 2.207740 g / cm^3
# Si number density = 22.127761 Si / 1000 Ang^3
#
#
#
# Elastic Constant Matrix: (Units=GPa)
#
#
# Indices 1 2 3 4 5 6 
#
# 1 67.5288 25.0647 35.9785 0.0000 0.0000 0.0000
# 2 25.0647 67.5285 35.9787 0.0000 0.0000 0.0000
# 3 35.9785 35.9787 165.1478 0.0000 0.0000 0.0000
# 4 0.0000 0.0000 0.0000 23.0632 0.0000 0.0000
# 5 0.0000 0.0000 0.0000 0.0000 23.0631 0.0000
# 6 0.0000 0.0000 0.0000 0.0000 0.0000 39.1576
#
#
#
# Elastic Compliance Matrix: (Units=1/GPa)
#
#
# Indices 1 2 3 4 5 6 
#
# 1 0.018275 -0.005274 -0.002832 0.000000 0.000000 0.000000
# 2 -0.005274 0.018275 -0.002832 0.000000 0.000000 0.000000
# 3 -0.002832 -0.002832 0.007289 0.000000 0.000000 0.000000
# 4 0.000000 0.000000 0.000000 0.043359 0.000000 0.000000
# 5 0.000000 0.000000 0.000000 0.000000 0.043359 0.000000
# 6 0.000000 0.000000 0.000000 0.000000 0.000000 0.025538
#
#
# Mechanical properties :
#
#
# Convention : Reuss Voigt Hill
#
# Bulk Modulus (GPa) = 45.53343 54.91654 50.22498
# Shear Modulus (GPa) = 26.98408 30.60232 28.79320
#
# Velocity S-wave (km/s) = 3.49588 3.72288 3.61116
# Velocity P-wave (km/s) = 6.07594 6.58420 6.33517
#
# Compressibility (1/GPa) = 0.02196189
#
# Stress axis : x y z
#
# Youngs Moduli (GPa) = 54.71905 54.71868 137.18767
#
# Poissons Ratio (x) = 0.28860 0.38856
# Poissons Ratio (y) = 0.28860 0.38857
# Poissons Ratio (z) = 0.15498 0.15498
#
# Static dielectric constant tensor:
#      x y z
#    x 1.976110 0.000000 0.000000 
#    y 0.000000 1.976120 0.000000 
#    z 0.000000 0.000000 1.849470 
# 
# From -- ./inp_files/4407.got.cif
#   From: 2010.05.17/outbox.cif.g08.bks.cpg/sg116_3_cif.got.tgz:4407.got - 2010.05.20 11:11:43.
