data_PCOD9557094
_publ_section_title
;
Structure prediction by ZEFSAII (Michael W. Deem and Ramdas Pophale) SiO2 
 PCOD9557094
Probable space group: P -4 M 2
;
_chemical_formula_sum "Si O2"
_cell_formula_units_Z 40
_cell_length_a 7.966368
_cell_length_b 7.966368
_cell_length_c 30.912139
_cell_angle_alpha 90.000000
_cell_angle_beta 90.000000
_cell_angle_gamma 90.000000
_cell_volume 1961.777668
_symmetry_space_group_name_H-M "P -4 M 2"
_symmetry_group_IT_number 115
_symmetry_cell_setting 'tetragonal'
loop_
_space_group_symop_operation_xyz
x,y,z
y,-x,-z
-x,-y,z
-y,x,-z
y,x,-z
-y,-x,-z
-x,y,z
x,-y,z
loop_
_atom_site_type_symbol
_atom_site_label
_atom_site_fract_x
_atom_site_fract_y
_atom_site_fract_z
Si Si1 0.693078 0.202601 0.360755
Si Si2 0.000000 0.798041 0.200644
Si Si3 0.000000 0.698586 0.300436
Si Si4 0.688375 0.799985 0.046318
Si Si5 0.187857 0.699842 0.546193
Si Si6 0.794787 0.303876 0.858720
O O1 0.500000 0.259273 0.351693
O O2 0.753837 0.267672 0.408138
O O3 0.831770 0.242723 0.325176
O O4 0.685788 0.000000 0.364766
O O5 0.168853 0.736343 0.176445
O O6 0.000000 0.757673 0.251031
O O7 0.000000 0.000000 0.196211
O O8 0.000000 0.500000 0.301090
O O9 0.500000 0.731639 0.043630
O O10 0.756341 0.741808 0.092898
O O11 0.680880 0.000000 0.050551
O O12 0.768651 0.768651 0.000000
O O13 0.269513 0.730488 0.500000
O O14 0.176699 0.500000 0.551445
O O15 0.000000 0.771921 0.543383
O O16 0.743872 0.500000 0.852782
O O17 0.000000 0.305354 0.857242
#
# Coordination Sequence:
#
# PCOD9557094 Si02
#       6
#     8   4   4   8   8   8
#     4   9  20  41  64  85 114 154 201 248 292 350
#     4  10  20  36  60  82 104 144 198 240 290 349
#     4  12  26  40  58  88 122 154 190 246 308 365
#     4   9  18  31  48  75 108 141 178 221 269 325
#     4   9  19  34  53  81 114 147 186 229 277 337
#     4   8  16  32  53  79 110 139 180 238 286 335
#
# _framework density 20.389672999999998
#
# number of rings (size 3 to 8) (size 9 to 14) (size 15 to 20)
#    0.000    2.800    0.000    3.300    2.800    2.800 
#    0.000    5.000    0.000    1.200    0.000    0.000 
#    0.000    0.000    0.000    0.000    0.000    0.000 
#
# Total GULP energy -222748.106595 kJ/mol
# GULP energy per Si atom -5568.702665 kJ/mol
# Density = 2.034327 g / cm^3
# Si number density = 20.389673 Si / 1000 Ang^3
#
#
#
# Elastic Constant Matrix: (Units=GPa)
#
#
# Indices 1 2 3 4 5 6 
#
# 1 52.8408 21.5595 56.7824 0.0000 0.0000 0.0000
# 2 21.5595 52.8412 56.7827 0.0000 0.0000 0.0000
# 3 56.7824 56.7827 218.4626 0.0000 0.0000 0.0000
# 4 0.0000 0.0000 0.0000 107.9272 0.0000 0.0000
# 5 0.0000 0.0000 0.0000 0.0000 107.9207 0.0000
# 6 0.0000 0.0000 0.0000 0.0000 0.0000 10.0618
#
#
#
# Elastic Compliance Matrix: (Units=1/GPa)
#
#
# Indices 1 2 3 4 5 6 
#
# 1 0.027124 -0.004844 -0.005791 0.000000 0.000000 0.000000
# 2 -0.004844 0.027124 -0.005791 0.000000 0.000000 0.000000
# 3 -0.005791 -0.005791 0.007588 0.000000 0.000000 0.000000
# 4 0.000000 0.000000 0.000000 0.009266 0.000000 0.000000
# 5 0.000000 0.000000 0.000000 0.000000 0.009266 0.000000
# 6 0.000000 0.000000 0.000000 0.000000 0.000000 0.099386
#
#
# Mechanical properties :
#
#
# Convention : Reuss Voigt Hill
#
# Bulk Modulus (GPa) = 34.50161 66.04374 50.27267
# Shear Modulus (GPa) = 22.49550 57.78328 40.13939
#
# Velocity S-wave (km/s) = 3.32517 5.32926 4.44172
# Velocity P-wave (km/s) = 5.63029 8.38624 7.14245
#
# Compressibility (1/GPa) = 0.02898416
#
# Stress axis : x y z
#
# Youngs Moduli (GPa) = 36.86761 36.86780 131.78957
#
# Poissons Ratio (x) = 0.17858 0.76320
# Poissons Ratio (y) = 0.17858 0.76320
# Poissons Ratio (z) = 0.21350 0.21350
#
# Static dielectric constant tensor:
#      x y z
#    x 1.748370 0.000000 0.000000 
#    y 0.000000 1.748370 0.000000 
#    z 0.000000 0.000000 1.777590 
# 
# From -- ./inp_files/5544.got.cif
#   From: 2010.05.17/outbox.cif.g08.bks.cpg/sg115_3_cif.got.tgz:5544.got - 2010.05.20 11:07:42.
