data_PCOD9557993
_publ_section_title
;
Structure prediction by ZEFSAII (Michael W. Deem and Ramdas Pophale) SiO2 
 PCOD9557993
Probable space group: P -4 C 2
;
_chemical_formula_sum "Si O2"
_cell_formula_units_Z 24
_cell_length_a 10.327654
_cell_length_b 10.327654
_cell_length_c 8.865684
_cell_angle_alpha 90.000000
_cell_angle_beta 90.000000
_cell_angle_gamma 90.000000
_cell_volume 945.617731
_symmetry_space_group_name_H-M "P -4 C 2"
_symmetry_group_IT_number 116
_symmetry_cell_setting 'tetragonal'
loop_
_space_group_symop_operation_xyz
x,y,z
y,-x,-z
-x,-y,z
-y,x,-z
y,x,1/2-z
-y,-x,1/2-z
-x,y,1/2+z
x,-y,1/2+z
loop_
_atom_site_type_symbol
_atom_site_label
_atom_site_fract_x
_atom_site_fract_y
_atom_site_fract_z
Si Si1 0.941793 0.834454 0.407969
Si Si2 0.297673 0.567311 0.494888
Si Si3 0.125875 0.430719 0.266930
O O1 0.901286 0.901286 0.250000
O O2 0.915103 0.683882 0.379991
O O3 0.089412 0.861397 0.461848
O O4 0.424275 0.649811 0.460253
O O5 0.205383 0.539251 0.356049
O O6 0.216842 0.621726 0.634413
O O7 0.000000 0.500000 0.200254
#
# Coordination Sequence:
#
# PCOD9557993 Si02
#       3
#     8   8   8
#     4  11  26  50  77 111 156 208 258 317 396 466
#     4  11  25  50  77 109 152 205 256 321 393 457
#     4  12  28  46  78 117 153 204 261 323 385 464
#
# _framework density 25.380234000000002
#
# number of rings (size 3 to 8) (size 9 to 14) (size 15 to 20)
#    0.000    0.667    0.000    7.000   14.000    2.667 
#    0.000    0.000    0.000    0.000    0.000    0.000 
#    0.000    0.000    0.000    0.000    0.000    0.000 
#
# Total GULP energy -134530.944553 kJ/mol
# GULP energy per Si atom -5605.456023 kJ/mol
# Density = 2.532247 g / cm^3
# Si number density = 25.380234 Si / 1000 Ang^3
#
#
#
# Elastic Constant Matrix: (Units=GPa)
#
#
# Indices 1 2 3 4 5 6 
#
# 1 111.1716 30.3844 24.5792 0.0000 0.0000 0.0000
# 2 30.3844 111.1716 24.5792 0.0000 0.0000 0.0000
# 3 24.5792 24.5792 106.4054 0.0000 0.0000 0.0000
# 4 0.0000 0.0000 0.0000 44.4298 0.0000 0.0000
# 5 0.0000 0.0000 0.0000 0.0000 44.4298 0.0000
# 6 0.0000 0.0000 0.0000 0.0000 0.0000 41.6737
#
#
#
# Elastic Compliance Matrix: (Units=1/GPa)
#
#
# Indices 1 2 3 4 5 6 
#
# 1 0.010029 -0.002349 -0.001774 0.000000 0.000000 0.000000
# 2 -0.002349 0.010029 -0.001774 0.000000 0.000000 0.000000
# 3 -0.001774 -0.001774 0.010218 0.000000 0.000000 0.000000
# 4 0.000000 0.000000 0.000000 0.022507 0.000000 0.000000
# 5 0.000000 0.000000 0.000000 0.000000 0.022507 0.000000
# 6 0.000000 0.000000 0.000000 0.000000 0.000000 0.023996
#
#
# Mechanical properties :
#
#
# Convention : Reuss Voigt Hill
#
# Bulk Modulus (GPa) = 54.10678 54.20377 54.15528
# Shear Modulus (GPa) = 42.64679 42.72038 42.68358
#
# Velocity S-wave (km/s) = 4.10361 4.10715 4.10538
# Velocity P-wave (km/s) = 6.61949 6.62530 6.62239
#
# Compressibility (1/GPa) = 0.01848197
#
# Stress axis : x y z
#
# Youngs Moduli (GPa) = 99.70759 99.70759 97.86975
#
# Poissons Ratio (x) = 0.23420 0.17364
# Poissons Ratio (y) = 0.23420 0.17364
# Poissons Ratio (z) = 0.17690 0.17690
#
# Static dielectric constant tensor:
#      x y z
#    x 1.996260 0.000000 0.000000 
#    y 0.000000 1.996260 0.000000 
#    z 0.000000 0.000000 1.944630 
# 
# From -- ./inp_files/484.got.cif
#   From: 2010.05.17/outbox.cif.g08.bks.cpg/sg116_1_cif.got.tgz:484.got - 2010.05.20 11:11:43.
