data_PCOD9557813
_publ_section_title
;
Structure prediction by ZEFSAII (Michael W. Deem and Ramdas Pophale) SiO2 
 PCOD9557813
Probable space group: P -4 C 2
;
_chemical_formula_sum "Si O2"
_cell_formula_units_Z 34
_cell_length_a 12.162400
_cell_length_b 12.162400
_cell_length_c 10.166006
_cell_angle_alpha 90.000000
_cell_angle_beta 90.000000
_cell_angle_gamma 90.000000
_cell_volume 1503.796005
_symmetry_space_group_name_H-M "P -4 C 2"
_symmetry_group_IT_number 116
_symmetry_cell_setting 'tetragonal'
loop_
_space_group_symop_operation_xyz
x,y,z
y,-x,-z
-x,-y,z
-y,x,-z
y,x,1/2-z
-y,-x,1/2-z
-x,y,1/2+z
x,-y,1/2+z
loop_
_atom_site_type_symbol
_atom_site_label
_atom_site_fract_x
_atom_site_fract_y
_atom_site_fract_z
Si Si1 0.214798 0.918500 0.654389
Si Si2 0.159591 0.788280 0.391732
Si Si3 0.235229 0.411673 0.291825
Si Si4 0.500000 0.500000 0.500000
Si Si5 0.284201 0.405528 0.592949
O O1 0.111164 0.888837 0.750000
O O2 0.176873 0.864626 0.517207
O O3 0.318303 0.858042 0.723900
O O4 0.259711 0.037736 0.609888
O O5 0.154342 0.845659 0.250000
O O6 0.274263 0.722126 0.391704
O O7 0.347026 0.347026 0.250000
O O8 0.238867 0.433722 0.447527
O O9 0.225002 0.518947 0.201311
O O10 0.410871 0.439185 0.588208
#
# Coordination Sequence:
#
# PCOD9557813 Si02
#       5
#     8   8   8   2   8
#     4  10  23  45  72 105 144 185 241 310 373 440
#     4  11  25  43  71 106 140 188 243 304 369 446
#     4  10  22  42  67 103 139 184 237 302 359 437
#     4  12  24  42  72 102 132 194 244 298 352 442
#     4  11  25  40  70 101 140 184 243 299 366 434
#
# _framework density 22.609449000000001
#
# number of rings (size 3 to 8) (size 9 to 14) (size 15 to 20)
#    0.000    1.412    2.353    1.412    3.294    3.765 
#    0.000    1.176    5.176    0.000    0.000    0.000 
#    0.000    0.000    0.000    0.000    0.000    0.000 
#
# Total GULP energy -189630.081157 kJ/mol
# GULP energy per Si atom -5577.355328 kJ/mol
# Density = 2.255799 g / cm^3
# Si number density = 22.609449 Si / 1000 Ang^3
#
#
#
# Elastic Constant Matrix: (Units=GPa)
#
#
# Indices 1 2 3 4 5 6 
#
# 1 -330.5288 526.9802 36.5142 0.0000 0.0000 0.0000
# 2 526.9802 -330.4991 36.5353 0.0000 0.0000 0.0000
# 3 36.5142 36.5353 146.0471 0.0000 0.0000 0.0000
# 4 0.0000 0.0000 0.0000 -84.8798 0.0000 0.0000
# 5 0.0000 0.0000 0.0000 0.0000 -84.8536 0.0000
# 6 0.0000 0.0000 0.0000 0.0000 0.0000 7.1555
#
#
#
# Elastic Compliance Matrix: (Units=1/GPa)
#
#
# Indices 1 2 3 4 5 6 
#
# 1 0.002223 0.003389 -0.001404 0.000000 0.000000 0.000000
# 2 0.003389 0.002223 -0.001403 0.000000 0.000000 0.000000
# 3 -0.001404 -0.001403 0.007549 0.000000 0.000000 0.000000
# 4 0.000000 0.000000 0.000000 -0.011781 0.000000 0.000000
# 5 0.000000 0.000000 0.000000 0.000000 -0.011785 0.000000
# 6 0.000000 0.000000 0.000000 0.000000 0.000000 0.139753
#
#
# Mechanical properties :
#
#
# Convention : Reuss Voigt Hill
#
# Bulk Modulus (GPa) = 75.99457 76.11984 76.05720
# Shear Modulus (GPa) = 38.05068 -106.84962 -34.39947
#
# Velocity S-wave (km/s) = 4.10683 -6.88196 -3.90483
# Velocity P-wave (km/s) = 7.49486 5.42293 3.65819
#
# Compressibility (1/GPa) = 0.01315884
#
# Stress axis : x y z
#
# Youngs Moduli (GPa) = 449.89931 449.87393 132.46654
#
# Poissons Ratio (x) = -1.52461 0.18592
# Poissons Ratio (y) = -1.52470 0.18590
# Poissons Ratio (z) = 0.63144 0.63134
#
# Static dielectric constant tensor:
#      x y z
#    x 1.984790 0.000000 0.000000 
#    y 0.000000 1.984810 0.000000 
#    z 0.000000 0.000000 1.956940 
# 
# From -- ./inp_files/1604.got.cif
#   From: 2010.05.17/outbox.cif.g08.bks.cpg/sg116_1_cif.got.tgz:1604.got - 2010.05.20 11:11:43.
