data_PCOD9557450
_publ_section_title
;
Structure prediction by ZEFSAII (Michael W. Deem and Ramdas Pophale) SiO2 
 PCOD9557450
Probable space group: P -4 M 2
;
_chemical_formula_sum "Si O2"
_cell_formula_units_Z 32
_cell_length_a 9.177109
_cell_length_b 9.177109
_cell_length_c 21.660850
_cell_angle_alpha 90.000000
_cell_angle_beta 90.000000
_cell_angle_gamma 90.000000
_cell_volume 1824.262266
_symmetry_space_group_name_H-M "P -4 M 2"
_symmetry_group_IT_number 115
_symmetry_cell_setting 'tetragonal'
loop_
_space_group_symop_operation_xyz
x,y,z
y,-x,-z
-x,-y,z
-y,x,-z
y,x,-z
-y,-x,-z
-x,y,z
x,-y,z
loop_
_atom_site_type_symbol
_atom_site_label
_atom_site_fract_x
_atom_site_fract_y
_atom_site_fract_z
Si Si1 0.173364 0.673395 0.557942
Si Si2 0.677343 0.168300 0.810247
Si Si3 0.677884 0.669283 0.932718
Si Si4 0.824334 0.326510 0.327275
O O1 0.251967 0.748034 0.500000
O O2 0.199422 0.500000 0.557158
O O3 0.237973 0.743773 0.619941
O O4 0.000000 0.697956 0.554200
O O5 0.500000 0.172996 0.810615
O O6 0.728832 0.250895 0.871109
O O7 0.719269 0.222624 0.742055
O O8 0.720346 0.000000 0.814708
O O9 0.500000 0.676467 0.933982
O O10 0.717477 0.500000 0.928236
O O11 0.726593 0.726593 0.000000
O O12 0.796372 0.500000 0.334574
O O13 0.000000 0.307798 0.331398
#
# Coordination Sequence:
#
# PCOD9557450 Si02
#       4
#     8   8   8   8
#     4  11  24  39  55  77 103 130 162 199 238 285
#     4   8  14  25  42  65  93 123 155 193 236 282
#     4   8  13  21  35  58  87 118 155 197 236 277
#     4   9  18  33  53  77 102 128 163 205 245 289
#
# _framework density 17.541338
#
# number of rings (size 3 to 8) (size 9 to 14) (size 15 to 20)
#    0.000    3.000    0.000    3.750    0.000    6.500 
#    0.000    2.500    0.000    1.500    0.000    3.500 
#    0.000    0.000    0.000    0.000    0.000    0.000 
#
# Total GULP energy -178254.908000 kJ/mol
# GULP energy per Si atom -5570.465875 kJ/mol
# Density = 1.750141 g / cm^3
# Si number density = 17.541338 Si / 1000 Ang^3
#
#
#
# Elastic Constant Matrix: (Units=GPa)
#
#
# Indices 1 2 3 4 5 6 
#
# 1 48.5219 41.6286 73.6046 0.0000 0.0000 0.0000
# 2 41.6286 48.5229 73.6054 0.0000 0.0000 0.0000
# 3 73.6046 73.6054 230.9248 0.0000 0.0000 0.0000
# 4 0.0000 0.0000 0.0000 -223.5861 0.0000 0.0000
# 5 0.0000 0.0000 0.0000 0.0000 -223.5040 0.0000
# 6 0.0000 0.0000 0.0000 0.0000 0.0000 18.3991
#
#
#
# Elastic Compliance Matrix: (Units=1/GPa)
#
#
# Indices 1 2 3 4 5 6 
#
# 1 0.084096 -0.060962 -0.007373 0.000000 0.000000 0.000000
# 2 -0.060962 0.084094 -0.007373 0.000000 0.000000 0.000000
# 3 -0.007373 -0.007373 0.009031 0.000000 0.000000 0.000000
# 4 0.000000 0.000000 0.000000 -0.004473 0.000000 0.000000
# 5 0.000000 0.000000 0.000000 0.000000 -0.004474 0.000000
# 6 0.000000 0.000000 0.000000 0.000000 0.000000 0.054351
#
#
# Mechanical properties :
#
#
# Convention : Reuss Voigt Hill
#
# Bulk Modulus (GPa) = 38.75567 78.40521 58.58044
# Shear Modulus (GPa) = 13.06702 -76.46280 -31.69789
#
# Velocity S-wave (km/s) = 2.73230 -6.60944 -4.25554
# Velocity P-wave (km/s) = 5.66532 3.66767 3.05319
#
# Compressibility (1/GPa) = 0.02580268
#
# Stress axis : x y z
#
# Youngs Moduli (GPa) = 11.89123 11.89146 110.73317
#
# Poissons Ratio (x) = 0.72493 0.81647
# Poissons Ratio (y) = 0.72492 0.81646
# Poissons Ratio (z) = 0.08768 0.08768
#
# Static dielectric constant tensor:
#      x y z
#    x 1.584400 0.000000 0.000000 
#    y 0.000000 1.584400 0.000000 
#    z 0.000000 0.000000 1.619720 
# 
# From -- ./inp_files/4582.got.cif
#   From: 2010.05.17/outbox.cif.g08.bks.cpg/sg115_3_cif.got.tgz:4582.got - 2010.05.20 11:07:42.
