data_PCOD9557590
_publ_section_title
;
Structure prediction by ZEFSAII (Michael W. Deem and Ramdas Pophale) SiO2 
 PCOD9557590
Probable space group: P -4 C 2
;
_chemical_formula_sum "Si O2"
_cell_formula_units_Z 48
_cell_length_a 11.751605
_cell_length_b 11.751605
_cell_length_c 18.858578
_cell_angle_alpha 90.000000
_cell_angle_beta 90.000000
_cell_angle_gamma 90.000000
_cell_volume 2604.373772
_symmetry_space_group_name_H-M "P -4 C 2"
_symmetry_group_IT_number 116
_symmetry_cell_setting 'tetragonal'
loop_
_space_group_symop_operation_xyz
x,y,z
y,-x,-z
-x,-y,z
-y,x,-z
y,x,1/2-z
-y,-x,1/2-z
-x,y,1/2+z
x,-y,1/2+z
loop_
_atom_site_type_symbol
_atom_site_label
_atom_site_fract_x
_atom_site_fract_y
_atom_site_fract_z
Si Si1 0.734611 0.134757 0.457960
Si Si2 0.873790 0.280020 0.561707
Si Si3 0.729789 0.315880 0.174350
Si Si4 0.501610 0.127626 0.535531
Si Si5 0.538131 0.700477 0.162555
Si Si6 0.239920 0.425778 0.180672
O O1 0.800269 0.178495 0.527751
O O2 0.752518 0.219671 0.391847
O O3 0.602103 0.135429 0.478762
O O4 0.758297 0.004724 0.437253
O O5 0.856247 0.383856 0.505884
O O6 0.834268 0.335876 0.636148
O O7 0.745793 0.254208 0.250000
O O8 0.593066 0.334615 0.172797
O O9 0.785614 0.440988 0.169904
O O10 0.531191 0.218142 0.595343
O O11 0.500000 0.000000 0.566237
O O12 0.630287 0.600413 0.154879
O O13 0.582964 0.762639 0.233932
#
# Coordination Sequence:
#
# PCOD9557590 Si02
#       6
#     8   8   8   8   8   8
#     4  11  22  38  59  83 116 151 200 246 292 346
#     4  11  22  38  59  84 113 156 201 250 292 348
#     4  10  20  35  55  86 120 153 184 228 290 364
#     4  10  20  35  55  82 110 145 194 240 285 346
#     4  10  19  35  56  82 118 153 184 228 292 357
#     4  10  20  34  55  86 120 149 186 232 292 352
#
# _framework density 18.430536
#
# number of rings (size 3 to 8) (size 9 to 14) (size 15 to 20)
#    0.000    1.667    5.000    0.500    0.000    2.333 
#    6.000    0.000    0.000    0.000    0.000    0.000 
#    0.000    0.000    0.000    0.000    0.000    0.000 
#
# Total GULP energy -267351.925266 kJ/mol
# GULP energy per Si atom -5569.831776 kJ/mol
# Density = 1.838859 g / cm^3
# Si number density = 18.430536 Si / 1000 Ang^3
#
#
#
# Elastic Constant Matrix: (Units=GPa)
#
#
# Indices 1 2 3 4 5 6 
#
# 1 64.4243 2.3597 23.1440 0.0000 0.0000 0.0000
# 2 2.3597 64.4244 23.1439 0.0000 0.0000 0.0000
# 3 23.1440 23.1439 75.2309 0.0000 0.0000 0.0000
# 4 0.0000 0.0000 0.0000 15.9735 0.0000 0.0000
# 5 0.0000 0.0000 0.0000 0.0000 15.9733 0.0000
# 6 0.0000 0.0000 0.0000 0.0000 0.0000 14.4876
#
#
#
# Elastic Compliance Matrix: (Units=1/GPa)
#
#
# Indices 1 2 3 4 5 6 
#
# 1 0.017572 0.001460 -0.005855 0.000000 0.000000 0.000000
# 2 0.001460 0.017572 -0.005855 0.000000 0.000000 0.000000
# 3 -0.005855 -0.005855 0.016895 0.000000 0.000000 0.000000
# 4 0.000000 0.000000 0.000000 0.062604 0.000000 0.000000
# 5 0.000000 0.000000 0.000000 0.000000 0.062604 0.000000
# 6 0.000000 0.000000 0.000000 0.000000 0.000000 0.069025
#
#
# Mechanical properties :
#
#
# Convention : Reuss Voigt Hill
#
# Bulk Modulus (GPa) = 31.70719 33.48607 32.59663
# Shear Modulus (GPa) = 18.03204 19.64902 18.84053
#
# Velocity S-wave (km/s) = 3.13130 3.26868 3.20073
# Velocity P-wave (km/s) = 5.50585 5.69684 5.60215
#
# Compressibility (1/GPa) = 0.03153858
#
# Stress axis : x y z
#
# Youngs Moduli (GPa) = 56.90886 56.90904 59.18985
#
# Poissons Ratio (x) = -0.08307 0.34655
# Poissons Ratio (y) = -0.08307 0.34655
# Poissons Ratio (z) = 0.33319 0.33319
#
# Static dielectric constant tensor:
#      x y z
#    x 1.649670 0.000000 0.000000 
#    y 0.000000 1.649670 0.000000 
#    z 0.000000 0.000000 1.661580 
# 
# From -- ./inp_files/3386.got.cif
#   From: 2010.05.17/outbox.cif.g08.bks.cpg/sg116_2_cif.got.tgz:3386.got - 2010.05.20 11:11:43.
