data_PCOD9557919
_publ_section_title
;
Structure prediction by ZEFSAII (Michael W. Deem and Ramdas Pophale) SiO2 
 PCOD9557919
Probable space group: P -4 C 2
;
_chemical_formula_sum "Si O2"
_cell_formula_units_Z 24
_cell_length_a 8.947426
_cell_length_b 8.947426
_cell_length_c 12.559193
_cell_angle_alpha 90.000000
_cell_angle_beta 90.000000
_cell_angle_gamma 90.000000
_cell_volume 1005.444181
_symmetry_space_group_name_H-M "P -4 C 2"
_symmetry_group_IT_number 116
_symmetry_cell_setting 'tetragonal'
loop_
_space_group_symop_operation_xyz
x,y,z
y,-x,-z
-x,-y,z
-y,x,-z
y,x,1/2-z
-y,-x,1/2-z
-x,y,1/2+z
x,-y,1/2+z
loop_
_atom_site_type_symbol
_atom_site_label
_atom_site_fract_x
_atom_site_fract_y
_atom_site_fract_z
Si Si1 0.644344 0.924737 0.734042
Si Si2 0.218893 0.619622 0.664688
Si Si3 0.854418 0.801289 0.973489
O O1 0.552053 0.827762 0.820204
O O2 0.752169 0.851396 0.649464
O O3 0.500000 0.000000 0.670715
O O4 0.707260 0.071653 0.790514
O O5 0.346423 0.653578 0.750000
O O6 0.235002 0.683646 0.547273
O O7 0.031951 0.799745 0.001229
#
# Coordination Sequence:
#
# PCOD9557919 Si02
#       3
#     8   8   8
#     4   8  20  31  52  78 112 153 188 232 295 350
#     4   9  18  36  53  79 119 148 197 236 292 360
#     4  11  20  33  55  87 119 147 188 249 309 369
#
# _framework density 23.870045999999999
#
# number of rings (size 3 to 8) (size 9 to 14) (size 15 to 20)
#    2.000    0.333    3.333    0.000    4.667    1.333 
#    0.000    0.000    0.000    0.000    0.000   28.000 
#    0.000    0.000    0.000    0.000    0.000    0.000 
#
# Total GULP energy -133690.624047 kJ/mol
# GULP energy per Si atom -5570.442669 kJ/mol
# Density = 2.381572 g / cm^3
# Si number density = 23.870046 Si / 1000 Ang^3
#
#
#
# Elastic Constant Matrix: (Units=GPa)
#
#
# Indices 1 2 3 4 5 6 
#
# 1 50.7700 7.0523 8.5014 0.0000 0.0000 0.0000
# 2 7.0523 50.7711 8.5020 0.0000 0.0000 0.0000
# 3 8.5014 8.5020 134.2385 0.0000 0.0000 0.0000
# 4 0.0000 0.0000 0.0000 27.3453 0.0000 0.0000
# 5 0.0000 0.0000 0.0000 0.0000 27.3449 0.0000
# 6 0.0000 0.0000 0.0000 0.0000 0.0000 28.3290
#
#
#
# Elastic Compliance Matrix: (Units=1/GPa)
#
#
# Indices 1 2 3 4 5 6 
#
# 1 0.020248 -0.002626 -0.001116 0.000000 0.000000 0.000000
# 2 -0.002626 0.020248 -0.001116 0.000000 0.000000 0.000000
# 3 -0.001116 -0.001116 0.007591 0.000000 0.000000 0.000000
# 4 0.000000 0.000000 0.000000 0.036569 0.000000 0.000000
# 5 0.000000 0.000000 0.000000 0.000000 0.036570 0.000000
# 6 0.000000 0.000000 0.000000 0.000000 0.000000 0.035300
#
#
# Mechanical properties :
#
#
# Convention : Reuss Voigt Hill
#
# Bulk Modulus (GPa) = 26.06115 31.54343 28.80229
# Shear Modulus (GPa) = 27.92799 30.71876 29.32337
#
# Velocity S-wave (km/s) = 3.42424 3.59125 3.50874
# Velocity P-wave (km/s) = 5.15514 5.51720 5.33924
#
# Compressibility (1/GPa) = 0.03837130
#
# Stress axis : x y z
#
# Youngs Moduli (GPa) = 49.38692 49.38793 131.73851
#
# Poissons Ratio (x) = 0.12968 0.14702
# Poissons Ratio (y) = 0.12967 0.14703
# Poissons Ratio (z) = 0.05512 0.05512
#
# Static dielectric constant tensor:
#      x y z
#    x 1.940850 0.000000 0.000000 
#    y 0.000000 1.940850 0.000000 
#    z 0.000000 0.000000 1.920930 
# 
# From -- ./inp_files/1385.got.cif
#   From: 2010.05.17/outbox.cif.g08.bks.cpg/sg116_1_cif.got.tgz:1385.got - 2010.05.20 11:11:43.
