data_PCOD9557100
_publ_section_title
;
Structure prediction by ZEFSAII (Michael W. Deem and Ramdas Pophale) SiO2 
 PCOD9557100
Probable space group: P -4 M 2
;
_chemical_formula_sum "Si O2"
_cell_formula_units_Z 48
_cell_length_a 8.128136
_cell_length_b 8.128136
_cell_length_c 35.761353
_cell_angle_alpha 90.000000
_cell_angle_beta 90.000000
_cell_angle_gamma 90.000000
_cell_volume 2362.630819
_symmetry_space_group_name_H-M "P -4 M 2"
_symmetry_group_IT_number 115
_symmetry_cell_setting 'tetragonal'
loop_
_space_group_symop_operation_xyz
x,y,z
y,-x,-z
-x,-y,z
-y,x,-z
y,x,-z
-y,-x,-z
-x,y,z
x,-y,z
loop_
_atom_site_type_symbol
_atom_site_label
_atom_site_fract_x
_atom_site_fract_y
_atom_site_fract_z
Si Si1 0.500000 0.698716 0.089871
Si Si2 0.198278 0.500000 0.824396
Si Si3 0.802818 0.311123 0.304022
Si Si4 0.195689 0.187743 0.777976
Si Si5 0.304201 0.818997 0.461832
Si Si6 0.687818 0.301901 0.617274
Si Si7 0.699215 0.813359 0.959703
O O1 0.500000 0.500000 0.090331
O O2 0.500000 0.760775 0.132048
O O3 0.334077 0.750647 0.067969
O O4 0.261340 0.332618 0.804552
O O5 0.000000 0.500000 0.819902
O O6 0.740273 0.500000 0.302074
O O7 0.760770 0.225490 0.265082
O O8 0.744938 0.232946 0.343105
O O9 0.000000 0.315209 0.305692
O O10 0.000000 0.177334 0.783943
O O11 0.262276 0.000000 0.783313
O O12 0.278071 0.721930 0.500000
O O13 0.500000 0.826712 0.456652
O O14 0.238005 0.756521 0.422078
O O15 0.237533 0.000000 0.468635
O O16 0.500000 0.241999 0.619173
O O17 0.686818 0.500000 0.615780
O O18 0.500000 0.803249 0.963776
O O19 0.738957 0.000000 0.947276
O O20 0.777997 0.777997 0.000000
#
# Coordination Sequence:
#
# PCOD9557100 Si02
#       7
#     4   4   8   8   8   8   8
#     4  10  22  38  58  86 124 158 196 252 306 350
#     4  10  22  38  56  80 110 152 198 236 286 348
#     4   9  18  32  51  77 105 133 169 217 270 321
#     4   9  19  36  55  76 106 145 187 232 285 342
#     4  10  21  36  53  74 100 133 172 212 258 313
#     4   9  18  32  50  73 101 132 166 208 259 316
#     4  10  20  36  61  89 120 160 203 249 306 366
#
# _framework density 20.316337000000001
#
# number of rings (size 3 to 8) (size 9 to 14) (size 15 to 20)
#    0.000    2.500    0.833    0.500    1.167    4.500 
#    0.000    1.667    0.000    0.000    0.000    0.000 
#    0.000    0.000    0.000    0.000    0.000    0.000 
#
# Total GULP energy -267522.154177 kJ/mol
# GULP energy per Si atom -5573.378212 kJ/mol
# Density = 2.027010 g / cm^3
# Si number density = 20.316337 Si / 1000 Ang^3
#
#
#
# Elastic Constant Matrix: (Units=GPa)
#
#
# Indices 1 2 3 4 5 6 
#
# 1 49.9086 29.2599 47.5999 0.0000 0.0000 0.0000
# 2 29.2599 49.9093 47.6002 0.0000 0.0000 0.0000
# 3 47.5999 47.6002 165.4807 0.0000 0.0000 0.0000
# 4 0.0000 0.0000 0.0000 67.6771 0.0000 0.0000
# 5 0.0000 0.0000 0.0000 0.0000 67.6777 0.0000
# 6 0.0000 0.0000 0.0000 0.0000 0.0000 9.0298
#
#
#
# Elastic Compliance Matrix: (Units=1/GPa)
#
#
# Indices 1 2 3 4 5 6 
#
# 1 0.033870 -0.014559 -0.005555 0.000000 0.000000 0.000000
# 2 -0.014559 0.033869 -0.005555 0.000000 0.000000 0.000000
# 3 -0.005555 -0.005555 0.009239 0.000000 0.000000 0.000000
# 4 0.000000 0.000000 0.000000 0.014776 0.000000 0.000000
# 5 0.000000 0.000000 0.000000 0.000000 0.014776 0.000000
# 6 0.000000 0.000000 0.000000 0.000000 0.000000 0.110745
#
#
# Mechanical properties :
#
#
# Convention : Reuss Voigt Hill
#
# Bulk Modulus (GPa) = 38.99960 57.13541 48.06751
# Shear Modulus (GPa) = 18.04026 38.26616 28.15321
#
# Velocity S-wave (km/s) = 2.98311 4.34466 3.72659
# Velocity P-wave (km/s) = 5.57702 7.30425 6.49827
#
# Compressibility (1/GPa) = 0.02564129
#
# Stress axis : x y z
#
# Youngs Moduli (GPa) = 29.52486 29.52530 108.24186
#
# Poissons Ratio (x) = 0.42985 0.60125
# Poissons Ratio (y) = 0.42985 0.60125
# Poissons Ratio (z) = 0.16400 0.16400
#
# Static dielectric constant tensor:
#      x y z
#    x 1.743530 0.000000 0.000000 
#    y 0.000000 1.743530 0.000000 
#    z 0.000000 0.000000 1.729190 
# 
# From -- ./inp_files/6173.got.cif
#   From: 2010.05.17/outbox.cif.g08.bks.cpg/sg115_4_cif.got.tgz:6173.got - 2010.05.20 11:07:42.
