data_PCOD9557865
_publ_section_title
;
Structure prediction by ZEFSAII (Michael W. Deem and Ramdas Pophale) SiO2 
 PCOD9557865
Probable space group: P -4 C 2
;
_chemical_formula_sum "Si O2"
_cell_formula_units_Z 38
_cell_length_a 14.261176
_cell_length_b 14.261176
_cell_length_c 8.290276
_cell_angle_alpha 90.000000
_cell_angle_beta 90.000000
_cell_angle_gamma 90.000000
_cell_volume 1686.085791
_symmetry_space_group_name_H-M "P -4 C 2"
_symmetry_group_IT_number 116
_symmetry_cell_setting 'tetragonal'
loop_
_space_group_symop_operation_xyz
x,y,z
y,-x,-z
-x,-y,z
-y,x,-z
y,x,1/2-z
-y,-x,1/2-z
-x,y,1/2+z
x,-y,1/2+z
loop_
_atom_site_type_symbol
_atom_site_label
_atom_site_fract_x
_atom_site_fract_y
_atom_site_fract_z
Si Si1 0.204611 0.361560 0.222013
Si Si2 0.500000 0.500000 0.500000
Si Si3 0.928982 0.203506 0.837512
Si Si4 0.881627 0.263167 0.204778
Si Si5 0.811310 0.559560 0.863361
Si Si6 0.606135 0.606135 0.750000
O O1 0.303360 0.303360 0.250000
O O2 0.124707 0.283808 0.237732
O O3 0.183757 0.447176 0.344327
O O4 0.190594 0.407383 0.047516
O O5 0.584221 0.533045 0.609225
O O6 0.890454 0.109547 0.750000
O O7 0.039155 0.214495 0.813743
O O8 0.902172 0.230413 0.021488
O O9 0.781962 0.218039 0.250000
O O10 0.878872 0.373443 0.254522
O O11 0.708929 0.585311 0.802522
#
# Coordination Sequence:
#
# PCOD9557865 Si02
#       6
#     8   2   8   8   8   4
#     4  11  26  44  65  97 135 177 233 278 333 394
#     4  10  24  38  56  86 128 174 236 270 324 378
#     4  11  25  46  73 102 134 172 217 274 334 400
#     4  12  24  46  72 102 137 171 218 270 335 402
#     4  12  25  41  66  94 135 181 223 279 335 390
#     4  11  24  38  58  90 127 178 218 280 321 384
#
# _framework density 22.537407000000002
#
# number of rings (size 3 to 8) (size 9 to 14) (size 15 to 20)
#    0.000    0.632    1.053    7.579    8.842    1.263 
#    0.000    6.316    0.000    0.000    0.000    0.000 
#    0.000    0.000    0.000    0.000    0.000    0.000 
#
# Total GULP energy -212328.628845 kJ/mol
# GULP energy per Si atom -5587.595496 kJ/mol
# Density = 2.248611 g / cm^3
# Si number density = 22.537407 Si / 1000 Ang^3
#
#
#
# Elastic Constant Matrix: (Units=GPa)
#
#
# Indices 1 2 3 4 5 6 
#
# 1 -3.0557 73.6320 1.1206 0.0000 0.0000 0.0000
# 2 73.6320 -3.0377 1.1205 0.0000 0.0000 0.0000
# 3 1.1206 1.1205 123.5812 0.0000 0.0000 0.0000
# 4 0.0000 0.0000 0.0000 32.2580 0.0000 0.0000
# 5 0.0000 0.0000 0.0000 0.0000 32.2581 0.0000
# 6 0.0000 0.0000 0.0000 0.0000 0.0000 25.6091
#
#
#
# Elastic Compliance Matrix: (Units=1/GPa)
#
#
# Indices 1 2 3 4 5 6 
#
# 1 0.000563 0.013606 -0.000128 0.000000 0.000000 0.000000
# 2 0.013606 0.000567 -0.000129 0.000000 0.000000 0.000000
# 3 -0.000128 -0.000129 0.008094 0.000000 0.000000 0.000000
# 4 0.000000 0.000000 0.000000 0.031000 0.000000 0.000000
# 5 0.000000 0.000000 0.000000 0.000000 0.031000 0.000000
# 6 0.000000 0.000000 0.000000 0.000000 0.000000 0.039049
#
#
# Mechanical properties :
#
#
# Convention : Reuss Voigt Hill
#
# Bulk Modulus (GPa) = 27.83741 29.91488 28.87615
# Shear Modulus (GPa) = 52.32955 20.79935 36.56445
#
# Velocity S-wave (km/s) = 4.82383 3.04119 4.03226
# Velocity P-wave (km/s) = 6.58819 5.06301 5.87530
#
# Compressibility (1/GPa) = 0.03592288
#
# Stress axis : x y z
#
# Youngs Moduli (GPa) = 1775.28903 1764.87032 123.54566
#
# Poissons Ratio (x) = -24.01351 0.01587
# Poissons Ratio (y) = -24.15527 0.01588
# Poissons Ratio (z) = 0.22808 0.22681
#
# Static dielectric constant tensor:
#      x y z
#    x 1.815800 0.000000 0.000000 
#    y 0.000000 1.815800 0.000000 
#    z 0.000000 0.000000 2.197110 
# 
# From -- ./inp_files/727.got.cif
#   From: 2010.05.17/outbox.cif.g08.bks.cpg/sg116_1_cif.got.tgz:727.got - 2010.05.20 11:11:43.
