data_PCOD9557355
_publ_section_title
;
Structure prediction by ZEFSAII (Michael W. Deem and Ramdas Pophale) SiO2 
 PCOD9557355
Probable space group: P -4 M 2
;
_chemical_formula_sum "Si O2"
_cell_formula_units_Z 48
_cell_length_a 9.074481
_cell_length_b 9.074481
_cell_length_c 31.480110
_cell_angle_alpha 90.000000
_cell_angle_beta 90.000000
_cell_angle_gamma 90.000000
_cell_volume 2592.267605
_symmetry_space_group_name_H-M "P -4 M 2"
_symmetry_group_IT_number 115
_symmetry_cell_setting 'tetragonal'
loop_
_space_group_symop_operation_xyz
x,y,z
y,-x,-z
-x,-y,z
-y,x,-z
y,x,-z
-y,-x,-z
-x,y,z
x,-y,z
loop_
_atom_site_type_symbol
_atom_site_label
_atom_site_fract_x
_atom_site_fract_y
_atom_site_fract_z
Si Si1 0.675186 0.824446 0.622323
Si Si2 0.676472 0.672845 0.208095
Si Si3 0.172295 0.175839 0.872044
Si Si4 0.676326 0.674656 0.048418
Si Si5 0.824315 0.324298 0.540843
Si Si6 0.174514 0.323620 0.703024
O O1 0.500000 0.796483 0.621121
O O2 0.753377 0.744736 0.582939
O O3 0.743448 0.761691 0.665636
O O4 0.698477 0.000000 0.619489
O O5 0.500000 0.687480 0.202247
O O6 0.710260 0.500000 0.212760
O O7 0.756042 0.739741 0.167378
O O8 0.716380 0.758753 0.251151
O O9 0.235242 0.240732 0.915750
O O10 0.000000 0.213359 0.867799
O O11 0.187767 0.000000 0.871984
O O12 0.500000 0.694261 0.052852
O O13 0.706053 0.500000 0.053624
O O14 0.716154 0.716154 0.000000
O O15 0.750703 0.249298 0.500000
O O16 0.799392 0.500000 0.539899
O O17 0.000000 0.298892 0.540596
O O18 0.195991 0.500000 0.697206
O O19 0.000000 0.294344 0.701865
#
# Coordination Sequence:
#
# PCOD9557355 Si02
#       6
#     8   8   8   8   8   8
#     4  11  24  40  59  86 119 155 195 236 281 336
#     4  10  21  38  61  86 111 144 188 235 282 334
#     4  11  24  38  53  79 115 151 186 227 277 332
#     4   9  19  37  60  84 109 140 182 230 278 331
#     4  11  24  41  62  89 119 152 193 239 287 340
#     4  10  21  38  61  88 116 148 188 233 283 339
#
# _framework density 18.516605999999999
#
# number of rings (size 3 to 8) (size 9 to 14) (size 15 to 20)
#    0.000    1.667    0.000    4.500    0.000   13.667 
#    0.000    2.500    0.000    0.000    0.000    0.000 
#    0.000    0.000    0.000    0.000    0.000    0.000 
#
# Total GULP energy -268374.021603 kJ/mol
# GULP energy per Si atom -5591.125450 kJ/mol
# Density = 1.847446 g / cm^3
# Si number density = 18.516606 Si / 1000 Ang^3
#
#
#
# Elastic Constant Matrix: (Units=GPa)
#
#
# Indices 1 2 3 4 5 6 
#
# 1 98.4595 86.0359 84.7655 0.0000 0.0000 0.0000
# 2 86.0359 98.4592 84.7657 0.0000 0.0000 0.0000
# 3 84.7655 84.7657 163.0030 0.0000 0.0000 0.0000
# 4 0.0000 0.0000 0.0000 88.6937 0.0000 0.0000
# 5 0.0000 0.0000 0.0000 0.0000 88.6903 0.0000
# 6 0.0000 0.0000 0.0000 0.0000 0.0000 32.4653
#
#
#
# Elastic Compliance Matrix: (Units=1/GPa)
#
#
# Indices 1 2 3 4 5 6 
#
# 1 0.045436 -0.035056 -0.005398 0.000000 0.000000 0.000000
# 2 -0.035056 0.045437 -0.005398 0.000000 0.000000 0.000000
# 3 -0.005398 -0.005398 0.011749 0.000000 0.000000 0.000000
# 4 0.000000 0.000000 0.000000 0.011275 0.000000 0.000000
# 5 0.000000 0.000000 0.000000 0.000000 0.011275 0.000000
# 6 0.000000 0.000000 0.000000 0.000000 0.000000 0.030802
#
#
# Mechanical properties :
#
#
# Convention : Reuss Voigt Hill
#
# Bulk Modulus (GPa) = 91.59452 96.78396 94.18924
# Shear Modulus (GPa) = 19.89508 48.92685 34.41096
#
# Velocity S-wave (km/s) = 3.28143 5.14593 4.31557
# Velocity P-wave (km/s) = 7.99566 9.36428 8.70690
#
# Compressibility (1/GPa) = 0.01091768
#
# Stress axis : x y z
#
# Youngs Moduli (GPa) = 22.00876 22.00857 85.11263
#
# Poissons Ratio (x) = 0.77154 0.45943
# Poissons Ratio (y) = 0.77154 0.45946
# Poissons Ratio (z) = 0.11880 0.11881
#
# Static dielectric constant tensor:
#      x y z
#    x 1.616010 0.000000 0.000000 
#    y 0.000000 1.616010 0.000000 
#    z 0.000000 0.000000 1.600030 
# 
# From -- ./inp_files/6030.got.cif
#   From: 2010.05.17/outbox.cif.g08.bks.cpg/sg115_4_cif.got.tgz:6030.got - 2010.05.20 11:07:42.
