data_PCOD9557547
_publ_section_title
;
Structure prediction by ZEFSAII (Michael W. Deem and Ramdas Pophale) SiO2 
 PCOD9557547
Probable space group: P -4 C 2
;
_chemical_formula_sum "Si O2"
_cell_formula_units_Z 26
_cell_length_a 12.215318
_cell_length_b 12.215318
_cell_length_c 8.737477
_cell_angle_alpha 90.000000
_cell_angle_beta 90.000000
_cell_angle_gamma 90.000000
_cell_volume 1303.753839
_symmetry_space_group_name_H-M "P -4 C 2"
_symmetry_group_IT_number 116
_symmetry_cell_setting 'tetragonal'
loop_
_space_group_symop_operation_xyz
x,y,z
y,-x,-z
-x,-y,z
-y,x,-z
y,x,1/2-z
-y,-x,1/2-z
-x,y,1/2+z
x,-y,1/2+z
loop_
_atom_site_type_symbol
_atom_site_label
_atom_site_fract_x
_atom_site_fract_y
_atom_site_fract_z
Si Si1 0.770477 0.939737 0.116802
Si Si2 0.286881 0.852281 0.949956
Si Si3 0.000000 0.000000 0.250000
Si Si4 0.358999 0.423713 0.075582
O O1 0.793020 0.830719 0.017488
O O2 0.723289 0.894891 0.275652
O O3 0.889555 0.991991 0.152372
O O4 0.701146 0.037941 0.047586
O O5 0.378964 0.761055 0.959474
O O6 0.392791 0.392791 0.250000
O O7 0.369254 0.551990 0.038393
#
# Coordination Sequence:
#
# PCOD9557547 Si02
#       4
#     8   8   2   8
#     4  10  18  33  59  89 134 164 211 248 313 368
#     4  10  20  38  62  92 133 165 209 255 311 378
#     4   8  16  30  52  86 124 170 224 234 288 366
#     4  11  23  47  71  94 118 163 220 276 311 370
#
# _framework density 19.942413999999999
#
# number of rings (size 3 to 8) (size 9 to 14) (size 15 to 20)
#    0.000    2.154    3.077    5.538    0.000    1.231 
#   16.615    1.538    0.000    0.000    0.000    0.000 
#    0.000    0.000    0.000    0.000    0.000    0.000 
#
# Total GULP energy -145066.413133 kJ/mol
# GULP energy per Si atom -5579.477428 kJ/mol
# Density = 1.989702 g / cm^3
# Si number density = 19.942414 Si / 1000 Ang^3
#
#
#
# Elastic Constant Matrix: (Units=GPa)
#
#
# Indices 1 2 3 4 5 6 
#
# 1 57.9940 34.9029 22.8883 0.0000 0.0000 0.0000
# 2 34.9029 57.9940 22.8883 0.0000 0.0000 0.0000
# 3 22.8883 22.8883 39.5620 0.0000 0.0000 0.0000
# 4 0.0000 0.0000 0.0000 3.7331 0.0000 0.0000
# 5 0.0000 0.0000 0.0000 0.0000 3.7331 0.0000
# 6 0.0000 0.0000 0.0000 0.0000 0.0000 48.5212
#
#
#
# Elastic Compliance Matrix: (Units=1/GPa)
#
#
# Indices 1 2 3 4 5 6 
#
# 1 0.029182 -0.014125 -0.008711 0.000000 0.000000 0.000000
# 2 -0.014125 0.029182 -0.008711 0.000000 0.000000 0.000000
# 3 -0.008711 -0.008711 0.035356 0.000000 0.000000 0.000000
# 4 0.000000 0.000000 0.000000 0.267876 0.000000 0.000000
# 5 0.000000 0.000000 0.000000 0.000000 0.267876 0.000000
# 6 0.000000 0.000000 0.000000 0.000000 0.000000 0.020610
#
#
# Mechanical properties :
#
#
# Convention : Reuss Voigt Hill
#
# Bulk Modulus (GPa) = 32.65209 35.21212 33.93210
# Shear Modulus (GPa) = 6.91196 16.18884 11.55040
#
# Velocity S-wave (km/s) = 1.86373 2.85227 2.40924
# Velocity P-wave (km/s) = 4.58694 5.34251 4.97908
#
# Compressibility (1/GPa) = 0.03062591
#
# Stress axis : x y z
#
# Youngs Moduli (GPa) = 34.26772 34.26772 28.28344
#
# Poissons Ratio (x) = 0.48402 0.24638
# Poissons Ratio (y) = 0.48402 0.24638
# Poissons Ratio (z) = 0.29851 0.29851
#
# Static dielectric constant tensor:
#      x y z
#    x 1.705440 0.000000 0.000000 
#    y 0.000000 1.705440 0.000000 
#    z 0.000000 0.000000 1.756630 
# 
# From -- ./inp_files/517.got.cif
#   From: 2010.05.17/outbox.cif.g08.bks.cpg/sg116_1_cif.got.tgz:517.got - 2010.05.20 11:11:43.
