data_PCOD9557255
_publ_section_title
;
Structure prediction by ZEFSAII (Michael W. Deem and Ramdas Pophale) SiO2 
 PCOD9557255
Probable space group: P -4 M 2
;
_chemical_formula_sum "Si O2"
_cell_formula_units_Z 45
_cell_length_a 8.687605
_cell_length_b 8.687605
_cell_length_c 32.038059
_cell_angle_alpha 90.000000
_cell_angle_beta 90.000000
_cell_angle_gamma 90.000000
_cell_volume 2418.055864
_symmetry_space_group_name_H-M "P -4 M 2"
_symmetry_group_IT_number 115
_symmetry_cell_setting 'tetragonal'
loop_
_space_group_symop_operation_xyz
x,y,z
y,-x,-z
-x,-y,z
-y,x,-z
y,x,-z
-y,-x,-z
-x,y,z
x,-y,z
loop_
_atom_site_type_symbol
_atom_site_label
_atom_site_fract_x
_atom_site_fract_y
_atom_site_fract_z
Si Si1 0.500000 0.323419 0.080962
Si Si2 0.176786 0.683620 0.117648
Si Si3 0.500000 0.500000 0.000000
Si Si4 0.819337 0.176202 0.207281
Si Si5 0.816473 0.821251 0.371549
Si Si6 0.682569 0.324417 0.288356
Si Si7 0.178950 0.683160 0.541568
O O1 0.500000 0.500000 0.099052
O O2 0.666669 0.256523 0.094698
O O3 0.500000 0.355211 0.031248
O O4 0.171160 0.500000 0.110294
O O5 0.203262 0.719856 0.166473
O O6 0.000000 0.741739 0.107730
O O7 0.727437 0.227582 0.247784
O O8 0.000000 0.184011 0.218236
O O9 0.782430 0.000000 0.196011
O O10 0.758942 0.736212 0.330533
O O11 0.752892 0.757728 0.415327
O O12 0.000000 0.817846 0.372885
O O13 0.765167 0.000000 0.368586
O O14 0.500000 0.319443 0.294041
O O15 0.731464 0.500000 0.280687
O O16 0.263462 0.736539 0.500000
O O17 0.183609 0.500000 0.544795
O O18 0.000000 0.733006 0.538083
#
# Coordination Sequence:
#
# PCOD9557255 Si02
#       7
#     4   8   1   8   8   8   8
#     4   8  16  30  53  80 113 148 189 237 294 341
#     4   9  17  31  53  80 108 147 192 236 286 343
#     4   8  16  32  52  88 112 152 192 240 292 340
#     4  10  21  36  54  78 110 146 187 235 285 339
#     4  10  21  38  60  82 105 137 178 224 273 327
#     4  11  24  38  53  77 109 145 185 226 275 331
#     4  10  21  37  58  83 109 138 173 215 267 328
#
# _framework density 18.609991999999998
#
# number of rings (size 3 to 8) (size 9 to 14) (size 15 to 20)
#    0.267    1.956    0.000    2.667    1.244    7.467 
#    0.000    0.000    0.000    2.133    0.000    0.000 
#    0.000    0.000    0.000    0.000    0.000    0.000 
#
# Total GULP energy -250788.266673 kJ/mol
# GULP energy per Si atom -5573.072593 kJ/mol
# Density = 1.856763 g / cm^3
# Si number density = 18.609992 Si / 1000 Ang^3
#
#
#
# Elastic Constant Matrix: (Units=GPa)
#
#
# Indices 1 2 3 4 5 6 
#
# 1 41.2435 20.4428 27.6838 0.0000 0.0000 0.0000
# 2 20.4428 41.2441 27.6841 0.0000 0.0000 0.0000
# 3 27.6838 27.6841 93.3007 0.0000 0.0000 0.0000
# 4 0.0000 0.0000 0.0000 27.5985 0.0000 0.0000
# 5 0.0000 0.0000 0.0000 0.0000 27.5987 0.0000
# 6 0.0000 0.0000 0.0000 0.0000 0.0000 19.0882
#
#
#
# Elastic Compliance Matrix: (Units=1/GPa)
#
#
# Indices 1 2 3 4 5 6 
#
# 1 0.035085 -0.012990 -0.006556 0.000000 0.000000 0.000000
# 2 -0.012990 0.035085 -0.006556 0.000000 0.000000 0.000000
# 3 -0.006556 -0.006556 0.014609 0.000000 0.000000 0.000000
# 4 0.000000 0.000000 0.000000 0.036234 0.000000 0.000000
# 5 0.000000 0.000000 0.000000 0.000000 0.036234 0.000000
# 6 0.000000 0.000000 0.000000 0.000000 0.000000 0.052388
#
#
# Mechanical properties :
#
#
# Convention : Reuss Voigt Hill
#
# Bulk Modulus (GPa) = 30.69816 36.37884 33.53850
# Shear Modulus (GPa) = 18.33540 21.52228 19.92884
#
# Velocity S-wave (km/s) = 3.14227 3.40441 3.27596
# Velocity P-wave (km/s) = 5.44945 5.91978 5.68948
#
# Compressibility (1/GPa) = 0.03257524
#
# Stress axis : x y z
#
# Youngs Moduli (GPa) = 28.50197 28.50229 68.45256
#
# Poissons Ratio (x) = 0.37023 0.44878
# Poissons Ratio (y) = 0.37023 0.44878
# Poissons Ratio (z) = 0.18686 0.18687
#
# Static dielectric constant tensor:
#      x y z
#    x 1.661850 0.000000 0.000000 
#    y 0.000000 1.661840 0.000000 
#    z 0.000000 0.000000 1.605560 
# 
# From -- ./inp_files/5846.got.cif
#   From: 2010.05.17/outbox.cif.g08.bks.cpg/sg115_3_cif.got.tgz:5846.got - 2010.05.20 11:07:42.
