data_PCOD9558703
_publ_section_title
;
Structure prediction by ZEFSAII (Michael W. Deem and Ramdas Pophale) SiO2 
 PCOD9558703
Probable space group: P -4 N 2
;
_chemical_formula_sum "Si O2"
_cell_formula_units_Z 52
_cell_length_a 17.854695
_cell_length_b 17.854695
_cell_length_c 8.930172
_cell_angle_alpha 90.000000
_cell_angle_beta 90.000000
_cell_angle_gamma 90.000000
_cell_volume 2846.850724
_symmetry_space_group_name_H-M "P -4 N 2"
_symmetry_group_IT_number 118
_symmetry_cell_setting 'tetragonal'
loop_
_space_group_symop_operation_xyz
x,y,z
y,-x,-z
-x,-y,z
-y,x,-z
1/2+y,1/2+x,1/2-z
1/2-y,1/2-x,1/2-z
1/2-x,1/2+y,1/2+z
1/2+x,1/2-y,1/2+z
loop_
_atom_site_type_symbol
_atom_site_label
_atom_site_fract_x
_atom_site_fract_y
_atom_site_fract_z
Si Si1 0.500000 0.500000 0.000000
Si Si2 0.581595 0.617018 0.676453
Si Si3 0.269404 0.873904 0.652026
Si Si4 0.000000 0.000000 0.000000
Si Si5 0.477485 0.363188 0.168298
Si Si6 0.245418 0.042866 0.608113
Si Si7 0.352384 0.329304 0.391123
Si Si8 0.243520 0.716757 0.072967
O O1 0.452252 0.444105 0.103306
O O2 0.514604 0.570479 0.603341
O O3 0.620309 0.563811 0.796556
O O4 0.554274 0.693861 0.745286
O O5 0.640882 0.626178 0.544674
O O6 0.335399 0.835399 0.750000
O O7 0.199718 0.865386 0.765658
O O8 0.243520 0.822198 0.508144
O O9 0.285756 0.961842 0.621599
O O10 0.433605 0.332405 0.312278
O O11 0.468064 0.306346 0.035670
O O12 0.275141 0.127724 0.581987
O O13 0.316615 0.252834 0.456101
O O14 0.241778 0.741778 0.250000
#
# Coordination Sequence:
#
# PCOD9558703 Si02
#       8
#     2   8   8   2   8   8   8   8
#     4  12  22  32  50  80 130 180 206 232 298 396
#     4  12  23  33  53  89 126 165 202 241 309 383
#     4  10  23  42  61  88 130 167 209 267 325 373
#     4  12  22  28  46  80 134 156 190 240 294 388
#     4  12  23  32  53  85 128 167 207 248 306 375
#     4  12  23  39  60  86 119 167 219 258 308 381
#     4  11  23  38  56  84 127 168 209 259 308 377
#     4  11  23  42  64  88 122 167 221 261 313 385
#
# _framework density 18.265799000000001
#
# number of rings (size 3 to 8) (size 9 to 14) (size 15 to 20)
#    0.000    0.615    6.154    3.231    0.000    0.000 
#    0.000    0.000    0.000    0.462    0.000    0.000 
#    0.000    0.000    0.000    0.000    0.000    0.000 
#
# Total GULP energy -289494.904585 kJ/mol
# GULP energy per Si atom -5567.209704 kJ/mol
# Density = 1.822422 g / cm^3
# Si number density = 18.265799 Si / 1000 Ang^3
#
#
#
# Elastic Constant Matrix: (Units=GPa)
#
#
# Indices 1 2 3 4 5 6 
#
# 1 77.9881 31.5116 24.5521 0.0000 0.0000 0.0000
# 2 31.5116 77.9881 24.5521 0.0000 0.0000 0.0000
# 3 24.5521 24.5521 105.9979 0.0000 0.0000 0.0000
# 4 0.0000 0.0000 0.0000 32.1527 0.0000 0.0000
# 5 0.0000 0.0000 0.0000 0.0000 32.1527 0.0000
# 6 0.0000 0.0000 0.0000 0.0000 0.0000 23.9358
#
#
#
# Elastic Compliance Matrix: (Units=1/GPa)
#
#
# Indices 1 2 3 4 5 6 
#
# 1 0.015854 -0.005663 -0.002361 0.000000 0.000000 0.000000
# 2 -0.005663 0.015854 -0.002361 0.000000 0.000000 0.000000
# 3 -0.002361 -0.002361 0.010528 0.000000 0.000000 0.000000
# 4 0.000000 0.000000 0.000000 0.031102 0.000000 0.000000
# 5 0.000000 0.000000 0.000000 0.000000 0.031102 0.000000
# 6 0.000000 0.000000 0.000000 0.000000 0.000000 0.041778
#
#
# Mechanical properties :
#
#
# Convention : Reuss Voigt Hill
#
# Bulk Modulus (GPa) = 46.58185 47.02284 46.80235
# Shear Modulus (GPa) = 28.71257 29.73880 29.22568
#
# Velocity S-wave (km/s) = 3.96906 4.03937 4.00437
# Velocity P-wave (km/s) = 6.82365 6.89600 6.85992
#
# Compressibility (1/GPa) = 0.02146759
#
# Stress axis : x y z
#
# Youngs Moduli (GPa) = 63.07701 63.07701 94.98779
#
# Poissons Ratio (x) = 0.35718 0.22422
# Poissons Ratio (y) = 0.35718 0.22422
# Poissons Ratio (z) = 0.14889 0.14889
#
# Static dielectric constant tensor:
#      x y z
#    x 1.705490 0.000000 0.000000 
#    y 0.000000 1.705490 0.000000 
#    z 0.000000 0.000000 1.665780 
# 
# From -- ./inp_files/2206.got.cif
#   From: 2010.05.17/outbox.cif.g08.bks.cpg/sg118_2_cif.got.tgz:2206.got - 2010.05.20 11:17:24.
