data_PCOD9558036
_publ_section_title
;
Structure prediction by ZEFSAII (Michael W. Deem and Ramdas Pophale) SiO2 
 PCOD9558036
Probable space group: P -4 C 2
;
_chemical_formula_sum "Si O2"
_cell_formula_units_Z 28
_cell_length_a 7.683921
_cell_length_b 7.683921
_cell_length_c 17.742442
_cell_angle_alpha 90.000000
_cell_angle_beta 90.000000
_cell_angle_gamma 90.000000
_cell_volume 1047.560650
_symmetry_space_group_name_H-M "P -4 C 2"
_symmetry_group_IT_number 116
_symmetry_cell_setting 'tetragonal'
loop_
_space_group_symop_operation_xyz
x,y,z
y,-x,-z
-x,-y,z
-y,x,-z
y,x,1/2-z
-y,-x,1/2-z
-x,y,1/2+z
x,-y,1/2+z
loop_
_atom_site_type_symbol
_atom_site_label
_atom_site_fract_x
_atom_site_fract_y
_atom_site_fract_z
Si Si1 0.692277 0.655785 0.604673
Si Si2 0.177278 0.701470 0.677304
Si Si3 0.807985 0.807985 0.750000
Si Si4 0.630179 0.839712 0.048916
O O1 0.790576 0.481400 0.634747
O O2 0.684302 0.773654 0.679064
O O3 0.807423 0.711716 0.532766
O O4 0.502075 0.321341 0.571129
O O5 0.301668 0.698333 0.750000
O O6 0.230803 0.843727 0.615251
O O7 0.994397 0.759478 0.713754
O O8 0.500000 0.000000 0.045943
#
# Coordination Sequence:
#
# PCOD9558036 Si02
#       4
#     8   8   4   8
#     4  12  26  50  81 119 170 222 292 353 434 533
#     4  12  26  48  79 119 166 221 288 354 434 524
#     4  12  27  50  81 120 170 222 285 362 445 524
#     4  12  26  48  80 122 165 223 290 364 439 525
#
# _framework density 26.728766
#
# number of rings (size 3 to 8) (size 9 to 14) (size 15 to 20)
#    0.000    0.000    2.857    7.286    0.000    1.143 
#    0.000    0.000    0.000    0.000    0.000    0.000 
#    0.000    0.000    0.000    0.000    0.000    0.000 
#
# Total GULP energy -156606.295564 kJ/mol
# GULP energy per Si atom -5593.081984 kJ/mol
# Density = 2.666793 g / cm^3
# Si number density = 26.728766 Si / 1000 Ang^3
#
#
#
# Elastic Constant Matrix: (Units=GPa)
#
#
# Indices 1 2 3 4 5 6 
#
# 1 117.2128 15.9150 42.7763 0.0000 0.0000 0.0000
# 2 15.9150 117.2130 42.7761 0.0000 0.0000 0.0000
# 3 42.7763 42.7761 252.9191 0.0000 0.0000 0.0000
# 4 0.0000 0.0000 0.0000 54.5995 0.0000 0.0000
# 5 0.0000 0.0000 0.0000 0.0000 54.5994 0.0000
# 6 0.0000 0.0000 0.0000 0.0000 0.0000 38.1663
#
#
#
# Elastic Compliance Matrix: (Units=1/GPa)
#
#
# Indices 1 2 3 4 5 6 
#
# 1 0.009150 -0.000722 -0.001425 0.000000 0.000000 0.000000
# 2 -0.000722 0.009150 -0.001425 0.000000 0.000000 0.000000
# 3 -0.001425 -0.001425 0.004436 0.000000 0.000000 0.000000
# 4 0.000000 0.000000 0.000000 0.018315 0.000000 0.000000
# 5 0.000000 0.000000 0.000000 0.000000 0.018315 0.000000
# 6 0.000000 0.000000 0.000000 0.000000 0.000000 0.026201
#
#
# Mechanical properties :
#
#
# Convention : Reuss Voigt Hill
#
# Bulk Modulus (GPa) = 64.14504 76.69774 70.42139
# Shear Modulus (GPa) = 51.06773 55.19822 53.13297
#
# Velocity S-wave (km/s) = 4.37577 4.54929 4.46338
# Velocity P-wave (km/s) = 7.04134 7.50679 7.27779
#
# Compressibility (1/GPa) = 0.01558967
#
# Stress axis : x y z
#
# Youngs Moduli (GPa) = 109.29291 109.29321 225.42973
#
# Poissons Ratio (x) = 0.07893 0.32132
# Poissons Ratio (y) = 0.07893 0.32132
# Poissons Ratio (z) = 0.15578 0.15578
#
# Static dielectric constant tensor:
#      x y z
#    x 2.283870 0.000000 0.000000 
#    y 0.000000 2.283870 0.000000 
#    z 0.000000 0.000000 2.062270 
# 
# From -- ./inp_files/3048.got.cif
#   From: 2010.05.17/outbox.cif.g08.bks.cpg/sg116_2_cif.got.tgz:3048.got - 2010.05.20 11:11:43.
