data_PCOD9558409
_publ_section_title
;
Structure prediction by ZEFSAII (Michael W. Deem and Ramdas Pophale) SiO2 
 PCOD9558409
Probable space group: P -4 N 2
;
_chemical_formula_sum "Si O2"
_cell_formula_units_Z 64
_cell_length_a 13.566903
_cell_length_b 13.566903
_cell_length_c 17.877864
_cell_angle_alpha 90.000000
_cell_angle_beta 90.000000
_cell_angle_gamma 90.000000
_cell_volume 3290.614969
_symmetry_space_group_name_H-M "P -4 N 2"
_symmetry_group_IT_number 118
_symmetry_cell_setting 'tetragonal'
loop_
_space_group_symop_operation_xyz
x,y,z
y,-x,-z
-x,-y,z
-y,x,-z
1/2+y,1/2+x,1/2-z
1/2-y,1/2-x,1/2-z
1/2-x,1/2+y,1/2+z
1/2+x,1/2-y,1/2+z
loop_
_atom_site_type_symbol
_atom_site_label
_atom_site_fract_x
_atom_site_fract_y
_atom_site_fract_z
Si Si1 0.929284 0.854054 0.016799
Si Si2 0.883210 0.777129 0.634908
Si Si3 0.202251 0.012541 0.663951
Si Si4 0.663648 0.994853 0.250000
Si Si5 0.420836 0.079164 0.840488
Si Si6 0.070716 0.145946 0.483201
Si Si7 0.987459 0.202252 0.163951
Si Si8 0.616791 0.277128 0.365092
O O1 0.930887 0.827896 0.103884
O O2 0.892492 0.777853 0.954737
O O3 0.043562 0.873416 0.995995
O O4 0.867308 0.890726 0.658575
O O5 0.975366 0.729061 0.677940
O O6 0.892494 0.777853 0.545264
O O7 0.787534 0.712466 0.656929
O O8 0.310273 0.050123 0.639156
O O9 0.204982 0.979385 0.750000
O O10 0.172104 0.930887 0.603884
O O11 0.574195 0.074195 0.250000
O O12 0.729060 0.024634 0.177939
O O13 0.611638 0.888363 0.250000
O O14 0.423047 0.076954 0.750000
O O15 0.310274 0.050123 0.860844
O O16 0.500000 0.000000 0.868602
O O17 0.956437 0.126584 0.504004
O O18 0.890725 0.132693 0.158575
#
# Coordination Sequence:
#
# PCOD9558409 Si02
#       8
#     8   8   8   8   8   8   8   8
#     4   9  20  37  51  79 113 140 180 227 266 319
#     4  10  18  33  57  79 104 143 186 224 273 334
#     4  10  18  33  57  78 102 144 187 221 267 334
#     4   9  18  32  52  79 106 132 178 236 275 323
#     4   9  18  30  50  82 110 131 173 231 268 310
#     4   9  20  37  51  79 113 140 180 227 266 319
#     4  10  18  33  57  78 102 144 187 221 267 334
#     4  10  18  33  57  79 104 143 186 224 273 334
#
# _framework density 19.449254
#
# number of rings (size 3 to 8) (size 9 to 14) (size 15 to 20)
#    0.000    2.500    2.500    0.000    0.000    1.000 
#    4.500    2.500    0.000    0.000    0.000    0.000 
#    0.000    0.000    0.000    0.000    0.000    0.000 
#
# Total GULP energy -356688.082937 kJ/mol
# GULP energy per Si atom -5573.251296 kJ/mol
# Density = 1.940499 g / cm^3
# Si number density = 19.449254 Si / 1000 Ang^3
#
#
#
# Elastic Constant Matrix: (Units=GPa)
#
#
# Indices 1 2 3 4 5 6 
#
# 1 17.6682 27.2106 12.0783 0.0000 0.0000 0.0000
# 2 27.2106 17.6695 12.0781 0.0000 0.0000 0.0000
# 3 12.0783 12.0781 112.8843 0.0000 0.0000 0.0000
# 4 0.0000 0.0000 0.0000 22.9025 0.0000 0.0000
# 5 0.0000 0.0000 0.0000 0.0000 22.9022 0.0000
# 6 0.0000 0.0000 0.0000 0.0000 0.0000 13.1801
#
#
#
# Elastic Compliance Matrix: (Units=1/GPa)
#
#
# Indices 1 2 3 4 5 6 
#
# 1 -0.040581 0.064223 -0.002530 0.000000 0.000000 0.000000
# 2 0.064223 -0.040578 -0.002530 0.000000 0.000000 0.000000
# 3 -0.002530 -0.002530 0.009400 0.000000 0.000000 0.000000
# 4 0.000000 0.000000 0.000000 0.043663 0.000000 0.000000
# 5 0.000000 0.000000 0.000000 0.000000 0.043664 0.000000
# 6 0.000000 0.000000 0.000000 0.000000 0.000000 0.075872
#
#
# Mechanical properties :
#
#
# Convention : Reuss Voigt Hill
#
# Bulk Modulus (GPa) = 21.47395 27.88400 24.67898
# Shear Modulus (GPa) = -439.94661 18.25395 -210.84633
#
# Velocity S-wave (km/s) = -15.05634 3.06689 -10.42323
# Velocity P-wave (km/s) = 17.06437 5.18739 11.49530
#
# Compressibility (1/GPa) = 0.04656805
#
# Stress axis : x y z
#
# Youngs Moduli (GPa) = -24.64186 -24.64379 106.38312
#
# Poissons Ratio (x) = 1.58271 0.26910
# Poissons Ratio (y) = 1.58258 0.26915
# Poissons Ratio (z) = -0.06233 -0.06235
#
# Static dielectric constant tensor:
#      x y z
#    x 1.682940 0.000000 0.000000 
#    y 0.000000 1.682940 0.000000 
#    z 0.000000 0.000000 1.712020 
# 
# From -- ./inp_files/5058.got.cif
#   From: 2010.05.17/outbox.cif.g08.bks.cpg/sg118_3_cif.got.tgz:5058.got - 2010.05.20 11:17:24.
