data_PCOD9558316
_publ_section_title
;
Structure prediction by ZEFSAII (Michael W. Deem and Ramdas Pophale) SiO2 
 PCOD9558316
Probable space group: P -4 B 2
;
_chemical_formula_sum "Si O2"
_cell_formula_units_Z 36
_cell_length_a 9.225571
_cell_length_b 9.225571
_cell_length_c 17.388576
_cell_angle_alpha 90.000000
_cell_angle_beta 90.000000
_cell_angle_gamma 90.000000
_cell_volume 1479.961879
_symmetry_space_group_name_H-M "P -4 B 2"
_symmetry_group_IT_number 117
_symmetry_cell_setting 'tetragonal'
loop_
_space_group_symop_operation_xyz
x,y,z
y,-x,-z
-x,-y,z
-y,x,-z
1/2+y,1/2+x,-z
1/2-y,1/2-x,-z
1/2-x,1/2+y,z
1/2+x,1/2-y,z
loop_
_atom_site_type_symbol
_atom_site_label
_atom_site_fract_x
_atom_site_fract_y
_atom_site_fract_z
Si Si1 0.550060 0.163105 0.728064
Si Si2 0.728235 0.771765 0.000000
Si Si3 0.903566 0.868750 0.313428
Si Si4 0.443353 0.281454 0.470371
Si Si5 0.673429 0.026516 0.099337
O O1 0.724321 0.157181 0.727061
O O2 0.463402 0.261099 0.667653
O O3 0.499294 0.214882 0.812873
O O4 0.500000 0.000000 0.718129
O O5 0.815633 0.722381 0.925561
O O6 0.566208 0.756566 0.969170
O O7 0.000855 0.198416 0.382868
O O8 0.000000 0.000000 0.276839
O O9 0.328126 0.411098 0.484438
O O10 0.364586 0.135415 0.500000
O O11 0.500000 0.000000 0.095665
#
# Coordination Sequence:
#
# PCOD9558316 Si02
#       5
#     8   4   8   8   8
#     4  11  27  48  78 107 159 207 260 331 393 490
#     4  12  20  44  74 100 154 192 254 320 374 464
#     4  12  26  49  77 119 150 205 261 321 406 475
#     4  11  27  50  78 113 154 196 258 315 388 472
#     4  11  24  46  68 110 150 198 255 318 390 455
#
# _framework density 24.324952
#
# number of rings (size 3 to 8) (size 9 to 14) (size 15 to 20)
#    0.000    0.667    4.444    2.667    6.222    2.667 
#    4.000    0.000    0.000    0.000    0.000    0.000 
#    0.000    0.000    0.000    0.000    0.000    0.000 
#
# Total GULP energy -200832.814876 kJ/mol
# GULP energy per Si atom -5578.689302 kJ/mol
# Density = 2.426959 g / cm^3
# Si number density = 24.324952 Si / 1000 Ang^3
#
#
#
# Elastic Constant Matrix: (Units=GPa)
#
#
# Indices 1 2 3 4 5 6 
#
# 1 102.5283 48.5695 29.5819 0.0000 0.0000 0.0000
# 2 48.5695 102.5312 29.5828 0.0000 0.0000 0.0000
# 3 29.5819 29.5828 68.9389 0.0000 0.0000 0.0000
# 4 0.0000 0.0000 0.0000 222.1139 0.0000 0.0000
# 5 0.0000 0.0000 0.0000 0.0000 222.1118 0.0000
# 6 0.0000 0.0000 0.0000 0.0000 0.0000 54.6317
#
#
#
# Elastic Compliance Matrix: (Units=1/GPa)
#
#
# Indices 1 2 3 4 5 6 
#
# 1 0.013244 -0.005289 -0.003413 0.000000 0.000000 0.000000
# 2 -0.005289 0.013243 -0.003414 0.000000 0.000000 0.000000
# 3 -0.003413 -0.003414 0.017435 0.000000 0.000000 0.000000
# 4 0.000000 0.000000 0.000000 0.004502 0.000000 0.000000
# 5 0.000000 0.000000 0.000000 0.000000 0.004502 0.000000
# 6 0.000000 0.000000 0.000000 0.000000 0.000000 0.018304
#
#
# Mechanical properties :
#
#
# Convention : Reuss Voigt Hill
#
# Bulk Modulus (GPa) = 50.78527 54.38520 52.58524
# Shear Modulus (GPa) = 49.00729 110.85575 79.93152
#
# Velocity S-wave (km/s) = 4.49340 6.75809 5.73857
# Velocity P-wave (km/s) = 6.91694 9.12700 8.09772
#
# Compressibility (1/GPa) = 0.01969075
#
# Stress axis : x y z
#
# Youngs Moduli (GPa) = 75.50812 75.50987 57.35564
#
# Poissons Ratio (x) = 0.39935 0.19578
# Poissons Ratio (y) = 0.39934 0.19578
# Poissons Ratio (z) = 0.25774 0.25775
#
# Static dielectric constant tensor:
#      x y z
#    x 1.920910 0.000000 0.000000 
#    y 0.000000 1.920910 0.000000 
#    z 0.000000 0.000000 2.296090 
# 
# From -- ./inp_files/3435.got.cif
#   From: 2010.05.17/outbox.cif.g08.bks.cpg/sg117_2_cif.got.tgz:3435.got - 2010.05.20 11:15:09.
