data_PCOD9558402
_publ_section_title
;
Structure prediction by ZEFSAII (Michael W. Deem and Ramdas Pophale) SiO2 
 PCOD9558402
Probable space group: P -4 N 2
;
_chemical_formula_sum "Si O2"
_cell_formula_units_Z 56
_cell_length_a 13.338030
_cell_length_b 13.338030
_cell_length_c 18.516469
_cell_angle_alpha 90.000000
_cell_angle_beta 90.000000
_cell_angle_gamma 90.000000
_cell_volume 3294.136204
_symmetry_space_group_name_H-M "P -4 N 2"
_symmetry_group_IT_number 118
_symmetry_cell_setting 'tetragonal'
loop_
_space_group_symop_operation_xyz
x,y,z
y,-x,-z
-x,-y,z
-y,x,-z
1/2+y,1/2+x,1/2-z
1/2-y,1/2-x,1/2-z
1/2-x,1/2+y,1/2+z
1/2+x,1/2-y,1/2+z
loop_
_atom_site_type_symbol
_atom_site_label
_atom_site_fract_x
_atom_site_fract_y
_atom_site_fract_z
Si Si1 0.325709 0.726184 0.891113
Si Si2 0.906779 0.569144 0.336489
Si Si3 0.686411 0.379161 0.567338
Si Si4 0.886373 0.043898 0.170605
Si Si5 0.621163 0.491379 0.830533
Si Si6 0.218773 0.029962 0.916862
Si Si7 0.136158 0.916677 0.476931
O O1 0.395156 0.817693 0.865620
O O2 0.209970 0.758571 0.889719
O O3 0.348639 0.623822 0.847512
O O4 0.349021 0.707020 0.975309
O O5 0.916135 0.583866 0.250000
O O6 0.811126 0.511257 0.369898
O O7 0.000000 0.500000 0.359039
O O8 0.678857 0.476573 0.617280
O O9 0.570544 0.342104 0.558052
O O10 0.735170 0.408059 0.490619
O O11 0.849018 0.031155 0.252206
O O12 0.902049 0.152542 0.136658
O O13 0.000000 0.000000 0.171962
O O14 0.500000 0.500000 0.836343
O O15 0.663537 0.559233 0.895297
O O16 0.024469 0.871601 0.483000
#
# Coordination Sequence:
#
# PCOD9558402 Si02
#       7
#     8   8   8   8   8   8   8
#     4  10  21  31  55  78 111 149 184 238 288 343
#     4  10  24  39  52  78 116 155 189 228 287 362
#     4  10  19  33  53  83 108 142 187 239 282 333
#     4   9  19  29  53  82 104 140 180 232 285 324
#     4  10  18  31  51  80 107 142 181 234 288 332
#     4  10  19  36  57  78 111 144 189 236 282 337
#     4   9  15  30  47  71 105 137 178 227 266 331
#
# _framework density 16.999904000000001
#
# number of rings (size 3 to 8) (size 9 to 14) (size 15 to 20)
#    0.000    2.286    4.286    0.000    8.000    2.286 
#    0.000    0.000    0.000    0.000    0.000    0.000 
#    0.000    0.000    0.000    0.000    0.000    0.000 
#
# Total GULP energy -311770.576974 kJ/mol
# GULP energy per Si atom -5567.331732 kJ/mol
# Density = 1.696121 g / cm^3
# Si number density = 16.999904 Si / 1000 Ang^3
#
#
#
# Elastic Constant Matrix: (Units=GPa)
#
#
# Indices 1 2 3 4 5 6 
#
# 1 49.6267 24.8363 29.9595 0.0000 0.0000 0.0000
# 2 24.8363 49.6267 29.9595 0.0000 0.0000 0.0000
# 3 29.9595 29.9595 122.0762 0.0000 0.0000 0.0000
# 4 0.0000 0.0000 0.0000 18.3309 0.0000 0.0000
# 5 0.0000 0.0000 0.0000 0.0000 18.3308 0.0000
# 6 0.0000 0.0000 0.0000 0.0000 0.0000 20.0550
#
#
#
# Elastic Compliance Matrix: (Units=1/GPa)
#
#
# Indices 1 2 3 4 5 6 
#
# 1 0.028536 -0.011802 -0.004107 0.000000 0.000000 0.000000
# 2 -0.011802 0.028536 -0.004107 0.000000 0.000000 0.000000
# 3 -0.004107 -0.004107 0.010207 0.000000 0.000000 0.000000
# 4 0.000000 0.000000 0.000000 0.054553 0.000000 0.000000
# 5 0.000000 0.000000 0.000000 0.000000 0.054553 0.000000
# 6 0.000000 0.000000 0.000000 0.000000 0.000000 0.049863
#
#
# Mechanical properties :
#
#
# Convention : Reuss Voigt Hill
#
# Bulk Modulus (GPa) = 36.69942 43.42668 40.06305
# Shear Modulus (GPa) = 18.15790 20.44831 19.30311
#
# Velocity S-wave (km/s) = 3.27175 3.47197 3.37335
# Velocity P-wave (km/s) = 5.99228 6.45550 6.22820
#
# Compressibility (1/GPa) = 0.02724839
#
# Stress axis : x y z
#
# Youngs Moduli (GPa) = 35.04321 35.04322 97.96827
#
# Poissons Ratio (x) = 0.41358 0.40234
# Poissons Ratio (y) = 0.41358 0.40234
# Poissons Ratio (z) = 0.14392 0.14392
#
# Static dielectric constant tensor:
#      x y z
#    x 1.579540 0.000000 0.000000 
#    y 0.000000 1.579540 0.000000 
#    z 0.000000 0.000000 1.595310 
# 
# From -- ./inp_files/5697.got.cif
#   From: 2010.05.17/outbox.cif.g08.bks.cpg/sg118_3_cif.got.tgz:5697.got - 2010.05.20 11:17:24.
