data_PCOD9558403
_publ_section_title
;
Structure prediction by ZEFSAII (Michael W. Deem and Ramdas Pophale) SiO2 
 PCOD9558403
Probable space group: P -4 N 2
;
_chemical_formula_sum "Si O2"
_cell_formula_units_Z 56
_cell_length_a 22.140192
_cell_length_b 22.140192
_cell_length_c 7.475808
_cell_angle_alpha 90.000000
_cell_angle_beta 90.000000
_cell_angle_gamma 90.000000
_cell_volume 3664.552133
_symmetry_space_group_name_H-M "P -4 N 2"
_symmetry_group_IT_number 118
_symmetry_cell_setting 'tetragonal'
loop_
_space_group_symop_operation_xyz
x,y,z
y,-x,-z
-x,-y,z
-y,x,-z
1/2+y,1/2+x,1/2-z
1/2-y,1/2-x,1/2-z
1/2-x,1/2+y,1/2+z
1/2+x,1/2-y,1/2+z
loop_
_atom_site_type_symbol
_atom_site_label
_atom_site_fract_x
_atom_site_fract_y
_atom_site_fract_z
Si Si1 0.695766 0.701458 0.250000
Si Si2 0.733901 0.133428 0.039085
Si Si3 0.366572 0.766099 0.039084
Si Si4 0.548669 0.048669 0.532733
Si Si5 0.494777 0.819218 0.961197
Si Si6 0.403390 0.200577 0.250000
Si Si7 0.819218 0.505224 0.461196
O O1 0.744866 0.755135 0.250000
O O2 0.712258 0.661486 0.422612
O O3 0.632858 0.736349 0.250000
O O4 0.712258 0.661486 0.077389
O O5 0.673551 0.173551 0.995054
O O6 0.744276 0.139468 0.250000
O O7 0.722699 0.063718 0.991489
O O8 0.436282 0.777301 0.991489
O O9 0.549384 0.049384 0.750000
O O10 0.528456 0.114874 0.477003
O O11 0.500000 0.000000 0.473066
O O12 0.614874 0.028456 0.477003
O O13 0.508927 0.821187 0.750000
O O14 0.552722 0.803180 0.078564
O O15 0.354872 0.145129 0.250000
O O16 0.447278 0.196820 0.421436
#
# Coordination Sequence:
#
# PCOD9558403 Si02
#       7
#     8   8   8   8   8   8   8
#     4   9  20  36  53  70 102 138 175 223 272 309
#     4  10  18  31  54  79  96 129 182 230 261 295
#     4  10  18  31  54  79  96 129 182 230 261 295
#     4   9  18  29  43  69 104 147 181 208 241 291
#     4  11  20  32  52  74 106 141 183 218 255 302
#     4  11  24  37  48  75 113 150 175 209 268 328
#     4  11  20  32  52  74 106 141 183 218 255 302
#
# _framework density 15.28154
#
# number of rings (size 3 to 8) (size 9 to 14) (size 15 to 20)
#    0.000    1.857    4.286    0.857    0.000    3.429 
#    0.000    4.286    0.000    0.000    0.000    0.000 
#    0.000    3.429    0.000    0.000    0.000    0.000 
#
# Total GULP energy -312390.260472 kJ/mol
# GULP energy per Si atom -5578.397508 kJ/mol
# Density = 1.524676 g / cm^3
# Si number density = 15.281540 Si / 1000 Ang^3
#
#
#
# Elastic Constant Matrix: (Units=GPa)
#
#
# Indices 1 2 3 4 5 6 
#
# 1 84.3477 77.3637 45.2395 0.0000 0.0000 0.0000
# 2 77.3637 84.3488 45.2403 0.0000 0.0000 0.0000
# 3 45.2395 45.2403 105.4025 0.0000 0.0000 0.0000
# 4 0.0000 0.0000 0.0000 14.5668 0.0000 0.0000
# 5 0.0000 0.0000 0.0000 0.0000 14.5676 0.0000
# 6 0.0000 0.0000 0.0000 0.0000 0.0000 33.7636
#
#
#
# Elastic Compliance Matrix: (Units=1/GPa)
#
#
# Indices 1 2 3 4 5 6 
#
# 1 0.075656 -0.067517 -0.003493 0.000000 0.000000 0.000000
# 2 -0.067517 0.075655 -0.003493 0.000000 0.000000 0.000000
# 3 -0.003493 -0.003493 0.012486 0.000000 0.000000 0.000000
# 4 0.000000 0.000000 0.000000 0.068649 0.000000 0.000000
# 5 0.000000 0.000000 0.000000 0.000000 0.068646 0.000000
# 6 0.000000 0.000000 0.000000 0.000000 0.000000 0.029618
#
#
# Mechanical properties :
#
#
# Convention : Reuss Voigt Hill
#
# Bulk Modulus (GPa) = 67.61186 67.75401 67.68293
# Shear Modulus (GPa) = 10.31681 19.66331 14.99006
#
# Velocity S-wave (km/s) = 2.60112 3.59100 3.13537
# Velocity P-wave (km/s) = 7.30488 7.85030 7.58249
#
# Compressibility (1/GPa) = 0.01479031
#
# Stress axis : x y z
#
# Youngs Moduli (GPa) = 13.21779 13.21786 80.09027
#
# Poissons Ratio (x) = 0.89243 0.27972
# Poissons Ratio (y) = 0.89243 0.27979
# Poissons Ratio (z) = 0.04616 0.04618
#
# Static dielectric constant tensor:
#      x y z
#    x 1.495650 0.000000 0.000000 
#    y 0.000000 1.495650 0.000000 
#    z 0.000000 0.000000 1.534580 
# 
# From -- ./inp_files/2308.got.cif
#   From: 2010.05.17/outbox.cif.g08.bks.cpg/sg118_2_cif.got.tgz:2308.got - 2010.05.20 11:17:24.
