data_PCOD9558877
_publ_section_title
;
Structure prediction by ZEFSAII (Michael W. Deem and Ramdas Pophale) SiO2 
 PCOD9558877
Probable space group: P -4 N 2
;
_chemical_formula_sum "Si O2"
_cell_formula_units_Z 40
_cell_length_a 15.428273
_cell_length_b 15.428273
_cell_length_c 7.859404
_cell_angle_alpha 90.000000
_cell_angle_beta 90.000000
_cell_angle_gamma 90.000000
_cell_volume 1870.786570
_symmetry_space_group_name_H-M "P -4 N 2"
_symmetry_group_IT_number 118
_symmetry_cell_setting 'tetragonal'
loop_
_space_group_symop_operation_xyz
x,y,z
y,-x,-z
-x,-y,z
-y,x,-z
1/2+y,1/2+x,1/2-z
1/2-y,1/2-x,1/2-z
1/2-x,1/2+y,1/2+z
1/2+x,1/2-y,1/2+z
loop_
_atom_site_type_symbol
_atom_site_label
_atom_site_fract_x
_atom_site_fract_y
_atom_site_fract_z
Si Si1 0.824262 0.291779 0.947775
Si Si2 0.599765 0.900236 0.750000
Si Si3 0.103605 0.396396 0.250000
Si Si4 0.564458 0.618357 0.433419
Si Si5 0.626195 0.519617 0.931126
Si Si6 0.352357 0.784184 0.069521
O O1 0.820047 0.320047 0.750000
O O2 0.877301 0.201838 0.970260
O O3 0.863671 0.360663 0.076529
O O4 0.728120 0.274913 0.015282
O O5 0.498330 0.881669 0.749464
O O6 0.140576 0.354154 0.420312
O O7 0.613434 0.527959 0.469715
O O8 0.536693 0.622709 0.238457
O O9 0.719796 0.564836 0.936523
O O10 0.593892 0.448967 0.070257
O O11 0.329559 0.829559 0.250000
#
# Coordination Sequence:
#
# PCOD9558877 Si02
#       6
#     8   4   4   8   8   8
#     4  12  27  47  76 114 147 200 248 304 373 445
#     4  11  30  52  74 104 150 203 250 304 364 437
#     4  11  30  52  74 104 150 203 250 304 364 437
#     4  11  25  44  73 111 149 189 237 309 385 441
#     4  11  25  44  73 111 149 189 237 309 385 441
#     4  12  27  47  76 114 147 200 248 304 373 445
#
# _framework density 21.381378999999999
#
# number of rings (size 3 to 8) (size 9 to 14) (size 15 to 20)
#    0.000    0.600    2.000    4.800   11.200    0.000 
#    0.000    2.000    0.000    0.000    0.000    0.000 
#    0.000    0.000    0.000    0.000    0.000    0.000 
#
# Total GULP energy -223783.803248 kJ/mol
# GULP energy per Si atom -5594.595081 kJ/mol
# Density = 2.133271 g / cm^3
# Si number density = 21.381379 Si / 1000 Ang^3
#
#
#
# Elastic Constant Matrix: (Units=GPa)
#
#
# Indices 1 2 3 4 5 6 
#
# 1 109.2421 -38.1974 4.8659 0.0000 0.0000 0.0000
# 2 -38.1974 109.2408 4.8662 0.0000 0.0000 0.0000
# 3 4.8659 4.8662 92.0606 0.0000 0.0000 0.0000
# 4 0.0000 0.0000 0.0000 20.5003 0.0000 0.0000
# 5 0.0000 0.0000 0.0000 0.0000 20.4838 0.0000
# 6 0.0000 0.0000 0.0000 0.0000 0.0000 36.4254
#
#
#
# Elastic Compliance Matrix: (Units=1/GPa)
#
#
# Indices 1 2 3 4 5 6 
#
# 1 0.010480 0.003698 -0.000749 0.000000 0.000000 0.000000
# 2 0.003698 0.010481 -0.000749 0.000000 0.000000 0.000000
# 3 -0.000749 -0.000749 0.010942 0.000000 0.000000 0.000000
# 4 0.000000 0.000000 0.000000 0.048780 0.000000 0.000000
# 5 0.000000 0.000000 0.000000 0.000000 0.048819 0.000000
# 6 0.000000 0.000000 0.000000 0.000000 0.000000 0.027453
#
#
# Mechanical properties :
#
#
# Convention : Reuss Voigt Hill
#
# Bulk Modulus (GPa) = 27.54760 28.17920 27.86340
# Shear Modulus (GPa) = 30.36618 38.08248 34.22433
#
# Velocity S-wave (km/s) = 3.77266 4.22489 4.00517
# Velocity P-wave (km/s) = 5.64705 6.08338 5.86927
#
# Compressibility (1/GPa) = 0.03630081
#
# Stress axis : x y z
#
# Youngs Moduli (GPa) = 95.41627 95.41513 91.39405
#
# Poissons Ratio (x) = -0.35284 0.06849
# Poissons Ratio (y) = -0.35285 0.06849
# Poissons Ratio (z) = 0.07151 0.07151
#
# Static dielectric constant tensor:
#      x y z
#    x 1.783450 0.000000 0.000000 
#    y 0.000000 1.783420 0.000000 
#    z 0.000000 0.000000 1.744450 
# 
# From -- ./inp_files/1935.got.cif
#   From: 2010.05.17/outbox.cif.g08.bks.cpg/sg118_1_cif.got.tgz:1935.got - 2010.05.20 11:17:24.
