data_PCOD9558643
_publ_section_title
;
Structure prediction by ZEFSAII (Michael W. Deem and Ramdas Pophale) SiO2 
 PCOD9558643
Probable space group: P -4 N 2
;
_chemical_formula_sum "Si O2"
_cell_formula_units_Z 38
_cell_length_a 9.466421
_cell_length_b 9.466421
_cell_length_c 21.640773
_cell_angle_alpha 90.000000
_cell_angle_beta 90.000000
_cell_angle_gamma 90.000000
_cell_volume 1939.297329
_symmetry_space_group_name_H-M "P -4 N 2"
_symmetry_group_IT_number 118
_symmetry_cell_setting 'tetragonal'
loop_
_space_group_symop_operation_xyz
x,y,z
y,-x,-z
-x,-y,z
-y,x,-z
1/2+y,1/2+x,1/2-z
1/2-y,1/2-x,1/2-z
1/2-x,1/2+y,1/2+z
1/2+x,1/2-y,1/2+z
loop_
_atom_site_type_symbol
_atom_site_label
_atom_site_fract_x
_atom_site_fract_y
_atom_site_fract_z
Si Si1 0.000000 0.000000 0.663795
Si Si2 0.072640 0.648711 0.479284
Si Si3 0.500000 0.500000 0.500000
Si Si4 0.500934 0.238398 0.743887
Si Si5 0.761788 0.007612 0.894209
Si Si6 0.164920 0.188444 0.423371
O O1 0.943401 0.126010 0.619562
O O2 0.137893 0.022154 0.706300
O O3 0.155850 0.615871 0.416167
O O4 0.165283 0.696096 0.536569
O O5 0.000000 0.500000 0.494358
O O6 0.964614 0.775998 0.468721
O O7 0.510870 0.370612 0.548513
O O8 0.379614 0.120387 0.750000
O O9 0.486159 0.308501 0.675807
O O10 0.649241 0.149241 0.750000
O O11 0.683833 0.159232 0.891281
#
# Coordination Sequence:
#
# PCOD9558643 Si02
#       6
#     4   8   2   8   8   8
#     4  12  23  41  68  93 127 176 222 276 322 392
#     4  10  22  37  61  92 127 166 206 267 335 393
#     4  12  22  40  68  96 130 164 200 286 344 392
#     4  11  24  43  67  94 130 178 227 271 319 401
#     4  11  22  40  63  94 125 164 216 263 331 400
#     4  11  21  38  60  91 125 161 213 267 329 387
#
# _framework density 19.594726000000001
#
# number of rings (size 3 to 8) (size 9 to 14) (size 15 to 20)
#    0.000    1.053    4.211    3.158    5.895    0.000 
#    0.000    0.000    0.000    0.000    0.000    0.000 
#    0.000    0.000    0.000    0.000    0.000    0.000 
#
# Total GULP energy -211725.659260 kJ/mol
# GULP energy per Si atom -5571.727875 kJ/mol
# Density = 1.955013 g / cm^3
# Si number density = 19.594726 Si / 1000 Ang^3
#
#
#
# Elastic Constant Matrix: (Units=GPa)
#
#
# Indices 1 2 3 4 5 6 
#
# 1 79.0824 32.0813 37.2348 0.0000 0.0000 0.0000
# 2 32.0813 79.0828 37.2346 0.0000 0.0000 0.0000
# 3 37.2348 37.2346 123.8195 0.0000 0.0000 0.0000
# 4 0.0000 0.0000 0.0000 26.7886 0.0000 0.0000
# 5 0.0000 0.0000 0.0000 0.0000 26.7884 0.0000
# 6 0.0000 0.0000 0.0000 0.0000 0.0000 25.5083
#
#
#
# Elastic Compliance Matrix: (Units=1/GPa)
#
#
# Indices 1 2 3 4 5 6 
#
# 1 0.016271 -0.005005 -0.003388 0.000000 0.000000 0.000000
# 2 -0.005005 0.016271 -0.003388 0.000000 0.000000 0.000000
# 3 -0.003388 -0.003388 0.010114 0.000000 0.000000 0.000000
# 4 0.000000 0.000000 0.000000 0.037329 0.000000 0.000000
# 5 0.000000 0.000000 0.000000 0.000000 0.037330 0.000000
# 6 0.000000 0.000000 0.000000 0.000000 0.000000 0.039203
#
#
# Mechanical properties :
#
#
# Convention : Reuss Voigt Hill
#
# Bulk Modulus (GPa) = 52.37396 55.00956 53.69176
# Shear Modulus (GPa) = 26.81791 27.51265 27.16528
#
# Velocity S-wave (km/s) = 3.70351 3.75118 3.72742
# Velocity P-wave (km/s) = 6.71376 6.84809 6.78126
#
# Compressibility (1/GPa) = 0.01909346
#
# Stress axis : x y z
#
# Youngs Moduli (GPa) = 61.46042 61.46090 98.87570
#
# Poissons Ratio (x) = 0.30764 0.33496
# Poissons Ratio (y) = 0.30764 0.33495
# Poissons Ratio (z) = 0.20821 0.20820
#
# Static dielectric constant tensor:
#      x y z
#    x 1.762520 0.000000 0.000000 
#    y 0.000000 1.762520 0.000000 
#    z 0.000000 0.000000 1.722450 
# 
# From -- ./inp_files/6084.got.cif
#   From: 2010.05.17/outbox.cif.g08.bks.cpg/sg118_4_cif.got.tgz:6084.got - 2010.05.20 11:17:24.
