data_PCOD9558223
_publ_section_title
;
Structure prediction by ZEFSAII (Michael W. Deem and Ramdas Pophale) SiO2 
 PCOD9558223
Probable space group: P -4 B 2
;
_chemical_formula_sum "Si O2"
_cell_formula_units_Z 38
_cell_length_a 16.245699
_cell_length_b 16.245699
_cell_length_c 6.760987
_cell_angle_alpha 90.000000
_cell_angle_beta 90.000000
_cell_angle_gamma 90.000000
_cell_volume 1784.378187
_symmetry_space_group_name_H-M "P -4 B 2"
_symmetry_group_IT_number 117
_symmetry_cell_setting 'tetragonal'
loop_
_space_group_symop_operation_xyz
x,y,z
y,-x,-z
-x,-y,z
-y,x,-z
1/2+y,1/2+x,-z
1/2-y,1/2-x,-z
1/2-x,1/2+y,z
1/2+x,1/2-y,z
loop_
_atom_site_type_symbol
_atom_site_label
_atom_site_fract_x
_atom_site_fract_y
_atom_site_fract_z
Si Si1 0.668205 0.013717 0.241336
Si Si2 0.752666 0.885192 0.970151
Si Si3 0.500000 0.000000 0.000000
Si Si4 0.717215 0.450615 0.564986
Si Si5 0.160285 0.875371 0.712012
Si Si6 0.178582 0.321419 0.500000
O O1 0.672721 0.106575 0.331034
O O2 0.726434 0.973175 0.069999
O O3 0.700563 0.965088 0.435527
O O4 0.578779 0.001456 0.145421
O O5 0.836199 0.854879 0.074726
O O6 0.677944 0.822057 0.000000
O O7 0.765339 0.888229 0.738242
O O8 0.647913 0.419253 0.416435
O O9 0.685380 0.531230 0.678489
O O10 0.236272 0.827830 0.613630
#
# Coordination Sequence:
#
# PCOD9558223 Si02
#       6
#     8   8   2   8   8   4
#     4  10  25  40  63  96 136 174 223 266 329 411
#     4  11  23  41  65  97 132 173 220 279 339 412
#     4  12  24  42  64 100 138 192 212 282 334 414
#     4  10  24  45  64  95 130 171 224 287 339 408
#     4  10  23  42  66  91 127 171 224 276 338 404
#     4  10  22  43  64  94 134 183 214 276 334 406
#
# _framework density 21.295933999999999
#
# number of rings (size 3 to 8) (size 9 to 14) (size 15 to 20)
#    0.000    1.684    1.053    1.263    5.895   11.789 
#    0.000    0.000    0.000    0.000    0.000    0.000 
#    0.000    0.000    0.000    0.000    0.000    0.000 
#
# Total GULP energy -211933.295267 kJ/mol
# GULP energy per Si atom -5577.191981 kJ/mol
# Density = 2.124746 g / cm^3
# Si number density = 21.295934 Si / 1000 Ang^3
#
#
#
# Elastic Constant Matrix: (Units=GPa)
#
#
# Indices 1 2 3 4 5 6 
#
# 1 73.4410 3.5825 32.8351 0.0000 0.0000 0.0000
# 2 3.5825 73.4454 32.8351 0.0000 0.0000 0.0000
# 3 32.8351 32.8351 114.6915 0.0000 0.0000 0.0000
# 4 0.0000 0.0000 0.0000 12.3311 0.0000 0.0000
# 5 0.0000 0.0000 0.0000 0.0000 12.3281 0.0000
# 6 0.0000 0.0000 0.0000 0.0000 0.0000 24.5696
#
#
#
# Elastic Compliance Matrix: (Units=1/GPa)
#
#
# Indices 1 2 3 4 5 6 
#
# 1 0.015745 0.001430 -0.004917 0.000000 0.000000 0.000000
# 2 0.001430 0.015744 -0.004917 0.000000 0.000000 0.000000
# 3 -0.004917 -0.004917 0.011534 0.000000 0.000000 0.000000
# 4 0.000000 0.000000 0.000000 0.081096 0.000000 0.000000
# 5 0.000000 0.000000 0.000000 0.000000 0.081116 0.000000
# 6 0.000000 0.000000 0.000000 0.000000 0.000000 0.040701
#
#
# Mechanical properties :
#
#
# Convention : Reuss Voigt Hill
#
# Bulk Modulus (GPa) = 38.14456 44.45369 41.29913
# Shear Modulus (GPa) = 18.41746 22.66743 20.54244
#
# Velocity S-wave (km/s) = 2.94400 3.26606 3.10920
# Velocity P-wave (km/s) = 5.43201 5.92810 5.68547
#
# Compressibility (1/GPa) = 0.02621606
#
# Stress axis : x y z
#
# Youngs Moduli (GPa) = 63.51212 63.51652 86.69718
#
# Poissons Ratio (x) = -0.09085 0.42630
# Poissons Ratio (y) = -0.09084 0.42627
# Poissons Ratio (z) = 0.31230 0.31230
#
# Static dielectric constant tensor:
#      x y z
#    x 1.780660 0.000000 0.000000 
#    y 0.000000 1.780660 0.000000 
#    z 0.000000 0.000000 1.742730 
# 
# From -- ./inp_files/629.got.cif
#   From: 2010.05.17/outbox.cif.g08.bks.cpg/sg117_1_cif.got.tgz:629.got - 2010.05.20 11:15:09.
