data_PCOD9558169
_publ_section_title
;
Structure prediction by ZEFSAII (Michael W. Deem and Ramdas Pophale) SiO2 
 PCOD9558169
Probable space group: P -4 B 2
;
_chemical_formula_sum "Si O2"
_cell_formula_units_Z 34
_cell_length_a 10.478436
_cell_length_b 10.478436
_cell_length_c 12.940116
_cell_angle_alpha 90.000000
_cell_angle_beta 90.000000
_cell_angle_gamma 90.000000
_cell_volume 1420.793952
_symmetry_space_group_name_H-M "P -4 B 2"
_symmetry_group_IT_number 117
_symmetry_cell_setting 'tetragonal'
loop_
_space_group_symop_operation_xyz
x,y,z
y,-x,-z
-x,-y,z
-y,x,-z
1/2+y,1/2+x,-z
1/2-y,1/2-x,-z
1/2-x,1/2+y,z
1/2+x,1/2-y,z
loop_
_atom_site_type_symbol
_atom_site_label
_atom_site_fract_x
_atom_site_fract_y
_atom_site_fract_z
Si Si1 0.599903 0.615825 0.399879
Si Si2 0.313007 0.032028 0.422484
Si Si3 0.875559 0.307305 0.224121
Si Si4 0.000000 0.000000 0.000000
Si Si5 0.244428 0.383622 0.901328
O O1 0.500000 0.500000 0.387462
O O2 0.573552 0.692146 0.505761
O O3 0.755810 0.605820 0.398990
O O4 0.572803 0.696050 0.298119
O O5 0.419853 0.080148 0.500000
O O6 0.340386 0.087200 0.310104
O O7 0.744800 0.269161 0.166116
O O8 0.997014 0.330194 0.150516
O O9 0.882790 0.059626 0.934708
O O10 0.166297 0.333704 0.000000
#
# Coordination Sequence:
#
# PCOD9558169 Si02
#       5
#     8   8   8   2   8
#     4  11  20  41  74 104 152 217 272 330 423 523
#     4  10  21  37  66 107 148 203 267 333 400 508
#     4  11  27  43  77 115 161 209 284 350 430 510
#     4  12  28  56  84 108 162 224 280 372 460 508
#     4  12  27  52  81 120 159 224 291 361 435 520
#
# _framework density 23.930281999999998
#
# number of rings (size 3 to 8) (size 9 to 14) (size 15 to 20)
#    0.000    0.941    4.706    1.412    8.235    0.000 
#    0.000    8.235    0.000    0.000    0.000    0.000 
#    0.000    0.000    0.000    0.000    0.000    0.000 
#
# Total GULP energy -189312.710799 kJ/mol
# GULP energy per Si atom -5568.020906 kJ/mol
# Density = 2.387582 g / cm^3
# Si number density = 23.930282 Si / 1000 Ang^3
#
#
#
# Elastic Constant Matrix: (Units=GPa)
#
#
# Indices 1 2 3 4 5 6 
#
# 1 51.8045 61.5520 39.0339 0.0000 0.0000 0.0000
# 2 61.5520 51.8023 39.0312 0.0000 0.0000 0.0000
# 3 39.0339 39.0312 143.7042 0.0000 0.0000 0.0000
# 4 0.0000 0.0000 0.0000 92.8965 0.0000 0.0000
# 5 0.0000 0.0000 0.0000 0.0000 92.8999 0.0000
# 6 0.0000 0.0000 0.0000 0.0000 0.0000 28.2286
#
#
#
# Elastic Compliance Matrix: (Units=1/GPa)
#
#
# Indices 1 2 3 4 5 6 
#
# 1 -0.045863 0.056715 -0.002947 0.000000 0.000000 0.000000
# 2 0.056715 -0.045864 -0.002948 0.000000 0.000000 0.000000
# 3 -0.002947 -0.002948 0.008560 0.000000 0.000000 0.000000
# 4 0.000000 0.000000 0.000000 0.010765 0.000000 0.000000
# 5 0.000000 0.000000 0.000000 0.000000 0.010764 0.000000
# 6 0.000000 0.000000 0.000000 0.000000 0.000000 0.035425
#
#
# Mechanical properties :
#
#
# Convention : Reuss Voigt Hill
#
# Bulk Modulus (GPa) = 54.13228 58.50505 56.31867
# Shear Modulus (GPa) = -41.08618 49.98459 4.44920
#
# Velocity S-wave (km/s) = -4.14806 4.57525 1.36502
# Velocity P-wave (km/s) = 0.52146 7.23960 5.10587
#
# Compressibility (1/GPa) = 0.01847327
#
# Stress axis : x y z
#
# Youngs Moduli (GPa) = -21.80404 -21.80367 116.82347
#
# Poissons Ratio (x) = 1.23660 0.34424
# Poissons Ratio (y) = 1.23662 0.34444
# Poissons Ratio (z) = -0.06425 -0.06429
#
# Static dielectric constant tensor:
#      x y z
#    x 2.336150 0.000000 0.000000 
#    y 0.000000 2.336130 0.000000 
#    z 0.000000 0.000000 1.797460 
# 
# From -- ./inp_files/2547.got.cif
#   From: 2010.05.17/outbox.cif.g08.bks.cpg/sg117_2_cif.got.tgz:2547.got - 2010.05.20 11:15:09.
