data_PCOD9558492
_publ_section_title
;
Structure prediction by ZEFSAII (Michael W. Deem and Ramdas Pophale) SiO2 
 PCOD9558492
Probable space group: P -4 N 2
;
_chemical_formula_sum "Si O2"
_cell_formula_units_Z 32
_cell_length_a 7.961532
_cell_length_b 7.961532
_cell_length_c 21.877775
_cell_angle_alpha 90.000000
_cell_angle_beta 90.000000
_cell_angle_gamma 90.000000
_cell_volume 1386.744466
_symmetry_space_group_name_H-M "P -4 N 2"
_symmetry_group_IT_number 118
_symmetry_cell_setting 'tetragonal'
loop_
_space_group_symop_operation_xyz
x,y,z
y,-x,-z
-x,-y,z
-y,x,-z
1/2+y,1/2+x,1/2-z
1/2-y,1/2-x,1/2-z
1/2-x,1/2+y,1/2+z
1/2+x,1/2-y,1/2+z
loop_
_atom_site_type_symbol
_atom_site_label
_atom_site_fract_x
_atom_site_fract_y
_atom_site_fract_z
Si Si1 0.539028 0.819665 0.813665
Si Si2 0.178117 0.218672 0.494705
Si Si3 0.296874 0.312159 0.359935
Si Si4 0.343617 0.710945 0.378494
O O1 0.623807 0.876194 0.750000
O O2 0.350756 0.749741 0.814784
O O3 0.674320 0.711849 0.849736
O O4 0.500000 0.000000 0.846224
O O5 0.237043 0.274285 0.428408
O O6 0.258894 0.328112 0.549216
O O7 0.976193 0.228842 0.497132
O O8 0.328188 0.514172 0.359483
O O9 0.479346 0.229635 0.352539
#
# Coordination Sequence:
#
# PCOD9558492 Si02
#       4
#     8   8   8   8
#     4   9  18  36  63  83 121 166 212 264 322 376
#     4  11  22  35  56  90 134 173 215 269 337 411
#     4  10  20  35  60  91 120 161 214 255 329 397
#     4  10  20  35  60  91 122 163 213 264 324 397
#
# _framework density 23.075631000000001
#
# number of rings (size 3 to 8) (size 9 to 14) (size 15 to 20)
#    0.000    2.000    2.500    1.500    0.000    5.000 
#    0.000    0.000   44.000    0.000    0.000    0.000 
#    0.000    0.000    0.000    0.000    0.000    0.000 
#
# Total GULP energy -178381.199820 kJ/mol
# GULP energy per Si atom -5574.412494 kJ/mol
# Density = 2.302311 g / cm^3
# Si number density = 23.075631 Si / 1000 Ang^3
#
#
#
# Elastic Constant Matrix: (Units=GPa)
#
#
# Indices 1 2 3 4 5 6 
#
# 1 94.0720 14.0090 29.4322 0.0000 0.0000 0.0000
# 2 14.0090 94.0723 29.4322 0.0000 0.0000 0.0000
# 3 29.4322 29.4322 97.9647 0.0000 0.0000 0.0000
# 4 0.0000 0.0000 0.0000 15.3659 0.0000 0.0000
# 5 0.0000 0.0000 0.0000 0.0000 15.3654 0.0000
# 6 0.0000 0.0000 0.0000 0.0000 0.0000 13.8672
#
#
#
# Elastic Compliance Matrix: (Units=1/GPa)
#
#
# Indices 1 2 3 4 5 6 
#
# 1 0.011776 -0.000714 -0.003324 0.000000 0.000000 0.000000
# 2 -0.000714 0.011776 -0.003324 0.000000 0.000000 0.000000
# 3 -0.003324 -0.003324 0.012205 0.000000 0.000000 0.000000
# 4 0.000000 0.000000 0.000000 0.065079 0.000000 0.000000
# 5 0.000000 0.000000 0.000000 0.000000 0.065081 0.000000
# 6 0.000000 0.000000 0.000000 0.000000 0.000000 0.072113
#
#
# Mechanical properties :
#
#
# Convention : Reuss Voigt Hill
#
# Bulk Modulus (GPa) = 47.53890 47.98398 47.76144
# Shear Modulus (GPa) = 19.24823 23.13540 21.19182
#
# Velocity S-wave (km/s) = 2.89128 3.16981 3.03374
# Velocity P-wave (km/s) = 5.63844 5.85118 5.74579
#
# Compressibility (1/GPa) = 0.02103540
#
# Stress axis : x y z
#
# Youngs Moduli (GPa) = 84.91631 84.91658 81.93499
#
# Poissons Ratio (x) = 0.06062 0.27232
# Poissons Ratio (y) = 0.06062 0.27231
# Poissons Ratio (z) = 0.28222 0.28222
#
# Static dielectric constant tensor:
#      x y z
#    x 2.068330 0.000000 0.000000 
#    y 0.000000 2.068330 0.000000 
#    z 0.000000 0.000000 1.851730 
# 
# From -- ./inp_files/5292.got.cif
#   From: 2010.05.17/outbox.cif.g08.bks.cpg/sg118_3_cif.got.tgz:5292.got - 2010.05.20 11:17:24.
