data_PCOD9558158
_publ_section_title
;
Structure prediction by ZEFSAII (Michael W. Deem and Ramdas Pophale) SiO2 
 PCOD9558158
Probable space group: P -4 B 2
;
_chemical_formula_sum "Si O2"
_cell_formula_units_Z 48
_cell_length_a 21.564019
_cell_length_b 21.564019
_cell_length_c 5.421210
_cell_angle_alpha 90.000000
_cell_angle_beta 90.000000
_cell_angle_gamma 90.000000
_cell_volume 2520.900140
_symmetry_space_group_name_H-M "P -4 B 2"
_symmetry_group_IT_number 117
_symmetry_cell_setting 'tetragonal'
loop_
_space_group_symop_operation_xyz
x,y,z
y,-x,-z
-x,-y,z
-y,x,-z
1/2+y,1/2+x,-z
1/2-y,1/2-x,-z
1/2-x,1/2+y,z
1/2+x,1/2-y,z
loop_
_atom_site_type_symbol
_atom_site_label
_atom_site_fract_x
_atom_site_fract_y
_atom_site_fract_z
Si Si1 0.877910 0.866674 0.436337
Si Si2 0.216951 0.386371 0.048028
Si Si3 0.024798 0.909354 0.941612
Si Si4 0.683871 0.713237 0.958653
Si Si5 0.205031 0.060701 0.801749
Si Si6 0.252280 0.953655 0.534256
O O1 0.902271 0.921971 0.262567
O O2 0.846278 0.899877 0.661134
O O3 0.931804 0.818882 0.498166
O O4 0.822092 0.828496 0.300419
O O5 0.276763 0.341743 0.094341
O O6 0.212870 0.430729 0.288228
O O7 0.159158 0.340843 0.000000
O O8 0.225329 0.421955 0.789221
O O9 0.014906 0.838997 0.038542
O O10 0.960162 0.942464 0.875996
O O11 0.614926 0.734322 0.036567
O O12 0.728723 0.771278 0.000000
O O13 0.248142 0.025582 0.608703
#
# Coordination Sequence:
#
# PCOD9558158 Si02
#       6
#     8   8   8   8   8   8
#     4  10  21  32  49  73 106 147 191 235 280 329
#     4  10  21  39  60  80 105 146 193 237 279 336
#     4  10  21  33  45  65 103 155 205 239 272 320
#     4   9  20  36  53  74 104 145 191 234 288 343
#     4  11  22  32  51  76 108 148 184 240 285 334
#     4  11  22  36  56  80 112 144 189 233 283 331
#
# _framework density 19.040818000000002
#
# number of rings (size 3 to 8) (size 9 to 14) (size 15 to 20)
#    0.000    1.833    3.333    0.500    7.000    0.667 
#    0.000    1.667    0.000    0.000    0.000    0.000 
#    0.000    0.667    1.000    0.000    0.000    0.000 
#
# Total GULP energy -267254.956715 kJ/mol
# GULP energy per Si atom -5567.811598 kJ/mol
# Density = 1.899748 g / cm^3
# Si number density = 19.040818 Si / 1000 Ang^3
#
#
#
# Elastic Constant Matrix: (Units=GPa)
#
#
# Indices 1 2 3 4 5 6 
#
# 1 45.8980 16.0138 10.2865 0.0000 0.0000 0.0000
# 2 16.0138 45.8987 10.2861 0.0000 0.0000 0.0000
# 3 10.2865 10.2861 60.0820 0.0000 0.0000 0.0000
# 4 0.0000 0.0000 0.0000 17.7889 0.0000 0.0000
# 5 0.0000 0.0000 0.0000 0.0000 17.7890 0.0000
# 6 0.0000 0.0000 0.0000 0.0000 0.0000 21.2220
#
#
#
# Elastic Compliance Matrix: (Units=1/GPa)
#
#
# Indices 1 2 3 4 5 6 
#
# 1 0.025294 -0.008168 -0.002932 0.000000 0.000000 0.000000
# 2 -0.008168 0.025294 -0.002932 0.000000 0.000000 0.000000
# 3 -0.002932 -0.002932 0.017648 0.000000 0.000000 0.000000
# 4 0.000000 0.000000 0.000000 0.056215 0.000000 0.000000
# 5 0.000000 0.000000 0.000000 0.000000 0.056214 0.000000
# 6 0.000000 0.000000 0.000000 0.000000 0.000000 0.047121
#
#
# Mechanical properties :
#
#
# Convention : Reuss Voigt Hill
#
# Bulk Modulus (GPa) = 24.89298 25.00573 24.94935
# Shear Modulus (GPa) = 18.57071 19.04615 18.80843
#
# Velocity S-wave (km/s) = 3.12638 3.16615 3.14633
# Velocity P-wave (km/s) = 5.11217 5.15046 5.13135
#
# Compressibility (1/GPa) = 0.04017198
#
# Stress axis : x y z
#
# Youngs Moduli (GPa) = 39.53440 39.53521 56.66400
#
# Poissons Ratio (x) = 0.32292 0.16615
# Poissons Ratio (y) = 0.32292 0.16613
# Poissons Ratio (z) = 0.11592 0.11591
#
# Static dielectric constant tensor:
#      x y z
#    x 1.724240 0.000000 0.000000 
#    y 0.000000 1.724240 0.000000 
#    z 0.000000 0.000000 1.758560 
# 
# From -- ./inp_files/798.got.cif
#   From: 2010.05.17/outbox.cif.g08.bks.cpg/sg117_1_cif.got.tgz:798.got - 2010.05.20 11:15:09.
