data_PCOD9558050
_publ_section_title
;
Structure prediction by ZEFSAII (Michael W. Deem and Ramdas Pophale) SiO2 
 PCOD9558050
Probable space group: P -4 B 2
;
_chemical_formula_sum "Si O2"
_cell_formula_units_Z 64
_cell_length_a 15.997456
_cell_length_b 15.997456
_cell_length_c 10.382443
_cell_angle_alpha 90.000000
_cell_angle_beta 90.000000
_cell_angle_gamma 90.000000
_cell_volume 2657.060261
_symmetry_space_group_name_H-M "P -4 B 2"
_symmetry_group_IT_number 117
_symmetry_cell_setting 'tetragonal'
loop_
_space_group_symop_operation_xyz
x,y,z
y,-x,-z
-x,-y,z
-y,x,-z
1/2+y,1/2+x,-z
1/2-y,1/2-x,-z
1/2-x,1/2+y,z
1/2+x,1/2-y,z
loop_
_atom_site_type_symbol
_atom_site_label
_atom_site_fract_x
_atom_site_fract_y
_atom_site_fract_z
Si Si1 0.151502 0.372153 0.694630
Si Si2 0.135231 0.468174 0.096906
Si Si3 0.778017 0.243747 0.630031
Si Si4 0.881532 0.260956 0.867226
Si Si5 0.489092 0.375034 0.224595
Si Si6 0.862131 0.001563 0.283337
Si Si7 0.782978 0.054940 0.553634
Si Si8 0.278214 0.391150 0.942187
O O1 0.061694 0.383563 0.757567
O O2 0.179650 0.279048 0.649575
O O3 0.068096 0.316495 0.420576
O O4 0.216569 0.385464 0.816030
O O5 0.163609 0.563355 0.080891
O O6 0.063957 0.436044 0.000000
O O7 0.216816 0.413538 0.056244
O O8 0.792914 0.292914 0.500000
O O9 0.816895 0.284321 0.754795
O O10 0.812496 0.149165 0.599240
O O11 0.830263 0.194632 0.953972
O O12 0.951575 0.206530 0.794429
O O13 0.557567 0.440051 0.282230
O O14 0.400496 0.418533 0.209729
O O15 0.486875 0.308497 0.339135
O O16 0.531624 0.338121 0.096911
O O17 0.825158 0.027281 0.421412
#
# Coordination Sequence:
#
# PCOD9558050 Si02
#       8
#     8   8   8   8   8   8   8   8
#     4   7  16  30  46  70  95 137 176 209 254 311
#     4  10  19  33  56  72 102 142 176 234 284 310
#     4   9  18  33  49  68 109 141 172 223 267 312
#     4  10  20  33  47  77 105 136 193 222 262 338
#     4   9  16  27  41  68 114 153 178 194 239 312
#     4  10  17  25  43  72 112 152 173 199 246 316
#     4   9  16  27  44  70 105 144 174 206 248 308
#     4   8  16  33  45  67 105 142 171 219 255 314
#
# _framework density 24.086770000000001
#
# number of rings (size 3 to 8) (size 9 to 14) (size 15 to 20)
#    0.750    2.250    2.500    0.750    1.750    2.000 
#    0.000    0.000    0.000    0.000    0.000    0.000 
#    0.000   50.500    0.000    0.000    0.000    0.000 
#
# Total GULP energy -356587.956552 kJ/mol
# GULP energy per Si atom -5571.686821 kJ/mol
# Density = 2.403195 g / cm^3
# Si number density = 24.086770 Si / 1000 Ang^3
#
#
#
# Elastic Constant Matrix: (Units=GPa)
#
#
# Indices 1 2 3 4 5 6 
#
# 1 33.3462 35.9065 24.6215 0.0000 0.0000 0.0000
# 2 35.9065 33.3457 24.6213 0.0000 0.0000 0.0000
# 3 24.6215 24.6213 73.2668 0.0000 0.0000 0.0000
# 4 0.0000 0.0000 0.0000 15.7131 0.0000 0.0000
# 5 0.0000 0.0000 0.0000 0.0000 15.7130 0.0000
# 6 0.0000 0.0000 0.0000 0.0000 0.0000 35.5495
#
#
#
# Elastic Compliance Matrix: (Units=1/GPa)
#
#
# Indices 1 2 3 4 5 6 
#
# 1 -0.185781 0.204757 -0.006376 0.000000 0.000000 0.000000
# 2 0.204757 -0.185784 -0.006376 0.000000 0.000000 0.000000
# 3 -0.006376 -0.006376 0.017934 0.000000 0.000000 0.000000
# 4 0.000000 0.000000 0.000000 0.063641 0.000000 0.000000
# 5 0.000000 0.000000 0.000000 0.000000 0.063641 0.000000
# 6 0.000000 0.000000 0.000000 0.000000 0.000000 0.028130
#
#
# Mechanical properties :
#
#
# Convention : Reuss Voigt Hill
#
# Bulk Modulus (GPa) = 32.91957 34.47305 33.69631
# Shear Modulus (GPa) = -8.73970 17.04909 4.15469
#
# Velocity S-wave (km/s) = -1.90691 2.66337 1.31477
# Velocity P-wave (km/s) = 2.97462 4.87864 4.04039
#
# Compressibility (1/GPa) = 0.03037706
#
# Stress axis : x y z
#
# Youngs Moduli (GPa) = -5.38267 -5.38258 55.75947
#
# Poissons Ratio (x) = 1.10212 0.35553
# Poissons Ratio (y) = 1.10214 0.35553
# Poissons Ratio (z) = -0.03432 -0.03432
#
# Static dielectric constant tensor:
#      x y z
#    x 2.033130 0.000000 0.000000 
#    y 0.000000 2.033130 0.000000 
#    z 0.000000 0.000000 2.015360 
# 
# From -- ./inp_files/2946.got.cif
#   From: 2010.05.17/outbox.cif.g08.bks.cpg/sg117_2_cif.got.tgz:2946.got - 2010.05.20 11:15:09.
