data_PCOD9558454
_publ_section_title
;
Structure prediction by ZEFSAII (Michael W. Deem and Ramdas Pophale) SiO2 
 PCOD9558454
Probable space group: P -4 N 2
;
_chemical_formula_sum "Si O2"
_cell_formula_units_Z 34
_cell_length_a 10.596655
_cell_length_b 10.596655
_cell_length_c 15.521916
_cell_angle_alpha 90.000000
_cell_angle_beta 90.000000
_cell_angle_gamma 90.000000
_cell_volume 1742.941934
_symmetry_space_group_name_H-M "P -4 N 2"
_symmetry_group_IT_number 118
_symmetry_cell_setting 'tetragonal'
loop_
_space_group_symop_operation_xyz
x,y,z
y,-x,-z
-x,-y,z
-y,x,-z
1/2+y,1/2+x,1/2-z
1/2-y,1/2-x,1/2-z
1/2-x,1/2+y,1/2+z
1/2+x,1/2-y,1/2+z
loop_
_atom_site_type_symbol
_atom_site_label
_atom_site_fract_x
_atom_site_fract_y
_atom_site_fract_z
Si Si1 0.479869 0.697136 0.524724
Si Si2 0.155207 0.666927 0.152122
Si Si3 0.711587 0.477209 0.000815
Si Si4 0.366427 0.868596 0.384452
Si Si5 0.500000 0.000000 0.250000
O O1 0.591461 0.628591 0.470324
O O2 0.541151 0.752703 0.610567
O O3 0.423424 0.809893 0.470174
O O4 0.127051 0.627051 0.250000
O O5 0.273677 0.762785 0.152357
O O6 0.201420 0.562215 0.082330
O O7 0.796700 0.504632 0.916722
O O8 0.606976 0.367962 0.985585
O O9 0.476551 0.886515 0.315434
#
# Coordination Sequence:
#
# PCOD9558454 Si02
#       5
#     8   8   8   8   2
#     4   9  19  37  58  78 111 153 182 220 285 331
#     4  10  19  36  56  84 111 143 186 236 268 325
#     4   9  19  37  58  78 111 153 182 220 285 331
#     4  10  20  35  54  81 111 143 183 232 272 338
#     4  12  20  32  52  84 106 144 184 232 284 304
#
# _framework density 19.507247
#
# number of rings (size 3 to 8) (size 9 to 14) (size 15 to 20)
#    0.000    2.353    1.176    1.412    0.000    0.000 
#    4.235    7.059    0.000    0.000    0.000    0.000 
#    0.000    0.000    0.000    0.000    0.000    0.000 
#
# Total GULP energy -189299.616422 kJ/mol
# GULP energy per Si atom -5567.635777 kJ/mol
# Density = 1.946285 g / cm^3
# Si number density = 19.507247 Si / 1000 Ang^3
#
#
#
# Elastic Constant Matrix: (Units=GPa)
#
#
# Indices 1 2 3 4 5 6 
#
# 1 45.1124 21.5584 22.6240 0.0000 0.0000 0.0000
# 2 21.5584 45.1124 22.6240 0.0000 0.0000 0.0000
# 3 22.6240 22.6240 90.3021 0.0000 0.0000 0.0000
# 4 0.0000 0.0000 0.0000 1.0721 0.0000 0.0000
# 5 0.0000 0.0000 0.0000 0.0000 1.0721 0.0000
# 6 0.0000 0.0000 0.0000 0.0000 0.0000 23.7082
#
#
#
# Elastic Compliance Matrix: (Units=1/GPa)
#
#
# Indices 1 2 3 4 5 6 
#
# 1 0.030264 -0.012192 -0.004528 0.000000 0.000000 0.000000
# 2 -0.012192 0.030264 -0.004528 0.000000 0.000000 0.000000
# 3 -0.004528 -0.004528 0.013343 0.000000 0.000000 0.000000
# 4 0.000000 0.000000 0.000000 0.932772 0.000000 0.000000
# 5 0.000000 0.000000 0.000000 0.000000 0.932772 0.000000
# 6 0.000000 0.000000 0.000000 0.000000 0.000000 0.042179
#
#
# Mechanical properties :
#
#
# Convention : Reuss Voigt Hill
#
# Bulk Modulus (GPa) = 31.87174 34.90440 33.38807
# Shear Modulus (GPa) = 2.45755 12.75184 7.60470
#
# Velocity S-wave (km/s) = 1.12363 2.55952 1.97658
# Velocity P-wave (km/s) = 4.24939 5.16399 4.72885
#
# Compressibility (1/GPa) = 0.03137576
#
# Stress axis : x y z
#
# Youngs Moduli (GPa) = 33.04279 33.04279 74.94772
#
# Poissons Ratio (x) = 0.40285 0.33934
# Poissons Ratio (y) = 0.40285 0.33934
# Poissons Ratio (z) = 0.14961 0.14961
#
# Static dielectric constant tensor:
#      x y z
#    x 1.710190 0.000000 0.000000 
#    y 0.000000 1.710190 0.000000 
#    z 0.000000 0.000000 1.673920 
# 
# From -- ./inp_files/2931.got.cif
#   From: 2010.05.17/outbox.cif.g08.bks.cpg/sg118_2_cif.got.tgz:2931.got - 2010.05.20 11:17:24.
