data_PCOD9558749
_publ_section_title
;
Structure prediction by ZEFSAII (Michael W. Deem and Ramdas Pophale) SiO2 
 PCOD9558749
Probable space group: P -4 N 2
;
_chemical_formula_sum "Si O2"
_cell_formula_units_Z 48
_cell_length_a 19.372935
_cell_length_b 19.372935
_cell_length_c 6.407010
_cell_angle_alpha 90.000000
_cell_angle_beta 90.000000
_cell_angle_gamma 90.000000
_cell_volume 2404.618835
_symmetry_space_group_name_H-M "P -4 N 2"
_symmetry_group_IT_number 118
_symmetry_cell_setting 'tetragonal'
loop_
_space_group_symop_operation_xyz
x,y,z
y,-x,-z
-x,-y,z
-y,x,-z
1/2+y,1/2+x,1/2-z
1/2-y,1/2-x,1/2-z
1/2-x,1/2+y,1/2+z
1/2+x,1/2-y,1/2+z
loop_
_atom_site_type_symbol
_atom_site_label
_atom_site_fract_x
_atom_site_fract_y
_atom_site_fract_z
Si Si1 0.766850 0.167691 0.114077
Si Si2 0.968459 0.865969 0.275327
Si Si3 0.118184 0.457846 0.943226
Si Si4 0.337826 0.593076 0.527400
Si Si5 0.836857 0.663144 0.250000
Si Si6 0.765372 0.016185 0.331159
Si Si7 0.500000 0.500000 0.000000
Si Si8 0.000000 0.500000 0.250000
O O1 0.717397 0.217397 0.250000
O O2 0.768910 0.091302 0.218435
O O3 0.843612 0.199175 0.090197
O O4 0.731249 0.161140 0.888090
O O5 0.901194 0.865692 0.132279
O O6 0.974602 0.808450 0.454563
O O7 0.962460 0.941763 0.371451
O O8 0.037910 0.864237 0.140464
O O9 0.076580 0.423421 0.750000
O O10 0.184414 0.499483 0.864295
O O11 0.152447 0.397935 0.084181
O O12 0.065785 0.497171 0.096361
O O13 0.297612 0.545677 0.693667
#
# Coordination Sequence:
#
# PCOD9558749 Si02
#       8
#     8   8   8   8   4   8   2   2
#     4  12  25  44  71 101 132 183 242 296 344 429
#     4  12  24  42  65  99 146 186 236 283 336 413
#     4  11  22  44  74 106 128 177 233 301 355 437
#     4  12  26  40  68 102 141 187 236 283 352 409
#     4  11  20  41  78  98 128 172 245 292 347 414
#     4  12  24  43  72 100 139 184 241 287 349 434
#     4  12  20  38  60  96 142 188 224 278 324 388
#     4  10  26  40  80 102 136 168 230 308 378 422
#
# _framework density 19.961582
#
# number of rings (size 3 to 8) (size 9 to 14) (size 15 to 20)
#    0.000    0.333    6.667    3.250    0.000    0.000 
#    0.000    0.000   18.333    0.000    0.000    0.000 
#    0.000    0.000    0.000    0.000    0.000    0.000 
#
# Total GULP energy -268046.096019 kJ/mol
# GULP energy per Si atom -5584.293667 kJ/mol
# Density = 1.991615 g / cm^3
# Si number density = 19.961582 Si / 1000 Ang^3
#
#
#
# Elastic Constant Matrix: (Units=GPa)
#
#
# Indices 1 2 3 4 5 6 
#
# 1 91.6325 56.5432 38.8469 0.0000 0.0000 0.0000
# 2 56.5432 91.6321 38.8474 0.0000 0.0000 0.0000
# 3 38.8469 38.8474 99.7326 0.0000 0.0000 0.0000
# 4 0.0000 0.0000 0.0000 34.4134 0.0000 0.0000
# 5 0.0000 0.0000 0.0000 0.0000 34.4144 0.0000
# 6 0.0000 0.0000 0.0000 0.0000 0.0000 21.9487
#
#
#
# Elastic Compliance Matrix: (Units=1/GPa)
#
#
# Indices 1 2 3 4 5 6 
#
# 1 0.018490 -0.010009 -0.003303 0.000000 0.000000 0.000000
# 2 -0.010009 0.018490 -0.003304 0.000000 0.000000 0.000000
# 3 -0.003303 -0.003304 0.012600 0.000000 0.000000 0.000000
# 4 0.000000 0.000000 0.000000 0.029058 0.000000 0.000000
# 5 0.000000 0.000000 0.000000 0.000000 0.029058 0.000000
# 6 0.000000 0.000000 0.000000 0.000000 0.000000 0.045561
#
#
# Mechanical properties :
#
#
# Convention : Reuss Voigt Hill
#
# Bulk Modulus (GPa) = 61.16825 61.27469 61.22147
# Shear Modulus (GPa) = 26.05007 28.07260 27.06133
#
# Velocity S-wave (km/s) = 3.61641 3.75418 3.68594
# Velocity P-wave (km/s) = 6.93883 7.03951 6.98935
#
# Compressibility (1/GPa) = 0.01634835
#
# Stress axis : x y z
#
# Youngs Moduli (GPa) = 54.08385 54.08332 79.36350
#
# Poissons Ratio (x) = 0.54132 0.26216
# Poissons Ratio (y) = 0.54133 0.26218
# Poissons Ratio (z) = 0.17866 0.17866
#
# Static dielectric constant tensor:
#      x y z
#    x 1.703700 0.000000 0.000000 
#    y 0.000000 1.703710 0.000000 
#    z 0.000000 0.000000 1.759740 
# 
# From -- ./inp_files/855.got.cif
#   From: 2010.05.17/outbox.cif.g08.bks.cpg/sg118_1_cif.got.tgz:855.got - 2010.05.20 11:17:24.
