data_PCOD9558428
_publ_section_title
;
Structure prediction by ZEFSAII (Michael W. Deem and Ramdas Pophale) SiO2 
 PCOD9558428
Probable space group: P -4 N 2
;
_chemical_formula_sum "Si O2"
_cell_formula_units_Z 30
_cell_length_a 16.246628
_cell_length_b 16.246628
_cell_length_c 6.005071
_cell_angle_alpha 90.000000
_cell_angle_beta 90.000000
_cell_angle_gamma 90.000000
_cell_volume 1585.056033
_symmetry_space_group_name_H-M "P -4 N 2"
_symmetry_group_IT_number 118
_symmetry_cell_setting 'tetragonal'
loop_
_space_group_symop_operation_xyz
x,y,z
y,-x,-z
-x,-y,z
-y,x,-z
1/2+y,1/2+x,1/2-z
1/2-y,1/2-x,1/2-z
1/2-x,1/2+y,1/2+z
1/2+x,1/2-y,1/2+z
loop_
_atom_site_type_symbol
_atom_site_label
_atom_site_fract_x
_atom_site_fract_y
_atom_site_fract_z
Si Si1 0.701651 0.309781 0.375906
Si Si2 0.283848 0.434781 0.005818
Si Si3 0.430778 0.352898 0.273176
Si Si4 0.171852 0.328149 0.250000
Si Si5 0.000000 0.000000 0.000000
O O1 0.786091 0.286091 0.250000
O O2 0.627979 0.296621 0.200678
O O3 0.695148 0.394118 0.514306
O O4 0.688564 0.239460 0.560799
O O5 0.296001 0.526196 0.911141
O O6 0.358065 0.408616 0.170073
O O7 0.198558 0.413260 0.132338
O O8 0.498404 0.418354 0.353638
#
# Coordination Sequence:
#
# PCOD9558428 Si02
#       5
#     8   8   8   4   2
#     4   9  18  33  47  64  93 139 179 210 254 313
#     4  10  19  31  46  68  98 140 176 217 254 320
#     4  11  20  29  45  69 103 139 179 217 262 323
#     4   8  18  32  48  62  90 134 180 210 260 300
#     4  12  20  30  40  76 110 136 184 206 264 316
#
# _framework density 18.926777000000001
#
# number of rings (size 3 to 8) (size 9 to 14) (size 15 to 20)
#    0.000    2.133    2.667    1.600    0.000    0.000 
#    0.000    0.000    0.000    0.000    0.000    0.000 
#    0.000    0.000    0.000 1185.600    0.000    0.000 
#
# Total GULP energy -167099.129577 kJ/mol
# GULP energy per Si atom -5569.970986 kJ/mol
# Density = 1.888370 g / cm^3
# Si number density = 18.926777 Si / 1000 Ang^3
#
#
#
# Elastic Constant Matrix: (Units=GPa)
#
#
# Indices 1 2 3 4 5 6 
#
# 1 34.9772 21.8602 16.8288 0.0000 0.0000 0.0000
# 2 21.8602 34.9774 16.8285 0.0000 0.0000 0.0000
# 3 16.8288 16.8285 77.7605 0.0000 0.0000 0.0000
# 4 0.0000 0.0000 0.0000 30.4020 0.0000 0.0000
# 5 0.0000 0.0000 0.0000 0.0000 30.4018 0.0000
# 6 0.0000 0.0000 0.0000 0.0000 0.0000 26.2511
#
#
#
# Elastic Compliance Matrix: (Units=1/GPa)
#
#
# Indices 1 2 3 4 5 6 
#
# 1 0.048208 -0.028028 -0.004368 0.000000 0.000000 0.000000
# 2 -0.028028 0.048208 -0.004367 0.000000 0.000000 0.000000
# 3 -0.004368 -0.004367 0.014750 0.000000 0.000000 0.000000
# 4 0.000000 0.000000 0.000000 0.032893 0.000000 0.000000
# 5 0.000000 0.000000 0.000000 0.000000 0.032893 0.000000
# 6 0.000000 0.000000 0.000000 0.000000 0.000000 0.038094
#
#
# Mechanical properties :
#
#
# Convention : Reuss Voigt Hill
#
# Bulk Modulus (GPa) = 26.56647 28.75000 27.65823
# Shear Modulus (GPa) = 16.60479 23.55750 20.08114
#
# Velocity S-wave (km/s) = 2.96517 3.53181 3.26082
# Velocity P-wave (km/s) = 5.07837 5.64399 5.36864
#
# Compressibility (1/GPa) = 0.03764143
#
# Stress axis : x y z
#
# Youngs Moduli (GPa) = 20.74324 20.74350 67.79514
#
# Poissons Ratio (x) = 0.58140 0.29610
# Poissons Ratio (y) = 0.58139 0.29607
# Poissons Ratio (z) = 0.09060 0.09059
#
# Static dielectric constant tensor:
#      x y z
#    x 1.707190 0.000000 0.000000 
#    y 0.000000 1.707180 0.000000 
#    z 0.000000 0.000000 1.742070 
# 
# From -- ./inp_files/455.got.cif
#   From: 2010.05.17/outbox.cif.g08.bks.cpg/sg118_1_cif.got.tgz:455.got - 2010.05.20 11:17:24.
