data_PCOD9558071
_publ_section_title
;
Structure prediction by ZEFSAII (Michael W. Deem and Ramdas Pophale) SiO2 
 PCOD9558071
Probable space group: P -4 B 2
;
_chemical_formula_sum "Si O2"
_cell_formula_units_Z 48
_cell_length_a 12.196423
_cell_length_b 12.196423
_cell_length_c 18.365723
_cell_angle_alpha 90.000000
_cell_angle_beta 90.000000
_cell_angle_gamma 90.000000
_cell_volume 2731.951508
_symmetry_space_group_name_H-M "P -4 B 2"
_symmetry_group_IT_number 117
_symmetry_cell_setting 'tetragonal'
loop_
_space_group_symop_operation_xyz
x,y,z
y,-x,-z
-x,-y,z
-y,x,-z
1/2+y,1/2+x,-z
1/2-y,1/2-x,-z
1/2-x,1/2+y,z
1/2+x,1/2-y,z
loop_
_atom_site_type_symbol
_atom_site_label
_atom_site_fract_x
_atom_site_fract_y
_atom_site_fract_z
Si Si1 0.967795 0.177487 0.415892
Si Si2 0.747664 0.889009 0.057091
Si Si3 0.718778 0.065288 0.954544
Si Si4 0.097276 0.589983 0.661139
Si Si5 0.177687 0.031919 0.408693
Si Si6 0.571907 0.891377 0.170677
O O1 0.946140 0.296048 0.383423
O O2 0.965505 0.189877 0.503530
O O3 0.084194 0.123515 0.393240
O O4 0.875967 0.087399 0.393301
O O5 0.833773 0.793667 0.068196
O O6 0.686382 0.915221 0.131115
O O7 0.657481 0.842520 0.000000
O O8 0.786563 0.995632 0.014145
O O9 0.689904 0.994964 0.882929
O O10 0.613761 0.113761 0.000000
O O11 0.055732 0.708499 0.632172
O O12 0.135576 0.592075 0.745476
O O13 0.000000 0.500000 0.653905
O O14 0.500000 0.000000 0.170059
#
# Coordination Sequence:
#
# PCOD9558071 Si02
#       6
#     8   8   8   8   8   8
#     4   9  20  40  63  83 116 156 197 246 294 342
#     4   9  19  32  55  82  99 140 185 228 271 322
#     4  10  18  34  58  79 106 140 185 229 272 327
#     4  11  24  36  56  92 121 154 196 240 288 354
#     4   9  20  40  62  86 113 156 200 241 299 344
#     4  10  20  37  55  78 115 152 181 221 280 339
#
# _framework density 17.569859000000001
#
# number of rings (size 3 to 8) (size 9 to 14) (size 15 to 20)
#    0.000    2.333    1.667    1.500    2.333    3.000 
#    3.000    0.000    0.000    0.000    0.000    0.000 
#    0.000    0.000    0.000    0.000    0.000    0.000 
#
# Total GULP energy -267331.466905 kJ/mol
# GULP energy per Si atom -5569.405561 kJ/mol
# Density = 1.752987 g / cm^3
# Si number density = 17.569859 Si / 1000 Ang^3
#
#
#
# Elastic Constant Matrix: (Units=GPa)
#
#
# Indices 1 2 3 4 5 6 
#
# 1 88.8035 42.3654 53.1569 0.0000 0.0000 0.0000
# 2 42.3654 88.8042 53.1569 0.0000 0.0000 0.0000
# 3 53.1569 53.1569 87.3790 0.0000 0.0000 0.0000
# 4 0.0000 0.0000 0.0000 -15.0856 0.0000 0.0000
# 5 0.0000 0.0000 0.0000 0.0000 -15.0834 0.0000
# 6 0.0000 0.0000 0.0000 0.0000 0.0000 18.0699
#
#
#
# Elastic Compliance Matrix: (Units=1/GPa)
#
#
# Indices 1 2 3 4 5 6 
#
# 1 0.018287 -0.003247 -0.009149 0.000000 0.000000 0.000000
# 2 -0.003247 0.018286 -0.009149 0.000000 0.000000 0.000000
# 3 -0.009149 -0.009149 0.022576 0.000000 0.000000 0.000000
# 4 0.000000 0.000000 0.000000 -0.066289 0.000000 0.000000
# 5 0.000000 0.000000 0.000000 0.000000 -0.066298 0.000000
# 6 0.000000 0.000000 0.000000 0.000000 0.000000 0.055341
#
#
# Mechanical properties :
#
#
# Convention : Reuss Voigt Hill
#
# Bulk Modulus (GPa) = 62.27384 62.48280 62.37832
# Shear Modulus (GPa) = 164.76230 5.33401 85.04815
#
# Velocity S-wave (km/s) = 9.69428 1.74427 6.96497
# Velocity P-wave (km/s) = 12.68172 6.30050 10.01305
#
# Compressibility (1/GPa) = 0.01605811
#
# Stress axis : x y z
#
# Youngs Moduli (GPa) = 54.68488 54.68554 44.29493
#
# Poissons Ratio (x) = 0.17759 0.40526
# Poissons Ratio (y) = 0.17758 0.40525
# Poissons Ratio (z) = 0.50032 0.50031
#
# Static dielectric constant tensor:
#      x y z
#    x 1.621430 0.000000 0.000000 
#    y 0.000000 1.621430 0.000000 
#    z 0.000000 0.000000 1.595590 
# 
# From -- ./inp_files/3363.got.cif
#   From: 2010.05.17/outbox.cif.g08.bks.cpg/sg117_2_cif.got.tgz:3363.got - 2010.05.20 11:15:09.
