data_PCOD9558666
_publ_section_title
;
Structure prediction by ZEFSAII (Michael W. Deem and Ramdas Pophale) SiO2 
 PCOD9558666
Probable space group: P -4 N 2
;
_chemical_formula_sum "Si O2"
_cell_formula_units_Z 40
_cell_length_a 18.790410
_cell_length_b 18.790410
_cell_length_c 4.896188
_cell_angle_alpha 90.000000
_cell_angle_beta 90.000000
_cell_angle_gamma 90.000000
_cell_volume 1728.743650
_symmetry_space_group_name_H-M "P -4 N 2"
_symmetry_group_IT_number 118
_symmetry_cell_setting 'tetragonal'
loop_
_space_group_symop_operation_xyz
x,y,z
y,-x,-z
-x,-y,z
-y,x,-z
1/2+y,1/2+x,1/2-z
1/2-y,1/2-x,1/2-z
1/2-x,1/2+y,1/2+z
1/2+x,1/2-y,1/2+z
loop_
_atom_site_type_symbol
_atom_site_label
_atom_site_fract_x
_atom_site_fract_y
_atom_site_fract_z
Si Si1 0.052006 0.671442 0.220482
Si Si2 0.121198 0.740008 0.714268
Si Si3 0.106215 0.959505 0.066483
Si Si4 0.170379 0.896510 0.596567
Si Si5 0.601164 0.170054 0.990007
O O1 0.100477 0.600477 0.250000
O O2 0.088957 0.728663 0.416834
O O3 0.974523 0.655504 0.342746
O O4 0.062926 0.706235 0.922260
O O5 0.189657 0.689657 0.750000
O O6 0.146547 0.820932 0.720887
O O7 0.171102 0.948838 0.857083
O O8 0.119481 0.927875 0.363345
O O9 0.040706 0.917607 0.927981
O O10 0.246536 0.893906 0.448968
O O11 0.621581 0.121581 0.250000
O O12 0.657312 0.157312 0.750000
#
# Coordination Sequence:
#
# PCOD9558666 Si02
#       5
#     8   8   8   8   8
#     4  10  23  44  71 101 138 189 242 292 347 427
#     4  10  22  41  67 101 138 174 231 288 347 422
#     4  11  26  45  65 101 142 181 232 282 344 427
#     4  12  25  41  74 100 140 185 229 287 360 422
#     4  12  27  46  69 105 147 186 240 302 367 435
#
# _framework density 23.138189000000001
#
# number of rings (size 3 to 8) (size 9 to 14) (size 15 to 20)
#    0.000    1.000    0.000    5.400    8.400    4.400 
#    0.000    1.000    0.000    0.000    0.000    0.000 
#    0.000    0.000    0.000    0.000    0.000    0.000 
#
# Total GULP energy -223707.805770 kJ/mol
# GULP energy per Si atom -5592.695144 kJ/mol
# Density = 2.308553 g / cm^3
# Si number density = 23.138189 Si / 1000 Ang^3
#
#
#
# Elastic Constant Matrix: (Units=GPa)
#
#
# Indices 1 2 3 4 5 6 
#
# 1 79.4975 51.2003 20.8650 0.0000 0.0000 0.0000
# 2 51.2003 79.4975 20.8650 0.0000 0.0000 0.0000
# 3 20.8650 20.8650 107.9505 0.0000 0.0000 0.0000
# 4 0.0000 0.0000 0.0000 33.0027 0.0000 0.0000
# 5 0.0000 0.0000 0.0000 0.0000 33.0027 0.0000
# 6 0.0000 0.0000 0.0000 0.0000 0.0000 23.8200
#
#
#
# Elastic Compliance Matrix: (Units=1/GPa)
#
#
# Indices 1 2 3 4 5 6 
#
# 1 0.021747 -0.013592 -0.001576 0.000000 0.000000 0.000000
# 2 -0.013592 0.021747 -0.001576 0.000000 0.000000 0.000000
# 3 -0.001576 -0.001576 0.009873 0.000000 0.000000 0.000000
# 4 0.000000 0.000000 0.000000 0.030301 0.000000 0.000000
# 5 0.000000 0.000000 0.000000 0.000000 0.030301 0.000000
# 6 0.000000 0.000000 0.000000 0.000000 0.000000 0.041982
#
#
# Mechanical properties :
#
#
# Convention : Reuss Voigt Hill
#
# Bulk Modulus (GPa) = 50.30878 50.31177 50.31027
# Shear Modulus (GPa) = 25.50187 29.56607 27.53397
#
# Velocity S-wave (km/s) = 3.32347 3.57852 3.45335
# Velocity P-wave (km/s) = 6.04295 6.23423 6.13934
#
# Compressibility (1/GPa) = 0.01987725
#
# Stress axis : x y z
#
# Youngs Moduli (GPa) = 45.98378 45.98378 101.28856
#
# Poissons Ratio (x) = 0.62503 0.15964
# Poissons Ratio (y) = 0.62503 0.15964
# Poissons Ratio (z) = 0.07248 0.07248
#
# Static dielectric constant tensor:
#      x y z
#    x 1.919640 0.000000 0.000000 
#    y 0.000000 1.919640 0.000000 
#    z 0.000000 0.000000 1.830910 
# 
# From -- ./inp_files/607.got.cif
#   From: 2010.05.17/outbox.cif.g08.bks.cpg/sg118_1_cif.got.tgz:607.got - 2010.05.20 11:17:24.
