data_PCOD9558927
_publ_section_title
;
Structure prediction by ZEFSAII (Michael W. Deem and Ramdas Pophale) SiO2 
 PCOD9558927
Probable space group: P -4 N 2
;
_chemical_formula_sum "Si O2"
_cell_formula_units_Z 20
_cell_length_a 5.126621
_cell_length_b 5.126621
_cell_length_c 32.387309
_cell_angle_alpha 90.000000
_cell_angle_beta 90.000000
_cell_angle_gamma 90.000000
_cell_volume 851.211121
_symmetry_space_group_name_H-M "P -4 N 2"
_symmetry_group_IT_number 118
_symmetry_cell_setting 'tetragonal'
loop_
_space_group_symop_operation_xyz
x,y,z
y,-x,-z
-x,-y,z
-y,x,-z
1/2+y,1/2+x,1/2-z
1/2-y,1/2-x,1/2-z
1/2-x,1/2+y,1/2+z
1/2+x,1/2-y,1/2+z
loop_
_atom_site_type_symbol
_atom_site_label
_atom_site_fract_x
_atom_site_fract_y
_atom_site_fract_z
Si Si1 0.000000 0.000000 0.808859
Si Si2 0.335738 0.771318 0.118477
Si Si3 0.000000 0.500000 0.250000
Si Si4 0.500000 0.500000 0.000000
Si Si5 0.500000 0.000000 0.555632
O O1 0.900294 0.772488 0.839556
O O2 0.751115 0.029130 0.779414
O O3 0.500000 0.500000 0.124696
O O4 0.100273 0.713547 0.087833
O O5 0.500000 0.000000 0.097982
O O6 0.565572 0.248861 0.972234
#
# Coordination Sequence:
#
# PCOD9558927 Si02
#       5
#     4   8   2   2   4
#     4  12  30  50  79 121 162 212 274 327 417 468
#     4  12  27  52  87 117 157 220 274 334 392 502
#     4  12  30  52  80 116 174 210 256 354 402 480
#     4  12  32  48  86 116 176 208 264 348 414 476
#     4  12  29  56  78 127 162 218 274 333 414 476
#
# _framework density 23.495937999999999
#
# number of rings (size 3 to 8) (size 9 to 14) (size 15 to 20)
#    0.000    0.000    2.000    6.000   11.200    4.000 
#    0.000    0.000    0.000    0.000    0.000    0.000 
#    0.000    0.000    0.000    0.000    0.000    0.000 
#
# Total GULP energy -111874.081292 kJ/mol
# GULP energy per Si atom -5593.704065 kJ/mol
# Density = 2.344246 g / cm^3
# Si number density = 23.495938 Si / 1000 Ang^3
#
#
#
# Elastic Constant Matrix: (Units=GPa)
#
#
# Indices 1 2 3 4 5 6 
#
# 1 209.4262 87.9726 86.9335 0.0000 0.0000 0.0000
# 2 87.9726 209.4262 86.9335 0.0000 0.0000 0.0000
# 3 86.9335 86.9335 153.2841 0.0000 0.0000 0.0000
# 4 0.0000 0.0000 0.0000 218.5848 0.0000 0.0000
# 5 0.0000 0.0000 0.0000 0.0000 218.5848 0.0000
# 6 0.0000 0.0000 0.0000 0.0000 0.0000 61.1303
#
#
#
# Elastic Compliance Matrix: (Units=1/GPa)
#
#
# Indices 1 2 3 4 5 6 
#
# 1 0.006632 -0.001602 -0.002853 0.000000 0.000000 0.000000
# 2 -0.001602 0.006632 -0.002853 0.000000 0.000000 0.000000
# 3 -0.002853 -0.002853 0.009760 0.000000 0.000000 0.000000
# 4 0.000000 0.000000 0.000000 0.004575 0.000000 0.000000
# 5 0.000000 0.000000 0.000000 0.000000 0.004575 0.000000
# 6 0.000000 0.000000 0.000000 0.000000 0.000000 0.016358
#
#
# Mechanical properties :
#
#
# Convention : Reuss Voigt Hill
#
# Bulk Modulus (GPa) = 118.92163 121.75732 120.33948
# Shear Modulus (GPa) = 75.81498 120.34643 98.08071
#
# Velocity S-wave (km/s) = 5.68659 7.16459 6.46794
# Velocity P-wave (km/s) = 9.68710 10.97155 10.34927
#
# Compressibility (1/GPa) = 0.00840890
#
# Stress axis : x y z
#
# Youngs Moduli (GPa) = 150.78421 150.78421 102.46050
#
# Poissons Ratio (x) = 0.24150 0.29231
# Poissons Ratio (y) = 0.24150 0.29231
# Poissons Ratio (z) = 0.43018 0.43018
#
# Static dielectric constant tensor:
#      x y z
#    x 1.715010 0.000000 0.000000 
#    y 0.000000 1.715010 0.000000 
#    z 0.000000 0.000000 1.901240 
# 
# From -- ./inp_files/6345.got.cif
#   From: 2010.05.17/outbox.cif.g08.bks.cpg/sg118_4_cif.got.tgz:6345.got - 2010.05.20 11:17:24.
