data_PCOD9558452
_publ_section_title
;
Structure prediction by ZEFSAII (Michael W. Deem and Ramdas Pophale) SiO2 
 PCOD9558452
Probable space group: P -4 N 2
;
_chemical_formula_sum "Si O2"
_cell_formula_units_Z 18
_cell_length_a 8.495194
_cell_length_b 8.495194
_cell_length_c 11.056324
_cell_angle_alpha 90.000000
_cell_angle_beta 90.000000
_cell_angle_gamma 90.000000
_cell_volume 797.916341
_symmetry_space_group_name_H-M "P -4 N 2"
_symmetry_group_IT_number 118
_symmetry_cell_setting 'tetragonal'
loop_
_space_group_symop_operation_xyz
x,y,z
y,-x,-z
-x,-y,z
-y,x,-z
1/2+y,1/2+x,1/2-z
1/2-y,1/2-x,1/2-z
1/2-x,1/2+y,1/2+z
1/2+x,1/2-y,1/2+z
loop_
_atom_site_type_symbol
_atom_site_label
_atom_site_fract_x
_atom_site_fract_y
_atom_site_fract_z
Si Si1 0.585064 0.659767 0.157920
Si Si2 0.500000 0.000000 0.250000
Si Si3 0.180764 0.856261 0.937220
O O1 0.500000 0.500000 0.127208
O O2 0.504791 0.833304 0.176634
O O3 0.726430 0.685252 0.063383
O O4 0.646440 0.623549 0.295005
O O5 0.022309 0.790088 0.999712
#
# Coordination Sequence:
#
# PCOD9558452 Si02
#       3
#     8   2   8
#     4  10  19  35  70  99 128 197 225 279 375 419
#     4   8  20  36  64 100 144 170 224 316 342 402
#     4   9  16  32  63 103 137 173 234 302 343 413
#
# _framework density 22.558754
#
# number of rings (size 3 to 8) (size 9 to 14) (size 15 to 20)
#    0.000    3.111    4.444    0.000    0.000    0.000 
#    0.000    0.000   78.222   12.000    0.000    0.000 
#    0.000    0.000    0.000    0.000    0.000    0.000 
#
# Total GULP energy -100345.120905 kJ/mol
# GULP energy per Si atom -5574.728939 kJ/mol
# Density = 2.250741 g / cm^3
# Si number density = 22.558754 Si / 1000 Ang^3
#
#
#
# Elastic Constant Matrix: (Units=GPa)
#
#
# Indices 1 2 3 4 5 6 
#
# 1 164.2689 91.0091 53.7470 0.0000 0.0000 0.0000
# 2 91.0091 164.2689 53.7470 0.0000 0.0000 0.0000
# 3 53.7470 53.7470 108.6188 0.0000 0.0000 0.0000
# 4 0.0000 0.0000 0.0000 30.9504 0.0000 0.0000
# 5 0.0000 0.0000 0.0000 0.0000 30.9504 0.0000
# 6 0.0000 0.0000 0.0000 0.0000 0.0000 67.7034
#
#
#
# Elastic Compliance Matrix: (Units=1/GPa)
#
#
# Indices 1 2 3 4 5 6 
#
# 1 0.009299 -0.004351 -0.002449 0.000000 0.000000 0.000000
# 2 -0.004351 0.009299 -0.002449 0.000000 0.000000 0.000000
# 3 -0.002449 -0.002449 0.011630 0.000000 0.000000 0.000000
# 4 0.000000 0.000000 0.000000 0.032310 0.000000 0.000000
# 5 0.000000 0.000000 0.000000 0.000000 0.032310 0.000000
# 6 0.000000 0.000000 0.000000 0.000000 0.000000 0.014770
#
#
# Mechanical properties :
#
#
# Convention : Reuss Voigt Hill
#
# Bulk Modulus (GPa) = 85.23557 92.68476 88.96017
# Shear Modulus (GPa) = 37.87176 41.83110 39.85143
#
# Velocity S-wave (km/s) = 4.10177 4.31085 4.20761
# Velocity P-wave (km/s) = 7.76521 8.12115 7.94517
#
# Compressibility (1/GPa) = 0.01173219
#
# Stress axis : x y z
#
# Youngs Moduli (GPa) = 107.53612 107.53612 85.98674
#
# Poissons Ratio (x) = 0.46787 0.21054
# Poissons Ratio (y) = 0.46787 0.21054
# Poissons Ratio (z) = 0.26331 0.26331
#
# Static dielectric constant tensor:
#      x y z
#    x 1.890300 0.000000 0.000000 
#    y 0.000000 1.890300 0.000000 
#    z 0.000000 0.000000 1.838850 
# 
# From -- ./inp_files/2460.got.cif
#   From: 2010.05.17/outbox.cif.g08.bks.cpg/sg118_2_cif.got.tgz:2460.got - 2010.05.20 11:17:24.
