data_PCOD9558691
_publ_section_title
;
Structure prediction by ZEFSAII (Michael W. Deem and Ramdas Pophale) SiO2 
 PCOD9558691
Probable space group: P -4 N 2
;
_chemical_formula_sum "Si O2"
_cell_formula_units_Z 54
_cell_length_a 14.480346
_cell_length_b 14.480346
_cell_length_c 11.993058
_cell_angle_alpha 90.000000
_cell_angle_beta 90.000000
_cell_angle_gamma 90.000000
_cell_volume 2514.709442
_symmetry_space_group_name_H-M "P -4 N 2"
_symmetry_group_IT_number 118
_symmetry_cell_setting 'tetragonal'
loop_
_space_group_symop_operation_xyz
x,y,z
y,-x,-z
-x,-y,z
-y,x,-z
1/2+y,1/2+x,1/2-z
1/2-y,1/2-x,1/2-z
1/2-x,1/2+y,1/2+z
1/2+x,1/2-y,1/2+z
loop_
_atom_site_type_symbol
_atom_site_label
_atom_site_fract_x
_atom_site_fract_y
_atom_site_fract_z
Si Si1 0.848442 0.049156 0.647901
Si Si2 0.500000 0.500000 0.000000
Si Si3 0.071592 0.415565 0.620659
Si Si4 0.924535 0.169877 0.149699
Si Si5 0.635952 0.864049 0.750000
Si Si6 0.748411 0.770427 0.374073
Si Si7 0.805544 0.438174 0.029314
Si Si8 0.918660 0.769520 0.989544
O O1 0.789075 0.142395 0.645364
O O2 0.869801 0.000697 0.765042
O O3 0.788983 0.972685 0.583248
O O4 0.941761 0.064915 0.580831
O O5 0.096816 0.403185 0.750000
O O6 0.166560 0.429949 0.556127
O O7 0.000000 0.500000 0.613725
O O8 0.015125 0.335249 0.559382
O O9 0.880411 0.260520 0.206482
O O10 0.842253 0.105882 0.107373
O O11 0.986332 0.200856 0.045723
O O12 0.574034 0.873348 0.862457
O O13 0.709725 0.790276 0.250000
O O14 0.708580 0.842289 0.464205
O O15 0.731780 0.667645 0.422662
#
# Coordination Sequence:
#
# PCOD9558691 Si02
#       8
#     8   2   8   8   4   8   8   8
#     4  11  24  43  67 101 139 184 239 302 361 449
#     4  12  24  40  64  98 136 176 244 292 360 430
#     4  11  27  45  69 107 142 189 249 309 379 441
#     4  11  26  45  71 105 143 196 246 303 384 452
#     4  10  22  44  75 106 143 184 246 310 378 452
#     4  12  24  44  73 103 145 191 247 307 380 438
#     4  11  23  43  71 103 141 187 242 302 368 453
#     4  12  26  46  73 104 150 196 247 312 379 462
#
# _framework density 21.473652999999999
#
# number of rings (size 3 to 8) (size 9 to 14) (size 15 to 20)
#    0.000    0.741    5.926    0.889    3.111    2.667 
#    0.000    2.593    0.000    0.000    0.000    0.000 
#    0.000    0.000    0.000    0.000    0.000    0.000 
#
# Total GULP energy -301584.006101 kJ/mol
# GULP energy per Si atom -5584.889002 kJ/mol
# Density = 2.142478 g / cm^3
# Si number density = 21.473653 Si / 1000 Ang^3
#
#
#
# Elastic Constant Matrix: (Units=GPa)
#
#
# Indices 1 2 3 4 5 6 
#
# 1 51.6329 19.5016 24.8270 0.0000 0.0000 0.0000
# 2 19.5016 51.6323 24.8270 0.0000 0.0000 0.0000
# 3 24.8270 24.8270 118.6341 0.0000 0.0000 0.0000
# 4 0.0000 0.0000 0.0000 39.0007 0.0000 0.0000
# 5 0.0000 0.0000 0.0000 0.0000 39.0017 0.0000
# 6 0.0000 0.0000 0.0000 0.0000 0.0000 21.2335
#
#
#
# Elastic Compliance Matrix: (Units=1/GPa)
#
#
# Indices 1 2 3 4 5 6 
#
# 1 0.023793 -0.007330 -0.003445 0.000000 0.000000 0.000000
# 2 -0.007330 0.023793 -0.003445 0.000000 0.000000 0.000000
# 3 -0.003445 -0.003445 0.009871 0.000000 0.000000 0.000000
# 4 0.000000 0.000000 0.000000 0.025641 0.000000 0.000000
# 5 0.000000 0.000000 0.000000 0.000000 0.025640 0.000000
# 6 0.000000 0.000000 0.000000 0.000000 0.000000 0.047095
#
#
# Mechanical properties :
#
#
# Convention : Reuss Voigt Hill
#
# Bulk Modulus (GPa) = 34.46377 40.02340 37.24359
# Shear Modulus (GPa) = 25.78046 30.03009 27.90527
#
# Velocity S-wave (km/s) = 3.46867 3.74366 3.60879
# Velocity P-wave (km/s) = 5.66802 6.11273 5.89457
#
# Compressibility (1/GPa) = 0.02901597
#
# Stress axis : x y z
#
# Youngs Moduli (GPa) = 42.02993 42.02937 101.30400
#
# Poissons Ratio (x) = 0.30807 0.34901
# Poissons Ratio (y) = 0.30807 0.34902
# Poissons Ratio (z) = 0.14480 0.14480
#
# Static dielectric constant tensor:
#      x y z
#    x 1.603250 0.000000 0.000000 
#    y 0.000000 1.603310 0.000000 
#    z 0.000000 0.000000 1.822140 
# 
# From -- ./inp_files/3450.got.cif
#   From: 2010.05.17/outbox.cif.g08.bks.cpg/sg118_2_cif.got.tgz:3450.got - 2010.05.20 11:17:24.
