data_PCOD9558833
_publ_section_title
;
Structure prediction by ZEFSAII (Michael W. Deem and Ramdas Pophale) SiO2 
 PCOD9558833
Probable space group: P -4 N 2
;
_chemical_formula_sum "Si O2"
_cell_formula_units_Z 42
_cell_length_a 8.088439
_cell_length_b 8.088439
_cell_length_c 27.995021
_cell_angle_alpha 90.000000
_cell_angle_beta 90.000000
_cell_angle_gamma 90.000000
_cell_volume 1831.513932
_symmetry_space_group_name_H-M "P -4 N 2"
_symmetry_group_IT_number 118
_symmetry_cell_setting 'tetragonal'
loop_
_space_group_symop_operation_xyz
x,y,z
y,-x,-z
-x,-y,z
-y,x,-z
1/2+y,1/2+x,1/2-z
1/2-y,1/2-x,1/2-z
1/2-x,1/2+y,1/2+z
1/2+x,1/2-y,1/2+z
loop_
_atom_site_type_symbol
_atom_site_label
_atom_site_fract_x
_atom_site_fract_y
_atom_site_fract_z
Si Si1 0.153871 0.234349 0.497075
Si Si2 0.737122 0.656503 0.899047
Si Si3 0.845650 0.769795 0.392460
Si Si4 0.000000 0.500000 0.750000
Si Si5 0.321078 0.930817 0.798345
Si Si6 0.575214 0.317338 0.313160
O O1 0.201003 0.306291 0.548306
O O2 0.197904 0.304298 0.444969
O O3 0.954564 0.218724 0.500021
O O4 0.720656 0.458264 0.892768
O O5 0.547149 0.719462 0.892056
O O6 0.855221 0.734114 0.860336
O O7 0.780035 0.676179 0.345761
O O8 0.831656 0.501272 0.718195
O O9 0.325414 0.825414 0.750000
O O10 0.500000 0.000000 0.809771
O O11 0.224480 0.096896 0.785274
O O12 0.500000 0.500000 0.324805
#
# Coordination Sequence:
#
# PCOD9558833 Si02
#       6
#     8   8   8   2   8   8
#     4   7  12  27  59 104 142 184 241 299 361 440
#     4   9  18  37  67 108 146 186 246 307 372 443
#     4   9  17  34  71 107 145 191 246 310 368 436
#     4  12  32  60  74 106 152 204 252 318 392 456
#     4  11  23  42  66 104 139 180 245 306 361 434
#     4  12  29  48  74 105 147 196 247 304 387 458
#
# _framework density 22.931850000000001
#
# number of rings (size 3 to 8) (size 9 to 14) (size 15 to 20)
#    0.000    2.286    1.905    3.429    4.000    0.000 
#    0.000    0.000    6.286    0.000    0.000    0.000 
#    0.000    0.000    0.000    0.000    0.000    0.000 
#
# Total GULP energy -233838.348547 kJ/mol
# GULP energy per Si atom -5567.579727 kJ/mol
# Density = 2.287966 g / cm^3
# Si number density = 22.931850 Si / 1000 Ang^3
#
#
#
# Elastic Constant Matrix: (Units=GPa)
#
#
# Indices 1 2 3 4 5 6 
#
# 1 81.6274 54.5159 77.7713 0.0000 0.0000 0.0000
# 2 54.5159 81.6274 77.7713 0.0000 0.0000 0.0000
# 3 77.7713 77.7713 260.8912 0.0000 0.0000 0.0000
# 4 0.0000 0.0000 0.0000 59.4514 0.0000 0.0000
# 5 0.0000 0.0000 0.0000 0.0000 59.4514 0.0000
# 6 0.0000 0.0000 0.0000 0.0000 0.0000 46.6339
#
#
#
# Elastic Compliance Matrix: (Units=1/GPa)
#
#
# Indices 1 2 3 4 5 6 
#
# 1 0.024012 -0.012873 -0.003320 0.000000 0.000000 0.000000
# 2 -0.012873 0.024012 -0.003320 0.000000 0.000000 0.000000
# 3 -0.003320 -0.003320 0.005813 0.000000 0.000000 0.000000
# 4 0.000000 0.000000 0.000000 0.016820 0.000000 0.000000
# 5 0.000000 0.000000 0.000000 0.000000 0.016820 0.000000
# 6 0.000000 0.000000 0.000000 0.000000 0.000000 0.021444
#
#
# Mechanical properties :
#
#
# Convention : Reuss Voigt Hill
#
# Bulk Modulus (GPa) = 67.52917 93.80701 80.66809
# Shear Modulus (GPa) = 32.70440 47.37985 40.04213
#
# Velocity S-wave (km/s) = 3.78055 4.55039 4.18321
# Velocity P-wave (km/s) = 6.96910 8.28273 7.65415
#
# Compressibility (1/GPa) = 0.01480842
#
# Stress axis : x y z
#
# Youngs Moduli (GPa) = 41.64628 41.64628 172.03821
#
# Poissons Ratio (x) = 0.53611 0.57125
# Poissons Ratio (y) = 0.53611 0.57125
# Poissons Ratio (z) = 0.13828 0.13828
#
# Static dielectric constant tensor:
#      x y z
#    x 2.080220 0.000000 0.000000 
#    y 0.000000 2.080220 0.000000 
#    z 0.000000 0.000000 1.877100 
# 
# From -- ./inp_files/6502.got.cif
#   From: 2010.05.17/outbox.cif.g08.bks.cpg/sg118_4_cif.got.tgz:6502.got - 2010.05.20 11:17:24.
