data_PCOD9558770
_publ_section_title
;
Structure prediction by ZEFSAII (Michael W. Deem and Ramdas Pophale) SiO2 
 PCOD9558770
Probable space group: P -4 N 2
;
_chemical_formula_sum "Si O2"
_cell_formula_units_Z 40
_cell_length_a 11.575095
_cell_length_b 11.575095
_cell_length_c 12.316492
_cell_angle_alpha 90.000000
_cell_angle_beta 90.000000
_cell_angle_gamma 90.000000
_cell_volume 1650.198383
_symmetry_space_group_name_H-M "P -4 N 2"
_symmetry_group_IT_number 118
_symmetry_cell_setting 'tetragonal'
loop_
_space_group_symop_operation_xyz
x,y,z
y,-x,-z
-x,-y,z
-y,x,-z
1/2+y,1/2+x,1/2-z
1/2-y,1/2-x,1/2-z
1/2-x,1/2+y,1/2+z
1/2+x,1/2-y,1/2+z
loop_
_atom_site_type_symbol
_atom_site_label
_atom_site_fract_x
_atom_site_fract_y
_atom_site_fract_z
Si Si1 0.692628 0.703853 0.014072
Si Si2 0.933361 0.827822 0.973308
Si Si3 0.878614 0.449156 0.566455
Si Si4 0.013518 0.863350 0.339932
Si Si5 0.665588 0.993344 0.810058
O O1 0.680387 0.587350 0.080720
O O2 0.823778 0.749345 0.010163
O O3 0.625394 0.810960 0.070084
O O4 0.632730 0.673232 0.899139
O O5 0.049326 0.869436 0.036676
O O6 0.992507 0.738860 0.886428
O O7 0.865650 0.479294 0.436316
O O8 0.000000 0.500000 0.604884
O O9 0.991869 0.795363 0.229515
O O10 0.000000 0.000000 0.328444
O O11 0.593339 0.093339 0.750000
O O12 0.620950 0.879051 0.750000
#
# Coordination Sequence:
#
# PCOD9558770 Si02
#       5
#     8   8   8   8   8
#     4  11  19  35  58  80 123 152 198 252 305 365
#     4   9  20  35  53  86 121 154 195 248 303 361
#     4  11  20  35  62  87 115 157 202 252 311 379
#     4  12  23  37  57  90 121 157 199 264 314 373
#     4  11  20  36  57  85 113 148 203 253 304 375
#
# _framework density 24.239509999999999
#
# number of rings (size 3 to 8) (size 9 to 14) (size 15 to 20)
#    0.000    1.200    6.000    2.400    0.000    0.000 
#    7.200    0.000    0.000    0.000    0.000    0.000 
#    0.000    0.000    0.000    0.000    0.000    0.000 
#
# Total GULP energy -222938.510627 kJ/mol
# GULP energy per Si atom -5573.462766 kJ/mol
# Density = 2.418434 g / cm^3
# Si number density = 24.239510 Si / 1000 Ang^3
#
#
#
# Elastic Constant Matrix: (Units=GPa)
#
#
# Indices 1 2 3 4 5 6 
#
# 1 153.7674 35.9883 13.7204 0.0000 0.0000 0.0000
# 2 35.9883 153.7687 13.7205 0.0000 0.0000 0.0000
# 3 13.7204 13.7205 45.6200 0.0000 0.0000 0.0000
# 4 0.0000 0.0000 0.0000 -2.9199 0.0000 0.0000
# 5 0.0000 0.0000 0.0000 0.0000 -2.9206 0.0000
# 6 0.0000 0.0000 0.0000 0.0000 0.0000 51.7636
#
#
#
# Elastic Compliance Matrix: (Units=1/GPa)
#
#
# Indices 1 2 3 4 5 6 
#
# 1 0.007000 -0.001490 -0.001657 0.000000 0.000000 0.000000
# 2 -0.001490 0.007000 -0.001657 0.000000 0.000000 0.000000
# 3 -0.001657 -0.001657 0.022917 0.000000 0.000000 0.000000
# 4 0.000000 0.000000 0.000000 -0.342477 0.000000 0.000000
# 5 0.000000 0.000000 0.000000 0.000000 -0.342398 0.000000
# 6 0.000000 0.000000 0.000000 0.000000 0.000000 0.019319
#
#
# Mechanical properties :
#
#
# Convention : Reuss Voigt Hill
#
# Bulk Modulus (GPa) = 36.61943 53.33496 44.97720
# Shear Modulus (GPa) = -8.19769 28.49975 10.15103
#
# Velocity S-wave (km/s) = -1.84100 3.43265 2.04863
# Velocity P-wave (km/s) = 3.25900 6.14507 4.91848
#
# Compressibility (1/GPa) = 0.02730790
#
# Stress axis : x y z
#
# Youngs Moduli (GPa) = 142.85694 142.85814 43.63590
#
# Poissons Ratio (x) = 0.21292 0.07231
# Poissons Ratio (y) = 0.21292 0.07231
# Poissons Ratio (z) = 0.23672 0.23672
#
# Static dielectric constant tensor:
#      x y z
#    x 2.069790 0.000000 0.000000 
#    y 0.000000 2.069790 0.000000 
#    z 0.000000 0.000000 2.053450 
# 
# From -- ./inp_files/4076.got.cif
#   From: 2010.05.17/outbox.cif.g08.bks.cpg/sg118_3_cif.got.tgz:4076.got - 2010.05.20 11:17:24.
