data_PCOD9558798
_publ_section_title
;
Structure prediction by ZEFSAII (Michael W. Deem and Ramdas Pophale) SiO2 
 PCOD9558798
Probable space group: P -4 N 2
;
_chemical_formula_sum "Si O2"
_cell_formula_units_Z 48
_cell_length_a 12.303654
_cell_length_b 12.303654
_cell_length_c 15.677530
_cell_angle_alpha 90.000000
_cell_angle_beta 90.000000
_cell_angle_gamma 90.000000
_cell_volume 2373.262951
_symmetry_space_group_name_H-M "P -4 N 2"
_symmetry_group_IT_number 118
_symmetry_cell_setting 'tetragonal'
loop_
_space_group_symop_operation_xyz
x,y,z
y,-x,-z
-x,-y,z
-y,x,-z
1/2+y,1/2+x,1/2-z
1/2-y,1/2-x,1/2-z
1/2-x,1/2+y,1/2+z
1/2+x,1/2-y,1/2+z
loop_
_atom_site_type_symbol
_atom_site_label
_atom_site_fract_x
_atom_site_fract_y
_atom_site_fract_z
Si Si1 0.252778 0.648127 0.675461
Si Si2 0.608118 0.737685 0.601783
Si Si3 0.251663 0.849264 0.538898
Si Si4 0.509047 0.379680 0.743542
Si Si5 0.735709 0.053182 0.051102
Si Si6 0.707269 0.417762 0.092891
O O1 0.166032 0.666032 0.750000
O O2 0.258205 0.745915 0.604135
O O3 0.364977 0.647973 0.729327
O O4 0.230363 0.535253 0.626192
O O5 0.554686 0.710089 0.690601
O O6 0.517468 0.771686 0.534349
O O7 0.655628 0.623981 0.565059
O O8 0.701619 0.827047 0.613012
O O9 0.346079 0.845113 0.466613
O O10 0.134568 0.844089 0.492175
O O11 0.262982 0.965386 0.582049
O O12 0.500000 0.500000 0.705896
O O13 0.447133 0.379182 0.833989
#
# Coordination Sequence:
#
# PCOD9558798 Si02
#       6
#     8   8   8   8   8   8
#     4  12  23  43  69 103 138 178 232 282 353 413
#     4  11  22  41  69 102 134 172 233 290 341 411
#     4  11  25  44  71  98 138 185 231 284 346 422
#     4  12  24  40  71 100 135 181 234 290 348 410
#     4  11  21  42  70 102 131 179 227 284 342 409
#     4  11  26  43  65 100 140 181 231 284 352 419
#
# _framework density 20.225318000000001
#
# number of rings (size 3 to 8) (size 9 to 14) (size 15 to 20)
#    0.000    0.667    8.333    0.500    2.333    0.667 
#    0.000    0.000    0.000    5.000    0.000    0.000 
#    0.000    0.000    0.000    0.000    0.000    0.000 
#
# Total GULP energy -267321.480996 kJ/mol
# GULP energy per Si atom -5569.197521 kJ/mol
# Density = 2.017928 g / cm^3
# Si number density = 20.225318 Si / 1000 Ang^3
#
#
#
# Elastic Constant Matrix: (Units=GPa)
#
#
# Indices 1 2 3 4 5 6 
#
# 1 67.9248 0.8928 2.2392 0.0000 0.0000 0.0000
# 2 0.8928 67.9248 2.2392 0.0000 0.0000 0.0000
# 3 2.2392 2.2392 42.0257 0.0000 0.0000 0.0000
# 4 0.0000 0.0000 0.0000 30.3940 0.0000 0.0000
# 5 0.0000 0.0000 0.0000 0.0000 30.3940 0.0000
# 6 0.0000 0.0000 0.0000 0.0000 0.0000 5.3154
#
#
#
# Elastic Compliance Matrix: (Units=1/GPa)
#
#
# Indices 1 2 3 4 5 6 
#
# 1 0.014750 -0.000168 -0.000777 0.000000 0.000000 0.000000
# 2 -0.000168 0.014750 -0.000777 0.000000 0.000000 0.000000
# 3 -0.000777 -0.000777 0.023878 0.000000 0.000000 0.000000
# 4 0.000000 0.000000 0.000000 0.032901 0.000000 0.000000
# 5 0.000000 0.000000 0.000000 0.000000 0.032901 0.000000
# 6 0.000000 0.000000 0.000000 0.000000 0.000000 0.188134
#
#
# Mechanical properties :
#
#
# Convention : Reuss Voigt Hill
#
# Bulk Modulus (GPa) = 20.02668 20.95754 20.49211
# Shear Modulus (GPa) = 15.27172 24.72097 19.99634
#
# Velocity S-wave (km/s) = 2.75085 3.49990 3.14774
# Velocity P-wave (km/s) = 4.47357 5.16884 4.83373
#
# Compressibility (1/GPa) = 0.04993340
#
# Stress axis : x y z
#
# Youngs Moduli (GPa) = 67.79670 67.79670 41.88000
#
# Poissons Ratio (x) = 0.01141 0.03254
# Poissons Ratio (y) = 0.01141 0.03254
# Poissons Ratio (z) = 0.05267 0.05267
#
# Static dielectric constant tensor:
#      x y z
#    x 1.743010 0.000000 0.000000 
#    y 0.000000 1.743010 0.000000 
#    z 0.000000 0.000000 1.796090 
# 
# From -- ./inp_files/4961.got.cif
#   From: 2010.05.17/outbox.cif.g08.bks.cpg/sg118_3_cif.got.tgz:4961.got - 2010.05.20 11:17:24.
