data_PCOD9558853
_publ_section_title
;
Structure prediction by ZEFSAII (Michael W. Deem and Ramdas Pophale) SiO2 
 PCOD9558853
Probable space group: P -4 N 2
;
_chemical_formula_sum "Si O2"
_cell_formula_units_Z 36
_cell_length_a 8.308425
_cell_length_b 8.308425
_cell_length_c 23.716837
_cell_angle_alpha 90.000000
_cell_angle_beta 90.000000
_cell_angle_gamma 90.000000
_cell_volume 1637.171503
_symmetry_space_group_name_H-M "P -4 N 2"
_symmetry_group_IT_number 118
_symmetry_cell_setting 'tetragonal'
loop_
_space_group_symop_operation_xyz
x,y,z
y,-x,-z
-x,-y,z
-y,x,-z
1/2+y,1/2+x,1/2-z
1/2-y,1/2-x,1/2-z
1/2-x,1/2+y,1/2+z
1/2+x,1/2-y,1/2+z
loop_
_atom_site_type_symbol
_atom_site_label
_atom_site_fract_x
_atom_site_fract_y
_atom_site_fract_z
Si Si1 0.753667 0.399790 0.671427
Si Si2 0.287773 0.833822 0.938901
Si Si3 0.668059 0.785932 0.941375
Si Si4 0.500000 0.500000 0.752642
Si Si5 0.396303 0.757875 0.167830
O O1 0.719755 0.339935 0.608295
O O2 0.603638 0.381194 0.712569
O O3 0.787700 0.588537 0.680555
O O4 0.922139 0.312195 0.682282
O O5 0.475441 0.786878 0.932183
O O6 0.281254 0.027577 0.934010
O O7 0.249460 0.746010 0.997852
O O8 0.726599 0.650926 0.897013
O O9 0.601306 0.616620 0.794094
#
# Coordination Sequence:
#
# PCOD9558853 Si02
#       5
#     8   8   8   4   8
#     4  11  24  43  68  99 136 184 238 291 357 433
#     4  11  24  42  66  99 138 182 235 295 360 429
#     4  11  24  42  66  99 138 182 235 295 360 429
#     4  12  24  42  68 100 140 186 236 298 356 428
#     4  11  24  43  68  99 136 184 238 291 357 433
#
# _framework density 21.989144
#
# number of rings (size 3 to 8) (size 9 to 14) (size 15 to 20)
#    0.000    0.889    0.000    6.667    0.000    9.778 
#    0.000    0.000    0.000    2.667    0.000    0.000 
#    0.000    0.000    0.000    0.000    0.000    0.000 
#
# Total GULP energy -200775.438104 kJ/mol
# GULP energy per Si atom -5577.095503 kJ/mol
# Density = 2.193910 g / cm^3
# Si number density = 21.989144 Si / 1000 Ang^3
#
#
#
# Elastic Constant Matrix: (Units=GPa)
#
#
# Indices 1 2 3 4 5 6 
#
# 1 82.3326 30.9043 44.8595 0.0000 0.0000 0.0000
# 2 30.9043 82.3326 44.8595 0.0000 0.0000 0.0000
# 3 44.8595 44.8595 162.8927 0.0000 0.0000 0.0000
# 4 0.0000 0.0000 0.0000 51.8007 0.0000 0.0000
# 5 0.0000 0.0000 0.0000 0.0000 51.8007 0.0000
# 6 0.0000 0.0000 0.0000 0.0000 0.0000 18.0315
#
#
#
# Elastic Compliance Matrix: (Units=1/GPa)
#
#
# Indices 1 2 3 4 5 6 
#
# 1 0.015370 -0.004074 -0.003111 0.000000 0.000000 0.000000
# 2 -0.004074 0.015370 -0.003111 0.000000 0.000000 0.000000
# 3 -0.003111 -0.003111 0.007852 0.000000 0.000000 0.000000
# 4 0.000000 0.000000 0.000000 0.019305 0.000000 0.000000
# 5 0.000000 0.000000 0.000000 0.000000 0.019305 0.000000
# 6 0.000000 0.000000 0.000000 0.000000 0.000000 0.055458
#
#
# Mechanical properties :
#
#
# Convention : Reuss Voigt Hill
#
# Bulk Modulus (GPa) = 55.55309 63.20047 59.37678
# Shear Modulus (GPa) = 31.39663 38.12224 34.75944
#
# Velocity S-wave (km/s) = 3.78276 4.16827 3.98018
# Velocity P-wave (km/s) = 6.66316 7.20902 6.94146
#
# Compressibility (1/GPa) = 0.01800080
#
# Stress axis : x y z
#
# Youngs Moduli (GPa) = 65.06120 65.06120 127.35001
#
# Poissons Ratio (x) = 0.26509 0.39616
# Poissons Ratio (y) = 0.26509 0.39616
# Poissons Ratio (z) = 0.20239 0.20239
#
# Static dielectric constant tensor:
#      x y z
#    x 1.919440 0.000000 0.000000 
#    y 0.000000 1.919440 0.000000 
#    z 0.000000 0.000000 1.818720 
# 
# From -- ./inp_files/5446.got.cif
#   From: 2010.05.17/outbox.cif.g08.bks.cpg/sg118_3_cif.got.tgz:5446.got - 2010.05.20 11:17:24.
