data_PCOD9558450
_publ_section_title
;
Structure prediction by ZEFSAII (Michael W. Deem and Ramdas Pophale) SiO2 
 PCOD9558450
Probable space group: P -4 N 2
;
_chemical_formula_sum "Si O2"
_cell_formula_units_Z 46
_cell_length_a 16.661009
_cell_length_b 16.661009
_cell_length_c 6.985833
_cell_angle_alpha 90.000000
_cell_angle_beta 90.000000
_cell_angle_gamma 90.000000
_cell_volume 1939.191940
_symmetry_space_group_name_H-M "P -4 N 2"
_symmetry_group_IT_number 118
_symmetry_cell_setting 'tetragonal'
loop_
_space_group_symop_operation_xyz
x,y,z
y,-x,-z
-x,-y,z
-y,x,-z
1/2+y,1/2+x,1/2-z
1/2-y,1/2-x,1/2-z
1/2-x,1/2+y,1/2+z
1/2+x,1/2-y,1/2+z
loop_
_atom_site_type_symbol
_atom_site_label
_atom_site_fract_x
_atom_site_fract_y
_atom_site_fract_z
Si Si1 0.142602 0.707827 0.049364
Si Si2 0.569082 0.419008 0.387808
Si Si3 0.711446 0.495822 0.219600
Si Si4 0.644386 0.264265 0.536593
Si Si5 0.969620 0.354877 0.538514
Si Si6 0.000000 0.500000 0.250000
Si Si7 0.376164 0.876164 0.250000
O O1 0.187296 0.687296 0.250000
O O2 0.198156 0.768578 0.935068
O O3 0.128227 0.623985 0.949371
O O4 0.059526 0.748795 0.113315
O O5 0.473271 0.412300 0.418996
O O6 0.619071 0.466086 0.224645
O O7 0.603608 0.329839 0.393711
O O8 0.728203 0.587062 0.280535
O O9 0.763398 0.477484 0.034371
O O10 0.647000 0.178982 0.431591
O O11 0.999005 0.419740 0.378920
O O12 0.030130 0.364406 0.711207
#
# Coordination Sequence:
#
# PCOD9558450 Si02
#       7
#     8   8   8   8   8   2   4
#     4   9  17  37  63  84 119 172 209 251 327 388
#     4   8  15  30  63  93 114 154 203 265 325 383
#     4   9  17  35  63  89 117 158 221 253 317 399
#     4  10  19  35  61  91 124 162 208 272 317 382
#     4  11  23  39  61  89 125 179 210 268 323 406
#     4  12  20  40  64  80 118 170 224 248 334 392
#     4  12  26  36  60  94 137 167 218 278 330 378
#
# _framework density 23.721222000000001
#
# number of rings (size 3 to 8) (size 9 to 14) (size 15 to 20)
#    0.000    2.261    3.478    1.043    0.000    0.348 
#    0.000    0.000   34.435    0.000    0.000    2.435 
#    0.000    0.000    0.000    0.000    0.000    0.000 
#
# Total GULP energy -256701.236152 kJ/mol
# GULP energy per Si atom -5580.461655 kJ/mol
# Density = 2.366723 g / cm^3
# Si number density = 23.721222 Si / 1000 Ang^3
#
#
#
# Elastic Constant Matrix: (Units=GPa)
#
#
# Indices 1 2 3 4 5 6 
#
# 1 105.8357 25.1525 7.6756 0.0000 0.0000 0.0000
# 2 25.1525 105.8357 7.6756 0.0000 0.0000 0.0000
# 3 7.6756 7.6756 21.3661 0.0000 0.0000 0.0000
# 4 0.0000 0.0000 0.0000 12.4227 0.0000 0.0000
# 5 0.0000 0.0000 0.0000 0.0000 12.4227 0.0000
# 6 0.0000 0.0000 0.0000 0.0000 0.0000 38.3288
#
#
#
# Elastic Compliance Matrix: (Units=1/GPa)
#
#
# Indices 1 2 3 4 5 6 
#
# 1 0.010182 -0.002212 -0.002863 0.000000 0.000000 0.000000
# 2 -0.002212 0.010182 -0.002863 0.000000 0.000000 0.000000
# 3 -0.002863 -0.002863 0.048860 0.000000 0.000000 0.000000
# 4 0.000000 0.000000 0.000000 0.080498 0.000000 0.000000
# 5 0.000000 0.000000 0.000000 0.000000 0.080498 0.000000
# 6 0.000000 0.000000 0.000000 0.000000 0.000000 0.026090
#
#
# Mechanical properties :
#
#
# Convention : Reuss Voigt Hill
#
# Bulk Modulus (GPa) = 18.74500 34.89387 26.81944
# Shear Modulus (GPa) = 17.24318 25.47040 21.35679
#
# Velocity S-wave (km/s) = 2.69905 3.28035 3.00380
# Velocity P-wave (km/s) = 4.19911 5.39347 4.83332
#
# Compressibility (1/GPa) = 0.05334755
#
# Stress axis : x y z
#
# Youngs Moduli (GPa) = 98.21264 98.21264 20.46651
#
# Poissons Ratio (x) = 0.21726 0.05860
# Poissons Ratio (y) = 0.21726 0.05860
# Poissons Ratio (z) = 0.28119 0.28119
#
# Static dielectric constant tensor:
#      x y z
#    x 1.924690 0.000000 0.000000 
#    y 0.000000 1.924690 0.000000 
#    z 0.000000 0.000000 1.891740 
# 
# From -- ./inp_files/2145.got.cif
#   From: 2010.05.17/outbox.cif.g08.bks.cpg/sg118_2_cif.got.tgz:2145.got - 2010.05.20 11:17:24.
