data_PCOD9558138
_publ_section_title
;
Structure prediction by ZEFSAII (Michael W. Deem and Ramdas Pophale) SiO2 
 PCOD9558138
Probable space group: P -4 B 2
;
_chemical_formula_sum "Si O2"
_cell_formula_units_Z 52
_cell_length_a 18.535146
_cell_length_b 18.535146
_cell_length_c 5.917470
_cell_angle_alpha 90.000000
_cell_angle_beta 90.000000
_cell_angle_gamma 90.000000
_cell_volume 2032.956507
_symmetry_space_group_name_H-M "P -4 B 2"
_symmetry_group_IT_number 117
_symmetry_cell_setting 'tetragonal'
loop_
_space_group_symop_operation_xyz
x,y,z
y,-x,-z
-x,-y,z
-y,x,-z
1/2+y,1/2+x,-z
1/2-y,1/2-x,-z
1/2-x,1/2+y,z
1/2+x,1/2-y,z
loop_
_atom_site_type_symbol
_atom_site_label
_atom_site_fract_x
_atom_site_fract_y
_atom_site_fract_z
Si Si1 0.991182 0.894513 0.105425
Si Si2 0.722752 0.777249 0.000000
Si Si3 0.845508 0.917720 0.511389
Si Si4 0.590985 0.799556 0.241163
Si Si5 0.843873 0.543550 0.512576
Si Si6 0.752372 0.002197 0.137004
Si Si7 0.158116 0.239714 0.338849
O O1 0.027538 0.897250 0.352916
O O2 0.967885 0.815393 0.023771
O O3 0.051326 0.925380 0.931268
O O4 0.689041 0.825079 0.795829
O O5 0.719533 0.697860 0.894452
O O6 0.785155 0.906981 0.703721
O O7 0.868580 0.836760 0.444645
O O8 0.798329 0.956074 0.318562
O O9 0.539822 0.840458 0.415419
O O10 0.548143 0.801034 0.006003
O O11 0.922231 0.577770 0.500000
O O12 0.798620 0.553774 0.281730
O O13 0.796324 0.592718 0.682338
O O14 0.217213 0.282788 0.500000
#
# Coordination Sequence:
#
# PCOD9558138 Si02
#       7
#     8   4   8   8   8   8   8
#     4  10  22  37  56  86 127 179 229 264 310 391
#     4  12  22  40  72 103 126 173 224 282 334 402
#     4  10  20  38  59  94 126 169 216 268 326 386
#     4  10  22  40  64  97 130 163 215 272 335 395
#     4  10  24  42  65  99 133 173 211 276 341 403
#     4  10  21  39  62  87 129 171 208 271 328 393
#     4  11  22  38  66  99 130 166 225 276 333 402
#
# _framework density 25.578512
#
# number of rings (size 3 to 8) (size 9 to 14) (size 15 to 20)
#    0.000    1.692    3.077    0.923    0.000    8.000 
#    0.000    1.538    0.000    2.769    0.000    0.000 
#    0.000    0.000    0.000    0.000    0.000    0.000 
#
# Total GULP energy -290404.915989 kJ/mol
# GULP energy per Si atom -5584.709923 kJ/mol
# Density = 2.552029 g / cm^3
# Si number density = 25.578512 Si / 1000 Ang^3
#
#
#
# Elastic Constant Matrix: (Units=GPa)
#
#
# Indices 1 2 3 4 5 6 
#
# 1 68.9500 7.3447 11.2035 0.0000 0.0000 0.0000
# 2 7.3447 68.9521 11.2035 0.0000 0.0000 0.0000
# 3 11.2035 11.2035 59.1630 0.0000 0.0000 0.0000
# 4 0.0000 0.0000 0.0000 29.9562 0.0000 0.0000
# 5 0.0000 0.0000 0.0000 0.0000 29.9558 0.0000
# 6 0.0000 0.0000 0.0000 0.0000 0.0000 39.6310
#
#
#
# Elastic Compliance Matrix: (Units=1/GPa)
#
#
# Indices 1 2 3 4 5 6 
#
# 1 0.015056 -0.001177 -0.002628 0.000000 0.000000 0.000000
# 2 -0.001177 0.015055 -0.002628 0.000000 0.000000 0.000000
# 3 -0.002628 -0.002628 0.017898 0.000000 0.000000 0.000000
# 4 0.000000 0.000000 0.000000 0.033382 0.000000 0.000000
# 5 0.000000 0.000000 0.000000 0.000000 0.033383 0.000000
# 6 0.000000 0.000000 0.000000 0.000000 0.000000 0.025233
#
#
# Mechanical properties :
#
#
# Convention : Reuss Voigt Hill
#
# Bulk Modulus (GPa) = 28.45548 28.50763 28.48155
# Shear Modulus (GPa) = 30.37920 31.06283 30.72101
#
# Velocity S-wave (km/s) = 3.45002 3.48862 3.46937
# Velocity P-wave (km/s) = 5.19799 5.23418 5.21612
#
# Compressibility (1/GPa) = 0.03514262
#
# Stress axis : x y z
#
# Youngs Moduli (GPa) = 66.42020 66.42235 55.87266
#
# Poissons Ratio (x) = 0.07816 0.14685
# Poissons Ratio (y) = 0.07815 0.14684
# Poissons Ratio (z) = 0.17457 0.17457
#
# Static dielectric constant tensor:
#      x y z
#    x 2.038440 0.000000 0.000000 
#    y 0.000000 2.038440 0.000000 
#    z 0.000000 0.000000 2.127380 
# 
# From -- ./inp_files/854.got.cif
#   From: 2010.05.17/outbox.cif.g08.bks.cpg/sg117_1_cif.got.tgz:854.got - 2010.05.20 11:15:09.
