data_PCOD9558376
_publ_section_title
;
Structure prediction by ZEFSAII (Michael W. Deem and Ramdas Pophale) SiO2 
 PCOD9558376
Probable space group: P -4 N 2
;
_chemical_formula_sum "Si O2"
_cell_formula_units_Z 56
_cell_length_a 13.836339
_cell_length_b 13.836339
_cell_length_c 22.028050
_cell_angle_alpha 90.000000
_cell_angle_beta 90.000000
_cell_angle_gamma 90.000000
_cell_volume 4217.144104
_symmetry_space_group_name_H-M "P -4 N 2"
_symmetry_group_IT_number 118
_symmetry_cell_setting 'tetragonal'
loop_
_space_group_symop_operation_xyz
x,y,z
y,-x,-z
-x,-y,z
-y,x,-z
1/2+y,1/2+x,1/2-z
1/2-y,1/2-x,1/2-z
1/2-x,1/2+y,1/2+z
1/2+x,1/2-y,1/2+z
loop_
_atom_site_type_symbol
_atom_site_label
_atom_site_fract_x
_atom_site_fract_y
_atom_site_fract_z
Si Si1 0.385232 0.110088 0.367319
Si Si2 0.114320 0.797188 0.940736
Si Si3 0.385233 0.889914 0.367319
Si Si4 0.615147 0.387087 0.309926
Si Si5 0.295593 0.204408 0.250000
Si Si6 0.387089 0.615148 0.690075
Si Si7 0.204405 0.295596 0.750000
Si Si8 0.614318 0.297187 0.440736
O O1 0.364395 0.188037 0.419360
O O2 0.500000 0.119643 0.353198
O O3 0.327121 0.139941 0.307473
O O4 0.366116 0.000001 0.384675
O O5 0.134060 0.861901 0.880793
O O6 0.000001 0.805836 0.953422
O O7 0.170930 0.829071 1.000000
O O8 0.327122 0.860063 0.307473
O O9 0.364396 0.811964 0.419360
O O10 0.632739 0.499999 0.298223
O O11 0.499999 0.367315 0.300054
O O12 0.678348 0.313444 0.269885
O O13 0.634059 0.361900 0.380794
O O14 0.321650 0.313447 0.269884
#
# Coordination Sequence:
#
# PCOD9558376 Si02
#       8
#     8   8   8   8   4   8   4   8
#     4   9  16  25  39  61  84 102 124 158 200 244
#     4   9  16  25  39  58  79 104 130 158 195 235
#     4   9  16  25  39  61  84 102 124 158 200 244
#     4   9  17  27  40  61  85 106 132 167 202 237
#     4  10  16  25  42  61  82 108 132 156 198 244
#     4   9  17  27  40  61  85 106 132 167 202 237
#     4  10  16  25  42  61  82 108 132 156 198 244
#     4   9  16  25  39  58  79 104 130 158 195 235
#
# _framework density 13.279128
#
# number of rings (size 3 to 8) (size 9 to 14) (size 15 to 20)
#    0.000    2.857    0.000    5.143    0.000    2.571 
#    0.000    0.000    0.000    7.286    0.000    0.000 
#    0.000    0.000    0.000    0.000    0.000    0.000 
#
# Total GULP energy -311826.172141 kJ/mol
# GULP energy per Si atom -5568.324503 kJ/mol
# Density = 1.324890 g / cm^3
# Si number density = 13.279128 Si / 1000 Ang^3
#
#
#
# Elastic Constant Matrix: (Units=GPa)
#
#
# Indices 1 2 3 4 5 6 
#
# 1 91.6175 53.0379 57.0467 0.0000 0.0000 0.0000
# 2 53.0379 91.6175 57.0467 0.0000 0.0000 0.0000
# 3 57.0467 57.0467 95.8459 0.0000 0.0000 0.0000
# 4 0.0000 0.0000 0.0000 15.3240 0.0000 0.0000
# 5 0.0000 0.0000 0.0000 0.0000 15.3240 0.0000
# 6 0.0000 0.0000 0.0000 0.0000 0.0000 19.2598
#
#
#
# Elastic Compliance Matrix: (Units=1/GPa)
#
#
# Indices 1 2 3 4 5 6 
#
# 1 0.019475 -0.006445 -0.007755 0.000000 0.000000 0.000000
# 2 -0.006445 0.019475 -0.007755 0.000000 0.000000 0.000000
# 3 -0.007755 -0.007755 0.019665 0.000000 0.000000 0.000000
# 4 0.000000 0.000000 0.000000 0.065257 0.000000 0.000000
# 5 0.000000 0.000000 0.000000 0.000000 0.065257 0.000000
# 6 0.000000 0.000000 0.000000 0.000000 0.000000 0.051922
#
#
# Mechanical properties :
#
#
# Convention : Reuss Voigt Hill
#
# Bulk Modulus (GPa) = 68.00989 68.14930 68.07959
# Shear Modulus (GPa) = 17.24950 17.44487 17.34718
#
# Velocity S-wave (km/s) = 3.60806 3.62844 3.61827
# Velocity P-wave (km/s) = 8.28760 8.30579 8.29670
#
# Compressibility (1/GPa) = 0.01470374
#
# Stress axis : x y z
#
# Youngs Moduli (GPa) = 51.34782 51.34782 50.85169
#
# Poissons Ratio (x) = 0.33095 0.39436
# Poissons Ratio (y) = 0.33095 0.39436
# Poissons Ratio (z) = 0.39821 0.39821
#
# Static dielectric constant tensor:
#      x y z
#    x 1.438070 0.000000 0.000000 
#    y 0.000000 1.438070 0.000000 
#    z 0.000000 0.000000 1.410730 
# 
# From -- ./inp_files/5042.got.cif
#   From: 2010.05.17/outbox.cif.g08.bks.cpg/sg118_3_cif.got.tgz:5042.got - 2010.05.20 11:17:24.
