data_PCOD9558221
_publ_section_title
;
Structure prediction by ZEFSAII (Michael W. Deem and Ramdas Pophale) SiO2 
 PCOD9558221
Probable space group: P -4 B 2
;
_chemical_formula_sum "Si O2"
_cell_formula_units_Z 40
_cell_length_a 16.410523
_cell_length_b 16.410523
_cell_length_c 6.831425
_cell_angle_alpha 90.000000
_cell_angle_beta 90.000000
_cell_angle_gamma 90.000000
_cell_volume 1839.738721
_symmetry_space_group_name_H-M "P -4 B 2"
_symmetry_group_IT_number 117
_symmetry_cell_setting 'tetragonal'
loop_
_space_group_symop_operation_xyz
x,y,z
y,-x,-z
-x,-y,z
-y,x,-z
1/2+y,1/2+x,-z
1/2-y,1/2-x,-z
1/2-x,1/2+y,z
1/2+x,1/2-y,z
loop_
_atom_site_type_symbol
_atom_site_label
_atom_site_fract_x
_atom_site_fract_y
_atom_site_fract_z
Si Si1 0.000000 0.000000 0.500000
Si Si2 0.341619 0.356386 0.660239
Si Si3 0.500000 0.000000 0.500000
Si Si4 0.032356 0.156127 0.675722
Si Si5 0.448503 0.128941 0.190958
Si Si6 0.408420 0.773413 0.017133
Si Si7 0.316750 0.183251 0.500000
O O1 0.059244 0.948108 0.357064
O O2 0.315715 0.436060 0.536624
O O3 0.436451 0.351145 0.717126
O O4 0.284063 0.354833 0.845074
O O5 0.330152 0.278395 0.525607
O O6 0.502631 0.923410 0.353648
O O7 0.072334 0.217814 0.828152
O O8 0.505431 0.200984 0.112504
O O9 0.367409 0.154499 0.309786
O O10 0.423152 0.076848 0.000000
O O11 0.356850 0.856850 0.000000
#
# Coordination Sequence:
#
# PCOD9558221 Si02
#       7
#     2   8   2   8   8   8   4
#     4   8  20  44  70  92 128 178 232 284 354 420
#     4  11  24  42  64  93 129 171 219 273 340 404
#     4  10  22  42  68  94 132 174 218 282 340 410
#     4  10  23  43  64  92 128 170 220 278 333 403
#     4  11  24  43  68  98 131 176 229 279 344 417
#     4  12  26  41  66 101 137 175 224 281 342 416
#     4  11  24  42  66  92 130 174 218 279 340 406
#
# _framework density 21.742218000000001
#
# number of rings (size 3 to 8) (size 9 to 14) (size 15 to 20)
#    0.000    1.200    0.000    5.100    0.000   16.000 
#    0.000    1.000    0.000    0.000    0.000    0.000 
#    0.000    0.000    0.000    0.000    0.000    0.000 
#
# Total GULP energy -222993.252252 kJ/mol
# GULP energy per Si atom -5574.831306 kJ/mol
# Density = 2.169273 g / cm^3
# Si number density = 21.742218 Si / 1000 Ang^3
#
#
#
# Elastic Constant Matrix: (Units=GPa)
#
#
# Indices 1 2 3 4 5 6 
#
# 1 72.1493 11.7638 34.7854 0.0000 0.0000 0.0000
# 2 11.7638 72.1532 34.7860 0.0000 0.0000 0.0000
# 3 34.7854 34.7860 105.0263 0.0000 0.0000 0.0000
# 4 0.0000 0.0000 0.0000 36.4533 0.0000 0.0000
# 5 0.0000 0.0000 0.0000 0.0000 36.4528 0.0000
# 6 0.0000 0.0000 0.0000 0.0000 0.0000 34.6721
#
#
#
# Elastic Compliance Matrix: (Units=1/GPa)
#
#
# Indices 1 2 3 4 5 6 
#
# 1 0.016494 -0.000066 -0.005441 0.000000 0.000000 0.000000
# 2 -0.000066 0.016493 -0.005441 0.000000 0.000000 0.000000
# 3 -0.005441 -0.005441 0.013126 0.000000 0.000000 0.000000
# 4 0.000000 0.000000 0.000000 0.027432 0.000000 0.000000
# 5 0.000000 0.000000 0.000000 0.000000 0.027433 0.000000
# 6 0.000000 0.000000 0.000000 0.000000 0.000000 0.028842
#
#
# Mechanical properties :
#
#
# Convention : Reuss Voigt Hill
#
# Bulk Modulus (GPa) = 41.29312 45.77771 43.53541
# Shear Modulus (GPa) = 31.29138 32.71522 32.00330
#
# Velocity S-wave (km/s) = 3.79779 3.88324 3.84075
# Velocity P-wave (km/s) = 6.18582 6.41923 6.30360
#
# Compressibility (1/GPa) = 0.02421711
#
# Stress axis : x y z
#
# Youngs Moduli (GPa) = 60.62716 60.63072 76.18653
#
# Poissons Ratio (x) = 0.00400 0.41454
# Poissons Ratio (y) = 0.00400 0.41453
# Poissons Ratio (z) = 0.32988 0.32989
#
# Static dielectric constant tensor:
#      x y z
#    x 1.814250 0.000000 0.000000 
#    y 0.000000 1.814240 0.000000 
#    z 0.000000 0.000000 1.784130 
# 
# From -- ./inp_files/660.got.cif
#   From: 2010.05.17/outbox.cif.g08.bks.cpg/sg117_1_cif.got.tgz:660.got - 2010.05.20 11:15:09.
