data_PCOD9558413
_publ_section_title
;
Structure prediction by ZEFSAII (Michael W. Deem and Ramdas Pophale) SiO2 
 PCOD9558413
Probable space group: P -4 N 2
;
_chemical_formula_sum "Si O2"
_cell_formula_units_Z 28
_cell_length_a 15.191764
_cell_length_b 15.191764
_cell_length_c 5.181219
_cell_angle_alpha 90.000000
_cell_angle_beta 90.000000
_cell_angle_gamma 90.000000
_cell_volume 1195.771945
_symmetry_space_group_name_H-M "P -4 N 2"
_symmetry_group_IT_number 118
_symmetry_cell_setting 'tetragonal'
loop_
_space_group_symop_operation_xyz
x,y,z
y,-x,-z
-x,-y,z
-y,x,-z
1/2+y,1/2+x,1/2-z
1/2-y,1/2-x,1/2-z
1/2-x,1/2+y,1/2+z
1/2+x,1/2-y,1/2+z
loop_
_atom_site_type_symbol
_atom_site_label
_atom_site_fract_x
_atom_site_fract_y
_atom_site_fract_z
Si Si1 0.766692 0.080890 0.436101
Si Si2 0.401448 0.266442 0.910626
Si Si3 0.681090 0.960254 0.088260
Si Si4 0.915221 0.584780 0.250000
O O1 0.815691 0.995649 0.556155
O O2 0.741499 0.047935 0.148287
O O3 0.673530 0.085564 0.581421
O O4 0.821143 0.169227 0.455302
O O5 0.400890 0.227702 0.625418
O O6 0.415478 0.190373 0.128794
O O7 0.596279 0.003343 0.950943
#
# Coordination Sequence:
#
# PCOD9558413 Si02
#       4
#     8   8   8   4
#     4   9  20  33  51  73 104 140 174 216 255 308
#     4   9  20  31  48  71 106 134 178 209 255 304
#     4   9  20  31  49  71  98 138 171 216 252 302
#     4  10  18  36  54  72 100 142 182 220 266 298
#
# _framework density 23.415834
#
# number of rings (size 3 to 8) (size 9 to 14) (size 15 to 20)
#    1.714    1.143    0.000    0.857    8.000    0.571 
#    0.000    0.000    0.000    0.000    0.000    0.000 
#    0.000   27.429    0.000    0.000    0.000    0.000 
#
# Total GULP energy -155955.607122 kJ/mol
# GULP energy per Si atom -5569.843112 kJ/mol
# Density = 2.336254 g / cm^3
# Si number density = 23.415834 Si / 1000 Ang^3
#
#
#
# Elastic Constant Matrix: (Units=GPa)
#
#
# Indices 1 2 3 4 5 6 
#
# 1 79.7939 40.6176 39.9223 0.0000 0.0000 0.0000
# 2 40.6176 79.7947 39.9225 0.0000 0.0000 0.0000
# 3 39.9223 39.9225 160.2751 0.0000 0.0000 0.0000
# 4 0.0000 0.0000 0.0000 31.5605 0.0000 0.0000
# 5 0.0000 0.0000 0.0000 0.0000 31.5605 0.0000
# 6 0.0000 0.0000 0.0000 0.0000 0.0000 20.6175
#
#
#
# Elastic Compliance Matrix: (Units=1/GPa)
#
#
# Indices 1 2 3 4 5 6 
#
# 1 0.017737 -0.007789 -0.002478 0.000000 0.000000 0.000000
# 2 -0.007789 0.017737 -0.002478 0.000000 0.000000 0.000000
# 3 -0.002478 -0.002478 0.007474 0.000000 0.000000 0.000000
# 4 0.000000 0.000000 0.000000 0.031685 0.000000 0.000000
# 5 0.000000 0.000000 0.000000 0.000000 0.031685 0.000000
# 6 0.000000 0.000000 0.000000 0.000000 0.000000 0.048503
#
#
# Mechanical properties :
#
#
# Convention : Reuss Voigt Hill
#
# Bulk Modulus (GPa) = 57.28054 62.30985 59.79519
# Shear Modulus (GPa) = 26.86318 30.04109 28.45214
#
# Velocity S-wave (km/s) = 3.39074 3.58570 3.48958
# Velocity P-wave (km/s) = 6.31228 6.61898 6.46745
#
# Compressibility (1/GPa) = 0.01745794
#
# Stress axis : x y z
#
# Youngs Moduli (GPa) = 56.38018 56.38074 133.80260
#
# Poissons Ratio (x) = 0.43913 0.33155
# Poissons Ratio (y) = 0.43913 0.33155
# Poissons Ratio (z) = 0.13970 0.13971
#
# Static dielectric constant tensor:
#      x y z
#    x 1.944630 0.000000 0.000000 
#    y 0.000000 1.944630 0.000000 
#    z 0.000000 0.000000 1.897270 
# 
# From -- ./inp_files/422.got.cif
#   From: 2010.05.17/outbox.cif.g08.bks.cpg/sg118_1_cif.got.tgz:422.got - 2010.05.20 11:17:24.
