data_PCOD9558671
_publ_section_title
;
Structure prediction by ZEFSAII (Michael W. Deem and Ramdas Pophale) SiO2 
 PCOD9558671
Probable space group: P -4 N 2
;
_chemical_formula_sum "Si O2"
_cell_formula_units_Z 48
_cell_length_a 9.258688
_cell_length_b 9.258688
_cell_length_c 29.828334
_cell_angle_alpha 90.000000
_cell_angle_beta 90.000000
_cell_angle_gamma 90.000000
_cell_volume 2556.983328
_symmetry_space_group_name_H-M "P -4 N 2"
_symmetry_group_IT_number 118
_symmetry_cell_setting 'tetragonal'
loop_
_space_group_symop_operation_xyz
x,y,z
y,-x,-z
-x,-y,z
-y,x,-z
1/2+y,1/2+x,1/2-z
1/2-y,1/2-x,1/2-z
1/2-x,1/2+y,1/2+z
1/2+x,1/2-y,1/2+z
loop_
_atom_site_type_symbol
_atom_site_label
_atom_site_fract_x
_atom_site_fract_y
_atom_site_fract_z
Si Si1 0.621066 0.664008 0.478057
Si Si2 0.523217 0.777290 0.890493
Si Si3 0.000000 0.000000 0.817909
Si Si4 0.571056 0.705615 0.989125
Si Si5 0.245624 0.500739 0.753369
Si Si6 0.500000 0.500000 0.827386
Si Si7 0.245209 0.474273 0.387701
O O1 0.666909 0.552089 0.517594
O O2 0.680980 0.821214 0.489245
O O3 0.682429 0.594542 0.432432
O O4 0.496474 0.749893 0.943082
O O5 0.524474 0.637381 0.859609
O O6 0.389246 0.873526 0.874509
O O7 0.671271 0.868844 0.892482
O O8 0.990880 0.857689 0.787536
O O9 0.137459 0.983500 0.849484
O O10 0.661442 0.560436 0.978983
O O11 0.138144 0.361857 0.750000
O O12 0.355180 0.510122 0.796198
O O13 0.141064 0.641064 0.750000
#
# Coordination Sequence:
#
# PCOD9558671 Si02
#       7
#     8   8   4   8   8   4   8
#     4  11  22  38  59  83 118 163 208 254 310 362
#     4  11  23  39  60  89 124 159 205 261 304 359
#     4  11  22  40  67  92 122 166 205 246 312 379
#     4  11  22  38  59  83 118 163 208 254 310 362
#     4  10  22  42  66  94 128 160 196 252 314 378
#     4  11  22  40  67  92 122 166 205 246 312 379
#     4  11  23  39  60  89 124 159 205 261 304 359
#
# _framework density 18.772120000000001
#
# number of rings (size 3 to 8) (size 9 to 14) (size 15 to 20)
#    0.000    1.167    3.333    4.000    0.000    0.667 
#    0.000    0.000    0.000    8.000    0.000    0.000 
#    0.000    0.000    0.000    0.000    0.000    0.000 
#
# Total GULP energy -267737.996632 kJ/mol
# GULP energy per Si atom -5577.874930 kJ/mol
# Density = 1.872939 g / cm^3
# Si number density = 18.772120 Si / 1000 Ang^3
#
#
#
# Elastic Constant Matrix: (Units=GPa)
#
#
# Indices 1 2 3 4 5 6 
#
# 1 80.2362 13.4603 31.0589 0.0000 0.0000 0.0000
# 2 13.4603 80.2364 31.0590 0.0000 0.0000 0.0000
# 3 31.0589 31.0590 90.1748 0.0000 0.0000 0.0000
# 4 0.0000 0.0000 0.0000 13.2356 0.0000 0.0000
# 5 0.0000 0.0000 0.0000 0.0000 13.2349 0.0000
# 6 0.0000 0.0000 0.0000 0.0000 0.0000 32.0273
#
#
#
# Elastic Compliance Matrix: (Units=1/GPa)
#
#
# Indices 1 2 3 4 5 6 
#
# 1 0.014403 -0.000572 -0.004764 0.000000 0.000000 0.000000
# 2 -0.000572 0.014403 -0.004764 0.000000 0.000000 0.000000
# 3 -0.004764 -0.004764 0.014371 0.000000 0.000000 0.000000
# 4 0.000000 0.000000 0.000000 0.075554 0.000000 0.000000
# 5 0.000000 0.000000 0.000000 0.000000 0.075558 0.000000
# 6 0.000000 0.000000 0.000000 0.000000 0.000000 0.031223
#
#
# Mechanical properties :
#
#
# Convention : Reuss Voigt Hill
#
# Bulk Modulus (GPa) = 43.52005 44.64486 44.08245
# Shear Modulus (GPa) = 19.73382 23.37082 21.55232
#
# Velocity S-wave (km/s) = 3.24579 3.53225 3.39204
# Velocity P-wave (km/s) = 6.10578 6.36159 6.23500
#
# Compressibility (1/GPa) = 0.02297792
#
# Stress axis : x y z
#
# Youngs Moduli (GPa) = 69.42880 69.42900 69.58369
#
# Poissons Ratio (x) = 0.03973 0.33148
# Poissons Ratio (y) = 0.03973 0.33148
# Poissons Ratio (z) = 0.33075 0.33075
#
# Static dielectric constant tensor:
#      x y z
#    x 1.685470 0.000000 0.000000 
#    y 0.000000 1.685470 0.000000 
#    z 0.000000 0.000000 1.694140 
# 
# From -- ./inp_files/6907.got.cif
#   From: 2010.05.17/outbox.cif.g08.bks.cpg/sg118_4_cif.got.tgz:6907.got - 2010.05.20 11:17:24.
