data_PCOD9558150
_publ_section_title
;
Structure prediction by ZEFSAII (Michael W. Deem and Ramdas Pophale) SiO2 
 PCOD9558150
Probable space group: P -4 B 2
;
_chemical_formula_sum "Si O2"
_cell_formula_units_Z 54
_cell_length_a 13.810401
_cell_length_b 13.810401
_cell_length_c 11.504438
_cell_angle_alpha 90.000000
_cell_angle_beta 90.000000
_cell_angle_gamma 90.000000
_cell_volume 2194.208969
_symmetry_space_group_name_H-M "P -4 B 2"
_symmetry_group_IT_number 117
_symmetry_cell_setting 'tetragonal'
loop_
_space_group_symop_operation_xyz
x,y,z
y,-x,-z
-x,-y,z
-y,x,-z
1/2+y,1/2+x,-z
1/2-y,1/2-x,-z
1/2-x,1/2+y,z
1/2+x,1/2-y,z
loop_
_atom_site_type_symbol
_atom_site_label
_atom_site_fract_x
_atom_site_fract_y
_atom_site_fract_z
Si Si1 0.094033 0.115400 0.448808
Si Si2 0.894350 0.997004 0.224291
Si Si3 0.500000 0.000000 0.500000
Si Si4 0.026945 0.693456 0.895031
Si Si5 0.143123 0.318670 0.174385
Si Si6 0.806799 0.180897 0.355717
Si Si7 0.214339 0.714339 0.000000
Si Si8 0.557879 0.857086 0.289525
O O1 0.156832 0.196363 0.508191
O O2 0.984383 0.128726 0.489499
O O3 0.102940 0.092481 0.314740
O O4 0.871031 0.094841 0.295593
O O5 0.802368 0.985856 0.146915
O O6 0.000000 0.000000 0.168689
O O7 0.515831 0.912994 0.404277
O O8 0.075943 0.621874 0.798827
O O9 0.918903 0.652733 0.897934
O O10 0.096884 0.714768 0.005172
O O11 0.205678 0.327812 0.291542
O O12 0.032814 0.311350 0.218350
O O13 0.208733 0.242095 0.100610
O O14 0.864582 0.278374 0.331623
#
# Coordination Sequence:
#
# PCOD9558150 Si02
#       8
#     8   8   2   8   8   8   4   8
#     4   9  15  31  57  97 137 187 230 278 373 460
#     4  10  20  39  67 104 145 196 241 313 391 468
#     4  12  28  48  76 114 152 220 258 318 404 486
#     4  11  26  50  73 107 154 195 261 327 395 480
#     4  11  26  49  75 108 146 201 263 323 401 472
#     4  10  22  38  69 104 148 189 255 315 384 459
#     4  12  28  48  80 112 140 198 268 332 406 468
#     4  12  26  50  74 109 161 205 263 326 387 502
#
# _framework density 24.610237000000001
#
# number of rings (size 3 to 8) (size 9 to 14) (size 15 to 20)
#    0.000    1.333    5.926    0.000    6.222    1.185 
#    2.667    0.741    0.000    0.000    0.000    0.000 
#    0.000    0.000    0.000    0.000    0.000    0.000 
#
# Total GULP energy -301175.611051 kJ/mol
# GULP energy per Si atom -5577.326131 kJ/mol
# Density = 2.455422 g / cm^3
# Si number density = 24.610237 Si / 1000 Ang^3
#
#
#
# Elastic Constant Matrix: (Units=GPa)
#
#
# Indices 1 2 3 4 5 6 
#
# 1 115.5419 10.6535 43.3964 0.0000 0.0000 0.0000
# 2 10.6535 115.5419 43.3964 0.0000 0.0000 0.0000
# 3 43.3964 43.3964 84.8552 0.0000 0.0000 0.0000
# 4 0.0000 0.0000 0.0000 35.3283 0.0000 0.0000
# 5 0.0000 0.0000 0.0000 0.0000 35.3283 0.0000
# 6 0.0000 0.0000 0.0000 0.0000 0.0000 31.3137
#
#
#
# Elastic Compliance Matrix: (Units=1/GPa)
#
#
# Indices 1 2 3 4 5 6 
#
# 1 0.010879 0.001345 -0.006251 0.000000 0.000000 0.000000
# 2 0.001345 0.010879 -0.006251 0.000000 0.000000 0.000000
# 3 -0.006251 -0.006251 0.018179 0.000000 0.000000 0.000000
# 4 0.000000 0.000000 0.000000 0.028306 0.000000 0.000000
# 5 0.000000 0.000000 0.000000 0.000000 0.028306 0.000000
# 6 0.000000 0.000000 0.000000 0.000000 0.000000 0.031935
#
#
# Mechanical properties :
#
#
# Convention : Reuss Voigt Hill
#
# Bulk Modulus (GPa) = 56.75137 56.75905 56.75521
# Shear Modulus (GPa) = 31.91363 34.96022 33.43692
#
# Velocity S-wave (km/s) = 3.60497 3.77312 3.69000
# Velocity P-wave (km/s) = 6.35907 6.48808 6.42390
#
# Compressibility (1/GPa) = 0.01762072
#
# Stress axis : x y z
#
# Youngs Moduli (GPa) = 91.92162 91.92162 55.00875
#
# Poissons Ratio (x) = -0.12362 0.34388
# Poissons Ratio (y) = -0.12362 0.34388
# Poissons Ratio (z) = 0.57464 0.57464
#
# Static dielectric constant tensor:
#      x y z
#    x 1.967880 0.000000 0.000000 
#    y 0.000000 1.967880 0.000000 
#    z 0.000000 0.000000 2.059130 
# 
# From -- ./inp_files/2904.got.cif
#   From: 2010.05.17/outbox.cif.g08.bks.cpg/sg117_2_cif.got.tgz:2904.got - 2010.05.20 11:15:09.
