data_PCOD9558332
_publ_section_title
;
Structure prediction by ZEFSAII (Michael W. Deem and Ramdas Pophale) SiO2 
 PCOD9558332
Probable space group: P -4 B 2
;
_chemical_formula_sum "Si O2"
_cell_formula_units_Z 38
_cell_length_a 14.078178
_cell_length_b 14.078178
_cell_length_c 8.164698
_cell_angle_alpha 90.000000
_cell_angle_beta 90.000000
_cell_angle_gamma 90.000000
_cell_volume 1618.203102
_symmetry_space_group_name_H-M "P -4 B 2"
_symmetry_group_IT_number 117
_symmetry_cell_setting 'tetragonal'
loop_
_space_group_symop_operation_xyz
x,y,z
y,-x,-z
-x,-y,z
-y,x,-z
1/2+y,1/2+x,-z
1/2-y,1/2-x,-z
1/2-x,1/2+y,z
1/2+x,1/2-y,z
loop_
_atom_site_type_symbol
_atom_site_label
_atom_site_fract_x
_atom_site_fract_y
_atom_site_fract_z
Si Si1 0.096776 0.737888 0.403020
Si Si2 0.500000 0.500000 0.000000
Si Si3 0.272734 0.378939 0.536980
Si Si4 0.123850 0.834587 0.879738
Si Si5 0.821134 0.678866 0.000000
Si Si6 0.169075 0.527201 0.939446
O O1 0.159624 0.659624 0.500000
O O2 0.153792 0.836557 0.405918
O O3 0.081865 0.700576 0.221568
O O4 0.991000 0.758197 0.469348
O O5 0.433366 0.431845 0.894265
O O6 0.174574 0.325427 0.500000
O O7 0.320471 0.338944 0.706740
O O8 0.207655 0.830339 0.016308
O O9 0.052813 0.747851 0.921204
O O10 0.916385 0.662843 0.108183
O O11 0.072252 0.572252 0.000000
#
# Coordination Sequence:
#
# PCOD9558332 Si02
#       6
#     8   2   8   8   4   8
#     4  11  26  48  70 104 144 195 240 296 368 441
#     4  12  24  48  76 118 140 184 256 310 360 420
#     4  11  26  48  69 103 145 191 238 293 361 439
#     4  12  25  45  79 107 143 190 240 309 360 426
#     4  12  25  44  76 107 142 188 240 300 364 427
#     4  12  25  47  72 108 143 186 248 302 369 435
#
# _framework density 23.482835000000001
#
# number of rings (size 3 to 8) (size 9 to 14) (size 15 to 20)
#    0.000    0.421    5.263    2.842    0.000    7.579 
#    3.789    0.000    0.000    0.000    0.000    0.000 
#    0.000    0.000    0.000    0.000    0.000    0.000 
#
# Total GULP energy -212072.147990 kJ/mol
# GULP energy per Si atom -5580.846000 kJ/mol
# Density = 2.342939 g / cm^3
# Si number density = 23.482835 Si / 1000 Ang^3
#
#
#
# Elastic Constant Matrix: (Units=GPa)
#
#
# Indices 1 2 3 4 5 6 
#
# 1 122.9909 58.1703 15.4633 0.0000 0.0000 0.0000
# 2 58.1703 122.9890 15.4651 0.0000 0.0000 0.0000
# 3 15.4633 15.4651 84.9130 0.0000 0.0000 0.0000
# 4 0.0000 0.0000 0.0000 19.6274 0.0000 0.0000
# 5 0.0000 0.0000 0.0000 0.0000 19.6281 0.0000
# 6 0.0000 0.0000 0.0000 0.0000 0.0000 54.3664
#
#
#
# Elastic Compliance Matrix: (Units=1/GPa)
#
#
# Indices 1 2 3 4 5 6 
#
# 1 0.010562 -0.004865 -0.001037 0.000000 0.000000 0.000000
# 2 -0.004865 0.010562 -0.001038 0.000000 0.000000 0.000000
# 3 -0.001037 -0.001038 0.012155 0.000000 0.000000 0.000000
# 4 0.000000 0.000000 0.000000 0.050949 0.000000 0.000000
# 5 0.000000 0.000000 0.000000 0.000000 0.050947 0.000000
# 6 0.000000 0.000000 0.000000 0.000000 0.000000 0.018394
#
#
# Mechanical properties :
#
#
# Convention : Reuss Voigt Hill
#
# Bulk Modulus (GPa) = 51.54986 56.56561 54.05773
# Shear Modulus (GPa) = 28.74948 34.84399 31.79673
#
# Velocity S-wave (km/s) = 3.50276 3.85620 3.68372
# Velocity P-wave (km/s) = 6.19346 6.63079 6.41585
#
# Compressibility (1/GPa) = 0.01939870
#
# Stress axis : x y z
#
# Youngs Moduli (GPa) = 94.67770 94.67561 82.27286
#
# Poissons Ratio (x) = 0.46061 0.08535
# Poissons Ratio (y) = 0.46062 0.08538
# Poissons Ratio (z) = 0.09822 0.09825
#
# Static dielectric constant tensor:
#      x y z
#    x 1.883470 0.000000 0.000000 
#    y 0.000000 1.883470 0.000000 
#    z 0.000000 0.000000 2.015370 
# 
# From -- ./inp_files/1641.got.cif
#   From: 2010.05.17/outbox.cif.g08.bks.cpg/sg117_1_cif.got.tgz:1641.got - 2010.05.20 11:15:09.
