data_PCOD9558480
_publ_section_title
;
Structure prediction by ZEFSAII (Michael W. Deem and Ramdas Pophale) SiO2 
 PCOD9558480
Probable space group: P -4 N 2
;
_chemical_formula_sum "Si O2"
_cell_formula_units_Z 52
_cell_length_a 18.394957
_cell_length_b 18.394957
_cell_length_c 6.801883
_cell_angle_alpha 90.000000
_cell_angle_beta 90.000000
_cell_angle_gamma 90.000000
_cell_volume 2301.583372
_symmetry_space_group_name_H-M "P -4 N 2"
_symmetry_group_IT_number 118
_symmetry_cell_setting 'tetragonal'
loop_
_space_group_symop_operation_xyz
x,y,z
y,-x,-z
-x,-y,z
-y,x,-z
1/2+y,1/2+x,1/2-z
1/2-y,1/2-x,1/2-z
1/2-x,1/2+y,1/2+z
1/2+x,1/2-y,1/2+z
loop_
_atom_site_type_symbol
_atom_site_label
_atom_site_fract_x
_atom_site_fract_y
_atom_site_fract_z
Si Si1 0.195284 0.039642 0.627211
Si Si2 0.478841 0.758222 0.523531
Si Si3 0.994968 0.388591 0.317218
Si Si4 0.754203 0.745798 0.750000
Si Si5 0.674271 0.623304 0.996612
Si Si6 0.678868 0.933425 0.339859
Si Si7 0.279353 0.318447 0.386377
O O1 0.130500 0.095374 0.596548
O O2 0.263908 0.080712 0.519021
O O3 0.196833 0.022317 0.858822
O O4 0.194076 0.960793 0.523400
O O5 0.482715 0.819488 0.692758
O O6 0.521795 0.783516 0.333631
O O7 0.393491 0.742224 0.505921
O O8 0.916049 0.416049 0.250000
O O9 0.987856 0.376928 0.548845
O O10 0.051887 0.448114 0.250000
O O11 0.828236 0.767070 0.627095
O O12 0.701087 0.737990 0.560448
O O13 0.666165 0.657924 0.215919
O O14 0.635273 0.864728 0.250000
O O15 0.214970 0.285031 0.250000
#
# Coordination Sequence:
#
# PCOD9558480 Si02
#       7
#     8   8   8   4   8   8   8
#     4  10  24  41  65  90 127 160 215 274 338 407
#     4  10  20  36  55  83 118 161 207 267 318 380
#     4  10  20  34  49  76 122 165 214 258 306 386
#     4  10  20  38  66  92 125 164 215 258 326 388
#     4  10  22  42  63  97 126 168 211 273 333 403
#     4  11  22  37  57  85 122 168 215 266 328 389
#     4   9  19  35  59  88 121 157 209 260 315 381
#
# _framework density 22.593140999999999
#
# number of rings (size 3 to 8) (size 9 to 14) (size 15 to 20)
#    0.000    2.000    1.538    1.385    0.000    8.923 
#    0.000    0.000    0.000    0.000    0.000    4.308 
#    0.000    0.000    0.000    0.000    0.000    0.000 
#
# Total GULP energy -289510.968055 kJ/mol
# GULP energy per Si atom -5567.518616 kJ/mol
# Density = 2.254172 g / cm^3
# Si number density = 22.593141 Si / 1000 Ang^3
#
#
#
# Elastic Constant Matrix: (Units=GPa)
#
#
# Indices 1 2 3 4 5 6 
#
# 1 42.0890 21.8224 26.6835 0.0000 0.0000 0.0000
# 2 21.8224 42.0867 26.6838 0.0000 0.0000 0.0000
# 3 26.6835 26.6838 158.2868 0.0000 0.0000 0.0000
# 4 0.0000 0.0000 0.0000 25.4325 0.0000 0.0000
# 5 0.0000 0.0000 0.0000 0.0000 25.4326 0.0000
# 6 0.0000 0.0000 0.0000 0.0000 0.0000 27.9360
#
#
#
# Elastic Compliance Matrix: (Units=1/GPa)
#
#
# Indices 1 2 3 4 5 6 
#
# 1 0.033777 -0.015567 -0.003070 0.000000 0.000000 0.000000
# 2 -0.015567 0.033779 -0.003070 0.000000 0.000000 0.000000
# 3 -0.003070 -0.003070 0.007353 0.000000 0.000000 0.000000
# 4 0.000000 0.000000 0.000000 0.039320 0.000000 0.000000
# 5 0.000000 0.000000 0.000000 0.000000 0.039320 0.000000
# 6 0.000000 0.000000 0.000000 0.000000 0.000000 0.035796
#
#
# Mechanical properties :
#
#
# Convention : Reuss Voigt Hill
#
# Bulk Modulus (GPa) = 31.75213 43.64912 37.70063
# Shear Modulus (GPa) = 20.55449 26.91174 23.73312
#
# Velocity S-wave (km/s) = 3.01951 3.45504 3.24459
# Velocity P-wave (km/s) = 5.12259 5.93953 5.54612
#
# Compressibility (1/GPa) = 0.03149395
#
# Stress axis : x y z
#
# Youngs Moduli (GPa) = 29.60622 29.60434 136.00497
#
# Poissons Ratio (x) = 0.46086 0.41749
# Poissons Ratio (y) = 0.46089 0.41755
# Poissons Ratio (z) = 0.09088 0.09089
#
# Static dielectric constant tensor:
#      x y z
#    x 1.984100 0.000000 0.000000 
#    y 0.000000 1.984100 0.000000 
#    z 0.000000 0.000000 1.942260 
# 
# From -- ./inp_files/881.got.cif
#   From: 2010.05.17/outbox.cif.g08.bks.cpg/sg118_1_cif.got.tgz:881.got - 2010.05.20 11:17:24.
