data_PCOD9558501
_publ_section_title
;
Structure prediction by ZEFSAII (Michael W. Deem and Ramdas Pophale) SiO2 
 PCOD9558501
Probable space group: P -4 N 2
;
_chemical_formula_sum "Si O2"
_cell_formula_units_Z 48
_cell_length_a 19.793449
_cell_length_b 19.793449
_cell_length_c 5.871414
_cell_angle_alpha 90.000000
_cell_angle_beta 90.000000
_cell_angle_gamma 90.000000
_cell_volume 2300.306237
_symmetry_space_group_name_H-M "P -4 N 2"
_symmetry_group_IT_number 118
_symmetry_cell_setting 'tetragonal'
loop_
_space_group_symop_operation_xyz
x,y,z
y,-x,-z
-x,-y,z
-y,x,-z
1/2+y,1/2+x,1/2-z
1/2-y,1/2-x,1/2-z
1/2-x,1/2+y,1/2+z
1/2+x,1/2-y,1/2+z
loop_
_atom_site_type_symbol
_atom_site_label
_atom_site_fract_x
_atom_site_fract_y
_atom_site_fract_z
Si Si1 0.028938 0.259927 0.969394
Si Si2 0.838828 0.774382 0.219512
Si Si3 0.055131 0.838811 0.267863
Si Si4 0.624313 0.920132 0.000733
Si Si5 0.834040 0.068235 0.405225
Si Si6 0.250024 0.662025 0.363042
O O1 0.050886 0.235443 0.722251
O O2 0.985924 0.194683 0.058616
O O3 0.986478 0.328220 0.987686
O O4 0.096671 0.263660 0.115622
O O5 0.778493 0.721508 0.250000
O O6 0.869822 0.814589 0.430120
O O7 0.809052 0.828595 0.042892
O O8 0.103778 0.903797 0.254669
O O9 0.105290 0.774909 0.313187
O O10 0.998491 0.853005 0.455435
O O11 0.585951 0.914050 0.750000
O O12 0.680910 0.861089 0.981325
O O13 0.587941 0.912060 0.250000
O O14 0.233228 0.733228 0.250000
#
# Coordination Sequence:
#
# PCOD9558501 Si02
#       6
#     8   8   8   8   8   8
#     4  10  24  39  63  92 129 165 212 274 328 395
#     4  11  23  38  63  96 125 165 211 272 343 400
#     4  10  23  39  58  88 124 169 221 255 324 374
#     4  10  23  39  66  96 128 168 219 274 340 405
#     4  11  24  40  65  88 128 173 216 273 318 397
#     4  10  20  36  59  94 127 160 207 277 341 397
#
# _framework density 20.866786000000001
#
# number of rings (size 3 to 8) (size 9 to 14) (size 15 to 20)
#    0.000    1.667    1.667    1.500   14.000    0.333 
#    0.000    0.000    0.000    0.500    0.000    0.000 
#    0.000    0.000    0.000    0.000    0.000    0.000 
#
# Total GULP energy -267238.468939 kJ/mol
# GULP energy per Si atom -5567.468103 kJ/mol
# Density = 2.081929 g / cm^3
# Si number density = 20.866786 Si / 1000 Ang^3
#
#
#
# Elastic Constant Matrix: (Units=GPa)
#
#
# Indices 1 2 3 4 5 6 
#
# 1 53.5367 5.2808 7.4206 0.0000 0.0000 0.0000
# 2 5.2808 53.5332 7.4197 0.0000 0.0000 0.0000
# 3 7.4206 7.4197 63.4594 0.0000 0.0000 0.0000
# 4 0.0000 0.0000 0.0000 21.8488 0.0000 0.0000
# 5 0.0000 0.0000 0.0000 0.0000 21.8481 0.0000
# 6 0.0000 0.0000 0.0000 0.0000 0.0000 21.2832
#
#
#
# Elastic Compliance Matrix: (Units=1/GPa)
#
#
# Indices 1 2 3 4 5 6 
#
# 1 0.019121 -0.001602 -0.002049 0.000000 0.000000 0.000000
# 2 -0.001602 0.019122 -0.002048 0.000000 0.000000 0.000000
# 3 -0.002049 -0.002048 0.016237 0.000000 0.000000 0.000000
# 4 0.000000 0.000000 0.000000 0.045769 0.000000 0.000000
# 5 0.000000 0.000000 0.000000 0.000000 0.045771 0.000000
# 6 0.000000 0.000000 0.000000 0.000000 0.000000 0.046985
#
#
# Mechanical properties :
#
#
# Convention : Reuss Voigt Hill
#
# Bulk Modulus (GPa) = 23.21181 23.41906 23.31544
# Shear Modulus (GPa) = 22.85570 23.02323 22.93946
#
# Velocity S-wave (km/s) = 3.31314 3.32526 3.31921
# Velocity P-wave (km/s) = 5.07778 5.09810 5.08795
#
# Compressibility (1/GPa) = 0.04308151
#
# Stress axis : x y z
#
# Youngs Moduli (GPa) = 52.29915 52.29591 61.58719
#
# Poissons Ratio (x) = 0.08379 0.12616
# Poissons Ratio (y) = 0.08380 0.12615
# Poissons Ratio (z) = 0.10714 0.10712
#
# Static dielectric constant tensor:
#      x y z
#    x 1.766770 0.000000 0.000000 
#    y 0.000000 1.766770 0.000000 
#    z 0.000000 0.000000 1.862050 
# 
# From -- ./inp_files/825.got.cif
#   From: 2010.05.17/outbox.cif.g08.bks.cpg/sg118_1_cif.got.tgz:825.got - 2010.05.20 11:17:24.
