data_PCOD9558524
_publ_section_title
;
Structure prediction by ZEFSAII (Michael W. Deem and Ramdas Pophale) SiO2 
 PCOD9558524
Probable space group: P -4 N 2
;
_chemical_formula_sum "Si O2"
_cell_formula_units_Z 56
_cell_length_a 12.235396
_cell_length_b 12.235396
_cell_length_c 20.430268
_cell_angle_alpha 90.000000
_cell_angle_beta 90.000000
_cell_angle_gamma 90.000000
_cell_volume 3058.511540
_symmetry_space_group_name_H-M "P -4 N 2"
_symmetry_group_IT_number 118
_symmetry_cell_setting 'tetragonal'
loop_
_space_group_symop_operation_xyz
x,y,z
y,-x,-z
-x,-y,z
-y,x,-z
1/2+y,1/2+x,1/2-z
1/2-y,1/2-x,1/2-z
1/2-x,1/2+y,1/2+z
1/2+x,1/2-y,1/2+z
loop_
_atom_site_type_symbol
_atom_site_label
_atom_site_fract_x
_atom_site_fract_y
_atom_site_fract_z
Si Si1 0.509571 0.870063 0.959128
Si Si2 0.626912 0.037289 0.391260
Si Si3 0.888096 0.246065 0.703991
Si Si4 0.770255 0.059009 0.079654
Si Si5 0.307672 0.780638 0.602455
Si Si6 0.628749 0.752903 0.520553
Si Si7 0.586543 0.599201 0.325448
O O1 0.405844 0.830034 0.917778
O O2 0.500000 0.000000 0.956966
O O3 0.501030 0.838553 0.035977
O O4 0.635467 0.843368 0.941812
O O5 0.625233 0.167285 0.394910
O O6 0.500000 0.000000 0.381046
O O7 0.706253 0.988870 0.336819
O O8 0.842677 0.342677 0.750000
O O9 0.792415 0.221120 0.652755
O O10 0.905181 0.142912 0.751444
O O11 0.737378 0.988117 0.015729
O O12 0.805714 0.972414 0.133144
O O13 0.865935 0.143278 0.062969
O O14 0.271766 0.716862 0.536623
O O15 0.402029 0.706888 0.639193
O O16 0.500000 0.500000 0.329348
#
# Coordination Sequence:
#
# PCOD9558524 Si02
#       7
#     8   8   8   8   8   8   8
#     4  11  20  34  57  90 125 155 191 239 298 372
#     4  11  18  35  59  90 119 146 193 246 300 358
#     4  10  21  40  63  81 112 163 206 242 296 365
#     4  11  23  33  57  91 122 153 191 248 311 363
#     4  10  20  38  62  85 118 162 196 237 306 367
#     4  11  20  35  56  93 124 153 189 244 305 367
#     4  10  24  40  58  85 117 155 203 254 298 357
#
# _framework density 18.309560000000001
#
# number of rings (size 3 to 8) (size 9 to 14) (size 15 to 20)
#    0.000    1.429    5.714    1.714    6.000    2.000 
#    2.571    0.000    0.000    3.857    0.000    0.000 
#    0.000    0.000    0.000    0.000    0.000    0.000 
#
# Total GULP energy -312175.170062 kJ/mol
# GULP energy per Si atom -5574.556608 kJ/mol
# Density = 1.826789 g / cm^3
# Si number density = 18.309560 Si / 1000 Ang^3
#
#
#
# Elastic Constant Matrix: (Units=GPa)
#
#
# Indices 1 2 3 4 5 6 
#
# 1 87.8270 21.4886 26.5798 0.0000 0.0000 0.0000
# 2 21.4886 87.8270 26.5798 0.0000 0.0000 0.0000
# 3 26.5798 26.5798 66.1689 0.0000 0.0000 0.0000
# 4 0.0000 0.0000 0.0000 24.8561 0.0000 0.0000
# 5 0.0000 0.0000 0.0000 0.0000 24.8561 0.0000
# 6 0.0000 0.0000 0.0000 0.0000 0.0000 21.8208
#
#
#
# Elastic Compliance Matrix: (Units=1/GPa)
#
#
# Indices 1 2 3 4 5 6 
#
# 1 0.013221 -0.001853 -0.004567 0.000000 0.000000 0.000000
# 2 -0.001853 0.013221 -0.004567 0.000000 0.000000 0.000000
# 3 -0.004567 -0.004567 0.018782 0.000000 0.000000 0.000000
# 4 0.000000 0.000000 0.000000 0.040232 0.000000 0.000000
# 5 0.000000 0.000000 0.000000 0.000000 0.040232 0.000000
# 6 0.000000 0.000000 0.000000 0.000000 0.000000 0.045828
#
#
# Mechanical properties :
#
#
# Convention : Reuss Voigt Hill
#
# Bulk Modulus (GPa) = 43.00705 43.45772 43.23238
# Shear Modulus (GPa) = 24.84611 25.45158 25.14884
#
# Velocity S-wave (km/s) = 3.68775 3.73241 3.71015
# Velocity P-wave (km/s) = 6.45542 6.50853 6.48203
#
# Compressibility (1/GPa) = 0.02325200
#
# Stress axis : x y z
#
# Youngs Moduli (GPa) = 75.63490 75.63490 53.24327
#
# Poissons Ratio (x) = 0.14014 0.24315
# Poissons Ratio (y) = 0.14014 0.24315
# Poissons Ratio (z) = 0.34540 0.34540
#
# Static dielectric constant tensor:
#      x y z
#    x 1.655240 0.000000 0.000000 
#    y 0.000000 1.655240 0.000000 
#    z 0.000000 0.000000 1.649980 
# 
# From -- ./inp_files/5681.got.cif
#   From: 2010.05.17/outbox.cif.g08.bks.cpg/sg118_3_cif.got.tgz:5681.got - 2010.05.20 11:17:24.
