data_PCOD9558267
_publ_section_title
;
Structure prediction by ZEFSAII (Michael W. Deem and Ramdas Pophale) SiO2 
 PCOD9558267
Probable space group: P -4 B 2
;
_chemical_formula_sum "Si O2"
_cell_formula_units_Z 28
_cell_length_a 16.143437
_cell_length_b 16.143437
_cell_length_c 5.083984
_cell_angle_alpha 90.000000
_cell_angle_beta 90.000000
_cell_angle_gamma 90.000000
_cell_volume 1324.939908
_symmetry_space_group_name_H-M "P -4 B 2"
_symmetry_group_IT_number 117
_symmetry_cell_setting 'tetragonal'
loop_
_space_group_symop_operation_xyz
x,y,z
y,-x,-z
-x,-y,z
-y,x,-z
1/2+y,1/2+x,-z
1/2-y,1/2-x,-z
1/2-x,1/2+y,z
1/2+x,1/2-y,z
loop_
_atom_site_type_symbol
_atom_site_label
_atom_site_fract_x
_atom_site_fract_y
_atom_site_fract_z
Si Si1 0.426690 0.311871 0.822365
Si Si2 0.637044 0.862957 0.000000
Si Si3 0.117278 0.464727 0.748340
Si Si4 0.194535 0.960164 0.682713
O O1 0.498980 0.304229 0.605303
O O2 0.366944 0.384188 0.723768
O O3 0.377779 0.225505 0.863795
O O4 0.469752 0.329434 0.102929
O O5 0.563043 0.874368 0.210101
O O6 0.066822 0.433179 0.500000
O O7 0.211389 0.432840 0.739064
O O8 0.071696 0.428305 0.000000
#
# Coordination Sequence:
#
# PCOD9558267 Si02
#       4
#     8   4   8   8
#     4  11  25  45  68  98 138 174 233 276 345 398
#     4  10  25  44  70  98 138 181 222 286 344 416
#     4  11  24  42  67  97 134 171 223 266 337 398
#     4  11  25  44  67 102 132 180 228 276 338 409
#
# _framework density 21.133035
#
# number of rings (size 3 to 8) (size 9 to 14) (size 15 to 20)
#    0.000    1.143    0.000    5.571    2.000   17.143 
#    5.143    0.000    0.000    0.000    0.000    0.000 
#    0.000    0.000    0.000    0.000    0.000    0.000 
#
# Total GULP energy -156753.093618 kJ/mol
# GULP energy per Si atom -5598.324772 kJ/mol
# Density = 2.108493 g / cm^3
# Si number density = 21.133035 Si / 1000 Ang^3
#
#
#
# Elastic Constant Matrix: (Units=GPa)
#
#
# Indices 1 2 3 4 5 6 
#
# 1 102.6411 80.1593 21.0607 0.0000 0.0000 0.0000
# 2 80.1593 102.6397 21.0604 0.0000 0.0000 0.0000
# 3 21.0607 21.0604 111.8162 0.0000 0.0000 0.0000
# 4 0.0000 0.0000 0.0000 9.7502 0.0000 0.0000
# 5 0.0000 0.0000 0.0000 0.0000 9.7584 0.0000
# 6 0.0000 0.0000 0.0000 0.0000 0.0000 38.7494
#
#
#
# Elastic Compliance Matrix: (Units=1/GPa)
#
#
# Indices 1 2 3 4 5 6 
#
# 1 0.025100 -0.019382 -0.001077 0.000000 0.000000 0.000000
# 2 -0.019382 0.025100 -0.001077 0.000000 0.000000 0.000000
# 3 -0.001077 -0.001077 0.009349 0.000000 0.000000 0.000000
# 4 0.000000 0.000000 0.000000 0.102562 0.000000 0.000000
# 5 0.000000 0.000000 0.000000 0.000000 0.102476 0.000000
# 6 0.000000 0.000000 0.000000 0.000000 0.000000 0.025807
#
#
# Mechanical properties :
#
#
# Convention : Reuss Voigt Hill
#
# Bulk Modulus (GPa) = 60.68744 62.40644 61.54694
# Shear Modulus (GPa) = 14.75109 24.63937 19.69523
#
# Velocity S-wave (km/s) = 2.64486 3.41826 3.05612
# Velocity P-wave (km/s) = 6.17302 6.72114 6.45290
#
# Compressibility (1/GPa) = 0.01647787
#
# Stress axis : x y z
#
# Youngs Moduli (GPa) = 39.84060 39.84007 106.96339
#
# Poissons Ratio (x) = 0.77216 0.11521
# Poissons Ratio (y) = 0.77217 0.11521
# Poissons Ratio (z) = 0.04291 0.04291
#
# Static dielectric constant tensor:
#      x y z
#    x 1.754200 0.000000 0.000000 
#    y 0.000000 1.754200 0.000000 
#    z 0.000000 0.000000 1.740610 
# 
# From -- ./inp_files/287.got.cif
#   From: 2010.05.17/outbox.cif.g08.bks.cpg/sg117_1_cif.got.tgz:287.got - 2010.05.20 11:15:09.
