data_PCOD9558220
_publ_section_title
;
Structure prediction by ZEFSAII (Michael W. Deem and Ramdas Pophale) SiO2 
 PCOD9558220
Probable space group: P -4 B 2
;
_chemical_formula_sum "Si O2"
_cell_formula_units_Z 56
_cell_length_a 15.332173
_cell_length_b 15.332173
_cell_length_c 11.461638
_cell_angle_alpha 90.000000
_cell_angle_beta 90.000000
_cell_angle_gamma 90.000000
_cell_volume 2694.350615
_symmetry_space_group_name_H-M "P -4 B 2"
_symmetry_group_IT_number 117
_symmetry_cell_setting 'tetragonal'
loop_
_space_group_symop_operation_xyz
x,y,z
y,-x,-z
-x,-y,z
-y,x,-z
1/2+y,1/2+x,-z
1/2-y,1/2-x,-z
1/2-x,1/2+y,z
1/2+x,1/2-y,z
loop_
_atom_site_type_symbol
_atom_site_label
_atom_site_fract_x
_atom_site_fract_y
_atom_site_fract_z
Si Si1 0.826919 0.177044 0.521659
Si Si2 0.224844 0.498954 0.503042
Si Si3 0.506415 0.862580 0.247661
Si Si4 0.450037 0.314748 0.134483
Si Si5 0.144372 0.484346 0.247454
Si Si6 0.564392 0.429747 0.298079
Si Si7 0.961603 0.824109 0.884811
O O1 0.748998 0.248998 0.500000
O O2 0.913064 0.221166 0.469562
O O3 0.873453 0.141402 0.641313
O O4 0.787382 0.084597 0.482218
O O5 0.164208 0.493367 0.616526
O O6 0.171747 0.499555 0.382583
O O7 0.543239 0.785060 0.169406
O O8 0.410154 0.897270 0.218843
O O9 0.576320 0.938297 0.228758
O O10 0.500608 0.360911 0.239839
O O11 0.356282 0.361319 0.122310
O O12 0.502217 0.330721 0.015095
O O13 0.229967 0.480698 0.168963
O O14 0.500000 0.500000 0.363551
O O15 0.608840 0.485729 0.196471
#
# Coordination Sequence:
#
# PCOD9558220 Si02
#       7
#     8   8   8   8   8   8   8
#     4  12  26  42  69 104 144 185 234 290 350 431
#     4  12  26  42  68 104 142 184 232 287 355 418
#     4  11  25  46  69  96 137 186 232 280 343 415
#     4  11  23  44  72 102 134 178 228 283 345 410
#     4  11  25  46  69  96 137 186 232 280 343 415
#     4  10  22  42  67 101 146 184 224 283 352 419
#     4  11  23  44  72 102 134 178 228 283 345 410
#
# _framework density 20.784230000000001
#
# number of rings (size 3 to 8) (size 9 to 14) (size 15 to 20)
#    0.000    0.857    4.286    2.571    4.000    2.286 
#    5.143    2.857    0.000    0.000    0.000    0.000 
#    0.000    0.000    0.000    0.000    0.000    0.000 
#
# Total GULP energy -312120.198384 kJ/mol
# GULP energy per Si atom -5573.574971 kJ/mol
# Density = 2.073692 g / cm^3
# Si number density = 20.784230 Si / 1000 Ang^3
#
#
#
# Elastic Constant Matrix: (Units=GPa)
#
#
# Indices 1 2 3 4 5 6 
#
# 1 114.0600 45.8033 13.2335 0.0000 0.0000 0.0000
# 2 45.8033 114.0600 13.2335 0.0000 0.0000 0.0000
# 3 13.2335 13.2335 58.4136 0.0000 0.0000 0.0000
# 4 0.0000 0.0000 0.0000 -44.8467 0.0000 0.0000
# 5 0.0000 0.0000 0.0000 0.0000 -44.8467 0.0000
# 6 0.0000 0.0000 0.0000 0.0000 0.0000 5.7337
#
#
#
# Elastic Compliance Matrix: (Units=1/GPa)
#
#
# Indices 1 2 3 4 5 6 
#
# 1 0.010575 -0.004076 -0.001472 0.000000 0.000000 0.000000
# 2 -0.004076 0.010575 -0.001472 0.000000 0.000000 0.000000
# 3 -0.001472 -0.001472 0.017786 0.000000 0.000000 0.000000
# 4 0.000000 0.000000 0.000000 -0.022298 0.000000 0.000000
# 5 0.000000 0.000000 0.000000 0.000000 -0.022298 0.000000
# 6 0.000000 0.000000 0.000000 0.000000 0.000000 0.174408
#
#
# Mechanical properties :
#
#
# Convention : Reuss Voigt Hill
#
# Bulk Modulus (GPa) = 40.16839 47.89714 44.03277
# Shear Modulus (GPa) = 26.16613 -2.50773 11.82920
#
# Velocity S-wave (km/s) = 3.55201 -1.09962 2.38826
# Velocity P-wave (km/s) = 6.01587 4.63495 5.36998
#
# Compressibility (1/GPa) = 0.02489520
#
# Stress axis : x y z
#
# Youngs Moduli (GPa) = 94.56406 94.56406 56.22263
#
# Poissons Ratio (x) = 0.38542 0.08278
# Poissons Ratio (y) = 0.38542 0.08278
# Poissons Ratio (z) = 0.13923 0.13923
#
# Static dielectric constant tensor:
#      x y z
#    x 1.811350 0.000000 0.000000 
#    y 0.000000 1.811350 0.000000 
#    z 0.000000 0.000000 1.782070 
# 
# From -- ./inp_files/2879.got.cif
#   From: 2010.05.17/outbox.cif.g08.bks.cpg/sg117_2_cif.got.tgz:2879.got - 2010.05.20 11:15:09.
