data_PCOD9558775
_publ_section_title
;
Structure prediction by ZEFSAII (Michael W. Deem and Ramdas Pophale) SiO2 
 PCOD9558775
Probable space group: P -4 N 2
;
_chemical_formula_sum "Si O2"
_cell_formula_units_Z 56
_cell_length_a 14.299864
_cell_length_b 14.299864
_cell_length_c 13.213661
_cell_angle_alpha 90.000000
_cell_angle_beta 90.000000
_cell_angle_gamma 90.000000
_cell_volume 2702.010142
_symmetry_space_group_name_H-M "P -4 N 2"
_symmetry_group_IT_number 118
_symmetry_cell_setting 'tetragonal'
loop_
_space_group_symop_operation_xyz
x,y,z
y,-x,-z
-x,-y,z
-y,x,-z
1/2+y,1/2+x,1/2-z
1/2-y,1/2-x,1/2-z
1/2-x,1/2+y,1/2+z
1/2+x,1/2-y,1/2+z
loop_
_atom_site_type_symbol
_atom_site_label
_atom_site_fract_x
_atom_site_fract_y
_atom_site_fract_z
Si Si1 0.048016 0.314315 0.446466
Si Si2 0.281991 0.834923 0.362524
Si Si3 0.125762 0.953407 0.270586
Si Si4 0.860925 0.058454 0.033349
Si Si5 0.937969 0.707687 0.120955
Si Si6 0.836636 0.345754 0.372291
Si Si7 0.149958 0.928729 0.694436
O O1 0.095955 0.330229 0.556084
O O2 0.108910 0.385425 0.377584
O O3 0.070137 0.208969 0.408143
O O4 0.937239 0.327236 0.425790
O O5 0.327960 0.827960 0.250000
O O6 0.187142 0.889541 0.340312
O O7 0.242682 0.732225 0.395843
O O8 0.151228 0.944238 0.152967
O O9 0.024208 0.906019 0.282133
O O10 0.139680 0.061568 0.301638
O O11 0.770906 0.092838 0.973827
O O12 0.953067 0.115942 0.003503
O O13 0.918031 0.773314 0.217523
O O14 0.048177 0.692172 0.106580
O O15 0.844201 0.344201 0.250000
#
# Coordination Sequence:
#
# PCOD9558775 Si02
#       7
#     8   8   8   8   8   8   8
#     4  12  26  41  65 101 134 186 238 287 354 428
#     4  11  25  45  67  93 141 192 238 283 352 434
#     4  11  21  39  64  92 137 172 222 290 354 417
#     4  11  20  36  63  95 127 170 219 274 350 429
#     4  12  23  39  66  97 140 169 229 295 350 414
#     4  11  24  44  68  97 137 184 234 293 361 426
#     4  11  21  37  63 100 128 172 222 294 355 410
#
# _framework density 20.725311000000001
#
# number of rings (size 3 to 8) (size 9 to 14) (size 15 to 20)
#    0.000    0.714    5.714    3.429    4.000    0.571 
#    0.000    1.429    0.000    5.143    0.000    0.000 
#    0.000    0.000    0.000    0.000    0.000    0.000 
#
# Total GULP energy -312472.390144 kJ/mol
# GULP energy per Si atom -5579.864110 kJ/mol
# Density = 2.067814 g / cm^3
# Si number density = 20.725311 Si / 1000 Ang^3
#
#
#
# Elastic Constant Matrix: (Units=GPa)
#
#
# Indices 1 2 3 4 5 6 
#
# 1 77.3161 8.5469 26.0441 0.0000 0.0000 0.0000
# 2 8.5469 77.3161 26.0441 0.0000 0.0000 0.0000
# 3 26.0441 26.0441 78.7154 0.0000 0.0000 0.0000
# 4 0.0000 0.0000 0.0000 26.4003 0.0000 0.0000
# 5 0.0000 0.0000 0.0000 0.0000 26.4003 0.0000
# 6 0.0000 0.0000 0.0000 0.0000 0.0000 4.0325
#
#
#
# Elastic Compliance Matrix: (Units=1/GPa)
#
#
# Indices 1 2 3 4 5 6 
#
# 1 0.014556 0.000015 -0.004821 0.000000 0.000000 0.000000
# 2 0.000015 0.014556 -0.004821 0.000000 0.000000 0.000000
# 3 -0.004821 -0.004821 0.015894 0.000000 0.000000 0.000000
# 4 0.000000 0.000000 0.000000 0.037878 0.000000 0.000000
# 5 0.000000 0.000000 0.000000 0.000000 0.037878 0.000000
# 6 0.000000 0.000000 0.000000 0.000000 0.000000 0.247984
#
#
# Mechanical properties :
#
#
# Convention : Reuss Voigt Hill
#
# Bulk Modulus (GPa) = 38.83161 39.40199 39.11680
# Shear Modulus (GPa) = 12.60760 22.88078 17.74419
#
# Velocity S-wave (km/s) = 2.46909 3.32626 2.92920
# Velocity P-wave (km/s) = 5.18705 5.81419 5.50955
#
# Compressibility (1/GPa) = 0.02575222
#
# Stress axis : x y z
#
# Youngs Moduli (GPa) = 68.69898 68.69898 62.91584
#
# Poissons Ratio (x) = -0.00102 0.30332
# Poissons Ratio (y) = -0.00102 0.30332
# Poissons Ratio (z) = 0.33120 0.33120
#
# Static dielectric constant tensor:
#      x y z
#    x 1.788760 0.000000 0.000000 
#    y 0.000000 1.788760 0.000000 
#    z 0.000000 0.000000 1.828940 
# 
# From -- ./inp_files/3448.got.cif
#   From: 2010.05.17/outbox.cif.g08.bks.cpg/sg118_2_cif.got.tgz:3448.got - 2010.05.20 11:17:24.
