data_PCOD9558593
_publ_section_title
;
Structure prediction by ZEFSAII (Michael W. Deem and Ramdas Pophale) SiO2 
 PCOD9558593
Probable space group: P -4 N 2
;
_chemical_formula_sum "Si O2"
_cell_formula_units_Z 44
_cell_length_a 7.965867
_cell_length_b 7.965867
_cell_length_c 28.223513
_cell_angle_alpha 90.000000
_cell_angle_beta 90.000000
_cell_angle_gamma 90.000000
_cell_volume 1790.924063
_symmetry_space_group_name_H-M "P -4 N 2"
_symmetry_group_IT_number 118
_symmetry_cell_setting 'tetragonal'
loop_
_space_group_symop_operation_xyz
x,y,z
y,-x,-z
-x,-y,z
-y,x,-z
1/2+y,1/2+x,1/2-z
1/2-y,1/2-x,1/2-z
1/2-x,1/2+y,1/2+z
1/2+x,1/2-y,1/2+z
loop_
_atom_site_type_symbol
_atom_site_label
_atom_site_fract_x
_atom_site_fract_y
_atom_site_fract_z
Si Si1 0.243189 0.109376 0.400771
Si Si2 0.750128 0.402569 0.515159
Si Si3 0.885634 0.253036 0.427679
Si Si4 0.500000 0.500000 0.724391
Si Si5 0.715711 0.892761 0.834680
Si Si6 0.226987 0.885037 0.692618
O O1 0.392037 0.192695 0.430583
O O2 0.231673 0.127459 0.344409
O O3 0.076580 0.214207 0.414674
O O4 0.211675 0.921044 0.418431
O O5 0.584824 0.294392 0.503802
O O6 0.884653 0.317298 0.480937
O O7 0.800738 0.385633 0.391461
O O8 0.376844 0.395311 0.689901
O O9 0.394871 0.624161 0.758776
O O10 0.585195 0.748036 0.819176
O O11 0.662360 0.077029 0.815402
#
# Coordination Sequence:
#
# PCOD9558593 Si02
#       6
#     8   8   8   4   8   8
#     4  10  21  39  64  91 121 158 206 264 322 383
#     4  11  24  39  58  88 127 168 208 253 315 389
#     4  10  21  39  62  92 123 158 207 265 323 382
#     4  12  22  36  62  92 124 164 216 268 318 376
#     4  10  22  39  63  90 121 162 211 263 317 378
#     4  10  21  40  63  89 121 163 212 262 317 376
#
# _framework density 24.56832
#
# number of rings (size 3 to 8) (size 9 to 14) (size 15 to 20)
#    0.000    1.636    0.000    5.455    0.000   10.182 
#    0.000    0.000    0.000   17.455    0.000    0.000 
#    0.000    0.000    0.000    0.000    0.000    0.000 
#
# Total GULP energy -245809.650352 kJ/mol
# GULP energy per Si atom -5586.582963 kJ/mol
# Density = 2.451240 g / cm^3
# Si number density = 24.568320 Si / 1000 Ang^3
#
#
#
# Elastic Constant Matrix: (Units=GPa)
#
#
# Indices 1 2 3 4 5 6 
#
# 1 77.5447 11.4792 30.9335 0.0000 0.0000 0.0000
# 2 11.4792 77.5447 30.9335 0.0000 0.0000 0.0000
# 3 30.9335 30.9335 122.8500 0.0000 0.0000 0.0000
# 4 0.0000 0.0000 0.0000 36.4236 0.0000 0.0000
# 5 0.0000 0.0000 0.0000 0.0000 36.4236 0.0000
# 6 0.0000 0.0000 0.0000 0.0000 0.0000 20.3683
#
#
#
# Elastic Compliance Matrix: (Units=1/GPa)
#
#
# Indices 1 2 3 4 5 6 
#
# 1 0.014376 -0.000761 -0.003428 0.000000 0.000000 0.000000
# 2 -0.000761 0.014376 -0.003428 0.000000 0.000000 0.000000
# 3 -0.003428 -0.003428 0.009867 0.000000 0.000000 0.000000
# 4 0.000000 0.000000 0.000000 0.027455 0.000000 0.000000
# 5 0.000000 0.000000 0.000000 0.000000 0.027455 0.000000
# 6 0.000000 0.000000 0.000000 0.000000 0.000000 0.049096
#
#
# Mechanical properties :
#
#
# Convention : Reuss Voigt Hill
#
# Bulk Modulus (GPa) = 42.76425 47.18131 44.97278
# Shear Modulus (GPa) = 30.18358 32.28266 31.23312
#
# Velocity S-wave (km/s) = 3.50888 3.62884 3.56936
# Velocity P-wave (km/s) = 5.81897 6.06661 5.94408
#
# Compressibility (1/GPa) = 0.02338402
#
# Stress axis : x y z
#
# Youngs Moduli (GPa) = 69.56051 69.56051 101.35290
#
# Poissons Ratio (x) = 0.05290 0.34747
# Poissons Ratio (y) = 0.05290 0.34747
# Poissons Ratio (z) = 0.23848 0.23848
#
# Static dielectric constant tensor:
#      x y z
#    x 2.003510 0.000000 0.000000 
#    y 0.000000 2.003510 0.000000 
#    z 0.000000 0.000000 1.994910 
# 
# From -- ./inp_files/6754.got.cif
#   From: 2010.05.17/outbox.cif.g08.bks.cpg/sg118_4_cif.got.tgz:6754.got - 2010.05.20 11:17:24.
