data_PCOD9558829
_publ_section_title
;
Structure prediction by ZEFSAII (Michael W. Deem and Ramdas Pophale) SiO2 
 PCOD9558829
Probable space group: P -4 N 2
;
_chemical_formula_sum "Si O2"
_cell_formula_units_Z 24
_cell_length_a 7.842561
_cell_length_b 7.842561
_cell_length_c 17.415987
_cell_angle_alpha 90.000000
_cell_angle_beta 90.000000
_cell_angle_gamma 90.000000
_cell_volume 1071.183570
_symmetry_space_group_name_H-M "P -4 N 2"
_symmetry_group_IT_number 118
_symmetry_cell_setting 'tetragonal'
loop_
_space_group_symop_operation_xyz
x,y,z
y,-x,-z
-x,-y,z
-y,x,-z
1/2+y,1/2+x,1/2-z
1/2-y,1/2-x,1/2-z
1/2-x,1/2+y,1/2+z
1/2+x,1/2-y,1/2+z
loop_
_atom_site_type_symbol
_atom_site_label
_atom_site_fract_x
_atom_site_fract_y
_atom_site_fract_z
Si Si1 0.062305 0.821080 0.615071
Si Si2 0.220930 0.595461 0.170673
Si Si3 0.766246 0.400267 0.489618
O O1 0.112227 0.679438 0.554701
O O2 0.897220 0.792435 0.667580
O O3 0.221111 0.897997 0.662131
O O4 0.000000 0.000000 0.576353
O O5 0.131589 0.631589 0.250000
O O6 0.121084 0.652435 0.094340
O O7 0.593099 0.288221 0.493318
#
# Coordination Sequence:
#
# PCOD9558829 Si02
#       3
#     8   8   8
#     4   8  21  39  63  85 120 162 212 240 317 367
#     4   9  20  39  62  88 121 155 207 257 307 371
#     4  11  23  38  61  91 124 160 210 253 302 374
#
# _framework density 22.405125000000002
#
# number of rings (size 3 to 8) (size 9 to 14) (size 15 to 20)
#    2.000    0.333    0.000    2.000    4.667   10.667 
#    0.000   10.000    0.000    0.000    0.000    0.000 
#    0.000    0.000    0.000    0.000    0.000    0.000 
#
# Total GULP energy -133784.428964 kJ/mol
# GULP energy per Si atom -5574.351207 kJ/mol
# Density = 2.235413 g / cm^3
# Si number density = 22.405125 Si / 1000 Ang^3
#
#
#
# Elastic Constant Matrix: (Units=GPa)
#
#
# Indices 1 2 3 4 5 6 
#
# 1 95.1560 40.9470 47.7339 0.0000 0.0000 0.0000
# 2 40.9470 95.1560 47.7339 0.0000 0.0000 0.0000
# 3 47.7339 47.7339 158.7911 0.0000 0.0000 0.0000
# 4 0.0000 0.0000 0.0000 -25.9526 0.0000 0.0000
# 5 0.0000 0.0000 0.0000 0.0000 -25.9526 0.0000
# 6 0.0000 0.0000 0.0000 0.0000 0.0000 38.8824
#
#
#
# Elastic Compliance Matrix: (Units=1/GPa)
#
#
# Indices 1 2 3 4 5 6 
#
# 1 0.013879 -0.004568 -0.002799 0.000000 0.000000 0.000000
# 2 -0.004568 0.013879 -0.002799 0.000000 0.000000 0.000000
# 3 -0.002799 -0.002799 0.007980 0.000000 0.000000 0.000000
# 4 0.000000 0.000000 0.000000 -0.038532 0.000000 0.000000
# 5 0.000000 0.000000 0.000000 0.000000 -0.038532 0.000000
# 6 0.000000 0.000000 0.000000 0.000000 0.000000 0.025719
#
#
# Mechanical properties :
#
#
# Convention : Reuss Voigt Hill
#
# Bulk Modulus (GPa) = 64.90933 69.10366 67.00650
# Shear Modulus (GPa) = 507.08633 11.57466 259.33049
#
# Velocity S-wave (km/s) = 15.06046 2.27537 10.77021
# Velocity P-wave (km/s) = 18.20596 6.14921 13.58804
#
# Compressibility (1/GPa) = 0.01540611
#
# Stress axis : x y z
#
# Youngs Moduli (GPa) = 72.05203 72.05203 125.30868
#
# Poissons Ratio (x) = 0.32915 0.35072
# Poissons Ratio (y) = 0.32915 0.35072
# Poissons Ratio (z) = 0.20166 0.20166
#
# Static dielectric constant tensor:
#      x y z
#    x 1.965050 0.000000 0.000000 
#    y 0.000000 1.965050 0.000000 
#    z 0.000000 0.000000 1.765660 
# 
# From -- ./inp_files/3721.got.cif
#   From: 2010.05.17/outbox.cif.g08.bks.cpg/sg118_2_cif.got.tgz:3721.got - 2010.05.20 11:17:24.
