data_PCOD9558010
_publ_section_title
;
Structure prediction by ZEFSAII (Michael W. Deem and Ramdas Pophale) SiO2 
 PCOD9558010
Probable space group: P -4 C 2
;
_chemical_formula_sum "Si O2"
_cell_formula_units_Z 22
_cell_length_a 5.237023
_cell_length_b 5.237023
_cell_length_c 32.048682
_cell_angle_alpha 90.000000
_cell_angle_beta 90.000000
_cell_angle_gamma 90.000000
_cell_volume 878.980289
_symmetry_space_group_name_H-M "P -4 C 2"
_symmetry_group_IT_number 116
_symmetry_cell_setting 'tetragonal'
loop_
_space_group_symop_operation_xyz
x,y,z
y,-x,-z
-x,-y,z
-y,x,-z
y,x,1/2-z
-y,-x,1/2-z
-x,y,1/2+z
x,-y,1/2+z
loop_
_atom_site_type_symbol
_atom_site_label
_atom_site_fract_x
_atom_site_fract_y
_atom_site_fract_z
Si Si1 0.170367 0.256648 0.703142
Si Si2 0.500000 0.000000 0.138137
Si Si3 0.247394 0.673146 0.570284
Si Si4 0.000000 0.000000 0.000000
O O1 0.279549 0.279549 0.750000
O O2 0.381970 0.211189 0.668449
O O3 0.000000 0.500000 0.694150
O O4 0.000000 0.000000 0.702636
O O5 0.296051 0.132049 0.108017
O O6 0.500000 0.500000 0.565816
O O7 0.000000 0.500000 0.578016
O O8 0.188324 0.838729 0.529283
#
# Coordination Sequence:
#
# PCOD9558010 Si02
#       4
#     8   4   8   2
#     4  11  27  52  85 126 175 235 298 361 439 521
#     4  12  30  52  86 130 182 226 302 368 442 532
#     4  12  32  54  88 130 176 233 296 366 452 534
#     4  12  32  56  84 128 174 232 292 372 444 548
#
# _framework density 25.029007
#
# number of rings (size 3 to 8) (size 9 to 14) (size 15 to 20)
#    0.000    0.364    1.818    2.182   20.364    0.000 
#    0.000    0.000    0.000    0.000    0.000    0.000 
#    0.000    0.000    0.000    0.000    0.000    0.000 
#
# Total GULP energy -123738.730337 kJ/mol
# GULP energy per Si atom -5624.487743 kJ/mol
# Density = 2.497204 g / cm^3
# Si number density = 25.029007 Si / 1000 Ang^3
#
#
#
# Elastic Constant Matrix: (Units=GPa)
#
#
# Indices 1 2 3 4 5 6 
#
# 1 168.6625 85.6643 84.0061 0.0000 0.0000 0.0000
# 2 85.6643 168.6625 84.0061 0.0000 0.0000 0.0000
# 3 84.0061 84.0061 218.4870 0.0000 0.0000 0.0000
# 4 0.0000 0.0000 0.0000 -94.9268 0.0000 0.0000
# 5 0.0000 0.0000 0.0000 0.0000 -94.9268 0.0000
# 6 0.0000 0.0000 0.0000 0.0000 0.0000 78.8066
#
#
#
# Elastic Compliance Matrix: (Units=1/GPa)
#
#
# Indices 1 2 3 4 5 6 
#
# 1 0.008660 -0.003389 -0.002027 0.000000 0.000000 0.000000
# 2 -0.003389 0.008660 -0.002027 0.000000 0.000000 0.000000
# 3 -0.002027 -0.002027 0.006135 0.000000 0.000000 0.000000
# 4 0.000000 0.000000 0.000000 -0.010534 0.000000 0.000000
# 5 0.000000 0.000000 0.000000 0.000000 -0.010534 0.000000
# 6 0.000000 0.000000 0.000000 0.000000 0.000000 0.012689
#
#
# Mechanical properties :
#
#
# Convention : Reuss Voigt Hill
#
# Bulk Modulus (GPa) = 116.67832 118.12945 117.40388
# Shear Modulus (GPa) = 152.36637 -2.06704 75.14966
#
# Velocity S-wave (km/s) = 7.81077 -0.90975 5.48545
# Velocity P-wave (km/s) = 11.31647 6.79676 9.33430
#
# Compressibility (1/GPa) = 0.00857057
#
# Stress axis : x y z
#
# Youngs Moduli (GPa) = 115.47902 115.47902 162.99132
#
# Poissons Ratio (x) = 0.39134 0.33031
# Poissons Ratio (y) = 0.39134 0.33031
# Poissons Ratio (z) = 0.23402 0.23402
#
# Static dielectric constant tensor:
#      x y z
#    x 1.902220 0.000000 0.000000 
#    y 0.000000 1.902220 0.000000 
#    z 0.000000 0.000000 1.936670 
# 
# From -- ./inp_files/5035.got.cif
#   From: 2010.05.17/outbox.cif.g08.bks.cpg/sg116_3_cif.got.tgz:5035.got - 2010.05.20 11:11:43.
