data_PCOD9558652
_publ_section_title
;
Structure prediction by ZEFSAII (Michael W. Deem and Ramdas Pophale) SiO2 
 PCOD9558652
Probable space group: P -4 N 2
;
_chemical_formula_sum "Si O2"
_cell_formula_units_Z 56
_cell_length_a 14.109097
_cell_length_b 14.109097
_cell_length_c 13.162486
_cell_angle_alpha 90.000000
_cell_angle_beta 90.000000
_cell_angle_gamma 90.000000
_cell_volume 2620.211575
_symmetry_space_group_name_H-M "P -4 N 2"
_symmetry_group_IT_number 118
_symmetry_cell_setting 'tetragonal'
loop_
_space_group_symop_operation_xyz
x,y,z
y,-x,-z
-x,-y,z
-y,x,-z
1/2+y,1/2+x,1/2-z
1/2-y,1/2-x,1/2-z
1/2-x,1/2+y,1/2+z
1/2+x,1/2-y,1/2+z
loop_
_atom_site_type_symbol
_atom_site_label
_atom_site_fract_x
_atom_site_fract_y
_atom_site_fract_z
Si Si1 0.349399 0.695665 0.777142
Si Si2 0.055182 0.313466 0.442367
Si Si3 0.295393 0.957204 0.902024
Si Si4 0.668790 0.841704 0.627796
Si Si5 0.851491 0.729517 0.645493
Si Si6 0.443494 0.633523 0.457422
Si Si7 0.109148 0.980229 0.272047
O O1 0.254227 0.754227 0.750000
O O2 0.388967 0.727714 0.886774
O O3 0.426838 0.732881 0.695113
O O4 0.341399 0.583225 0.770218
O O5 0.103894 0.405823 0.392303
O O6 0.083602 0.319160 0.560298
O O7 0.944914 0.307266 0.416756
O O8 0.309520 0.067836 0.912780
O O9 0.236547 0.921718 0.999627
O O10 0.656520 0.843480 0.750000
O O11 0.749802 0.765390 0.605784
O O12 0.829085 0.670916 0.750000
O O13 0.907771 0.827936 0.665148
O O14 0.553861 0.613372 0.482012
O O15 0.434183 0.612514 0.339661
O O16 0.000000 0.000000 0.301845
#
# Coordination Sequence:
#
# PCOD9558652 Si02
#       7
#     8   8   8   8   8   8   8
#     4  10  22  39  65 100 133 167 222 297 346 400
#     4  11  24  44  64  98 136 182 227 287 350 429
#     4  11  22  38  68  99 132 164 225 294 359 404
#     4  11  24  42  70  99 135 180 235 293 352 412
#     4  11  28  45  67  96 146 192 234 284 357 437
#     4  11  21  35  63  96 126 161 214 280 345 406
#     4  12  23  42  66  94 134 179 231 285 341 421
#
# _framework density 21.372319999999998
#
# number of rings (size 3 to 8) (size 9 to 14) (size 15 to 20)
#    0.000    1.000    4.286    2.143   10.000    0.571 
#    0.000    0.000    0.000    0.000    0.000    0.000 
#    0.000    0.000    0.000    0.000    0.000    0.000 
#
# Total GULP energy -313030.222804 kJ/mol
# GULP energy per Si atom -5589.825407 kJ/mol
# Density = 2.132368 g / cm^3
# Si number density = 21.372320 Si / 1000 Ang^3
#
#
#
# Elastic Constant Matrix: (Units=GPa)
#
#
# Indices 1 2 3 4 5 6 
#
# 1 82.3186 12.5419 21.9453 0.0000 0.0000 0.0000
# 2 12.5419 82.3186 21.9451 0.0000 0.0000 0.0000
# 3 21.9453 21.9451 64.7557 0.0000 0.0000 0.0000
# 4 0.0000 0.0000 0.0000 27.7701 0.0000 0.0000
# 5 0.0000 0.0000 0.0000 0.0000 27.7700 0.0000
# 6 0.0000 0.0000 0.0000 0.0000 0.0000 20.4755
#
#
#
# Elastic Compliance Matrix: (Units=1/GPa)
#
#
# Indices 1 2 3 4 5 6 
#
# 1 0.013417 -0.000915 -0.004237 0.000000 0.000000 0.000000
# 2 -0.000915 0.013417 -0.004237 0.000000 0.000000 0.000000
# 3 -0.004237 -0.004237 0.018314 0.000000 0.000000 0.000000
# 4 0.000000 0.000000 0.000000 0.036010 0.000000 0.000000
# 5 0.000000 0.000000 0.000000 0.000000 0.036010 0.000000
# 6 0.000000 0.000000 0.000000 0.000000 0.000000 0.048839
#
#
# Mechanical properties :
#
#
# Convention : Reuss Voigt Hill
#
# Bulk Modulus (GPa) = 37.92029 38.02861 37.97445
# Shear Modulus (GPa) = 25.82991 26.73382 26.28187
#
# Velocity S-wave (km/s) = 3.48022 3.54059 3.51053
# Velocity P-wave (km/s) = 5.82499 5.87762 5.85136
#
# Compressibility (1/GPa) = 0.02637111
#
# Stress axis : x y z
#
# Youngs Moduli (GPa) = 74.53340 74.53365 54.60199
#
# Poissons Ratio (x) = 0.06817 0.23134
# Poissons Ratio (y) = 0.06817 0.23134
# Poissons Ratio (z) = 0.31579 0.31579
#
# Static dielectric constant tensor:
#      x y z
#    x 1.775930 0.000000 0.000000 
#    y 0.000000 1.775930 0.000000 
#    z 0.000000 0.000000 1.845350 
# 
# From -- ./inp_files/3419.got.cif
#   From: 2010.05.17/outbox.cif.g08.bks.cpg/sg118_2_cif.got.tgz:3419.got - 2010.05.20 11:17:24.
