data_PCOD9558173
_publ_section_title
;
Structure prediction by ZEFSAII (Michael W. Deem and Ramdas Pophale) SiO2 
 PCOD9558173
Probable space group: P -4 B 2
;
_chemical_formula_sum "Si O2"
_cell_formula_units_Z 56
_cell_length_a 14.760212
_cell_length_b 14.760212
_cell_length_c 11.445543
_cell_angle_alpha 90.000000
_cell_angle_beta 90.000000
_cell_angle_gamma 90.000000
_cell_volume 2493.570158
_symmetry_space_group_name_H-M "P -4 B 2"
_symmetry_group_IT_number 117
_symmetry_cell_setting 'tetragonal'
loop_
_space_group_symop_operation_xyz
x,y,z
y,-x,-z
-x,-y,z
-y,x,-z
1/2+y,1/2+x,-z
1/2-y,1/2-x,-z
1/2-x,1/2+y,z
1/2+x,1/2-y,z
loop_
_atom_site_type_symbol
_atom_site_label
_atom_site_fract_x
_atom_site_fract_y
_atom_site_fract_z
Si Si1 0.820500 0.920136 0.649739
Si Si2 0.149435 0.225439 0.078147
Si Si3 0.255093 0.595003 0.249807
Si Si4 0.408724 0.688535 0.834930
Si Si5 0.845175 0.617899 0.722812
Si Si6 0.103752 0.567426 0.635437
Si Si7 0.119199 0.181113 0.434630
O O1 0.847766 0.888858 0.777850
O O2 0.712890 0.917709 0.632370
O O3 0.868871 0.845496 0.567822
O O4 0.849603 0.020451 0.610449
O O5 0.225479 0.170177 0.150408
O O6 0.088085 0.273271 0.176304
O O7 0.200522 0.299479 0.000000
O O8 0.095494 0.177851 0.974613
O O9 0.313846 0.511193 0.206559
O O10 0.151552 0.572652 0.283012
O O11 0.300744 0.629740 0.368064
O O12 0.379044 0.787273 0.777970
O O13 0.908501 0.533153 0.690459
O O14 0.784432 0.630878 0.607023
O O15 0.072923 0.572923 0.500000
#
# Coordination Sequence:
#
# PCOD9558173 Si02
#       7
#     8   8   8   8   8   8   8
#     4  11  22  37  63  88 128 169 223 267 336 390
#     4   9  20  42  64  86 119 166 219 267 320 392
#     4  11  23  39  62  92 131 163 220 271 331 406
#     4  11  24  39  63  97 127 175 217 269 345 397
#     4   9  22  41  63  88 128 165 215 272 329 393
#     4  11  22  40  65  97 130 172 224 271 336 404
#     4  10  21  39  58  87 123 169 210 282 318 394
#
# _framework density 22.457757999999998
#
# number of rings (size 3 to 8) (size 9 to 14) (size 15 to 20)
#    0.000    1.714    1.429    3.429    2.000    7.143 
#    0.000    0.714    0.000    2.571    0.000    0.000 
#    0.000    0.000    0.000    0.000    0.000    0.000 
#
# Total GULP energy -312490.688360 kJ/mol
# GULP energy per Si atom -5580.190864 kJ/mol
# Density = 2.240664 g / cm^3
# Si number density = 22.457758 Si / 1000 Ang^3
#
#
#
# Elastic Constant Matrix: (Units=GPa)
#
#
# Indices 1 2 3 4 5 6 
#
# 1 76.6529 6.1163 25.5587 0.0000 0.0000 0.0000
# 2 6.1163 76.6531 25.5585 0.0000 0.0000 0.0000
# 3 25.5587 25.5585 117.9318 0.0000 0.0000 0.0000
# 4 0.0000 0.0000 0.0000 8.3879 0.0000 0.0000
# 5 0.0000 0.0000 0.0000 0.0000 8.3888 0.0000
# 6 0.0000 0.0000 0.0000 0.0000 0.0000 36.6506
#
#
#
# Elastic Compliance Matrix: (Units=1/GPa)
#
#
# Indices 1 2 3 4 5 6 
#
# 1 0.014063 -0.000114 -0.003023 0.000000 0.000000 0.000000
# 2 -0.000114 0.014063 -0.003023 0.000000 0.000000 0.000000
# 3 -0.003023 -0.003023 0.009790 0.000000 0.000000 0.000000
# 4 0.000000 0.000000 0.000000 0.119220 0.000000 0.000000
# 5 0.000000 0.000000 0.000000 0.000000 0.119207 0.000000
# 6 0.000000 0.000000 0.000000 0.000000 0.000000 0.027285
#
#
# Mechanical properties :
#
#
# Convention : Reuss Voigt Hill
#
# Bulk Modulus (GPa) = 39.06983 42.85610 40.96296
# Shear Modulus (GPa) = 15.40933 24.95242 20.18087
#
# Velocity S-wave (km/s) = 2.62228 3.33691 3.00094
# Velocity P-wave (km/s) = 5.15784 5.82846 5.50338
#
# Compressibility (1/GPa) = 0.02559520
#
# Stress axis : x y z
#
# Youngs Moduli (GPa) = 71.10906 71.10933 102.14716
#
# Poissons Ratio (x) = 0.00812 0.30879
# Poissons Ratio (y) = 0.00812 0.30879
# Poissons Ratio (z) = 0.21497 0.21496
#
# Static dielectric constant tensor:
#      x y z
#    x 1.899420 0.000000 0.000000 
#    y 0.000000 1.899420 0.000000 
#    z 0.000000 0.000000 1.858350 
# 
# From -- ./inp_files/2844.got.cif
#   From: 2010.05.17/outbox.cif.g08.bks.cpg/sg117_2_cif.got.tgz:2844.got - 2010.05.20 11:15:09.
