data_PCOD9558255
_publ_section_title
;
Structure prediction by ZEFSAII (Michael W. Deem and Ramdas Pophale) SiO2 
 PCOD9558255
Probable space group: P -4 B 2
;
_chemical_formula_sum "Si O2"
_cell_formula_units_Z 32
_cell_length_a 10.426864
_cell_length_b 10.426864
_cell_length_c 13.804132
_cell_angle_alpha 90.000000
_cell_angle_beta 90.000000
_cell_angle_gamma 90.000000
_cell_volume 1500.778231
_symmetry_space_group_name_H-M "P -4 B 2"
_symmetry_group_IT_number 117
_symmetry_cell_setting 'tetragonal'
loop_
_space_group_symop_operation_xyz
x,y,z
y,-x,-z
-x,-y,z
-y,x,-z
1/2+y,1/2+x,-z
1/2-y,1/2-x,-z
1/2-x,1/2+y,z
1/2+x,1/2-y,z
loop_
_atom_site_type_symbol
_atom_site_label
_atom_site_fract_x
_atom_site_fract_y
_atom_site_fract_z
Si Si1 0.392719 0.755021 0.220686
Si Si2 0.500000 0.500000 0.000000
Si Si3 0.500000 0.000000 0.325925
Si Si4 0.953019 0.218671 0.649721
Si Si5 0.382555 0.653388 0.841943
Si Si6 0.500000 0.500000 0.500000
O O1 0.328413 0.685970 0.313958
O O2 0.512873 0.676613 0.178950
O O3 0.272815 0.785026 0.150102
O O4 0.459562 0.883095 0.258120
O O5 0.624575 0.531077 0.065179
O O6 0.367869 0.039032 0.378622
O O7 0.035895 0.191740 0.746930
O O8 0.001965 0.125215 0.566831
#
# Coordination Sequence:
#
# PCOD9558255 Si02
#       6
#     8   2   4   8   8   2
#     4  11  20  43  65  96 135 182 228 278 341 412
#     4  12  22  40  64 106 128 184 218 288 352 406
#     4  10  24  40  71  97 132 184 228 280 345 413
#     4  11  22  44  69  98 133 184 227 283 346 413
#     4  11  23  40  68  93 138 180 230 279 346 411
#     4  12  22  40  80  98 136 188 230 288 364 422
#
# _framework density 21.32227
#
# number of rings (size 3 to 8) (size 9 to 14) (size 15 to 20)
#    0.000    1.000    7.500    0.000    0.000    1.000 
#    0.000   12.500    0.000    1.500    0.000    0.000 
#    0.000    0.000    0.000    0.000    0.000    0.000 
#
# Total GULP energy -178601.460542 kJ/mol
# GULP energy per Si atom -5581.295642 kJ/mol
# Density = 2.127374 g / cm^3
# Si number density = 21.322270 Si / 1000 Ang^3
#
#
#
# Elastic Constant Matrix: (Units=GPa)
#
#
# Indices 1 2 3 4 5 6 
#
# 1 137.3486 24.9283 28.5511 0.0000 0.0000 0.0000
# 2 24.9283 137.3486 28.5511 0.0000 0.0000 0.0000
# 3 28.5511 28.5511 77.5639 0.0000 0.0000 0.0000
# 4 0.0000 0.0000 0.0000 5.7059 0.0000 0.0000
# 5 0.0000 0.0000 0.0000 0.0000 5.7059 0.0000
# 6 0.0000 0.0000 0.0000 0.0000 0.0000 38.0788
#
#
#
# Elastic Compliance Matrix: (Units=1/GPa)
#
#
# Indices 1 2 3 4 5 6 
#
# 1 0.007987 -0.000908 -0.002606 0.000000 0.000000 0.000000
# 2 -0.000908 0.007987 -0.002606 0.000000 0.000000 0.000000
# 3 -0.002606 -0.002606 0.014811 0.000000 0.000000 0.000000
# 4 0.000000 0.000000 0.000000 0.175258 0.000000 0.000000
# 5 0.000000 0.000000 0.000000 0.000000 0.175258 0.000000
# 6 0.000000 0.000000 0.000000 0.000000 0.000000 0.026261
#
#
# Mechanical properties :
#
#
# Convention : Reuss Voigt Hill
#
# Bulk Modulus (GPa) = 53.91972 57.36914 55.64443
# Shear Modulus (GPa) = 11.73754 27.91347 19.82550
#
# Velocity S-wave (km/s) = 2.34878 3.62211 3.05257
# Velocity P-wave (km/s) = 5.71827 6.66761 6.21110
#
# Compressibility (1/GPa) = 0.01854609
#
# Stress axis : x y z
#
# Youngs Moduli (GPa) = 125.19988 125.19988 67.51732
#
# Poissons Ratio (x) = 0.11368 0.17594
# Poissons Ratio (y) = 0.11368 0.17594
# Poissons Ratio (z) = 0.32625 0.32625
#
# Static dielectric constant tensor:
#      x y z
#    x 1.840630 0.000000 0.000000 
#    y 0.000000 1.840630 0.000000 
#    z 0.000000 0.000000 1.775080 
# 
# From -- ./inp_files/2487.got.cif
#   From: 2010.05.17/outbox.cif.g08.bks.cpg/sg117_2_cif.got.tgz:2487.got - 2010.05.20 11:15:09.
