data_PCOD9558026
_publ_section_title
;
Structure prediction by ZEFSAII (Michael W. Deem and Ramdas Pophale) SiO2 
 PCOD9558026
Probable space group: P -4 C 2
;
_chemical_formula_sum "Si O2"
_cell_formula_units_Z 40
_cell_length_a 10.922584
_cell_length_b 10.922584
_cell_length_c 14.151979
_cell_angle_alpha 90.000000
_cell_angle_beta 90.000000
_cell_angle_gamma 90.000000
_cell_volume 1688.371304
_symmetry_space_group_name_H-M "P -4 C 2"
_symmetry_group_IT_number 116
_symmetry_cell_setting 'tetragonal'
loop_
_space_group_symop_operation_xyz
x,y,z
y,-x,-z
-x,-y,z
-y,x,-z
y,x,1/2-z
-y,-x,1/2-z
-x,y,1/2+z
x,-y,1/2+z
loop_
_atom_site_type_symbol
_atom_site_label
_atom_site_fract_x
_atom_site_fract_y
_atom_site_fract_z
Si Si1 0.719369 0.032622 0.503976
Si Si2 0.433807 0.131151 0.252312
Si Si3 0.793395 0.434258 0.429585
Si Si4 0.837157 0.890655 0.346236
Si Si5 0.252977 0.585886 0.097122
O O1 0.783663 0.098321 0.592756
O O2 0.633981 0.125355 0.447039
O O3 0.642013 0.912247 0.534185
O O4 0.819285 0.994087 0.425068
O O5 0.461055 0.164993 0.143448
O O6 0.299606 0.130932 0.300619
O O7 0.510065 0.230115 0.309937
O O8 0.500000 0.000000 0.265832
O O9 0.701690 0.336795 0.384603
O O10 0.714341 0.490442 0.514935
O O11 0.910719 0.910719 0.250000
#
# Coordination Sequence:
#
# PCOD9558026 Si02
#       5
#     8   8   8   8   8
#     4  12  24  48  74 113 157 210 262 323 403 481
#     4  12  23  44  77 107 149 206 264 318 390 483
#     4  12  26  44  76 108 158 207 266 323 395 477
#     4  12  26  48  78 112 157 209 261 328 401 479
#     4  12  23  46  69 112 150 203 261 324 389 469
#
# _framework density 23.691469000000001
#
# number of rings (size 3 to 8) (size 9 to 14) (size 15 to 20)
#    0.000    0.000    6.000    4.800    0.000    0.800 
#    0.000    2.000    0.000    3.600    0.000    0.000 
#    0.000    0.000    0.000    0.000    0.000    0.000 
#
# Total GULP energy -223571.708493 kJ/mol
# GULP energy per Si atom -5589.292712 kJ/mol
# Density = 2.363755 g / cm^3
# Si number density = 23.691469 Si / 1000 Ang^3
#
#
#
# Elastic Constant Matrix: (Units=GPa)
#
#
# Indices 1 2 3 4 5 6 
#
# 1 54.4733 64.3784 23.9713 0.0000 0.0000 0.0000
# 2 64.3784 54.4733 23.9713 0.0000 0.0000 0.0000
# 3 23.9713 23.9713 154.5129 0.0000 0.0000 0.0000
# 4 0.0000 0.0000 0.0000 34.8800 0.0000 0.0000
# 5 0.0000 0.0000 0.0000 0.0000 34.8800 0.0000
# 6 0.0000 0.0000 0.0000 0.0000 0.0000 25.7823
#
#
#
# Elastic Compliance Matrix: (Units=1/GPa)
#
#
# Indices 1 2 3 4 5 6 
#
# 1 -0.045991 0.054967 -0.001392 0.000000 0.000000 0.000000
# 2 0.054967 -0.045991 -0.001392 0.000000 0.000000 0.000000
# 3 -0.001392 -0.001392 0.006904 0.000000 0.000000 0.000000
# 4 0.000000 0.000000 0.000000 0.028670 0.000000 0.000000
# 5 0.000000 0.000000 0.000000 0.000000 0.028670 0.000000
# 6 0.000000 0.000000 0.000000 0.000000 0.000000 0.038786
#
#
# Mechanical properties :
#
#
# Convention : Reuss Voigt Hill
#
# Bulk Modulus (GPa) = 51.85321 54.23348 53.04334
# Shear Modulus (GPa) = -57.54484 29.18437 -14.18024
#
# Velocity S-wave (km/s) = -4.93376 3.51358 -2.44916
# Velocity P-wave (km/s) = 3.24370 6.27707 3.80000
#
# Compressibility (1/GPa) = 0.01928521
#
# Stress axis : x y z
#
# Youngs Moduli (GPa) = -21.74318 -21.74318 144.84328
#
# Poissons Ratio (x) = 1.19516 0.20169
# Poissons Ratio (y) = 1.19516 0.20169
# Poissons Ratio (z) = -0.03028 -0.03028
#
# Static dielectric constant tensor:
#      x y z
#    x 1.936530 0.000000 0.000000 
#    y 0.000000 1.936530 0.000000 
#    z 0.000000 0.000000 1.920430 
# 
# From -- ./inp_files/2539.got.cif
#   From: 2010.05.17/outbox.cif.g08.bks.cpg/sg116_2_cif.got.tgz:2539.got - 2010.05.20 11:11:43.
