data_PCOD9558319
_publ_section_title
;
Structure prediction by ZEFSAII (Michael W. Deem and Ramdas Pophale) SiO2 
 PCOD9558319
Probable space group: P -4 B 2
;
_chemical_formula_sum "Si O2"
_cell_formula_units_Z 56
_cell_length_a 14.226969
_cell_length_b 14.226969
_cell_length_c 13.556375
_cell_angle_alpha 90.000000
_cell_angle_beta 90.000000
_cell_angle_gamma 90.000000
_cell_volume 2743.900408
_symmetry_space_group_name_H-M "P -4 B 2"
_symmetry_group_IT_number 117
_symmetry_cell_setting 'tetragonal'
loop_
_space_group_symop_operation_xyz
x,y,z
y,-x,-z
-x,-y,z
-y,x,-z
1/2+y,1/2+x,-z
1/2-y,1/2-x,-z
1/2-x,1/2+y,z
1/2+x,1/2-y,z
loop_
_atom_site_type_symbol
_atom_site_label
_atom_site_fract_x
_atom_site_fract_y
_atom_site_fract_z
Si Si1 0.652589 0.773881 0.603118
Si Si2 0.087686 0.061858 0.667581
Si Si3 0.613137 0.908227 0.883507
Si Si4 0.452777 0.861308 0.583031
Si Si5 0.712760 0.300884 0.788852
Si Si6 0.617963 0.094913 0.196553
Si Si7 0.327811 0.427174 0.529973
O O1 0.693140 0.806861 0.500000
O O2 0.558054 0.833594 0.615383
O O3 0.726447 0.781224 0.690458
O O4 0.635245 0.665080 0.583906
O O5 0.129375 0.130920 0.749382
O O6 0.052082 0.109570 0.566264
O O7 0.172613 0.002241 0.618306
O O8 0.000000 0.000000 0.704430
O O9 0.708402 0.851338 0.856575
O O10 0.515137 0.869664 0.835264
O O11 0.623372 0.016712 0.847744
O O12 0.596219 0.903782 0.000000
O O13 0.438004 0.938004 0.500000
O O14 0.401418 0.886012 0.684337
O O15 0.414641 0.771090 0.523454
O O16 0.662461 0.206315 0.829748
#
# Coordination Sequence:
#
# PCOD9558319 Si02
#       7
#     8   8   8   8   8   8   8
#     4  12  23  38  58  96 144 185 238 284 329 407
#     4  12  22  36  60  96 141 200 241 268 335 417
#     4  11  28  52  77 105 132 175 238 305 380 450
#     4  12  24  36  59  95 144 191 236 280 336 413
#     4  12  26  45  72 108 137 185 239 299 362 422
#     4  11  24  47  76 102 141 186 236 289 363 441
#     4  12  20  37  58  88 146 200 230 276 331 405
#
# _framework density 20.408902999999999
#
# number of rings (size 3 to 8) (size 9 to 14) (size 15 to 20)
#    0.000    0.286    7.143    2.143    6.000    1.429 
#    0.000    0.000    0.000    0.000    0.000    0.000 
#    0.000    0.000    0.000    0.000    0.000    0.000 
#
# Total GULP energy -312517.153482 kJ/mol
# GULP energy per Si atom -5580.663455 kJ/mol
# Density = 2.036245 g / cm^3
# Si number density = 20.408903 Si / 1000 Ang^3
#
#
#
# Elastic Constant Matrix: (Units=GPa)
#
#
# Indices 1 2 3 4 5 6 
#
# 1 157.5704 40.9715 42.6622 0.0000 0.0000 0.0000
# 2 40.9715 157.5687 42.6620 0.0000 0.0000 0.0000
# 3 42.6622 42.6620 101.3608 0.0000 0.0000 0.0000
# 4 0.0000 0.0000 0.0000 17.8004 0.0000 0.0000
# 5 0.0000 0.0000 0.0000 0.0000 17.8007 0.0000
# 6 0.0000 0.0000 0.0000 0.0000 0.0000 45.2777
#
#
#
# Elastic Compliance Matrix: (Units=1/GPa)
#
#
# Indices 1 2 3 4 5 6 
#
# 1 0.007363 -0.001214 -0.002588 0.000000 0.000000 0.000000
# 2 -0.001214 0.007363 -0.002588 0.000000 0.000000 0.000000
# 3 -0.002588 -0.002588 0.012044 0.000000 0.000000 0.000000
# 4 0.000000 0.000000 0.000000 0.056179 0.000000 0.000000
# 5 0.000000 0.000000 0.000000 0.000000 0.056178 0.000000
# 6 0.000000 0.000000 0.000000 0.000000 0.000000 0.022086
#
#
# Mechanical properties :
#
#
# Convention : Reuss Voigt Hill
#
# Bulk Modulus (GPa) = 71.47942 74.34349 72.91145
# Shear Modulus (GPa) = 27.98689 35.52269 31.75479
#
# Velocity S-wave (km/s) = 3.70713 4.17651 3.94881
# Velocity P-wave (km/s) = 7.30914 7.73070 7.52287
#
# Compressibility (1/GPa) = 0.01399004
#
# Stress axis : x y z
#
# Youngs Moduli (GPa) = 135.82003 135.81853 83.02657
#
# Poissons Ratio (x) = 0.16485 0.21488
# Poissons Ratio (y) = 0.16485 0.21488
# Poissons Ratio (z) = 0.35151 0.35151
#
# Static dielectric constant tensor:
#      x y z
#    x 1.791280 0.000000 0.000000 
#    y 0.000000 1.791290 0.000000 
#    z 0.000000 0.000000 1.665600 
# 
# From -- ./inp_files/2876.got.cif
#   From: 2010.05.17/outbox.cif.g08.bks.cpg/sg117_2_cif.got.tgz:2876.got - 2010.05.20 11:15:09.
