data_PCOD9558611
_publ_section_title
;
Structure prediction by ZEFSAII (Michael W. Deem and Ramdas Pophale) SiO2 
 PCOD9558611
Probable space group: P -4 N 2
;
_chemical_formula_sum "Si O2"
_cell_formula_units_Z 40
_cell_length_a 8.197069
_cell_length_b 8.197069
_cell_length_c 26.468632
_cell_angle_alpha 90.000000
_cell_angle_beta 90.000000
_cell_angle_gamma 90.000000
_cell_volume 1778.478738
_symmetry_space_group_name_H-M "P -4 N 2"
_symmetry_group_IT_number 118
_symmetry_cell_setting 'tetragonal'
loop_
_space_group_symop_operation_xyz
x,y,z
y,-x,-z
-x,-y,z
-y,x,-z
1/2+y,1/2+x,1/2-z
1/2-y,1/2-x,1/2-z
1/2-x,1/2+y,1/2+z
1/2+x,1/2-y,1/2+z
loop_
_atom_site_type_symbol
_atom_site_label
_atom_site_fract_x
_atom_site_fract_y
_atom_site_fract_z
Si Si1 0.021699 0.255566 0.491341
Si Si2 0.903830 0.242526 0.644161
Si Si3 0.690871 0.947959 0.794467
Si Si4 0.716401 0.783600 0.250000
Si Si5 0.409222 0.246105 0.881747
Si Si6 0.000000 0.500000 0.928277
O O1 0.940799 0.309309 0.438952
O O2 0.089372 0.384274 0.530996
O O3 0.157876 0.121352 0.479484
O O4 0.904142 0.293737 0.702808
O O5 0.881206 0.398637 0.608305
O O6 0.075927 0.170371 0.625021
O O7 0.774689 0.093898 0.639698
O O8 0.687961 0.812040 0.750000
O O9 0.708221 0.870452 0.849338
O O10 0.500000 0.000000 0.797510
O O11 0.792820 0.102245 0.775521
#
# Coordination Sequence:
#
# PCOD9558611 Si02
#       6
#     8   8   8   4   8   4
#     4  11  21  41  66  92 119 165 217 264 315 391
#     4  11  22  39  61  93 131 163 204 266 313 384
#     4   9  17  34  60  90 117 157 213 257 291 366
#     4  10  21  41  62  90 128 167 212 255 316 372
#     4  11  20  39  65  92 122 167 219 255 309 381
#     4  12  24  39  62  94 125 158 214 266 326 368
#
# _framework density 22.491133000000001
#
# number of rings (size 3 to 8) (size 9 to 14) (size 15 to 20)
#    0.000    1.600    8.000    1.200    1.400    0.400 
#    3.600    0.000    0.000    3.000    0.000    0.000 
#    0.000    0.000    0.000    0.000    0.000    0.000 
#
# Total GULP energy -222883.154416 kJ/mol
# GULP energy per Si atom -5572.078860 kJ/mol
# Density = 2.243994 g / cm^3
# Si number density = 22.491133 Si / 1000 Ang^3
#
#
#
# Elastic Constant Matrix: (Units=GPa)
#
#
# Indices 1 2 3 4 5 6 
#
# 1 52.8620 10.8099 39.0242 0.0000 0.0000 0.0000
# 2 10.8099 52.8618 39.0243 0.0000 0.0000 0.0000
# 3 39.0242 39.0243 202.4720 0.0000 0.0000 0.0000
# 4 0.0000 0.0000 0.0000 15.8619 0.0000 0.0000
# 5 0.0000 0.0000 0.0000 0.0000 15.8615 0.0000
# 6 0.0000 0.0000 0.0000 0.0000 0.0000 10.7464
#
#
#
# Elastic Compliance Matrix: (Units=1/GPa)
#
#
# Indices 1 2 3 4 5 6 
#
# 1 0.022172 -0.001608 -0.003963 0.000000 0.000000 0.000000
# 2 -0.001608 0.022172 -0.003963 0.000000 0.000000 0.000000
# 3 -0.003963 -0.003963 0.006467 0.000000 0.000000 0.000000
# 4 0.000000 0.000000 0.000000 0.063044 0.000000 0.000000
# 5 0.000000 0.000000 0.000000 0.000000 0.063046 0.000000
# 6 0.000000 0.000000 0.000000 0.000000 0.000000 0.093055
#
#
# Mechanical properties :
#
#
# Convention : Reuss Voigt Hill
#
# Bulk Modulus (GPa) = 31.50521 53.99028 42.74775
# Shear Modulus (GPa) = 16.68859 23.11644 19.90252
#
# Velocity S-wave (km/s) = 2.72694 3.20941 2.97796
# Velocity P-wave (km/s) = 4.89420 6.14744 5.55627
#
# Compressibility (1/GPa) = 0.03174078
#
# Stress axis : x y z
#
# Youngs Moduli (GPa) = 45.10202 45.10176 154.63631
#
# Poissons Ratio (x) = 0.07253 0.61289
# Poissons Ratio (y) = 0.07253 0.61290
# Poissons Ratio (z) = 0.17876 0.17876
#
# Static dielectric constant tensor:
#      x y z
#    x 1.950980 0.000000 0.000000 
#    y 0.000000 1.950980 0.000000 
#    z 0.000000 0.000000 1.950060 
# 
# From -- ./inp_files/6510.got.cif
#   From: 2010.05.17/outbox.cif.g08.bks.cpg/sg118_4_cif.got.tgz:6510.got - 2010.05.20 11:17:24.
