data_PCOD9558761
_publ_section_title
;
Structure prediction by ZEFSAII (Michael W. Deem and Ramdas Pophale) SiO2 
 PCOD9558761
Probable space group: P -4 N 2
;
_chemical_formula_sum "Si O2"
_cell_formula_units_Z 42
_cell_length_a 11.562373
_cell_length_b 11.562373
_cell_length_c 16.607260
_cell_angle_alpha 90.000000
_cell_angle_beta 90.000000
_cell_angle_gamma 90.000000
_cell_volume 2220.199170
_symmetry_space_group_name_H-M "P -4 N 2"
_symmetry_group_IT_number 118
_symmetry_cell_setting 'tetragonal'
loop_
_space_group_symop_operation_xyz
x,y,z
y,-x,-z
-x,-y,z
-y,x,-z
1/2+y,1/2+x,1/2-z
1/2-y,1/2-x,1/2-z
1/2-x,1/2+y,1/2+z
1/2+x,1/2-y,1/2+z
loop_
_atom_site_type_symbol
_atom_site_label
_atom_site_fract_x
_atom_site_fract_y
_atom_site_fract_z
Si Si1 0.500000 0.000000 0.750000
Si Si2 0.455011 0.135062 0.177477
Si Si3 0.173578 0.606065 0.516182
Si Si4 0.201383 0.507484 0.120330
Si Si5 0.832736 0.698413 0.996770
Si Si6 0.709919 0.668230 0.823227
O O1 0.508444 0.111856 0.807213
O O2 0.364687 0.135313 0.250000
O O3 0.400859 0.152743 0.090843
O O4 0.547001 0.232580 0.201230
O O5 0.500000 0.000000 0.172695
O O6 0.103121 0.642341 0.437324
O O7 0.183516 0.468902 0.514396
O O8 0.294387 0.673089 0.521306
O O9 0.313701 0.574642 0.155763
O O10 0.212748 0.394504 0.063273
O O11 0.776134 0.683510 0.908678
O O12 0.745541 0.754460 0.750000
#
# Coordination Sequence:
#
# PCOD9558761 Si02
#       6
#     2   8   8   8   8   8
#     4  12  20  36  68  80 124 168 218 264 312 416
#     4  11  18  34  63  90 119 159 215 268 320 391
#     4  11  21  38  60  86 124 161 212 263 324 394
#     4  11  22  38  60  92 122 164 215 265 330 397
#     4  11  22  38  61  88 123 168 210 266 325 394
#     4  11  20  34  63  97 121 157 215 279 323 389
#
# _framework density 18.917223
#
# number of rings (size 3 to 8) (size 9 to 14) (size 15 to 20)
#    0.000    0.952    8.571    0.000    0.000    0.381 
#    1.714    0.952    0.000    0.000    0.000    0.000 
#    0.000    0.000    0.000    0.000    0.000    0.000 
#
# Total GULP energy -233829.604364 kJ/mol
# GULP energy per Si atom -5567.371532 kJ/mol
# Density = 1.887417 g / cm^3
# Si number density = 18.917223 Si / 1000 Ang^3
#
#
#
# Elastic Constant Matrix: (Units=GPa)
#
#
# Indices 1 2 3 4 5 6 
#
# 1 53.9441 52.2321 23.2031 0.0000 0.0000 0.0000
# 2 52.2321 53.9438 23.2033 0.0000 0.0000 0.0000
# 3 23.2031 23.2033 113.5552 0.0000 0.0000 0.0000
# 4 0.0000 0.0000 0.0000 -5.1005 0.0000 0.0000
# 5 0.0000 0.0000 0.0000 0.0000 -5.0993 0.0000
# 6 0.0000 0.0000 0.0000 0.0000 0.0000 34.7924
#
#
#
# Elastic Compliance Matrix: (Units=1/GPa)
#
#
# Indices 1 2 3 4 5 6 
#
# 1 0.297249 -0.286909 -0.002112 0.000000 0.000000 0.000000
# 2 -0.286909 0.297252 -0.002114 0.000000 0.000000 0.000000
# 3 -0.002112 -0.002114 0.009670 0.000000 0.000000 0.000000
# 4 0.000000 0.000000 0.000000 -0.196059 0.000000 0.000000
# 5 0.000000 0.000000 0.000000 0.000000 -0.196107 0.000000
# 6 0.000000 0.000000 0.000000 0.000000 0.000000 0.028742
#
#
# Mechanical properties :
#
#
# Convention : Reuss Voigt Hill
#
# Bulk Modulus (GPa) = 45.66016 46.52445 46.09231
# Shear Modulus (GPa) = 6.02180 13.10551 9.56365
#
# Velocity S-wave (km/s) = 1.78610 2.63493 2.25089
# Velocity P-wave (km/s) = 5.33317 5.82273 5.58332
#
# Compressibility (1/GPa) = 0.02190093
#
# Stress axis : x y z
#
# Youngs Moduli (GPa) = 3.36418 3.36415 103.41374
#
# Poissons Ratio (x) = 0.96520 0.21845
# Poissons Ratio (y) = 0.96521 0.21862
# Poissons Ratio (z) = 0.00711 0.00711
#
# Static dielectric constant tensor:
#      x y z
#    x 1.707400 0.000000 0.000000 
#    y 0.000000 1.707400 0.000000 
#    z 0.000000 0.000000 1.773470 
# 
# From -- ./inp_files/4829.got.cif
#   From: 2010.05.17/outbox.cif.g08.bks.cpg/sg118_3_cif.got.tgz:4829.got - 2010.05.20 11:17:24.
