data_PCOD9558238
_publ_section_title
;
Structure prediction by ZEFSAII (Michael W. Deem and Ramdas Pophale) SiO2 
 PCOD9558238
Probable space group: P -4 B 2
;
_chemical_formula_sum "Si O2"
_cell_formula_units_Z 60
_cell_length_a 14.547639
_cell_length_b 14.547639
_cell_length_c 13.578345
_cell_angle_alpha 90.000000
_cell_angle_beta 90.000000
_cell_angle_gamma 90.000000
_cell_volume 2873.636757
_symmetry_space_group_name_H-M "P -4 B 2"
_symmetry_group_IT_number 117
_symmetry_cell_setting 'tetragonal'
loop_
_space_group_symop_operation_xyz
x,y,z
y,-x,-z
-x,-y,z
-y,x,-z
1/2+y,1/2+x,-z
1/2-y,1/2-x,-z
1/2-x,1/2+y,z
1/2+x,1/2-y,z
loop_
_atom_site_type_symbol
_atom_site_label
_atom_site_fract_x
_atom_site_fract_y
_atom_site_fract_z
Si Si1 0.501205 0.845992 0.606065
Si Si2 0.845560 0.719334 0.890977
Si Si3 0.487419 0.293711 0.781003
Si Si4 0.000000 0.000000 0.771540
Si Si5 0.834603 0.323468 0.881734
Si Si6 0.019565 0.310901 0.174418
Si Si7 0.505584 0.367585 0.053275
Si Si8 0.844574 0.497044 0.613201
O O1 0.490123 0.772517 0.690704
O O2 0.499947 0.803137 0.496207
O O3 0.596056 0.903085 0.618492
O O4 0.420599 0.921663 0.613831
O O5 0.938599 0.774707 0.868487
O O6 0.767550 0.789785 0.853275
O O7 0.854771 0.620144 0.837737
O O8 0.811076 0.688925 0.000000
O O9 0.483635 0.396145 0.735154
O O10 0.395951 0.255473 0.832829
O O11 0.913352 0.985156 0.842077
O O12 0.865236 0.424196 0.843507
O O13 0.833087 0.333087 0.000000
O O14 0.016032 0.236318 0.086052
O O15 0.010187 0.282986 0.289556
O O16 0.422169 0.403645 0.984943
#
# Coordination Sequence:
#
# PCOD9558238 Si02
#       8
#     8   8   8   4   8   8   8   8
#     4   9  18  37  64  94 135 164 220 267 358 426
#     4  11  26  38  60  92 134 177 223 277 336 407
#     4  12  22  43  63  97 136 178 224 286 339 404
#     4  10  23  38  62  79 120 182 230 249 321 400
#     4  11  26  38  60  92 134 177 223 277 336 407
#     4  12  21  38  62  94 131 164 225 282 339 396
#     4   9  22  37  62  82 117 178 234 259 301 401
#     4   9  18  36  64  99 126 172 206 277 357 429
#
# _framework density 20.879465
#
# number of rings (size 3 to 8) (size 9 to 14) (size 15 to 20)
#    0.000    1.733    2.667    3.200   11.200    0.533 
#    0.000    1.333    0.000   10.400    0.000    0.000 
#    0.000    0.000    0.000    0.000    0.000    0.000 
#
# Total GULP energy -334137.325355 kJ/mol
# GULP energy per Si atom -5568.955423 kJ/mol
# Density = 2.083194 g / cm^3
# Si number density = 20.879465 Si / 1000 Ang^3
#
#
#
# Elastic Constant Matrix: (Units=GPa)
#
#
# Indices 1 2 3 4 5 6 
#
# 1 93.7711 1.9855 18.9383 0.0000 0.0000 0.0000
# 2 1.9855 93.7713 18.9382 0.0000 0.0000 0.0000
# 3 18.9383 18.9382 115.4273 0.0000 0.0000 0.0000
# 4 0.0000 0.0000 0.0000 15.2897 0.0000 0.0000
# 5 0.0000 0.0000 0.0000 0.0000 15.2898 0.0000
# 6 0.0000 0.0000 0.0000 0.0000 0.0000 13.7528
#
#
#
# Elastic Compliance Matrix: (Units=1/GPa)
#
#
# Indices 1 2 3 4 5 6 
#
# 1 0.011031 0.000136 -0.001832 0.000000 0.000000 0.000000
# 2 0.000136 0.011031 -0.001832 0.000000 0.000000 0.000000
# 3 -0.001832 -0.001832 0.009265 0.000000 0.000000 0.000000
# 4 0.000000 0.000000 0.000000 0.065403 0.000000 0.000000
# 5 0.000000 0.000000 0.000000 0.000000 0.065403 0.000000
# 6 0.000000 0.000000 0.000000 0.000000 0.000000 0.072713
#
#
# Mechanical properties :
#
#
# Convention : Reuss Voigt Hill
#
# Bulk Modulus (GPa) = 41.20105 42.52153 41.86129
# Shear Modulus (GPa) = 20.00052 26.40697 23.20375
#
# Velocity S-wave (km/s) = 3.09836 3.56017 3.33726
# Velocity P-wave (km/s) = 5.70749 6.10812 5.91120
#
# Compressibility (1/GPa) = 0.02427123
#
# Stress axis : x y z
#
# Youngs Moduli (GPa) = 90.64997 90.65021 107.93632
#
# Poissons Ratio (x) = -0.01237 0.19778
# Poissons Ratio (y) = -0.01237 0.19777
# Poissons Ratio (z) = 0.16610 0.16610
#
# Static dielectric constant tensor:
#      x y z
#    x 1.837400 0.000000 0.000000 
#    y 0.000000 1.837400 0.000000 
#    z 0.000000 0.000000 1.796120 
# 
# From -- ./inp_files/3278.got.cif
#   From: 2010.05.17/outbox.cif.g08.bks.cpg/sg117_2_cif.got.tgz:3278.got - 2010.05.20 11:15:09.
