data_PCOD9558254
_publ_section_title
;
Structure prediction by ZEFSAII (Michael W. Deem and Ramdas Pophale) SiO2 
 PCOD9558254
Probable space group: P -4 B 2
;
_chemical_formula_sum "Si O2"
_cell_formula_units_Z 32
_cell_length_a 10.896464
_cell_length_b 10.896464
_cell_length_c 12.062985
_cell_angle_alpha 90.000000
_cell_angle_beta 90.000000
_cell_angle_gamma 90.000000
_cell_volume 1432.273526
_symmetry_space_group_name_H-M "P -4 B 2"
_symmetry_group_IT_number 117
_symmetry_cell_setting 'tetragonal'
loop_
_space_group_symop_operation_xyz
x,y,z
y,-x,-z
-x,-y,z
-y,x,-z
1/2+y,1/2+x,-z
1/2-y,1/2-x,-z
1/2-x,1/2+y,z
1/2+x,1/2-y,z
loop_
_atom_site_type_symbol
_atom_site_label
_atom_site_fract_x
_atom_site_fract_y
_atom_site_fract_z
Si Si1 0.533465 0.748507 0.360939
Si Si2 0.500000 0.000000 0.500000
Si Si3 0.644355 0.144355 0.000000
Si Si4 0.182853 0.023749 0.047854
Si Si5 0.286559 0.285756 0.777461
Si Si6 0.000000 0.000000 0.500000
O O1 0.509698 0.873647 0.429971
O O2 0.407700 0.733806 0.293066
O O3 0.658693 0.765824 0.288302
O O4 0.542042 0.621373 0.431101
O O5 0.504789 0.184582 0.999900
O O6 0.701780 0.196267 0.885870
O O7 0.199132 0.077743 0.169028
O O8 0.102608 0.109264 0.968533
#
# Coordination Sequence:
#
# PCOD9558254 Si02
#       6
#     8   2   4   8   8   2
#     4  12  28  49  81 110 149 204 265 331 407 462
#     4  12  28  56  68 110 160 188 260 368 388 446
#     4  10  24  40  69 109 162 192 256 306 364 473
#     4   9  21  41  67 100 158 206 245 307 366 460
#     4  11  27  44  77 114 151 210 255 313 395 483
#     4  12  28  52  84 110 140 204 280 340 396 466
#
# _framework density 22.342099999999999
#
# number of rings (size 3 to 8) (size 9 to 14) (size 15 to 20)
#    0.000    1.250    0.000    3.000   24.500    0.000 
#    0.000    1.250    0.000    0.000    0.000    0.000 
#    0.000    0.000    0.000    0.000    0.000    0.000 
#
# Total GULP energy -178312.633620 kJ/mol
# GULP energy per Si atom -5572.269801 kJ/mol
# Density = 2.229125 g / cm^3
# Si number density = 22.342100 Si / 1000 Ang^3
#
#
#
# Elastic Constant Matrix: (Units=GPa)
#
#
# Indices 1 2 3 4 5 6 
#
# 1 166.5256 115.5390 99.6097 0.0000 0.0000 0.0000
# 2 115.5390 166.5256 99.6097 0.0000 0.0000 0.0000
# 3 99.6097 99.6097 141.3313 0.0000 0.0000 0.0000
# 4 0.0000 0.0000 0.0000 21.8871 0.0000 0.0000
# 5 0.0000 0.0000 0.0000 0.0000 21.8871 0.0000
# 6 0.0000 0.0000 0.0000 0.0000 0.0000 62.4693
#
#
#
# Elastic Compliance Matrix: (Units=1/GPa)
#
#
# Indices 1 2 3 4 5 6 
#
# 1 0.013336 -0.006277 -0.004975 0.000000 0.000000 0.000000
# 2 -0.006277 0.013336 -0.004975 0.000000 0.000000 0.000000
# 3 -0.004975 -0.004975 0.014089 0.000000 0.000000 0.000000
# 4 0.000000 0.000000 0.000000 0.045689 0.000000 0.000000
# 5 0.000000 0.000000 0.000000 0.000000 0.045689 0.000000
# 6 0.000000 0.000000 0.000000 0.000000 0.000000 0.016008
#
#
# Mechanical properties :
#
#
# Convention : Reuss Voigt Hill
#
# Bulk Modulus (GPa) = 120.39550 122.65550 121.52550
# Shear Modulus (GPa) = 27.26713 31.89032 29.57872
#
# Velocity S-wave (km/s) = 3.49727 3.78215 3.64249
# Velocity P-wave (km/s) = 8.38523 8.60760 8.49714
#
# Compressibility (1/GPa) = 0.00830596
#
# Stress axis : x y z
#
# Youngs Moduli (GPa) = 74.98399 74.98399 70.97801
#
# Poissons Ratio (x) = 0.47066 0.35314
# Poissons Ratio (y) = 0.47066 0.35314
# Poissons Ratio (z) = 0.37308 0.37308
#
# Static dielectric constant tensor:
#      x y z
#    x 2.038440 0.000000 0.000000 
#    y 0.000000 2.038440 0.000000 
#    z 0.000000 0.000000 1.841900 
# 
# From -- ./inp_files/2474.got.cif
#   From: 2010.05.17/outbox.cif.g08.bks.cpg/sg117_2_cif.got.tgz:2474.got - 2010.05.20 11:15:09.
