data_PCOD9558234
_publ_section_title
;
Structure prediction by ZEFSAII (Michael W. Deem and Ramdas Pophale) SiO2 
 PCOD9558234
Probable space group: P -4 B 2
;
_chemical_formula_sum "Si O2"
_cell_formula_units_Z 56
_cell_length_a 14.733577
_cell_length_b 14.733577
_cell_length_c 9.977642
_cell_angle_alpha 90.000000
_cell_angle_beta 90.000000
_cell_angle_gamma 90.000000
_cell_volume 2165.929476
_symmetry_space_group_name_H-M "P -4 B 2"
_symmetry_group_IT_number 117
_symmetry_cell_setting 'tetragonal'
loop_
_space_group_symop_operation_xyz
x,y,z
y,-x,-z
-x,-y,z
-y,x,-z
1/2+y,1/2+x,-z
1/2-y,1/2-x,-z
1/2-x,1/2+y,z
1/2+x,1/2-y,z
loop_
_atom_site_type_symbol
_atom_site_label
_atom_site_fract_x
_atom_site_fract_y
_atom_site_fract_z
Si Si1 0.340481 0.957791 0.753282
Si Si2 0.636826 0.365115 0.911189
Si Si3 0.228512 0.446408 0.476347
Si Si4 0.558085 0.372122 0.194000
Si Si5 0.666618 0.834920 0.204915
Si Si6 0.187215 0.470313 0.166028
Si Si7 0.874010 0.185660 0.569796
O O1 0.340043 0.928713 0.597870
O O2 0.237971 0.936648 0.798472
O O3 0.411121 0.903864 0.844855
O O4 0.356112 0.064168 0.751988
O O5 0.606544 0.452034 0.823059
O O6 0.738895 0.336782 0.869754
O O7 0.580118 0.274059 0.890405
O O8 0.615234 0.396901 0.062290
O O9 0.199425 0.470682 0.327298
O O10 0.279082 0.541324 0.515150
O O11 0.298405 0.362885 0.479956
O O12 0.608425 0.407463 0.325560
O O13 0.735850 0.833503 0.331824
O O14 0.687419 0.925906 0.119867
#
# Coordination Sequence:
#
# PCOD9558234 Si02
#       7
#     8   8   8   8   8   8   8
#     4  10  22  46  68 105 141 182 239 299 360 432
#     4  11  25  48  74 100 146 181 244 306 361 446
#     4  10  23  40  66 102 143 186 234 288 363 429
#     4  10  25  46  70 102 133 193 234 296 369 424
#     4  10  24  45  72 102 144 188 243 293 364 436
#     4  11  24  43  72 111 137 187 238 300 368 435
#     4  10  23  43  65 104 137 187 237 282 362 435
#
# _framework density 25.854952999999998
#
# number of rings (size 3 to 8) (size 9 to 14) (size 15 to 20)
#    0.000    1.714    0.000    2.571   10.000    5.143 
#    7.714    2.857    0.000    1.714    0.000    0.000 
#    0.000    0.000    0.000    0.000    0.000    0.000 
#
# Total GULP energy -313773.631706 kJ/mol
# GULP energy per Si atom -5603.100566 kJ/mol
# Density = 2.579611 g / cm^3
# Si number density = 25.854953 Si / 1000 Ang^3
#
#
#
# Elastic Constant Matrix: (Units=GPa)
#
#
# Indices 1 2 3 4 5 6 
#
# 1 111.4531 44.3115 15.5353 0.0000 0.0000 0.0000
# 2 44.3115 111.4531 15.5353 0.0000 0.0000 0.0000
# 3 15.5353 15.5353 85.1992 0.0000 0.0000 0.0000
# 4 0.0000 0.0000 0.0000 28.0047 0.0000 0.0000
# 5 0.0000 0.0000 0.0000 0.0000 28.0047 0.0000
# 6 0.0000 0.0000 0.0000 0.0000 0.0000 33.9299
#
#
#
# Elastic Compliance Matrix: (Units=1/GPa)
#
#
# Indices 1 2 3 4 5 6 
#
# 1 0.010778 -0.004116 -0.001215 0.000000 0.000000 0.000000
# 2 -0.004116 0.010778 -0.001215 0.000000 0.000000 0.000000
# 3 -0.001215 -0.001215 0.012180 0.000000 0.000000 0.000000
# 4 0.000000 0.000000 0.000000 0.035708 0.000000 0.000000
# 5 0.000000 0.000000 0.000000 0.000000 0.035708 0.000000
# 6 0.000000 0.000000 0.000000 0.000000 0.000000 0.029473
#
#
# Mechanical properties :
#
#
# Convention : Reuss Voigt Hill
#
# Bulk Modulus (GPa) = 48.43666 50.98553 49.71109
# Shear Modulus (GPa) = 32.34192 33.50275 32.92233
#
# Velocity S-wave (km/s) = 3.54064 3.60362 3.57227
# Velocity P-wave (km/s) = 5.95731 6.08912 6.02358
#
# Compressibility (1/GPa) = 0.02064552
#
# Stress axis : x y z
#
# Youngs Moduli (GPa) = 92.78093 92.78093 82.10034
#
# Poissons Ratio (x) = 0.38187 0.09974
# Poissons Ratio (y) = 0.38187 0.09974
# Poissons Ratio (z) = 0.11271 0.11271
#
# Static dielectric constant tensor:
#      x y z
#    x 2.055520 0.000000 0.000000 
#    y 0.000000 2.055520 0.000000 
#    z 0.000000 0.000000 2.073210 
# 
# From -- ./inp_files/2865.got.cif
#   From: 2010.05.17/outbox.cif.g08.bks.cpg/sg117_2_cif.got.tgz:2865.got - 2010.05.20 11:15:09.
