data_PCOD9558201
_publ_section_title
;
Structure prediction by ZEFSAII (Michael W. Deem and Ramdas Pophale) SiO2 
 PCOD9558201
Probable space group: P -4 B 2
;
_chemical_formula_sum "Si O2"
_cell_formula_units_Z 40
_cell_length_a 18.235677
_cell_length_b 18.235677
_cell_length_c 5.331779
_cell_angle_alpha 90.000000
_cell_angle_beta 90.000000
_cell_angle_gamma 90.000000
_cell_volume 1773.029339
_symmetry_space_group_name_H-M "P -4 B 2"
_symmetry_group_IT_number 117
_symmetry_cell_setting 'tetragonal'
loop_
_space_group_symop_operation_xyz
x,y,z
y,-x,-z
-x,-y,z
-y,x,-z
1/2+y,1/2+x,-z
1/2-y,1/2-x,-z
1/2-x,1/2+y,z
1/2+x,1/2-y,z
loop_
_atom_site_type_symbol
_atom_site_label
_atom_site_fract_x
_atom_site_fract_y
_atom_site_fract_z
Si Si1 0.396901 0.830096 0.745995
Si Si2 0.579701 0.700805 0.829112
Si Si3 0.457864 0.402132 0.425616
Si Si4 0.632302 0.933232 0.244050
Si Si5 0.328049 0.420654 0.046700
O O1 0.351961 0.851961 0.500000
O O2 0.480021 0.858266 0.713702
O O3 0.399218 0.743340 0.794078
O O4 0.364974 0.864974 0.000000
O O5 0.549650 0.675703 0.556613
O O6 0.596193 0.786339 0.824489
O O7 0.507657 0.687229 0.011882
O O8 0.650682 0.649429 0.874826
O O9 0.428797 0.460984 0.637760
O O10 0.399812 0.420483 0.216959
O O11 0.602424 0.897577 0.500000
O O12 0.582909 0.917092 0.000000
#
# Coordination Sequence:
#
# PCOD9558201 Si02
#       5
#     8   8   8   8   8
#     4  11  26  47  72 101 133 174 228 289 350 408
#     4  10  22  39  63  95 137 178 220 273 329 399
#     4   9  18  34  59  90 128 178 225 262 313 386
#     4  11  26  47  72 101 133 174 228 289 350 408
#     4  10  22  39  63  95 137 178 220 273 329 399
#
# _framework density 22.560255999999999
#
# number of rings (size 3 to 8) (size 9 to 14) (size 15 to 20)
#    0.000    1.800    0.000    2.400    5.600    5.200 
#    0.000    0.000    0.000    0.000    0.000    0.000 
#    0.000    0.000    0.000    0.000    0.000    0.000 
#
# Total GULP energy -223139.185486 kJ/mol
# GULP energy per Si atom -5578.479637 kJ/mol
# Density = 2.250891 g / cm^3
# Si number density = 22.560256 Si / 1000 Ang^3
#
#
#
# Elastic Constant Matrix: (Units=GPa)
#
#
# Indices 1 2 3 4 5 6 
#
# 1 95.9684 41.3765 38.4368 0.0000 0.0000 0.0000
# 2 41.3765 95.9649 38.4365 0.0000 0.0000 0.0000
# 3 38.4368 38.4365 99.2827 0.0000 0.0000 0.0000
# 4 0.0000 0.0000 0.0000 27.6954 0.0000 0.0000
# 5 0.0000 0.0000 0.0000 0.0000 27.6946 0.0000
# 6 0.0000 0.0000 0.0000 0.0000 0.0000 33.9027
#
#
#
# Elastic Compliance Matrix: (Units=1/GPa)
#
#
# Indices 1 2 3 4 5 6 
#
# 1 0.013806 -0.004512 -0.003599 0.000000 0.000000 0.000000
# 2 -0.004512 0.013807 -0.003599 0.000000 0.000000 0.000000
# 3 -0.003599 -0.003599 0.012859 0.000000 0.000000 0.000000
# 4 0.000000 0.000000 0.000000 0.036107 0.000000 0.000000
# 5 0.000000 0.000000 0.000000 0.000000 0.036108 0.000000
# 6 0.000000 0.000000 0.000000 0.000000 0.000000 0.029496
#
#
# Mechanical properties :
#
#
# Convention : Reuss Voigt Hill
#
# Bulk Modulus (GPa) = 58.63491 58.63508 58.63499
# Shear Modulus (GPa) = 29.19097 29.38962 29.29029
#
# Velocity S-wave (km/s) = 3.60100 3.61323 3.60712
# Velocity P-wave (km/s) = 6.58304 6.59197 6.58751
#
# Compressibility (1/GPa) = 0.01705469
#
# Stress axis : x y z
#
# Youngs Moduli (GPa) = 72.42971 72.42681 77.76909
#
# Poissons Ratio (x) = 0.32676 0.27985
# Poissons Ratio (y) = 0.32677 0.27986
# Poissons Ratio (z) = 0.26064 0.26064
#
# Static dielectric constant tensor:
#      x y z
#    x 1.853850 0.000000 0.000000 
#    y 0.000000 1.853850 0.000000 
#    z 0.000000 0.000000 1.962370 
# 
# From -- ./inp_files/570.got.cif
#   From: 2010.05.17/outbox.cif.g08.bks.cpg/sg117_1_cif.got.tgz:570.got - 2010.05.20 11:15:09.
