data_PCOD9558532
_publ_section_title
;
Structure prediction by ZEFSAII (Michael W. Deem and Ramdas Pophale) SiO2 
 PCOD9558532
Probable space group: P -4 N 2
;
_chemical_formula_sum "Si O2"
_cell_formula_units_Z 32
_cell_length_a 14.156810
_cell_length_b 14.156810
_cell_length_c 7.713918
_cell_angle_alpha 90.000000
_cell_angle_beta 90.000000
_cell_angle_gamma 90.000000
_cell_volume 1545.986954
_symmetry_space_group_name_H-M "P -4 N 2"
_symmetry_group_IT_number 118
_symmetry_cell_setting 'tetragonal'
loop_
_space_group_symop_operation_xyz
x,y,z
y,-x,-z
-x,-y,z
-y,x,-z
1/2+y,1/2+x,1/2-z
1/2-y,1/2-x,1/2-z
1/2-x,1/2+y,1/2+z
1/2+x,1/2-y,1/2+z
loop_
_atom_site_type_symbol
_atom_site_label
_atom_site_fract_x
_atom_site_fract_y
_atom_site_fract_z
Si Si1 0.769095 0.269095 0.250000
Si Si2 0.336324 0.078109 0.515975
Si Si3 0.776353 0.112940 0.957149
Si Si4 0.585285 0.085285 0.750000
Si Si5 0.434409 0.259790 0.334857
O O1 0.870776 0.268339 0.345289
O O2 0.689782 0.258889 0.393458
O O3 0.396631 0.165451 0.435009
O O4 0.277305 0.036759 0.355021
O O5 0.399684 0.002062 0.616685
O O6 0.680363 0.087868 0.861664
O O7 0.849533 0.164771 0.829424
O O8 0.806284 0.017960 0.055348
#
# Coordination Sequence:
#
# PCOD9558532 Si02
#       5
#     4   8   8   4   8
#     4  10  20  39  60  85 120 158 194 242 304 362
#     4  10  22  40  60  89 125 154 196 260 307 356
#     4  11  22  38  62  87 118 161 202 246 301 363
#     4  12  22  37  64  92 118 159 198 242 314 369
#     4  10  23  41  60  87 124 158 202 253 299 359
#
# _framework density 20.698753
#
# number of rings (size 3 to 8) (size 9 to 14) (size 15 to 20)
#    0.000    1.500    0.000    7.500    0.000    5.000 
#    0.000    5.000    0.000    3.000    0.000    0.000 
#    0.000    0.000    0.000    0.000    0.000    0.000 
#
# Total GULP energy -178699.153171 kJ/mol
# GULP energy per Si atom -5584.348537 kJ/mol
# Density = 2.065164 g / cm^3
# Si number density = 20.698753 Si / 1000 Ang^3
#
#
#
# Elastic Constant Matrix: (Units=GPa)
#
#
# Indices 1 2 3 4 5 6 
#
# 1 77.7462 26.9076 22.5097 0.0000 0.0000 0.0000
# 2 26.9076 77.7462 22.5097 0.0000 0.0000 0.0000
# 3 22.5097 22.5097 104.0523 0.0000 0.0000 0.0000
# 4 0.0000 0.0000 0.0000 20.5898 0.0000 0.0000
# 5 0.0000 0.0000 0.0000 0.0000 20.5898 0.0000
# 6 0.0000 0.0000 0.0000 0.0000 0.0000 21.1789
#
#
#
# Elastic Compliance Matrix: (Units=1/GPa)
#
#
# Indices 1 2 3 4 5 6 
#
# 1 0.015103 -0.004567 -0.002279 0.000000 0.000000 0.000000
# 2 -0.004567 0.015103 -0.002279 0.000000 0.000000 0.000000
# 3 -0.002279 -0.002279 0.010597 0.000000 0.000000 0.000000
# 4 0.000000 0.000000 0.000000 0.048568 0.000000 0.000000
# 5 0.000000 0.000000 0.000000 0.000000 0.048568 0.000000
# 6 0.000000 0.000000 0.000000 0.000000 0.000000 0.047217
#
#
# Mechanical properties :
#
#
# Convention : Reuss Voigt Hill
#
# Bulk Modulus (GPa) = 44.34317 44.82206 44.58262
# Shear Modulus (GPa) = 23.70535 24.97958 24.34247
#
# Velocity S-wave (km/s) = 3.38783 3.47769 3.43306
# Velocity P-wave (km/s) = 6.06406 6.15039 6.10738
#
# Compressibility (1/GPa) = 0.02255139
#
# Stress axis : x y z
#
# Youngs Moduli (GPa) = 66.21236 66.21237 94.36927
#
# Poissons Ratio (x) = 0.30240 0.21509
# Poissons Ratio (y) = 0.30240 0.21509
# Poissons Ratio (z) = 0.15091 0.15091
#
# Static dielectric constant tensor:
#      x y z
#    x 1.757650 0.000000 0.000000 
#    y 0.000000 1.757650 0.000000 
#    z 0.000000 0.000000 1.773000 
# 
# From -- ./inp_files/1659.got.cif
#   From: 2010.05.17/outbox.cif.g08.bks.cpg/sg118_1_cif.got.tgz:1659.got - 2010.05.20 11:17:24.
