data_PCOD9558536
_publ_section_title
;
Structure prediction by ZEFSAII (Michael W. Deem and Ramdas Pophale) SiO2 
 PCOD9558536
Probable space group: P -4 N 2
;
_chemical_formula_sum "Si O2"
_cell_formula_units_Z 58
_cell_length_a 18.974741
_cell_length_b 18.974741
_cell_length_c 8.879139
_cell_angle_alpha 90.000000
_cell_angle_beta 90.000000
_cell_angle_gamma 90.000000
_cell_volume 3196.852274
_symmetry_space_group_name_H-M "P -4 N 2"
_symmetry_group_IT_number 118
_symmetry_cell_setting 'tetragonal'
loop_
_space_group_symop_operation_xyz
x,y,z
y,-x,-z
-x,-y,z
-y,x,-z
1/2+y,1/2+x,1/2-z
1/2-y,1/2-x,1/2-z
1/2-x,1/2+y,1/2+z
1/2+x,1/2-y,1/2+z
loop_
_atom_site_type_symbol
_atom_site_label
_atom_site_fract_x
_atom_site_fract_y
_atom_site_fract_z
Si Si1 0.420689 0.253330 0.611198
Si Si2 0.288671 0.838823 0.557285
Si Si3 0.427014 0.304243 0.958914
Si Si4 0.817795 0.078354 0.386681
Si Si5 0.921556 0.735310 0.127729
Si Si6 0.500000 0.500000 0.500000
Si Si7 0.686473 0.796468 0.078282
Si Si8 0.406069 0.627338 0.444076
O O1 0.423780 0.276849 0.786494
O O2 0.497208 0.218357 0.594022
O O3 0.357091 0.206621 0.542823
O O4 0.407760 0.329446 0.533713
O O5 0.254227 0.881415 0.423189
O O6 0.275409 0.889027 0.703971
O O7 0.368686 0.815080 0.536940
O O8 0.246364 0.764858 0.572766
O O9 0.380676 0.375414 0.960718
O O10 0.502233 0.316471 0.035337
O O11 0.385469 0.243182 0.043304
O O12 0.828864 0.084470 0.208754
O O13 0.916265 0.817659 0.080097
O O14 0.461152 0.564224 0.419600
O O15 0.679825 0.820176 0.250000
#
# Coordination Sequence:
#
# PCOD9558536 Si02
#       8
#     8   8   8   8   8   2   8   8
#     4  11  21  38  58  87 121 160 202 255 316 372
#     4  10  20  39  62  88 118 158 210 261 306 373
#     4  10  23  38  57  85 126 160 205 248 312 377
#     4  10  23  38  58  88 120 163 202 255 306 375
#     4  11  20  36  64  88 119 157 208 259 313 366
#     4  12  24  36  52  94 132 172 200 242 316 404
#     4  11  21  36  61  86 118 160 207 252 306 371
#     4  11  23  35  57  85 126 168 199 250 304 380
#
# _framework density 18.142845999999999
#
# number of rings (size 3 to 8) (size 9 to 14) (size 15 to 20)
#    0.000    1.379    5.517    0.414    1.931    5.241 
#    0.000    0.000    0.000    0.828    0.000    0.966 
#    0.000    0.000    0.000    0.000    0.000    0.000 
#
# Total GULP energy -323039.817798 kJ/mol
# GULP energy per Si atom -5569.652031 kJ/mol
# Density = 1.810155 g / cm^3
# Si number density = 18.142846 Si / 1000 Ang^3
#
#
#
# Elastic Constant Matrix: (Units=GPa)
#
#
# Indices 1 2 3 4 5 6 
#
# 1 116.6372 59.5492 32.2453 0.0000 0.0000 0.0000
# 2 59.5492 116.6370 32.2454 0.0000 0.0000 0.0000
# 3 32.2453 32.2454 34.8142 0.0000 0.0000 0.0000
# 4 0.0000 0.0000 0.0000 16.1645 0.0000 0.0000
# 5 0.0000 0.0000 0.0000 0.0000 16.1645 0.0000
# 6 0.0000 0.0000 0.0000 0.0000 0.0000 32.2890
#
#
#
# Elastic Compliance Matrix: (Units=1/GPa)
#
#
# Indices 1 2 3 4 5 6 
#
# 1 0.013052 -0.004465 -0.007953 0.000000 0.000000 0.000000
# 2 -0.004465 0.013052 -0.007954 0.000000 0.000000 0.000000
# 3 -0.007953 -0.007954 0.043457 0.000000 0.000000 0.000000
# 4 0.000000 0.000000 0.000000 0.061864 0.000000 0.000000
# 5 0.000000 0.000000 0.000000 0.000000 0.061864 0.000000
# 6 0.000000 0.000000 0.000000 0.000000 0.000000 0.030970
#
#
# Mechanical properties :
#
#
# Convention : Reuss Voigt Hill
#
# Bulk Modulus (GPa) = 34.70120 57.35203 46.02661
# Shear Modulus (GPa) = 18.20774 22.52685 20.36730
#
# Velocity S-wave (km/s) = 3.17137 3.52751 3.35417
# Velocity P-wave (km/s) = 5.70774 6.94774 6.35804
#
# Compressibility (1/GPa) = 0.02881744
#
# Stress axis : x y z
#
# Youngs Moduli (GPa) = 76.61698 76.61670 23.01117
#
# Poissons Ratio (x) = 0.34209 0.18302
# Poissons Ratio (y) = 0.34209 0.18302
# Poissons Ratio (z) = 0.60937 0.60937
#
# Static dielectric constant tensor:
#      x y z
#    x 1.642020 0.000000 0.000000 
#    y 0.000000 1.642020 0.000000 
#    z 0.000000 0.000000 1.692870 
# 
# From -- ./inp_files/2238.got.cif
#   From: 2010.05.17/outbox.cif.g08.bks.cpg/sg118_2_cif.got.tgz:2238.got - 2010.05.20 11:17:24.
