data_PCOD9558784
_publ_section_title
;
Structure prediction by ZEFSAII (Michael W. Deem and Ramdas Pophale) SiO2 
 PCOD9558784
Probable space group: P -4 N 2
;
_chemical_formula_sum "Si O2"
_cell_formula_units_Z 40
_cell_length_a 19.215037
_cell_length_b 19.215037
_cell_length_c 5.045693
_cell_angle_alpha 90.000000
_cell_angle_beta 90.000000
_cell_angle_gamma 90.000000
_cell_volume 1862.958896
_symmetry_space_group_name_H-M "P -4 N 2"
_symmetry_group_IT_number 118
_symmetry_cell_setting 'tetragonal'
loop_
_space_group_symop_operation_xyz
x,y,z
y,-x,-z
-x,-y,z
-y,x,-z
1/2+y,1/2+x,1/2-z
1/2-y,1/2-x,1/2-z
1/2-x,1/2+y,1/2+z
1/2+x,1/2-y,1/2+z
loop_
_atom_site_type_symbol
_atom_site_label
_atom_site_fract_x
_atom_site_fract_y
_atom_site_fract_z
Si Si1 0.183326 0.587315 0.879757
Si Si2 0.273167 0.564225 0.383971
Si Si3 0.041593 0.393637 0.491508
Si Si4 0.086062 0.242066 0.279133
Si Si5 0.289595 0.326210 0.714182
O O1 0.158922 0.658922 0.750000
O O2 0.234112 0.553255 0.662270
O O3 0.220392 0.592253 0.159343
O O4 0.117905 0.538159 0.933846
O O5 0.295758 0.487861 0.282638
O O6 0.322098 0.631500 0.399700
O O7 0.055349 0.444652 0.250000
O O8 0.066402 0.318093 0.389341
O O9 0.082327 0.417674 0.750000
O O10 0.134089 0.208167 0.504850
O O11 0.128365 0.250005 0.007146
O O12 0.245358 0.254643 0.750000
#
# Coordination Sequence:
#
# PCOD9558784 Si02
#       5
#     8   8   8   8   8
#     4  11  22  38  57  81 119 162 201 245 299 362
#     4  11  24  41  61  88 124 159 194 254 324 367
#     4  11  21  36  56  81 117 158 200 244 294 355
#     4  11  23  39  60  86 121 156 191 251 317 362
#     4  12  23  38  66  95 118 154 211 258 294 368
#
# _framework density 21.471219999999999
#
# number of rings (size 3 to 8) (size 9 to 14) (size 15 to 20)
#    0.000    0.800    0.000   11.400    0.000    0.400 
#    0.000    3.000    0.000    3.600    0.000    0.000 
#    0.000    0.000    0.000    0.000    0.000    0.000 
#
# Total GULP energy -223631.391037 kJ/mol
# GULP energy per Si atom -5590.784776 kJ/mol
# Density = 2.142235 g / cm^3
# Si number density = 21.471220 Si / 1000 Ang^3
#
#
#
# Elastic Constant Matrix: (Units=GPa)
#
#
# Indices 1 2 3 4 5 6 
#
# 1 51.4289 5.8572 25.2141 0.0000 0.0000 0.0000
# 2 5.8572 51.4306 25.2135 0.0000 0.0000 0.0000
# 3 25.2141 25.2135 87.1098 0.0000 0.0000 0.0000
# 4 0.0000 0.0000 0.0000 44.3003 0.0000 0.0000
# 5 0.0000 0.0000 0.0000 0.0000 44.3016 0.0000
# 6 0.0000 0.0000 0.0000 0.0000 0.0000 19.5899
#
#
#
# Elastic Compliance Matrix: (Units=1/GPa)
#
#
# Indices 1 2 3 4 5 6 
#
# 1 0.022684 0.000741 -0.006780 0.000000 0.000000 0.000000
# 2 0.000741 0.022683 -0.006780 0.000000 0.000000 0.000000
# 3 -0.006780 -0.006780 0.015405 0.000000 0.000000 0.000000
# 4 0.000000 0.000000 0.000000 0.022573 0.000000 0.000000
# 5 0.000000 0.000000 0.000000 0.000000 0.022573 0.000000
# 6 0.000000 0.000000 0.000000 0.000000 0.000000 0.051047
#
#
# Mechanical properties :
#
#
# Convention : Reuss Voigt Hill
#
# Bulk Modulus (GPa) = 28.46340 33.61542 31.03941
# Shear Modulus (GPa) = 25.73146 30.55067 28.14107
#
# Velocity S-wave (km/s) = 3.46557 3.77618 3.62421
# Velocity P-wave (km/s) = 5.41284 5.89090 5.65693
#
# Compressibility (1/GPa) = 0.03513284
#
# Stress axis : x y z
#
# Youngs Moduli (GPa) = 44.08356 44.08561 64.91512
#
# Poissons Ratio (x) = -0.03265 0.44015
# Poissons Ratio (y) = -0.03265 0.44012
# Poissons Ratio (z) = 0.29890 0.29889
#
# Static dielectric constant tensor:
#      x y z
#    x 2.097010 0.000000 0.000000 
#    y 0.000000 2.097010 0.000000 
#    z 0.000000 0.000000 1.810970 
# 
# From -- ./inp_files/613.got.cif
#   From: 2010.05.17/outbox.cif.g08.bks.cpg/sg118_1_cif.got.tgz:613.got - 2010.05.20 11:17:24.
