data_PCOD9558906
_publ_section_title
;
Structure prediction by ZEFSAII (Michael W. Deem and Ramdas Pophale) SiO2 
 PCOD9558906
Probable space group: P -4 N 2
;
_chemical_formula_sum "Si O2"
_cell_formula_units_Z 30
_cell_length_a 10.895234
_cell_length_b 10.895234
_cell_length_c 10.789347
_cell_angle_alpha 90.000000
_cell_angle_beta 90.000000
_cell_angle_gamma 90.000000
_cell_volume 1280.761562
_symmetry_space_group_name_H-M "P -4 N 2"
_symmetry_group_IT_number 118
_symmetry_cell_setting 'tetragonal'
loop_
_space_group_symop_operation_xyz
x,y,z
y,-x,-z
-x,-y,z
-y,x,-z
1/2+y,1/2+x,1/2-z
1/2-y,1/2-x,1/2-z
1/2-x,1/2+y,1/2+z
1/2+x,1/2-y,1/2+z
loop_
_atom_site_type_symbol
_atom_site_label
_atom_site_fract_x
_atom_site_fract_y
_atom_site_fract_z
Si Si1 0.856714 0.356714 0.250000
Si Si2 0.154898 0.237582 0.939227
Si Si3 0.432692 0.367324 0.322856
Si Si4 0.567842 0.264402 0.886176
Si Si5 0.500000 0.500000 0.000000
O O1 0.824782 0.262988 0.139218
O O2 0.827860 0.490305 0.197505
O O3 0.036542 0.233528 0.850060
O O4 0.123925 0.152177 0.056693
O O5 0.197356 0.363855 0.002113
O O6 0.500000 0.500000 0.308441
O O7 0.346683 0.346030 0.203849
O O8 0.476005 0.371127 0.933175
#
# Coordination Sequence:
#
# PCOD9558906 Si02
#       5
#     4   8   8   8   2
#     4  12  24  42  73 112 147 192 248 318 381 438
#     4  12  24  43  73 108 143 197 251 305 375 461
#     4  12  22  46  75 100 142 203 248 293 379 459
#     4  12  25  43  75 113 151 194 257 311 382 458
#     4  12  20  44  72 106 144 200 244 316 382 460
#
# _framework density 23.423563999999999
#
# number of rings (size 3 to 8) (size 9 to 14) (size 15 to 20)
#    0.000    0.000    9.333    0.800    0.000    0.000 
#    0.000   10.667    0.000    0.000    0.000    0.000 
#    0.000    0.000    0.000    0.000    0.000    0.000 
#
# Total GULP energy -167826.227673 kJ/mol
# GULP energy per Si atom -5594.207589 kJ/mol
# Density = 2.337025 g / cm^3
# Si number density = 23.423564 Si / 1000 Ang^3
#
#
#
# Elastic Constant Matrix: (Units=GPa)
#
#
# Indices 1 2 3 4 5 6 
#
# 1 76.7003 65.1171 27.1562 0.0000 0.0000 0.0000
# 2 65.1171 76.7003 27.1562 0.0000 0.0000 0.0000
# 3 27.1562 27.1562 81.6155 0.0000 0.0000 0.0000
# 4 0.0000 0.0000 0.0000 39.6630 0.0000 0.0000
# 5 0.0000 0.0000 0.0000 0.0000 39.6630 0.0000
# 6 0.0000 0.0000 0.0000 0.0000 0.0000 46.6436
#
#
#
# Elastic Compliance Matrix: (Units=1/GPa)
#
#
# Indices 1 2 3 4 5 6 
#
# 1 0.047206 -0.039125 -0.002689 0.000000 0.000000 0.000000
# 2 -0.039125 0.047206 -0.002689 0.000000 0.000000 0.000000
# 3 -0.002689 -0.002689 0.014042 0.000000 0.000000 0.000000
# 4 0.000000 0.000000 0.000000 0.025212 0.000000 0.000000
# 5 0.000000 0.000000 0.000000 0.000000 0.025212 0.000000
# 6 0.000000 0.000000 0.000000 0.000000 0.000000 0.021439
#
#
# Mechanical properties :
#
#
# Convention : Reuss Voigt Hill
#
# Bulk Modulus (GPa) = 51.41737 52.65282 52.03509
# Shear Modulus (GPa) = 18.12855 32.89967 25.51411
#
# Velocity S-wave (km/s) = 2.78500 3.75180 3.30396
# Velocity P-wave (km/s) = 5.68687 6.42615 6.06778
#
# Compressibility (1/GPa) = 0.01944868
#
# Stress axis : x y z
#
# Youngs Moduli (GPa) = 21.18353 21.18353 71.21531
#
# Poissons Ratio (x) = 0.82881 0.19149
# Poissons Ratio (y) = 0.82881 0.19149
# Poissons Ratio (z) = 0.05696 0.05696
#
# Static dielectric constant tensor:
#      x y z
#    x 1.933750 0.000000 0.000000 
#    y 0.000000 1.933750 0.000000 
#    z 0.000000 0.000000 1.964020 
# 
# From -- ./inp_files/2820.got.cif
#   From: 2010.05.17/outbox.cif.g08.bks.cpg/sg118_2_cif.got.tgz:2820.got - 2010.05.20 11:17:24.
