data_PCOD9558392
_publ_section_title
;
Structure prediction by ZEFSAII (Michael W. Deem and Ramdas Pophale) SiO2 
 PCOD9558392
Probable space group: P -4 N 2
;
_chemical_formula_sum "Si O2"
_cell_formula_units_Z 42
_cell_length_a 22.094462
_cell_length_b 22.094462
_cell_length_c 5.269189
_cell_angle_alpha 90.000000
_cell_angle_beta 90.000000
_cell_angle_gamma 90.000000
_cell_volume 2572.234971
_symmetry_space_group_name_H-M "P -4 N 2"
_symmetry_group_IT_number 118
_symmetry_cell_setting 'tetragonal'
loop_
_space_group_symop_operation_xyz
x,y,z
y,-x,-z
-x,-y,z
-y,x,-z
1/2+y,1/2+x,1/2-z
1/2-y,1/2-x,1/2-z
1/2-x,1/2+y,1/2+z
1/2+x,1/2-y,1/2+z
loop_
_atom_site_type_symbol
_atom_site_label
_atom_site_fract_x
_atom_site_fract_y
_atom_site_fract_z
Si Si1 0.865016 0.492376 0.145529
Si Si2 0.562854 0.162701 0.334898
Si Si3 0.500000 0.000000 0.750000
Si Si4 0.787575 0.379552 0.032569
Si Si5 0.269084 0.826105 0.997085
Si Si6 0.348213 0.253512 0.471296
O O1 0.855391 0.520141 0.427215
O O2 0.840881 0.424666 0.110221
O O3 0.937057 0.497899 0.095549
O O4 0.828456 0.527448 0.926765
O O5 0.610080 0.110080 0.250000
O O6 0.604885 0.217617 0.429419
O O7 0.739846 0.380355 0.260094
O O8 0.756820 0.392434 0.763546
O O9 0.812907 0.311123 0.000715
O O10 0.309212 0.809212 0.750000
O O11 0.201661 0.804830 0.929704
O O12 0.288689 0.788689 0.250000
#
# Coordination Sequence:
#
# PCOD9558392 Si02
#       6
#     8   8   2   8   8   8
#     4  12  24  37  49  65  99 135 186 219 257 288
#     4  11  22  38  49  69  90 131 175 225 252 302
#     4  12  24  38  48  62  88 146 196 234 244 266
#     4  10  19  31  48  68  95 118 151 213 257 308
#     4  11  18  32  57  71  95 113 156 230 265 315
#     4  10  17  33  49  78  88 113 162 205 274 316
#
# _framework density 16.328211
#
# number of rings (size 3 to 8) (size 9 to 14) (size 15 to 20)
#    0.000    1.143    5.714    4.571    0.000    3.048 
#    0.000    0.000    0.000    0.000    0.000    0.000 
#    0.000    0.000    0.000    0.000    0.000   66.667 
#
# Total GULP energy -233913.766538 kJ/mol
# GULP energy per Si atom -5569.375394 kJ/mol
# Density = 1.629105 g / cm^3
# Si number density = 16.328211 Si / 1000 Ang^3
#
#
#
# Elastic Constant Matrix: (Units=GPa)
#
#
# Indices 1 2 3 4 5 6 
#
# 1 47.2313 36.1787 15.1074 0.0000 0.0000 0.0000
# 2 36.1787 47.2313 15.1074 0.0000 0.0000 0.0000
# 3 15.1074 15.1074 131.4433 0.0000 0.0000 0.0000
# 4 0.0000 0.0000 0.0000 24.2991 0.0000 0.0000
# 5 0.0000 0.0000 0.0000 0.0000 24.2991 0.0000
# 6 0.0000 0.0000 0.0000 0.0000 0.0000 25.6124
#
#
#
# Elastic Compliance Matrix: (Units=1/GPa)
#
#
# Indices 1 2 3 4 5 6 
#
# 1 0.051493 -0.038983 -0.001438 0.000000 0.000000 0.000000
# 2 -0.038983 0.051493 -0.001438 0.000000 0.000000 0.000000
# 3 -0.001438 -0.001438 0.007938 0.000000 0.000000 0.000000
# 4 0.000000 0.000000 0.000000 0.041154 0.000000 0.000000
# 5 0.000000 0.000000 0.000000 0.000000 0.041154 0.000000
# 6 0.000000 0.000000 0.000000 0.000000 0.000000 0.039044
#
#
# Mechanical properties :
#
#
# Convention : Reuss Voigt Hill
#
# Bulk Modulus (GPa) = 36.75559 39.85474 38.30517
# Shear Modulus (GPa) = 15.38168 25.47629 20.42898
#
# Velocity S-wave (km/s) = 3.07258 3.95430 3.54099
# Velocity P-wave (km/s) = 5.92849 6.73128 6.34260
#
# Compressibility (1/GPa) = 0.02720675
#
# Stress axis : x y z
#
# Youngs Moduli (GPa) = 19.42011 19.42011 125.97076
#
# Poissons Ratio (x) = 0.75706 0.18112
# Poissons Ratio (y) = 0.75706 0.18112
# Poissons Ratio (z) = 0.02792 0.02792
#
# Static dielectric constant tensor:
#      x y z
#    x 1.507370 0.000000 0.000000 
#    y 0.000000 1.507370 0.000000 
#    z 0.000000 0.000000 1.579170 
# 
# From -- ./inp_files/783.got.cif
#   From: 2010.05.17/outbox.cif.g08.bks.cpg/sg118_1_cif.got.tgz:783.got - 2010.05.20 11:17:24.
