data_PCOD9558810
_publ_section_title
;
Structure prediction by ZEFSAII (Michael W. Deem and Ramdas Pophale) SiO2 
 PCOD9558810
Probable space group: P -4 N 2
;
_chemical_formula_sum "Si O2"
_cell_formula_units_Z 34
_cell_length_a 11.774202
_cell_length_b 11.774202
_cell_length_c 10.186273
_cell_angle_alpha 90.000000
_cell_angle_beta 90.000000
_cell_angle_gamma 90.000000
_cell_volume 1412.141695
_symmetry_space_group_name_H-M "P -4 N 2"
_symmetry_group_IT_number 118
_symmetry_cell_setting 'tetragonal'
loop_
_space_group_symop_operation_xyz
x,y,z
y,-x,-z
-x,-y,z
-y,x,-z
1/2+y,1/2+x,1/2-z
1/2-y,1/2-x,1/2-z
1/2-x,1/2+y,1/2+z
1/2+x,1/2-y,1/2+z
loop_
_atom_site_type_symbol
_atom_site_label
_atom_site_fract_x
_atom_site_fract_y
_atom_site_fract_z
Si Si1 0.611473 0.427611 0.212032
Si Si2 0.500000 0.500000 0.500000
Si Si3 0.741154 0.567658 0.028648
Si Si4 0.398652 0.090997 0.105779
Si Si5 0.903413 0.775449 0.967998
O O1 0.500000 0.500000 0.243920
O O2 0.586720 0.358921 0.076987
O O3 0.630567 0.332585 0.325963
O O4 0.703288 0.522536 0.170552
O O5 0.385838 0.435101 0.449115
O O6 0.812407 0.459762 0.975631
O O7 0.812731 0.684886 0.021581
O O8 0.366356 0.133645 0.250000
O O9 0.500000 0.000000 0.119685
O O10 0.296671 0.019241 0.046861
#
# Coordination Sequence:
#
# PCOD9558810 Si02
#       5
#     8   2   8   8   8
#     4  12  22  40  66 103 140 181 248 309 377 462
#     4  12  28  44  64  98 144 200 244 316 392 454
#     4  11  22  40  69 102 137 190 251 313 378 466
#     4   9  18  36  64  95 129 178 236 295 368 450
#     4  11  25  44  64  98 148 191 245 315 387 463
#
# _framework density 24.076902
#
# number of rings (size 3 to 8) (size 9 to 14) (size 15 to 20)
#    0.000    1.176    5.882    0.706    3.294    0.000 
#    0.000    1.176    0.000    0.000    0.000    0.000 
#    0.000    0.000    0.000    0.000    0.000    0.000 
#
# Total GULP energy -189679.806688 kJ/mol
# GULP energy per Si atom -5578.817844 kJ/mol
# Density = 2.402210 g / cm^3
# Si number density = 24.076902 Si / 1000 Ang^3
#
#
#
# Elastic Constant Matrix: (Units=GPa)
#
#
# Indices 1 2 3 4 5 6 
#
# 1 177.6979 66.7222 54.5375 0.0000 0.0000 0.0000
# 2 66.7222 177.6975 54.5375 0.0000 0.0000 0.0000
# 3 54.5375 54.5375 82.9898 0.0000 0.0000 0.0000
# 4 0.0000 0.0000 0.0000 32.4449 0.0000 0.0000
# 5 0.0000 0.0000 0.0000 0.0000 32.4454 0.0000
# 6 0.0000 0.0000 0.0000 0.0000 0.0000 177.5136
#
#
#
# Elastic Compliance Matrix: (Units=1/GPa)
#
#
# Indices 1 2 3 4 5 6 
#
# 1 0.007400 -0.001611 -0.003804 0.000000 0.000000 0.000000
# 2 -0.001611 0.007400 -0.003804 0.000000 0.000000 0.000000
# 3 -0.003804 -0.003804 0.017050 0.000000 0.000000 0.000000
# 4 0.000000 0.000000 0.000000 0.030822 0.000000 0.000000
# 5 0.000000 0.000000 0.000000 0.000000 0.030821 0.000000
# 6 0.000000 0.000000 0.000000 0.000000 0.000000 0.005633
#
#
# Mechanical properties :
#
#
# Convention : Reuss Voigt Hill
#
# Bulk Modulus (GPa) = 74.56811 87.77551 81.17181
# Shear Modulus (GPa) = 40.97180 65.98662 53.47921
#
# Velocity S-wave (km/s) = 4.12965 5.24081 4.71806
# Velocity P-wave (km/s) = 7.33326 8.55318 7.96661
#
# Compressibility (1/GPa) = 0.01341056
#
# Stress axis : x y z
#
# Youngs Moduli (GPa) = 135.13494 135.13466 58.65186
#
# Poissons Ratio (x) = 0.21770 0.22313
# Poissons Ratio (y) = 0.21770 0.22313
# Poissons Ratio (z) = 0.51410 0.51410
#
# Static dielectric constant tensor:
#      x y z
#    x 1.943110 0.000000 0.000000 
#    y 0.000000 1.943110 0.000000 
#    z 0.000000 0.000000 0.626220 
# 
# From -- ./inp_files/2940.got.cif
#   From: 2010.05.17/outbox.cif.g08.bks.cpg/sg118_2_cif.got.tgz:2940.got - 2010.05.20 11:17:24.
