data_PCOD9558763
_publ_section_title
;
Structure prediction by ZEFSAII (Michael W. Deem and Ramdas Pophale) SiO2 
 PCOD9558763
Probable space group: P -4 N 2
;
_chemical_formula_sum "Si O2"
_cell_formula_units_Z 48
_cell_length_a 11.955532
_cell_length_b 11.955532
_cell_length_c 16.221328
_cell_angle_alpha 90.000000
_cell_angle_beta 90.000000
_cell_angle_gamma 90.000000
_cell_volume 2318.591388
_symmetry_space_group_name_H-M "P -4 N 2"
_symmetry_group_IT_number 118
_symmetry_cell_setting 'tetragonal'
loop_
_space_group_symop_operation_xyz
x,y,z
y,-x,-z
-x,-y,z
-y,x,-z
1/2+y,1/2+x,1/2-z
1/2-y,1/2-x,1/2-z
1/2-x,1/2+y,1/2+z
1/2+x,1/2-y,1/2+z
loop_
_atom_site_type_symbol
_atom_site_label
_atom_site_fract_x
_atom_site_fract_y
_atom_site_fract_z
Si Si1 0.743028 0.627880 0.466575
Si Si2 0.270793 0.629081 0.998678
Si Si3 0.032978 0.620686 0.920079
Si Si4 0.755194 0.561904 0.723738
Si Si5 0.877123 0.044693 0.381650
Si Si6 0.878713 0.941501 0.892384
O O1 0.788174 0.751826 0.452814
O O2 0.831515 0.566209 0.524169
O O3 0.629231 0.637702 0.522575
O O4 0.709442 0.543142 0.394029
O O5 0.140591 0.610763 0.978608
O O6 0.336181 0.526852 0.958967
O O7 0.325273 0.635221 0.089982
O O8 0.000000 0.500000 0.887639
O O9 0.031824 0.702343 0.840950
O O10 0.853434 0.646567 0.750000
O O11 0.704817 0.515452 0.807415
O O12 0.652334 0.625556 0.678099
O O13 0.000000 0.000000 0.360547
O O14 0.000000 0.000000 0.889401
#
# Coordination Sequence:
#
# PCOD9558763 Si02
#       6
#     8   8   8   8   8   8
#     4  11  19  35  63  98 131 166 216 283 332 402
#     4  12  22  42  66  95 134 176 229 281 335 411
#     4  11  24  39  67 103 134 174 223 285 351 398
#     4  11  25  42  64  97 140 175 221 286 357 405
#     4  12  25  45  67  92 132 186 234 274 336 429
#     4  11  18  37  62  96 127 166 218 271 331 404
#
# _framework density 20.702223
#
# number of rings (size 3 to 8) (size 9 to 14) (size 15 to 20)
#    0.000    0.667    5.000    5.500    0.000    2.333 
#    0.000    0.000    0.000    0.000    0.000    2.333 
#    0.000    0.000    0.000    0.000    0.000    0.000 
#
# Total GULP energy -267846.268455 kJ/mol
# GULP energy per Si atom -5580.130593 kJ/mol
# Density = 2.065510 g / cm^3
# Si number density = 20.702223 Si / 1000 Ang^3
#
#
#
# Elastic Constant Matrix: (Units=GPa)
#
#
# Indices 1 2 3 4 5 6 
#
# 1 91.2416 9.8325 8.5391 0.0000 0.0000 0.0000
# 2 9.8325 91.2419 8.5392 0.0000 0.0000 0.0000
# 3 8.5391 8.5392 39.7935 0.0000 0.0000 0.0000
# 4 0.0000 0.0000 0.0000 19.2215 0.0000 0.0000
# 5 0.0000 0.0000 0.0000 0.0000 19.2217 0.0000
# 6 0.0000 0.0000 0.0000 0.0000 0.0000 9.4211
#
#
#
# Elastic Compliance Matrix: (Units=1/GPa)
#
#
# Indices 1 2 3 4 5 6 
#
# 1 0.011275 -0.001009 -0.002203 0.000000 0.000000 0.000000
# 2 -0.001009 0.011275 -0.002203 0.000000 0.000000 0.000000
# 3 -0.002203 -0.002203 0.026075 0.000000 0.000000 0.000000
# 4 0.000000 0.000000 0.000000 0.052025 0.000000 0.000000
# 5 0.000000 0.000000 0.000000 0.000000 0.052025 0.000000
# 6 0.000000 0.000000 0.000000 0.000000 0.000000 0.106144
#
#
# Mechanical properties :
#
#
# Convention : Reuss Voigt Hill
#
# Bulk Modulus (GPa) = 26.45831 30.67762 28.56797
# Shear Modulus (GPa) = 17.71500 22.59728 20.15614
#
# Velocity S-wave (km/s) = 2.92842 3.30743 3.12368
# Velocity P-wave (km/s) = 4.92365 5.42551 5.18066
#
# Compressibility (1/GPa) = 0.03779531
#
# Stress axis : x y z
#
# Youngs Moduli (GPa) = 88.69341 88.69372 38.35070
#
# Poissons Ratio (x) = 0.08948 0.08448
# Poissons Ratio (y) = 0.08948 0.08448
# Poissons Ratio (z) = 0.19539 0.19539
#
# Static dielectric constant tensor:
#      x y z
#    x 1.780160 0.000000 0.000000 
#    y 0.000000 1.780160 0.000000 
#    z 0.000000 0.000000 1.764550 
# 
# From -- ./inp_files/4923.got.cif
#   From: 2010.05.17/outbox.cif.g08.bks.cpg/sg118_3_cif.got.tgz:4923.got - 2010.05.20 11:17:24.
