data_PCOD9558801
_publ_section_title
;
Structure prediction by ZEFSAII (Michael W. Deem and Ramdas Pophale) SiO2 
 PCOD9558801
Probable space group: P -4 N 2
;
_chemical_formula_sum "Si O2"
_cell_formula_units_Z 48
_cell_length_a 8.777904
_cell_length_b 8.777904
_cell_length_c 26.302833
_cell_angle_alpha 90.000000
_cell_angle_beta 90.000000
_cell_angle_gamma 90.000000
_cell_volume 2026.675331
_symmetry_space_group_name_H-M "P -4 N 2"
_symmetry_group_IT_number 118
_symmetry_cell_setting 'tetragonal'
loop_
_space_group_symop_operation_xyz
x,y,z
y,-x,-z
-x,-y,z
-y,x,-z
1/2+y,1/2+x,1/2-z
1/2-y,1/2-x,1/2-z
1/2-x,1/2+y,1/2+z
1/2+x,1/2-y,1/2+z
loop_
_atom_site_type_symbol
_atom_site_label
_atom_site_fract_x
_atom_site_fract_y
_atom_site_fract_z
Si Si1 0.759949 0.065723 0.009215
Si Si2 0.669076 0.169076 0.750000
Si Si3 0.535839 0.321057 0.380941
Si Si4 0.325877 0.327183 0.854357
Si Si5 0.338935 0.923674 0.584559
Si Si6 0.666823 0.778848 0.155850
Si Si7 0.167556 0.667556 0.250000
O O1 0.725798 0.018773 0.066601
O O2 0.629932 0.140992 0.974260
O O3 0.906997 0.177460 0.014203
O O4 0.689725 0.294440 0.793006
O O5 0.501446 0.178079 0.725600
O O6 0.500000 0.500000 0.384262
O O7 0.712007 0.304890 0.370272
O O8 0.452278 0.220787 0.337690
O O9 0.467477 0.293660 0.892114
O O10 0.257715 0.496027 0.860748
O O11 0.339674 0.293760 0.794007
O O12 0.293071 0.770722 0.614050
O O13 0.500000 0.000000 0.598337
#
# Coordination Sequence:
#
# PCOD9558801 Si02
#       7
#     8   4   8   8   8   8   4
#     4  11  21  43  76 109 137 189 256 312 366 454
#     4  11  24  44  75 102 140 208 261 318 371 482
#     4  12  24  48  79 110 149 205 261 318 385 473
#     4  12  28  46  72 111 158 199 249 327 399 472
#     4  12  24  46  76 107 148 203 252 313 384 469
#     4  12  26  47  74 108 158 196 258 328 397 457
#     4  11  24  46  73 104 144 204 275 300 387 472
#
# _framework density 23.684107000000001
#
# number of rings (size 3 to 8) (size 9 to 14) (size 15 to 20)
#    0.000    0.333    5.000    5.000    2.333    1.333 
#    3.000    0.000    0.000    0.000    0.000    0.000 
#    0.000    0.000    0.000    0.000    0.000    0.000 
#
# Total GULP energy -267681.743024 kJ/mol
# GULP energy per Si atom -5576.702980 kJ/mol
# Density = 2.363020 g / cm^3
# Si number density = 23.684107 Si / 1000 Ang^3
#
#
#
# Elastic Constant Matrix: (Units=GPa)
#
#
# Indices 1 2 3 4 5 6 
#
# 1 94.2839 34.3653 34.7054 0.0000 0.0000 0.0000
# 2 34.3653 94.2839 34.7054 0.0000 0.0000 0.0000
# 3 34.7054 34.7054 87.0265 0.0000 0.0000 0.0000
# 4 0.0000 0.0000 0.0000 29.5630 0.0000 0.0000
# 5 0.0000 0.0000 0.0000 0.0000 29.5630 0.0000
# 6 0.0000 0.0000 0.0000 0.0000 0.0000 40.0094
#
#
#
# Elastic Compliance Matrix: (Units=1/GPa)
#
#
# Indices 1 2 3 4 5 6 
#
# 1 0.013297 -0.003393 -0.003950 0.000000 0.000000 0.000000
# 2 -0.003393 0.013297 -0.003950 0.000000 0.000000 0.000000
# 3 -0.003950 -0.003950 0.014641 0.000000 0.000000 0.000000
# 4 0.000000 0.000000 0.000000 0.033826 0.000000 0.000000
# 5 0.000000 0.000000 0.000000 0.000000 0.033826 0.000000
# 6 0.000000 0.000000 0.000000 0.000000 0.000000 0.024994
#
#
# Mechanical properties :
#
#
# Convention : Reuss Voigt Hill
#
# Bulk Modulus (GPa) = 53.61808 53.68296 53.65052
# Shear Modulus (GPa) = 30.73496 31.28164 31.00830
#
# Velocity S-wave (km/s) = 3.60627 3.63820 3.62227
# Velocity P-wave (km/s) = 6.32679 6.35328 6.34005
#
# Compressibility (1/GPa) = 0.01865042
#
# Stress axis : x y z
#
# Youngs Moduli (GPa) = 75.20676 75.20676 68.30165
#
# Poissons Ratio (x) = 0.25515 0.26977
# Poissons Ratio (y) = 0.25515 0.26977
# Poissons Ratio (z) = 0.29704 0.29704
#
# Static dielectric constant tensor:
#      x y z
#    x 1.943210 0.000000 0.000000 
#    y 0.000000 1.943210 0.000000 
#    z 0.000000 0.000000 1.970320 
# 
# From -- ./inp_files/6891.got.cif
#   From: 2010.05.17/outbox.cif.g08.bks.cpg/sg118_4_cif.got.tgz:6891.got - 2010.05.20 11:17:24.
