data_PCOD9558541
_publ_section_title
;
Structure prediction by ZEFSAII (Michael W. Deem and Ramdas Pophale) SiO2 
 PCOD9558541
Probable space group: P -4 N 2
;
_chemical_formula_sum "Si O2"
_cell_formula_units_Z 38
_cell_length_a 18.046142
_cell_length_b 18.046142
_cell_length_c 6.180436
_cell_angle_alpha 90.000000
_cell_angle_beta 90.000000
_cell_angle_gamma 90.000000
_cell_volume 2012.740819
_symmetry_space_group_name_H-M "P -4 N 2"
_symmetry_group_IT_number 118
_symmetry_cell_setting 'tetragonal'
loop_
_space_group_symop_operation_xyz
x,y,z
y,-x,-z
-x,-y,z
-y,x,-z
1/2+y,1/2+x,1/2-z
1/2-y,1/2-x,1/2-z
1/2-x,1/2+y,1/2+z
1/2+x,1/2-y,1/2+z
loop_
_atom_site_type_symbol
_atom_site_label
_atom_site_fract_x
_atom_site_fract_y
_atom_site_fract_z
Si Si1 0.197130 0.974651 0.384933
Si Si2 0.325195 0.724527 0.884293
Si Si3 0.405189 0.258343 0.413135
Si Si4 0.500000 0.500000 0.500000
Si Si5 0.296475 0.203525 0.750000
Si Si6 0.441552 0.381574 0.752359
O O1 0.228435 0.911073 0.545523
O O2 0.133031 0.930140 0.256625
O O3 0.254192 0.023232 0.241191
O O4 0.151143 0.035193 0.520176
O O5 0.295820 0.795820 0.750000
O O6 0.299852 0.657875 0.726756
O O7 0.278113 0.708358 0.104157
O O8 0.361040 0.200029 0.566925
O O9 0.433765 0.315567 0.588481
O O10 0.507302 0.432051 0.660881
#
# Coordination Sequence:
#
# PCOD9558541 Si02
#       6
#     8   8   8   2   4   8
#     4  12  21  34  49  80 107 153 200 247 288 352
#     4  10  22  37  55  73 106 154 199 233 299 360
#     4  11  21  35  54  75 108 153 208 242 293 347
#     4  12  20  30  44  68 118 152 188 242 288 332
#     4  10  20  40  54  74 104 162 202 248 292 346
#     4  12  22  32  48  77 114 152 199 237 279 340
#
# _framework density 18.879728
#
# number of rings (size 3 to 8) (size 9 to 14) (size 15 to 20)
#    0.000    0.842    6.316    2.526    0.000    0.000 
#    0.000    0.000    0.000    0.000    0.000    0.000 
#    0.000    0.000    0.000  319.263    0.000    0.000 
#
# Total GULP energy -211622.545858 kJ/mol
# GULP energy per Si atom -5569.014365 kJ/mol
# Density = 1.883676 g / cm^3
# Si number density = 18.879728 Si / 1000 Ang^3
#
#
#
# Elastic Constant Matrix: (Units=GPa)
#
#
# Indices 1 2 3 4 5 6 
#
# 1 53.9117 25.2171 20.1755 0.0000 0.0000 0.0000
# 2 25.2171 53.9117 20.1755 0.0000 0.0000 0.0000
# 3 20.1755 20.1755 68.5998 0.0000 0.0000 0.0000
# 4 0.0000 0.0000 0.0000 28.7952 0.0000 0.0000
# 5 0.0000 0.0000 0.0000 0.0000 28.7952 0.0000
# 6 0.0000 0.0000 0.0000 0.0000 0.0000 22.5253
#
#
#
# Elastic Compliance Matrix: (Units=1/GPa)
#
#
# Indices 1 2 3 4 5 6 
#
# 1 0.024859 -0.009991 -0.004373 0.000000 0.000000 0.000000
# 2 -0.009991 0.024859 -0.004373 0.000000 0.000000 0.000000
# 3 -0.004373 -0.004373 0.017149 0.000000 0.000000 0.000000
# 4 0.000000 0.000000 0.000000 0.034728 0.000000 0.000000
# 5 0.000000 0.000000 0.000000 0.000000 0.034728 0.000000
# 6 0.000000 0.000000 0.000000 0.000000 0.000000 0.044394
#
#
# Mechanical properties :
#
#
# Convention : Reuss Voigt Hill
#
# Bulk Modulus (GPa) = 34.02078 34.17325 34.09701
# Shear Modulus (GPa) = 21.93104 23.41349 22.67227
#
# Velocity S-wave (km/s) = 3.41195 3.52538 3.46913
# Velocity P-wave (km/s) = 5.79489 5.89159 5.84344
#
# Compressibility (1/GPa) = 0.02939380
#
# Stress axis : x y z
#
# Youngs Moduli (GPa) = 40.22761 40.22761 58.31152
#
# Poissons Ratio (x) = 0.40192 0.25497
# Poissons Ratio (y) = 0.40192 0.25497
# Poissons Ratio (z) = 0.17590 0.17590
#
# Static dielectric constant tensor:
#      x y z
#    x 1.726650 0.000000 0.000000 
#    y 0.000000 1.726650 0.000000 
#    z 0.000000 0.000000 1.743260 
# 
# From -- ./inp_files/627.got.cif
#   From: 2010.05.17/outbox.cif.g08.bks.cpg/sg118_1_cif.got.tgz:627.got - 2010.05.20 11:17:24.
