data_PCOD9558538
_publ_section_title
;
Structure prediction by ZEFSAII (Michael W. Deem and Ramdas Pophale) SiO2 
 PCOD9558538
Probable space group: P -4 N 2
;
_chemical_formula_sum "Si O2"
_cell_formula_units_Z 56
_cell_length_a 11.533373
_cell_length_b 11.533373
_cell_length_c 19.957998
_cell_angle_alpha 90.000000
_cell_angle_beta 90.000000
_cell_angle_gamma 90.000000
_cell_volume 2654.786804
_symmetry_space_group_name_H-M "P -4 N 2"
_symmetry_group_IT_number 118
_symmetry_cell_setting 'tetragonal'
loop_
_space_group_symop_operation_xyz
x,y,z
y,-x,-z
-x,-y,z
-y,x,-z
1/2+y,1/2+x,1/2-z
1/2-y,1/2-x,1/2-z
1/2-x,1/2+y,1/2+z
1/2+x,1/2-y,1/2+z
loop_
_atom_site_type_symbol
_atom_site_label
_atom_site_fract_x
_atom_site_fract_y
_atom_site_fract_z
Si Si1 0.488170 0.137167 0.503049
Si Si2 0.652763 0.614699 0.991308
Si Si3 0.673174 0.571308 0.712498
Si Si4 0.280095 0.292400 0.844191
Si Si5 0.920059 0.848879 0.172969
Si Si6 0.190366 0.217324 0.035563
Si Si7 0.627310 0.968513 0.836731
O O1 0.371266 0.208387 0.486661
O O2 0.591341 0.229744 0.486198
O O3 0.491382 0.132678 0.583489
O O4 0.500000 0.000000 0.480113
O O5 0.690925 0.662915 0.918374
O O6 0.654850 0.476959 0.993301
O O7 0.737436 0.665154 0.048120
O O8 0.674484 0.619284 0.787877
O O9 0.770477 0.643775 0.672575
O O10 0.668485 0.432565 0.711177
O O11 0.551697 0.603890 0.676948
O O12 0.338658 0.166767 0.829800
O O13 0.873430 0.841224 0.097509
O O14 0.944721 0.719004 0.196974
O O15 0.500000 0.000000 0.816664
#
# Coordination Sequence:
#
# PCOD9558538 Si02
#       7
#     8   8   8   8   8   8   8
#     4  10  21  36  58  92 133 175 210 273 340 407
#     4  11  25  41  62  91 127 172 227 275 334 414
#     4   9  20  40  62  90 124 171 220 265 325 394
#     4  10  20  39  67  86 123 175 226 267 332 406
#     4   9  20  34  58  90 128 156 209 272 321 394
#     4  11  22  35  60  92 131 167 211 269 350 403
#     4   9  18  35  60  93 128 164 211 276 338 397
#
# _framework density 21.093972999999998
#
# number of rings (size 3 to 8) (size 9 to 14) (size 15 to 20)
#    0.000    2.143    1.429    0.857    6.000    4.857 
#    0.000    5.714    3.143    0.000    0.000    2.000 
#    0.000    0.000    0.000    0.000    0.000    0.000 
#
# Total GULP energy -311775.826637 kJ/mol
# GULP energy per Si atom -5567.425476 kJ/mol
# Density = 2.104596 g / cm^3
# Si number density = 21.093973 Si / 1000 Ang^3
#
#
#
# Elastic Constant Matrix: (Units=GPa)
#
#
# Indices 1 2 3 4 5 6 
#
# 1 106.4022 47.2512 32.8349 0.0000 0.0000 0.0000
# 2 47.2512 106.4022 32.8349 0.0000 0.0000 0.0000
# 3 32.8349 32.8349 97.9569 0.0000 0.0000 0.0000
# 4 0.0000 0.0000 0.0000 -6.9737 0.0000 0.0000
# 5 0.0000 0.0000 0.0000 0.0000 -6.9737 0.0000
# 6 0.0000 0.0000 0.0000 0.0000 0.0000 30.0477
#
#
#
# Elastic Compliance Matrix: (Units=1/GPa)
#
#
# Indices 1 2 3 4 5 6 
#
# 1 0.012251 -0.004655 -0.002546 0.000000 0.000000 0.000000
# 2 -0.004655 0.012251 -0.002546 0.000000 0.000000 0.000000
# 3 -0.002546 -0.002546 0.011916 0.000000 0.000000 0.000000
# 4 0.000000 0.000000 0.000000 -0.143396 0.000000 0.000000
# 5 0.000000 0.000000 0.000000 0.000000 -0.143396 0.000000
# 6 0.000000 0.000000 0.000000 0.000000 0.000000 0.033280
#
#
# Mechanical properties :
#
#
# Convention : Reuss Voigt Hill
#
# Bulk Modulus (GPa) = 59.09036 59.62258 59.35647
# Shear Modulus (GPa) = -26.04736 16.40941 -4.81898
#
# Velocity S-wave (km/s) = -3.51782 2.79215 -1.51311
# Velocity P-wave (km/s) = 3.40201 6.22265 5.01473
#
# Compressibility (1/GPa) = 0.01692324
#
# Stress axis : x y z
#
# Youngs Moduli (GPa) = 81.62495 81.62495 83.92366
#
# Poissons Ratio (x) = 0.37994 0.21369
# Poissons Ratio (y) = 0.37994 0.21369
# Poissons Ratio (z) = 0.20784 0.20784
#
# Static dielectric constant tensor:
#      x y z
#    x 1.835490 0.000000 0.000000 
#    y 0.000000 1.835490 0.000000 
#    z 0.000000 0.000000 1.758460 
# 
# From -- ./inp_files/5731.got.cif
#   From: 2010.05.17/outbox.cif.g08.bks.cpg/sg118_3_cif.got.tgz:5731.got - 2010.05.20 11:17:24.
