data_PCOD9558841
_publ_section_title
;
Structure prediction by ZEFSAII (Michael W. Deem and Ramdas Pophale) SiO2 
 PCOD9558841
Probable space group: P -4 N 2
;
_chemical_formula_sum "Si O2"
_cell_formula_units_Z 40
_cell_length_a 9.333700
_cell_length_b 9.333700
_cell_length_c 22.495370
_cell_angle_alpha 90.000000
_cell_angle_beta 90.000000
_cell_angle_gamma 90.000000
_cell_volume 1959.750647
_symmetry_space_group_name_H-M "P -4 N 2"
_symmetry_group_IT_number 118
_symmetry_cell_setting 'tetragonal'
loop_
_space_group_symop_operation_xyz
x,y,z
y,-x,-z
-x,-y,z
-y,x,-z
1/2+y,1/2+x,1/2-z
1/2-y,1/2-x,1/2-z
1/2-x,1/2+y,1/2+z
1/2+x,1/2-y,1/2+z
loop_
_atom_site_type_symbol
_atom_site_label
_atom_site_fract_x
_atom_site_fract_y
_atom_site_fract_z
Si Si1 0.911810 0.781851 0.496177
Si Si2 0.850459 0.923847 0.831446
Si Si3 0.909488 0.143974 0.305347
Si Si4 0.112338 0.371649 0.618302
Si Si5 0.599767 0.126896 0.879885
O O1 0.911051 0.670965 0.549914
O O2 0.848649 0.722458 0.434937
O O3 0.075349 0.828940 0.483715
O O4 0.818719 0.882613 0.763345
O O5 0.883315 0.783681 0.871264
O O6 0.728868 0.037803 0.850476
O O7 0.000000 0.000000 0.830669
O O8 0.767276 0.093726 0.339949
O O9 0.000280 0.272203 0.337382
O O10 0.000000 0.000000 0.306446
O O11 0.000000 0.500000 0.633382
O O12 0.500000 0.000000 0.904999
#
# Coordination Sequence:
#
# PCOD9558841 Si02
#       5
#     8   8   8   8   8
#     4  11  23  43  73 103 136 181 242 291 350 435
#     4  11  27  45  65 103 144 183 232 293 370 425
#     4  11  24  45  71  98 136 191 239 289 351 436
#     4  12  26  44  70 106 141 184 234 298 361 426
#     4  12  23  44  71 100 135 185 240 298 353 423
#
# _framework density 20.410758999999999
#
# number of rings (size 3 to 8) (size 9 to 14) (size 15 to 20)
#    0.000    0.600    4.000    3.000    5.600    2.400 
#    0.000    0.000    0.000    0.000    0.000    0.000 
#    0.000    0.000    0.000    0.000    0.000    0.000 
#
# Total GULP energy -223064.246945 kJ/mol
# GULP energy per Si atom -5576.606174 kJ/mol
# Density = 2.036430 g / cm^3
# Si number density = 20.410759 Si / 1000 Ang^3
#
#
#
# Elastic Constant Matrix: (Units=GPa)
#
#
# Indices 1 2 3 4 5 6 
#
# 1 114.5459 72.1627 41.5018 0.0000 0.0000 0.0000
# 2 72.1627 114.5459 41.5018 0.0000 0.0000 0.0000
# 3 41.5018 41.5018 101.8222 0.0000 0.0000 0.0000
# 4 0.0000 0.0000 0.0000 39.8430 0.0000 0.0000
# 5 0.0000 0.0000 0.0000 0.0000 39.8430 0.0000
# 6 0.0000 0.0000 0.0000 0.0000 0.0000 47.6632
#
#
#
# Elastic Compliance Matrix: (Units=1/GPa)
#
#
# Indices 1 2 3 4 5 6 
#
# 1 0.015068 -0.008527 -0.002666 0.000000 0.000000 0.000000
# 2 -0.008527 0.015068 -0.002666 0.000000 0.000000 0.000000
# 3 -0.002666 -0.002666 0.011994 0.000000 0.000000 0.000000
# 4 0.000000 0.000000 0.000000 0.025099 0.000000 0.000000
# 5 0.000000 0.000000 0.000000 0.000000 0.025099 0.000000
# 6 0.000000 0.000000 0.000000 0.000000 0.000000 0.020981
#
#
# Mechanical properties :
#
#
# Convention : Reuss Voigt Hill
#
# Bulk Modulus (GPa) = 69.38523 71.24963 70.31743
# Shear Modulus (GPa) = 34.28670 37.18634 35.73652
#
# Velocity S-wave (km/s) = 4.10302 4.27300 4.18888
# Velocity P-wave (km/s) = 7.51762 7.70249 7.61062
#
# Compressibility (1/GPa) = 0.01441229
#
# Stress axis : x y z
#
# Youngs Moduli (GPa) = 66.36705 66.36705 83.37203
#
# Poissons Ratio (x) = 0.56588 0.22228
# Poissons Ratio (y) = 0.56588 0.22228
# Poissons Ratio (z) = 0.17694 0.17694
#
# Static dielectric constant tensor:
#      x y z
#    x 1.700970 0.000000 0.000000 
#    y 0.000000 1.700970 0.000000 
#    z 0.000000 0.000000 1.715770 
# 
# From -- ./inp_files/5984.got.cif
#   From: 2010.05.17/outbox.cif.g08.bks.cpg/sg118_3_cif.got.tgz:5984.got - 2010.05.20 11:17:24.
