data_PCOD9558633
_publ_section_title
;
Structure prediction by ZEFSAII (Michael W. Deem and Ramdas Pophale) SiO2 
 PCOD9558633
Probable space group: P -4 N 2
;
_chemical_formula_sum "Si O2"
_cell_formula_units_Z 36
_cell_length_a 14.509906
_cell_length_b 14.509906
_cell_length_c 8.701216
_cell_angle_alpha 90.000000
_cell_angle_beta 90.000000
_cell_angle_gamma 90.000000
_cell_volume 1831.931151
_symmetry_space_group_name_H-M "P -4 N 2"
_symmetry_group_IT_number 118
_symmetry_cell_setting 'tetragonal'
loop_
_space_group_symop_operation_xyz
x,y,z
y,-x,-z
-x,-y,z
-y,x,-z
1/2+y,1/2+x,1/2-z
1/2-y,1/2-x,1/2-z
1/2-x,1/2+y,1/2+z
1/2+x,1/2-y,1/2+z
loop_
_atom_site_type_symbol
_atom_site_label
_atom_site_fract_x
_atom_site_fract_y
_atom_site_fract_z
Si Si1 0.217709 0.437252 0.720545
Si Si2 0.000000 0.500000 0.250000
Si Si3 0.000000 0.000000 0.500000
Si Si4 0.597488 0.658349 0.839572
Si Si5 0.190498 0.534911 0.409462
Si Si6 0.366343 0.210734 0.108809
O O1 0.135675 0.364326 0.750000
O O2 0.314705 0.392737 0.767673
O O3 0.224271 0.466293 0.542205
O O4 0.199270 0.531309 0.817809
O O5 0.094296 0.499096 0.344147
O O6 0.914044 0.979787 0.610207
O O7 0.558186 0.736037 0.723915
O O8 0.631595 0.701898 0.999891
O O9 0.162803 0.628536 0.496625
O O10 0.295069 0.204932 0.250000
#
# Coordination Sequence:
#
# PCOD9558633 Si02
#       6
#     8   2   2   8   8   8
#     4  11  24  41  68 101 138 176 231 286 361 423
#     4  12  20  40  74 108 144 172 240 290 364 428
#     4  12  28  44  74  92 140 192 238 292 356 432
#     4  12  24  49  65  97 140 187 236 291 354 434
#     4  11  24  40  72 102 139 183 230 299 350 430
#     4  10  21  43  69  96 134 182 227 292 358 413
#
# _framework density 19.651392999999999
#
# number of rings (size 3 to 8) (size 9 to 14) (size 15 to 20)
#    0.000    0.889    4.444    2.667    0.000    4.889 
#    4.000    0.000    0.000    0.000    0.000    0.000 
#    0.000    0.000    0.000    0.000    0.000    0.000 
#
# Total GULP energy -201094.049934 kJ/mol
# GULP energy per Si atom -5585.945831 kJ/mol
# Density = 1.960667 g / cm^3
# Si number density = 19.651393 Si / 1000 Ang^3
#
#
#
# Elastic Constant Matrix: (Units=GPa)
#
#
# Indices 1 2 3 4 5 6 
#
# 1 70.0302 57.1450 66.0671 0.0000 0.0000 0.0000
# 2 57.1450 70.0298 66.0703 0.0000 0.0000 0.0000
# 3 66.0671 66.0703 143.5820 0.0000 0.0000 0.0000
# 4 0.0000 0.0000 0.0000 -372.5073 0.0000 0.0000
# 5 0.0000 0.0000 0.0000 0.0000 -372.3946 0.0000
# 6 0.0000 0.0000 0.0000 0.0000 0.0000 40.4685
#
#
#
# Elastic Compliance Matrix: (Units=1/GPa)
#
#
# Indices 1 2 3 4 5 6 
#
# 1 0.046336 -0.031271 -0.006931 0.000000 0.000000 0.000000
# 2 -0.031271 0.046340 -0.006935 0.000000 0.000000 0.000000
# 3 -0.006931 -0.006935 0.013345 0.000000 0.000000 0.000000
# 4 0.000000 0.000000 0.000000 -0.002685 0.000000 0.000000
# 5 0.000000 0.000000 0.000000 0.000000 -0.002685 0.000000
# 6 0.000000 0.000000 0.000000 0.000000 0.000000 0.024711
#
#
# Mechanical properties :
#
#
# Convention : Reuss Voigt Hill
#
# Bulk Modulus (GPa) = 63.50543 73.57852 68.54198
# Shear Modulus (GPa) = 22.63630 -134.59603 -55.97987
#
# Velocity S-wave (km/s) = 3.39764 -8.28496 -5.34306
# Velocity P-wave (km/s) = 6.91217 7.34830 1.76345
#
# Compressibility (1/GPa) = 0.01574668
#
# Stress axis : x y z
#
# Youngs Moduli (GPa) = 21.58153 21.57970 74.93531
#
# Poissons Ratio (x) = 0.67483 0.51938
# Poissons Ratio (y) = 0.67488 0.51964
# Poissons Ratio (z) = 0.14958 0.14965
#
# Static dielectric constant tensor:
#      x y z
#    x 1.740340 0.000000 0.000000 
#    y 0.000000 1.740350 0.000000 
#    z 0.000000 0.000000 1.736500 
# 
# From -- ./inp_files/1791.got.cif
#   From: 2010.05.17/outbox.cif.g08.bks.cpg/sg118_1_cif.got.tgz:1791.got - 2010.05.20 11:17:24.
