data_PCOD9558901
_publ_section_title
;
Structure prediction by ZEFSAII (Michael W. Deem and Ramdas Pophale) SiO2 
 PCOD9558901
Probable space group: P -4 N 2
;
_chemical_formula_sum "Si O2"
_cell_formula_units_Z 22
_cell_length_a 5.251859
_cell_length_b 5.251859
_cell_length_c 31.929508
_cell_angle_alpha 90.000000
_cell_angle_beta 90.000000
_cell_angle_gamma 90.000000
_cell_volume 880.680423
_symmetry_space_group_name_H-M "P -4 N 2"
_symmetry_group_IT_number 118
_symmetry_cell_setting 'tetragonal'
loop_
_space_group_symop_operation_xyz
x,y,z
y,-x,-z
-x,-y,z
-y,x,-z
1/2+y,1/2+x,1/2-z
1/2-y,1/2-x,1/2-z
1/2-x,1/2+y,1/2+z
1/2+x,1/2-y,1/2+z
loop_
_atom_site_type_symbol
_atom_site_label
_atom_site_fract_x
_atom_site_fract_y
_atom_site_fract_z
Si Si1 0.667579 0.250443 0.298182
Si Si2 0.753347 0.328025 0.929343
Si Si3 0.500000 0.000000 0.861717
Si Si4 0.000000 0.000000 0.000000
O O1 0.500000 0.500000 0.304502
O O2 0.757493 0.257493 0.250000
O O3 0.890498 0.282733 0.331452
O O4 0.500000 0.000000 0.303947
O O5 0.500000 0.500000 0.933671
O O6 0.704042 0.128673 0.892217
O O7 0.000000 0.500000 0.920641
O O8 0.816143 0.166915 0.970796
#
# Coordination Sequence:
#
# PCOD9558901 Si02
#       4
#     8   8   4   2
#     4  11  30  53  85 127 175 231 287 352 430 514
#     4  12  32  54  87 127 171 229 291 363 437 525
#     4  12  31  52  86 130 174 226 294 360 441 506
#     4  12  32  56  80 128 168 236 288 364 444 520
#
# _framework density 24.980684
#
# number of rings (size 3 to 8) (size 9 to 14) (size 15 to 20)
#    0.000    0.364    0.000    2.727   30.545    0.000 
#    0.000    0.000    0.000    0.000    0.000    0.000 
#    0.000    0.000    0.000    0.000    0.000    0.000 
#
# Total GULP energy -123680.223581 kJ/mol
# GULP energy per Si atom -5621.828345 kJ/mol
# Density = 2.492383 g / cm^3
# Si number density = 24.980684 Si / 1000 Ang^3
#
#
#
# Elastic Constant Matrix: (Units=GPa)
#
#
# Indices 1 2 3 4 5 6 
#
# 1 163.8780 77.3321 86.4387 0.0000 0.0000 0.0000
# 2 77.3321 163.8780 86.4387 0.0000 0.0000 0.0000
# 3 86.4387 86.4387 212.1564 0.0000 0.0000 0.0000
# 4 0.0000 0.0000 0.0000 66.1009 0.0000 0.0000
# 5 0.0000 0.0000 0.0000 0.0000 66.1009 0.0000
# 6 0.0000 0.0000 0.0000 0.0000 0.0000 63.0115
#
#
#
# Elastic Compliance Matrix: (Units=1/GPa)
#
#
# Indices 1 2 3 4 5 6 
#
# 1 0.008705 -0.002849 -0.002386 0.000000 0.000000 0.000000
# 2 -0.002849 0.008705 -0.002386 0.000000 0.000000 0.000000
# 3 -0.002386 -0.002386 0.006658 0.000000 0.000000 0.000000
# 4 0.000000 0.000000 0.000000 0.015128 0.000000 0.000000
# 5 0.000000 0.000000 0.000000 0.000000 0.015128 0.000000
# 6 0.000000 0.000000 0.000000 0.000000 0.000000 0.015870
#
#
# Mechanical properties :
#
#
# Convention : Reuss Voigt Hill
#
# Bulk Modulus (GPa) = 113.30389 115.59238 114.44813
# Shear Modulus (GPa) = 56.57479 58.35618 57.46549
#
# Velocity S-wave (km/s) = 4.76409 4.83852 4.80145
# Velocity P-wave (km/s) = 8.70156 8.80841 8.75515
#
# Compressibility (1/GPa) = 0.00882582
#
# Stress axis : x y z
#
# Youngs Moduli (GPa) = 114.87510 114.87510 150.20509
#
# Poissons Ratio (x) = 0.32733 0.35835
# Poissons Ratio (y) = 0.32733 0.35835
# Poissons Ratio (z) = 0.27407 0.27407
#
# Static dielectric constant tensor:
#      x y z
#    x 1.897910 0.000000 0.000000 
#    y 0.000000 1.897910 0.000000 
#    z 0.000000 0.000000 1.945200 
# 
# From -- ./inp_files/6634.got.cif
#   From: 2010.05.17/outbox.cif.g08.bks.cpg/sg118_4_cif.got.tgz:6634.got - 2010.05.20 11:17:24.
