data_PCOD9558168
_publ_section_title
;
Structure prediction by ZEFSAII (Michael W. Deem and Ramdas Pophale) SiO2 
 PCOD9558168
Probable space group: P -4 B 2
;
_chemical_formula_sum "Si O2"
_cell_formula_units_Z 58
_cell_length_a 17.889817
_cell_length_b 17.889817
_cell_length_c 8.492269
_cell_angle_alpha 90.000000
_cell_angle_beta 90.000000
_cell_angle_gamma 90.000000
_cell_volume 2717.912922
_symmetry_space_group_name_H-M "P -4 B 2"
_symmetry_group_IT_number 117
_symmetry_cell_setting 'tetragonal'
loop_
_space_group_symop_operation_xyz
x,y,z
y,-x,-z
-x,-y,z
-y,x,-z
1/2+y,1/2+x,-z
1/2-y,1/2-x,-z
1/2-x,1/2+y,z
1/2+x,1/2-y,z
loop_
_atom_site_type_symbol
_atom_site_label
_atom_site_fract_x
_atom_site_fract_y
_atom_site_fract_z
Si Si1 0.547603 0.300851 0.918516
Si Si2 0.632753 0.748292 0.666745
Si Si3 0.152289 0.444140 0.894565
Si Si4 0.359818 0.769008 0.379690
Si Si5 0.500000 0.500000 0.500000
Si Si6 0.687278 0.397456 0.983600
Si Si7 0.678068 0.512716 0.441601
Si Si8 0.895323 0.341262 0.173673
O O1 0.625952 0.335218 0.963455
O O2 0.542265 0.302948 0.732098
O O3 0.536849 0.217717 0.981851
O O4 0.481307 0.345459 0.008596
O O5 0.711759 0.709101 0.636917
O O6 0.569356 0.716305 0.550709
O O7 0.636632 0.837042 0.691625
O O8 0.611362 0.721173 0.842758
O O9 0.188510 0.382726 0.779769
O O10 0.136487 0.519266 0.797892
O O11 0.085034 0.414967 0.000000
O O12 0.332667 0.832667 0.500000
O O13 0.429855 0.717250 0.437057
O O14 0.587689 0.506153 0.442674
O O15 0.751905 0.390260 0.854565
O O16 0.874240 0.374240 0.000000
#
# Coordination Sequence:
#
# PCOD9558168 Si02
#       8
#     8   8   8   8   2   8   8   8
#     4  10  21  37  62  92 130 177 223 284 340 405
#     4  10  21  42  65  91 136 179 225 279 336 419
#     4  11  24  43  69  96 133 172 229 297 354 406
#     4  12  26  41  67 102 137 184 234 284 352 424
#     4  12  24  44  68  98 148 200 216 298 352 436
#     4   9  19  34  60  94 126 164 222 282 336 397
#     4  11  25  43  65  99 144 183 235 276 353 428
#     4   9  21  39  66  98 124 165 223 281 344 404
#
# _framework density 21.339904000000001
#
# number of rings (size 3 to 8) (size 9 to 14) (size 15 to 20)
#    0.000    1.655    2.759    1.655    3.862    6.069 
#    0.000    0.000    0.000    0.828    0.000    0.000 
#    0.000    0.000    0.000    0.000    0.000    0.000 
#
# Total GULP energy -323558.114309 kJ/mol
# GULP energy per Si atom -5578.588178 kJ/mol
# Density = 2.129133 g / cm^3
# Si number density = 21.339904 Si / 1000 Ang^3
#
#
#
# Elastic Constant Matrix: (Units=GPa)
#
#
# Indices 1 2 3 4 5 6 
#
# 1 81.4622 40.4085 16.4744 0.0000 0.0000 0.0000
# 2 40.4085 81.4600 16.4720 0.0000 0.0000 0.0000
# 3 16.4744 16.4720 47.3751 0.0000 0.0000 0.0000
# 4 0.0000 0.0000 0.0000 22.8521 0.0000 0.0000
# 5 0.0000 0.0000 0.0000 0.0000 22.8527 0.0000
# 6 0.0000 0.0000 0.0000 0.0000 0.0000 26.5276
#
#
#
# Elastic Compliance Matrix: (Units=1/GPa)
#
#
# Indices 1 2 3 4 5 6 
#
# 1 0.016708 -0.007651 -0.003150 0.000000 0.000000 0.000000
# 2 -0.007651 0.016708 -0.003149 0.000000 0.000000 0.000000
# 3 -0.003150 -0.003149 0.023298 0.000000 0.000000 0.000000
# 4 0.000000 0.000000 0.000000 0.043760 0.000000 0.000000
# 5 0.000000 0.000000 0.000000 0.000000 0.043758 0.000000
# 6 0.000000 0.000000 0.000000 0.000000 0.000000 0.037697
#
#
# Mechanical properties :
#
#
# Convention : Reuss Voigt Hill
#
# Bulk Modulus (GPa) = 34.70415 39.66745 37.18580
# Shear Modulus (GPa) = 22.78603 23.57600 23.18101
#
# Velocity S-wave (km/s) = 3.27121 3.32744 3.29944
# Velocity P-wave (km/s) = 5.52862 5.77851 5.65495
#
# Compressibility (1/GPa) = 0.02881500
#
# Stress axis : x y z
#
# Youngs Moduli (GPa) = 59.85208 59.85169 42.92175
#
# Poissons Ratio (x) = 0.45793 0.13520
# Poissons Ratio (y) = 0.45793 0.13514
# Poissons Ratio (z) = 0.18852 0.18845
#
# Static dielectric constant tensor:
#      x y z
#    x 1.837640 0.000000 0.000000 
#    y 0.000000 1.837640 0.000000 
#    z 0.000000 0.000000 1.813160 
# 
# From -- ./inp_files/2089.got.cif
#   From: 2010.05.17/outbox.cif.g08.bks.cpg/sg117_2_cif.got.tgz:2089.got - 2010.05.20 11:15:09.
