data_PCOD9558701
_publ_section_title
;
Structure prediction by ZEFSAII (Michael W. Deem and Ramdas Pophale) SiO2 
 PCOD9558701
Probable space group: P -4 N 2
;
_chemical_formula_sum "Si O2"
_cell_formula_units_Z 34
_cell_length_a 13.382813
_cell_length_b 13.382813
_cell_length_c 8.981143
_cell_angle_alpha 90.000000
_cell_angle_beta 90.000000
_cell_angle_gamma 90.000000
_cell_volume 1608.519871
_symmetry_space_group_name_H-M "P -4 N 2"
_symmetry_group_IT_number 118
_symmetry_cell_setting 'tetragonal'
loop_
_space_group_symop_operation_xyz
x,y,z
y,-x,-z
-x,-y,z
-y,x,-z
1/2+y,1/2+x,1/2-z
1/2-y,1/2-x,1/2-z
1/2-x,1/2+y,1/2+z
1/2+x,1/2-y,1/2+z
loop_
_atom_site_type_symbol
_atom_site_label
_atom_site_fract_x
_atom_site_fract_y
_atom_site_fract_z
Si Si1 0.580325 0.641556 0.460423
Si Si2 0.901419 0.552453 0.922776
Si Si3 0.230610 0.273509 0.572469
Si Si4 0.000000 0.000000 0.500000
Si Si5 0.925050 0.201757 0.619689
O O1 0.628070 0.530558 0.475337
O O2 0.652085 0.711001 0.554043
O O3 0.588739 0.689629 0.296593
O O4 0.927927 0.572074 0.750000
O O5 0.863013 0.658537 0.986575
O O6 0.803754 0.481986 0.920515
O O7 0.000000 0.500000 0.989994
O O8 0.220735 0.279266 0.750000
O O9 0.200201 0.175064 0.480111
O O10 0.010111 0.897209 0.588164
#
# Coordination Sequence:
#
# PCOD9558701 Si02
#       5
#     8   8   8   2   8
#     4  11  25  42  69 101 137 176 233 293 357 427
#     4  10  23  41  68  96 135 184 234 286 354 433
#     4  11  25  42  66 101 139 184 236 288 354 433
#     4  12  24  44  70 100 144 172 254 280 376 420
#     4  12  25  44  71 102 138 192 229 304 363 426
#
# _framework density 21.137445
#
# number of rings (size 3 to 8) (size 9 to 14) (size 15 to 20)
#    0.000    0.941    2.353    4.941   13.176    0.000 
#    0.000    0.000    0.000    0.000    0.000    0.000 
#    0.000    0.000    0.000    0.000    0.000    0.000 
#
# Total GULP energy -189594.371034 kJ/mol
# GULP energy per Si atom -5576.305030 kJ/mol
# Density = 2.108933 g / cm^3
# Si number density = 21.137445 Si / 1000 Ang^3
#
#
#
# Elastic Constant Matrix: (Units=GPa)
#
#
# Indices 1 2 3 4 5 6 
#
# 1 107.8672 19.5562 8.3387 0.0000 0.0000 0.0000
# 2 19.5562 107.8674 8.3391 0.0000 0.0000 0.0000
# 3 8.3387 8.3391 35.0512 0.0000 0.0000 0.0000
# 4 0.0000 0.0000 0.0000 26.7297 0.0000 0.0000
# 5 0.0000 0.0000 0.0000 0.0000 26.7296 0.0000
# 6 0.0000 0.0000 0.0000 0.0000 0.0000 26.3157
#
#
#
# Elastic Compliance Matrix: (Units=1/GPa)
#
#
# Indices 1 2 3 4 5 6 
#
# 1 0.009712 -0.001612 -0.001927 0.000000 0.000000 0.000000
# 2 -0.001612 0.009712 -0.001927 0.000000 0.000000 0.000000
# 3 -0.001927 -0.001927 0.029447 0.000000 0.000000 0.000000
# 4 0.000000 0.000000 0.000000 0.037412 0.000000 0.000000
# 5 0.000000 0.000000 0.000000 0.000000 0.037412 0.000000
# 6 0.000000 0.000000 0.000000 0.000000 0.000000 0.038000
#
#
# Mechanical properties :
#
#
# Convention : Reuss Voigt Hill
#
# Bulk Modulus (GPa) = 26.35842 35.91708 31.13775
# Shear Modulus (GPa) = 26.98739 30.25844 28.62291
#
# Velocity S-wave (km/s) = 3.57705 3.78763 3.68385
# Velocity P-wave (km/s) = 5.43668 6.01309 5.73213
#
# Compressibility (1/GPa) = 0.03793854
#
# Stress axis : x y z
#
# Youngs Moduli (GPa) = 102.96716 102.96709 33.95974
#
# Poissons Ratio (x) = 0.16596 0.06544
# Poissons Ratio (y) = 0.16596 0.06544
# Poissons Ratio (z) = 0.19842 0.19843
#
# Static dielectric constant tensor:
#      x y z
#    x 1.814540 0.000000 0.000000 
#    y 0.000000 1.814540 0.000000 
#    z 0.000000 0.000000 0.980470 
# 
# From -- ./inp_files/1677.got.cif
#   From: 2010.05.17/outbox.cif.g08.bks.cpg/sg118_1_cif.got.tgz:1677.got - 2010.05.20 11:17:24.
