data_PCOD9558893
_publ_section_title
;
Structure prediction by ZEFSAII (Michael W. Deem and Ramdas Pophale) SiO2 
 PCOD9558893
Probable space group: P -4 N 2
;
_chemical_formula_sum "Si O2"
_cell_formula_units_Z 34
_cell_length_a 12.100618
_cell_length_b 12.100618
_cell_length_c 10.021253
_cell_angle_alpha 90.000000
_cell_angle_beta 90.000000
_cell_angle_gamma 90.000000
_cell_volume 1467.361529
_symmetry_space_group_name_H-M "P -4 N 2"
_symmetry_group_IT_number 118
_symmetry_cell_setting 'tetragonal'
loop_
_space_group_symop_operation_xyz
x,y,z
y,-x,-z
-x,-y,z
-y,x,-z
1/2+y,1/2+x,1/2-z
1/2-y,1/2-x,1/2-z
1/2-x,1/2+y,1/2+z
1/2+x,1/2-y,1/2+z
loop_
_atom_site_type_symbol
_atom_site_label
_atom_site_fract_x
_atom_site_fract_y
_atom_site_fract_z
Si Si1 0.627118 0.461900 0.302447
Si Si2 0.500000 0.500000 0.000000
Si Si3 0.103498 0.570676 0.593264
Si Si4 0.610417 0.264435 0.506593
Si Si5 0.809380 0.852592 0.522298
O O1 0.500000 0.500000 0.291795
O O2 0.633381 0.376514 0.425808
O O3 0.703099 0.565267 0.347091
O O4 0.665886 0.392220 0.173505
O O5 0.595157 0.417867 0.941638
O O6 0.092091 0.592091 0.750000
O O7 0.204752 0.489305 0.568799
O O8 0.111746 0.687564 0.521006
O O9 0.000000 0.500000 0.543776
O O10 0.721025 0.190728 0.499253
#
# Coordination Sequence:
#
# PCOD9558893 Si02
#       5
#     8   2   8   8   8
#     4  12  23  46  79 116 156 211 273 334 414 510
#     4  12  28  44  68 114 156 204 260 340 422 472
#     4  11  27  48  76 110 156 211 271 333 410 490
#     4  12  24  47  77 110 154 213 264 333 420 486
#     4  12  27  47  78 113 161 207 273 344 407 502
#
# _framework density 23.170838
#
# number of rings (size 3 to 8) (size 9 to 14) (size 15 to 20)
#    0.000    0.235    5.882    2.118    9.882    1.882 
#    0.000    4.706    0.000    0.000    0.000    0.000 
#    0.000    0.000    0.000    0.000    0.000    0.000 
#
# Total GULP energy -190138.263396 kJ/mol
# GULP energy per Si atom -5592.301865 kJ/mol
# Density = 2.311810 g / cm^3
# Si number density = 23.170838 Si / 1000 Ang^3
#
#
#
# Elastic Constant Matrix: (Units=GPa)
#
#
# Indices 1 2 3 4 5 6 
#
# 1 175.2743 76.6054 33.6057 0.0000 0.0000 0.0000
# 2 76.6054 175.2743 33.6057 0.0000 0.0000 0.0000
# 3 33.6057 33.6057 73.3404 0.0000 0.0000 0.0000
# 4 0.0000 0.0000 0.0000 31.1333 0.0000 0.0000
# 5 0.0000 0.0000 0.0000 0.0000 31.1333 0.0000
# 6 0.0000 0.0000 0.0000 0.0000 0.0000 61.9637
#
#
#
# Elastic Compliance Matrix: (Units=1/GPa)
#
#
# Indices 1 2 3 4 5 6 
#
# 1 0.007329 -0.002806 -0.002073 0.000000 0.000000 0.000000
# 2 -0.002806 0.007329 -0.002073 0.000000 0.000000 0.000000
# 3 -0.002073 -0.002073 0.015534 0.000000 0.000000 0.000000
# 4 0.000000 0.000000 0.000000 0.032120 0.000000 0.000000
# 5 0.000000 0.000000 0.000000 0.000000 0.032120 0.000000
# 6 0.000000 0.000000 0.000000 0.000000 0.000000 0.016138
#
#
# Mechanical properties :
#
#
# Convention : Reuss Voigt Hill
#
# Bulk Modulus (GPa) = 61.38569 79.05806 70.22187
# Shear Modulus (GPa) = 38.49022 43.51755 41.00388
#
# Velocity S-wave (km/s) = 4.08014 4.33843 4.21126
# Velocity P-wave (km/s) = 6.98190 7.69998 7.34971
#
# Compressibility (1/GPa) = 0.01629044
#
# Stress axis : x y z
#
# Youngs Moduli (GPa) = 136.44336 136.44336 64.37314
#
# Poissons Ratio (x) = 0.38284 0.13342
# Poissons Ratio (y) = 0.38284 0.13342
# Poissons Ratio (z) = 0.28279 0.28279
#
# Static dielectric constant tensor:
#      x y z
#    x 2.459720 0.000000 0.000000 
#    y 0.000000 2.459720 0.000000 
#    z 0.000000 0.000000 2.038300 
# 
# From -- ./inp_files/2944.got.cif
#   From: 2010.05.17/outbox.cif.g08.bks.cpg/sg118_2_cif.got.tgz:2944.got - 2010.05.20 11:17:24.
