data_PCOD9558357
_publ_section_title
;
Structure prediction by ZEFSAII (Michael W. Deem and Ramdas Pophale) SiO2 
 PCOD9558357
Probable space group: P -4 B 2
;
_chemical_formula_sum "Si O2"
_cell_formula_units_Z 34
_cell_length_a 9.036526
_cell_length_b 9.036526
_cell_length_c 15.024190
_cell_angle_alpha 90.000000
_cell_angle_beta 90.000000
_cell_angle_gamma 90.000000
_cell_volume 1226.857359
_symmetry_space_group_name_H-M "P -4 B 2"
_symmetry_group_IT_number 117
_symmetry_cell_setting 'tetragonal'
loop_
_space_group_symop_operation_xyz
x,y,z
y,-x,-z
-x,-y,z
-y,x,-z
1/2+y,1/2+x,-z
1/2-y,1/2-x,-z
1/2-x,1/2+y,z
1/2+x,1/2-y,z
loop_
_atom_site_type_symbol
_atom_site_label
_atom_site_fract_x
_atom_site_fract_y
_atom_site_fract_z
Si Si1 0.000000 0.000000 0.000000
Si Si2 0.682674 0.182674 0.500000
Si Si3 0.000000 0.000000 0.500000
Si Si4 0.500000 0.000000 0.000000
Si Si5 0.150698 0.534946 0.663574
Si Si6 0.674405 0.356830 0.250382
Si Si7 0.263643 0.394641 0.123521
O O1 0.110772 0.093604 0.939251
O O2 0.620893 0.355945 0.519561
O O3 0.573901 0.136059 0.419479
O O4 0.522288 0.138363 0.933309
O O5 0.295651 0.476486 0.712137
O O6 0.158917 0.710804 0.667354
O O7 0.000000 0.500000 0.718574
O O8 0.688650 0.516469 0.210762
O O9 0.711045 0.258665 0.163760
#
# Coordination Sequence:
#
# PCOD9558357 Si02
#       7
#     2   4   2   2   8   8   8
#     4  12  24  40  66 104 144 198 268 332 412 512
#     4  12  31  55  90 128 184 230 318 376 468 554
#     4  12  32  56  90 136 176 244 288 398 456 556
#     4  12  24  44  72 108 164 206 272 348 432 520
#     4  12  27  51  77 119 160 224 280 361 436 533
#     4  12  25  47  76 108 158 210 275 343 435 519
#     4  12  24  44  70 111 152 211 269 345 425 528
#
# _framework density 27.713082
#
# number of rings (size 3 to 8) (size 9 to 14) (size 15 to 20)
#    0.000    0.000    2.353    7.412    6.588    1.882 
#    0.000    0.000    0.000    0.000    0.000    0.000 
#    0.000    0.000    0.000    0.000    0.000    0.000 
#
# Total GULP energy -189759.120208 kJ/mol
# GULP energy per Si atom -5581.150594 kJ/mol
# Density = 2.765001 g / cm^3
# Si number density = 27.713082 Si / 1000 Ang^3
#
#
#
# Elastic Constant Matrix: (Units=GPa)
#
#
# Indices 1 2 3 4 5 6 
#
# 1 119.5009 99.0585 54.8879 0.0000 0.0000 0.0000
# 2 99.0585 119.5009 54.8879 0.0000 0.0000 0.0000
# 3 54.8879 54.8879 125.0136 0.0000 0.0000 0.0000
# 4 0.0000 0.0000 0.0000 54.1348 0.0000 0.0000
# 5 0.0000 0.0000 0.0000 0.0000 54.1348 0.0000
# 6 0.0000 0.0000 0.0000 0.0000 0.0000 48.7052
#
#
#
# Elastic Compliance Matrix: (Units=1/GPa)
#
#
# Indices 1 2 3 4 5 6 
#
# 1 0.027394 -0.021524 -0.002577 0.000000 0.000000 0.000000
# 2 -0.021524 0.027394 -0.002577 0.000000 0.000000 0.000000
# 3 -0.002577 -0.002577 0.010262 0.000000 0.000000 0.000000
# 4 0.000000 0.000000 0.000000 0.018472 0.000000 0.000000
# 5 0.000000 0.000000 0.000000 0.000000 0.018472 0.000000
# 6 0.000000 0.000000 0.000000 0.000000 0.000000 0.020532
#
#
# Mechanical properties :
#
#
# Convention : Reuss Voigt Hill
#
# Bulk Modulus (GPa) = 85.52025 86.85378 86.18701
# Shear Modulus (GPa) = 27.81162 41.74037 34.77599
#
# Velocity S-wave (km/s) = 3.17133 3.88514 3.54624
# Velocity P-wave (km/s) = 6.65852 7.17873 6.92351
#
# Compressibility (1/GPa) = 0.01169314
#
# Stress axis : x y z
#
# Youngs Moduli (GPa) = 36.50450 36.50450 97.44498
#
# Poissons Ratio (x) = 0.78572 0.25114
# Poissons Ratio (y) = 0.78572 0.25114
# Poissons Ratio (z) = 0.09408 0.09408
#
# Static dielectric constant tensor:
#      x y z
#    x 2.036540 0.000000 0.000000 
#    y 0.000000 2.036540 0.000000 
#    z 0.000000 0.000000 2.185330 
# 
# From -- ./inp_files/3457.got.cif
#   From: 2010.05.17/outbox.cif.g08.bks.cpg/sg117_2_cif.got.tgz:3457.got - 2010.05.20 11:15:09.
