data_PCOD9558978
_publ_section_title
;
Structure prediction by ZEFSAII (Michael W. Deem and Ramdas Pophale) SiO2 
 PCOD9558978
Probable space group: I -4 M 2
;
_chemical_formula_sum "Si O2"
_cell_formula_units_Z 64
_cell_length_a 13.974748
_cell_length_b 13.974748
_cell_length_c 16.786867
_cell_angle_alpha 90.000000
_cell_angle_beta 90.000000
_cell_angle_gamma 90.000000
_cell_volume 3278.367381
_symmetry_space_group_name_H-M "I -4 M 2"
_symmetry_group_IT_number 119
_symmetry_cell_setting 'tetragonal'
loop_
_space_group_symop_operation_xyz
x,y,z
y,-x,-z
-x,-y,z
-y,x,-z
y,x,-z
-y,-x,-z
-x,y,z
x,-y,z
1/2+x,1/2+y,1/2+z
1/2+y,1/2-x,1/2-z
1/2-x,1/2-y,1/2+z
1/2-y,1/2+x,1/2-z
1/2+y,1/2+x,1/2-z
1/2-y,1/2-x,1/2-z
1/2-x,1/2+y,1/2+z
1/2+x,1/2-y,1/2+z
loop_
_atom_site_type_symbol
_atom_site_label
_atom_site_fract_x
_atom_site_fract_y
_atom_site_fract_z
Si Si1 0.115366 0.886417 0.258226
Si Si2 0.790565 0.884149 0.576506
Si Si3 0.384546 0.385100 0.585726
Si Si4 0.893033 0.383621 0.160998
O O1 0.147555 0.840664 0.340891
O O2 0.150792 0.848708 0.171940
O O3 0.000000 0.873470 0.257136
O O4 0.133754 0.000000 0.261503
O O5 0.836338 0.836338 0.500000
O O6 0.679733 0.859939 0.591486
O O7 0.800275 0.000000 0.569960
O O8 0.348522 0.348522 0.500000
O O9 0.500000 0.374275 0.585089
O O10 0.367600 0.500000 0.586913
O O11 0.897108 0.500000 0.164274
O O12 0.858223 0.358223 0.250000
O O13 0.000000 0.346796 0.148436
#
# Coordination Sequence:
#
# PCOD9558978 Si02
#       4
#    16  16  16  16
#     4   8  13  20  30  50  88 135 170 191 220 276
#     4  10  18  26  41  70 106 139 165 192 238 306
#     4   7   9  14  25  40  61 101 160 207 225 245
#     4   8  15  30  51  71  90 119 169 230 275 295
#
# _framework density 19.521913000000001
#
# number of rings (size 3 to 8) (size 9 to 14) (size 15 to 20)
#    0.000    3.750    0.000    3.750    0.000    1.250 
#    0.000    0.000    0.000    1.500    0.000    7.000 
#    0.000    6.500    0.000    2.250    0.000   62.250 
#
# Total GULP energy -178301.913625 kJ/mol
# GULP energy per Si atom -5571.934801 kJ/mol
# Density = 1.947748 g / cm^3
# Si number density = 19.521913 Si / 1000 Ang^3
#
#
#
# Elastic Constant Matrix: (Units=GPa)
#
#
# Indices 1 2 3 4 5 6 
#
# 1 52.6385 18.0674 61.0283 0.0000 0.0000 0.0000
# 2 18.0674 52.6385 61.0283 0.0000 0.0000 0.0000
# 3 61.0283 61.0283 214.7017 0.0000 0.0000 0.0000
# 4 0.0000 0.0000 0.0000 23.6756 0.0000 0.0000
# 5 0.0000 0.0000 0.0000 0.0000 23.6756 0.0000
# 6 0.0000 0.0000 0.0000 0.0000 0.0000 5.8482
#
#
#
# Elastic Compliance Matrix: (Units=1/GPa)
#
#
# Indices 1 2 3 4 5 6 
#
# 1 0.028347 -0.000579 -0.007893 0.000000 0.000000 0.000000
# 2 -0.000579 0.028347 -0.007893 0.000000 0.000000 0.000000
# 3 -0.007893 -0.007893 0.009145 0.000000 0.000000 0.000000
# 4 0.000000 0.000000 0.000000 0.042238 0.000000 0.000000
# 5 0.000000 0.000000 0.000000 0.000000 0.042238 0.000000
# 6 0.000000 0.000000 0.000000 0.000000 0.000000 0.170991
#
#
# Mechanical properties :
#
#
# Convention : Reuss Voigt Hill
#
# Bulk Modulus (GPa) = 30.20275 66.69186 48.44730
# Shear Modulus (GPa) = 13.69591 22.63020 18.16306
#
# Velocity S-wave (km/s) = 2.65158 3.40843 3.05354
# Velocity P-wave (km/s) = 4.98792 7.05171 6.10761
#
# Compressibility (1/GPa) = 0.03310957
#
# Stress axis : x y z
#
# Youngs Moduli (GPa) = 35.27674 35.27674 109.35134
#
# Poissons Ratio (x) = 0.02041 0.86313
# Poissons Ratio (y) = 0.02041 0.86313
# Poissons Ratio (z) = 0.27844 0.27844
#
# Static dielectric constant tensor:
#      x y z
#    x 1.708800 0.000000 0.000000 
#    y 0.000000 1.708800 0.000000 
#    z 0.000000 0.000000 1.715890 
# 
# From -- ./inp_files/6226.got.cif
#   From: 2010.05.17/outbox.cif.g08.bks.cpg/sg119_4_cif.got.tgz:6226.got - 2010.05.20 11:21:29.
