data_PCOD9558736
_publ_section_title
;
Structure prediction by ZEFSAII (Michael W. Deem and Ramdas Pophale) SiO2 
 PCOD9558736
Probable space group: P -4 N 2
;
_chemical_formula_sum "Si O2"
_cell_formula_units_Z 40
_cell_length_a 14.941461
_cell_length_b 14.941461
_cell_length_c 8.387343
_cell_angle_alpha 90.000000
_cell_angle_beta 90.000000
_cell_angle_gamma 90.000000
_cell_volume 1872.451317
_symmetry_space_group_name_H-M "P -4 N 2"
_symmetry_group_IT_number 118
_symmetry_cell_setting 'tetragonal'
loop_
_space_group_symop_operation_xyz
x,y,z
y,-x,-z
-x,-y,z
-y,x,-z
1/2+y,1/2+x,1/2-z
1/2-y,1/2-x,1/2-z
1/2-x,1/2+y,1/2+z
1/2+x,1/2-y,1/2+z
loop_
_atom_site_type_symbol
_atom_site_label
_atom_site_fract_x
_atom_site_fract_y
_atom_site_fract_z
Si Si1 0.000000 0.000000 0.000000
Si Si2 0.390065 0.793135 0.596788
Si Si3 0.082927 0.553983 0.432549
Si Si4 0.346997 0.846997 0.250000
Si Si5 0.612514 0.403292 0.742288
Si Si6 0.500000 0.500000 0.000000
Si Si7 0.687548 0.947065 0.336735
O O1 0.916672 0.975852 0.110781
O O2 0.349250 0.849250 0.750000
O O3 0.488276 0.832753 0.552970
O O4 0.335868 0.798582 0.426221
O O5 0.397519 0.693514 0.664084
O O6 0.061818 0.561818 0.250000
O O7 0.077871 0.656591 0.486648
O O8 0.000000 0.500000 0.512127
O O9 0.449293 0.826376 0.201366
O O10 0.713943 0.417094 0.794496
O O11 0.546961 0.425022 0.890099
O O12 0.612907 0.887094 0.250000
#
# Coordination Sequence:
#
# PCOD9558736 Si02
#       7
#     2   8   8   4   8   2   8
#     4  10  24  54  68  86 132 206 256 298 384 422
#     4  12  24  43  72 111 154 186 239 303 367 454
#     4  11  20  37  67 111 150 189 223 288 386 454
#     4  12  23  40  78 110 152 198 225 298 398 450
#     4  11  27  48  72 100 141 199 261 311 358 446
#     4  10  28  50  76  90 140 218 256 314 380 418
#     4  12  22  41  69 110 148 182 237 301 372 450
#
# _framework density 21.362371
#
# number of rings (size 3 to 8) (size 9 to 14) (size 15 to 20)
#    0.000    0.600    6.000    2.100    5.600    0.000 
#    0.000    0.000    4.400    0.000    0.000    0.000 
#    0.000    0.000    0.000    0.000    0.000    0.000 
#
# Total GULP energy -222986.539166 kJ/mol
# GULP energy per Si atom -5574.663479 kJ/mol
# Density = 2.131375 g / cm^3
# Si number density = 21.362371 Si / 1000 Ang^3
#
#
#
# Elastic Constant Matrix: (Units=GPa)
#
#
# Indices 1 2 3 4 5 6 
#
# 1 116.7096 51.0711 41.2299 0.0000 0.0000 0.0000
# 2 51.0711 116.7084 41.2298 0.0000 0.0000 0.0000
# 3 41.2299 41.2298 144.7712 0.0000 0.0000 0.0000
# 4 0.0000 0.0000 0.0000 25.8952 0.0000 0.0000
# 5 0.0000 0.0000 0.0000 0.0000 25.8952 0.0000
# 6 0.0000 0.0000 0.0000 0.0000 0.0000 21.1510
#
#
#
# Elastic Compliance Matrix: (Units=1/GPa)
#
#
# Indices 1 2 3 4 5 6 
#
# 1 0.011083 -0.004152 -0.001974 0.000000 0.000000 0.000000
# 2 -0.004152 0.011083 -0.001974 0.000000 0.000000 0.000000
# 3 -0.001974 -0.001974 0.008032 0.000000 0.000000 0.000000
# 4 0.000000 0.000000 0.000000 0.038617 0.000000 0.000000
# 5 0.000000 0.000000 0.000000 0.000000 0.038617 0.000000
# 6 0.000000 0.000000 0.000000 0.000000 0.000000 0.047279
#
#
# Mechanical properties :
#
#
# Convention : Reuss Voigt Hill
#
# Bulk Modulus (GPa) = 71.44222 71.69454 71.56838
# Shear Modulus (GPa) = 28.47772 30.89883 29.68828
#
# Velocity S-wave (km/s) = 3.65510 3.80730 3.73197
# Velocity P-wave (km/s) = 7.16440 7.27746 7.22115
#
# Compressibility (1/GPa) = 0.01399733
#
# Stress axis : x y z
#
# Youngs Moduli (GPa) = 90.23167 90.23068 124.50776
#
# Poissons Ratio (x) = 0.37468 0.24574
# Poissons Ratio (y) = 0.37468 0.24574
# Poissons Ratio (z) = 0.17809 0.17809
#
# Static dielectric constant tensor:
#      x y z
#    x 1.792470 0.000000 0.000000 
#    y 0.000000 1.792470 0.000000 
#    z 0.000000 0.000000 1.840120 
# 
# From -- ./inp_files/1971.got.cif
#   From: 2010.05.17/outbox.cif.g08.bks.cpg/sg118_1_cif.got.tgz:1971.got - 2010.05.20 11:17:24.
