data_PCOD9558952
_publ_section_title
;
Structure prediction by ZEFSAII (Michael W. Deem and Ramdas Pophale) SiO2 
 PCOD9558952
Probable space group: I -4 M 2
;
_chemical_formula_sum "Si O2"
_cell_formula_units_Z 120
_cell_length_a 21.748769
_cell_length_b 21.748769
_cell_length_c 16.932550
_cell_angle_alpha 90.000000
_cell_angle_beta 90.000000
_cell_angle_gamma 90.000000
_cell_volume 8009.247747
_symmetry_space_group_name_H-M "I -4 M 2"
_symmetry_group_IT_number 119
_symmetry_cell_setting 'tetragonal'
loop_
_space_group_symop_operation_xyz
x,y,z
y,-x,-z
-x,-y,z
-y,x,-z
y,x,-z
-y,-x,-z
-x,y,z
x,-y,z
1/2+x,1/2+y,1/2+z
1/2+y,1/2-x,1/2-z
1/2-x,1/2-y,1/2+z
1/2-y,1/2+x,1/2-z
1/2+y,1/2+x,1/2-z
1/2-y,1/2-x,1/2-z
1/2-x,1/2+y,1/2+z
1/2+x,1/2-y,1/2+z
loop_
_atom_site_type_symbol
_atom_site_label
_atom_site_fract_x
_atom_site_fract_y
_atom_site_fract_z
Si Si1 0.240891 0.840375 0.220665
Si Si2 0.779927 0.073305 0.520416
Si Si3 0.649264 0.863886 0.530876
Si Si4 0.925911 0.429158 0.335914
Si Si5 0.927716 0.323614 0.877460
Si Si6 0.178714 0.840144 0.385579
Si Si7 0.716981 0.253804 0.583347
Si Si8 0.430572 0.930572 0.250000
O O1 0.299846 0.799846 0.250000
O O2 0.267631 0.898005 0.172201
O O3 0.197718 0.853895 0.295666
O O4 0.206857 0.796581 0.158040
O O5 0.708982 0.094709 0.512224
O O6 0.811965 0.101270 0.442016
O O7 0.810211 0.112568 0.592759
O O8 0.785389 0.000000 0.528178
O O9 0.606493 0.901754 0.589214
O O10 0.613169 0.839537 0.454047
O O11 0.673789 0.804871 0.578521
O O12 0.906733 0.500000 0.342404
O O13 0.904743 0.404743 0.250000
O O14 0.000000 0.427551 0.333995
O O15 0.922717 0.382032 0.819309
O O16 0.000000 0.314149 0.896021
O O17 0.227781 0.787107 0.411614
O O18 0.711794 0.288207 0.500000
O O19 0.500000 0.923887 0.218538
#
# Coordination Sequence:
#
# PCOD9558952 Si02
#       8
#    16  16  16  16  16  16  16   8
#     4  10  18  31  50  70  90 127 163 202 247 294
#     4  10  19  31  51  73  97 126 154 196 245 294
#     4  11  19  31  48  72  96 123 163 208 244 288
#     4   9  19  34  47  62  92 133 173 209 242 280
#     4  11  21  31  46  69  98 132 172 206 235 281
#     4   9  18  33  47  71  99 117 155 198 234 297
#     4  10  16  31  49  65  92 121 156 199 250 292
#     4   9  20  34  42  58  96 138 170 202 232 263
#
# _framework density 14.98268
#
# number of rings (size 3 to 8) (size 9 to 14) (size 15 to 20)
#    0.000    2.067    4.667    2.000    0.000    4.267 
#    0.000    1.333    0.000    4.000    0.000    0.000 
#    0.000    0.000    0.000    0.400    0.000    0.000 
#
# Total GULP energy -334187.903287 kJ/mol
# GULP energy per Si atom -5569.798388 kJ/mol
# Density = 1.494858 g / cm^3
# Si number density = 14.982680 Si / 1000 Ang^3
#
#
#
# Elastic Constant Matrix: (Units=GPa)
#
#
# Indices 1 2 3 4 5 6 
#
# 1 73.5080 40.4100 42.8752 0.0000 0.0000 0.0000
# 2 40.4100 73.5078 42.8752 0.0000 0.0000 0.0000
# 3 42.8752 42.8752 92.7055 0.0000 0.0000 0.0000
# 4 0.0000 0.0000 0.0000 19.7165 0.0000 0.0000
# 5 0.0000 0.0000 0.0000 0.0000 19.7165 0.0000
# 6 0.0000 0.0000 0.0000 0.0000 0.0000 17.1778
#
#
#
# Elastic Compliance Matrix: (Units=1/GPa)
#
#
# Indices 1 2 3 4 5 6 
#
# 1 0.021840 -0.008374 -0.006228 0.000000 0.000000 0.000000
# 2 -0.008374 0.021840 -0.006228 0.000000 0.000000 0.000000
# 3 -0.006228 -0.006228 0.016548 0.000000 0.000000 0.000000
# 4 0.000000 0.000000 0.000000 0.050719 0.000000 0.000000
# 5 0.000000 0.000000 0.000000 0.000000 0.050719 0.000000
# 6 0.000000 0.000000 0.000000 0.000000 0.000000 0.058215
#
#
# Mechanical properties :
#
#
# Convention : Reuss Voigt Hill
#
# Bulk Modulus (GPa) = 53.85556 54.67136 54.26346
# Shear Modulus (GPa) = 18.67563 18.89287 18.78425
#
# Velocity S-wave (km/s) = 3.53438 3.55488 3.54465
# Velocity P-wave (km/s) = 7.25803 7.30880 7.28346
#
# Compressibility (1/GPa) = 0.01856819
#
# Stress axis : x y z
#
# Youngs Moduli (GPa) = 45.78794 45.78781 60.43163
#
# Poissons Ratio (x) = 0.38341 0.37637
# Poissons Ratio (y) = 0.38341 0.37637
# Poissons Ratio (z) = 0.28517 0.28517
#
# Static dielectric constant tensor:
#      x y z
#    x 1.498580 0.000000 0.000000 
#    y 0.000000 1.498580 0.000000 
#    z 0.000000 0.000000 1.512830 
# 
# From -- ./inp_files/5640.got.cif
#   From: 2010.05.17/outbox.cif.g08.bks.cpg/sg119_3_cif.got.tgz:5640.got - 2010.05.20 11:21:29.
