data_PCOD9558399
_publ_section_title
;
Structure prediction by ZEFSAII (Michael W. Deem and Ramdas Pophale) SiO2 
 PCOD9558399
Probable space group: P -4 N 2
;
_chemical_formula_sum "Si O2"
_cell_formula_units_Z 64
_cell_length_a 12.028725
_cell_length_b 12.028725
_cell_length_c 25.252532
_cell_angle_alpha 90.000000
_cell_angle_beta 90.000000
_cell_angle_gamma 90.000000
_cell_volume 3653.794540
_symmetry_space_group_name_H-M "P -4 N 2"
_symmetry_group_IT_number 118
_symmetry_cell_setting 'tetragonal'
loop_
_space_group_symop_operation_xyz
x,y,z
y,-x,-z
-x,-y,z
-y,x,-z
1/2+y,1/2+x,1/2-z
1/2-y,1/2-x,1/2-z
1/2-x,1/2+y,1/2+z
1/2+x,1/2-y,1/2+z
loop_
_atom_site_type_symbol
_atom_site_label
_atom_site_fract_x
_atom_site_fract_y
_atom_site_fract_z
Si Si1 0.129996 0.810898 0.658894
Si Si2 0.183872 0.971122 0.503849
Si Si3 0.202958 0.034354 0.618994
Si Si4 0.648653 0.236004 0.306906
Si Si5 0.618997 0.448466 0.729749
Si Si6 0.124852 0.294098 0.191862
Si Si7 0.922486 0.731501 0.605908
Si Si8 0.389457 0.134086 0.688029
O O1 0.085487 0.811356 0.718541
O O2 0.261582 0.790278 0.658781
O O3 0.049383 0.733310 0.625653
O O4 0.123743 0.937357 0.639293
O O5 0.266449 0.928588 0.457988
O O6 0.084797 0.881042 0.512766
O O7 0.238034 0.000574 0.559865
O O8 0.132997 0.147851 0.617959
O O9 0.308237 0.050885 0.657165
O O10 0.676620 0.176620 0.250000
O O11 0.535915 0.305684 0.301595
O O12 0.651580 0.150503 0.356428
O O13 0.748033 0.325074 0.315245
O O14 0.500000 0.500000 0.744689
O O15 0.592730 0.334070 0.700422
O O16 0.155981 0.344020 0.250000
O O17 0.016292 0.355198 0.169417
O O18 0.394558 0.105443 0.750000
#
# Coordination Sequence:
#
# PCOD9558399 Si02
#       8
#     8   8   8   8   8   8   8   8
#     4  11  20  30  48  76 107 144 172 212 272 333
#     4   9  16  28  48  78 108 135 176 223 272 329
#     4  10  19  29  51  79 108 146 178 213 278 332
#     4  10  19  30  51  79 101 139 186 222 266 323
#     4  11  19  33  53  71 106 144 184 220 259 331
#     4  10  22  33  47  75 107 143 181 218 272 328
#     4  10  18  31  49  77 111 135 181 223 268 326
#     4  10  19  32  47  76 111 142 173 220 266 328
#
# _framework density 17.516038000000002
#
# number of rings (size 3 to 8) (size 9 to 14) (size 15 to 20)
#    0.000    1.875    3.750    2.625    1.750    1.750 
#    0.000    0.625    0.000    0.000    6.500    0.000 
#    0.000    0.000    0.000    0.000    0.000    0.000 
#
# Total GULP energy -356762.758685 kJ/mol
# GULP energy per Si atom -5574.418104 kJ/mol
# Density = 1.747617 g / cm^3
# Si number density = 17.516038 Si / 1000 Ang^3
#
#
#
# Elastic Constant Matrix: (Units=GPa)
#
#
# Indices 1 2 3 4 5 6 
#
# 1 62.5520 10.7522 19.2511 0.0000 0.0000 0.0000
# 2 10.7522 62.5518 19.2514 0.0000 0.0000 0.0000
# 3 19.2511 19.2514 81.3744 0.0000 0.0000 0.0000
# 4 0.0000 0.0000 0.0000 16.3811 0.0000 0.0000
# 5 0.0000 0.0000 0.0000 0.0000 16.3811 0.0000
# 6 0.0000 0.0000 0.0000 0.0000 0.0000 22.8027
#
#
#
# Elastic Compliance Matrix: (Units=1/GPa)
#
#
# Indices 1 2 3 4 5 6 
#
# 1 0.017441 -0.001864 -0.003685 0.000000 0.000000 0.000000
# 2 -0.001864 0.017441 -0.003685 0.000000 0.000000 0.000000
# 3 -0.003685 -0.003685 0.014033 0.000000 0.000000 0.000000
# 4 0.000000 0.000000 0.000000 0.061046 0.000000 0.000000
# 5 0.000000 0.000000 0.000000 0.000000 0.061046 0.000000
# 6 0.000000 0.000000 0.000000 0.000000 0.000000 0.043854
#
#
# Mechanical properties :
#
#
# Convention : Reuss Voigt Hill
#
# Bulk Modulus (GPa) = 32.84454 33.88750 33.36602
# Shear Modulus (GPa) = 20.53569 21.59458 21.06514
#
# Velocity S-wave (km/s) = 3.42774 3.51500 3.47164
# Velocity P-wave (km/s) = 5.87007 5.98851 5.92958
#
# Compressibility (1/GPa) = 0.03044646
#
# Stress axis : x y z
#
# Youngs Moduli (GPa) = 57.33541 57.33510 71.26284
#
# Poissons Ratio (x) = 0.10686 0.26262
# Poissons Ratio (y) = 0.10686 0.26262
# Poissons Ratio (z) = 0.21129 0.21130
#
# Static dielectric constant tensor:
#      x y z
#    x 1.617530 0.000000 0.000000 
#    y 0.000000 1.617530 0.000000 
#    z 0.000000 0.000000 1.618350 
# 
# From -- ./inp_files/6579.got.cif
#   From: 2010.05.17/outbox.cif.g08.bks.cpg/sg118_4_cif.got.tgz:6579.got - 2010.05.20 11:17:24.
