data_PCOD9558783
_publ_section_title
;
Structure prediction by ZEFSAII (Michael W. Deem and Ramdas Pophale) SiO2 
 PCOD9558783
Probable space group: P -4 N 2
;
_chemical_formula_sum "Si O2"
_cell_formula_units_Z 48
_cell_length_a 11.589603
_cell_length_b 11.589603
_cell_length_c 19.910363
_cell_angle_alpha 90.000000
_cell_angle_beta 90.000000
_cell_angle_gamma 90.000000
_cell_volume 2674.338011
_symmetry_space_group_name_H-M "P -4 N 2"
_symmetry_group_IT_number 118
_symmetry_cell_setting 'tetragonal'
loop_
_space_group_symop_operation_xyz
x,y,z
y,-x,-z
-x,-y,z
-y,x,-z
1/2+y,1/2+x,1/2-z
1/2-y,1/2-x,1/2-z
1/2-x,1/2+y,1/2+z
1/2+x,1/2-y,1/2+z
loop_
_atom_site_type_symbol
_atom_site_label
_atom_site_fract_x
_atom_site_fract_y
_atom_site_fract_z
Si Si1 0.862860 0.756995 0.431739
Si Si2 1.000000 0.640137 0.055093
Si Si3 1.000000 0.361276 0.902502
Si Si4 0.862438 0.274007 0.682477
Si Si5 0.756995 0.862860 0.568261
Si Si6 0.725993 0.137562 0.317523
O O1 0.825986 0.624552 0.416281
O O2 0.830420 0.833001 0.367177
O O3 0.802257 0.802257 0.500000
O O4 0.000000 0.759155 0.444334
O O5 0.000000 0.500000 0.056095
O O6 0.124552 0.674014 0.083719
O O7 1.000000 0.682448 0.978067
O O8 0.113897 0.331527 0.862012
O O9 0.000000 0.500000 0.907927
O O10 0.886103 0.331527 0.862012
O O11 0.788546 0.288546 0.750000
O O12 0.000000 0.277905 0.697931
O O13 0.833001 0.830419 0.632823
O O14 0.711454 0.211454 0.250000
#
# Coordination Sequence:
#
# PCOD9558783 Si02
#       6
#     8   8   8   8   8   8
#     4  11  22  37  60  87 115 149 190 239 286 335
#     4   9  18  36  58  80 110 147 190 229 275 341
#     4   9  16  30  56  86 108 139 188 233 275 331
#     4  11  21  35  58  85 115 148 187 238 286 334
#     4  11  22  37  60  87 115 149 190 239 286 335
#     4  11  21  35  58  85 115 148 187 238 286 334
#
# _framework density 17.948367999999999
#
# number of rings (size 3 to 8) (size 9 to 14) (size 15 to 20)
#    0.000    1.667    5.000    1.000    0.000    2.333 
#    3.000    0.000    0.000    3.500    0.000    0.000 
#    0.000    0.000    0.000    0.000    0.000    0.000 
#
# Total GULP energy -267439.389148 kJ/mol
# GULP energy per Si atom -5571.653941 kJ/mol
# Density = 1.790752 g / cm^3
# Si number density = 17.948368 Si / 1000 Ang^3
#
#
#
# Elastic Constant Matrix: (Units=GPa)
#
#
# Indices 1 2 3 4 5 6 
#
# 1 58.1488 17.7451 10.5718 0.0000 0.0000 0.0000
# 2 17.7451 58.1488 10.5718 0.0000 0.0000 0.0000
# 3 10.5718 10.5718 69.5553 0.0000 0.0000 0.0000
# 4 0.0000 0.0000 0.0000 22.7816 0.0000 0.0000
# 5 0.0000 0.0000 0.0000 0.0000 22.7816 0.0000
# 6 0.0000 0.0000 0.0000 0.0000 0.0000 18.9283
#
#
#
# Elastic Compliance Matrix: (Units=1/GPa)
#
#
# Indices 1 2 3 4 5 6 
#
# 1 0.019255 -0.005496 -0.002091 0.000000 0.000000 0.000000
# 2 -0.005496 0.019255 -0.002091 0.000000 0.000000 0.000000
# 3 -0.002091 -0.002091 0.015013 0.000000 0.000000 0.000000
# 4 0.000000 0.000000 0.000000 0.043895 0.000000 0.000000
# 5 0.000000 0.000000 0.000000 0.000000 0.043895 0.000000
# 6 0.000000 0.000000 0.000000 0.000000 0.000000 0.052831
#
#
# Mechanical properties :
#
#
# Convention : Reuss Voigt Hill
#
# Bulk Modulus (GPa) = 29.26920 29.29225 29.28073
# Shear Modulus (GPa) = 22.23330 22.69590 22.46460
#
# Velocity S-wave (km/s) = 3.52339 3.55985 3.54167
# Velocity P-wave (km/s) = 5.73543 5.76649 5.75098
#
# Compressibility (1/GPa) = 0.03416561
#
# Stress axis : x y z
#
# Youngs Moduli (GPa) = 51.93572 51.93572 66.61006
#
# Poissons Ratio (x) = 0.28542 0.13930
# Poissons Ratio (y) = 0.28542 0.13930
# Poissons Ratio (z) = 0.10861 0.10861
#
# Static dielectric constant tensor:
#      x y z
#    x 1.635890 0.000000 0.000000 
#    y 0.000000 1.635890 0.000000 
#    z 0.000000 0.000000 1.604290 
# 
# From -- ./inp_files/4947.got.cif
#   From: 2010.05.17/outbox.cif.g08.bks.cpg/sg118_3_cif.got.tgz:4947.got - 2010.05.20 11:17:24.
