data_PCOD9558499
_publ_section_title
;
Structure prediction by ZEFSAII (Michael W. Deem and Ramdas Pophale) SiO2 
 PCOD9558499
Probable space group: P -4 N 2
;
_chemical_formula_sum "Si O2"
_cell_formula_units_Z 32
_cell_length_a 7.869696
_cell_length_b 7.869696
_cell_length_c 20.306576
_cell_angle_alpha 90.000000
_cell_angle_beta 90.000000
_cell_angle_gamma 90.000000
_cell_volume 1257.629203
_symmetry_space_group_name_H-M "P -4 N 2"
_symmetry_group_IT_number 118
_symmetry_cell_setting 'tetragonal'
loop_
_space_group_symop_operation_xyz
x,y,z
y,-x,-z
-x,-y,z
-y,x,-z
1/2+y,1/2+x,1/2-z
1/2-y,1/2-x,1/2-z
1/2-x,1/2+y,1/2+z
1/2+x,1/2-y,1/2+z
loop_
_atom_site_type_symbol
_atom_site_label
_atom_site_fract_x
_atom_site_fract_y
_atom_site_fract_z
Si Si1 0.500000 0.500000 0.500000
Si Si2 0.315483 0.184518 0.750000
Si Si3 0.134111 0.876177 0.716703
Si Si4 0.144953 0.358177 0.482843
Si Si5 0.166525 0.391549 0.862392
Si Si6 0.500000 0.500000 0.000000
O O1 0.335166 0.417926 0.461748
O O2 0.494604 0.209768 0.786486
O O3 0.192994 0.242426 0.810199
O O4 0.209744 0.709744 0.750000
O O5 0.024497 0.815185 0.655231
O O6 0.000000 0.000000 0.753047
O O7 0.163104 0.340860 0.562270
O O8 0.000000 0.500000 0.468615
O O9 0.074268 0.171348 0.464684
O O10 0.000000 0.500000 0.849713
#
# Coordination Sequence:
#
# PCOD9558499 Si02
#       6
#     2   4   8   8   8   2
#     4  12  24  52  68 106 144 168 244 304 356 430
#     4  10  20  36  58  94 137 168 217 276 323 390
#     4  10  20  36  61  86 129 174 214 265 318 390
#     4  11  25  45  75 105 139 185 231 296 364 428
#     4  10  21  40  63  94 130 182 222 261 343 418
#     4  12  24  44  80  98 140 176 236 292 364 406
#
# _framework density 25.444701999999999
#
# number of rings (size 3 to 8) (size 9 to 14) (size 15 to 20)
#    0.000    1.500    2.500    3.750    5.250    0.000 
#   15.750    0.000   11.000    0.000    0.000    0.000 
#    0.000    0.000    0.000    0.000    0.000    0.000 
#
# Total GULP energy -178210.913373 kJ/mol
# GULP energy per Si atom -5569.091043 kJ/mol
# Density = 2.538679 g / cm^3
# Si number density = 25.444702 Si / 1000 Ang^3
#
#
#
# Elastic Constant Matrix: (Units=GPa)
#
#
# Indices 1 2 3 4 5 6 
#
# 1 168.4677 69.1431 25.3590 0.0000 0.0000 0.0000
# 2 69.1431 168.4676 25.3592 0.0000 0.0000 0.0000
# 3 25.3590 25.3592 71.5649 0.0000 0.0000 0.0000
# 4 0.0000 0.0000 0.0000 -16.0537 0.0000 0.0000
# 5 0.0000 0.0000 0.0000 0.0000 -16.0530 0.0000
# 6 0.0000 0.0000 0.0000 0.0000 0.0000 73.2424
#
#
#
# Elastic Compliance Matrix: (Units=1/GPa)
#
#
# Indices 1 2 3 4 5 6 
#
# 1 0.007310 -0.002758 -0.001613 0.000000 0.000000 0.000000
# 2 -0.002758 0.007310 -0.001613 0.000000 0.000000 0.000000
# 3 -0.001613 -0.001613 0.015117 0.000000 0.000000 0.000000
# 4 0.000000 0.000000 0.000000 -0.062291 0.000000 0.000000
# 5 0.000000 0.000000 0.000000 0.000000 -0.062294 0.000000
# 6 0.000000 0.000000 0.000000 0.000000 0.000000 0.013653
#
#
# Mechanical properties :
#
#
# Convention : Reuss Voigt Hill
#
# Bulk Modulus (GPa) = 56.27708 72.02475 64.15091
# Shear Modulus (GPa) = -78.98630 27.46973 -25.75828
#
# Velocity S-wave (km/s) = -5.57761 3.28927 -3.18516
# Velocity P-wave (km/s) = 4.39479 6.54168 3.42632
#
# Compressibility (1/GPa) = 0.01776922
#
# Stress axis : x y z
#
# Youngs Moduli (GPa) = 136.79021 136.78998 66.15200
#
# Poissons Ratio (x) = 0.37720 0.10672
# Poissons Ratio (y) = 0.37720 0.10673
# Poissons Ratio (z) = 0.22069 0.22069
#
# Static dielectric constant tensor:
#      x y z
#    x 2.501350 0.000000 0.000000 
#    y 0.000000 2.501260 0.000000 
#    z 0.000000 0.000000 1.986390 
# 
# From -- ./inp_files/5416.got.cif
#   From: 2010.05.17/outbox.cif.g08.bks.cpg/sg118_3_cif.got.tgz:5416.got - 2010.05.20 11:17:24.
