data_PCOD9558381
_publ_section_title
;
Structure prediction by ZEFSAII (Michael W. Deem and Ramdas Pophale) SiO2 
 PCOD9558381
Probable space group: P -4 N 2
;
_chemical_formula_sum "Si O2"
_cell_formula_units_Z 46
_cell_length_a 17.466911
_cell_length_b 17.466911
_cell_length_c 7.879070
_cell_angle_alpha 90.000000
_cell_angle_beta 90.000000
_cell_angle_gamma 90.000000
_cell_volume 2403.848945
_symmetry_space_group_name_H-M "P -4 N 2"
_symmetry_group_IT_number 118
_symmetry_cell_setting 'tetragonal'
loop_
_space_group_symop_operation_xyz
x,y,z
y,-x,-z
-x,-y,z
-y,x,-z
1/2+y,1/2+x,1/2-z
1/2-y,1/2-x,1/2-z
1/2-x,1/2+y,1/2+z
1/2+x,1/2-y,1/2+z
loop_
_atom_site_type_symbol
_atom_site_label
_atom_site_fract_x
_atom_site_fract_y
_atom_site_fract_z
Si Si1 0.447799 0.388200 0.444208
Si Si2 0.500000 0.000000 0.250000
Si Si3 0.113988 0.053791 0.457928
Si Si4 0.711907 0.381178 0.264044
Si Si5 0.609650 0.083828 0.483043
Si Si6 0.360179 0.018484 0.787476
Si Si7 0.300559 0.800559 0.250000
O O1 0.403502 0.465700 0.495037
O O2 0.442431 0.371128 0.244002
O O3 0.414717 0.325093 0.566436
O O4 0.424728 0.985631 0.367058
O O5 0.175697 0.086902 0.588813
O O6 0.034471 0.097907 0.494392
O O7 0.796800 0.415981 0.277810
O O8 0.693448 0.290907 0.269664
O O9 0.533376 0.129274 0.545133
O O10 0.666808 0.144598 0.398648
O O11 0.651344 0.043482 0.639286
O O12 0.440058 0.059943 0.750000
#
# Coordination Sequence:
#
# PCOD9558381 Si02
#       7
#     8   2   8   8   8   8   4
#     4  11  21  39  65  95 126 176 232 265 310 403
#     4  10  16  38  68 100 112 152 220 294 288 414
#     4  11  21  39  65  95 126 176 232 265 310 403
#     4  12  26  43  63  95 146 171 216 284 355 387
#     4  10  22  41  73  94 127 170 236 262 343 400
#     4  11  22  45  69  96 124 181 224 287 327 396
#     4  11  28  43  60 105 142 165 206 292 352 403
#
# _framework density 19.135977
#
# number of rings (size 3 to 8) (size 9 to 14) (size 15 to 20)
#    0.000    1.043    6.087    1.565    4.870    0.000 
#    6.261    0.000    0.000    0.000    0.000    0.000 
#    0.000    0.000    0.000    0.000    0.000    0.000 
#
# Total GULP energy -256307.479627 kJ/mol
# GULP energy per Si atom -5571.901731 kJ/mol
# Density = 1.909242 g / cm^3
# Si number density = 19.135977 Si / 1000 Ang^3
#
#
#
# Elastic Constant Matrix: (Units=GPa)
#
#
# Indices 1 2 3 4 5 6 
#
# 1 87.1674 69.3395 35.9631 0.0000 0.0000 0.0000
# 2 69.3395 87.1562 35.9594 0.0000 0.0000 0.0000
# 3 35.9631 35.9594 142.1580 0.0000 0.0000 0.0000
# 4 0.0000 0.0000 0.0000 20.7529 0.0000 0.0000
# 5 0.0000 0.0000 0.0000 0.0000 20.7541 0.0000
# 6 0.0000 0.0000 0.0000 0.0000 0.0000 38.3873
#
#
#
# Elastic Compliance Matrix: (Units=1/GPa)
#
#
# Indices 1 2 3 4 5 6 
#
# 1 0.031668 -0.024440 -0.001829 0.000000 0.000000 0.000000
# 2 -0.024440 0.031672 -0.001829 0.000000 0.000000 0.000000
# 3 -0.001829 -0.001829 0.007960 0.000000 0.000000 0.000000
# 4 0.000000 0.000000 0.000000 0.048186 0.000000 0.000000
# 5 0.000000 0.000000 0.000000 0.000000 0.048183 0.000000
# 6 0.000000 0.000000 0.000000 0.000000 0.000000 0.026050
#
#
# Mechanical properties :
#
#
# Convention : Reuss Voigt Hill
#
# Bulk Modulus (GPa) = 66.20645 66.55616 66.38130
# Shear Modulus (GPa) = 19.61176 27.66015 23.63595
#
# Velocity S-wave (km/s) = 3.20482 3.80604 3.51829
# Velocity P-wave (km/s) = 6.95468 7.36007 7.16024
#
# Compressibility (1/GPa) = 0.01510427
#
# Stress axis : x y z
#
# Youngs Moduli (GPa) = 31.57767 31.57391 125.63148
#
# Poissons Ratio (x) = 0.77165 0.22981
# Poissons Ratio (y) = 0.77174 0.22975
# Poissons Ratio (z) = 0.05776 0.05774
#
# Static dielectric constant tensor:
#      x y z
#    x 1.674400 0.000000 0.000000 
#    y 0.000000 1.674400 0.000000 
#    z 0.000000 0.000000 1.728000 
# 
# From -- ./inp_files/2143.got.cif
#   From: 2010.05.17/outbox.cif.g08.bks.cpg/sg118_2_cif.got.tgz:2143.got - 2010.05.20 11:17:24.
