data_PCOD9558553
_publ_section_title
;
Structure prediction by ZEFSAII (Michael W. Deem and Ramdas Pophale) SiO2 
 PCOD9558553
Probable space group: P -4 N 2
;
_chemical_formula_sum "Si O2"
_cell_formula_units_Z 56
_cell_length_a 13.535979
_cell_length_b 13.535979
_cell_length_c 12.470894
_cell_angle_alpha 90.000000
_cell_angle_beta 90.000000
_cell_angle_gamma 90.000000
_cell_volume 2284.951213
_symmetry_space_group_name_H-M "P -4 N 2"
_symmetry_group_IT_number 118
_symmetry_cell_setting 'tetragonal'
loop_
_space_group_symop_operation_xyz
x,y,z
y,-x,-z
-x,-y,z
-y,x,-z
1/2+y,1/2+x,1/2-z
1/2-y,1/2-x,1/2-z
1/2-x,1/2+y,1/2+z
1/2+x,1/2-y,1/2+z
loop_
_atom_site_type_symbol
_atom_site_label
_atom_site_fract_x
_atom_site_fract_y
_atom_site_fract_z
Si Si1 0.894173 0.816145 0.609015
Si Si2 0.040368 0.838921 0.021238
Si Si3 0.600855 0.854444 0.387175
Si Si4 0.602350 0.089136 0.404375
Si Si5 0.626204 0.676887 0.121339
Si Si6 0.556459 0.103869 0.862358
Si Si7 0.987703 0.206742 0.267241
O O1 0.877867 0.704633 0.643995
O O2 0.845169 0.825136 0.492786
O O3 0.010574 0.832069 0.598803
O O4 0.857353 0.898404 0.688438
O O5 0.025781 0.793481 0.140093
O O6 0.083025 0.746815 0.952353
O O7 0.115294 0.934125 0.018062
O O8 0.490956 0.870587 0.337345
O O9 0.529979 0.896081 0.071436
O O10 0.649586 0.788022 0.155724
O O11 0.601758 0.121721 0.530407
O O12 0.658999 0.593237 0.203831
O O13 0.614988 0.114988 0.750000
O O14 0.482305 0.194497 0.841429
O O15 0.500000 0.000000 0.860375
#
# Coordination Sequence:
#
# PCOD9558553 Si02
#       7
#     8   8   8   8   8   8   8
#     4  11  22  38  68 113 149 187 243 313 392 442
#     4  11  29  51  71  99 145 205 253 308 376 462
#     4  10  22  43  70 101 146 202 241 300 386 453
#     4  10  20  41  69 106 153 189 238 310 382 457
#     4  11  22  38  70 112 147 189 242 313 380 454
#     4  11  22  37  62 106 150 181 243 310 367 432
#     4  12  25  44  76 109 145 199 259 314 381 468
#
# _framework density 24.508182000000001
#
# number of rings (size 3 to 8) (size 9 to 14) (size 15 to 20)
#    0.000    1.143    4.286    2.143    8.000    1.143 
#    0.000    0.000    0.000    0.000    3.714    0.000 
#    0.000    0.000    0.000    0.000    0.000    0.000 
#
# Total GULP energy -312490.684783 kJ/mol
# GULP energy per Si atom -5580.190800 kJ/mol
# Density = 2.445240 g / cm^3
# Si number density = 24.508182 Si / 1000 Ang^3
#
#
#
# Elastic Constant Matrix: (Units=GPa)
#
#
# Indices 1 2 3 4 5 6 
#
# 1 109.3028 88.5519 17.8023 0.0000 0.0000 0.0000
# 2 88.5519 109.3028 17.8023 0.0000 0.0000 0.0000
# 3 17.8023 17.8023 65.6188 0.0000 0.0000 0.0000
# 4 0.0000 0.0000 0.0000 -12.2414 0.0000 0.0000
# 5 0.0000 0.0000 0.0000 0.0000 -12.2414 0.0000
# 6 0.0000 0.0000 0.0000 0.0000 0.0000 26.4441
#
#
#
# Elastic Compliance Matrix: (Units=1/GPa)
#
#
# Indices 1 2 3 4 5 6 
#
# 1 0.026752 -0.021438 -0.001442 0.000000 0.000000 0.000000
# 2 -0.021438 0.026752 -0.001442 0.000000 0.000000 0.000000
# 3 -0.001442 -0.001442 0.016022 0.000000 0.000000 0.000000
# 4 0.000000 0.000000 0.000000 -0.081690 0.000000 0.000000
# 5 0.000000 0.000000 0.000000 0.000000 -0.081690 0.000000
# 6 0.000000 0.000000 0.000000 0.000000 0.000000 0.037816
#
#
# Mechanical properties :
#
#
# Convention : Reuss Voigt Hill
#
# Bulk Modulus (GPa) = 47.88659 59.17082 53.52870
# Shear Modulus (GPa) = -11531.24859 11.06344 -5760.09258
#
# Velocity S-wave (km/s) = -68.66786 2.12697 -48.53221
# Velocity P-wave (km/s) = 79.16724 5.49797 55.84453
#
# Compressibility (1/GPa) = 0.02088267
#
# Stress axis : x y z
#
# Youngs Moduli (GPa) = 37.38022 37.38022 62.41519
#
# Poissons Ratio (x) = 0.80138 0.08998
# Poissons Ratio (y) = 0.80138 0.08998
# Poissons Ratio (z) = 0.05389 0.05389
#
# Static dielectric constant tensor:
#      x y z
#    x 2.002170 0.000000 0.000000 
#    y 0.000000 2.002170 0.000000 
#    z 0.000000 0.000000 2.097270 
# 
# From -- ./inp_files/3406.got.cif
#   From: 2010.05.17/outbox.cif.g08.bks.cpg/sg118_2_cif.got.tgz:3406.got - 2010.05.20 11:17:24.
