data_PCOD9558358
_publ_section_title
;
Structure prediction by ZEFSAII (Michael W. Deem and Ramdas Pophale) SiO2 
 PCOD9558358
Probable space group: P -4 B 2
;
_chemical_formula_sum "Si O2"
_cell_formula_units_Z 24
_cell_length_a 9.063215
_cell_length_b 9.063215
_cell_length_c 10.960281
_cell_angle_alpha 90.000000
_cell_angle_beta 90.000000
_cell_angle_gamma 90.000000
_cell_volume 900.297935
_symmetry_space_group_name_H-M "P -4 B 2"
_symmetry_group_IT_number 117
_symmetry_cell_setting 'tetragonal'
loop_
_space_group_symop_operation_xyz
x,y,z
y,-x,-z
-x,-y,z
-y,x,-z
1/2+y,1/2+x,-z
1/2-y,1/2-x,-z
1/2-x,1/2+y,z
1/2+x,1/2-y,z
loop_
_atom_site_type_symbol
_atom_site_label
_atom_site_fract_x
_atom_site_fract_y
_atom_site_fract_z
Si Si1 0.653952 0.153952 0.500000
Si Si2 0.758050 0.384028 0.668086
Si Si3 0.724112 0.493114 0.177972
Si Si4 0.000000 0.000000 0.000000
Si Si5 0.500000 0.000000 0.000000
O O1 0.658519 0.312173 0.563825
O O2 0.528219 0.166523 0.394307
O O3 0.639604 0.364245 0.778321
O O4 0.890972 0.277621 0.711190
O O5 0.614399 0.413575 0.084307
O O6 0.866001 0.517304 0.094780
#
# Coordination Sequence:
#
# PCOD9558358 Si02
#       5
#     4   8   8   2   2
#     4  12  28  50  74 106 150 201 260 325 392 468
#     4  12  27  48  75 110 153 204 260 325 396 475
#     4  12  25  46  75 112 155 203 257 322 397 480
#     4  12  24  44  72 110 152 204 256 312 392 486
#     4  12  24  44  76 114 156 204 252 320 396 480
#
# _framework density 26.657843
#
# number of rings (size 3 to 8) (size 9 to 14) (size 15 to 20)
#    0.000    0.000    0.000   10.000    0.000    8.000 
#    0.000    0.000    0.000    0.000    0.000    0.000 
#    0.000    0.000    0.000    0.000    0.000    0.000 
#
# Total GULP energy -133890.099269 kJ/mol
# GULP energy per Si atom -5578.754136 kJ/mol
# Density = 2.659717 g / cm^3
# Si number density = 26.657843 Si / 1000 Ang^3
#
#
#
# Elastic Constant Matrix: (Units=GPa)
#
#
# Indices 1 2 3 4 5 6 
#
# 1 174.4579 30.4463 68.2790 0.0000 0.0000 0.0000
# 2 30.4463 174.4579 68.2790 0.0000 0.0000 0.0000
# 3 68.2790 68.2790 133.4104 0.0000 0.0000 0.0000
# 4 0.0000 0.0000 0.0000 54.5229 0.0000 0.0000
# 5 0.0000 0.0000 0.0000 0.0000 54.5229 0.0000
# 6 0.0000 0.0000 0.0000 0.0000 0.0000 24.8793
#
#
#
# Elastic Compliance Matrix: (Units=1/GPa)
#
#
# Indices 1 2 3 4 5 6 
#
# 1 0.007175 0.000231 -0.003791 0.000000 0.000000 0.000000
# 2 0.000231 0.007175 -0.003791 0.000000 0.000000 0.000000
# 3 -0.003791 -0.003791 0.011376 0.000000 0.000000 0.000000
# 4 0.000000 0.000000 0.000000 0.018341 0.000000 0.000000
# 5 0.000000 0.000000 0.000000 0.000000 0.018341 0.000000
# 6 0.000000 0.000000 0.000000 0.000000 0.000000 0.040194
#
#
# Mechanical properties :
#
#
# Convention : Reuss Voigt Hill
#
# Bulk Modulus (GPa) = 90.69232 90.70388 90.69810
# Shear Modulus (GPa) = 41.32994 47.80646 44.56820
#
# Velocity S-wave (km/s) = 3.94177 4.23937 4.09328
# Velocity P-wave (km/s) = 7.40347 7.61985 7.51244
#
# Compressibility (1/GPa) = 0.01102629
#
# Stress axis : x y z
#
# Youngs Moduli (GPa) = 139.36788 139.36788 87.90596
#
# Poissons Ratio (x) = -0.03225 0.33322
# Poissons Ratio (y) = -0.03225 0.33322
# Poissons Ratio (z) = 0.52830 0.52830
#
# Static dielectric constant tensor:
#      x y z
#    x 2.134300 0.000000 0.000000 
#    y 0.000000 2.134300 0.000000 
#    z 0.000000 0.000000 1.758010 
# 
# From -- ./inp_files/3037.got.cif
#   From: 2010.05.17/outbox.cif.g08.bks.cpg/sg117_2_cif.got.tgz:3037.got - 2010.05.20 11:15:09.
