data_PCOD9558971
_publ_section_title
;
Structure prediction by ZEFSAII (Michael W. Deem and Ramdas Pophale) SiO2 
 PCOD9558971
Probable space group: I -4 M 2
;
_chemical_formula_sum "Si O2"
_cell_formula_units_Z 96
_cell_length_a 23.172858
_cell_length_b 23.172858
_cell_length_c 11.238210
_cell_angle_alpha 90.000000
_cell_angle_beta 90.000000
_cell_angle_gamma 90.000000
_cell_volume 6034.709154
_symmetry_space_group_name_H-M "I -4 M 2"
_symmetry_group_IT_number 119
_symmetry_cell_setting 'tetragonal'
loop_
_space_group_symop_operation_xyz
x,y,z
y,-x,-z
-x,-y,z
-y,x,-z
y,x,-z
-y,-x,-z
-x,y,z
x,-y,z
1/2+x,1/2+y,1/2+z
1/2+y,1/2-x,1/2-z
1/2-x,1/2-y,1/2+z
1/2-y,1/2+x,1/2-z
1/2+y,1/2+x,1/2-z
1/2-y,1/2-x,1/2-z
1/2-x,1/2+y,1/2+z
1/2+x,1/2-y,1/2+z
loop_
_atom_site_type_symbol
_atom_site_label
_atom_site_fract_x
_atom_site_fract_y
_atom_site_fract_z
Si Si1 0.819682 0.099804 0.733472
Si Si2 0.658829 0.564166 0.980607
Si Si3 0.064640 0.240328 0.026577
Si Si4 0.222355 0.838551 0.335631
Si Si5 0.565414 0.381145 0.385937
Si Si6 0.738100 0.821405 0.069212
O O1 0.817604 0.062740 0.614963
O O2 0.782842 0.074259 0.840222
O O3 0.802210 0.163744 0.687925
O O4 0.884516 0.107382 0.789385
O O5 0.651448 0.500000 0.933677
O O6 0.599591 0.599591 0.000000
O O7 0.699970 0.603135 0.897564
O O8 0.000000 0.263824 0.012214
O O9 0.069608 0.183746 0.940256
O O10 0.120019 0.279170 0.997206
O O11 0.247601 0.841519 0.203244
O O12 0.269995 0.807600 0.416455
O O13 0.578697 0.421304 0.500000
O O14 0.500000 0.390314 0.343751
O O15 0.793292 0.793292 0.000000
#
# Coordination Sequence:
#
# PCOD9558971 Si02
#       6
#    16  16  16  16  16  16
#     4  10  17  33  47  68  90 131 167 208 254 308
#     4  10  22  37  49  67  97 135 178 215 255 305
#     4  10  18  29  48  70  95 126 159 204 260 307
#     4  10  21  32  52  72  98 129 166 211 269 314
#     4   9  17  28  42  63  90 121 162 211 256 290
#     4  11  18  33  52  76  98 124 165 215 262 324
#
# _framework density 15.907973999999999
#
# number of rings (size 3 to 8) (size 9 to 14) (size 15 to 20)
#    0.000    2.000    3.333    2.500    0.000    4.333 
#    0.000    0.000    0.000    0.000    0.000    0.000 
#    0.000    0.667    0.000    3.667    0.000    6.833 
#
# Total GULP energy -267352.261944 kJ/mol
# GULP energy per Si atom -5569.838790 kJ/mol
# Density = 1.587177 g / cm^3
# Si number density = 15.907974 Si / 1000 Ang^3
#
#
#
# Elastic Constant Matrix: (Units=GPa)
#
#
# Indices 1 2 3 4 5 6 
#
# 1 75.9174 47.5296 27.5485 0.0000 0.0000 0.0000
# 2 47.5296 75.9172 27.5485 0.0000 0.0000 0.0000
# 3 27.5485 27.5485 86.4029 0.0000 0.0000 0.0000
# 4 0.0000 0.0000 0.0000 10.0150 0.0000 0.0000
# 5 0.0000 0.0000 0.0000 0.0000 10.0148 0.0000
# 6 0.0000 0.0000 0.0000 0.0000 0.0000 5.3769
#
#
#
# Elastic Compliance Matrix: (Units=1/GPa)
#
#
# Indices 1 2 3 4 5 6 
#
# 1 0.022336 -0.012891 -0.003011 0.000000 0.000000 0.000000
# 2 -0.012891 0.022336 -0.003011 0.000000 0.000000 0.000000
# 3 -0.003011 -0.003011 0.013494 0.000000 0.000000 0.000000
# 4 0.000000 0.000000 0.000000 0.099850 0.000000 0.000000
# 5 0.000000 0.000000 0.000000 0.000000 0.099852 0.000000
# 6 0.000000 0.000000 0.000000 0.000000 0.000000 0.185980
#
#
# Mechanical properties :
#
#
# Convention : Reuss Voigt Hill
#
# Bulk Modulus (GPa) = 49.16905 49.27674 49.22290
# Shear Modulus (GPa) = 10.23638 14.12206 12.17922
#
# Velocity S-wave (km/s) = 2.53943 2.98272 2.76996
# Velocity P-wave (km/s) = 6.29077 6.55023 6.42181
#
# Compressibility (1/GPa) = 0.02033800
#
# Stress axis : x y z
#
# Youngs Moduli (GPa) = 44.77167 44.77151 74.10736
#
# Poissons Ratio (x) = 0.57715 0.22316
# Poissons Ratio (y) = 0.57715 0.22316
# Poissons Ratio (z) = 0.13482 0.13482
#
# Static dielectric constant tensor:
#      x y z
#    x 1.557310 0.000000 0.000000 
#    y 0.000000 1.557310 0.000000 
#    z 0.000000 0.000000 1.591440 
# 
# From -- ./inp_files/4288.got.cif
#   From: 2010.05.17/outbox.cif.g08.bks.cpg/sg119_3_cif.got.tgz:4288.got - 2010.05.20 11:21:29.
