data_PCOD9558066
_publ_section_title
;
Structure prediction by ZEFSAII (Michael W. Deem and Ramdas Pophale) SiO2 
 PCOD9558066
Probable space group: P -4 B 2
;
_chemical_formula_sum "Si O2"
_cell_formula_units_Z 46
_cell_length_a 14.034565
_cell_length_b 14.034565
_cell_length_c 12.591669
_cell_angle_alpha 90.000000
_cell_angle_beta 90.000000
_cell_angle_gamma 90.000000
_cell_volume 2480.168637
_symmetry_space_group_name_H-M "P -4 B 2"
_symmetry_group_IT_number 117
_symmetry_cell_setting 'tetragonal'
loop_
_space_group_symop_operation_xyz
x,y,z
y,-x,-z
-x,-y,z
-y,x,-z
1/2+y,1/2+x,-z
1/2-y,1/2-x,-z
1/2-x,1/2+y,z
1/2+x,1/2-y,z
loop_
_atom_site_type_symbol
_atom_site_label
_atom_site_fract_x
_atom_site_fract_y
_atom_site_fract_z
Si Si1 0.000000 0.000000 0.500000
Si Si2 0.945522 0.149988 0.354592
Si Si3 0.107130 0.869011 0.895602
Si Si4 0.111882 0.100723 0.874589
Si Si5 0.452473 0.195892 0.529589
Si Si6 0.325923 0.667369 0.324142
Si Si7 0.326655 0.826655 0.500000
O O1 0.073581 0.943607 0.425398
O O2 0.891632 0.153701 0.243327
O O3 0.925970 0.238481 0.428656
O O4 0.060785 0.143420 0.339111
O O5 0.169519 0.821143 0.803559
O O6 0.994493 0.855159 0.871677
O O7 0.110836 0.985187 0.891409
O O8 0.134601 0.840803 0.015643
O O9 0.403705 0.096295 0.500000
O O10 0.408958 0.251346 0.630033
O O11 0.565110 0.187597 0.536028
O O12 0.308740 0.758461 0.399126
#
# Coordination Sequence:
#
# PCOD9558066 Si02
#       7
#     2   8   8   8   8   8   4
#     4  12  16  24  44  82 116 144 180 228 302 332
#     4  10  19  27  48  78 109 142 179 225 279 334
#     4   8  14  25  45  72 111 144 174 217 278 338
#     4   8  14  25  42  75 111 145 173 215 279 340
#     4  11  22  37  52  75 110 152 184 224 280 346
#     4  10  18  33  51  79 105 140 185 234 274 328
#     4  10  23  36  54  81 112 148 184 232 284 347
#
# _framework density 18.547125999999999
#
# number of rings (size 3 to 8) (size 9 to 14) (size 15 to 20)
#    0.000    2.435    2.609    3.391    0.000    0.000 
#    0.000    0.000    0.000    1.043    4.522    3.652 
#    0.000   11.130    0.000    0.000    0.000    0.000 
#
# Total GULP energy -256227.256454 kJ/mol
# GULP energy per Si atom -5570.157749 kJ/mol
# Density = 1.850491 g / cm^3
# Si number density = 18.547126 Si / 1000 Ang^3
#
#
#
# Elastic Constant Matrix: (Units=GPa)
#
#
# Indices 1 2 3 4 5 6 
#
# 1 58.3801 18.9706 34.9364 0.0000 0.0000 0.0000
# 2 18.9706 58.3821 34.9367 0.0000 0.0000 0.0000
# 3 34.9364 34.9367 183.2534 0.0000 0.0000 0.0000
# 4 0.0000 0.0000 0.0000 15.2291 0.0000 0.0000
# 5 0.0000 0.0000 0.0000 0.0000 15.2289 0.0000
# 6 0.0000 0.0000 0.0000 0.0000 0.0000 18.1580
#
#
#
# Elastic Compliance Matrix: (Units=1/GPa)
#
#
# Indices 1 2 3 4 5 6 
#
# 1 0.020496 -0.004878 -0.002977 0.000000 0.000000 0.000000
# 2 -0.004878 0.020495 -0.002977 0.000000 0.000000 0.000000
# 3 -0.002977 -0.002977 0.006592 0.000000 0.000000 0.000000
# 4 0.000000 0.000000 0.000000 0.065664 0.000000 0.000000
# 5 0.000000 0.000000 0.000000 0.000000 0.065665 0.000000
# 6 0.000000 0.000000 0.000000 0.000000 0.000000 0.055072
#
#
# Mechanical properties :
#
#
# Convention : Reuss Voigt Hill
#
# Bulk Modulus (GPa) = 38.58387 53.07812 45.83099
# Shear Modulus (GPa) = 18.91863 23.80132 21.35997
#
# Velocity S-wave (km/s) = 3.19726 3.58619 3.39729
# Velocity P-wave (km/s) = 5.87182 6.76962 6.33664
#
# Compressibility (1/GPa) = 0.02591757
#
# Stress axis : x y z
#
# Youngs Moduli (GPa) = 48.78973 48.79149 151.69456
#
# Poissons Ratio (x) = 0.23802 0.45167
# Poissons Ratio (y) = 0.23801 0.45165
# Poissons Ratio (z) = 0.14527 0.14527
#
# Static dielectric constant tensor:
#      x y z
#    x 1.673290 0.000000 0.000000 
#    y 0.000000 1.673290 0.000000 
#    z 0.000000 0.000000 1.700740 
# 
# From -- ./inp_files/2722.got.cif
#   From: 2010.05.17/outbox.cif.g08.bks.cpg/sg117_2_cif.got.tgz:2722.got - 2010.05.20 11:15:09.
