data_PCOD9558337
_publ_section_title
;
Structure prediction by ZEFSAII (Michael W. Deem and Ramdas Pophale) SiO2 
 PCOD9558337
Probable space group: P -4 B 2
;
_chemical_formula_sum "Si O2"
_cell_formula_units_Z 40
_cell_length_a 9.183087
_cell_length_b 9.183087
_cell_length_c 21.650587
_cell_angle_alpha 90.000000
_cell_angle_beta 90.000000
_cell_angle_gamma 90.000000
_cell_volume 1825.774231
_symmetry_space_group_name_H-M "P -4 B 2"
_symmetry_group_IT_number 117
_symmetry_cell_setting 'tetragonal'
loop_
_space_group_symop_operation_xyz
x,y,z
y,-x,-z
-x,-y,z
-y,x,-z
1/2+y,1/2+x,-z
1/2-y,1/2-x,-z
1/2-x,1/2+y,z
1/2+x,1/2-y,z
loop_
_atom_site_type_symbol
_atom_site_label
_atom_site_fract_x
_atom_site_fract_y
_atom_site_fract_z
Si Si1 0.283020 0.566188 0.024951
Si Si2 0.107084 0.363456 0.429806
Si Si3 0.880967 0.871142 0.781923
Si Si4 0.643181 0.405028 0.643226
Si Si5 0.426615 0.153192 0.844512
O O1 0.263525 0.556629 0.098174
O O2 0.413740 0.673815 0.005495
O O3 0.134673 0.634673 0.000000
O O4 0.160658 0.339343 0.500000
O O5 0.249185 0.382726 0.387890
O O6 0.000000 0.500000 0.430542
O O7 0.004119 0.241813 0.400516
O O8 0.808907 0.882072 0.713995
O O9 0.743181 0.868231 0.828002
O O10 0.977319 0.725495 0.790079
O O11 0.000000 0.000000 0.791005
O O12 0.500000 0.500000 0.649687
O O13 0.500000 0.000000 0.860491
#
# Coordination Sequence:
#
# PCOD9558337 Si02
#       5
#     8   8   8   8   8
#     4  11  28  48  75 108 147 190 244 301 371 455
#     4  11  27  45  74 107 146 198 252 313 383 461
#     4  11  28  47  77 112 148 198 253 317 378 466
#     4  11  27  46  74 107 152 196 249 314 384 455
#     4  12  28  48  79 108 151 200 252 315 385 455
#
# _framework density 21.908515000000001
#
# number of rings (size 3 to 8) (size 9 to 14) (size 15 to 20)
#    0.000    0.800    0.000    3.600   28.000    0.000 
#    0.000    0.000    0.000    0.000    0.000    0.000 
#    0.000    0.000    0.000    0.000    0.000    0.000 
#
# Total GULP energy -223742.554593 kJ/mol
# GULP energy per Si atom -5593.563865 kJ/mol
# Density = 2.185865 g / cm^3
# Si number density = 21.908515 Si / 1000 Ang^3
#
#
#
# Elastic Constant Matrix: (Units=GPa)
#
#
# Indices 1 2 3 4 5 6 
#
# 1 110.3418 33.4111 43.0696 0.0000 0.0000 0.0000
# 2 33.4111 110.3419 43.0696 0.0000 0.0000 0.0000
# 3 43.0696 43.0696 113.9124 0.0000 0.0000 0.0000
# 4 0.0000 0.0000 0.0000 31.8896 0.0000 0.0000
# 5 0.0000 0.0000 0.0000 0.0000 31.8897 0.0000
# 6 0.0000 0.0000 0.0000 0.0000 0.0000 49.8209
#
#
#
# Elastic Compliance Matrix: (Units=1/GPa)
#
#
# Indices 1 2 3 4 5 6 
#
# 1 0.010996 -0.002002 -0.003401 0.000000 0.000000 0.000000
# 2 -0.002002 0.010996 -0.003401 0.000000 0.000000 0.000000
# 3 -0.003401 -0.003401 0.011350 0.000000 0.000000 0.000000
# 4 0.000000 0.000000 0.000000 0.031358 0.000000 0.000000
# 5 0.000000 0.000000 0.000000 0.000000 0.031358 0.000000
# 6 0.000000 0.000000 0.000000 0.000000 0.000000 0.020072
#
#
# Mechanical properties :
#
#
# Convention : Reuss Voigt Hill
#
# Bulk Modulus (GPa) = 63.54896 63.74409 63.64653
# Shear Modulus (GPa) = 35.97549 37.05641 36.51595
#
# Velocity S-wave (km/s) = 4.05665 4.11714 4.08701
# Velocity P-wave (km/s) = 7.14223 7.19444 7.16838
#
# Compressibility (1/GPa) = 0.01573590
#
# Stress axis : x y z
#
# Youngs Moduli (GPa) = 90.93887 90.93898 88.10442
#
# Poissons Ratio (x) = 0.18209 0.29961
# Poissons Ratio (y) = 0.18209 0.29961
# Poissons Ratio (z) = 0.30925 0.30925
#
# Static dielectric constant tensor:
#      x y z
#    x 1.760840 0.000000 0.000000 
#    y 0.000000 1.760840 0.000000 
#    z 0.000000 0.000000 1.900590 
# 
# From -- ./inp_files/3530.got.cif
#   From: 2010.05.17/outbox.cif.g08.bks.cpg/sg117_2_cif.got.tgz:3530.got - 2010.05.20 11:15:09.
