data_PCOD9558052
_publ_section_title
;
Structure prediction by ZEFSAII (Michael W. Deem and Ramdas Pophale) SiO2 
 PCOD9558052
Probable space group: P -4 B 2
;
_chemical_formula_sum "Si O2"
_cell_formula_units_Z 64
_cell_length_a 21.958576
_cell_length_b 21.958576
_cell_length_c 5.777324
_cell_angle_alpha 90.000000
_cell_angle_beta 90.000000
_cell_angle_gamma 90.000000
_cell_volume 2785.704655
_symmetry_space_group_name_H-M "P -4 B 2"
_symmetry_group_IT_number 117
_symmetry_cell_setting 'tetragonal'
loop_
_space_group_symop_operation_xyz
x,y,z
y,-x,-z
-x,-y,z
-y,x,-z
1/2+y,1/2+x,-z
1/2-y,1/2-x,-z
1/2-x,1/2+y,z
1/2+x,1/2-y,z
loop_
_atom_site_type_symbol
_atom_site_label
_atom_site_fract_x
_atom_site_fract_y
_atom_site_fract_z
Si Si1 0.653747 0.624425 0.079457
Si Si2 0.954093 0.791310 0.271450
Si Si3 0.267017 0.270222 0.255627
Si Si4 0.917672 0.451813 0.249283
Si Si5 0.120427 0.687606 0.249652
Si Si6 0.911788 0.046391 0.440843
Si Si7 0.284563 0.561608 0.049781
Si Si8 0.489200 0.207002 0.588274
O O1 0.686406 0.672463 0.250003
O O2 0.607502 0.575727 0.194383
O O3 0.707162 0.592441 0.938562
O O4 0.613104 0.666466 0.910249
O O5 0.939412 0.850868 0.417556
O O6 0.959886 0.727342 0.404307
O O7 0.020745 0.804661 0.165385
O O8 0.230545 0.269456 0.500000
O O9 0.311434 0.211260 0.266131
O O10 0.234651 0.265350 0.000000
O O11 0.952673 0.452673 0.500000
O O12 0.891359 0.383359 0.241113
O O13 0.858107 0.494934 0.284487
O O14 0.953267 0.453267 0.000000
O O15 0.075839 0.707278 0.457514
O O16 0.093198 0.722019 0.027955
O O17 0.973571 0.075804 0.546354
O O18 0.265625 0.516026 0.248812
#
# Coordination Sequence:
#
# PCOD9558052 Si02
#       8
#     8   8   8   8   8   8   8   8
#     4  11  26  40  62  85 114 154 204 277 344 400
#     4  11  24  38  58  79 109 148 205 266 334 388
#     4  11  25  41  62  90 119 149 190 253 340 414
#     4  10  17  29  49  78 111 145 181 233 300 376
#     4   9  19  30  53  80 110 144 180 241 313 387
#     4  11  25  45  63  79 110 158 222 288 341 382
#     4  10  20  37  54  78 105 147 198 257 331 389
#     4  10  20  33  52  78 114 147 192 246 317 387
#
# _framework density 22.974437999999999
#
# number of rings (size 3 to 8) (size 9 to 14) (size 15 to 20)
#    0.000    1.625    2.500    2.250   10.500    0.000 
#    0.000    1.250    0.000    0.000    0.000    0.000 
#    0.000    0.000    0.000    0.000    0.000    0.000 
#
# Total GULP energy -356737.793171 kJ/mol
# GULP energy per Si atom -5574.028018 kJ/mol
# Density = 2.292215 g / cm^3
# Si number density = 22.974438 Si / 1000 Ang^3
#
#
#
# Elastic Constant Matrix: (Units=GPa)
#
#
# Indices 1 2 3 4 5 6 
#
# 1 44.3275 64.8507 31.7732 0.0000 0.0000 0.0000
# 2 64.8507 44.3264 31.7723 0.0000 0.0000 0.0000
# 3 31.7732 31.7723 115.5047 0.0000 0.0000 0.0000
# 4 0.0000 0.0000 0.0000 -30.1309 0.0000 0.0000
# 5 0.0000 0.0000 0.0000 0.0000 -30.1347 0.0000
# 6 0.0000 0.0000 0.0000 0.0000 0.0000 30.9211
#
#
#
# Elastic Compliance Matrix: (Units=1/GPa)
#
#
# Indices 1 2 3 4 5 6 
#
# 1 -0.018909 0.029815 -0.003000 0.000000 0.000000 0.000000
# 2 0.029815 -0.018910 -0.003000 0.000000 0.000000 0.000000
# 3 -0.003000 -0.003000 0.010308 0.000000 0.000000 0.000000
# 4 0.000000 0.000000 0.000000 -0.033189 0.000000 0.000000
# 5 0.000000 0.000000 0.000000 0.000000 -0.033184 0.000000
# 6 0.000000 0.000000 0.000000 0.000000 0.000000 0.032340
#
#
# Mechanical properties :
#
#
# Convention : Reuss Voigt Hill
#
# Bulk Modulus (GPa) = 49.70301 51.21677 50.45989
# Shear Modulus (GPa) = -48.79627 -0.81807 -24.80717
#
# Velocity S-wave (km/s) = -4.61362 -0.59737 -3.28955
# Velocity P-wave (km/s) = 2.58837 4.67606 2.75372
#
# Compressibility (1/GPa) = 0.02011951
#
# Stress axis : x y z
#
# Youngs Moduli (GPa) = -52.88436 -52.88339 97.01177
#
# Poissons Ratio (x) = 1.57671 0.29101
# Poissons Ratio (y) = 1.57673 0.29103
# Poissons Ratio (z) = -0.15864 -0.15865
#
# Static dielectric constant tensor:
#      x y z
#    x 1.864900 0.000000 0.000000 
#    y 0.000000 1.864900 0.000000 
#    z 0.000000 0.000000 2.069420 
# 
# From -- ./inp_files/983.got.cif
#   From: 2010.05.17/outbox.cif.g08.bks.cpg/sg117_1_cif.got.tgz:983.got - 2010.05.20 11:15:09.
