data_PCOD9558620
_publ_section_title
;
Structure prediction by ZEFSAII (Michael W. Deem and Ramdas Pophale) SiO2 
 PCOD9558620
Probable space group: P -4 N 2
;
_chemical_formula_sum "Si O2"
_cell_formula_units_Z 34
_cell_length_a 8.603410
_cell_length_b 8.603410
_cell_length_c 20.298572
_cell_angle_alpha 90.000000
_cell_angle_beta 90.000000
_cell_angle_gamma 90.000000
_cell_volume 1502.473173
_symmetry_space_group_name_H-M "P -4 N 2"
_symmetry_group_IT_number 118
_symmetry_cell_setting 'tetragonal'
loop_
_space_group_symop_operation_xyz
x,y,z
y,-x,-z
-x,-y,z
-y,x,-z
1/2+y,1/2+x,1/2-z
1/2-y,1/2-x,1/2-z
1/2-x,1/2+y,1/2+z
1/2+x,1/2-y,1/2+z
loop_
_atom_site_type_symbol
_atom_site_label
_atom_site_fract_x
_atom_site_fract_y
_atom_site_fract_z
Si Si1 0.634395 0.377798 0.598099
Si Si2 0.716796 0.621393 0.998750
Si Si3 0.000000 0.500000 0.750000
Si Si4 0.351392 0.858953 0.364118
Si Si5 0.428999 0.153920 0.675053
O O1 0.500000 0.500000 0.573734
O O2 0.698156 0.252552 0.543943
O O3 0.768483 0.486150 0.627338
O O4 0.556118 0.284263 0.658416
O O5 0.817932 0.575246 0.935451
O O6 0.682248 0.450858 0.027913
O O7 0.027539 0.360085 0.698382
O O8 0.221927 0.729591 0.352279
O O9 0.389616 0.110385 0.750000
O O10 0.500000 0.000000 0.642446
#
# Coordination Sequence:
#
# PCOD9558620 Si02
#       5
#     8   8   2   8   8
#     4  10  24  42  69 107 142 190 246 300 366 441
#     4  11  25  46  72 108 147 191 244 307 376 439
#     4  12  24  44  62  96 134 188 238 286 364 424
#     4  11  24  42  68 100 144 191 239 302 362 438
#     4  10  21  41  69  99 138 187 243 303 363 434
#
# _framework density 22.629353999999999
#
# number of rings (size 3 to 8) (size 9 to 14) (size 15 to 20)
#    0.000    1.412    1.176    2.824    6.588    1.882 
#    2.118    4.706    0.000    0.000    0.000    0.000 
#    0.000    0.000    0.000    0.000    0.000    0.000 
#
# Total GULP energy -189455.444103 kJ/mol
# GULP energy per Si atom -5572.218944 kJ/mol
# Density = 2.257785 g / cm^3
# Si number density = 22.629354 Si / 1000 Ang^3
#
#
#
# Elastic Constant Matrix: (Units=GPa)
#
#
# Indices 1 2 3 4 5 6 
#
# 1 113.4042 62.4457 53.3605 0.0000 0.0000 0.0000
# 2 62.4457 113.4043 53.3605 0.0000 0.0000 0.0000
# 3 53.3605 53.3605 120.3627 0.0000 0.0000 0.0000
# 4 0.0000 0.0000 0.0000 27.8056 0.0000 0.0000
# 5 0.0000 0.0000 0.0000 0.0000 27.8057 0.0000
# 6 0.0000 0.0000 0.0000 0.0000 0.0000 41.2914
#
#
#
# Elastic Compliance Matrix: (Units=1/GPa)
#
#
# Indices 1 2 3 4 5 6 
#
# 1 0.013702 -0.005922 -0.003449 0.000000 0.000000 0.000000
# 2 -0.005922 0.013702 -0.003449 0.000000 0.000000 0.000000
# 3 -0.003449 -0.003449 0.011366 0.000000 0.000000 0.000000
# 4 0.000000 0.000000 0.000000 0.035964 0.000000 0.000000
# 5 0.000000 0.000000 0.000000 0.000000 0.035964 0.000000
# 6 0.000000 0.000000 0.000000 0.000000 0.000000 0.024218
#
#
# Mechanical properties :
#
#
# Convention : Reuss Voigt Hill
#
# Bulk Modulus (GPa) = 76.16223 76.16718 76.16471
# Shear Modulus (GPa) = 30.31538 31.24750 30.78144
#
# Velocity S-wave (km/s) = 3.66409 3.72000 3.69215
# Velocity P-wave (km/s) = 7.18542 7.22377 7.20462
#
# Compressibility (1/GPa) = 0.01312987
#
# Stress axis : x y z
#
# Youngs Moduli (GPa) = 72.98300 72.98307 87.97898
#
# Poissons Ratio (x) = 0.43220 0.30344
# Poissons Ratio (y) = 0.43220 0.30344
# Poissons Ratio (z) = 0.25172 0.25172
#
# Static dielectric constant tensor:
#      x y z
#    x 1.927860 0.000000 0.000000 
#    y 0.000000 1.927860 0.000000 
#    z 0.000000 0.000000 1.880030 
# 
# From -- ./inp_files/5445.got.cif
#   From: 2010.05.17/outbox.cif.g08.bks.cpg/sg118_3_cif.got.tgz:5445.got - 2010.05.20 11:17:24.
