data_PCOD9558640
_publ_section_title
;
Structure prediction by ZEFSAII (Michael W. Deem and Ramdas Pophale) SiO2 
 PCOD9558640
Probable space group: P -4 N 2
;
_chemical_formula_sum "Si O2"
_cell_formula_units_Z 56
_cell_length_a 11.380311
_cell_length_b 11.380311
_cell_length_c 24.917643
_cell_angle_alpha 90.000000
_cell_angle_beta 90.000000
_cell_angle_gamma 90.000000
_cell_volume 3227.120785
_symmetry_space_group_name_H-M "P -4 N 2"
_symmetry_group_IT_number 118
_symmetry_cell_setting 'tetragonal'
loop_
_space_group_symop_operation_xyz
x,y,z
y,-x,-z
-x,-y,z
-y,x,-z
1/2+y,1/2+x,1/2-z
1/2-y,1/2-x,1/2-z
1/2-x,1/2+y,1/2+z
1/2+x,1/2-y,1/2+z
loop_
_atom_site_type_symbol
_atom_site_label
_atom_site_fract_x
_atom_site_fract_y
_atom_site_fract_z
Si Si1 0.218719 0.912489 0.237379
Si Si2 0.126234 0.550384 0.335167
Si Si3 0.688435 0.486519 0.430357
Si Si4 0.275634 0.646450 0.799385
Si Si5 0.253030 0.515857 0.231125
Si Si6 0.480272 0.301134 0.443567
Si Si7 0.634084 0.959613 0.145759
O O1 0.309898 0.809898 0.250000
O O2 0.090288 0.855058 0.238971
O O3 0.216844 0.010918 0.282849
O O4 0.272682 0.976080 0.185262
O O5 0.215964 0.539135 0.384439
O O6 0.173789 0.480890 0.282660
O O7 0.099358 0.678883 0.309205
O O8 0.000000 0.500000 0.351147
O O9 0.588255 0.386351 0.427816
O O10 0.630006 0.616405 0.425874
O O11 0.723836 0.478966 0.493008
O O12 0.213475 0.713475 0.750000
O O13 0.405609 0.698759 0.801864
O O14 0.180045 0.650426 0.846116
O O15 0.489266 0.179204 0.412883
O O16 0.500000 0.000000 0.157598
#
# Coordination Sequence:
#
# PCOD9558640 Si02
#       7
#     8   8   8   8   8   8   8
#     4  11  20  36  52  77 112 151 186 223 273 337
#     4  11  22  33  53  77 116 149 183 227 286 332
#     4   9  20  39  58  83 109 144 188 243 286 344
#     4  10  22  34  53  77 114 144 186 226 276 336
#     4  11  22  37  50  81 116 152 191 224 270 347
#     4   9  20  38  60  82 110 139 191 242 292 337
#     4  11  22  35  58  82 113 148 185 236 291 335
#
# _framework density 17.352929
#
# number of rings (size 3 to 8) (size 9 to 14) (size 15 to 20)
#    0.000    1.714    2.857    3.857    6.000    0.571 
#    0.000    0.000    0.000    0.000    0.000    0.000 
#    0.000    0.000    0.000    0.000    0.000    0.000 
#
# Total GULP energy -311952.918959 kJ/mol
# GULP energy per Si atom -5570.587839 kJ/mol
# Density = 1.731343 g / cm^3
# Si number density = 17.352929 Si / 1000 Ang^3
#
#
#
# Elastic Constant Matrix: (Units=GPa)
#
#
# Indices 1 2 3 4 5 6 
#
# 1 83.3989 32.0123 41.7856 0.0000 0.0000 0.0000
# 2 32.0123 83.3989 41.7856 0.0000 0.0000 0.0000
# 3 41.7856 41.7856 86.5391 0.0000 0.0000 0.0000
# 4 0.0000 0.0000 0.0000 21.1698 0.0000 0.0000
# 5 0.0000 0.0000 0.0000 0.0000 21.1698 0.0000
# 6 0.0000 0.0000 0.0000 0.0000 0.0000 23.9338
#
#
#
# Elastic Compliance Matrix: (Units=1/GPa)
#
#
# Indices 1 2 3 4 5 6 
#
# 1 0.016392 -0.003069 -0.006433 0.000000 0.000000 0.000000
# 2 -0.003069 0.016392 -0.006433 0.000000 0.000000 0.000000
# 3 -0.006433 -0.006433 0.017768 0.000000 0.000000 0.000000
# 4 0.000000 0.000000 0.000000 0.047237 0.000000 0.000000
# 5 0.000000 0.000000 0.000000 0.000000 0.047237 0.000000
# 6 0.000000 0.000000 0.000000 0.000000 0.000000 0.041782
#
#
# Mechanical properties :
#
#
# Convention : Reuss Voigt Hill
#
# Bulk Modulus (GPa) = 53.52841 53.83379 53.68110
# Shear Modulus (GPa) = 22.23173 22.43824 22.33499
#
# Velocity S-wave (km/s) = 3.58320 3.59980 3.59151
# Velocity P-wave (km/s) = 6.93058 6.95474 6.94267
#
# Compressibility (1/GPa) = 0.01868167
#
# Stress axis : x y z
#
# Youngs Moduli (GPa) = 61.00676 61.00676 56.28139
#
# Poissons Ratio (x) = 0.18721 0.36206
# Poissons Ratio (y) = 0.18721 0.36206
# Poissons Ratio (z) = 0.39246 0.39246
#
# Static dielectric constant tensor:
#      x y z
#    x 1.641500 0.000000 0.000000 
#    y 0.000000 1.641500 0.000000 
#    z 0.000000 0.000000 1.584150 
# 
# From -- ./inp_files/6235.got.cif
#   From: 2010.05.17/outbox.cif.g08.bks.cpg/sg118_4_cif.got.tgz:6235.got - 2010.05.20 11:17:24.
