data_PCOD9558918
_publ_section_title
;
Structure prediction by ZEFSAII (Michael W. Deem and Ramdas Pophale) SiO2 
 PCOD9558918
Probable space group: P -4 N 2
;
_chemical_formula_sum "Si O2"
_cell_formula_units_Z 24
_cell_length_a 8.850242
_cell_length_b 8.850242
_cell_length_c 10.758018
_cell_angle_alpha 90.000000
_cell_angle_beta 90.000000
_cell_angle_gamma 90.000000
_cell_volume 842.640946
_symmetry_space_group_name_H-M "P -4 N 2"
_symmetry_group_IT_number 118
_symmetry_cell_setting 'tetragonal'
loop_
_space_group_symop_operation_xyz
x,y,z
y,-x,-z
-x,-y,z
-y,x,-z
1/2+y,1/2+x,1/2-z
1/2-y,1/2-x,1/2-z
1/2-x,1/2+y,1/2+z
1/2+x,1/2-y,1/2+z
loop_
_atom_site_type_symbol
_atom_site_label
_atom_site_fract_x
_atom_site_fract_y
_atom_site_fract_z
Si Si1 0.541854 0.231609 0.654220
Si Si2 0.153164 0.653776 0.561769
Si Si3 0.597538 0.349403 0.156012
O O1 0.610681 0.110681 0.750000
O O2 0.684125 0.339763 0.628501
O O3 0.493175 0.158685 0.524560
O O4 0.399921 0.315810 0.717681
O O5 0.155216 0.787643 0.458861
O O6 0.012123 0.703511 0.647887
O O7 0.500000 0.500000 0.137967
#
# Coordination Sequence:
#
# PCOD9558918 Si02
#       3
#     8   8   8
#     4  12  29  49  86 120 160 219 279 329 414 501
#     4  12  27  48  83 115 163 215 271 333 413 482
#     4  12  24  51  76 110 167 210 254 343 402 458
#
# _framework density 28.48188
#
# number of rings (size 3 to 8) (size 9 to 14) (size 15 to 20)
#    0.000    0.000    6.667    1.000    4.667    9.333 
#    0.000    0.000    7.333    0.000    0.000    0.000 
#    0.000    0.000    0.000    0.000    0.000    0.000 
#
# Total GULP energy -134571.800082 kJ/mol
# GULP energy per Si atom -5607.158337 kJ/mol
# Density = 2.841705 g / cm^3
# Si number density = 28.481880 Si / 1000 Ang^3
#
#
#
# Elastic Constant Matrix: (Units=GPa)
#
#
# Indices 1 2 3 4 5 6 
#
# 1 114.8024 52.6769 70.0262 0.0000 0.0000 0.0000
# 2 52.6769 114.8024 70.0262 0.0000 0.0000 0.0000
# 3 70.0262 70.0262 135.9922 0.0000 0.0000 0.0000
# 4 0.0000 0.0000 0.0000 68.2853 0.0000 0.0000
# 5 0.0000 0.0000 0.0000 0.0000 68.2853 0.0000
# 6 0.0000 0.0000 0.0000 0.0000 0.0000 58.3064
#
#
#
# Elastic Compliance Matrix: (Units=1/GPa)
#
#
# Indices 1 2 3 4 5 6 
#
# 1 0.013291 -0.002805 -0.005400 0.000000 0.000000 0.000000
# 2 -0.002805 0.013291 -0.005400 0.000000 0.000000 0.000000
# 3 -0.005400 -0.005400 0.012914 0.000000 0.000000 0.000000
# 4 0.000000 0.000000 0.000000 0.014644 0.000000 0.000000
# 5 0.000000 0.000000 0.000000 0.000000 0.014644 0.000000
# 6 0.000000 0.000000 0.000000 0.000000 0.000000 0.017151
#
#
# Mechanical properties :
#
#
# Convention : Reuss Voigt Hill
#
# Bulk Modulus (GPa) = 81.37947 83.45062 82.41504
# Shear Modulus (GPa) = 42.64697 50.49993 46.57345
#
# Velocity S-wave (km/s) = 3.87374 4.21533 4.04814
# Velocity P-wave (km/s) = 6.97440 7.28390 7.13083
#
# Compressibility (1/GPa) = 0.01228811
#
# Stress axis : x y z
#
# Youngs Moduli (GPa) = 75.23674 75.23674 77.43371
#
# Poissons Ratio (x) = 0.21104 0.41812
# Poissons Ratio (y) = 0.21104 0.41812
# Poissons Ratio (z) = 0.40626 0.40626
#
# Static dielectric constant tensor:
#      x y z
#    x 2.226460 0.000000 0.000000 
#    y 0.000000 2.226460 0.000000 
#    z 0.000000 0.000000 2.225490 
# 
# From -- ./inp_files/3723.got.cif
#   From: 2010.05.17/outbox.cif.g08.bks.cpg/sg118_2_cif.got.tgz:3723.got - 2010.05.20 11:17:24.
