data_PCOD9558025
_publ_section_title
;
Structure prediction by ZEFSAII (Michael W. Deem and Ramdas Pophale) SiO2 
 PCOD9558025
Probable space group: P -4 C 2
;
_chemical_formula_sum "Si O2"
_cell_formula_units_Z 34
_cell_length_a 8.371041
_cell_length_b 8.371041
_cell_length_c 18.419669
_cell_angle_alpha 90.000000
_cell_angle_beta 90.000000
_cell_angle_gamma 90.000000
_cell_volume 1290.745917
_symmetry_space_group_name_H-M "P -4 C 2"
_symmetry_group_IT_number 116
_symmetry_cell_setting 'tetragonal'
loop_
_space_group_symop_operation_xyz
x,y,z
y,-x,-z
-x,-y,z
-y,x,-z
y,x,1/2-z
-y,-x,1/2-z
-x,y,1/2+z
x,-y,1/2+z
loop_
_atom_site_type_symbol
_atom_site_label
_atom_site_fract_x
_atom_site_fract_y
_atom_site_fract_z
Si Si1 0.165020 0.270682 0.346896
Si Si2 0.000000 0.000000 0.500000
Si Si3 0.000000 0.000000 0.250000
Si Si4 0.902019 0.339297 0.013132
Si Si5 0.500000 0.500000 0.750000
Si Si6 0.500000 0.000000 0.261467
Si Si7 0.742731 0.552551 0.639795
O O1 0.112321 0.319807 0.427376
O O2 0.357626 0.245652 0.353900
O O3 0.123981 0.409825 0.289607
O O4 0.054816 0.134526 0.310238
O O5 0.172134 0.979733 0.461253
O O6 0.000000 0.500000 0.029156
O O7 0.743963 0.372343 0.060198
O O8 0.592551 0.599018 0.686291
O O9 0.388367 0.897894 0.315606
#
# Coordination Sequence:
#
# PCOD9558025 Si02
#       7
#     8   2   2   8   2   4   8
#     4  12  26  50  79 126 166 227 300 370 464 559
#     4  12  30  52  80 138 162 236 320 354 482 588
#     4  12  24  50  92 124 176 222 312 388 442 578
#     4  12  28  51  84 118 180 224 290 384 455 553
#     4  12  26  50  82 112 160 218 296 336 448 554
#     4  12  22  48  80 106 162 218 286 360 430 536
#     4  12  27  51  77 118 168 222 281 369 450 545
#
# _framework density 26.341360000000002
#
# number of rings (size 3 to 8) (size 9 to 14) (size 15 to 20)
#    0.000    0.000    7.059    2.118    0.000    8.471 
#    0.000    0.000    0.000    0.000    0.000    0.000 
#    0.000    0.000    0.000    0.000    0.000    0.000 
#
# Total GULP energy -189333.520168 kJ/mol
# GULP energy per Si atom -5568.632946 kJ/mol
# Density = 2.628141 g / cm^3
# Si number density = 26.341360 Si / 1000 Ang^3
#
#
#
# Elastic Constant Matrix: (Units=GPa)
#
#
# Indices 1 2 3 4 5 6 
#
# 1 128.9015 47.3887 32.9966 0.0000 0.0000 0.0000
# 2 47.3887 128.9015 32.9966 0.0000 0.0000 0.0000
# 3 32.9966 32.9966 203.6087 0.0000 0.0000 0.0000
# 4 0.0000 0.0000 0.0000-1843.7624 0.0000 0.0000
# 5 0.0000 0.0000 0.0000 0.0000-1843.7624 0.0000
# 6 0.0000 0.0000 0.0000 0.0000 0.0000 43.2263
#
#
#
# Elastic Compliance Matrix: (Units=1/GPa)
#
#
# Indices 1 2 3 4 5 6 
#
# 1 0.009153 -0.003115 -0.000979 0.000000 0.000000 0.000000
# 2 -0.003115 0.009153 -0.000979 0.000000 0.000000 0.000000
# 3 -0.000979 -0.000979 0.005229 0.000000 0.000000 0.000000
# 4 0.000000 0.000000 0.000000 -0.000542 0.000000 0.000000
# 5 0.000000 0.000000 0.000000 0.000000 -0.000542 0.000000
# 6 0.000000 0.000000 0.000000 0.000000 0.000000 0.023134
#
#
# Mechanical properties :
#
#
# Convention : Reuss Voigt Hill
#
# Bulk Modulus (GPa) = 74.67353 76.46398 75.56875
# Shear Modulus (GPa) = 83.06700 -705.65772 -311.29536
#
# Velocity S-wave (km/s) = 5.62168 -16.38509 -10.88274
# Velocity P-wave (km/s) = 8.39926 18.13479 11.36492
#
# Compressibility (1/GPa) = 0.01339163
#
# Stress axis : x y z
#
# Youngs Moduli (GPa) = 109.24890 109.24890 191.25657
#
# Poissons Ratio (x) = 0.34027 0.18717
# Poissons Ratio (y) = 0.34027 0.18717
# Poissons Ratio (z) = 0.10692 0.10692
#
# Static dielectric constant tensor:
#      x y z
#    x 2.578280 0.000000 0.000000 
#    y 0.000000 2.578280 0.000000 
#    z 0.000000 0.000000 2.005040 
# 
# From -- ./inp_files/3967.got.cif
#   From: 2010.05.17/outbox.cif.g08.bks.cpg/sg116_2_cif.got.tgz:3967.got - 2010.05.20 11:11:43.
