data_PCOD9558162
_publ_section_title
;
Structure prediction by ZEFSAII (Michael W. Deem and Ramdas Pophale) SiO2 
 PCOD9558162
Probable space group: P -4 B 2
;
_chemical_formula_sum "Si O2"
_cell_formula_units_Z 58
_cell_length_a 18.055246
_cell_length_b 18.055246
_cell_length_c 8.063710
_cell_angle_alpha 90.000000
_cell_angle_beta 90.000000
_cell_angle_gamma 90.000000
_cell_volume 2628.704209
_symmetry_space_group_name_H-M "P -4 B 2"
_symmetry_group_IT_number 117
_symmetry_cell_setting 'tetragonal'
loop_
_space_group_symop_operation_xyz
x,y,z
y,-x,-z
-x,-y,z
-y,x,-z
1/2+y,1/2+x,-z
1/2-y,1/2-x,-z
1/2-x,1/2+y,z
1/2+x,1/2-y,z
loop_
_atom_site_type_symbol
_atom_site_label
_atom_site_fract_x
_atom_site_fract_y
_atom_site_fract_z
Si Si1 0.714852 0.034003 0.766273
Si Si2 0.438801 0.775706 0.845064
Si Si3 0.500000 0.500000 0.000000
Si Si4 0.948999 0.567420 0.799152
Si Si5 0.652353 0.462033 0.196331
Si Si6 0.710166 0.260455 0.739636
Si Si7 0.386688 0.228797 0.053797
Si Si8 0.679874 0.647382 0.601517
O O1 0.631278 0.054698 0.719130
O O2 0.773952 0.073203 0.647066
O O3 0.718218 0.945736 0.797328
O O4 0.730506 0.060940 0.955886
O O5 0.481002 0.849360 0.782209
O O6 0.463759 0.698327 0.763699
O O7 0.355472 0.792530 0.793345
O O8 0.479958 0.425274 0.895195
O O9 0.000000 0.500000 0.744786
O O10 0.939247 0.560754 0.000000
O O11 0.638345 0.404996 0.345023
O O12 0.717246 0.425481 0.080324
O O13 0.724098 0.319107 0.879763
O O14 0.680595 0.302756 0.577746
O O15 0.782704 0.212167 0.711967
O O16 0.350131 0.149870 0.000000
#
# Coordination Sequence:
#
# PCOD9558162 Si02
#       8
#     8   8   2   8   8   8   8   8
#     4  10  21  35  60  90 122 159 207 264 316 387
#     4  10  21  37  62  92 121 165 205 262 323 376
#     4  12  24  44  64  98 132 172 228 290 352 376
#     4   9  18  30  54  87 123 151 192 245 315 380
#     4  11  23  40  65  91 128 166 220 278 327 397
#     4  11  23  39  62  88 127 169 210 265 323 394
#     4  11  22  37  64  96 127 162 220 277 338 386
#     4  11  23  40  60  90 124 172 217 259 323 394
#
# _framework density 22.064104
#
# number of rings (size 3 to 8) (size 9 to 14) (size 15 to 20)
#    0.000    1.517    2.759    3.310    5.793    1.103 
#    0.000    0.000    0.000    2.483    0.000    0.000 
#    0.000    0.000    0.000    0.000    0.000    0.000 
#
# Total GULP energy -323473.523787 kJ/mol
# GULP energy per Si atom -5577.129720 kJ/mol
# Density = 2.201388 g / cm^3
# Si number density = 22.064104 Si / 1000 Ang^3
#
#
#
# Elastic Constant Matrix: (Units=GPa)
#
#
# Indices 1 2 3 4 5 6 
#
# 1 92.2287 30.5740 4.9895 0.0000 0.0000 0.0000
# 2 30.5740 92.2289 4.9892 0.0000 0.0000 0.0000
# 3 4.9895 4.9892 23.5665 0.0000 0.0000 0.0000
# 4 0.0000 0.0000 0.0000 9.0745 0.0000 0.0000
# 5 0.0000 0.0000 0.0000 0.0000 9.0752 0.0000
# 6 0.0000 0.0000 0.0000 0.0000 0.0000 40.0067
#
#
#
# Elastic Compliance Matrix: (Units=1/GPa)
#
#
# Indices 1 2 3 4 5 6 
#
# 1 0.012253 -0.003967 -0.001754 0.000000 0.000000 0.000000
# 2 -0.003967 0.012252 -0.001754 0.000000 0.000000 0.000000
# 3 -0.001754 -0.001754 0.043176 0.000000 0.000000 0.000000
# 4 0.000000 0.000000 0.000000 0.110200 0.000000 0.000000
# 5 0.000000 0.000000 0.000000 0.000000 0.110191 0.000000
# 6 0.000000 0.000000 0.000000 0.000000 0.000000 0.024996
#
#
# Mechanical properties :
#
#
# Convention : Reuss Voigt Hill
#
# Bulk Modulus (GPa) = 18.96437 32.12551 25.54494
# Shear Modulus (GPa) = 14.46782 22.79602 18.63192
#
# Velocity S-wave (km/s) = 2.56348 3.21779 2.90909
# Velocity P-wave (km/s) = 4.16841 5.32890 4.78398
#
# Compressibility (1/GPa) = 0.05273047
#
# Stress axis : x y z
#
# Youngs Moduli (GPa) = 81.61576 81.61607 23.16107
#
# Poissons Ratio (x) = 0.32376 0.04063
# Poissons Ratio (y) = 0.32376 0.04063
# Poissons Ratio (z) = 0.14318 0.14316
#
# Static dielectric constant tensor:
#      x y z
#    x 1.890200 0.000000 0.000000 
#    y 0.000000 1.890200 0.000000 
#    z 0.000000 0.000000 1.827520 
# 
# From -- ./inp_files/2084.got.cif
#   From: 2010.05.17/outbox.cif.g08.bks.cpg/sg117_2_cif.got.tgz:2084.got - 2010.05.20 11:15:09.
