data_PCOD9558528
_publ_section_title
;
Structure prediction by ZEFSAII (Michael W. Deem and Ramdas Pophale) SiO2 
 PCOD9558528
Probable space group: P -4 N 2
;
_chemical_formula_sum "Si O2"
_cell_formula_units_Z 24
_cell_length_a 10.152346
_cell_length_b 10.152346
_cell_length_c 11.664067
_cell_angle_alpha 90.000000
_cell_angle_beta 90.000000
_cell_angle_gamma 90.000000
_cell_volume 1202.216894
_symmetry_space_group_name_H-M "P -4 N 2"
_symmetry_group_IT_number 118
_symmetry_cell_setting 'tetragonal'
loop_
_space_group_symop_operation_xyz
x,y,z
y,-x,-z
-x,-y,z
-y,x,-z
1/2+y,1/2+x,1/2-z
1/2-y,1/2-x,1/2-z
1/2-x,1/2+y,1/2+z
1/2+x,1/2-y,1/2+z
loop_
_atom_site_type_symbol
_atom_site_label
_atom_site_fract_x
_atom_site_fract_y
_atom_site_fract_z
Si Si1 0.771513 0.243991 0.440533
Si Si2 0.912772 0.870357 0.762648
Si Si3 0.846555 0.481513 0.892492
O O1 0.872900 0.195559 0.340113
O O2 0.664215 0.335348 0.378220
O O3 0.848376 0.310044 0.543051
O O4 0.701434 0.105889 0.470256
O O5 0.998414 0.743525 0.720826
O O6 0.000000 0.000000 0.767419
O O7 0.000000 0.500000 0.875171
#
# Coordination Sequence:
#
# PCOD9558528 Si02
#       3
#     8   8   8
#     4   9  20  36  63  93 125 168 224 265 335 404
#     4   9  19  37  62  92 127 169 224 270 321 411
#     4  10  20  38  63  93 128 171 216 274 337 399
#
# _framework density 19.96312
#
# number of rings (size 3 to 8) (size 9 to 14) (size 15 to 20)
#    2.000    0.667    0.000    2.000    0.000    2.667 
#    6.000    3.333    7.333    0.000    0.000    0.000 
#    0.000    0.000    0.000    0.000    0.000    0.000 
#
# Total GULP energy -133644.458094 kJ/mol
# GULP energy per Si atom -5568.519087 kJ/mol
# Density = 1.991768 g / cm^3
# Si number density = 19.963120 Si / 1000 Ang^3
#
#
#
# Elastic Constant Matrix: (Units=GPa)
#
#
# Indices 1 2 3 4 5 6 
#
# 1 141.4101 85.5615 54.5916 0.0000 0.0000 0.0000
# 2 85.5615 141.4101 54.5916 0.0000 0.0000 0.0000
# 3 54.5916 54.5916 69.2792 0.0000 0.0000 0.0000
# 4 0.0000 0.0000 0.0000 28.8630 0.0000 0.0000
# 5 0.0000 0.0000 0.0000 0.0000 28.8630 0.0000
# 6 0.0000 0.0000 0.0000 0.0000 0.0000 40.7631
#
#
#
# Elastic Compliance Matrix: (Units=1/GPa)
#
#
# Indices 1 2 3 4 5 6 
#
# 1 0.012500 -0.005405 -0.005591 0.000000 0.000000 0.000000
# 2 -0.005405 0.012500 -0.005591 0.000000 0.000000 0.000000
# 3 -0.005591 -0.005591 0.023246 0.000000 0.000000 0.000000
# 4 0.000000 0.000000 0.000000 0.034646 0.000000 0.000000
# 5 0.000000 0.000000 0.000000 0.000000 0.034646 0.000000
# 6 0.000000 0.000000 0.000000 0.000000 0.000000 0.024532
#
#
# Mechanical properties :
#
#
# Convention : Reuss Voigt Hill
#
# Bulk Modulus (GPa) = 66.34745 82.39875 74.37310
# Shear Modulus (GPa) = 27.73609 30.18814 28.96211
#
# Velocity S-wave (km/s) = 3.73146 3.89291 3.81304
# Velocity P-wave (km/s) = 7.20224 7.84675 7.53139
#
# Compressibility (1/GPa) = 0.01507217
#
# Stress axis : x y z
#
# Youngs Moduli (GPa) = 79.99690 79.99690 43.01832
#
# Poissons Ratio (x) = 0.43239 0.24052
# Poissons Ratio (y) = 0.43239 0.24052
# Poissons Ratio (z) = 0.44727 0.44727
#
# Static dielectric constant tensor:
#      x y z
#    x 1.714050 0.000000 0.000000 
#    y 0.000000 1.714050 0.000000 
#    z 0.000000 0.000000 1.722030 
# 
# From -- ./inp_files/3739.got.cif
#   From: 2010.05.17/outbox.cif.g08.bks.cpg/sg118_2_cif.got.tgz:3739.got - 2010.05.20 11:17:24.
