data_PCOD9558510
_publ_section_title
;
Structure prediction by ZEFSAII (Michael W. Deem and Ramdas Pophale) SiO2 
 PCOD9558510
Probable space group: P -4 N 2
;
_chemical_formula_sum "Si O2"
_cell_formula_units_Z 34
_cell_length_a 9.155006
_cell_length_b 9.155006
_cell_length_c 19.624401
_cell_angle_alpha 90.000000
_cell_angle_beta 90.000000
_cell_angle_gamma 90.000000
_cell_volume 1644.802192
_symmetry_space_group_name_H-M "P -4 N 2"
_symmetry_group_IT_number 118
_symmetry_cell_setting 'tetragonal'
loop_
_space_group_symop_operation_xyz
x,y,z
y,-x,-z
-x,-y,z
-y,x,-z
1/2+y,1/2+x,1/2-z
1/2-y,1/2-x,1/2-z
1/2-x,1/2+y,1/2+z
1/2+x,1/2-y,1/2+z
loop_
_atom_site_type_symbol
_atom_site_label
_atom_site_fract_x
_atom_site_fract_y
_atom_site_fract_z
Si Si1 0.000000 0.000000 0.500000
Si Si2 0.121440 0.222714 0.394691
Si Si3 0.712816 0.834363 0.680428
Si Si4 0.456722 0.272245 0.235793
Si Si5 0.544386 0.356951 0.628786
O O1 0.900935 0.893751 0.454209
O O2 0.168369 0.137225 0.326841
O O3 0.238682 0.350235 0.405689
O O4 0.963368 0.281690 0.373454
O O5 0.627362 0.872639 0.750000
O O6 0.610799 0.712382 0.648297
O O7 0.876457 0.790318 0.707543
O O8 0.388737 0.111264 0.250000
O O9 0.413705 0.369222 0.302405
O O10 0.500000 0.500000 0.587394
#
# Coordination Sequence:
#
# PCOD9558510 Si02
#       5
#     2   8   8   8   8
#     4  12  24  48  76  92 136 188 260 290 336 448
#     4  11  23  41  69  95 130 186 232 284 339 421
#     4  12  20  36  63 101 137 175 224 285 355 417
#     4  10  20  37  58 101 141 168 214 282 353 406
#     4  11  22  38  64 100 138 167 218 294 360 410
#
# _framework density 20.67118
#
# number of rings (size 3 to 8) (size 9 to 14) (size 15 to 20)
#    0.000    0.941    7.059    0.706    0.000    1.412 
#    0.000    0.000   10.353    0.000    0.000    0.000 
#    0.000    0.000    0.000    0.000    0.000    0.000 
#
# Total GULP energy -189491.310018 kJ/mol
# GULP energy per Si atom -5573.273824 kJ/mol
# Density = 2.062413 g / cm^3
# Si number density = 20.671180 Si / 1000 Ang^3
#
#
#
# Elastic Constant Matrix: (Units=GPa)
#
#
# Indices 1 2 3 4 5 6 
#
# 1 114.3105 100.8533 15.7160 0.0000 0.0000 0.0000
# 2 100.8533 114.3116 15.7168 0.0000 0.0000 0.0000
# 3 15.7160 15.7168 41.1597 0.0000 0.0000 0.0000
# 4 0.0000 0.0000 0.0000 11.9136 0.0000 0.0000
# 5 0.0000 0.0000 0.0000 0.0000 11.9141 0.0000
# 6 0.0000 0.0000 0.0000 0.0000 0.0000 47.8354
#
#
#
# Elastic Compliance Matrix: (Units=1/GPa)
#
#
# Indices 1 2 3 4 5 6 
#
# 1 0.039614 -0.034692 -0.001879 0.000000 0.000000 0.000000
# 2 -0.034692 0.039614 -0.001880 0.000000 0.000000 0.000000
# 3 -0.001879 -0.001880 0.025731 0.000000 0.000000 0.000000
# 4 0.000000 0.000000 0.000000 0.083938 0.000000 0.000000
# 5 0.000000 0.000000 0.000000 0.000000 0.083934 0.000000
# 6 0.000000 0.000000 0.000000 0.000000 0.000000 0.020905
#
#
# Mechanical properties :
#
#
# Convention : Reuss Voigt Hill
#
# Bulk Modulus (GPa) = 35.64131 59.37269 47.50700
# Shear Modulus (GPa) = 13.15821 23.49899 18.32860
#
# Velocity S-wave (km/s) = 2.52573 3.37530 2.98094
# Velocity P-wave (km/s) = 5.07791 6.63137 5.90594
#
# Compressibility (1/GPa) = 0.02805733
#
# Stress axis : x y z
#
# Youngs Moduli (GPa) = 25.24336 25.24347 38.86376
#
# Poissons Ratio (x) = 0.87575 0.07302
# Poissons Ratio (y) = 0.87575 0.07307
# Poissons Ratio (z) = 0.04743 0.04746
#
# Static dielectric constant tensor:
#      x y z
#    x 1.826150 0.000000 0.000000 
#    y 0.000000 1.826150 0.000000 
#    z 0.000000 0.000000 1.715160 
# 
# From -- ./inp_files/5439.got.cif
#   From: 2010.05.17/outbox.cif.g08.bks.cpg/sg118_3_cif.got.tgz:5439.got - 2010.05.20 11:17:24.
