data_PCOD9558095
_publ_section_title
;
Structure prediction by ZEFSAII (Michael W. Deem and Ramdas Pophale) SiO2 
 PCOD9558095
Probable space group: P -4 B 2
;
_chemical_formula_sum "Si O2"
_cell_formula_units_Z 38
_cell_length_a 13.976824
_cell_length_b 13.976824
_cell_length_c 9.650883
_cell_angle_alpha 90.000000
_cell_angle_beta 90.000000
_cell_angle_gamma 90.000000
_cell_volume 1885.315524
_symmetry_space_group_name_H-M "P -4 B 2"
_symmetry_group_IT_number 117
_symmetry_cell_setting 'tetragonal'
loop_
_space_group_symop_operation_xyz
x,y,z
y,-x,-z
-x,-y,z
-y,x,-z
1/2+y,1/2+x,-z
1/2-y,1/2-x,-z
1/2-x,1/2+y,z
1/2+x,1/2-y,z
loop_
_atom_site_type_symbol
_atom_site_label
_atom_site_fract_x
_atom_site_fract_y
_atom_site_fract_z
Si Si1 0.943315 0.850679 0.815590
Si Si2 0.000000 0.000000 0.000000
Si Si3 0.608488 0.381366 0.516917
Si Si4 0.952221 0.695536 0.045202
Si Si5 0.328113 0.333123 0.767086
Si Si6 0.673256 0.826745 0.000000
O O1 0.886948 0.844355 0.673514
O O2 0.058336 0.858537 0.789155
O O3 0.925848 0.763544 0.915851
O O4 0.923746 0.945729 0.904635
O O5 0.495502 0.371626 0.477728
O O6 0.670468 0.328166 0.400122
O O7 0.908487 0.749761 0.177971
O O8 0.065425 0.686550 0.052333
O O9 0.903552 0.596449 0.000000
O O10 0.311431 0.243222 0.868887
#
# Coordination Sequence:
#
# PCOD9558095 Si02
#       6
#     8   2   8   8   8   4
#     4  10  20  31  57  89 123 160 206 252 328 377
#     4  12  16  28  58  92 128 168 202 276 324 384
#     4   9  18  32  54  90 130 161 195 256 330 386
#     4  11  22  39  61  85 126 165 210 267 316 380
#     4  10  19  37  59  88 123 159 211 264 311 389
#     4  10  23  38  64  95 120 162 224 262 322 397
#
# _framework density 20.155778000000002
#
# number of rings (size 3 to 8) (size 9 to 14) (size 15 to 20)
#    0.000    1.895    3.158    2.842    0.000    0.000 
#    0.000    1.053    4.632    3.789    0.000    8.842 
#    0.000    0.000    0.000    0.000    0.000    0.000 
#
# Total GULP energy -212065.166873 kJ/mol
# GULP energy per Si atom -5580.662286 kJ/mol
# Density = 2.010990 g / cm^3
# Si number density = 20.155778 Si / 1000 Ang^3
#
#
#
# Elastic Constant Matrix: (Units=GPa)
#
#
# Indices 1 2 3 4 5 6 
#
# 1 77.9382 25.1105 38.2547 0.0000 0.0000 0.0000
# 2 25.1105 77.9413 38.2546 0.0000 0.0000 0.0000
# 3 38.2547 38.2546 161.0069 0.0000 0.0000 0.0000
# 4 0.0000 0.0000 0.0000 24.8189 0.0000 0.0000
# 5 0.0000 0.0000 0.0000 0.0000 24.8189 0.0000
# 6 0.0000 0.0000 0.0000 0.0000 0.0000 24.3205
#
#
#
# Elastic Compliance Matrix: (Units=1/GPa)
#
#
# Indices 1 2 3 4 5 6 
#
# 1 0.015356 -0.003573 -0.002800 0.000000 0.000000 0.000000
# 2 -0.003573 0.015355 -0.002799 0.000000 0.000000 0.000000
# 3 -0.002800 -0.002799 0.007541 0.000000 0.000000 0.000000
# 4 0.000000 0.000000 0.000000 0.040292 0.000000 0.000000
# 5 0.000000 0.000000 0.000000 0.000000 0.040292 0.000000
# 6 0.000000 0.000000 0.000000 0.000000 0.000000 0.041118
#
#
# Mechanical properties :
#
#
# Convention : Reuss Voigt Hill
#
# Bulk Modulus (GPa) = 50.23043 57.79176 54.01109
# Shear Modulus (GPa) = 27.03665 29.14279 28.08972
#
# Velocity S-wave (km/s) = 3.66647 3.80659 3.73719
# Velocity P-wave (km/s) = 6.54975 6.93217 6.74367
#
# Compressibility (1/GPa) = 0.01990825
#
# Stress axis : x y z
#
# Youngs Moduli (GPa) = 65.12098 65.12392 132.60489
#
# Poissons Ratio (x) = 0.23270 0.37123
# Poissons Ratio (y) = 0.23269 0.37121
# Poissons Ratio (z) = 0.18231 0.18231
#
# Static dielectric constant tensor:
#      x y z
#    x 1.757510 0.000000 0.000000 
#    y 0.000000 1.757510 0.000000 
#    z 0.000000 0.000000 1.754170 
# 
# From -- ./inp_files/1649.got.cif
#   From: 2010.05.17/outbox.cif.g08.bks.cpg/sg117_1_cif.got.tgz:1649.got - 2010.05.20 11:15:09.
