data_PCOD9558286
_publ_section_title
;
Structure prediction by ZEFSAII (Michael W. Deem and Ramdas Pophale) SiO2 
 PCOD9558286
Probable space group: P -4 B 2
;
_chemical_formula_sum "Si O2"
_cell_formula_units_Z 40
_cell_length_a 13.819602
_cell_length_b 13.819602
_cell_length_c 9.299415
_cell_angle_alpha 90.000000
_cell_angle_beta 90.000000
_cell_angle_gamma 90.000000
_cell_volume 1776.015291
_symmetry_space_group_name_H-M "P -4 B 2"
_symmetry_group_IT_number 117
_symmetry_cell_setting 'tetragonal'
loop_
_space_group_symop_operation_xyz
x,y,z
y,-x,-z
-x,-y,z
-y,x,-z
1/2+y,1/2+x,-z
1/2-y,1/2-x,-z
1/2-x,1/2+y,z
1/2+x,1/2-y,z
loop_
_atom_site_type_symbol
_atom_site_label
_atom_site_fract_x
_atom_site_fract_y
_atom_site_fract_z
Si Si1 0.262140 0.340407 0.299068
Si Si2 0.042169 0.397836 0.837724
Si Si3 0.370304 0.255210 0.793222
Si Si4 0.386199 0.395754 0.035518
Si Si5 0.110963 0.902685 0.541124
O O1 0.154408 0.373812 0.254257
O O2 0.284258 0.227772 0.275662
O O3 0.331416 0.394969 0.185037
O O4 0.293220 0.371005 0.457587
O O5 0.000000 0.500000 0.783601
O O6 0.951057 0.324119 0.829611
O O7 0.081419 0.418582 0.000000
O O8 0.404778 0.337582 0.680701
O O9 0.342983 0.311879 0.937433
O O10 0.375641 0.499407 0.958829
O O11 0.017724 0.885475 0.438376
#
# Coordination Sequence:
#
# PCOD9558286 Si02
#       5
#     8   8   8   8   8
#     4  12  25  43  72 106 146 195 252 307 382 466
#     4  11  26  46  70 108 159 202 251 313 392 466
#     4  12  25  43  70 106 142 195 249 301 386 456
#     4  11  22  39  68 105 138 174 245 321 374 434
#     4  11  23  46  75 103 142 182 242 325 381 442
#
# _framework density 22.522328999999999
#
# number of rings (size 3 to 8) (size 9 to 14) (size 15 to 20)
#    0.000    0.600    4.000    3.600    5.600    4.800 
#    0.000    0.000    0.000    0.000    0.000    0.000 
#    0.000    0.000    0.000    0.000    0.000    0.000 
#
# Total GULP energy -223700.624318 kJ/mol
# GULP energy per Si atom -5592.515608 kJ/mol
# Density = 2.247107 g / cm^3
# Si number density = 22.522329 Si / 1000 Ang^3
#
#
#
# Elastic Constant Matrix: (Units=GPa)
#
#
# Indices 1 2 3 4 5 6 
#
# 1 109.5464 22.9761 26.8943 0.0000 0.0000 0.0000
# 2 22.9761 109.5466 26.8943 0.0000 0.0000 0.0000
# 3 26.8943 26.8943 77.4772 0.0000 0.0000 0.0000
# 4 0.0000 0.0000 0.0000 35.1240 0.0000 0.0000
# 5 0.0000 0.0000 0.0000 0.0000 35.1240 0.0000
# 6 0.0000 0.0000 0.0000 0.0000 0.0000 42.9269
#
#
#
# Elastic Compliance Matrix: (Units=1/GPa)
#
#
# Indices 1 2 3 4 5 6 
#
# 1 0.010167 -0.001384 -0.003049 0.000000 0.000000 0.000000
# 2 -0.001384 0.010167 -0.003049 0.000000 0.000000 0.000000
# 3 -0.003049 -0.003049 0.015024 0.000000 0.000000 0.000000
# 4 0.000000 0.000000 0.000000 0.028471 0.000000 0.000000
# 5 0.000000 0.000000 0.000000 0.000000 0.028471 0.000000
# 6 0.000000 0.000000 0.000000 0.000000 0.000000 0.023295
#
#
# Mechanical properties :
#
#
# Convention : Reuss Voigt Hill
#
# Bulk Modulus (GPa) = 49.03213 50.01106 49.52160
# Shear Modulus (GPa) = 36.40154 37.28869 36.84512
#
# Velocity S-wave (km/s) = 4.02461 4.07336 4.04906
# Velocity P-wave (km/s) = 6.58896 6.66156 6.62536
#
# Compressibility (1/GPa) = 0.02039479
#
# Stress axis : x y z
#
# Youngs Moduli (GPa) = 98.35406 98.35427 66.56132
#
# Poissons Ratio (x) = 0.13612 0.20294
# Poissons Ratio (y) = 0.13612 0.20294
# Poissons Ratio (z) = 0.29988 0.29987
#
# Static dielectric constant tensor:
#      x y z
#    x 1.846610 0.000000 0.000000 
#    y 0.000000 1.846610 0.000000 
#    z 0.000000 0.000000 1.817890 
# 
# From -- ./inp_files/1720.got.cif
#   From: 2010.05.17/outbox.cif.g08.bks.cpg/sg117_1_cif.got.tgz:1720.got - 2010.05.20 11:15:09.
