data_PCOD9558830
_publ_section_title
;
Structure prediction by ZEFSAII (Michael W. Deem and Ramdas Pophale) SiO2 
 PCOD9558830
Probable space group: P -4 N 2
;
_chemical_formula_sum "Si O2"
_cell_formula_units_Z 42
_cell_length_a 13.150344
_cell_length_b 13.150344
_cell_length_c 11.204967
_cell_angle_alpha 90.000000
_cell_angle_beta 90.000000
_cell_angle_gamma 90.000000
_cell_volume 1937.692281
_symmetry_space_group_name_H-M "P -4 N 2"
_symmetry_group_IT_number 118
_symmetry_cell_setting 'tetragonal'
loop_
_space_group_symop_operation_xyz
x,y,z
y,-x,-z
-x,-y,z
-y,x,-z
1/2+y,1/2+x,1/2-z
1/2-y,1/2-x,1/2-z
1/2-x,1/2+y,1/2+z
1/2+x,1/2-y,1/2+z
loop_
_atom_site_type_symbol
_atom_site_label
_atom_site_fract_x
_atom_site_fract_y
_atom_site_fract_z
Si Si1 0.554536 0.775856 0.751430
Si Si2 0.265942 0.358429 0.655632
Si Si3 0.328991 0.518786 0.000369
Si Si4 0.000000 0.000000 0.000000
Si Si5 0.269913 0.072438 0.250985
Si Si6 0.803280 0.116251 0.895829
O O1 0.623800 0.876201 0.750000
O O2 0.627547 0.684921 0.703393
O O3 0.521565 0.741673 0.883214
O O4 0.459544 0.777322 0.662948
O O5 0.187521 0.312480 0.750000
O O6 0.250388 0.478269 0.663687
O O7 0.261791 0.331217 0.516151
O O8 0.413967 0.607879 0.009059
O O9 0.264709 0.537780 0.881454
O O10 0.094399 0.948282 0.929906
O O11 0.382906 0.117094 0.250000
O O12 0.196754 0.159749 0.200457
#
# Coordination Sequence:
#
# PCOD9558830 Si02
#       6
#     8   8   8   2   8   8
#     4  11  23  40  66  95 134 173 206 267 340 400
#     4  11  24  41  65  91 129 167 216 270 331 391
#     4  11  23  39  62  96 134 165 212 277 341 389
#     4  12  20  32  72  98 124 164 204 284 334 384
#     4  12  26  40  64  93 128 173 221 271 322 394
#     4  12  22  41  64 101 130 168 222 271 328 400
#
# _framework density 21.675267999999999
#
# number of rings (size 3 to 8) (size 9 to 14) (size 15 to 20)
#    0.000    0.571    7.619    0.000    8.000    0.381 
#    0.000    0.000    0.000    0.571    0.000    0.000 
#    0.000    0.000    0.000    0.000    0.000    0.000 
#
# Total GULP energy -234875.782589 kJ/mol
# GULP energy per Si atom -5592.280538 kJ/mol
# Density = 2.162593 g / cm^3
# Si number density = 21.675268 Si / 1000 Ang^3
#
#
#
# Elastic Constant Matrix: (Units=GPa)
#
#
# Indices 1 2 3 4 5 6 
#
# 1 19.0578 4.9120 -6.6997 0.0000 0.0000 0.0000
# 2 4.9120 19.0591 -6.7003 0.0000 0.0000 0.0000
# 3 -6.6997 -6.7003 99.1299 0.0000 0.0000 0.0000
# 4 0.0000 0.0000 0.0000 23.1630 0.0000 0.0000
# 5 0.0000 0.0000 0.0000 0.0000 23.1635 0.0000
# 6 0.0000 0.0000 0.0000 0.0000 0.0000 18.6088
#
#
#
# Elastic Compliance Matrix: (Units=1/GPa)
#
#
# Indices 1 2 3 4 5 6 
#
# 1 0.057025 -0.013667 0.002930 0.000000 0.000000 0.000000
# 2 -0.013667 0.057021 0.002930 0.000000 0.000000 0.000000
# 3 0.002930 0.002930 0.010484 0.000000 0.000000 0.000000
# 4 0.000000 0.000000 0.000000 0.043172 0.000000 0.000000
# 5 0.000000 0.000000 0.000000 0.000000 0.043171 0.000000
# 6 0.000000 0.000000 0.000000 0.000000 0.000000 0.053738
#
#
# Mechanical properties :
#
#
# Convention : Reuss Voigt Hill
#
# Bulk Modulus (GPa) = 9.18125 13.36342 11.27234
# Shear Modulus (GPa) = 15.79636 22.70271 19.24953
#
# Velocity S-wave (km/s) = 2.70251 3.23987 2.98331
# Velocity P-wave (km/s) = 3.73940 4.49159 4.13264
#
# Compressibility (1/GPa) = 0.10891767
#
# Stress axis : x y z
#
# Youngs Moduli (GPa) = 17.53630 17.53742 95.38445
#
# Poissons Ratio (x) = 0.23968 -0.27950
# Poissons Ratio (y) = 0.23966 -0.27952
# Poissons Ratio (z) = -0.05139 -0.05139
#
# Static dielectric constant tensor:
#      x y z
#    x 1.813060 0.000000 0.000000 
#    y 0.000000 1.813070 0.000000 
#    z 0.000000 0.000000 1.755880 
# 
# From -- ./inp_files/1921.got.cif
#   From: 2010.05.17/outbox.cif.g08.bks.cpg/sg118_1_cif.got.tgz:1921.got - 2010.05.20 11:17:24.
