data_PCOD9558946
_publ_section_title
;
Structure prediction by ZEFSAII (Michael W. Deem and Ramdas Pophale) SiO2 
 PCOD9558946
Probable space group: I -4 M 2
;
_chemical_formula_sum "Si O2"
_cell_formula_units_Z 56
_cell_length_a 16.599902
_cell_length_b 16.599902
_cell_length_c 9.911202
_cell_angle_alpha 90.000000
_cell_angle_beta 90.000000
_cell_angle_gamma 90.000000
_cell_volume 2731.098576
_symmetry_space_group_name_H-M "I -4 M 2"
_symmetry_group_IT_number 119
_symmetry_cell_setting 'tetragonal'
loop_
_space_group_symop_operation_xyz
x,y,z
y,-x,-z
-x,-y,z
-y,x,-z
y,x,-z
-y,-x,-z
-x,y,z
x,-y,z
1/2+x,1/2+y,1/2+z
1/2+y,1/2-x,1/2-z
1/2-x,1/2-y,1/2+z
1/2-y,1/2+x,1/2-z
1/2+y,1/2+x,1/2-z
1/2-y,1/2-x,1/2-z
1/2-x,1/2+y,1/2+z
1/2+x,1/2-y,1/2+z
loop_
_atom_site_type_symbol
_atom_site_label
_atom_site_fract_x
_atom_site_fract_y
_atom_site_fract_z
Si Si1 0.407918 0.260422 0.371299
Si Si2 0.627296 0.127296 0.750000
Si Si3 0.909366 0.807320 0.188556
Si Si4 0.587165 0.906624 0.053281
O O1 0.500000 0.255848 0.324708
O O2 0.410983 0.288948 0.528018
O O3 0.362487 0.330834 0.291261
O O4 0.371865 0.170028 0.385822
O O5 0.721809 0.107553 0.742721
O O6 0.592583 0.095987 0.609163
O O7 0.000000 0.836975 0.224423
O O8 0.500000 0.870084 0.086810
O O9 0.585667 0.000000 0.096131
#
# Coordination Sequence:
#
# PCOD9558946 Si02
#       4
#    16   8  16  16
#     4   8  15  26  38  55  78 104 137 170 200 243
#     4  10  16  23  36  58  86 107 126 158 206 258
#     4   9  16  25  38  56  79 107 135 167 209 250
#     4   9  15  23  38  60  84 107 128 156 198 246
#
# _framework density 20.504570000000001
#
# number of rings (size 3 to 8) (size 9 to 14) (size 15 to 20)
#    0.000    3.143    0.000    4.286    0.000    1.714 
#    0.000    2.857    0.000    1.714    0.000    0.000 
#    0.000    0.000    0.000    0.000    0.000    0.000 
#
# Total GULP energy -155916.791432 kJ/mol
# GULP energy per Si atom -5568.456837 kJ/mol
# Density = 2.045790 g / cm^3
# Si number density = 20.504570 Si / 1000 Ang^3
#
#
#
# Elastic Constant Matrix: (Units=GPa)
#
#
# Indices 1 2 3 4 5 6 
#
# 1 121.8168 83.5203 16.1820 0.0000 0.0000 0.0000
# 2 83.5203 121.8168 16.1820 0.0000 0.0000 0.0000
# 3 16.1820 16.1820 59.0074 0.0000 0.0000 0.0000
# 4 0.0000 0.0000 0.0000 1.0766 0.0000 0.0000
# 5 0.0000 0.0000 0.0000 0.0000 1.0766 0.0000
# 6 0.0000 0.0000 0.0000 0.0000 0.0000 25.9884
#
#
#
# Elastic Compliance Matrix: (Units=1/GPa)
#
#
# Indices 1 2 3 4 5 6 
#
# 1 0.015601 -0.010511 -0.001396 0.000000 0.000000 0.000000
# 2 -0.010511 0.015601 -0.001396 0.000000 0.000000 0.000000
# 3 -0.001396 -0.001396 0.017713 0.000000 0.000000 0.000000
# 4 0.000000 0.000000 0.000000 0.928822 0.000000 0.000000
# 5 0.000000 0.000000 0.000000 0.000000 0.928822 0.000000
# 6 0.000000 0.000000 0.000000 0.000000 0.000000 0.038479
#
#
# Mechanical properties :
#
#
# Convention : Reuss Voigt Hill
#
# Bulk Modulus (GPa) = 44.82452 59.37884 52.10168
# Shear Modulus (GPa) = 2.52643 18.07878 10.30260
#
# Velocity S-wave (km/s) = 1.11122 2.97256 2.24398
# Velocity P-wave (km/s) = 4.85331 6.38773 5.67264
#
# Compressibility (1/GPa) = 0.02230922
#
# Stress axis : x y z
#
# Youngs Moduli (GPa) = 64.09826 64.09826 56.45689
#
# Poissons Ratio (x) = 0.67374 0.07881
# Poissons Ratio (y) = 0.67374 0.07881
# Poissons Ratio (z) = 0.08947 0.08947
#
# Static dielectric constant tensor:
#      x y z
#    x 1.777340 0.000000 0.000000 
#    y 0.000000 1.777340 0.000000 
#    z 0.000000 0.000000 1.718540 
# 
# From -- ./inp_files/2024.got.cif
#   From: 2010.05.17/outbox.cif.g08.bks.cpg/sg119_2_cif.got.tgz:2024.got - 2010.05.20 11:21:29.
