data_PCOD9558240
_publ_section_title
;
Structure prediction by ZEFSAII (Michael W. Deem and Ramdas Pophale) SiO2 
 PCOD9558240
Probable space group: P -4 B 2
;
_chemical_formula_sum "Si O2"
_cell_formula_units_Z 54
_cell_length_a 15.186692
_cell_length_b 15.186692
_cell_length_c 10.445872
_cell_angle_alpha 90.000000
_cell_angle_beta 90.000000
_cell_angle_gamma 90.000000
_cell_volume 2409.190101
_symmetry_space_group_name_H-M "P -4 B 2"
_symmetry_group_IT_number 117
_symmetry_cell_setting 'tetragonal'
loop_
_space_group_symop_operation_xyz
x,y,z
y,-x,-z
-x,-y,z
-y,x,-z
1/2+y,1/2+x,-z
1/2-y,1/2-x,-z
1/2-x,1/2+y,z
1/2+x,1/2-y,z
loop_
_atom_site_type_symbol
_atom_site_label
_atom_site_fract_x
_atom_site_fract_y
_atom_site_fract_z
Si Si1 0.984797 0.668059 0.827232
Si Si2 0.417593 0.438466 0.810897
Si Si3 0.853552 0.374514 0.649683
Si Si4 0.803019 0.960089 0.977214
Si Si5 0.419173 0.856016 0.366603
Si Si6 0.696690 0.288952 0.277493
Si Si7 0.500000 0.000000 0.000000
Si Si8 0.268461 0.231540 0.000000
O O1 0.905425 0.640995 0.737293
O O2 0.068899 0.667392 0.734942
O O3 0.978117 0.750152 0.923014
O O4 0.999801 0.585860 0.916901
O O5 0.500000 0.500000 0.770455
O O6 0.437549 0.391947 0.946657
O O7 0.383679 0.354871 0.729041
O O8 0.332525 0.498290 0.843832
O O9 0.873661 0.373661 0.500000
O O10 0.846883 0.479183 0.677722
O O11 0.782404 0.297152 0.672304
O O12 0.747466 0.870491 0.961545
O O13 0.408666 0.908666 0.500000
O O14 0.368874 0.764029 0.369502
O O15 0.707693 0.258343 0.126999
#
# Coordination Sequence:
#
# PCOD9558240 Si02
#       8
#     8   8   8   8   8   8   2   4
#     4  12  25  40  66 104 142 179 237 299 368 450
#     4  11  22  41  68  98 142 197 239 286 366 460
#     4  12  24  50  73  96 140 193 243 303 356 434
#     4  11  22  39  62  97 142 189 234 289 369 445
#     4  12  27  47  74 105 136 196 252 298 371 448
#     4  11  28  44  68 109 144 185 246 309 371 435
#     4  12  26  38  62 108 148 170 218 300 386 448
#     4  10  23  41  64 101 149 183 231 304 382 438
#
# _framework density 22.414169999999999
#
# number of rings (size 3 to 8) (size 9 to 14) (size 15 to 20)
#    0.000    0.593    7.407    0.889    8.296    0.000 
#    0.000    0.000    0.000    0.000    0.000    0.000 
#    0.000    0.000    0.000    0.000    0.000    0.000 
#
# Total GULP energy -301107.432095 kJ/mol
# GULP energy per Si atom -5576.063557 kJ/mol
# Density = 2.236315 g / cm^3
# Si number density = 22.414170 Si / 1000 Ang^3
#
#
#
# Elastic Constant Matrix: (Units=GPa)
#
#
# Indices 1 2 3 4 5 6 
#
# 1 95.1640 63.2811 16.8603 0.0000 0.0000 0.0000
# 2 63.2811 95.1633 16.8604 0.0000 0.0000 0.0000
# 3 16.8603 16.8604 54.2742 0.0000 0.0000 0.0000
# 4 0.0000 0.0000 0.0000 27.5344 0.0000 0.0000
# 5 0.0000 0.0000 0.0000 0.0000 27.5345 0.0000
# 6 0.0000 0.0000 0.0000 0.0000 0.0000 38.9880
#
#
#
# Elastic Compliance Matrix: (Units=1/GPa)
#
#
# Indices 1 2 3 4 5 6 
#
# 1 0.019062 -0.012304 -0.002099 0.000000 0.000000 0.000000
# 2 -0.012304 0.019062 -0.002100 0.000000 0.000000 0.000000
# 3 -0.002099 -0.002100 0.019729 0.000000 0.000000 0.000000
# 4 0.000000 0.000000 0.000000 0.036318 0.000000 0.000000
# 5 0.000000 0.000000 0.000000 0.000000 0.036318 0.000000
# 6 0.000000 0.000000 0.000000 0.000000 0.000000 0.025649
#
#
# Mechanical properties :
#
#
# Convention : Reuss Voigt Hill
#
# Bulk Modulus (GPa) = 40.24479 48.73390 44.48935
# Shear Modulus (GPa) = 25.32604 28.65135 26.98869
#
# Velocity S-wave (km/s) = 3.36506 3.57917 3.47377
# Velocity P-wave (km/s) = 5.75259 6.23460 5.99844
#
# Compressibility (1/GPa) = 0.02484794
#
# Stress axis : x y z
#
# Youngs Moduli (GPa) = 52.46155 52.46111 50.68590
#
# Poissons Ratio (x) = 0.64546 0.10641
# Poissons Ratio (y) = 0.64546 0.10642
# Poissons Ratio (z) = 0.11014 0.11014
#
# Static dielectric constant tensor:
#      x y z
#    x 1.957000 0.000000 0.000000 
#    y 0.000000 1.957000 0.000000 
#    z 0.000000 0.000000 1.828800 
# 
# From -- ./inp_files/2899.got.cif
#   From: 2010.05.17/outbox.cif.g08.bks.cpg/sg117_2_cif.got.tgz:2899.got - 2010.05.20 11:15:09.
