data_PCOD9558248
_publ_section_title
;
Structure prediction by ZEFSAII (Michael W. Deem and Ramdas Pophale) SiO2 
 PCOD9558248
Probable space group: P -4 B 2
;
_chemical_formula_sum "Si O2"
_cell_formula_units_Z 36
_cell_length_a 11.792616
_cell_length_b 11.792616
_cell_length_c 10.946934
_cell_angle_alpha 90.000000
_cell_angle_beta 90.000000
_cell_angle_gamma 90.000000
_cell_volume 1522.344048
_symmetry_space_group_name_H-M "P -4 B 2"
_symmetry_group_IT_number 117
_symmetry_cell_setting 'tetragonal'
loop_
_space_group_symop_operation_xyz
x,y,z
y,-x,-z
-x,-y,z
-y,x,-z
1/2+y,1/2+x,-z
1/2-y,1/2-x,-z
1/2-x,1/2+y,z
1/2+x,1/2-y,z
loop_
_atom_site_type_symbol
_atom_site_label
_atom_site_fract_x
_atom_site_fract_y
_atom_site_fract_z
Si Si1 0.777531 0.391822 0.806944
Si Si2 0.032088 0.759349 0.915018
Si Si3 0.864270 0.781938 0.592587
Si Si4 0.500000 0.500000 0.500000
Si Si5 0.500000 0.500000 0.000000
Si Si6 0.901162 0.590811 0.233044
O O1 0.877207 0.297513 0.824472
O O2 0.695426 0.333580 0.712179
O O3 0.799918 0.519410 0.755462
O O4 0.752358 0.422651 0.947453
O O5 0.921776 0.684139 0.881592
O O6 0.010613 0.892255 0.910653
O O7 0.768912 0.731088 0.500000
O O8 0.927680 0.670613 0.645261
O O9 0.949870 0.880360 0.552452
O O10 0.000000 0.500000 0.210241
#
# Coordination Sequence:
#
# PCOD9558248 Si02
#       6
#     8   8   8   2   2   8
#     4  10  23  46  74 108 154 200 265 321 404 483
#     4  10  23  42  71 113 151 202 252 329 398 488
#     4  12  28  50  78 113 157 213 269 337 404 490
#     4  12  32  54  80 114 160 208 286 344 402 480
#     4  12  24  38  68 112 166 200 246 320 408 482
#     4  10  23  45  75 105 146 198 260 322 399 480
#
# _framework density 23.647742999999998
#
# number of rings (size 3 to 8) (size 9 to 14) (size 15 to 20)
#    0.000    1.333    0.000    3.333    9.333    6.667 
#    0.000    0.000    0.000    0.000    0.000    0.000 
#    0.000    0.000    0.000    0.000    0.000    0.000 
#
# Total GULP energy -200523.917474 kJ/mol
# GULP energy per Si atom -5570.108819 kJ/mol
# Density = 2.359392 g / cm^3
# Si number density = 23.647743 Si / 1000 Ang^3
#
#
#
# Elastic Constant Matrix: (Units=GPa)
#
#
# Indices 1 2 3 4 5 6 
#
# 1 138.5967 50.2793 46.4355 0.0000 0.0000 0.0000
# 2 50.2793 138.5963 46.4351 0.0000 0.0000 0.0000
# 3 46.4355 46.4351 80.7139 0.0000 0.0000 0.0000
# 4 0.0000 0.0000 0.0000 42.6265 0.0000 0.0000
# 5 0.0000 0.0000 0.0000 0.0000 42.6262 0.0000
# 6 0.0000 0.0000 0.0000 0.0000 0.0000 32.6587
#
#
#
# Elastic Compliance Matrix: (Units=1/GPa)
#
#
# Indices 1 2 3 4 5 6 
#
# 1 0.009353 -0.001970 -0.004248 0.000000 0.000000 0.000000
# 2 -0.001970 0.009353 -0.004247 0.000000 0.000000 0.000000
# 3 -0.004248 -0.004247 0.017277 0.000000 0.000000 0.000000
# 4 0.000000 0.000000 0.000000 0.023460 0.000000 0.000000
# 5 0.000000 0.000000 0.000000 0.000000 0.023460 0.000000
# 6 0.000000 0.000000 0.000000 0.000000 0.000000 0.030620
#
#
# Mechanical properties :
#
#
# Convention : Reuss Voigt Hill
#
# Bulk Modulus (GPa) = 66.43333 71.57852 69.00593
# Shear Modulus (GPa) = 35.85030 37.89941 36.87486
#
# Velocity S-wave (km/s) = 3.89783 4.00767 3.95313
# Velocity P-wave (km/s) = 6.95782 7.19372 7.07675
#
# Compressibility (1/GPa) = 0.01505269
#
# Stress axis : x y z
#
# Youngs Moduli (GPa) = 106.91858 106.91865 57.88152
#
# Poissons Ratio (x) = 0.21062 0.24585
# Poissons Ratio (y) = 0.21062 0.24585
# Poissons Ratio (z) = 0.45414 0.45413
#
# Static dielectric constant tensor:
#      x y z
#    x 2.045890 0.000000 0.000000 
#    y 0.000000 2.045890 0.000000 
#    z 0.000000 0.000000 1.876930 
# 
# From -- ./inp_files/2565.got.cif
#   From: 2010.05.17/outbox.cif.g08.bks.cpg/sg117_2_cif.got.tgz:2565.got - 2010.05.20 11:15:09.
