data_PCOD9558130
_publ_section_title
;
Structure prediction by ZEFSAII (Michael W. Deem and Ramdas Pophale) SiO2 
 PCOD9558130
Probable space group: P -4 B 2
;
_chemical_formula_sum "Si O2"
_cell_formula_units_Z 54
_cell_length_a 14.831876
_cell_length_b 14.831876
_cell_length_c 12.176877
_cell_angle_alpha 90.000000
_cell_angle_beta 90.000000
_cell_angle_gamma 90.000000
_cell_volume 2678.724755
_symmetry_space_group_name_H-M "P -4 B 2"
_symmetry_group_IT_number 117
_symmetry_cell_setting 'tetragonal'
loop_
_space_group_symop_operation_xyz
x,y,z
y,-x,-z
-x,-y,z
-y,x,-z
1/2+y,1/2+x,-z
1/2-y,1/2-x,-z
1/2-x,1/2+y,z
1/2+x,1/2-y,z
loop_
_atom_site_type_symbol
_atom_site_label
_atom_site_fract_x
_atom_site_fract_y
_atom_site_fract_z
Si Si1 0.928744 0.573860 0.299549
Si Si2 0.500000 0.500000 0.500000
Si Si3 0.471236 0.697496 0.515868
Si Si4 0.071501 0.703658 0.711126
Si Si5 0.364204 0.569638 0.129317
Si Si6 0.067414 0.868508 0.127944
Si Si7 0.171090 0.328911 0.500000
Si Si8 0.277221 0.062150 0.701900
O O1 0.859149 0.508504 0.236477
O O2 0.877054 0.625846 0.395479
O O3 0.000000 0.500000 0.346036
O O4 0.987018 0.654137 0.246275
O O5 0.480821 0.595164 0.556259
O O6 0.524050 0.755412 0.604741
O O7 0.366111 0.727473 0.506274
O O8 0.517184 0.722477 0.399003
O O9 0.099406 0.783054 0.793219
O O10 0.154848 0.642725 0.672474
O O11 0.383930 0.463566 0.148169
O O12 0.460316 0.617347 0.149637
O O13 0.344713 0.580091 0.999858
O O14 0.098834 0.792153 0.209547
#
# Coordination Sequence:
#
# PCOD9558130 Si02
#       8
#     8   2   8   8   8   8   4   8
#     4   8  15  30  55  82 111 145 183 223 284 341
#     4  12  28  40  52  84 126 168 188 236 292 346
#     4  10  23  38  58  88 120 157 192 236 296 350
#     4  10  20  37  60  87 117 151 190 239 290 352
#     4   9  20  39  60  80 110 153 195 238 292 348
#     4   9  20  39  60  80 110 153 195 238 292 348
#     4   8  15  36  56  78 108 151 194 236 268 344
#     4  10  20  37  60  87 117 151 190 239 290 352
#
# _framework density 20.158847000000002
#
# number of rings (size 3 to 8) (size 9 to 14) (size 15 to 20)
#    0.000    2.667    0.000    1.556    4.148    4.148 
#    5.333    0.741    0.000    2.667    0.000    0.000 
#    0.000    0.000    0.000    0.000    0.000    0.000 
#
# Total GULP energy -300822.592595 kJ/mol
# GULP energy per Si atom -5570.788752 kJ/mol
# Density = 2.011296 g / cm^3
# Si number density = 20.158847 Si / 1000 Ang^3
#
#
#
# Elastic Constant Matrix: (Units=GPa)
#
#
# Indices 1 2 3 4 5 6 
#
# 1 69.3204 8.1598 12.0473 0.0000 0.0000 0.0000
# 2 8.1598 69.3197 12.0471 0.0000 0.0000 0.0000
# 3 12.0473 12.0471 30.2067 0.0000 0.0000 0.0000
# 4 0.0000 0.0000 0.0000 19.0712 0.0000 0.0000
# 5 0.0000 0.0000 0.0000 0.0000 19.0711 0.0000
# 6 0.0000 0.0000 0.0000 0.0000 0.0000 12.7269
#
#
#
# Elastic Compliance Matrix: (Units=1/GPa)
#
#
# Indices 1 2 3 4 5 6 
#
# 1 0.015542 -0.000808 -0.005876 0.000000 0.000000 0.000000
# 2 -0.000808 0.015542 -0.005876 0.000000 0.000000 0.000000
# 3 -0.005876 -0.005876 0.037793 0.000000 0.000000 0.000000
# 4 0.000000 0.000000 0.000000 0.052435 0.000000 0.000000
# 5 0.000000 0.000000 0.000000 0.000000 0.052435 0.000000
# 6 0.000000 0.000000 0.000000 0.000000 0.000000 0.078574
#
#
# Mechanical properties :
#
#
# Convention : Reuss Voigt Hill
#
# Bulk Modulus (GPa) = 22.85439 25.92836 24.39137
# Shear Modulus (GPa) = 17.12164 19.28001 18.20082
#
# Velocity S-wave (km/s) = 2.91750 3.09593 3.00804
# Velocity P-wave (km/s) = 4.76559 5.06653 4.91836
#
# Compressibility (1/GPa) = 0.04375527
#
# Stress axis : x y z
#
# Youngs Moduli (GPa) = 64.34109 64.34061 26.46026
#
# Poissons Ratio (x) = 0.05200 0.15549
# Poissons Ratio (y) = 0.05200 0.15549
# Poissons Ratio (z) = 0.37809 0.37808
#
# Static dielectric constant tensor:
#      x y z
#    x 1.762230 0.000000 0.000000 
#    y 0.000000 1.762230 0.000000 
#    z 0.000000 0.000000 1.677530 
# 
# From -- ./inp_files/2901.got.cif
#   From: 2010.05.17/outbox.cif.g08.bks.cpg/sg117_2_cif.got.tgz:2901.got - 2010.05.20 11:15:09.
