data_PCOD9558482
_publ_section_title
;
Structure prediction by ZEFSAII (Michael W. Deem and Ramdas Pophale) SiO2 
 PCOD9558482
Probable space group: P -4 N 2
;
_chemical_formula_sum "Si O2"
_cell_formula_units_Z 36
_cell_length_a 15.647115
_cell_length_b 15.647115
_cell_length_c 7.513687
_cell_angle_alpha 90.000000
_cell_angle_beta 90.000000
_cell_angle_gamma 90.000000
_cell_volume 1839.592577
_symmetry_space_group_name_H-M "P -4 N 2"
_symmetry_group_IT_number 118
_symmetry_cell_setting 'tetragonal'
loop_
_space_group_symop_operation_xyz
x,y,z
y,-x,-z
-x,-y,z
-y,x,-z
1/2+y,1/2+x,1/2-z
1/2-y,1/2-x,1/2-z
1/2-x,1/2+y,1/2+z
1/2+x,1/2-y,1/2+z
loop_
_atom_site_type_symbol
_atom_site_label
_atom_site_fract_x
_atom_site_fract_y
_atom_site_fract_z
Si Si1 0.402659 0.332207 0.627682
Si Si2 0.538169 0.904836 0.430272
Si Si3 0.640702 0.500955 0.038897
Si Si4 0.344935 0.155066 0.750000
Si Si5 0.985579 0.771397 0.819856
O O1 0.359186 0.255211 0.734937
O O2 0.338258 0.411182 0.629297
O O3 0.432101 0.304326 0.431484
O O4 0.486549 0.344936 0.751608
O O5 0.591321 0.908680 0.250000
O O6 0.602897 0.882965 0.585627
O O7 0.473368 0.825602 0.392459
O O8 0.500000 0.000000 0.456601
O O9 0.717392 0.505138 0.894443
O O10 0.583364 0.418913 0.985730
#
# Coordination Sequence:
#
# PCOD9558482 Si02
#       5
#     8   8   8   4   8
#     4  10  20  34  53  79 110 140 174 219 268 322
#     4  10  21  37  57  77 103 143 188 229 269 319
#     4   9  17  30  51  79 109 139 169 207 263 327
#     4  10  21  36  54  76 107 142 178 224 272 316
#     4  10  20  34  55  82 109 141 179 221 273 326
#
# _framework density 19.569551000000001
#
# number of rings (size 3 to 8) (size 9 to 14) (size 15 to 20)
#    0.000    2.222    0.000    3.000    0.000    4.000 
#    0.000    0.000    0.000   21.333    0.000    0.000 
#    0.000    0.000    0.000    0.000    0.000    0.000 
#
# Total GULP energy -200417.493807 kJ/mol
# GULP energy per Si atom -5567.152606 kJ/mol
# Density = 1.952501 g / cm^3
# Si number density = 19.569551 Si / 1000 Ang^3
#
#
#
# Elastic Constant Matrix: (Units=GPa)
#
#
# Indices 1 2 3 4 5 6 
#
# 1 75.1804 28.0560 15.7300 0.0000 0.0000 0.0000
# 2 28.0560 75.1810 15.7298 0.0000 0.0000 0.0000
# 3 15.7300 15.7298 72.1834 0.0000 0.0000 0.0000
# 4 0.0000 0.0000 0.0000 27.9583 0.0000 0.0000
# 5 0.0000 0.0000 0.0000 0.0000 27.9570 0.0000
# 6 0.0000 0.0000 0.0000 0.0000 0.0000 18.9582
#
#
#
# Elastic Compliance Matrix: (Units=1/GPa)
#
#
# Indices 1 2 3 4 5 6 
#
# 1 0.015798 -0.005422 -0.002261 0.000000 0.000000 0.000000
# 2 -0.005422 0.015798 -0.002261 0.000000 0.000000 0.000000
# 3 -0.002261 -0.002261 0.014839 0.000000 0.000000 0.000000
# 4 0.000000 0.000000 0.000000 0.035767 0.000000 0.000000
# 5 0.000000 0.000000 0.000000 0.000000 0.035769 0.000000
# 6 0.000000 0.000000 0.000000 0.000000 0.000000 0.052748
#
#
# Mechanical properties :
#
#
# Convention : Reuss Voigt Hill
#
# Bulk Modulus (GPa) = 37.67040 37.95293 37.81167
# Shear Modulus (GPa) = 25.06811 25.84330 25.45571
#
# Velocity S-wave (km/s) = 3.58295 3.63793 3.61055
# Velocity P-wave (km/s) = 6.03391 6.08950 6.06177
#
# Compressibility (1/GPa) = 0.02654604
#
# Stress axis : x y z
#
# Youngs Moduli (GPa) = 63.29931 63.29994 67.38996
#
# Poissons Ratio (x) = 0.34324 0.15237
# Poissons Ratio (y) = 0.34323 0.15236
# Poissons Ratio (z) = 0.14312 0.14312
#
# Static dielectric constant tensor:
#      x y z
#    x 1.683650 0.000000 0.000000 
#    y 0.000000 1.683650 0.000000 
#    z 0.000000 0.000000 1.758910 
# 
# From -- ./inp_files/1755.got.cif
#   From: 2010.05.17/outbox.cif.g08.bks.cpg/sg118_1_cif.got.tgz:1755.got - 2010.05.20 11:17:24.
