data_PCOD9558067
_publ_section_title
;
Structure prediction by ZEFSAII (Michael W. Deem and Ramdas Pophale) SiO2 
 PCOD9558067
Probable space group: P -4 B 2
;
_chemical_formula_sum "Si O2"
_cell_formula_units_Z 40
_cell_length_a 17.511837
_cell_length_b 17.511837
_cell_length_c 7.376291
_cell_angle_alpha 90.000000
_cell_angle_beta 90.000000
_cell_angle_gamma 90.000000
_cell_volume 2262.046113
_symmetry_space_group_name_H-M "P -4 B 2"
_symmetry_group_IT_number 117
_symmetry_cell_setting 'tetragonal'
loop_
_space_group_symop_operation_xyz
x,y,z
y,-x,-z
-x,-y,z
-y,x,-z
1/2+y,1/2+x,-z
1/2-y,1/2-x,-z
1/2-x,1/2+y,z
1/2+x,1/2-y,z
loop_
_atom_site_type_symbol
_atom_site_label
_atom_site_fract_x
_atom_site_fract_y
_atom_site_fract_z
Si Si1 0.050254 0.867772 0.267903
Si Si2 0.832733 0.997510 0.320495
Si Si3 0.686903 0.715590 0.119128
Si Si4 0.738955 0.129836 0.440269
Si Si5 0.842803 0.119403 0.801031
O O1 0.032651 0.856713 0.480346
O O2 0.967725 0.869320 0.178071
O O3 0.101477 0.943912 0.254274
O O4 0.101068 0.798499 0.189966
O O5 0.757361 0.049241 0.344250
O O6 0.830368 0.919985 0.207988
O O7 0.734777 0.696135 0.299872
O O8 0.710907 0.789094 0.000000
O O9 0.703248 0.648531 0.973240
O O10 0.654545 0.154545 0.500000
O O11 0.794418 0.127182 0.616388
#
# Coordination Sequence:
#
# PCOD9558067 Si02
#       5
#     8   8   8   8   8
#     4  10  20  32  49  76 108 146 179 219 268 328
#     4  10  18  33  53  74 111 142 179 218 271 323
#     4  11  22  34  49  74 108 148 189 221 270 329
#     4  10  20  36  50  71 108 149 186 220 271 324
#     4  11  21  33  52  75 110 143 183 225 267 341
#
# _framework density 17.683105999999999
#
# number of rings (size 3 to 8) (size 9 to 14) (size 15 to 20)
#    0.000    1.600    8.000    0.600    5.600    0.000 
#    0.000    0.000    0.000    0.000    0.000    0.000 
#    0.000   33.600    0.000    0.000    0.000    0.000 
#
# Total GULP energy -222680.838412 kJ/mol
# GULP energy per Si atom -5567.020960 kJ/mol
# Density = 1.764286 g / cm^3
# Si number density = 17.683106 Si / 1000 Ang^3
#
#
#
# Elastic Constant Matrix: (Units=GPa)
#
#
# Indices 1 2 3 4 5 6 
#
# 1 35.3979 30.1252 22.8069 0.0000 0.0000 0.0000
# 2 30.1252 35.3975 22.8060 0.0000 0.0000 0.0000
# 3 22.8069 22.8060 78.1266 0.0000 0.0000 0.0000
# 4 0.0000 0.0000 0.0000 26.0748 0.0000 0.0000
# 5 0.0000 0.0000 0.0000 0.0000 26.0750 0.0000
# 6 0.0000 0.0000 0.0000 0.0000 0.0000 32.9059
#
#
#
# Elastic Compliance Matrix: (Units=1/GPa)
#
#
# Indices 1 2 3 4 5 6 
#
# 1 0.104408 -0.085254 -0.005593 0.000000 0.000000 0.000000
# 2 -0.085254 0.104407 -0.005590 0.000000 0.000000 0.000000
# 3 -0.005593 -0.005590 0.016064 0.000000 0.000000 0.000000
# 4 0.000000 0.000000 0.000000 0.038351 0.000000 0.000000
# 5 0.000000 0.000000 0.000000 0.000000 0.038351 0.000000
# 6 0.000000 0.000000 0.000000 0.000000 0.000000 0.030390
#
#
# Mechanical properties :
#
#
# Convention : Reuss Voigt Hill
#
# Bulk Modulus (GPa) = 31.24322 33.37757 32.31040
# Shear Modulus (GPa) = 9.33683 21.89006 15.61345
#
# Velocity S-wave (km/s) = 2.30034 3.52221 2.97469
# Velocity P-wave (km/s) = 4.97616 5.95463 5.48725
#
# Compressibility (1/GPa) = 0.03200694
#
# Stress axis : x y z
#
# Youngs Moduli (GPa) = 9.57779 9.57786 62.25012
#
# Poissons Ratio (x) = 0.81655 0.34815
# Poissons Ratio (y) = 0.81654 0.34799
# Poissons Ratio (z) = 0.05357 0.05354
#
# Static dielectric constant tensor:
#      x y z
#    x 1.630930 0.000000 0.000000 
#    y 0.000000 1.630930 0.000000 
#    z 0.000000 0.000000 1.670150 
# 
# From -- ./inp_files/1873.got.cif
#   From: 2010.05.17/outbox.cif.g08.bks.cpg/sg117_1_cif.got.tgz:1873.got - 2010.05.20 11:15:09.
