data_PCOD9558159
_publ_section_title
;
Structure prediction by ZEFSAII (Michael W. Deem and Ramdas Pophale) SiO2 
 PCOD9558159
Probable space group: P -4 B 2
;
_chemical_formula_sum "Si O2"
_cell_formula_units_Z 28
_cell_length_a 12.552220
_cell_length_b 12.552220
_cell_length_c 9.354685
_cell_angle_alpha 90.000000
_cell_angle_beta 90.000000
_cell_angle_gamma 90.000000
_cell_volume 1473.907582
_symmetry_space_group_name_H-M "P -4 B 2"
_symmetry_group_IT_number 117
_symmetry_cell_setting 'tetragonal'
loop_
_space_group_symop_operation_xyz
x,y,z
y,-x,-z
-x,-y,z
-y,x,-z
1/2+y,1/2+x,-z
1/2-y,1/2-x,-z
1/2-x,1/2+y,z
1/2+x,1/2-y,z
loop_
_atom_site_type_symbol
_atom_site_label
_atom_site_fract_x
_atom_site_fract_y
_atom_site_fract_z
Si Si1 0.820607 0.679394 0.000000
Si Si2 0.280637 0.240747 0.721766
Si Si3 0.129504 0.879433 0.478550
Si Si4 0.963560 0.380383 0.856257
O O1 0.739344 0.701900 0.872544
O O2 0.932939 0.681302 0.914705
O O3 0.183962 0.165964 0.664612
O O4 0.299035 0.330113 0.603567
O O5 0.389037 0.172947 0.739410
O O6 0.006451 0.857395 0.520028
O O7 0.000000 0.500000 0.813960
O O8 0.894853 0.394853 0.000000
#
# Coordination Sequence:
#
# PCOD9558159 Si02
#       4
#     4   8   8   8
#     4  10  21  34  63  92 118 148 198 246 299 352
#     4  11  21  39  63  86 118 163 198 241 310 355
#     4  10  24  41  57  84 123 159 202 248 295 362
#     4   9  20  36  56  92 121 143 192 254 288 350
#
# _framework density 18.997121
#
# number of rings (size 3 to 8) (size 9 to 14) (size 15 to 20)
#    0.000    2.286    1.429    1.714    8.000    0.000 
#    0.000    1.429    0.000    3.429    0.000    0.000 
#    0.000    0.000    0.000    0.000    0.000    0.000 
#
# Total GULP energy -155939.672559 kJ/mol
# GULP energy per Si atom -5569.274020 kJ/mol
# Density = 1.895388 g / cm^3
# Si number density = 18.997121 Si / 1000 Ang^3
#
#
#
# Elastic Constant Matrix: (Units=GPa)
#
#
# Indices 1 2 3 4 5 6 
#
# 1 62.9432 59.8596 23.5447 0.0000 0.0000 0.0000
# 2 59.8596 62.9434 23.5448 0.0000 0.0000 0.0000
# 3 23.5447 23.5448 68.4273 0.0000 0.0000 0.0000
# 4 0.0000 0.0000 0.0000 21.3320 0.0000 0.0000
# 5 0.0000 0.0000 0.0000 0.0000 21.3313 0.0000
# 6 0.0000 0.0000 0.0000 0.0000 0.0000 36.3452
#
#
#
# Elastic Compliance Matrix: (Units=1/GPa)
#
#
# Indices 1 2 3 4 5 6 
#
# 1 0.166834 -0.157453 -0.003228 0.000000 0.000000 0.000000
# 2 -0.157453 0.166834 -0.003228 0.000000 0.000000 0.000000
# 3 -0.003228 -0.003228 0.016835 0.000000 0.000000 0.000000
# 4 0.000000 0.000000 0.000000 0.046878 0.000000 0.000000
# 5 0.000000 0.000000 0.000000 0.000000 0.046880 0.000000
# 6 0.000000 0.000000 0.000000 0.000000 0.000000 0.027514
#
#
# Mechanical properties :
#
#
# Convention : Reuss Voigt Hill
#
# Bulk Modulus (GPa) = 44.08041 45.35689 44.71865
# Shear Modulus (GPa) = 6.19460 21.62600 13.91030
#
# Velocity S-wave (km/s) = 1.80773 3.37765 2.70891
# Velocity P-wave (km/s) = 5.25464 6.25611 5.77712
#
# Compressibility (1/GPa) = 0.02268581
#
# Stress axis : x y z
#
# Youngs Moduli (GPa) = 5.99398 5.99399 59.39890
#
# Poissons Ratio (x) = 0.94377 0.19172
# Poissons Ratio (y) = 0.94377 0.19174
# Poissons Ratio (z) = 0.01935 0.01935
#
# Static dielectric constant tensor:
#      x y z
#    x 1.699150 0.000000 0.000000 
#    y 0.000000 1.699150 0.000000 
#    z 0.000000 0.000000 1.657310 
# 
# From -- ./inp_files/2313.got.cif
#   From: 2010.05.17/outbox.cif.g08.bks.cpg/sg117_2_cif.got.tgz:2313.got - 2010.05.20 11:15:09.
