data_PCOD9558214
_publ_section_title
;
Structure prediction by ZEFSAII (Michael W. Deem and Ramdas Pophale) SiO2 
 PCOD9558214
Probable space group: P -4 B 2
;
_chemical_formula_sum "Si O2"
_cell_formula_units_Z 34
_cell_length_a 9.838395
_cell_length_b 9.838395
_cell_length_c 16.892109
_cell_angle_alpha 90.000000
_cell_angle_beta 90.000000
_cell_angle_gamma 90.000000
_cell_volume 1635.055072
_symmetry_space_group_name_H-M "P -4 B 2"
_symmetry_group_IT_number 117
_symmetry_cell_setting 'tetragonal'
loop_
_space_group_symop_operation_xyz
x,y,z
y,-x,-z
-x,-y,z
-y,x,-z
1/2+y,1/2+x,-z
1/2-y,1/2-x,-z
1/2-x,1/2+y,z
1/2+x,1/2-y,z
loop_
_atom_site_type_symbol
_atom_site_label
_atom_site_fract_x
_atom_site_fract_y
_atom_site_fract_z
Si Si1 0.760922 0.235771 0.279220
Si Si2 0.600774 0.678433 0.025444
Si Si3 0.837911 0.509037 0.823469
Si Si4 0.500000 0.500000 0.500000
Si Si5 0.481011 0.334679 0.616715
O O1 0.657183 0.203063 0.208088
O O2 0.700230 0.345536 0.338593
O O3 0.780590 0.100422 0.329539
O O4 0.899831 0.295014 0.243222
O O5 0.530472 0.747680 0.100860
O O6 0.659269 0.525444 0.036162
O O7 0.720573 0.779428 0.000000
O O8 0.000000 0.500000 0.839026
O O9 0.487603 0.329239 0.522793
O O10 0.500000 0.500000 0.610048
#
# Coordination Sequence:
#
# PCOD9558214 Si02
#       5
#     8   8   8   2   8
#     4  12  23  43  70 100 137 178 229 288 334 411
#     4  11  28  48  68  98 137 180 230 289 353 424
#     4  12  26  42  72 101 132 178 233 284 354 405
#     4   8  20  44  64 100 140 192 210 284 344 404
#     4  10  22  41  65 100 140 177 223 279 337 400
#
# _framework density 20.794405999999999
#
# number of rings (size 3 to 8) (size 9 to 14) (size 15 to 20)
#    0.706    0.235    4.706    1.412    6.588    4.706 
#    0.000    0.000    0.000    0.000    0.000    0.000 
#    0.000    0.000    0.000    0.000    0.000    0.000 
#
# Total GULP energy -189356.461846 kJ/mol
# GULP energy per Si atom -5569.307701 kJ/mol
# Density = 2.074708 g / cm^3
# Si number density = 20.794406 Si / 1000 Ang^3
#
#
#
# Elastic Constant Matrix: (Units=GPa)
#
#
# Indices 1 2 3 4 5 6 
#
# 1 103.7612 31.1875 11.3425 0.0000 0.0000 0.0000
# 2 31.1875 103.7627 11.3444 0.0000 0.0000 0.0000
# 3 11.3425 11.3444 45.1462 0.0000 0.0000 0.0000
# 4 0.0000 0.0000 0.0000 52.1904 0.0000 0.0000
# 5 0.0000 0.0000 0.0000 0.0000 52.1896 0.0000
# 6 0.0000 0.0000 0.0000 0.0000 0.0000 32.6616
#
#
#
# Elastic Compliance Matrix: (Units=1/GPa)
#
#
# Indices 1 2 3 4 5 6 
#
# 1 0.010758 -0.003021 -0.001944 0.000000 0.000000 0.000000
# 2 -0.003021 0.010758 -0.001944 0.000000 0.000000 0.000000
# 3 -0.001944 -0.001944 0.023127 0.000000 0.000000 0.000000
# 4 0.000000 0.000000 0.000000 0.019161 0.000000 0.000000
# 5 0.000000 0.000000 0.000000 0.000000 0.019161 0.000000
# 6 0.000000 0.000000 0.000000 0.000000 0.000000 0.030617
#
#
# Mechanical properties :
#
#
# Convention : Reuss Voigt Hill
#
# Bulk Modulus (GPa) = 32.44104 40.04654 36.24379
# Shear Modulus (GPa) = 36.31753 40.66138 38.48946
#
# Velocity S-wave (km/s) = 4.18365 4.42679 4.30694
# Velocity P-wave (km/s) = 6.24276 6.74008 6.49618
#
# Compressibility (1/GPa) = 0.03082515
#
# Stress axis : x y z
#
# Youngs Moduli (GPa) = 92.95413 92.95460 43.23922
#
# Poissons Ratio (x) = 0.28081 0.08404
# Poissons Ratio (y) = 0.28081 0.08407
# Poissons Ratio (z) = 0.18068 0.18073
#
# Static dielectric constant tensor:
#      x y z
#    x 1.774670 0.000000 0.000000 
#    y 0.000000 1.774670 0.000000 
#    z 0.000000 0.000000 1.760700 
# 
# From -- ./inp_files/3411.got.cif
#   From: 2010.05.17/outbox.cif.g08.bks.cpg/sg117_2_cif.got.tgz:3411.got - 2010.05.20 11:15:09.
