data_PCOD9558698
_publ_section_title
;
Structure prediction by ZEFSAII (Michael W. Deem and Ramdas Pophale) SiO2 
 PCOD9558698
Probable space group: P -4 N 2
;
_chemical_formula_sum "Si O2"
_cell_formula_units_Z 60
_cell_length_a 11.959907
_cell_length_b 11.959907
_cell_length_c 20.428075
_cell_angle_alpha 90.000000
_cell_angle_beta 90.000000
_cell_angle_gamma 90.000000
_cell_volume 2922.019090
_symmetry_space_group_name_H-M "P -4 N 2"
_symmetry_group_IT_number 118
_symmetry_cell_setting 'tetragonal'
loop_
_space_group_symop_operation_xyz
x,y,z
y,-x,-z
-x,-y,z
-y,x,-z
1/2+y,1/2+x,1/2-z
1/2-y,1/2-x,1/2-z
1/2-x,1/2+y,1/2+z
1/2+x,1/2-y,1/2+z
loop_
_atom_site_type_symbol
_atom_site_label
_atom_site_fract_x
_atom_site_fract_y
_atom_site_fract_z
Si Si1 0.469579 0.878524 0.153854
Si Si2 0.288519 0.788519 0.250000
Si Si3 0.591809 0.089945 0.493716
Si Si4 0.341250 0.432303 0.514727
Si Si5 0.293934 0.667938 0.843652
Si Si6 0.139238 0.130612 0.192814
Si Si7 0.120216 0.120976 0.841730
Si Si8 0.952519 0.843392 0.468765
O O1 0.389522 0.806164 0.199321
O O2 0.411233 0.906593 0.085172
O O3 0.579260 0.804712 0.143157
O O4 0.500000 0.000000 0.181673
O O5 0.179013 0.794916 0.206972
O O6 0.570189 0.217758 0.513759
O O7 0.713970 0.052204 0.514553
O O8 0.500000 0.000000 0.515741
O O9 0.379613 0.559968 0.528861
O O10 0.350331 0.365025 0.582421
O O11 0.226926 0.786049 0.841248
O O12 0.344211 0.648230 0.771006
O O13 0.387982 0.648697 0.899332
O O14 0.010608 0.130413 0.170576
O O15 0.172065 0.002003 0.177122
O O16 0.079341 0.887718 0.477410
#
# Coordination Sequence:
#
# PCOD9558698 Si02
#       8
#     8   4   8   8   8   8   8   8
#     4  11  22  37  63  98 133 162 213 278 349 404
#     4  12  21  38  64 103 132 162 214 292 348 403
#     4  11  26  43  66  99 134 175 219 284 349 397
#     4  11  25  43  68  98 133 184 231 282 340 413
#     4  11  23  42  66  93 132 178 226 279 338 421
#     4  10  23  39  64  92 128 177 220 274 338 402
#     4  11  23  40  63  98 132 171 225 281 345 404
#     4  11  26  44  67  98 135 184 231 275 339 421
#
# _framework density 20.533747000000002
#
# number of rings (size 3 to 8) (size 9 to 14) (size 15 to 20)
#    0.000    1.067    4.000    2.600    9.333    3.200 
#    0.000    0.000    0.000    0.800    0.000    0.000 
#    0.000    0.000    0.000    0.000    0.000    0.000 
#
# Total GULP energy -335112.714767 kJ/mol
# GULP energy per Si atom -5585.211913 kJ/mol
# Density = 2.048701 g / cm^3
# Si number density = 20.533747 Si / 1000 Ang^3
#
#
#
# Elastic Constant Matrix: (Units=GPa)
#
#
# Indices 1 2 3 4 5 6 
#
# 1 99.1120 30.0810 1.6634 0.0000 0.0000 0.0000
# 2 30.0810 99.1120 1.6634 0.0000 0.0000 0.0000
# 3 1.6634 1.6634 58.3870 0.0000 0.0000 0.0000
# 4 0.0000 0.0000 0.0000 5.9802 0.0000 0.0000
# 5 0.0000 0.0000 0.0000 0.0000 5.9802 0.0000
# 6 0.0000 0.0000 0.0000 0.0000 0.0000 27.8623
#
#
#
# Elastic Compliance Matrix: (Units=1/GPa)
#
#
# Indices 1 2 3 4 5 6 
#
# 1 0.011116 -0.003370 -0.000221 0.000000 0.000000 0.000000
# 2 -0.003370 0.011116 -0.000221 0.000000 0.000000 0.000000
# 3 -0.000221 -0.000221 0.017140 0.000000 0.000000 0.000000
# 4 0.000000 0.000000 0.000000 0.167220 0.000000 0.000000
# 5 0.000000 0.000000 0.000000 0.000000 0.167220 0.000000
# 6 0.000000 0.000000 0.000000 0.000000 0.000000 0.035891
#
#
# Mechanical properties :
#
#
# Convention : Reuss Voigt Hill
#
# Bulk Modulus (GPa) = 31.49704 35.93631 33.71668
# Shear Modulus (GPa) = 11.68476 22.84474 17.26475
#
# Velocity S-wave (km/s) = 2.38807 3.33910 2.90280
# Velocity P-wave (km/s) = 4.79336 5.69256 5.26220
#
# Compressibility (1/GPa) = 0.03174901
#
# Stress axis : x y z
#
# Youngs Moduli (GPa) = 89.95923 89.95923 58.34420
#
# Poissons Ratio (x) = 0.30317 0.01288
# Poissons Ratio (y) = 0.30317 0.01288
# Poissons Ratio (z) = 0.01985 0.01985
#
# Static dielectric constant tensor:
#      x y z
#    x 1.754120 0.000000 0.000000 
#    y 0.000000 1.754120 0.000000 
#    z 0.000000 0.000000 1.752520 
# 
# From -- ./inp_files/5774.got.cif
#   From: 2010.05.17/outbox.cif.g08.bks.cpg/sg118_3_cif.got.tgz:5774.got - 2010.05.20 11:17:24.
