data_PCOD9558909
_publ_section_title
;
Structure prediction by ZEFSAII (Michael W. Deem and Ramdas Pophale) SiO2 
 PCOD9558909
Probable space group: P -4 N 2
;
_chemical_formula_sum "Si O2"
_cell_formula_units_Z 60
_cell_length_a 11.058464
_cell_length_b 11.058464
_cell_length_c 19.026100
_cell_angle_alpha 90.000000
_cell_angle_beta 90.000000
_cell_angle_gamma 90.000000
_cell_volume 2326.694654
_symmetry_space_group_name_H-M "P -4 N 2"
_symmetry_group_IT_number 118
_symmetry_cell_setting 'tetragonal'
loop_
_space_group_symop_operation_xyz
x,y,z
y,-x,-z
-x,-y,z
-y,x,-z
1/2+y,1/2+x,1/2-z
1/2-y,1/2-x,1/2-z
1/2-x,1/2+y,1/2+z
1/2+x,1/2-y,1/2+z
loop_
_atom_site_type_symbol
_atom_site_label
_atom_site_fract_x
_atom_site_fract_y
_atom_site_fract_z
Si Si1 0.747641 0.142033 0.048555
Si Si2 0.664538 0.343737 0.211817
Si Si3 0.500000 0.000000 0.863215
Si Si4 0.924594 0.745067 0.210049
Si Si5 0.134144 0.478042 0.846171
Si Si6 0.003814 0.144016 0.076869
Si Si7 0.234361 0.018336 0.580015
Si Si8 0.361279 0.277912 0.059518
O O1 0.632666 0.123342 0.097302
O O2 0.865049 0.172661 0.095606
O O3 0.786050 0.032199 0.995854
O O4 0.739309 0.247979 0.991381
O O5 0.769634 0.269634 0.250000
O O6 0.673788 0.477105 0.247818
O O7 0.556042 0.244859 0.206881
O O8 0.689221 0.376151 0.130427
O O9 0.380093 0.987959 0.816268
O O10 0.506155 0.878115 0.908780
O O11 0.806240 0.693761 0.250000
O O12 0.904496 0.815206 0.137218
O O13 0.173965 0.595899 0.889549
O O14 0.000000 0.500000 0.819399
O O15 0.000000 0.000000 0.072559
O O16 0.166755 0.897311 0.603066
O O17 0.204834 0.034123 0.498477
#
# Coordination Sequence:
#
# PCOD9558909 Si02
#       8
#     8   8   4   8   8   8   8   8
#     4  12  22  48  78 109 151 203 264 329 402 479
#     4  12  24  50  76 111 150 208 269 330 398 482
#     4  12  23  44  80 118 140 200 275 330 390 482
#     4  12  24  43  79 116 152 198 270 334 398 471
#     4  12  29  48  78 111 158 218 273 319 409 504
#     4  12  26  48  74 112 157 202 256 330 409 477
#     4  12  24  45  76 113 160 203 257 334 410 475
#     4  12  26  46  72 118 158 200 256 338 407 482
#
# _framework density 25.787656999999999
#
# number of rings (size 3 to 8) (size 9 to 14) (size 15 to 20)
#    0.000    0.000    6.667    3.400    0.933    2.133 
#    2.400    0.000    0.000    1.600    0.000    0.000 
#    0.000    0.000    0.000    0.000    0.000    0.000 
#
# Total GULP energy -335655.031787 kJ/mol
# GULP energy per Si atom -5594.250530 kJ/mol
# Density = 2.572896 g / cm^3
# Si number density = 25.787657 Si / 1000 Ang^3
#
#
#
# Elastic Constant Matrix: (Units=GPa)
#
#
# Indices 1 2 3 4 5 6 
#
# 1 102.8037 50.3733 31.8330 0.0000 0.0000 0.0000
# 2 50.3733 102.8031 31.8330 0.0000 0.0000 0.0000
# 3 31.8330 31.8330 108.8777 0.0000 0.0000 0.0000
# 4 0.0000 0.0000 0.0000 29.4852 0.0000 0.0000
# 5 0.0000 0.0000 0.0000 0.0000 29.4853 0.0000
# 6 0.0000 0.0000 0.0000 0.0000 0.0000 38.0693
#
#
#
# Elastic Compliance Matrix: (Units=1/GPa)
#
#
# Indices 1 2 3 4 5 6 
#
# 1 0.013252 -0.005821 -0.002173 0.000000 0.000000 0.000000
# 2 -0.005821 0.013252 -0.002173 0.000000 0.000000 0.000000
# 3 -0.002173 -0.002173 0.010455 0.000000 0.000000 0.000000
# 4 0.000000 0.000000 0.000000 0.033915 0.000000 0.000000
# 5 0.000000 0.000000 0.000000 0.000000 0.033915 0.000000
# 6 0.000000 0.000000 0.000000 0.000000 0.000000 0.026268
#
#
# Mechanical properties :
#
#
# Convention : Reuss Voigt Hill
#
# Bulk Modulus (GPa) = 60.14302 60.28478 60.21390
# Shear Modulus (GPa) = 31.86073 32.77098 32.31586
#
# Velocity S-wave (km/s) = 3.51879 3.56870 3.54383
# Velocity P-wave (km/s) = 6.31523 6.35680 6.33605
#
# Compressibility (1/GPa) = 0.01662703
#
# Stress axis : x y z
#
# Youngs Moduli (GPa) = 75.45907 75.45860 95.64669
#
# Poissons Ratio (x) = 0.43923 0.20782
# Poissons Ratio (y) = 0.43923 0.20782
# Poissons Ratio (z) = 0.16395 0.16396
#
# Static dielectric constant tensor:
#      x y z
#    x 2.092360 0.000000 0.000000 
#    y 0.000000 2.092360 0.000000 
#    z 0.000000 0.000000 2.061710 
# 
# From -- ./inp_files/5765.got.cif
#   From: 2010.05.17/outbox.cif.g08.bks.cpg/sg118_3_cif.got.tgz:5765.got - 2010.05.20 11:17:24.
