data_PCOD9558932
_publ_section_title
;
Structure prediction by ZEFSAII (Michael W. Deem and Ramdas Pophale) SiO2 
 PCOD9558932
Probable space group: P -4 N 2
;
_chemical_formula_sum "Si O2"
_cell_formula_units_Z 20
_cell_length_a 5.038947
_cell_length_b 5.038947
_cell_length_c 33.277060
_cell_angle_alpha 90.000000
_cell_angle_beta 90.000000
_cell_angle_gamma 90.000000
_cell_volume 844.937393
_symmetry_space_group_name_H-M "P -4 N 2"
_symmetry_group_IT_number 118
_symmetry_cell_setting 'tetragonal'
loop_
_space_group_symop_operation_xyz
x,y,z
y,-x,-z
-x,-y,z
-y,x,-z
1/2+y,1/2+x,1/2-z
1/2-y,1/2-x,1/2-z
1/2-x,1/2+y,1/2+z
1/2+x,1/2-y,1/2+z
loop_
_atom_site_type_symbol
_atom_site_label
_atom_site_fract_x
_atom_site_fract_y
_atom_site_fract_z
Si Si1 0.000000 0.500000 0.750000
Si Si2 0.248778 0.805225 0.376795
Si Si3 0.500000 0.500000 0.000000
Si Si4 0.500000 0.000000 0.946806
Si Si5 0.000000 0.000000 0.191509
O O1 0.970362 0.248891 0.779239
O O2 0.278977 0.603977 0.339693
O O3 0.213270 0.631588 0.416823
O O4 0.500000 0.000000 0.378283
O O5 0.000000 0.000000 0.372474
O O6 0.408133 0.752001 0.973665
#
# Coordination Sequence:
#
# PCOD9558932 Si02
#       5
#     2   8   2   4   4
#     4  12  32  48  82 116 174 206 260 350 410 478
#     4  12  28  54  87 120 156 222 274 336 392 504
#     4  12  32  48  82 120 172 212 260 352 410 480
#     4  12  30  54  81 123 166 214 278 329 419 472
#     4  12  30  54  79 123 162 214 274 329 417 472
#
# _framework density 23.670394000000002
#
# number of rings (size 3 to 8) (size 9 to 14) (size 15 to 20)
#    0.000    0.000    4.000    2.400    5.600    8.000 
#    0.000    0.000    0.000    0.000    0.000    0.000 
#    0.000    0.000    0.000    0.000    0.000    0.000 
#
# Total GULP energy -111991.280970 kJ/mol
# GULP energy per Si atom -5599.564049 kJ/mol
# Density = 2.361652 g / cm^3
# Si number density = 23.670394 Si / 1000 Ang^3
#
#
#
# Elastic Constant Matrix: (Units=GPa)
#
#
# Indices 1 2 3 4 5 6 
#
# 1 209.4278 82.2076 83.4701 0.0000 0.0000 0.0000
# 2 82.2076 209.4278 83.4701 0.0000 0.0000 0.0000
# 3 83.4701 83.4701 182.5209 0.0000 0.0000 0.0000
# 4 0.0000 0.0000 0.0000 -255.8744 0.0000 0.0000
# 5 0.0000 0.0000 0.0000 0.0000 -255.8744 0.0000
# 6 0.0000 0.0000 0.0000 0.0000 0.0000 41.0095
#
#
#
# Elastic Compliance Matrix: (Units=1/GPa)
#
#
# Indices 1 2 3 4 5 6 
#
# 1 0.006253 -0.001608 -0.002124 0.000000 0.000000 0.000000
# 2 -0.001608 0.006253 -0.002124 0.000000 0.000000 0.000000
# 3 -0.002124 -0.002124 0.007422 0.000000 0.000000 0.000000
# 4 0.000000 0.000000 0.000000 -0.003908 0.000000 0.000000
# 5 0.000000 0.000000 0.000000 0.000000 -0.003908 0.000000
# 6 0.000000 0.000000 0.000000 0.000000 0.000000 0.024385
#
#
# Mechanical properties :
#
#
# Convention : Reuss Voigt Hill
#
# Bulk Modulus (GPa) = 121.73302 122.18576 121.95939
# Shear Modulus (GPa) = 98.14373 -70.66595 13.73889
#
# Velocity S-wave (km/s) = 6.44614 -5.46982 2.41181
# Velocity P-wave (km/s) = 10.34135 3.44090 7.70660
#
# Compressibility (1/GPa) = 0.00821470
#
# Stress axis : x y z
#
# Youngs Moduli (GPa) = 159.93262 159.93262 134.74032
#
# Poissons Ratio (x) = 0.25713 0.28621
# Poissons Ratio (y) = 0.25713 0.28621
# Poissons Ratio (z) = 0.33973 0.33973
#
# Static dielectric constant tensor:
#      x y z
#    x 2.032710 0.000000 0.000000 
#    y 0.000000 2.032710 0.000000 
#    z 0.000000 0.000000 1.909950 
# 
# From -- ./inp_files/6616.got.cif
#   From: 2010.05.17/outbox.cif.g08.bks.cpg/sg118_4_cif.got.tgz:6616.got - 2010.05.20 11:17:24.
