data_PCOD9558796
_publ_section_title
;
Structure prediction by ZEFSAII (Michael W. Deem and Ramdas Pophale) SiO2 
 PCOD9558796
Probable space group: P -4 N 2
;
_chemical_formula_sum "Si O2"
_cell_formula_units_Z 32
_cell_length_a 10.726886
_cell_length_b 10.726886
_cell_length_c 13.034794
_cell_angle_alpha 90.000000
_cell_angle_beta 90.000000
_cell_angle_gamma 90.000000
_cell_volume 1499.862692
_symmetry_space_group_name_H-M "P -4 N 2"
_symmetry_group_IT_number 118
_symmetry_cell_setting 'tetragonal'
loop_
_space_group_symop_operation_xyz
x,y,z
y,-x,-z
-x,-y,z
-y,x,-z
1/2+y,1/2+x,1/2-z
1/2-y,1/2-x,1/2-z
1/2-x,1/2+y,1/2+z
1/2+x,1/2-y,1/2+z
loop_
_atom_site_type_symbol
_atom_site_label
_atom_site_fract_x
_atom_site_fract_y
_atom_site_fract_z
Si Si1 0.308649 0.598537 0.733289
Si Si2 0.441942 0.867404 0.414716
Si Si3 0.837712 0.049975 0.440121
Si Si4 0.676241 0.513928 0.442934
O O1 0.217188 0.717188 0.750000
O O2 0.226065 0.498322 0.669918
O O3 0.350185 0.531651 0.837043
O O4 0.426589 0.642387 0.665218
O O5 0.294525 0.883426 0.427677
O O6 0.492132 0.818423 0.524585
O O7 0.500000 0.000000 0.389277
O O8 0.946811 0.147587 0.468759
O O9 0.610130 0.386196 0.474236
#
# Coordination Sequence:
#
# PCOD9558796 Si02
#       4
#     8   8   8   8
#     4  11  21  41  69  97 129 175 229 274 340 412
#     4  11  22  39  69  99 126 171 223 282 334 408
#     4  11  25  40  62  94 136 173 216 284 342 396
#     4   9  21  39  64  97 129 167 215 278 337 401
#
# _framework density 21.335284000000001
#
# number of rings (size 3 to 8) (size 9 to 14) (size 15 to 20)
#    0.000    1.500    2.500    2.250    3.500    8.000 
#    0.000    0.000    0.000    5.250    0.000    0.000 
#    0.000    0.000    0.000    0.000    0.000    0.000 
#
# Total GULP energy -178559.797346 kJ/mol
# GULP energy per Si atom -5579.993667 kJ/mol
# Density = 2.128672 g / cm^3
# Si number density = 21.335284 Si / 1000 Ang^3
#
#
#
# Elastic Constant Matrix: (Units=GPa)
#
#
# Indices 1 2 3 4 5 6 
#
# 1 51.5741 -14.5086 22.6571 0.0000 0.0000 0.0000
# 2 -14.5086 51.5741 22.6571 0.0000 0.0000 0.0000
# 3 22.6571 22.6571 118.2403 0.0000 0.0000 0.0000
# 4 0.0000 0.0000 0.0000 31.1333 0.0000 0.0000
# 5 0.0000 0.0000 0.0000 0.0000 31.1333 0.0000
# 6 0.0000 0.0000 0.0000 0.0000 0.0000 22.4553
#
#
#
# Elastic Compliance Matrix: (Units=1/GPa)
#
#
# Indices 1 2 3 4 5 6 
#
# 1 0.025183 0.010050 -0.006751 0.000000 0.000000 0.000000
# 2 0.010050 0.025183 -0.006751 0.000000 0.000000 0.000000
# 3 -0.006751 -0.006751 0.011045 0.000000 0.000000 0.000000
# 4 0.000000 0.000000 0.000000 0.032120 0.000000 0.000000
# 5 0.000000 0.000000 0.000000 0.000000 0.032120 0.000000
# 6 0.000000 0.000000 0.000000 0.000000 0.000000 0.044533
#
#
# Mechanical properties :
#
#
# Convention : Reuss Voigt Hill
#
# Bulk Modulus (GPa) = 18.34677 31.44439 24.89558
# Shear Modulus (GPa) = 25.60736 29.64990 27.62863
#
# Velocity S-wave (km/s) = 3.46820 3.73193 3.60248
# Velocity P-wave (km/s) = 4.96546 5.77407 5.38497
#
# Compressibility (1/GPa) = 0.05450549
#
# Stress axis : x y z
#
# Youngs Moduli (GPa) = 39.70967 39.70967 90.54107
#
# Poissons Ratio (x) = -0.39909 0.61127
# Poissons Ratio (y) = -0.39909 0.61127
# Poissons Ratio (z) = 0.26809 0.26809
#
# Static dielectric constant tensor:
#      x y z
#    x 1.823350 0.000000 0.000000 
#    y 0.000000 1.823350 0.000000 
#    z 0.000000 0.000000 1.797740 
# 
# From -- ./inp_files/2886.got.cif
#   From: 2010.05.17/outbox.cif.g08.bks.cpg/sg118_2_cif.got.tgz:2886.got - 2010.05.20 11:17:24.
