data_PCOD9558197
_publ_section_title
;
Structure prediction by ZEFSAII (Michael W. Deem and Ramdas Pophale) SiO2 
 PCOD9558197
Probable space group: P -4 B 2
;
_chemical_formula_sum "Si O2"
_cell_formula_units_Z 48
_cell_length_a 14.492713
_cell_length_b 14.492713
_cell_length_c 11.836155
_cell_angle_alpha 90.000000
_cell_angle_beta 90.000000
_cell_angle_gamma 90.000000
_cell_volume 2486.050965
_symmetry_space_group_name_H-M "P -4 B 2"
_symmetry_group_IT_number 117
_symmetry_cell_setting 'tetragonal'
loop_
_space_group_symop_operation_xyz
x,y,z
y,-x,-z
-x,-y,z
-y,x,-z
1/2+y,1/2+x,-z
1/2-y,1/2-x,-z
1/2-x,1/2+y,z
1/2+x,1/2-y,z
loop_
_atom_site_type_symbol
_atom_site_label
_atom_site_fract_x
_atom_site_fract_y
_atom_site_fract_z
Si Si1 0.180479 0.134330 0.234440
Si Si2 0.085928 0.881033 0.994334
Si Si3 0.793372 0.435715 0.446815
Si Si4 0.311962 0.304129 0.207865
Si Si5 0.734292 0.506466 0.675709
Si Si6 0.126740 0.338011 0.623835
O O1 0.235952 0.097271 0.340519
O O2 0.237656 0.223371 0.193196
O O3 0.078464 0.158605 0.280037
O O4 0.175336 0.075295 0.121308
O O5 0.158120 0.846984 0.087958
O O6 0.983753 0.886350 0.044174
O O7 0.855027 0.355027 0.500000
O O8 0.728374 0.477221 0.544742
O O9 0.855724 0.520693 0.405147
O O10 0.409401 0.267856 0.258787
O O11 0.254498 0.365465 0.299619
O O12 0.825577 0.572359 0.679882
O O13 0.175386 0.324615 0.500000
#
# Coordination Sequence:
#
# PCOD9558197 Si02
#       6
#     8   8   8   8   8   8
#     4  11  23  41  63  92 122 167 210 258 320 380
#     4  11  23  41  62  89 123 162 213 264 313 378
#     4  11  22  38  63  92 127 167 206 258 319 382
#     4  11  21  40  64  88 123 166 209 262 318 375
#     4  10  22  37  61  91 124 160 211 255 312 380
#     4   9  22  38  60  93 132 164 205 260 315 383
#
# _framework density 19.307729999999999
#
# number of rings (size 3 to 8) (size 9 to 14) (size 15 to 20)
#    0.000    1.500    3.333    1.500    7.000    3.000 
#    0.000    0.000    0.000    0.000    0.000    2.333 
#    0.000    0.000    0.000    0.000    0.000    0.000 
#
# Total GULP energy -267365.657986 kJ/mol
# GULP energy per Si atom -5570.117875 kJ/mol
# Density = 1.926378 g / cm^3
# Si number density = 19.307730 Si / 1000 Ang^3
#
#
#
# Elastic Constant Matrix: (Units=GPa)
#
#
# Indices 1 2 3 4 5 6 
#
# 1 71.0798 13.1927 46.4205 0.0000 0.0000 0.0000
# 2 13.1927 71.0802 46.4204 0.0000 0.0000 0.0000
# 3 46.4205 46.4204 130.5180 0.0000 0.0000 0.0000
# 4 0.0000 0.0000 0.0000 34.8300 0.0000 0.0000
# 5 0.0000 0.0000 0.0000 0.0000 34.8300 0.0000
# 6 0.0000 0.0000 0.0000 0.0000 0.0000 4.4363
#
#
#
# Elastic Compliance Matrix: (Units=1/GPa)
#
#
# Indices 1 2 3 4 5 6 
#
# 1 0.018393 0.001118 -0.006939 0.000000 0.000000 0.000000
# 2 0.001118 0.018393 -0.006939 0.000000 0.000000 0.000000
# 3 -0.006939 -0.006939 0.012598 0.000000 0.000000 0.000000
# 4 0.000000 0.000000 0.000000 0.028711 0.000000 0.000000
# 5 0.000000 0.000000 0.000000 0.000000 0.028711 0.000000
# 6 0.000000 0.000000 0.000000 0.000000 0.000000 0.225415
#
#
# Mechanical properties :
#
#
# Convention : Reuss Voigt Hill
#
# Bulk Modulus (GPa) = 41.90640 53.86058 47.88349
# Shear Modulus (GPa) = 13.67253 25.92887 19.80070
#
# Velocity S-wave (km/s) = 2.66397 3.66857 3.20587
# Velocity P-wave (km/s) = 5.58694 6.77503 6.20946
#
# Compressibility (1/GPa) = 0.02386270
#
# Stress axis : x y z
#
# Youngs Moduli (GPa) = 54.36808 54.36851 79.37781
#
# Poissons Ratio (x) = -0.06079 0.55084
# Poissons Ratio (y) = -0.06079 0.55083
# Poissons Ratio (z) = 0.37728 0.37728
#
# Static dielectric constant tensor:
#      x y z
#    x 1.693990 0.000000 0.000000 
#    y 0.000000 1.693990 0.000000 
#    z 0.000000 0.000000 1.741190 
# 
# From -- ./inp_files/2793.got.cif
#   From: 2010.05.17/outbox.cif.g08.bks.cpg/sg117_2_cif.got.tgz:2793.got - 2010.05.20 11:15:09.
