data_PCOD9558776
_publ_section_title
;
Structure prediction by ZEFSAII (Michael W. Deem and Ramdas Pophale) SiO2 
 PCOD9558776
Probable space group: P -4 N 2
;
_chemical_formula_sum "Si O2"
_cell_formula_units_Z 40
_cell_length_a 11.729688
_cell_length_b 11.729688
_cell_length_c 14.498837
_cell_angle_alpha 90.000000
_cell_angle_beta 90.000000
_cell_angle_gamma 90.000000
_cell_volume 1994.830906
_symmetry_space_group_name_H-M "P -4 N 2"
_symmetry_group_IT_number 118
_symmetry_cell_setting 'tetragonal'
loop_
_space_group_symop_operation_xyz
x,y,z
y,-x,-z
-x,-y,z
-y,x,-z
1/2+y,1/2+x,1/2-z
1/2-y,1/2-x,1/2-z
1/2-x,1/2+y,1/2+z
1/2+x,1/2-y,1/2+z
loop_
_atom_site_type_symbol
_atom_site_label
_atom_site_fract_x
_atom_site_fract_y
_atom_site_fract_z
Si Si1 0.367661 0.490244 0.667212
Si Si2 0.615420 0.768420 0.659780
Si Si3 0.013285 0.134344 0.615047
Si Si4 0.759776 0.158109 0.845135
Si Si5 0.314754 0.269223 0.994702
O O1 0.500000 0.500000 0.637582
O O2 0.333671 0.360371 0.649072
O O3 0.358828 0.503468 0.776763
O O4 0.312156 0.607038 0.633439
O O5 0.667162 0.832839 0.750000
O O6 0.478066 0.756789 0.667753
O O7 0.652561 0.822936 0.562695
O O8 0.921658 0.207684 0.560614
O O9 0.136580 0.175609 0.585118
O O10 0.000000 0.000000 0.594072
O O11 0.716211 0.216211 0.750000
O O12 0.704350 0.208341 0.937836
#
# Coordination Sequence:
#
# PCOD9558776 Si02
#       5
#     8   8   8   8   8
#     4   9  20  42  64  85 116 163 213 252 294 361
#     4  11  25  42  64  92 127 164 203 255 311 369
#     4  11  20  38  69  92 111 162 227 257 281 358
#     4  11  25  42  64  92 127 164 203 255 311 369
#     4  12  23  38  65  94 124 158 210 256 307 356
#
# _framework density 20.051822999999999
#
# number of rings (size 3 to 8) (size 9 to 14) (size 15 to 20)
#    0.000    1.200    6.000    0.000    5.600    0.400 
#    0.000    0.000    0.000    3.000    0.000    0.000 
#    0.000    0.000    0.000    0.000    0.000    0.000 
#
# Total GULP energy -222862.690713 kJ/mol
# GULP energy per Si atom -5571.567268 kJ/mol
# Density = 2.000618 g / cm^3
# Si number density = 20.051823 Si / 1000 Ang^3
#
#
#
# Elastic Constant Matrix: (Units=GPa)
#
#
# Indices 1 2 3 4 5 6 
#
# 1 31.1636 -3.6113 -7.0885 0.0000 0.0000 0.0000
# 2 -3.6113 31.1612 -7.0892 0.0000 0.0000 0.0000
# 3 -7.0885 -7.0892 50.6175 0.0000 0.0000 0.0000
# 4 0.0000 0.0000 0.0000 46.6339 0.0000 0.0000
# 5 0.0000 0.0000 0.0000 0.0000 46.6339 0.0000
# 6 0.0000 0.0000 0.0000 0.0000 0.0000 14.8983
#
#
#
# Elastic Compliance Matrix: (Units=1/GPa)
#
#
# Indices 1 2 3 4 5 6 
#
# 1 0.033935 0.005179 0.005478 0.000000 0.000000 0.000000
# 2 0.005179 0.033938 0.005478 0.000000 0.000000 0.000000
# 3 0.005478 0.005478 0.021290 0.000000 0.000000 0.000000
# 4 0.000000 0.000000 0.000000 0.021444 0.000000 0.000000
# 5 0.000000 0.000000 0.000000 0.000000 0.021444 0.000000
# 6 0.000000 0.000000 0.000000 0.000000 0.000000 0.067122
#
#
# Mechanical properties :
#
#
# Convention : Reuss Voigt Hill
#
# Bulk Modulus (GPa) = 8.23502 8.59602 8.41552
# Shear Modulus (GPa) = 24.11039 30.34865 27.22952
#
# Velocity S-wave (km/s) = 3.47133 3.89461 3.68905
# Velocity P-wave (km/s) = 4.49251 4.95178 4.72773
#
# Compressibility (1/GPa) = 0.12143267
#
# Stress axis : x y z
#
# Youngs Moduli (GPa) = 29.46826 29.46579 46.96955
#
# Poissons Ratio (x) = -0.15260 -0.25728
# Poissons Ratio (y) = -0.15261 -0.25732
# Poissons Ratio (z) = -0.16142 -0.16142
#
# Static dielectric constant tensor:
#      x y z
#    x 1.730590 0.000000 0.000000 
#    y 0.000000 1.730590 0.000000 
#    z 0.000000 0.000000 1.733710 
# 
# From -- ./inp_files/4061.got.cif
#   From: 2010.05.17/outbox.cif.g08.bks.cpg/sg118_3_cif.got.tgz:4061.got - 2010.05.20 11:17:24.
