data_PCOD9558441
_publ_section_title
;
Structure prediction by ZEFSAII (Michael W. Deem and Ramdas Pophale) SiO2 
 PCOD9558441
Probable space group: P -4 N 2
;
_chemical_formula_sum "Si O2"
_cell_formula_units_Z 36
_cell_length_a 11.208034
_cell_length_b 11.208034
_cell_length_c 15.761273
_cell_angle_alpha 90.000000
_cell_angle_beta 90.000000
_cell_angle_gamma 90.000000
_cell_volume 1979.931526
_symmetry_space_group_name_H-M "P -4 N 2"
_symmetry_group_IT_number 118
_symmetry_cell_setting 'tetragonal'
loop_
_space_group_symop_operation_xyz
x,y,z
y,-x,-z
-x,-y,z
-y,x,-z
1/2+y,1/2+x,1/2-z
1/2-y,1/2-x,1/2-z
1/2-x,1/2+y,1/2+z
1/2+x,1/2-y,1/2+z
loop_
_atom_site_type_symbol
_atom_site_label
_atom_site_fract_x
_atom_site_fract_y
_atom_site_fract_z
Si Si1 0.222065 0.084418 0.276110
Si Si2 0.236004 0.462932 0.266738
Si Si3 0.677570 0.837218 0.627631
Si Si4 0.820519 0.679482 0.750000
Si Si5 0.821850 0.920253 0.476213
O O1 0.321913 0.178088 0.250000
O O2 0.099519 0.134303 0.233263
O O3 0.199420 0.089632 0.376639
O O4 0.276877 0.956203 0.254545
O O5 0.140201 0.359800 0.250000
O O6 0.197648 0.542043 0.348078
O O7 0.219679 0.552897 0.187649
O O8 0.757026 0.731143 0.665866
O O9 0.713298 0.870151 0.532724
O O10 0.942007 0.848702 0.500833
#
# Coordination Sequence:
#
# PCOD9558441 Si02
#       5
#     8   8   8   4   8
#     4  11  22  39  58  85 130 166 199 251 319 377
#     4   9  19  35  57  86 120 158 201 247 306 361
#     4  10  19  33  60  89 118 149 209 258 301 361
#     4  10  21  36  57  90 124 160 204 242 321 380
#     4  11  21  36  60  93 120 154 214 267 303 360
#
# _framework density 18.182447
#
# number of rings (size 3 to 8) (size 9 to 14) (size 15 to 20)
#    0.000    2.000    4.444    1.667    0.000    3.556 
#    0.000    8.889    0.000    0.000    0.000   15.556 
#    0.000    0.000    0.000    0.000    0.000    0.000 
#
# Total GULP energy -200612.003785 kJ/mol
# GULP energy per Si atom -5572.555661 kJ/mol
# Density = 1.814106 g / cm^3
# Si number density = 18.182447 Si / 1000 Ang^3
#
#
#
# Elastic Constant Matrix: (Units=GPa)
#
#
# Indices 1 2 3 4 5 6 
#
# 1 399.8156 -219.7662 39.0749 0.0000 0.0000 0.0000
# 2 -219.7662 399.8361 39.0702 0.0000 0.0000 0.0000
# 3 39.0749 39.0702 69.9461 0.0000 0.0000 0.0000
# 4 0.0000 0.0000 0.0000 23.9127 0.0000 0.0000
# 5 0.0000 0.0000 0.0000 0.0000 23.9126 0.0000
# 6 0.0000 0.0000 0.0000 0.0000 0.0000 34.5848
#
#
#
# Elastic Compliance Matrix: (Units=1/GPa)
#
#
# Indices 1 2 3 4 5 6 
#
# 1 0.004473 0.002859 -0.004095 0.000000 0.000000 0.000000
# 2 0.002859 0.004472 -0.004095 0.000000 0.000000 0.000000
# 3 -0.004095 -0.004095 0.018872 0.000000 0.000000 0.000000
# 4 0.000000 0.000000 0.000000 0.041819 0.000000 0.000000
# 5 0.000000 0.000000 0.000000 0.000000 0.041819 0.000000
# 6 0.000000 0.000000 0.000000 0.000000 0.000000 0.028914
#
#
# Mechanical properties :
#
#
# Convention : Reuss Voigt Hill
#
# Bulk Modulus (GPa) = 58.29795 65.15060 61.72428
# Shear Modulus (GPa) = 31.89786 83.89663 57.89724
#
# Velocity S-wave (km/s) = 4.19301 6.80013 5.64903
# Velocity P-wave (km/s) = 7.45480 9.87750 8.75040
#
# Compressibility (1/GPa) = 0.01715326
#
# Stress axis : x y z
#
# Youngs Moduli (GPa) = 223.58181 223.59701 52.98877
#
# Poissons Ratio (x) = -0.63916 0.21701
# Poissons Ratio (y) = -0.63911 0.21699
# Poissons Ratio (z) = 0.91564 0.91564
#
# Static dielectric constant tensor:
#      x y z
#    x 1.662320 0.000000 0.000000 
#    y 0.000000 1.662310 0.000000 
#    z 0.000000 0.000000 1.597750 
# 
# From -- ./inp_files/4754.got.cif
#   From: 2010.05.17/outbox.cif.g08.bks.cpg/sg118_3_cif.got.tgz:4754.got - 2010.05.20 11:17:24.
