data_PCOD9558866
_publ_section_title
;
Structure prediction by ZEFSAII (Michael W. Deem and Ramdas Pophale) SiO2 
 PCOD9558866
Probable space group: P -4 N 2
;
_chemical_formula_sum "Si O2"
_cell_formula_units_Z 28
_cell_length_a 9.878479
_cell_length_b 9.878479
_cell_length_c 14.043464
_cell_angle_alpha 90.000000
_cell_angle_beta 90.000000
_cell_angle_gamma 90.000000
_cell_volume 1370.422269
_symmetry_space_group_name_H-M "P -4 N 2"
_symmetry_group_IT_number 118
_symmetry_cell_setting 'tetragonal'
loop_
_space_group_symop_operation_xyz
x,y,z
y,-x,-z
-x,-y,z
-y,x,-z
1/2+y,1/2+x,1/2-z
1/2-y,1/2-x,1/2-z
1/2-x,1/2+y,1/2+z
1/2+x,1/2-y,1/2+z
loop_
_atom_site_type_symbol
_atom_site_label
_atom_site_fract_x
_atom_site_fract_y
_atom_site_fract_z
Si Si1 0.681567 0.244113 0.100840
Si Si2 0.977835 0.659480 0.413473
Si Si3 0.838780 0.019634 0.215478
Si Si4 0.729134 0.229134 0.750000
O O1 0.766186 0.378849 0.079691
O O2 0.782415 0.130880 0.142733
O O3 0.573017 0.286496 0.181996
O O4 0.606280 0.189006 0.008517
O O5 0.893803 0.717283 0.324068
O O6 0.000000 0.500000 0.399841
O O7 0.778375 0.871804 0.196516
O O8 0.000000 0.000000 0.213965
#
# Coordination Sequence:
#
# PCOD9558866 Si02
#       4
#     8   8   8   4
#     4  11  27  45  73 105 143 188 241 291 359 436
#     4  12  27  46  74 108 144 189 241 297 362 431
#     4  11  24  47  72 105 143 186 236 294 356 426
#     4  12  25  45  78 100 146 190 235 299 360 418
#
# _framework density 20.431659
#
# number of rings (size 3 to 8) (size 9 to 14) (size 15 to 20)
#    0.000    0.571    2.857    3.857   12.000    1.143 
#    0.000    0.000    0.000    0.000    0.000    0.000 
#    0.000    0.000    0.000    0.000    0.000    0.000 
#
# Total GULP energy -156770.791933 kJ/mol
# GULP energy per Si atom -5598.956855 kJ/mol
# Density = 2.038516 g / cm^3
# Si number density = 20.431659 Si / 1000 Ang^3
#
#
#
# Elastic Constant Matrix: (Units=GPa)
#
#
# Indices 1 2 3 4 5 6 
#
# 1 120.1616 40.0356 24.8258 0.0000 0.0000 0.0000
# 2 40.0356 120.1616 24.8258 0.0000 0.0000 0.0000
# 3 24.8258 24.8258 93.3276 0.0000 0.0000 0.0000
# 4 0.0000 0.0000 0.0000 72.2946 0.0000 0.0000
# 5 0.0000 0.0000 0.0000 0.0000 72.2946 0.0000
# 6 0.0000 0.0000 0.0000 0.0000 0.0000 37.7800
#
#
#
# Elastic Compliance Matrix: (Units=1/GPa)
#
#
# Indices 1 2 3 4 5 6 
#
# 1 0.009642 -0.002839 -0.001810 0.000000 0.000000 0.000000
# 2 -0.002839 0.009642 -0.001810 0.000000 0.000000 0.000000
# 3 -0.001810 -0.001810 0.011678 0.000000 0.000000 0.000000
# 4 0.000000 0.000000 0.000000 0.013832 0.000000 0.000000
# 5 0.000000 0.000000 0.000000 0.000000 0.013832 0.000000
# 6 0.000000 0.000000 0.000000 0.000000 0.000000 0.026469
#
#
# Mechanical properties :
#
#
# Convention : Reuss Voigt Hill
#
# Bulk Modulus (GPa) = 55.41600 57.00282 56.20941
# Shear Modulus (GPa) = 48.06493 52.73809 50.40151
#
# Velocity S-wave (km/s) = 4.85549 5.08606 4.97211
# Velocity P-wave (km/s) = 7.65610 7.90256 7.78031
#
# Compressibility (1/GPa) = 0.01804533
#
# Stress axis : x y z
#
# Youngs Moduli (GPa) = 103.71526 103.71526 85.63309
#
# Poissons Ratio (x) = 0.29440 0.15497
# Poissons Ratio (y) = 0.29440 0.15497
# Poissons Ratio (z) = 0.18769 0.18769
#
# Static dielectric constant tensor:
#      x y z
#    x 1.651090 0.000000 0.000000 
#    y 0.000000 1.651090 0.000000 
#    z 0.000000 0.000000 1.693620 
# 
# From -- ./inp_files/4620.got.cif
#   From: 2010.05.17/outbox.cif.g08.bks.cpg/sg118_3_cif.got.tgz:4620.got - 2010.05.20 11:17:24.
