data_PCOD9558257
_publ_section_title
;
Structure prediction by ZEFSAII (Michael W. Deem and Ramdas Pophale) SiO2 
 PCOD9558257
Probable space group: P -4 B 2
;
_chemical_formula_sum "Si O2"
_cell_formula_units_Z 20
_cell_length_a 10.157201
_cell_length_b 10.157201
_cell_length_c 10.442622
_cell_angle_alpha 90.000000
_cell_angle_beta 90.000000
_cell_angle_gamma 90.000000
_cell_volume 1077.352072
_symmetry_space_group_name_H-M "P -4 B 2"
_symmetry_group_IT_number 117
_symmetry_cell_setting 'tetragonal'
loop_
_space_group_symop_operation_xyz
x,y,z
y,-x,-z
-x,-y,z
-y,x,-z
1/2+y,1/2+x,-z
1/2-y,1/2-x,-z
1/2-x,1/2+y,z
1/2+x,1/2-y,z
loop_
_atom_site_type_symbol
_atom_site_label
_atom_site_fract_x
_atom_site_fract_y
_atom_site_fract_z
Si Si1 0.500000 0.000000 0.000000
Si Si2 0.318304 0.689827 0.625298
Si Si3 0.033347 0.356400 0.249282
Si Si4 0.000000 0.000000 0.500000
O O1 0.621937 0.006874 0.901935
O O2 0.242584 0.742584 0.500000
O O3 0.328094 0.815596 0.717797
O O4 0.245218 0.568029 0.691217
O O5 0.457766 0.627654 0.581533
O O6 0.000000 0.500000 0.307619
#
# Coordination Sequence:
#
# PCOD9558257 Si02
#       4
#     2   8   8   2
#     4   8  24  44  62  92 128 192 228 258 348 392
#     4  12  23  39  67  97 138 171 225 289 358 400
#     4  10  24  42  62  95 132 179 223 279 328 418
#     4  12  24  36  60 110 128 176 220 272 370 420
#
# _framework density 18.564032000000001
#
# number of rings (size 3 to 8) (size 9 to 14) (size 15 to 20)
#    1.200    0.000    4.000    2.400    0.000    1.600 
#    0.000    0.000    0.000    0.000    0.000    0.000 
#    0.000    0.000    0.000    0.000    0.000    0.000 
#
# Total GULP energy -111447.184344 kJ/mol
# GULP energy per Si atom -5572.359217 kJ/mol
# Density = 1.852178 g / cm^3
# Si number density = 18.564032 Si / 1000 Ang^3
#
#
#
# Elastic Constant Matrix: (Units=GPa)
#
#
# Indices 1 2 3 4 5 6 
#
# 1 97.6393 32.2300 28.0778 0.0000 0.0000 0.0000
# 2 32.2300 97.6393 28.0778 0.0000 0.0000 0.0000
# 3 28.0778 28.0778 106.7470 0.0000 0.0000 0.0000
# 4 0.0000 0.0000 0.0000 28.2438 0.0000 0.0000
# 5 0.0000 0.0000 0.0000 0.0000 28.2438 0.0000
# 6 0.0000 0.0000 0.0000 0.0000 0.0000 44.4561
#
#
#
# Elastic Compliance Matrix: (Units=1/GPa)
#
#
# Indices 1 2 3 4 5 6 
#
# 1 0.011988 -0.003300 -0.002285 0.000000 0.000000 0.000000
# 2 -0.003300 0.011988 -0.002285 0.000000 0.000000 0.000000
# 3 -0.002285 -0.002285 0.010570 0.000000 0.000000 0.000000
# 4 0.000000 0.000000 0.000000 0.035406 0.000000 0.000000
# 5 0.000000 0.000000 0.000000 0.000000 0.035406 0.000000
# 6 0.000000 0.000000 0.000000 0.000000 0.000000 0.022494
#
#
# Mechanical properties :
#
#
# Convention : Reuss Voigt Hill
#
# Bulk Modulus (GPa) = 53.17602 53.19964 53.18783
# Shear Modulus (GPa) = 33.36390 34.43139 33.89764
#
# Velocity S-wave (km/s) = 4.24398 4.31134 4.27779
# Velocity P-wave (km/s) = 7.26099 7.31458 7.28783
#
# Compressibility (1/GPa) = 0.01880547
#
# Stress axis : x y z
#
# Youngs Moduli (GPa) = 83.41488 83.41488 94.60609
#
# Poissons Ratio (x) = 0.27527 0.21620
# Poissons Ratio (y) = 0.27527 0.21620
# Poissons Ratio (z) = 0.19063 0.19063
#
# Static dielectric constant tensor:
#      x y z
#    x 1.648370 0.000000 0.000000 
#    y 0.000000 1.648370 0.000000 
#    z 0.000000 0.000000 1.642580 
# 
# From -- ./inp_files/1181.got.cif
#   From: 2010.05.17/outbox.cif.g08.bks.cpg/sg117_1_cif.got.tgz:1181.got - 2010.05.20 11:15:09.
