data_PCOD9558888
_publ_section_title
;
Structure prediction by ZEFSAII (Michael W. Deem and Ramdas Pophale) SiO2 
 PCOD9558888
Probable space group: P -4 N 2
;
_chemical_formula_sum "Si O2"
_cell_formula_units_Z 28
_cell_length_a 8.302502
_cell_length_b 8.302502
_cell_length_c 17.299097
_cell_angle_alpha 90.000000
_cell_angle_beta 90.000000
_cell_angle_gamma 90.000000
_cell_volume 1192.453387
_symmetry_space_group_name_H-M "P -4 N 2"
_symmetry_group_IT_number 118
_symmetry_cell_setting 'tetragonal'
loop_
_space_group_symop_operation_xyz
x,y,z
y,-x,-z
-x,-y,z
-y,x,-z
1/2+y,1/2+x,1/2-z
1/2-y,1/2-x,1/2-z
1/2-x,1/2+y,1/2+z
1/2+x,1/2-y,1/2+z
loop_
_atom_site_type_symbol
_atom_site_label
_atom_site_fract_x
_atom_site_fract_y
_atom_site_fract_z
Si Si1 0.180428 0.307272 0.564739
Si Si2 0.337711 0.199910 0.409411
Si Si3 0.809336 0.690665 0.250000
Si Si4 0.838342 0.882163 0.710424
O O1 0.242644 0.284645 0.478418
O O2 0.253687 0.476436 0.593399
O O3 0.209609 0.156544 0.621863
O O4 0.988490 0.327486 0.570160
O O5 0.260671 0.226871 0.326353
O O6 0.773409 0.504151 0.256425
O O7 0.795210 0.704791 0.750000
O O8 0.000000 0.000000 0.710372
#
# Coordination Sequence:
#
# PCOD9558888 Si02
#       4
#     8   8   4   8
#     4  11  26  47  74 108 156 208 262 337 408 499
#     4  11  26  47  76 110 153 204 272 328 412 488
#     4  12  25  47  78 112 149 204 269 330 399 510
#     4  12  26  48  79 115 159 208 269 341 421 497
#
# _framework density 23.481000000000002
#
# number of rings (size 3 to 8) (size 9 to 14) (size 15 to 20)
#    0.000    0.571    2.857    3.857    4.000    1.714 
#    0.000    0.000    0.000    0.000    0.000    0.000 
#    0.000    0.000    0.000    0.000    0.000    0.000 
#
# Total GULP energy -156087.954843 kJ/mol
# GULP energy per Si atom -5574.569816 kJ/mol
# Density = 2.342756 g / cm^3
# Si number density = 23.481000 Si / 1000 Ang^3
#
#
#
# Elastic Constant Matrix: (Units=GPa)
#
#
# Indices 1 2 3 4 5 6 
#
# 1 96.3939 38.0384 42.9428 0.0000 0.0000 0.0000
# 2 38.0384 96.3945 42.9428 0.0000 0.0000 0.0000
# 3 42.9428 42.9428 134.8239 0.0000 0.0000 0.0000
# 4 0.0000 0.0000 0.0000 43.2305 0.0000 0.0000
# 5 0.0000 0.0000 0.0000 0.0000 43.2315 0.0000
# 6 0.0000 0.0000 0.0000 0.0000 0.0000 35.4075
#
#
#
# Elastic Compliance Matrix: (Units=1/GPa)
#
#
# Indices 1 2 3 4 5 6 
#
# 1 0.013238 -0.003899 -0.002975 0.000000 0.000000 0.000000
# 2 -0.003899 0.013238 -0.002975 0.000000 0.000000 0.000000
# 3 -0.002975 -0.002975 0.009312 0.000000 0.000000 0.000000
# 4 0.000000 0.000000 0.000000 0.023132 0.000000 0.000000
# 5 0.000000 0.000000 0.000000 0.000000 0.023131 0.000000
# 6 0.000000 0.000000 0.000000 0.000000 0.000000 0.028243
#
#
# Mechanical properties :
#
#
# Convention : Reuss Voigt Hill
#
# Bulk Modulus (GPa) = 62.14372 63.94003 63.04187
# Shear Modulus (GPa) = 36.94062 37.95314 37.44688
#
# Velocity S-wave (km/s) = 3.97068 4.02473 3.99779
# Velocity P-wave (km/s) = 6.89527 6.99196 6.94378
#
# Compressibility (1/GPa) = 0.01609173
#
# Stress axis : x y z
#
# Youngs Moduli (GPa) = 75.54178 75.54236 107.38882
#
# Poissons Ratio (x) = 0.29451 0.31944
# Poissons Ratio (y) = 0.29451 0.31944
# Poissons Ratio (z) = 0.22471 0.22471
#
# Static dielectric constant tensor:
#      x y z
#    x 1.875320 0.000000 0.000000 
#    y 0.000000 1.875350 0.000000 
#    z 0.000000 0.000000 1.852260 
# 
# From -- ./inp_files/4616.got.cif
#   From: 2010.05.17/outbox.cif.g08.bks.cpg/sg118_3_cif.got.tgz:4616.got - 2010.05.20 11:17:24.
