data_PCOD9558979
_publ_section_title
;
Structure prediction by ZEFSAII (Michael W. Deem and Ramdas Pophale) SiO2 
 PCOD9558979
Probable space group: I -4 M 2
;
_chemical_formula_sum "Si O2"
_cell_formula_units_Z 56
_cell_length_a 14.606307
_cell_length_b 14.606307
_cell_length_c 13.684162
_cell_angle_alpha 90.000000
_cell_angle_beta 90.000000
_cell_angle_gamma 90.000000
_cell_volume 2919.436652
_symmetry_space_group_name_H-M "I -4 M 2"
_symmetry_group_IT_number 119
_symmetry_cell_setting 'tetragonal'
loop_
_space_group_symop_operation_xyz
x,y,z
y,-x,-z
-x,-y,z
-y,x,-z
y,x,-z
-y,-x,-z
-x,y,z
x,-y,z
1/2+x,1/2+y,1/2+z
1/2+y,1/2-x,1/2-z
1/2-x,1/2-y,1/2+z
1/2-y,1/2+x,1/2-z
1/2+y,1/2+x,1/2-z
1/2-y,1/2-x,1/2-z
1/2-x,1/2+y,1/2+z
1/2+x,1/2-y,1/2+z
loop_
_atom_site_type_symbol
_atom_site_label
_atom_site_fract_x
_atom_site_fract_y
_atom_site_fract_z
Si Si1 0.110076 0.389925 0.250000
Si Si2 0.388566 0.892878 0.962811
Si Si3 0.389140 0.205716 0.160893
Si Si4 0.890741 0.099495 0.616465
O O1 0.123764 0.500000 0.252543
O O2 0.142371 0.356520 0.143577
O O3 0.500000 0.890077 0.960996
O O4 0.363443 0.000000 0.974756
O O5 0.358696 0.835375 0.056572
O O6 0.500000 0.204735 0.160359
O O7 0.353420 0.146581 0.250000
O O8 0.357335 0.310669 0.170350
O O9 0.883847 0.116154 0.500000
O O10 0.000000 0.093580 0.634940
O O11 0.849205 0.000000 0.639225
#
# Coordination Sequence:
#
# PCOD9558979 Si02
#       4
#     8  16  16  16
#     4   7  10  18  32  48  74 126 184 210 218 257
#     4   8  13  21  34  56  93 139 175 198 229 289
#     4  10  18  26  42  73 110 140 163 196 253 324
#     4   8  15  30  51  70  89 122 176 234 268 284
#
# _framework density 19.181784
#
# number of rings (size 3 to 8) (size 9 to 14) (size 15 to 20)
#    0.000    3.571    0.000    3.429    0.000    1.429 
#    0.000    0.000    3.143    0.000    0.000    2.000 
#    0.000    5.143    0.000   24.000    0.000    0.571 
#
# Total GULP energy -155971.054134 kJ/mol
# GULP energy per Si atom -5570.394790 kJ/mol
# Density = 1.913812 g / cm^3
# Si number density = 19.181784 Si / 1000 Ang^3
#
#
#
# Elastic Constant Matrix: (Units=GPa)
#
#
# Indices 1 2 3 4 5 6 
#
# 1 64.2351 17.5782 34.0768 0.0000 0.0000 0.0000
# 2 17.5782 64.2394 34.0782 0.0000 0.0000 0.0000
# 3 34.0768 34.0782 140.3848 0.0000 0.0000 0.0000
# 4 0.0000 0.0000 0.0000 2.1486 0.0000 0.0000
# 5 0.0000 0.0000 0.0000 0.0000 2.1484 0.0000
# 6 0.0000 0.0000 0.0000 0.0000 0.0000 4.5645
#
#
#
# Elastic Compliance Matrix: (Units=1/GPa)
#
#
# Indices 1 2 3 4 5 6 
#
# 1 0.018377 -0.003056 -0.003719 0.000000 0.000000 0.000000
# 2 -0.003056 0.018376 -0.003719 0.000000 0.000000 0.000000
# 3 -0.003719 -0.003719 0.008929 0.000000 0.000000 0.000000
# 4 0.000000 0.000000 0.000000 0.465427 0.000000 0.000000
# 5 0.000000 0.000000 0.000000 0.000000 0.465462 0.000000
# 6 0.000000 0.000000 0.000000 0.000000 0.000000 0.219083
#
#
# Mechanical properties :
#
#
# Convention : Reuss Voigt Hill
#
# Bulk Modulus (GPa) = 40.49541 48.92511 44.71026
# Shear Modulus (GPa) = 4.08206 13.98069 9.03138
#
# Velocity S-wave (km/s) = 1.46038 2.70266 2.17222
# Velocity P-wave (km/s) = 4.89906 5.94142 5.44524
#
# Compressibility (1/GPa) = 0.02469416
#
# Stress axis : x y z
#
# Youngs Moduli (GPa) = 54.41595 54.41944 111.99712
#
# Poissons Ratio (x) = 0.16629 0.41652
# Poissons Ratio (y) = 0.16628 0.41651
# Poissons Ratio (z) = 0.20237 0.20238
#
# Static dielectric constant tensor:
#      x y z
#    x 1.688510 0.000000 0.000000 
#    y 0.000000 1.688510 0.000000 
#    z 0.000000 0.000000 1.661380 
# 
# From -- ./inp_files/4931.got.cif
#   From: 2010.05.17/outbox.cif.g08.bks.cpg/sg119_3_cif.got.tgz:4931.got - 2010.05.20 11:21:29.
