data_PCOD9558078
_publ_section_title
;
Structure prediction by ZEFSAII (Michael W. Deem and Ramdas Pophale) SiO2 
 PCOD9558078
Probable space group: P -4 B 2
;
_chemical_formula_sum "Si O2"
_cell_formula_units_Z 40
_cell_length_a 14.992237
_cell_length_b 14.992237
_cell_length_c 9.116052
_cell_angle_alpha 90.000000
_cell_angle_beta 90.000000
_cell_angle_gamma 90.000000
_cell_volume 2048.989212
_symmetry_space_group_name_H-M "P -4 B 2"
_symmetry_group_IT_number 117
_symmetry_cell_setting 'tetragonal'
loop_
_space_group_symop_operation_xyz
x,y,z
y,-x,-z
-x,-y,z
-y,x,-z
1/2+y,1/2+x,-z
1/2-y,1/2-x,-z
1/2-x,1/2+y,z
1/2+x,1/2-y,z
loop_
_atom_site_type_symbol
_atom_site_label
_atom_site_fract_x
_atom_site_fract_y
_atom_site_fract_z
Si Si1 0.255446 0.943585 0.451925
Si Si2 0.601466 0.997282 0.689956
Si Si3 0.216629 0.150711 0.411868
Si Si4 0.812505 0.387320 0.144118
Si Si5 0.169664 0.403386 0.134599
O O1 0.190198 0.875920 0.532946
O O2 0.282885 0.896644 0.296485
O O3 0.335875 0.965633 0.563113
O O4 0.218898 0.043593 0.430717
O O5 0.619873 0.897880 0.746454
O O6 0.500000 0.000000 0.644174
O O7 0.602899 0.065126 0.825536
O O8 0.293358 0.206643 0.500000
O O9 0.233711 0.156504 0.237863
O O10 0.804445 0.492628 0.102529
O O11 0.833790 0.333790 0.000000
O O12 0.168527 0.331473 0.000000
#
# Coordination Sequence:
#
# PCOD9558078 Si02
#       5
#     8   8   8   8   8
#     4  11  24  40  62  90 130 176 224 269 321 398
#     4  10  19  33  59  91 124 162 199 259 336 395
#     4  11  23  42  63  92 127 168 223 272 324 394
#     4  10  19  34  60  90 133 167 197 267 340 403
#     4  10  19  31  57  96 129 160 205 260 340 401
#
# _framework density 19.521820999999999
#
# number of rings (size 3 to 8) (size 9 to 14) (size 15 to 20)
#    0.000    1.600    4.000    1.800    0.000    4.400 
#    0.000    4.000    0.000    0.000    0.000    0.000 
#    0.000    0.000    0.000    0.000    0.000    0.000 
#
# Total GULP energy -222731.429855 kJ/mol
# GULP energy per Si atom -5568.285746 kJ/mol
# Density = 1.947739 g / cm^3
# Si number density = 19.521821 Si / 1000 Ang^3
#
#
#
# Elastic Constant Matrix: (Units=GPa)
#
#
# Indices 1 2 3 4 5 6 
#
# 1 61.4179 51.9889 47.4781 0.0000 0.0000 0.0000
# 2 51.9889 61.4172 47.4786 0.0000 0.0000 0.0000
# 3 47.4781 47.4786 128.9797 0.0000 0.0000 0.0000
# 4 0.0000 0.0000 0.0000 49.7862 0.0000 0.0000
# 5 0.0000 0.0000 0.0000 0.0000 49.8046 0.0000
# 6 0.0000 0.0000 0.0000 0.0000 0.0000 35.5397
#
#
#
# Elastic Compliance Matrix: (Units=1/GPa)
#
#
# Indices 1 2 3 4 5 6 
#
# 1 0.059403 -0.046657 -0.004692 0.000000 0.000000 0.000000
# 2 -0.046657 0.059404 -0.004693 0.000000 0.000000 0.000000
# 3 -0.004692 -0.004693 0.011208 0.000000 0.000000 0.000000
# 4 0.000000 0.000000 0.000000 0.020086 0.000000 0.000000
# 5 0.000000 0.000000 0.000000 0.000000 0.020078 0.000000
# 6 0.000000 0.000000 0.000000 0.000000 0.000000 0.028138
#
#
# Mechanical properties :
#
#
# Convention : Reuss Voigt Hill
#
# Bulk Modulus (GPa) = 55.76527 60.63400 58.19963
# Shear Modulus (GPa) = 15.80399 34.01736 24.91068
#
# Velocity S-wave (km/s) = 2.84836 4.17889 3.57605
# Velocity P-wave (km/s) = 6.28054 7.37640 6.85041
#
# Compressibility (1/GPa) = 0.01793231
#
# Stress axis : x y z
#
# Youngs Moduli (GPa) = 16.83427 16.83385 89.22548
#
# Poissons Ratio (x) = 0.78541 0.41862
# Poissons Ratio (y) = 0.78543 0.41870
# Poissons Ratio (z) = 0.07898 0.07899
#
# Static dielectric constant tensor:
#      x y z
#    x 1.659650 0.000000 0.000000 
#    y 0.000000 1.659650 0.000000 
#    z 0.000000 0.000000 1.824900 
# 
# From -- ./inp_files/1725.got.cif
#   From: 2010.05.17/outbox.cif.g08.bks.cpg/sg117_1_cif.got.tgz:1725.got - 2010.05.20 11:15:09.
