data_PCOD9558230
_publ_section_title
;
Structure prediction by ZEFSAII (Michael W. Deem and Ramdas Pophale) SiO2 
 PCOD9558230
Probable space group: P -4 B 2
;
_chemical_formula_sum "Si O2"
_cell_formula_units_Z 40
_cell_length_a 17.776631
_cell_length_b 17.776631
_cell_length_c 5.426860
_cell_angle_alpha 90.000000
_cell_angle_beta 90.000000
_cell_angle_gamma 90.000000
_cell_volume 1714.934484
_symmetry_space_group_name_H-M "P -4 B 2"
_symmetry_group_IT_number 117
_symmetry_cell_setting 'tetragonal'
loop_
_space_group_symop_operation_xyz
x,y,z
y,-x,-z
-x,-y,z
-y,x,-z
1/2+y,1/2+x,-z
1/2-y,1/2-x,-z
1/2-x,1/2+y,z
1/2+x,1/2-y,z
loop_
_atom_site_type_symbol
_atom_site_label
_atom_site_fract_x
_atom_site_fract_y
_atom_site_fract_z
Si Si1 0.313496 0.119270 0.747263
Si Si2 0.119643 0.836525 0.991804
Si Si3 0.751009 0.648271 0.642560
Si Si4 0.200800 0.966932 0.238174
Si Si5 0.539851 0.147327 0.088494
O O1 0.339785 0.160216 0.500000
O O2 0.349470 0.036081 0.755922
O O3 0.342556 0.157444 0.000000
O O4 0.223848 0.109837 0.788734
O O5 0.197121 0.821708 0.852468
O O6 0.052495 0.825681 0.796624
O O7 0.136874 0.919320 0.093697
O O8 0.779980 0.720021 0.500000
O O9 0.711625 0.581026 0.487772
O O10 0.824785 0.610186 0.752599
O O11 0.284394 0.967079 0.112051
O O12 0.565675 0.065675 0.000000
#
# Coordination Sequence:
#
# PCOD9558230 Si02
#       5
#     8   8   8   8   8
#     4  11  28  45  71 108 150 193 241 307 373 437
#     4  10  26  43  67 102 145 187 248 307 369 443
#     4  11  23  40  73 102 138 193 247 299 365 443
#     4  10  23  44  66 100 139 189 240 305 368 438
#     4  10  22  44  67  99 141 190 242 296 358 449
#
# _framework density 23.324506
#
# number of rings (size 3 to 8) (size 9 to 14) (size 15 to 20)
#    0.000    1.600    2.000    0.000   11.200    4.000 
#    0.000    1.000    0.000    0.000    0.000    0.000 
#    0.000    0.000    0.000    0.000    0.000    0.000 
#
# Total GULP energy -223497.688512 kJ/mol
# GULP energy per Si atom -5587.442213 kJ/mol
# Density = 2.327142 g / cm^3
# Si number density = 23.324506 Si / 1000 Ang^3
#
#
#
# Elastic Constant Matrix: (Units=GPa)
#
#
# Indices 1 2 3 4 5 6 
#
# 1 57.9742 66.3850 21.6195 0.0000 0.0000 0.0000
# 2 66.3850 57.9702 21.6175 0.0000 0.0000 0.0000
# 3 21.6195 21.6175 78.9515 0.0000 0.0000 0.0000
# 4 0.0000 0.0000 0.0000 21.6676 0.0000 0.0000
# 5 0.0000 0.0000 0.0000 0.0000 21.6694 0.0000
# 6 0.0000 0.0000 0.0000 0.0000 0.0000 27.6190
#
#
#
# Elastic Compliance Matrix: (Units=1/GPa)
#
#
# Indices 1 2 3 4 5 6 
#
# 1 -0.054988 0.063877 -0.002433 0.000000 0.000000 0.000000
# 2 0.063877 -0.054991 -0.002435 0.000000 0.000000 0.000000
# 3 -0.002433 -0.002435 0.013999 0.000000 0.000000 0.000000
# 4 0.000000 0.000000 0.000000 0.046152 0.000000 0.000000
# 5 0.000000 0.000000 0.000000 0.000000 0.046148 0.000000
# 6 0.000000 0.000000 0.000000 0.000000 0.000000 0.036207
#
#
# Mechanical properties :
#
#
# Convention : Reuss Voigt Hill
#
# Bulk Modulus (GPa) = 45.37332 46.01555 45.69444
# Shear Modulus (GPa) = -63.98232 19.87614 -22.05309
#
# Velocity S-wave (km/s) = -5.24318 2.92234 -3.07822
# Velocity P-wave (km/s) = 4.14237 5.58194 2.64563
#
# Compressibility (1/GPa) = 0.02203938
#
# Stress axis : x y z
#
# Youngs Moduli (GPa) = -18.18581 -18.18480 71.43510
#
# Poissons Ratio (x) = 1.16159 0.17377
# Poissons Ratio (y) = 1.16165 0.17392
# Poissons Ratio (z) = -0.04424 -0.04427
#
# Static dielectric constant tensor:
#      x y z
#    x 1.882900 0.000000 0.000000 
#    y 0.000000 1.882900 0.000000 
#    z 0.000000 0.000000 1.975750 
# 
# From -- ./inp_files/565.got.cif
#   From: 2010.05.17/outbox.cif.g08.bks.cpg/sg117_1_cif.got.tgz:565.got - 2010.05.20 11:15:09.
