data_PCOD9558303
_publ_section_title
;
Structure prediction by ZEFSAII (Michael W. Deem and Ramdas Pophale) SiO2 
 PCOD9558303
Probable space group: P -4 B 2
;
_chemical_formula_sum "Si O2"
_cell_formula_units_Z 38
_cell_length_a 16.166316
_cell_length_b 16.166316
_cell_length_c 5.899577
_cell_angle_alpha 90.000000
_cell_angle_beta 90.000000
_cell_angle_gamma 90.000000
_cell_volume 1541.853110
_symmetry_space_group_name_H-M "P -4 B 2"
_symmetry_group_IT_number 117
_symmetry_cell_setting 'tetragonal'
loop_
_space_group_symop_operation_xyz
x,y,z
y,-x,-z
-x,-y,z
-y,x,-z
1/2+y,1/2+x,-z
1/2-y,1/2-x,-z
1/2-x,1/2+y,z
1/2+x,1/2-y,z
loop_
_atom_site_type_symbol
_atom_site_label
_atom_site_fract_x
_atom_site_fract_y
_atom_site_fract_z
Si Si1 0.152847 0.347154 0.000000
Si Si2 0.030962 0.643277 0.156923
Si Si3 0.891005 0.051350 0.930738
Si Si4 0.712986 0.618411 0.308352
Si Si5 0.500000 0.000000 0.500000
Si Si6 0.798952 0.948508 0.560009
O O1 0.204815 0.331204 0.232021
O O2 0.054608 0.333356 0.035612
O O3 0.070558 0.720449 0.281607
O O4 0.001650 0.579163 0.344486
O O5 0.095499 0.595499 0.000000
O O6 0.831599 0.113086 0.060000
O O7 0.860964 0.000179 0.718752
O O8 0.907570 0.978653 0.115946
O O9 0.642867 0.659911 0.474217
O O10 0.730109 0.523409 0.391577
#
# Coordination Sequence:
#
# PCOD9558303 Si02
#       6
#     4   8   8   8   2   8
#     4  12  23  48  68 100 146 189 242 306 370 436
#     4  12  25  44  70 100 139 190 248 292 362 449
#     4   9  18  36  63  92 130 179 230 291 362 435
#     4  11  24  42  69 104 145 187 241 305 374 448
#     4  12  22  44  72  98 124 192 238 300 346 436
#     4  11  24  42  69 104 142 186 241 305 369 449
#
# _framework density 24.645669999999999
#
# number of rings (size 3 to 8) (size 9 to 14) (size 15 to 20)
#    0.000    1.053    4.211    2.526    1.474    2.105 
#    0.000    2.105    0.000    0.000    0.000    0.000 
#    0.000    0.000    0.000    0.000    0.000    0.000 
#
# Total GULP energy -211982.403243 kJ/mol
# GULP energy per Si atom -5578.484296 kJ/mol
# Density = 2.458958 g / cm^3
# Si number density = 24.645670 Si / 1000 Ang^3
#
#
#
# Elastic Constant Matrix: (Units=GPa)
#
#
# Indices 1 2 3 4 5 6 
#
# 1 -259.5226 408.7520 28.7661 0.0000 0.0000 0.0000
# 2 408.7520 -259.5272 28.7583 0.0000 0.0000 0.0000
# 3 28.7661 28.7583 64.8814 0.0000 0.0000 0.0000
# 4 0.0000 0.0000 0.0000 -46.5542 0.0000 0.0000
# 5 0.0000 0.0000 0.0000 0.0000 -46.5560 0.0000
# 6 0.0000 0.0000 0.0000 0.0000 0.0000 22.0257
#
#
#
# Elastic Compliance Matrix: (Units=1/GPa)
#
#
# Indices 1 2 3 4 5 6 
#
# 1 0.003293 0.004789 -0.003583 0.000000 0.000000 0.000000
# 2 0.004789 0.003293 -0.003583 0.000000 0.000000 0.000000
# 3 -0.003583 -0.003583 0.018589 0.000000 0.000000 0.000000
# 4 0.000000 0.000000 0.000000 -0.021480 0.000000 0.000000
# 5 0.000000 0.000000 0.000000 0.000000 -0.021480 0.000000
# 6 0.000000 0.000000 0.000000 0.000000 0.000000 0.045402
#
#
# Mechanical properties :
#
#
# Convention : Reuss Voigt Hill
#
# Bulk Modulus (GPa) = 48.96597 53.15382 51.05989
# Shear Modulus (GPa) = 127.62414 -75.57988 26.02213
#
# Velocity S-wave (km/s) = 7.20389 -5.54375 3.25291
# Velocity P-wave (km/s) = 9.43959 4.40040 5.90518
#
# Compressibility (1/GPa) = 0.02042235
#
# Stress axis : x y z
#
# Youngs Moduli (GPa) = 303.67694 303.67432 53.79405
#
# Poissons Ratio (x) = -1.45441 0.19274
# Poissons Ratio (y) = -1.45442 0.19275
# Poissons Ratio (z) = 1.08803 1.08808
#
# Static dielectric constant tensor:
#      x y z
#    x 2.094690 0.000000 0.000000 
#    y 0.000000 2.094680 0.000000 
#    z 0.000000 0.000000 6.104970 
# 
# From -- ./inp_files/592.got.cif
#   From: 2010.05.17/outbox.cif.g08.bks.cpg/sg117_1_cif.got.tgz:592.got - 2010.05.20 11:15:09.
