data_PCOD9558242
_publ_section_title
;
Structure prediction by ZEFSAII (Michael W. Deem and Ramdas Pophale) SiO2 
 PCOD9558242
Probable space group: P -4 B 2
;
_chemical_formula_sum "Si O2"
_cell_formula_units_Z 32
_cell_length_a 11.390328
_cell_length_b 11.390328
_cell_length_c 11.320960
_cell_angle_alpha 90.000000
_cell_angle_beta 90.000000
_cell_angle_gamma 90.000000
_cell_volume 1468.776504
_symmetry_space_group_name_H-M "P -4 B 2"
_symmetry_group_IT_number 117
_symmetry_cell_setting 'tetragonal'
loop_
_space_group_symop_operation_xyz
x,y,z
y,-x,-z
-x,-y,z
-y,x,-z
1/2+y,1/2+x,-z
1/2-y,1/2-x,-z
1/2-x,1/2+y,z
1/2+x,1/2-y,z
loop_
_atom_site_type_symbol
_atom_site_label
_atom_site_fract_x
_atom_site_fract_y
_atom_site_fract_z
Si Si1 0.483089 0.129771 0.655751
Si Si2 0.881799 0.238075 0.234476
Si Si3 0.144344 0.946758 0.434566
Si Si4 0.367708 0.834560 0.136046
O O1 0.345959 0.147328 0.678111
O O2 0.545565 0.218069 0.568133
O O3 0.550998 0.139011 0.780746
O O4 0.500000 0.000000 0.617747
O O5 0.891526 0.122110 0.316535
O O6 0.761185 0.226328 0.157508
O O7 0.009137 0.267353 0.172875
O O8 0.893124 0.917401 0.450411
O O9 0.371183 0.871183 0.000000
#
# Coordination Sequence:
#
# PCOD9558242 Si02
#       4
#     8   8   8   8
#     4   9  21  44  67  97 135 179 242 292 338 432
#     4  10  23  43  68 100 145 179 248 293 347 441
#     4  10  23  42  66  96 135 186 224 292 361 411
#     4  10  23  41  71 106 139 192 231 301 366 426
#
# _framework density 21.786842
#
# number of rings (size 3 to 8) (size 9 to 14) (size 15 to 20)
#    0.000    2.250    0.000    0.000   10.500    4.500 
#    9.000    3.750    0.000    0.000    0.000    0.000 
#    0.000    0.000    0.000    0.000    0.000    0.000 
#
# Total GULP energy -178186.158378 kJ/mol
# GULP energy per Si atom -5568.317449 kJ/mol
# Density = 2.173725 g / cm^3
# Si number density = 21.786842 Si / 1000 Ang^3
#
#
#
# Elastic Constant Matrix: (Units=GPa)
#
#
# Indices 1 2 3 4 5 6 
#
# 1 112.6890 80.1704 65.2096 0.0000 0.0000 0.0000
# 2 80.1704 112.6890 65.2096 0.0000 0.0000 0.0000
# 3 65.2096 65.2096 89.6997 0.0000 0.0000 0.0000
# 4 0.0000 0.0000 0.0000 -18.1278 0.0000 0.0000
# 5 0.0000 0.0000 0.0000 0.0000 -18.1278 0.0000
# 6 0.0000 0.0000 0.0000 0.0000 0.0000 29.4837
#
#
#
# Elastic Compliance Matrix: (Units=1/GPa)
#
#
# Indices 1 2 3 4 5 6 
#
# 1 0.020475 -0.010276 -0.007415 0.000000 0.000000 0.000000
# 2 -0.010276 0.020475 -0.007415 0.000000 0.000000 0.000000
# 3 -0.007415 -0.007415 0.021929 0.000000 0.000000 0.000000
# 4 0.000000 0.000000 0.000000 -0.055164 0.000000 0.000000
# 5 0.000000 0.000000 0.000000 0.000000 -0.055164 0.000000
# 6 0.000000 0.000000 0.000000 0.000000 0.000000 0.033917
#
#
# Mechanical properties :
#
#
# Convention : Reuss Voigt Hill
#
# Bulk Modulus (GPa) = 78.93387 81.80630 80.37009
# Shear Modulus (GPa) = 122.24194 5.61148 63.92671
#
# Velocity S-wave (km/s) = 7.49866 1.60662 5.42269
# Velocity P-wave (km/s) = 10.54903 6.40872 8.72793
#
# Compressibility (1/GPa) = 0.01266883
#
# Stress axis : x y z
#
# Youngs Moduli (GPa) = 48.83913 48.83913 45.60234
#
# Poissons Ratio (x) = 0.50188 0.33812
# Poissons Ratio (y) = 0.50188 0.33812
# Poissons Ratio (z) = 0.36212 0.36212
#
# Static dielectric constant tensor:
#      x y z
#    x 1.909220 0.000000 0.000000 
#    y 0.000000 1.909220 0.000000 
#    z 0.000000 0.000000 1.790360 
# 
# From -- ./inp_files/2397.got.cif
#   From: 2010.05.17/outbox.cif.g08.bks.cpg/sg117_2_cif.got.tgz:2397.got - 2010.05.20 11:15:09.
