data_PCOD9558648
_publ_section_title
;
Structure prediction by ZEFSAII (Michael W. Deem and Ramdas Pophale) SiO2 
 PCOD9558648
Probable space group: P -4 N 2
;
_chemical_formula_sum "Si O2"
_cell_formula_units_Z 24
_cell_length_a 10.393003
_cell_length_b 10.393003
_cell_length_c 9.652025
_cell_angle_alpha 90.000000
_cell_angle_beta 90.000000
_cell_angle_gamma 90.000000
_cell_volume 1042.558764
_symmetry_space_group_name_H-M "P -4 N 2"
_symmetry_group_IT_number 118
_symmetry_cell_setting 'tetragonal'
loop_
_space_group_symop_operation_xyz
x,y,z
y,-x,-z
-x,-y,z
-y,x,-z
1/2+y,1/2+x,1/2-z
1/2-y,1/2-x,1/2-z
1/2-x,1/2+y,1/2+z
1/2+x,1/2-y,1/2+z
loop_
_atom_site_type_symbol
_atom_site_label
_atom_site_fract_x
_atom_site_fract_y
_atom_site_fract_z
Si Si1 0.200791 0.299210 0.250000
Si Si2 0.003884 0.770055 0.684369
Si Si3 0.931380 0.794373 0.989794
Si Si4 0.000000 0.500000 0.750000
Si Si5 0.500000 0.500000 0.000000
O O1 0.349519 0.317292 0.205636
O O2 0.114361 0.302756 0.110539
O O3 0.745391 0.569537 0.670032
O O4 0.015349 0.621489 0.645990
O O5 0.945496 0.881759 0.590905
O O6 0.077991 0.842126 0.008862
#
# Coordination Sequence:
#
# PCOD9558648 Si02
#       5
#     4   8   8   2   2
#     4   9  18  35  62  93 125 172 220 283 360 407
#     4  10  22  38  62  96 132 177 229 289 345 428
#     4   9  17  34  61  93 127 170 223 285 342 419
#     4  10  24  44  60  90 142 180 208 296 376 396
#     4  12  24  40  70 104 128 184 256 282 344 440
#
# _framework density 23.020285000000001
#
# number of rings (size 3 to 8) (size 9 to 14) (size 15 to 20)
#    0.000    2.333    0.000    4.000    4.667    0.000 
#    0.000    0.000    0.000    1.000    0.000    0.000 
#    0.000    0.000    0.000    0.000    0.000    0.000 
#
# Total GULP energy -133664.716535 kJ/mol
# GULP energy per Si atom -5569.363189 kJ/mol
# Density = 2.296789 g / cm^3
# Si number density = 23.020285 Si / 1000 Ang^3
#
#
#
# Elastic Constant Matrix: (Units=GPa)
#
#
# Indices 1 2 3 4 5 6 
#
# 1 59.3762 5.5028 40.8997 0.0000 0.0000 0.0000
# 2 5.5028 59.3755 40.9004 0.0000 0.0000 0.0000
# 3 40.8997 40.9004 143.6268 0.0000 0.0000 0.0000
# 4 0.0000 0.0000 0.0000 39.6831 0.0000 0.0000
# 5 0.0000 0.0000 0.0000 0.0000 39.6829 0.0000
# 6 0.0000 0.0000 0.0000 0.0000 0.0000 24.4960
#
#
#
# Elastic Compliance Matrix: (Units=1/GPa)
#
#
# Indices 1 2 3 4 5 6 
#
# 1 0.021304 0.002743 -0.006848 0.000000 0.000000 0.000000
# 2 0.002743 0.021305 -0.006848 0.000000 0.000000 0.000000
# 3 -0.006848 -0.006848 0.010863 0.000000 0.000000 0.000000
# 4 0.000000 0.000000 0.000000 0.025200 0.000000 0.000000
# 5 0.000000 0.000000 0.000000 0.000000 0.025200 0.000000
# 6 0.000000 0.000000 0.000000 0.000000 0.000000 0.040823
#
#
# Mechanical properties :
#
#
# Convention : Reuss Voigt Hill
#
# Bulk Modulus (GPa) = 31.67994 48.55380 40.11687
# Shear Modulus (GPa) = 28.22905 32.44412 30.33659
#
# Velocity S-wave (km/s) = 3.50561 3.75823 3.63412
# Velocity P-wave (km/s) = 5.49339 6.32218 5.92230
#
# Compressibility (1/GPa) = 0.03156572
#
# Stress axis : x y z
#
# Youngs Moduli (GPa) = 46.93850 46.93745 92.05935
#
# Poissons Ratio (x) = -0.12873 0.63040
# Poissons Ratio (y) = -0.12873 0.63042
# Poissons Ratio (z) = 0.32142 0.32143
#
# Static dielectric constant tensor:
#      x y z
#    x 2.064990 0.000000 0.000000 
#    y 0.000000 2.064990 0.000000 
#    z 0.000000 0.000000 1.981380 
# 
# From -- ./inp_files/3783.got.cif
#   From: 2010.05.17/outbox.cif.g08.bks.cpg/sg118_2_cif.got.tgz:3783.got - 2010.05.20 11:17:24.
