data_PCOD9558760
_publ_section_title
;
Structure prediction by ZEFSAII (Michael W. Deem and Ramdas Pophale) SiO2 
 PCOD9558760
Probable space group: P -4 N 2
;
_chemical_formula_sum "Si O2"
_cell_formula_units_Z 40
_cell_length_a 13.418293
_cell_length_b 13.418293
_cell_length_c 10.415446
_cell_angle_alpha 90.000000
_cell_angle_beta 90.000000
_cell_angle_gamma 90.000000
_cell_volume 1875.307167
_symmetry_space_group_name_H-M "P -4 N 2"
_symmetry_group_IT_number 118
_symmetry_cell_setting 'tetragonal'
loop_
_space_group_symop_operation_xyz
x,y,z
y,-x,-z
-x,-y,z
-y,x,-z
1/2+y,1/2+x,1/2-z
1/2-y,1/2-x,1/2-z
1/2-x,1/2+y,1/2+z
1/2+x,1/2-y,1/2+z
loop_
_atom_site_type_symbol
_atom_site_label
_atom_site_fract_x
_atom_site_fract_y
_atom_site_fract_z
Si Si1 0.333207 0.477135 0.991128
Si Si2 0.694214 0.038834 0.744083
Si Si3 0.380161 0.479552 0.712052
Si Si4 0.837400 0.237347 0.139392
Si Si5 0.282048 0.678512 0.639467
O O1 0.312957 0.467806 0.840434
O O2 0.391324 0.582981 0.992679
O O3 0.250329 0.470482 0.103957
O O4 0.583976 0.083976 0.750000
O O5 0.755450 0.122436 0.822884
O O6 0.703000 0.935062 0.816986
O O7 0.500000 0.500000 0.738229
O O8 0.371469 0.376828 0.638346
O O9 0.327162 0.568457 0.638412
O O10 0.757816 0.257816 0.250000
O O11 0.797799 0.262758 0.999092
O O12 0.202107 0.702107 0.750000
#
# Coordination Sequence:
#
# PCOD9558760 Si02
#       5
#     8   8   8   8   8
#     4  11  17  35  64 101 126 165 212 272 332 387
#     4  11  24  40  66  95 136 178 217 272 336 397
#     4  12  22  40  72 102 133 171 221 283 336 387
#     4  12  27  43  67 100 132 176 227 272 330 400
#     4  11  25  43  66  99 140 170 212 281 341 388
#
# _framework density 21.329837999999999
#
# number of rings (size 3 to 8) (size 9 to 14) (size 15 to 20)
#    0.000    0.600    8.000    1.200    8.400    0.400 
#    0.000    0.000    0.000    0.600    0.000    0.000 
#    0.000    0.000    0.000    0.000    0.000    0.000 
#
# Total GULP energy -223296.000530 kJ/mol
# GULP energy per Si atom -5582.400013 kJ/mol
# Density = 2.128129 g / cm^3
# Si number density = 21.329838 Si / 1000 Ang^3
#
#
#
# Elastic Constant Matrix: (Units=GPa)
#
#
# Indices 1 2 3 4 5 6 
#
# 1 63.6155 42.1884 29.4273 0.0000 0.0000 0.0000
# 2 42.1884 63.6155 29.4273 0.0000 0.0000 0.0000
# 3 29.4273 29.4273 187.1677 0.0000 0.0000 0.0000
# 4 0.0000 0.0000 0.0000 4.4965 0.0000 0.0000
# 5 0.0000 0.0000 0.0000 0.0000 4.4965 0.0000
# 6 0.0000 0.0000 0.0000 0.0000 0.0000 32.1974
#
#
#
# Elastic Compliance Matrix: (Units=1/GPa)
#
#
# Indices 1 2 3 4 5 6 
#
# 1 0.028514 -0.018156 -0.001628 0.000000 0.000000 0.000000
# 2 -0.018156 0.028514 -0.001628 0.000000 0.000000 0.000000
# 3 -0.001628 -0.001628 0.005855 0.000000 0.000000 0.000000
# 4 0.000000 0.000000 0.000000 0.222395 0.000000 0.000000
# 5 0.000000 0.000000 0.000000 0.000000 0.222395 0.000000
# 6 0.000000 0.000000 0.000000 0.000000 0.000000 0.031058
#
#
# Mechanical properties :
#
#
# Convention : Reuss Voigt Hill
#
# Bulk Modulus (GPa) = 49.86104 57.38719 53.62411
# Shear Modulus (GPa) = 8.49992 22.46180 15.48086
#
# Velocity S-wave (km/s) = 1.99841 3.24862 2.69696
# Velocity P-wave (km/s) = 5.36207 6.40582 5.90704
#
# Compressibility (1/GPa) = 0.02005574
#
# Stress axis : x y z
#
# Youngs Moduli (GPa) = 35.07110 35.07110 170.79838
#
# Poissons Ratio (x) = 0.63676 0.27813
# Poissons Ratio (y) = 0.63676 0.27813
# Poissons Ratio (z) = 0.05711 0.05711
#
# Static dielectric constant tensor:
#      x y z
#    x 1.822410 0.000000 0.000000 
#    y 0.000000 1.822410 0.000000 
#    z 0.000000 0.000000 1.875900 
# 
# From -- ./inp_files/1908.got.cif
#   From: 2010.05.17/outbox.cif.g08.bks.cpg/sg118_1_cif.got.tgz:1908.got - 2010.05.20 11:17:24.
