data_PCOD9558424
_publ_section_title
;
Structure prediction by ZEFSAII (Michael W. Deem and Ramdas Pophale) SiO2 
 PCOD9558424
Probable space group: P -4 N 2
;
_chemical_formula_sum "Si O2"
_cell_formula_units_Z 48
_cell_length_a 13.730312
_cell_length_b 13.730312
_cell_length_c 16.682874
_cell_angle_alpha 90.000000
_cell_angle_beta 90.000000
_cell_angle_gamma 90.000000
_cell_volume 3145.079891
_symmetry_space_group_name_H-M "P -4 N 2"
_symmetry_group_IT_number 118
_symmetry_cell_setting 'tetragonal'
loop_
_space_group_symop_operation_xyz
x,y,z
y,-x,-z
-x,-y,z
-y,x,-z
1/2+y,1/2+x,1/2-z
1/2-y,1/2-x,1/2-z
1/2-x,1/2+y,1/2+z
1/2+x,1/2-y,1/2+z
loop_
_atom_site_type_symbol
_atom_site_label
_atom_site_fract_x
_atom_site_fract_y
_atom_site_fract_z
Si Si1 0.382016 0.391035 0.747871
Si Si2 0.114284 0.305682 0.332006
Si Si3 0.614284 0.805682 0.832006
Si Si4 0.706771 0.616779 0.420572
Si Si5 0.383221 0.293229 0.579428
Si Si6 0.117984 0.108965 0.247871
O O1 0.354802 0.304883 0.808861
O O2 0.355341 0.356868 0.658106
O O3 0.346572 0.500000 0.765486
O O4 0.500000 0.392918 0.749241
O O5 0.133919 0.366082 0.250000
O O6 0.184290 0.349041 0.399187
O O7 0.145199 0.195117 0.308860
O O8 0.000000 0.308092 0.351096
O O9 0.633919 0.866082 0.750000
O O10 0.684290 0.849041 0.899187
O O11 0.665263 0.665262 0.500000
O O12 0.703338 0.500000 0.427863
O O13 0.643132 0.644659 0.341895
#
# Coordination Sequence:
#
# PCOD9558424 Si02
#       6
#     8   8   8   8   8   8
#     4   8  14  26  45  66  86 110 140 176 218 261
#     4   9  17  29  46  67  89 115 149 186 224 267
#     4   9  17  29  46  67  89 115 149 186 224 267
#     4  10  19  29  43  65  91 116 145 182 226 273
#     4  10  19  29  43  65  91 116 145 182 226 273
#     4   8  14  26  45  66  86 110 140 176 218 261
#
# _framework density 15.261933000000001
#
# number of rings (size 3 to 8) (size 9 to 14) (size 15 to 20)
#    0.000    3.000    0.000    4.000    0.000    4.000 
#    0.000    1.667    0.000    0.000    0.000    0.000 
#    0.000   32.667    0.000    0.000    0.000    0.000 
#
# Total GULP energy -267240.251693 kJ/mol
# GULP energy per Si atom -5567.505244 kJ/mol
# Density = 1.522720 g / cm^3
# Si number density = 15.261933 Si / 1000 Ang^3
#
#
#
# Elastic Constant Matrix: (Units=GPa)
#
#
# Indices 1 2 3 4 5 6 
#
# 1 90.0130 29.6732 35.0644 0.0000 0.0000 0.0000
# 2 29.6732 90.0114 35.0650 0.0000 0.0000 0.0000
# 3 35.0644 35.0650 57.2485 0.0000 0.0000 0.0000
# 4 0.0000 0.0000 0.0000 13.0039 0.0000 0.0000
# 5 0.0000 0.0000 0.0000 0.0000 13.0044 0.0000
# 6 0.0000 0.0000 0.0000 0.0000 0.0000 18.3564
#
#
#
# Elastic Compliance Matrix: (Units=1/GPa)
#
#
# Indices 1 2 3 4 5 6 
#
# 1 0.014803 -0.001770 -0.007982 0.000000 0.000000 0.000000
# 2 -0.001770 0.014803 -0.007983 0.000000 0.000000 0.000000
# 3 -0.007982 -0.007983 0.027246 0.000000 0.000000 0.000000
# 4 0.000000 0.000000 0.000000 0.076900 0.000000 0.000000
# 5 0.000000 0.000000 0.000000 0.000000 0.076897 0.000000
# 6 0.000000 0.000000 0.000000 0.000000 0.000000 0.054477
#
#
# Mechanical properties :
#
#
# Convention : Reuss Voigt Hill
#
# Bulk Modulus (GPa) = 46.76933 48.54201 47.65567
# Shear Modulus (GPa) = 16.24839 18.03764 17.14301
#
# Velocity S-wave (km/s) = 3.26641 3.44156 3.35513
# Velocity P-wave (km/s) = 6.70350 6.90416 6.80457
#
# Compressibility (1/GPa) = 0.02138153
#
# Stress axis : x y z
#
# Youngs Moduli (GPa) = 67.55612 67.55370 36.70245
#
# Poissons Ratio (x) = 0.11959 0.29296
# Poissons Ratio (y) = 0.11959 0.29298
# Poissons Ratio (z) = 0.53924 0.53926
#
# Static dielectric constant tensor:
#      x y z
#    x 1.521920 0.000000 0.000000 
#    y 0.000000 1.521920 0.000000 
#    z 0.000000 0.000000 1.487640 
# 
# From -- ./inp_files/4192.got.cif
#   From: 2010.05.17/outbox.cif.g08.bks.cpg/sg118_3_cif.got.tgz:4192.got - 2010.05.20 11:17:24.
