data_PCOD9558176
_publ_section_title
;
Structure prediction by ZEFSAII (Michael W. Deem and Ramdas Pophale) SiO2 
 PCOD9558176
Probable space group: P -4 B 2
;
_chemical_formula_sum "Si O2"
_cell_formula_units_Z 58
_cell_length_a 16.799106
_cell_length_b 16.799106
_cell_length_c 10.177700
_cell_angle_alpha 90.000000
_cell_angle_beta 90.000000
_cell_angle_gamma 90.000000
_cell_volume 2872.248334
_symmetry_space_group_name_H-M "P -4 B 2"
_symmetry_group_IT_number 117
_symmetry_cell_setting 'tetragonal'
loop_
_space_group_symop_operation_xyz
x,y,z
y,-x,-z
-x,-y,z
-y,x,-z
1/2+y,1/2+x,-z
1/2-y,1/2-x,-z
1/2-x,1/2+y,z
1/2+x,1/2-y,z
loop_
_atom_site_type_symbol
_atom_site_label
_atom_site_fract_x
_atom_site_fract_y
_atom_site_fract_z
Si Si1 0.704793 0.809549 0.652740
Si Si2 0.500000 0.000000 0.000000
Si Si3 0.765543 0.934087 0.190556
Si Si4 0.464737 0.668257 0.587029
Si Si5 0.809981 0.656063 0.360919
Si Si6 0.334922 0.551115 0.676487
Si Si7 0.454029 0.380980 0.027965
Si Si8 0.354250 0.930275 0.118038
O O1 0.680001 0.820000 0.500000
O O2 0.631466 0.795681 0.752126
O O3 0.756783 0.727750 0.659111
O O4 0.764545 0.882724 0.680721
O O5 0.423657 0.993572 0.091286
O O6 0.818217 0.959781 0.317643
O O7 0.722315 0.013843 0.134658
O O8 0.820557 0.908356 0.068662
O O9 0.401769 0.734685 0.629621
O O10 0.417527 0.588178 0.619999
O O11 0.486018 0.682631 0.435027
O O12 0.850812 0.649189 0.500000
O O13 0.863769 0.623007 0.246103
O O14 0.348513 0.527362 0.827089
O O15 0.404487 0.462560 0.040260
O O16 0.367274 0.867274 0.000000
#
# Coordination Sequence:
#
# PCOD9558176 Si02
#       8
#     8   2   8   8   8   8   8   8
#     4  10  21  39  65  95 127 159 213 272 313 376
#     4   8  20  44  62  80 120 164 202 256 318 370
#     4  11  22  43  66  91 131 165 208 276 314 374
#     4  10  22  39  64  93 125 165 212 256 311 379
#     4   9  20  39  61  93 122 159 209 262 312 368
#     4  11  23  40  64  94 125 173 212 254 327 381
#     4  11  26  41  59  93 136 169 212 263 314 386
#     4   9  21  41  65  86 125 165 205 262 321 378
#
# _framework density 20.193239999999999
#
# number of rings (size 3 to 8) (size 9 to 14) (size 15 to 20)
#    0.414    1.517    2.759    0.000    1.931    4.138 
#    2.483    0.345    0.000    0.000    0.000    0.000 
#    0.000    0.000    0.000    0.000    0.000    0.000 
#
# Total GULP energy -323087.463905 kJ/mol
# GULP energy per Si atom -5570.473516 kJ/mol
# Density = 2.014728 g / cm^3
# Si number density = 20.193240 Si / 1000 Ang^3
#
#
#
# Elastic Constant Matrix: (Units=GPa)
#
#
# Indices 1 2 3 4 5 6 
#
# 1 44.7985 6.0843 22.4933 0.0000 0.0000 0.0000
# 2 6.0843 44.7982 22.4931 0.0000 0.0000 0.0000
# 3 22.4933 22.4931 128.5110 0.0000 0.0000 0.0000
# 4 0.0000 0.0000 0.0000 35.8808 0.0000 0.0000
# 5 0.0000 0.0000 0.0000 0.0000 35.8812 0.0000
# 6 0.0000 0.0000 0.0000 0.0000 0.0000 12.2615
#
#
#
# Elastic Compliance Matrix: (Units=1/GPa)
#
#
# Indices 1 2 3 4 5 6 
#
# 1 0.024541 -0.001290 -0.004070 0.000000 0.000000 0.000000
# 2 -0.001290 0.024541 -0.004070 0.000000 0.000000 0.000000
# 3 -0.004070 -0.004070 0.009206 0.000000 0.000000 0.000000
# 4 0.000000 0.000000 0.000000 0.027870 0.000000 0.000000
# 5 0.000000 0.000000 0.000000 0.000000 0.027870 0.000000
# 6 0.000000 0.000000 0.000000 0.000000 0.000000 0.081556
#
#
# Mechanical properties :
#
#
# Convention : Reuss Voigt Hill
#
# Bulk Modulus (GPa) = 25.36156 35.58323 30.47240
# Shear Modulus (GPa) = 21.96984 27.94048 24.95516
#
# Velocity S-wave (km/s) = 3.30203 3.72379 3.51923
# Velocity P-wave (km/s) = 5.20813 6.01235 5.62463
#
# Compressibility (1/GPa) = 0.03942975
#
# Stress axis : x y z
#
# Youngs Moduli (GPa) = 40.74867 40.74837 108.62425
#
# Poissons Ratio (x) = 0.05255 0.44206
# Poissons Ratio (y) = 0.05255 0.44206
# Poissons Ratio (z) = 0.16583 0.16583
#
# Static dielectric constant tensor:
#      x y z
#    x 1.745820 0.000000 0.000000 
#    y 0.000000 1.745820 0.000000 
#    z 0.000000 0.000000 1.721360 
# 
# From -- ./inp_files/2083.got.cif
#   From: 2010.05.17/outbox.cif.g08.bks.cpg/sg117_2_cif.got.tgz:2083.got - 2010.05.20 11:15:09.
