data_PCOD9558495
_publ_section_title
;
Structure prediction by ZEFSAII (Michael W. Deem and Ramdas Pophale) SiO2 
 PCOD9558495
Probable space group: P -4 N 2
;
_chemical_formula_sum "Si O2"
_cell_formula_units_Z 30
_cell_length_a 10.297132
_cell_length_b 10.297132
_cell_length_c 11.287129
_cell_angle_alpha 90.000000
_cell_angle_beta 90.000000
_cell_angle_gamma 90.000000
_cell_volume 1196.784756
_symmetry_space_group_name_H-M "P -4 N 2"
_symmetry_group_IT_number 118
_symmetry_cell_setting 'tetragonal'
loop_
_space_group_symop_operation_xyz
x,y,z
y,-x,-z
-x,-y,z
-y,x,-z
1/2+y,1/2+x,1/2-z
1/2-y,1/2-x,1/2-z
1/2-x,1/2+y,1/2+z
1/2+x,1/2-y,1/2+z
loop_
_atom_site_type_symbol
_atom_site_label
_atom_site_fract_x
_atom_site_fract_y
_atom_site_fract_z
Si Si1 0.805780 0.062687 0.036334
Si Si2 0.564791 0.753194 0.080247
Si Si3 0.500000 0.500000 0.000000
Si Si4 0.100939 0.334758 0.379917
Si Si5 0.636023 0.136023 0.250000
O O1 0.759424 0.125873 0.159915
O O2 0.675024 0.063849 0.962088
O O3 0.916654 0.140373 0.963923
O O4 0.476122 0.622828 0.081720
O O5 0.704481 0.693588 0.113057
O O6 0.494124 0.848457 0.170865
O O7 0.533597 0.801494 0.946325
O O8 0.108228 0.391773 0.250000
#
# Coordination Sequence:
#
# PCOD9558495 Si02
#       5
#     8   8   2   8   4
#     4  10  22  38  58  84 114 153 198 241 291 350
#     4   9  19  34  55  85 113 147 193 236 288 349
#     4   8  16  32  56  80 106 140 184 232 272 326
#     4  10  20  36  58  83 114 152 192 241 294 348
#     4  10  20  36  57  86 119 148 190 244 290 350
#
# _framework density 25.067163999999998
#
# number of rings (size 3 to 8) (size 9 to 14) (size 15 to 20)
#    0.000    2.400    0.000    1.600    0.000   10.667 
#    0.000   12.667    0.000    1.600    0.000    3.733 
#    0.000    0.000    0.000    0.000    0.000    0.000 
#
# Total GULP energy -167230.510632 kJ/mol
# GULP energy per Si atom -5574.350354 kJ/mol
# Density = 2.501011 g / cm^3
# Si number density = 25.067164 Si / 1000 Ang^3
#
#
#
# Elastic Constant Matrix: (Units=GPa)
#
#
# Indices 1 2 3 4 5 6 
#
# 1 80.4612 67.9492 35.7333 0.0000 0.0000 0.0000
# 2 67.9492 80.4602 35.7329 0.0000 0.0000 0.0000
# 3 35.7333 35.7329 148.4701 0.0000 0.0000 0.0000
# 4 0.0000 0.0000 0.0000 -11.2022 0.0000 0.0000
# 5 0.0000 0.0000 0.0000 0.0000 -11.2009 0.0000
# 6 0.0000 0.0000 0.0000 0.0000 0.0000 59.8753
#
#
#
# Elastic Compliance Matrix: (Units=1/GPa)
#
#
# Indices 1 2 3 4 5 6 
#
# 1 0.043774 -0.036152 -0.001834 0.000000 0.000000 0.000000
# 2 -0.036152 0.043774 -0.001834 0.000000 0.000000 0.000000
# 3 -0.001834 -0.001834 0.007618 0.000000 0.000000 0.000000
# 4 0.000000 0.000000 0.000000 -0.089268 0.000000 0.000000
# 5 0.000000 0.000000 0.000000 0.000000 -0.089279 0.000000
# 6 0.000000 0.000000 0.000000 0.000000 0.000000 0.016701
#
#
# Mechanical properties :
#
#
# Convention : Reuss Voigt Hill
#
# Bulk Modulus (GPa) = 64.41661 65.35803 64.88732
# Shear Modulus (GPa) = 275.68106 18.82619 147.25362
#
# Velocity S-wave (km/s) = 10.49837 2.74347 7.67275
# Velocity P-wave (km/s) = 13.14183 6.01375 10.21942
#
# Compressibility (1/GPa) = 0.01552395
#
# Stress axis : x y z
#
# Youngs Moduli (GPa) = 22.84483 22.84458 131.26297
#
# Poissons Ratio (x) = 0.82589 0.24078
# Poissons Ratio (y) = 0.82590 0.24077
# Poissons Ratio (z) = 0.04191 0.04190
#
# Static dielectric constant tensor:
#      x y z
#    x 2.035500 0.000000 0.000000 
#    y 0.000000 2.035500 0.000000 
#    z 0.000000 0.000000 2.021860 
# 
# From -- ./inp_files/2784.got.cif
#   From: 2010.05.17/outbox.cif.g08.bks.cpg/sg118_2_cif.got.tgz:2784.got - 2010.05.20 11:17:24.
