data_PCOD9558575
_publ_section_title
;
Structure prediction by ZEFSAII (Michael W. Deem and Ramdas Pophale) SiO2 
 PCOD9558575
Probable space group: P -4 N 2
;
_chemical_formula_sum "Si O2"
_cell_formula_units_Z 32
_cell_length_a 12.914381
_cell_length_b 12.914381
_cell_length_c 7.369860
_cell_angle_alpha 90.000000
_cell_angle_beta 90.000000
_cell_angle_gamma 90.000000
_cell_volume 1229.154364
_symmetry_space_group_name_H-M "P -4 N 2"
_symmetry_group_IT_number 118
_symmetry_cell_setting 'tetragonal'
loop_
_space_group_symop_operation_xyz
x,y,z
y,-x,-z
-x,-y,z
-y,x,-z
1/2+y,1/2+x,1/2-z
1/2-y,1/2-x,1/2-z
1/2-x,1/2+y,1/2+z
1/2+x,1/2-y,1/2+z
loop_
_atom_site_type_symbol
_atom_site_label
_atom_site_fract_x
_atom_site_fract_y
_atom_site_fract_z
Si Si1 0.939388 0.400031 0.532929
Si Si2 0.042595 0.111009 0.731573
Si Si3 0.719066 0.141800 0.449895
Si Si4 0.630979 0.706799 0.456053
O O1 0.918341 0.418341 0.750000
O O2 0.822530 0.384993 0.465578
O O3 0.000000 0.500000 0.465533
O O4 0.028828 0.317967 0.490664
O O5 0.119575 0.160878 0.585588
O O6 0.946582 0.185882 0.789015
O O7 0.117260 0.101052 0.905138
O O8 0.000000 0.000000 0.688449
O O9 0.667457 0.167457 0.250000
O O10 0.696833 0.244614 0.564355
#
# Coordination Sequence:
#
# PCOD9558575 Si02
#       4
#     8   8   8   8
#     4  11  19  35  61  87 117 158 205 253 312 380
#     4  11  20  36  62  85 115 160 205 252 312 379
#     4  10  21  37  58  85 118 154 201 257 303 375
#     4  11  20  36  61  92 115 155 215 255 311 384
#
# _framework density 26.034158000000001
#
# number of rings (size 3 to 8) (size 9 to 14) (size 15 to 20)
#    0.000    1.250    7.500    1.500    0.000    0.000 
#    4.500    0.000    0.000    6.750    0.000    0.000 
#    0.000    0.000    0.000    0.000    0.000    0.000 
#
# Total GULP energy -178896.840172 kJ/mol
# GULP energy per Si atom -5590.526255 kJ/mol
# Density = 2.597490 g / cm^3
# Si number density = 26.034158 Si / 1000 Ang^3
#
#
#
# Elastic Constant Matrix: (Units=GPa)
#
#
# Indices 1 2 3 4 5 6 
#
# 1 192.5222 49.7446 25.8171 0.0000 0.0000 0.0000
# 2 49.7446 192.5222 25.8171 0.0000 0.0000 0.0000
# 3 25.8171 25.8171 70.8538 0.0000 0.0000 0.0000
# 4 0.0000 0.0000 0.0000 -3.0516 0.0000 0.0000
# 5 0.0000 0.0000 0.0000 0.0000 -3.0516 0.0000
# 6 0.0000 0.0000 0.0000 0.0000 0.0000 54.9201
#
#
#
# Elastic Compliance Matrix: (Units=1/GPa)
#
#
# Indices 1 2 3 4 5 6 
#
# 1 0.005740 -0.001264 -0.001631 0.000000 0.000000 0.000000
# 2 -0.001264 0.005740 -0.001631 0.000000 0.000000 0.000000
# 3 -0.001631 -0.001631 0.015302 0.000000 0.000000 0.000000
# 4 0.000000 0.000000 0.000000 -0.327701 0.000000 0.000000
# 5 0.000000 0.000000 0.000000 0.000000 -0.327701 0.000000
# 6 0.000000 0.000000 0.000000 0.000000 0.000000 0.018208
#
#
# Mechanical properties :
#
#
# Convention : Reuss Voigt Hill
#
# Bulk Modulus (GPa) = 56.40234 73.18397 64.79315
# Shear Modulus (GPa) = -8.39700 33.39802 12.50051
#
# Velocity S-wave (km/s) = -1.79788 3.58558 2.19363
# Velocity P-wave (km/s) = 4.17156 6.73154 5.59980
#
# Compressibility (1/GPa) = 0.01772976
#
# Stress axis : x y z
#
# Youngs Moduli (GPa) = 174.22938 174.22938 65.35141
#
# Poissons Ratio (x) = 0.22029 0.10656
# Poissons Ratio (y) = 0.22029 0.10656
# Poissons Ratio (z) = 0.28411 0.28411
#
# Static dielectric constant tensor:
#      x y z
#    x 2.128660 0.000000 0.000000 
#    y 0.000000 2.128660 0.000000 
#    z 0.000000 0.000000 2.077350 
# 
# From -- ./inp_files/2874.got.cif
#   From: 2010.05.17/outbox.cif.g08.bks.cpg/sg118_2_cif.got.tgz:2874.got - 2010.05.20 11:17:24.
