data_PCOD9558079
_publ_section_title
;
Structure prediction by ZEFSAII (Michael W. Deem and Ramdas Pophale) SiO2 
 PCOD9558079
Probable space group: P -4 B 2
;
_chemical_formula_sum "Si O2"
_cell_formula_units_Z 34
_cell_length_a 15.466437
_cell_length_b 15.466437
_cell_length_c 4.940329
_cell_angle_alpha 90.000000
_cell_angle_beta 90.000000
_cell_angle_gamma 90.000000
_cell_volume 1181.779427
_symmetry_space_group_name_H-M "P -4 B 2"
_symmetry_group_IT_number 117
_symmetry_cell_setting 'tetragonal'
loop_
_space_group_symop_operation_xyz
x,y,z
y,-x,-z
-x,-y,z
-y,x,-z
1/2+y,1/2+x,-z
1/2-y,1/2-x,-z
1/2-x,1/2+y,z
1/2+x,1/2-y,z
loop_
_atom_site_type_symbol
_atom_site_label
_atom_site_fract_x
_atom_site_fract_y
_atom_site_fract_z
Si Si1 0.500000 0.500000 0.500000
Si Si2 0.669398 0.293893 0.314424
Si Si3 0.706811 0.940760 0.261697
Si Si4 0.578650 0.352380 0.806170
Si Si5 0.359299 0.961836 0.778216
O O1 0.562026 0.446339 0.694987
O O2 0.760998 0.342041 0.271710
O O3 0.655006 0.309840 0.631603
O O4 0.624632 0.200118 0.256316
O O5 0.605483 0.347126 0.115143
O O6 0.793869 0.998191 0.283539
O O7 0.642583 0.990383 0.480655
O O8 0.680707 0.961804 0.956452
O O9 0.431223 0.931223 0.000000
#
# Coordination Sequence:
#
# PCOD9558079 Si02
#       5
#     2   8   8   8   8
#     4  12  20  26  40  62 100 130 168 198 252 278
#     4  10  20  33  44  67  90 127 168 211 245 294
#     4  10  19  32  48  66  93 128 173 209 249 299
#     4  10  21  26  41  62  95 126 163 202 242 282
#     4  10  21  35  50  69  98 134 169 211 262 310
#
# _framework density 28.770174000000001
#
# number of rings (size 3 to 8) (size 9 to 14) (size 15 to 20)
#    0.000    1.882    2.353    2.118    6.588    0.941 
#    0.000    0.000    0.000    0.000    0.000    0.000 
#    0.000    0.941    0.000    6.588    0.000    3.529 
#
# Total GULP energy -189583.561941 kJ/mol
# GULP energy per Si atom -5575.987116 kJ/mol
# Density = 2.870469 g / cm^3
# Si number density = 28.770174 Si / 1000 Ang^3
#
#
#
# Elastic Constant Matrix: (Units=GPa)
#
#
# Indices 1 2 3 4 5 6 
#
# 1 74.4122 71.8203 36.9046 0.0000 0.0000 0.0000
# 2 71.8203 74.4122 36.9046 0.0000 0.0000 0.0000
# 3 36.9046 36.9046 160.4878 0.0000 0.0000 0.0000
# 4 0.0000 0.0000 0.0000 16.6275 0.0000 0.0000
# 5 0.0000 0.0000 0.0000 0.0000 16.6275 0.0000
# 6 0.0000 0.0000 0.0000 0.0000 0.0000 43.7474
#
#
#
# Elastic Compliance Matrix: (Units=1/GPa)
#
#
# Indices 1 2 3 4 5 6 
#
# 1 0.196771 -0.189035 -0.001779 0.000000 0.000000 0.000000
# 2 -0.189035 0.196771 -0.001779 0.000000 0.000000 0.000000
# 3 -0.001779 -0.001779 0.007049 0.000000 0.000000 0.000000
# 4 0.000000 0.000000 0.000000 0.060141 0.000000 0.000000
# 5 0.000000 0.000000 0.000000 0.000000 0.060141 0.000000
# 6 0.000000 0.000000 0.000000 0.000000 0.000000 0.022859
#
#
# Mechanical properties :
#
#
# Convention : Reuss Voigt Hill
#
# Bulk Modulus (GPa) = 64.91021 66.73014 65.82017
# Shear Modulus (GPa) = 5.35302 26.31264 15.83283
#
# Velocity S-wave (km/s) = 1.36552 3.02748 2.34844
# Velocity P-wave (km/s) = 5.00967 5.95529 5.50283
#
# Compressibility (1/GPa) = 0.01540590
#
# Stress axis : x y z
#
# Youngs Moduli (GPa) = 5.08205 5.08205 141.86058
#
# Poissons Ratio (x) = 0.96068 0.25237
# Poissons Ratio (y) = 0.96068 0.25237
# Poissons Ratio (z) = 0.00904 0.00904
#
# Static dielectric constant tensor:
#      x y z
#    x 2.332920 0.000000 0.000000 
#    y 0.000000 2.332920 0.000000 
#    z 0.000000 0.000000 2.153880 
# 
# From -- ./inp_files/505.got.cif
#   From: 2010.05.17/outbox.cif.g08.bks.cpg/sg117_1_cif.got.tgz:505.got - 2010.05.20 11:15:09.
