data_PCOD9558878
_publ_section_title
;
Structure prediction by ZEFSAII (Michael W. Deem and Ramdas Pophale) SiO2 
 PCOD9558878
Probable space group: P -4 N 2
;
_chemical_formula_sum "Si O2"
_cell_formula_units_Z 34
_cell_length_a 11.850169
_cell_length_b 11.850169
_cell_length_c 10.327143
_cell_angle_alpha 90.000000
_cell_angle_beta 90.000000
_cell_angle_gamma 90.000000
_cell_volume 1450.204602
_symmetry_space_group_name_H-M "P -4 N 2"
_symmetry_group_IT_number 118
_symmetry_cell_setting 'tetragonal'
loop_
_space_group_symop_operation_xyz
x,y,z
y,-x,-z
-x,-y,z
-y,x,-z
1/2+y,1/2+x,1/2-z
1/2-y,1/2-x,1/2-z
1/2-x,1/2+y,1/2+z
1/2+x,1/2-y,1/2+z
loop_
_atom_site_type_symbol
_atom_site_label
_atom_site_fract_x
_atom_site_fract_y
_atom_site_fract_z
Si Si1 0.992028 0.875361 0.788059
Si Si2 0.000000 0.500000 0.750000
Si Si3 0.186670 0.163520 0.014312
Si Si4 0.707836 0.075898 0.431508
Si Si5 0.109332 0.582151 0.104397
O O1 0.910758 0.872626 0.913912
O O2 0.936855 0.802570 0.675682
O O3 0.115303 0.839161 0.842919
O O4 0.000000 0.000000 0.737777
O O5 0.023248 0.397522 0.650502
O O6 0.196692 0.297696 0.987101
O O7 0.304590 0.103118 0.978776
O O8 0.713166 0.991841 0.552803
O O9 0.123021 0.623021 0.250000
O O10 0.000000 0.500000 0.101954
#
# Coordination Sequence:
#
# PCOD9558878 Si02
#       5
#     8   2   8   8   8
#     4  12  24  44  79 113 156 208 264 322 412 490
#     4  12  20  40  82 108 142 204 262 310 388 476
#     4  12  23  49  77 110 159 212 260 336 407 493
#     4  12  25  46  77 114 157 205 264 331 402 486
#     4  11  25  46  75 113 153 202 271 330 395 481
#
# _framework density 23.444966000000001
#
# number of rings (size 3 to 8) (size 9 to 14) (size 15 to 20)
#    0.000    0.235    5.882    4.235    0.000    0.000 
#    8.471    2.353    0.000    0.000    0.000    0.000 
#    0.000    0.000    0.000    0.000    0.000    0.000 
#
# Total GULP energy -190050.284399 kJ/mol
# GULP energy per Si atom -5589.714247 kJ/mol
# Density = 2.339160 g / cm^3
# Si number density = 23.444966 Si / 1000 Ang^3
#
#
#
# Elastic Constant Matrix: (Units=GPa)
#
#
# Indices 1 2 3 4 5 6 
#
# 1 108.1810 45.2902 16.0487 0.0000 0.0000 0.0000
# 2 45.2902 108.1810 16.0487 0.0000 0.0000 0.0000
# 3 16.0487 16.0487 46.8959 0.0000 0.0000 0.0000
# 4 0.0000 0.0000 0.0000 4.9272 0.0000 0.0000
# 5 0.0000 0.0000 0.0000 0.0000 4.9272 0.0000
# 6 0.0000 0.0000 0.0000 0.0000 0.0000 21.7373
#
#
#
# Elastic Compliance Matrix: (Units=1/GPa)
#
#
# Indices 1 2 3 4 5 6 
#
# 1 0.011459 -0.004441 -0.002402 0.000000 0.000000 0.000000
# 2 -0.004441 0.011459 -0.002402 0.000000 0.000000 0.000000
# 3 -0.002402 -0.002402 0.022968 0.000000 0.000000 0.000000
# 4 0.000000 0.000000 0.000000 0.202956 0.000000 0.000000
# 5 0.000000 0.000000 0.000000 0.000000 0.202956 0.000000
# 6 0.000000 0.000000 0.000000 0.000000 0.000000 0.046004
#
#
# Mechanical properties :
#
#
# Convention : Reuss Voigt Hill
#
# Bulk Modulus (GPa) = 36.50032 46.44813 41.47422
# Shear Modulus (GPa) = 9.51613 18.70969 14.11291
#
# Velocity S-wave (km/s) = 2.01686 2.82800 2.45615
# Velocity P-wave (km/s) = 4.58541 5.52431 5.07661
#
# Compressibility (1/GPa) = 0.02739702
#
# Stress axis : x y z
#
# Youngs Moduli (GPa) = 87.26474 87.26474 43.53943
#
# Poissons Ratio (x) = 0.38756 0.10457
# Poissons Ratio (y) = 0.38756 0.10457
# Poissons Ratio (z) = 0.20959 0.20959
#
# Static dielectric constant tensor:
#      x y z
#    x 1.986250 0.000000 0.000000 
#    y 0.000000 1.986250 0.000000 
#    z 0.000000 0.000000 1.964890 
# 
# From -- ./inp_files/3062.got.cif
#   From: 2010.05.17/outbox.cif.g08.bks.cpg/sg118_2_cif.got.tgz:3062.got - 2010.05.20 11:17:24.
