data_PCOD9558233
_publ_section_title
;
Structure prediction by ZEFSAII (Michael W. Deem and Ramdas Pophale) SiO2 
 PCOD9558233
Probable space group: P -4 B 2
;
_chemical_formula_sum "Si O2"
_cell_formula_units_Z 36
_cell_length_a 9.582120
_cell_length_b 9.582120
_cell_length_c 18.317370
_cell_angle_alpha 90.000000
_cell_angle_beta 90.000000
_cell_angle_gamma 90.000000
_cell_volume 1681.846395
_symmetry_space_group_name_H-M "P -4 B 2"
_symmetry_group_IT_number 117
_symmetry_cell_setting 'tetragonal'
loop_
_space_group_symop_operation_xyz
x,y,z
y,-x,-z
-x,-y,z
-y,x,-z
1/2+y,1/2+x,-z
1/2-y,1/2-x,-z
1/2-x,1/2+y,z
1/2+x,1/2-y,z
loop_
_atom_site_type_symbol
_atom_site_label
_atom_site_fract_x
_atom_site_fract_y
_atom_site_fract_z
Si Si1 0.500000 0.500000 0.000000
Si Si2 0.649782 0.072883 0.684199
Si Si3 0.000000 0.000000 0.500000
Si Si4 0.610388 0.392401 0.637599
Si Si5 0.473993 0.163150 0.155364
Si Si6 0.328039 0.299542 0.927234
O O1 0.477673 0.365828 0.948360
O O2 0.637776 0.240058 0.671928
O O3 0.500000 0.000000 0.677920
O O4 0.753165 0.989017 0.631445
O O5 0.704262 0.029151 0.764886
O O6 0.046322 0.120466 0.556212
O O7 0.500000 0.500000 0.676392
O O8 0.566260 0.240580 0.095844
O O9 0.311410 0.181415 0.137871
O O10 0.500000 0.000000 0.147798
O O11 0.273458 0.226543 0.000000
#
# Coordination Sequence:
#
# PCOD9558233 Si02
#       6
#     2   8   2   8   8   8
#     4  12  24  40  66  96 128 180 232 302 376 416
#     4  11  23  44  70 102 141 193 238 294 360 430
#     4   8  24  44  70 108 148 176 226 280 360 412
#     4  10  22  45  70 103 148 181 236 294 351 434
#     4  11  26  42  65  96 136 180 238 290 362 422
#     4  12  24  43  65  96 134 179 237 300 361 430
#
# _framework density 21.405047
#
# number of rings (size 3 to 8) (size 9 to 14) (size 15 to 20)
#    0.667    0.444    2.222    4.000    0.000    2.667 
#    2.000    1.111    0.000    0.000    0.000    0.000 
#    0.000    0.000    0.000    0.000    0.000    0.000 
#
# Total GULP energy -200682.231347 kJ/mol
# GULP energy per Si atom -5574.506426 kJ/mol
# Density = 2.135633 g / cm^3
# Si number density = 21.405047 Si / 1000 Ang^3
#
#
#
# Elastic Constant Matrix: (Units=GPa)
#
#
# Indices 1 2 3 4 5 6 
#
# 1 120.1586 26.0555 26.6774 0.0000 0.0000 0.0000
# 2 26.0555 120.1589 26.6770 0.0000 0.0000 0.0000
# 3 26.6774 26.6770 75.6424 0.0000 0.0000 0.0000
# 4 0.0000 0.0000 0.0000 25.5604 0.0000 0.0000
# 5 0.0000 0.0000 0.0000 0.0000 25.5603 0.0000
# 6 0.0000 0.0000 0.0000 0.0000 0.0000 38.0137
#
#
#
# Elastic Compliance Matrix: (Units=1/GPa)
#
#
# Indices 1 2 3 4 5 6 
#
# 1 0.009238 -0.001389 -0.002768 0.000000 0.000000 0.000000
# 2 -0.001389 0.009238 -0.002768 0.000000 0.000000 0.000000
# 3 -0.002768 -0.002768 0.015173 0.000000 0.000000 0.000000
# 4 0.000000 0.000000 0.000000 0.039123 0.000000 0.000000
# 5 0.000000 0.000000 0.000000 0.000000 0.039123 0.000000
# 6 0.000000 0.000000 0.000000 0.000000 0.000000 0.026306
#
#
# Mechanical properties :
#
#
# Convention : Reuss Voigt Hill
#
# Bulk Modulus (GPa) = 50.50913 52.75330 51.63122
# Shear Modulus (GPa) = 31.51568 33.59687 32.55628
#
# Velocity S-wave (km/s) = 3.84128 3.96609 3.90418
# Velocity P-wave (km/s) = 6.58194 6.75810 6.67060
#
# Compressibility (1/GPa) = 0.01979840
#
# Stress axis : x y z
#
# Youngs Moduli (GPa) = 108.24788 108.24833 65.90779
#
# Poissons Ratio (x) = 0.15031 0.18245
# Poissons Ratio (y) = 0.15031 0.18245
# Poissons Ratio (z) = 0.29967 0.29966
#
# Static dielectric constant tensor:
#      x y z
#    x 1.825820 0.000000 0.000000 
#    y 0.000000 1.825830 0.000000 
#    z 0.000000 0.000000 1.876170 
# 
# From -- ./inp_files/3449.got.cif
#   From: 2010.05.17/outbox.cif.g08.bks.cpg/sg117_2_cif.got.tgz:3449.got - 2010.05.20 11:15:09.
