data_PCOD9558891
_publ_section_title
;
Structure prediction by ZEFSAII (Michael W. Deem and Ramdas Pophale) SiO2 
 PCOD9558891
Probable space group: P -4 N 2
;
_chemical_formula_sum "Si O2"
_cell_formula_units_Z 40
_cell_length_a 8.896924
_cell_length_b 8.896924
_cell_length_c 21.688736
_cell_angle_alpha 90.000000
_cell_angle_beta 90.000000
_cell_angle_gamma 90.000000
_cell_volume 1716.777465
_symmetry_space_group_name_H-M "P -4 N 2"
_symmetry_group_IT_number 118
_symmetry_cell_setting 'tetragonal'
loop_
_space_group_symop_operation_xyz
x,y,z
y,-x,-z
-x,-y,z
-y,x,-z
1/2+y,1/2+x,1/2-z
1/2-y,1/2-x,1/2-z
1/2-x,1/2+y,1/2+z
1/2+x,1/2-y,1/2+z
loop_
_atom_site_type_symbol
_atom_site_label
_atom_site_fract_x
_atom_site_fract_y
_atom_site_fract_z
Si Si1 0.754741 0.992791 0.253627
Si Si2 0.489542 0.647185 0.853625
Si Si3 0.515331 0.174511 0.444326
Si Si4 0.171022 0.785480 0.153239
Si Si5 0.624186 0.222374 0.582279
O O1 0.619740 0.119740 0.250000
O O2 0.842983 0.070796 0.197782
O O3 0.657059 0.842942 0.250000
O O4 0.872576 0.930850 0.305110
O O5 0.500000 0.500000 0.897216
O O6 0.639354 0.729554 0.825861
O O7 0.412091 0.774417 0.893746
O O8 0.654505 0.240778 0.406491
O O9 0.547548 0.190607 0.516619
O O10 0.369651 0.271694 0.425806
O O11 0.500000 0.000000 0.427129
O O12 0.005791 0.741315 0.132560
#
# Coordination Sequence:
#
# PCOD9558891 Si02
#       5
#     8   8   8   8   8
#     4  11  26  50  77 111 153 214 271 331 410 492
#     4  12  26  50  76 118 160 210 276 341 419 494
#     4  12  26  48  78 118 158 213 265 335 422 505
#     4  12  26  50  80 113 163 208 273 347 409 504
#     4  12  27  51  81 120 162 210 279 341 426 510
#
# _framework density 23.299468999999998
#
# number of rings (size 3 to 8) (size 9 to 14) (size 15 to 20)
#    0.000    0.200    4.000    4.800    2.800    3.200 
#    0.000    0.000    0.000    0.000    0.000    0.000 
#    0.000    0.000    0.000    0.000    0.000    0.000 
#
# Total GULP energy -223061.885418 kJ/mol
# GULP energy per Si atom -5576.547135 kJ/mol
# Density = 2.324644 g / cm^3
# Si number density = 23.299469 Si / 1000 Ang^3
#
#
#
# Elastic Constant Matrix: (Units=GPa)
#
#
# Indices 1 2 3 4 5 6 
#
# 1 122.2555 44.3234 3.4005 0.0000 0.0000 0.0000
# 2 44.3234 122.2591 3.4015 0.0000 0.0000 0.0000
# 3 3.4005 3.4015 54.1904 0.0000 0.0000 0.0000
# 4 0.0000 0.0000 0.0000 34.6631 0.0000 0.0000
# 5 0.0000 0.0000 0.0000 0.0000 34.5500 0.0000
# 6 0.0000 0.0000 0.0000 0.0000 0.0000 56.9399
#
#
#
# Elastic Compliance Matrix: (Units=1/GPa)
#
#
# Indices 1 2 3 4 5 6 
#
# 1 0.009425 -0.003406 -0.000378 0.000000 0.000000 0.000000
# 2 -0.003406 0.009425 -0.000378 0.000000 0.000000 0.000000
# 3 -0.000378 -0.000378 0.018501 0.000000 0.000000 0.000000
# 4 0.000000 0.000000 0.000000 0.028849 0.000000 0.000000
# 5 0.000000 0.000000 0.000000 0.000000 0.028944 0.000000
# 6 0.000000 0.000000 0.000000 0.000000 0.000000 0.017562
#
#
# Mechanical properties :
#
#
# Convention : Reuss Voigt Hill
#
# Bulk Modulus (GPa) = 34.45065 44.55062 39.50063
# Shear Modulus (GPa) = 38.25399 41.73589 39.99494
#
# Velocity S-wave (km/s) = 4.05636 4.23694 4.14763
# Velocity P-wave (km/s) = 6.06274 6.56491 6.31881
#
# Compressibility (1/GPa) = 0.02902703
#
# Stress axis : x y z
#
# Youngs Moduli (GPa) = 106.09983 106.10286 54.05151
#
# Poissons Ratio (x) = 0.36143 0.02041
# Poissons Ratio (y) = 0.36142 0.02042
# Poissons Ratio (z) = 0.04006 0.04009
#
# Static dielectric constant tensor:
#      x y z
#    x -0.601360 0.000000 0.000000 
#    y 0.000000 -0.610680 0.000000 
#    z 0.000000 0.000000 1.942270 
# 
# From -- ./inp_files/6036.got.cif
#   From: 2010.05.17/outbox.cif.g08.bks.cpg/sg118_4_cif.got.tgz:6036.got - 2010.05.20 11:17:24.
