data_PCOD9558672
_publ_section_title
;
Structure prediction by ZEFSAII (Michael W. Deem and Ramdas Pophale) SiO2 
 PCOD9558672
Probable space group: P -4 N 2
;
_chemical_formula_sum "Si O2"
_cell_formula_units_Z 42
_cell_length_a 14.360103
_cell_length_b 14.360103
_cell_length_c 9.390361
_cell_angle_alpha 90.000000
_cell_angle_beta 90.000000
_cell_angle_gamma 90.000000
_cell_volume 1936.410364
_symmetry_space_group_name_H-M "P -4 N 2"
_symmetry_group_IT_number 118
_symmetry_cell_setting 'tetragonal'
loop_
_space_group_symop_operation_xyz
x,y,z
y,-x,-z
-x,-y,z
-y,x,-z
1/2+y,1/2+x,1/2-z
1/2-y,1/2-x,1/2-z
1/2-x,1/2+y,1/2+z
1/2+x,1/2-y,1/2+z
loop_
_atom_site_type_symbol
_atom_site_label
_atom_site_fract_x
_atom_site_fract_y
_atom_site_fract_z
Si Si1 0.294847 0.849313 0.387604
Si Si2 0.158625 0.016736 0.008162
Si Si3 0.407945 0.789685 0.663049
Si Si4 0.453232 0.200689 0.222907
Si Si5 0.000000 0.000000 0.500000
Si Si6 0.641227 0.639351 0.100456
O O1 0.285732 0.785732 0.250000
O O2 0.356818 0.805218 0.512006
O O3 0.196898 0.872725 0.455912
O O4 0.332745 0.947095 0.329694
O O5 0.223278 0.034530 0.148380
O O6 0.080522 0.097851 0.986276
O O7 0.236710 0.002776 0.883412
O O8 0.386500 0.886500 0.750000
O O9 0.363082 0.714101 0.770081
O O10 0.383952 0.116049 0.250000
O O11 0.407573 0.261886 0.099146
O O12 0.942686 0.932460 0.397120
#
# Coordination Sequence:
#
# PCOD9558672 Si02
#       6
#     8   8   8   8   2   8
#     4  11  23  44  68  98 136 195 235 282 354 438
#     4  11  24  40  68 106 140 179 238 291 355 421
#     4  10  22  42  67  97 142 185 220 291 354 414
#     4  12  25  43  70 102 137 192 241 294 363 435
#     4  12  24  40  72 118 140 176 240 318 368 420
#     4  11  24  43  70 104 148 179 234 297 371 418
#
# _framework density 21.689616999999998
#
# number of rings (size 3 to 8) (size 9 to 14) (size 15 to 20)
#    0.000    0.952    5.714    1.714    2.667    0.381 
#    0.000    0.000    0.000    3.429    0.000    0.000 
#    0.000    0.000    0.000    0.000    0.000    0.000 
#
# Total GULP energy -234068.998373 kJ/mol
# GULP energy per Si atom -5573.071390 kJ/mol
# Density = 2.164025 g / cm^3
# Si number density = 21.689617 Si / 1000 Ang^3
#
#
#
# Elastic Constant Matrix: (Units=GPa)
#
#
# Indices 1 2 3 4 5 6 
#
# 1 102.6091 65.4653 40.6554 0.0000 0.0000 0.0000
# 2 65.4653 102.6111 40.6563 0.0000 0.0000 0.0000
# 3 40.6554 40.6563 101.4396 0.0000 0.0000 0.0000
# 4 0.0000 0.0000 0.0000 4.7391 0.0000 0.0000
# 5 0.0000 0.0000 0.0000 0.0000 4.7324 0.0000
# 6 0.0000 0.0000 0.0000 0.0000 0.0000 49.3641
#
#
#
# Elastic Compliance Matrix: (Units=1/GPa)
#
#
# Indices 1 2 3 4 5 6 
#
# 1 0.017151 -0.009770 -0.002958 0.000000 0.000000 0.000000
# 2 -0.009770 0.017151 -0.002958 0.000000 0.000000 0.000000
# 3 -0.002958 -0.002958 0.012229 0.000000 0.000000 0.000000
# 4 0.000000 0.000000 0.000000 0.211010 0.000000 0.000000
# 5 0.000000 0.000000 0.000000 0.000000 0.211308 0.000000
# 6 0.000000 0.000000 0.000000 0.000000 0.000000 0.020258
#
#
# Mechanical properties :
#
#
# Convention : Reuss Voigt Hill
#
# Bulk Modulus (GPa) = 65.97048 66.69044 66.33046
# Shear Modulus (GPa) = 9.51413 22.42597 15.97005
#
# Velocity S-wave (km/s) = 2.09667 3.21900 2.71643
# Velocity P-wave (km/s) = 6.02852 6.68059 6.36292
#
# Compressibility (1/GPa) = 0.01515829
#
# Stress axis : x y z
#
# Youngs Moduli (GPa) = 58.30433 58.30525 81.77110
#
# Poissons Ratio (x) = 0.56967 0.24189
# Poissons Ratio (y) = 0.56966 0.24190
# Poissons Ratio (z) = 0.17247 0.17248
#
# Static dielectric constant tensor:
#      x y z
#    x 1.864600 0.000000 0.000000 
#    y 0.000000 1.864580 0.000000 
#    z 0.000000 0.000000 1.836840 
# 
# From -- ./inp_files/1943.got.cif
#   From: 2010.05.17/outbox.cif.g08.bks.cpg/sg118_1_cif.got.tgz:1943.got - 2010.05.20 11:17:24.
