data_PCOD9558512
_publ_section_title
;
Structure prediction by ZEFSAII (Michael W. Deem and Ramdas Pophale) SiO2 
 PCOD9558512
Probable space group: P -4 N 2
;
_chemical_formula_sum "Si O2"
_cell_formula_units_Z 56
_cell_length_a 11.587407
_cell_length_b 11.587407
_cell_length_c 21.991872
_cell_angle_alpha 90.000000
_cell_angle_beta 90.000000
_cell_angle_gamma 90.000000
_cell_volume 2952.804691
_symmetry_space_group_name_H-M "P -4 N 2"
_symmetry_group_IT_number 118
_symmetry_cell_setting 'tetragonal'
loop_
_space_group_symop_operation_xyz
x,y,z
y,-x,-z
-x,-y,z
-y,x,-z
1/2+y,1/2+x,1/2-z
1/2-y,1/2-x,1/2-z
1/2-x,1/2+y,1/2+z
1/2+x,1/2-y,1/2+z
loop_
_atom_site_type_symbol
_atom_site_label
_atom_site_fract_x
_atom_site_fract_y
_atom_site_fract_z
Si Si1 0.167254 0.183674 0.207244
Si Si2 0.785528 0.701962 0.083592
Si Si3 0.119311 0.541585 0.083497
Si Si4 0.290169 0.078850 0.803339
Si Si5 0.079620 0.826805 0.506069
Si Si6 0.541129 0.368777 0.349827
Si Si7 0.568555 0.326728 0.483829
O O1 0.263979 0.236022 0.250000
O O2 0.189040 0.209880 0.136452
O O3 0.047684 0.250892 0.219745
O O4 0.162087 0.045803 0.204871
O O5 0.821420 0.575980 0.106957
O O6 0.652082 0.702604 0.065688
O O7 0.861371 0.735654 0.024391
O O8 0.081762 0.625798 0.137921
O O9 0.217757 0.590966 0.038994
O O10 0.000000 0.500000 0.052245
O O11 0.352720 0.147281 0.750000
O O12 0.170228 0.132669 0.825317
O O13 0.945658 0.859106 0.516599
O O14 0.500000 0.500000 0.366445
O O15 0.542925 0.299569 0.413480
O O16 0.445376 0.356751 0.514286
#
# Coordination Sequence:
#
# PCOD9558512 Si02
#       7
#     8   8   8   8   8   8   8
#     4  11  22  38  59  88 124 155 201 253 303 371
#     4  11  21  34  59  91 118 161 194 243 308 359
#     4  11  22  35  58  90 119 150 192 249 303 365
#     4  11  23  39  59  84 119 154 199 253 306 358
#     4   9  21  41  57  79 120 159 196 239 291 365
#     4  10  20  37  58  90 118 160 206 248 308 376
#     4  11  18  31  58  90 129 156 191 253 319 368
#
# _framework density 18.965019999999999
#
# number of rings (size 3 to 8) (size 9 to 14) (size 15 to 20)
#    0.000    1.429    4.286    2.571    2.000    0.000 
#    2.571    0.000    0.000    0.429    0.000    0.000 
#    0.000    0.000    0.000    0.000    0.000    0.000 
#
# Total GULP energy -312318.577190 kJ/mol
# GULP energy per Si atom -5577.117450 kJ/mol
# Density = 1.892186 g / cm^3
# Si number density = 18.965020 Si / 1000 Ang^3
#
#
#
# Elastic Constant Matrix: (Units=GPa)
#
#
# Indices 1 2 3 4 5 6 
#
# 1 75.9803 35.7194 35.5346 0.0000 0.0000 0.0000
# 2 35.7194 75.9814 35.5374 0.0000 0.0000 0.0000
# 3 35.5346 35.5374 66.0158 0.0000 0.0000 0.0000
# 4 0.0000 0.0000 0.0000 26.8825 0.0000 0.0000
# 5 0.0000 0.0000 0.0000 0.0000 26.8826 0.0000
# 6 0.0000 0.0000 0.0000 0.0000 0.0000 17.6395
#
#
#
# Elastic Compliance Matrix: (Units=1/GPa)
#
#
# Indices 1 2 3 4 5 6 
#
# 1 0.019227 -0.005611 -0.007329 0.000000 0.000000 0.000000
# 2 -0.005611 0.019227 -0.007330 0.000000 0.000000 0.000000
# 3 -0.007329 -0.007330 0.023039 0.000000 0.000000 0.000000
# 4 0.000000 0.000000 0.000000 0.037199 0.000000 0.000000
# 5 0.000000 0.000000 0.000000 0.000000 0.037199 0.000000
# 6 0.000000 0.000000 0.000000 0.000000 0.000000 0.056691
#
#
# Mechanical properties :
#
#
# Convention : Reuss Voigt Hill
#
# Bulk Modulus (GPa) = 47.72586 47.95116 47.83851
# Shear Modulus (GPa) = 20.82423 21.69332 21.25878
#
# Velocity S-wave (km/s) = 3.31725 3.38577 3.35169
# Velocity P-wave (km/s) = 6.31602 6.37365 6.34490
#
# Compressibility (1/GPa) = 0.02095300
#
# Stress axis : x y z
#
# Youngs Moduli (GPa) = 52.01140 52.00969 43.40514
#
# Poissons Ratio (x) = 0.29182 0.31811
# Poissons Ratio (y) = 0.29182 0.31817
# Poissons Ratio (z) = 0.38118 0.38124
#
# Static dielectric constant tensor:
#      x y z
#    x 1.694980 0.000000 0.000000 
#    y 0.000000 1.694980 0.000000 
#    z 0.000000 0.000000 1.655820 
# 
# From -- ./inp_files/5685.got.cif
#   From: 2010.05.17/outbox.cif.g08.bks.cpg/sg118_3_cif.got.tgz:5685.got - 2010.05.20 11:17:24.
