data_PCOD9558599
_publ_section_title
;
Structure prediction by ZEFSAII (Michael W. Deem and Ramdas Pophale) SiO2 
 PCOD9558599
Probable space group: P -4 N 2
;
_chemical_formula_sum "Si O2"
_cell_formula_units_Z 48
_cell_length_a 14.702326
_cell_length_b 14.702326
_cell_length_c 10.894814
_cell_angle_alpha 90.000000
_cell_angle_beta 90.000000
_cell_angle_gamma 90.000000
_cell_volume 2355.005452
_symmetry_space_group_name_H-M "P -4 N 2"
_symmetry_group_IT_number 118
_symmetry_cell_setting 'tetragonal'
loop_
_space_group_symop_operation_xyz
x,y,z
y,-x,-z
-x,-y,z
-y,x,-z
1/2+y,1/2+x,1/2-z
1/2-y,1/2-x,1/2-z
1/2-x,1/2+y,1/2+z
1/2+x,1/2-y,1/2+z
loop_
_atom_site_type_symbol
_atom_site_label
_atom_site_fract_x
_atom_site_fract_y
_atom_site_fract_z
Si Si1 0.493930 0.368438 0.934781
Si Si2 0.500000 0.500000 0.290321
Si Si3 0.464139 0.684364 0.418616
Si Si4 0.923274 0.314747 0.379810
Si Si5 0.500000 0.000000 0.550285
Si Si6 0.871410 0.502848 0.679584
Si Si7 0.735284 0.388528 0.392215
O O1 0.496360 0.412323 0.798926
O O2 0.481587 0.261860 0.947020
O O3 0.407836 0.418017 0.997467
O O4 0.503209 0.589119 0.372197
O O5 0.494935 0.764151 0.327035
O O6 0.355081 0.671782 0.413525
O O7 0.515084 0.712105 0.544017
O O8 0.979151 0.408603 0.375045
O O9 0.826203 0.338308 0.442483
O O10 0.904179 0.267448 0.248072
O O11 0.490229 0.915235 0.456245
O O12 0.917896 0.417896 0.750000
O O13 0.909616 0.590385 0.750000
#
# Coordination Sequence:
#
# PCOD9558599 Si02
#       7
#     8   4   8   8   4   8   8
#     4   9  21  40  66 100 131 179 228 280 350 407
#     4  10  21  39  68  92 130 180 214 296 336 410
#     4  12  22  44  65  95 135 171 234 288 341 406
#     4  11  23  45  63 102 133 184 225 283 351 419
#     4  10  21  45  68  86 144 174 220 278 340 408
#     4   9  22  40  67 103 125 179 225 277 343 402
#     4  11  26  38  67  95 132 181 231 277 352 411
#
# _framework density 20.382117000000001
#
# number of rings (size 3 to 8) (size 9 to 14) (size 15 to 20)
#    0.000    2.000    3.333    1.000    2.333    8.000 
#    0.000    0.000    0.000    0.000    0.000    0.000 
#    0.000    0.000    0.000    0.000    0.000    0.000 
#
# Total GULP energy -267721.267131 kJ/mol
# GULP energy per Si atom -5577.526399 kJ/mol
# Density = 2.033573 g / cm^3
# Si number density = 20.382117 Si / 1000 Ang^3
#
#
#
# Elastic Constant Matrix: (Units=GPa)
#
#
# Indices 1 2 3 4 5 6 
#
# 1 157.8068 58.9884 35.6281 0.0000 0.0000 0.0000
# 2 58.9884 157.8054 35.6281 0.0000 0.0000 0.0000
# 3 35.6281 35.6281 69.2717 0.0000 0.0000 0.0000
# 4 0.0000 0.0000 0.0000 19.4943 0.0000 0.0000
# 5 0.0000 0.0000 0.0000 0.0000 19.4939 0.0000
# 6 0.0000 0.0000 0.0000 0.0000 0.0000 22.2850
#
#
#
# Elastic Compliance Matrix: (Units=1/GPa)
#
#
# Indices 1 2 3 4 5 6 
#
# 1 0.007835 -0.002284 -0.002855 0.000000 0.000000 0.000000
# 2 -0.002284 0.007835 -0.002855 0.000000 0.000000 0.000000
# 3 -0.002855 -0.002855 0.017373 0.000000 0.000000 0.000000
# 4 0.000000 0.000000 0.000000 0.051297 0.000000 0.000000
# 5 0.000000 0.000000 0.000000 0.000000 0.051298 0.000000
# 6 0.000000 0.000000 0.000000 0.000000 0.000000 0.044873
#
#
# Mechanical properties :
#
#
# Convention : Reuss Voigt Hill
#
# Bulk Modulus (GPa) = 58.63488 71.70813 65.17150
# Shear Modulus (GPa) = 24.72976 29.23058 26.98017
#
# Velocity S-wave (km/s) = 3.48703 3.79110 3.64224
# Velocity P-wave (km/s) = 6.71139 7.37709 7.05210
#
# Compressibility (1/GPa) = 0.01705470
#
# Stress axis : x y z
#
# Youngs Moduli (GPa) = 127.62725 127.62598 57.56138
#
# Poissons Ratio (x) = 0.29154 0.16434
# Poissons Ratio (y) = 0.29154 0.16434
# Poissons Ratio (z) = 0.36438 0.36438
#
# Static dielectric constant tensor:
#      x y z
#    x 1.746690 0.000000 0.000000 
#    y 0.000000 1.746690 0.000000 
#    z 0.000000 0.000000 1.821300 
# 
# From -- ./inp_files/3361.got.cif
#   From: 2010.05.17/outbox.cif.g08.bks.cpg/sg118_2_cif.got.tgz:3361.got - 2010.05.20 11:17:24.
