data_PCOD9558546
_publ_section_title
;
Structure prediction by ZEFSAII (Michael W. Deem and Ramdas Pophale) SiO2 
 PCOD9558546
Probable space group: P -4 N 2
;
_chemical_formula_sum "Si O2"
_cell_formula_units_Z 50
_cell_length_a 15.711577
_cell_length_b 15.711577
_cell_length_c 11.069999
_cell_angle_alpha 90.000000
_cell_angle_beta 90.000000
_cell_angle_gamma 90.000000
_cell_volume 2732.669679
_symmetry_space_group_name_H-M "P -4 N 2"
_symmetry_group_IT_number 118
_symmetry_cell_setting 'tetragonal'
loop_
_space_group_symop_operation_xyz
x,y,z
y,-x,-z
-x,-y,z
-y,x,-z
1/2+y,1/2+x,1/2-z
1/2-y,1/2-x,1/2-z
1/2-x,1/2+y,1/2+z
1/2+x,1/2-y,1/2+z
loop_
_atom_site_type_symbol
_atom_site_label
_atom_site_fract_x
_atom_site_fract_y
_atom_site_fract_z
Si Si1 0.569678 0.203087 0.796448
Si Si2 0.201790 0.596359 0.063210
Si Si3 0.839175 0.214033 0.680935
Si Si4 0.686611 0.678310 0.738195
Si Si5 0.500000 0.500000 0.500000
Si Si6 0.505127 0.672184 0.346566
Si Si7 0.767875 0.441610 0.421559
O O1 0.621009 0.121009 0.750000
O O2 0.501357 0.188465 0.901803
O O3 0.638924 0.271359 0.841764
O O4 0.514200 0.234112 0.680830
O O5 0.270001 0.634729 0.159466
O O6 0.111310 0.644306 0.077034
O O7 0.243251 0.618134 0.935337
O O8 0.787193 0.287193 0.750000
O O9 0.911305 0.175276 0.765744
O O10 0.779340 0.720661 0.750000
O O11 0.687774 0.577314 0.736398
O O12 0.634763 0.703099 0.616003
O O13 0.497250 0.582764 0.415552
O O14 0.517500 0.742330 0.451685
#
# Coordination Sequence:
#
# PCOD9558546 Si02
#       7
#     8   8   8   8   2   8   8
#     4  10  23  40  66  94 118 163 222 257 308 381
#     4  10  22  42  61  90 130 165 201 264 323 374
#     4  11  24  41  62  90 126 171 207 255 325 390
#     4   9  21  37  62  87 118 162 204 250 312 372
#     4  12  24  36  64  98 124 156 216 280 302 368
#     4  12  22  38  62  91 125 159 212 258 314 370
#     4  10  20  40  64  88 122 160 206 258 312 367
#
# _framework density 18.297125000000001
#
# number of rings (size 3 to 8) (size 9 to 14) (size 15 to 20)
#    0.000    1.600    3.200    2.400    4.480    2.560 
#    0.000    0.000    0.000    0.480    0.000    0.000 
#    0.000    0.000    0.000    0.000    0.000    0.000 
#
# Total GULP energy -278914.872632 kJ/mol
# GULP energy per Si atom -5578.297453 kJ/mol
# Density = 1.825548 g / cm^3
# Si number density = 18.297125 Si / 1000 Ang^3
#
#
#
# Elastic Constant Matrix: (Units=GPa)
#
#
# Indices 1 2 3 4 5 6 
#
# 1 97.7489 60.3350 21.1902 0.0000 0.0000 0.0000
# 2 60.3350 97.7511 21.1922 0.0000 0.0000 0.0000
# 3 21.1902 21.1922 47.9583 0.0000 0.0000 0.0000
# 4 0.0000 0.0000 0.0000 21.9400 0.0000 0.0000
# 5 0.0000 0.0000 0.0000 0.0000 21.9398 0.0000
# 6 0.0000 0.0000 0.0000 0.0000 0.0000 15.4364
#
#
#
# Elastic Compliance Matrix: (Units=1/GPa)
#
#
# Indices 1 2 3 4 5 6 
#
# 1 0.016952 -0.009776 -0.003170 0.000000 0.000000 0.000000
# 2 -0.009776 0.016951 -0.003171 0.000000 0.000000 0.000000
# 3 -0.003170 -0.003171 0.023654 0.000000 0.000000 0.000000
# 4 0.000000 0.000000 0.000000 0.045579 0.000000 0.000000
# 5 0.000000 0.000000 0.000000 0.000000 0.045579 0.000000
# 6 0.000000 0.000000 0.000000 0.000000 0.000000 0.064782
#
#
# Mechanical properties :
#
#
# Convention : Reuss Voigt Hill
#
# Bulk Modulus (GPa) = 39.49116 49.87702 44.68409
# Shear Modulus (GPa) = 19.67173 21.24597 20.45885
#
# Velocity S-wave (km/s) = 3.28247 3.41128 3.34750
# Velocity P-wave (km/s) = 5.99969 6.54480 6.27817
#
# Compressibility (1/GPa) = 0.02532212
#
# Stress axis : x y z
#
# Youngs Moduli (GPa) = 58.99150 58.99184 42.27701
#
# Poissons Ratio (x) = 0.57669 0.13403
# Poissons Ratio (y) = 0.57669 0.13407
# Poissons Ratio (z) = 0.18702 0.18708
#
# Static dielectric constant tensor:
#      x y z
#    x 1.628260 0.000000 0.000000 
#    y 0.000000 1.628260 0.000000 
#    z 0.000000 0.000000 1.648180 
# 
# From -- ./inp_files/3355.got.cif
#   From: 2010.05.17/outbox.cif.g08.bks.cpg/sg118_2_cif.got.tgz:3355.got - 2010.05.20 11:17:24.
