data_PCOD9558704
_publ_section_title
;
Structure prediction by ZEFSAII (Michael W. Deem and Ramdas Pophale) SiO2 
 PCOD9558704
Probable space group: P -4 N 2
;
_chemical_formula_sum "Si O2"
_cell_formula_units_Z 18
_cell_length_a 11.780500
_cell_length_b 11.780500
_cell_length_c 5.057530
_cell_angle_alpha 90.000000
_cell_angle_beta 90.000000
_cell_angle_gamma 90.000000
_cell_volume 701.884925
_symmetry_space_group_name_H-M "P -4 N 2"
_symmetry_group_IT_number 118
_symmetry_cell_setting 'tetragonal'
loop_
_space_group_symop_operation_xyz
x,y,z
y,-x,-z
-x,-y,z
-y,x,-z
1/2+y,1/2+x,1/2-z
1/2-y,1/2-x,1/2-z
1/2-x,1/2+y,1/2+z
1/2+x,1/2-y,1/2+z
loop_
_atom_site_type_symbol
_atom_site_label
_atom_site_fract_x
_atom_site_fract_y
_atom_site_fract_z
Si Si1 0.220097 0.911170 0.790319
Si Si2 0.500000 0.500000 0.000000
Si Si3 0.507396 0.818494 0.200931
O O1 0.294807 0.794807 0.750000
O O2 0.094016 0.928687 0.669811
O O3 0.287396 0.998679 0.603960
O O4 0.229065 0.955219 0.089183
O O5 0.630787 0.869214 0.250000
O O6 0.419796 0.919796 0.250000
#
# Coordination Sequence:
#
# PCOD9558704 Si02
#       3
#     8   2   8
#     4  10  23  42  66 101 143 187 239 300 370 444
#     4  12  28  46  72 106 148 198 252 310 372 442
#     4   9  18  38  69 103 141 185 236 299 370 443
#
# _framework density 25.645229
#
# number of rings (size 3 to 8) (size 9 to 14) (size 15 to 20)
#    0.000    2.222    0.000    1.333    0.000   12.444 
#    0.000    8.889    0.000    0.000    0.000    3.111 
#    0.000    0.000    0.000    0.000    0.000    0.000 
#
# Total GULP energy -100343.945305 kJ/mol
# GULP energy per Si atom -5574.663628 kJ/mol
# Density = 2.558686 g / cm^3
# Si number density = 25.645229 Si / 1000 Ang^3
#
#
#
# Elastic Constant Matrix: (Units=GPa)
#
#
# Indices 1 2 3 4 5 6 
#
# 1 90.3328 114.6598 19.7968 0.0000 0.0000 0.0000
# 2 114.6598 90.3378 19.7994 0.0000 0.0000 0.0000
# 3 19.7968 19.7994 52.7904 0.0000 0.0000 0.0000
# 4 0.0000 0.0000 0.0000 84.2025 0.0000 0.0000
# 5 0.0000 0.0000 0.0000 0.0000 84.2027 0.0000
# 6 0.0000 0.0000 0.0000 0.0000 0.0000 71.8465
#
#
#
# Elastic Compliance Matrix: (Units=1/GPa)
#
#
# Indices 1 2 3 4 5 6 
#
# 1 -0.017926 0.023185 -0.001973 0.000000 0.000000 0.000000
# 2 0.023185 -0.017926 -0.001971 0.000000 0.000000 0.000000
# 3 -0.001973 -0.001971 0.020422 0.000000 0.000000 0.000000
# 4 0.000000 0.000000 0.000000 0.011876 0.000000 0.000000
# 5 0.000000 0.000000 0.000000 0.000000 0.011876 0.000000
# 6 0.000000 0.000000 0.000000 0.000000 0.000000 0.013919
#
#
# Mechanical properties :
#
#
# Convention : Reuss Voigt Hill
#
# Bulk Modulus (GPa) = 43.38184 60.21921 51.80053
# Shear Modulus (GPa) = -584.41433 53.33068 -265.54183
#
# Velocity S-wave (km/s) = -15.11221 4.56516 -10.18671
# Velocity P-wave (km/s) = 16.95737 7.16381 10.86812
#
# Compressibility (1/GPa) = 0.02305112
#
# Stress axis : x y z
#
# Youngs Moduli (GPa) = -55.78432 -55.78639 48.96626
#
# Poissons Ratio (x) = 1.29341 0.09662
# Poissons Ratio (y) = 1.29336 0.09654
# Poissons Ratio (z) = -0.11007 -0.10998
#
# Static dielectric constant tensor:
#      x y z
#    x 2.137640 0.000000 0.000000 
#    y 0.000000 2.137640 0.000000 
#    z 0.000000 0.000000 1.876350 
# 
# From -- ./inp_files/144.got.cif
#   From: 2010.05.17/outbox.cif.g08.bks.cpg/sg118_1_cif.got.tgz:144.got - 2010.05.20 11:17:24.
