data_PCOD9558792
_publ_section_title
;
Structure prediction by ZEFSAII (Michael W. Deem and Ramdas Pophale) SiO2 
 PCOD9558792
Probable space group: P -4 N 2
;
_chemical_formula_sum "Si O2"
_cell_formula_units_Z 40
_cell_length_a 8.811365
_cell_length_b 8.811365
_cell_length_c 23.412292
_cell_angle_alpha 90.000000
_cell_angle_beta 90.000000
_cell_angle_gamma 90.000000
_cell_volume 1817.733937
_symmetry_space_group_name_H-M "P -4 N 2"
_symmetry_group_IT_number 118
_symmetry_cell_setting 'tetragonal'
loop_
_space_group_symop_operation_xyz
x,y,z
y,-x,-z
-x,-y,z
-y,x,-z
1/2+y,1/2+x,1/2-z
1/2-y,1/2-x,1/2-z
1/2-x,1/2+y,1/2+z
1/2+x,1/2-y,1/2+z
loop_
_atom_site_type_symbol
_atom_site_label
_atom_site_fract_x
_atom_site_fract_y
_atom_site_fract_z
Si Si1 0.681395 0.840507 0.610389
Si Si2 0.245103 0.073479 0.492851
Si Si3 0.326589 0.454730 0.309138
Si Si4 0.025123 0.333077 0.628901
Si Si5 0.614835 0.314517 0.820369
O O1 0.646887 0.870950 0.544001
O O2 0.551606 0.790376 0.653432
O O3 0.801669 0.703190 0.613958
O O4 0.757247 0.995996 0.633005
O O5 0.318552 0.067587 0.430520
O O6 0.095511 0.180083 0.494402
O O7 0.500000 0.500000 0.322292
O O8 0.304108 0.466047 0.240879
O O9 0.269148 0.285260 0.321218
O O10 0.976875 0.188863 0.667274
O O11 0.000000 0.500000 0.653773
#
# Coordination Sequence:
#
# PCOD9558792 Si02
#       5
#     8   8   8   8   8
#     4  11  21  39  65  91 124 172 222 279 332 403
#     4   9  18  36  62  91 123 167 218 273 333 410
#     4  11  24  41  62  92 131 169 219 281 339 394
#     4  11  22  38  63  93 131 167 221 278 340 406
#     4  11  23  41  64  92 128 174 221 270 334 418
#
# _framework density 22.005419
#
# number of rings (size 3 to 8) (size 9 to 14) (size 15 to 20)
#    0.000    1.400    2.000    4.200    0.000    3.200 
#    0.000    6.000    0.000    0.000    0.000    0.000 
#    0.000    0.000    0.000    0.000    0.000    0.000 
#
# Total GULP energy -223320.812976 kJ/mol
# GULP energy per Si atom -5583.020324 kJ/mol
# Density = 2.195533 g / cm^3
# Si number density = 22.005419 Si / 1000 Ang^3
#
#
#
# Elastic Constant Matrix: (Units=GPa)
#
#
# Indices 1 2 3 4 5 6 
#
# 1 68.6592 5.3477 10.7849 0.0000 0.0000 0.0000
# 2 5.3477 68.6592 10.7849 0.0000 0.0000 0.0000
# 3 10.7849 10.7849 106.9772 0.0000 0.0000 0.0000
# 4 0.0000 0.0000 0.0000 28.7880 0.0000 0.0000
# 5 0.0000 0.0000 0.0000 0.0000 28.7880 0.0000
# 6 0.0000 0.0000 0.0000 0.0000 0.0000 32.9387
#
#
#
# Elastic Compliance Matrix: (Units=1/GPa)
#
#
# Indices 1 2 3 4 5 6 
#
# 1 0.014858 -0.000937 -0.001403 0.000000 0.000000 0.000000
# 2 -0.000937 0.014858 -0.001403 0.000000 0.000000 0.000000
# 3 -0.001403 -0.001403 0.009631 0.000000 0.000000 0.000000
# 4 0.000000 0.000000 0.000000 0.034737 0.000000 0.000000
# 5 0.000000 0.000000 0.000000 0.000000 0.034737 0.000000
# 6 0.000000 0.000000 0.000000 0.000000 0.000000 0.030359
#
#
# Mechanical properties :
#
#
# Convention : Reuss Voigt Hill
#
# Bulk Modulus (GPa) = 31.38785 33.12564 32.25674
# Shear Modulus (GPa) = 31.78902 32.59483 32.19192
#
# Velocity S-wave (km/s) = 3.80491 3.85284 3.82895
# Velocity P-wave (km/s) = 5.79636 5.90580 5.85134
#
# Compressibility (1/GPa) = 0.03185946
#
# Stress axis : x y z
#
# Youngs Moduli (GPa) = 67.30333 67.30333 103.83382
#
# Poissons Ratio (x) = 0.06305 0.14573
# Poissons Ratio (y) = 0.06305 0.14573
# Poissons Ratio (z) = 0.09446 0.09446
#
# Static dielectric constant tensor:
#      x y z
#    x 1.828440 0.000000 0.000000 
#    y 0.000000 1.828440 0.000000 
#    z 0.000000 0.000000 1.808910 
# 
# From -- ./inp_files/5993.got.cif
#   From: 2010.05.17/outbox.cif.g08.bks.cpg/sg118_3_cif.got.tgz:5993.got - 2010.05.20 11:17:24.
