data_PCOD9558567
_publ_section_title
;
Structure prediction by ZEFSAII (Michael W. Deem and Ramdas Pophale) SiO2 
 PCOD9558567
Probable space group: P -4 N 2
;
_chemical_formula_sum "Si O2"
_cell_formula_units_Z 56
_cell_length_a 14.171785
_cell_length_b 14.171785
_cell_length_c 16.239198
_cell_angle_alpha 90.000000
_cell_angle_beta 90.000000
_cell_angle_gamma 90.000000
_cell_volume 3261.472246
_symmetry_space_group_name_H-M "P -4 N 2"
_symmetry_group_IT_number 118
_symmetry_cell_setting 'tetragonal'
loop_
_space_group_symop_operation_xyz
x,y,z
y,-x,-z
-x,-y,z
-y,x,-z
1/2+y,1/2+x,1/2-z
1/2-y,1/2-x,1/2-z
1/2-x,1/2+y,1/2+z
1/2+x,1/2-y,1/2+z
loop_
_atom_site_type_symbol
_atom_site_label
_atom_site_fract_x
_atom_site_fract_y
_atom_site_fract_z
Si Si1 0.968810 0.787296 0.410271
Si Si2 0.313666 0.344625 0.570564
Si Si3 0.840728 0.813269 0.750000
Si Si4 0.655372 0.313663 0.070564
Si Si5 0.078099 0.421904 0.151156
Si Si6 0.524754 0.388954 0.750001
Si Si7 0.212705 0.968807 0.910270
O O1 0.916055 0.805523 0.495695
O O2 0.951315 0.680060 0.382934
O O3 0.930891 0.855211 0.336115
O O4 0.079238 0.808287 0.423677
O O5 0.289755 0.386767 0.661821
O O6 0.241409 0.258591 0.557182
O O7 0.420764 0.308280 0.576324
O O8 0.305528 0.416052 0.495694
O O9 0.740716 0.759285 0.750000
O O10 0.886768 0.789752 0.661822
O O11 0.832141 0.925554 0.749999
O O12 0.083586 0.416415 0.250000
O O13 0.048693 0.319942 0.117063
O O14 0.000000 0.500000 0.129216
O O15 0.500000 0.500000 0.750000
O O16 0.569109 0.355209 0.663887
#
# Coordination Sequence:
#
# PCOD9558567 Si02
#       7
#     8   8   8   8   8   8   8
#     4  11  22  37  57  86 117 153 196 240 298 356
#     4  10  21  36  56  81 113 148 193 236 288 349
#     4   8  18  36  53  72 103 151 193 231 269 345
#     4  10  21  36  56  81 113 148 193 236 288 349
#     4  11  22  40  64  89 119 156 193 255 313 355
#     4  10  22  35  54  84 119 151 191 239 300 356
#     4  11  22  37  57  86 117 153 196 240 298 356
#
# _framework density 17.170159999999999
#
# number of rings (size 3 to 8) (size 9 to 14) (size 15 to 20)
#    0.000    1.857    2.857    0.857    8.000    1.143 
#    0.000    0.000    0.000    0.000    0.000    4.000 
#    0.000    0.000    0.000    0.143    0.000    0.000 
#
# Total GULP energy -311966.831589 kJ/mol
# GULP energy per Si atom -5570.836278 kJ/mol
# Density = 1.713108 g / cm^3
# Si number density = 17.170160 Si / 1000 Ang^3
#
#
#
# Elastic Constant Matrix: (Units=GPa)
#
#
# Indices 1 2 3 4 5 6 
#
# 1 22.9189 88.4310 60.9380 0.0000 0.0000 0.0000
# 2 88.4310 22.9273 60.9316 0.0000 0.0000 0.0000
# 3 60.9380 60.9316 183.6117 0.0000 0.0000 0.0000
# 4 0.0000 0.0000 0.0000 29.8513 0.0000 0.0000
# 5 0.0000 0.0000 0.0000 0.0000 29.8515 0.0000
# 6 0.0000 0.0000 0.0000 0.0000 0.0000 19.9398
#
#
#
# Elastic Compliance Matrix: (Units=1/GPa)
#
#
# Indices 1 2 3 4 5 6 
#
# 1 -0.000583 0.014684 -0.004679 0.000000 0.000000 0.000000
# 2 0.014684 -0.000580 -0.004681 0.000000 0.000000 0.000000
# 3 -0.004679 -0.004681 0.008553 0.000000 0.000000 0.000000
# 4 0.000000 0.000000 0.000000 0.033499 0.000000 0.000000
# 5 0.000000 0.000000 0.000000 0.000000 0.033499 0.000000
# 6 0.000000 0.000000 0.000000 0.000000 0.000000 0.050151
#
#
# Mechanical properties :
#
#
# Convention : Reuss Voigt Hill
#
# Bulk Modulus (GPa) = 55.44162 72.22878 63.83520
# Shear Modulus (GPa) = 41.69984 17.20566 29.45275
#
# Velocity S-wave (km/s) = 4.93345 3.16898 4.14617
# Velocity P-wave (km/s) = 8.05056 7.45303 7.75755
#
# Compressibility (1/GPa) = 0.01803699
#
# Stress axis : x y z
#
# Youngs Moduli (GPa) = -1715.88719 -1723.91466 116.92267
#
# Poissons Ratio (x) = 25.31381 0.54713
# Poissons Ratio (y) = 25.19593 0.54730
# Poissons Ratio (z) = -8.02939 -8.06943
#
# Static dielectric constant tensor:
#      x y z
#    x 1.570130 0.000000 0.000000 
#    y 0.000000 1.570130 0.000000 
#    z 0.000000 0.000000 1.650410 
# 
# From -- ./inp_files/4248.got.cif
#   From: 2010.05.17/outbox.cif.g08.bks.cpg/sg118_3_cif.got.tgz:4248.got - 2010.05.20 11:17:24.
