data_PCOD9558163
_publ_section_title
;
Structure prediction by ZEFSAII (Michael W. Deem and Ramdas Pophale) SiO2 
 PCOD9558163
Probable space group: P -4 B 2
;
_chemical_formula_sum "Si O2"
_cell_formula_units_Z 54
_cell_length_a 15.891279
_cell_length_b 15.891279
_cell_length_c 10.497616
_cell_angle_alpha 90.000000
_cell_angle_beta 90.000000
_cell_angle_gamma 90.000000
_cell_volume 2650.991819
_symmetry_space_group_name_H-M "P -4 B 2"
_symmetry_group_IT_number 117
_symmetry_cell_setting 'tetragonal'
loop_
_space_group_symop_operation_xyz
x,y,z
y,-x,-z
-x,-y,z
-y,x,-z
1/2+y,1/2+x,-z
1/2-y,1/2-x,-z
1/2-x,1/2+y,z
1/2+x,1/2-y,z
loop_
_atom_site_type_symbol
_atom_site_label
_atom_site_fract_x
_atom_site_fract_y
_atom_site_fract_z
Si Si1 0.803216 0.642340 0.372910
Si Si2 0.953402 0.352033 0.607791
Si Si3 0.911359 0.663967 0.119664
Si Si4 0.968645 0.840064 0.176840
Si Si5 0.500000 0.000000 0.197816
Si Si6 0.610139 0.381047 0.646207
Si Si7 0.500000 0.500000 0.000000
Si Si8 0.160716 0.084219 0.356183
O O1 0.802198 0.697803 0.500000
O O2 0.826044 0.549250 0.429134
O O3 0.866190 0.663149 0.258419
O O4 0.710616 0.641735 0.314073
O O5 0.897464 0.397464 0.500000
O O6 0.915477 0.262021 0.648924
O O7 0.968571 0.421716 0.715949
O O8 0.961909 0.750553 0.109093
O O9 0.970631 0.582330 0.123633
O O10 0.849353 0.650648 0.000000
O O11 0.882417 0.856415 0.253332
O O12 0.044136 0.845842 0.278427
O O13 0.983382 0.917244 0.082694
O O14 0.509663 0.376702 0.666917
O O15 0.629896 0.391828 0.497183
#
# Coordination Sequence:
#
# PCOD9558163 Si02
#       8
#     8   8   8   8   4   8   2   8
#     4  10  22  41  66  98 138 181 223 286 350 409
#     4  10  21  35  64 100 140 173 225 278 342 409
#     4  11  26  46  72  95 136 180 237 292 356 412
#     4  12  26  45  68  98 135 186 231 284 353 415
#     4  10  22  46  68  94 131 184 225 284 341 416
#     4  11  22  39  66  94 139 179 221 276 350 412
#     4  12  28  44  74  92 144 184 240 286 340 432
#     4  11  22  38  65 103 139 179 224 277 341 416
#
# _framework density 20.369734999999999
#
# number of rings (size 3 to 8) (size 9 to 14) (size 15 to 20)
#    0.000    1.185    2.963    3.111    6.222    2.963 
#    0.000    0.000    0.000    0.000    0.000    0.000 
#    0.000    0.000    0.000    0.000    0.000    0.000 
#
# Total GULP energy -301685.927097 kJ/mol
# GULP energy per Si atom -5586.776428 kJ/mol
# Density = 2.032337 g / cm^3
# Si number density = 20.369735 Si / 1000 Ang^3
#
#
#
# Elastic Constant Matrix: (Units=GPa)
#
#
# Indices 1 2 3 4 5 6 
#
# 1 97.6765 43.0447 21.3593 0.0000 0.0000 0.0000
# 2 43.0447 97.6752 21.3591 0.0000 0.0000 0.0000
# 3 21.3593 21.3591 65.1982 0.0000 0.0000 0.0000
# 4 0.0000 0.0000 0.0000 -2.6729 0.0000 0.0000
# 5 0.0000 0.0000 0.0000 0.0000 -2.6724 0.0000
# 6 0.0000 0.0000 0.0000 0.0000 0.0000 16.6364
#
#
#
# Elastic Compliance Matrix: (Units=1/GPa)
#
#
# Indices 1 2 3 4 5 6 
#
# 1 0.013098 -0.005207 -0.002585 0.000000 0.000000 0.000000
# 2 -0.005207 0.013098 -0.002585 0.000000 0.000000 0.000000
# 3 -0.002585 -0.002585 0.017032 0.000000 0.000000 0.000000
# 4 0.000000 0.000000 0.000000 -0.374128 0.000000 0.000000
# 5 0.000000 0.000000 0.000000 0.000000 -0.374202 0.000000
# 6 0.000000 0.000000 0.000000 0.000000 0.000000 0.060109
#
#
# Mechanical properties :
#
#
# Convention : Reuss Voigt Hill
#
# Bulk Modulus (GPa) = 44.49745 48.00845 46.25295
# Shear Modulus (GPa) = -8.10704 13.91068 2.90182
#
# Velocity S-wave (km/s) = -1.99714 2.61609 1.19485
# Velocity P-wave (km/s) = 4.07114 5.72232 4.96584
#
# Compressibility (1/GPa) = 0.02247320
#
# Stress axis : x y z
#
# Youngs Moduli (GPa) = 76.34917 76.34821 58.71418
#
# Poissons Ratio (x) = 0.39753 0.15178
# Poissons Ratio (y) = 0.39753 0.15178
# Poissons Ratio (z) = 0.19737 0.19737
#
# Static dielectric constant tensor:
#      x y z
#    x 1.745440 0.000000 0.000000 
#    y 0.000000 1.745440 0.000000 
#    z 0.000000 0.000000 1.717430 
# 
# From -- ./inp_files/2886.got.cif
#   From: 2010.05.17/outbox.cif.g08.bks.cpg/sg117_2_cif.got.tgz:2886.got - 2010.05.20 11:15:09.
