data_PCOD9558377
_publ_section_title
;
Structure prediction by ZEFSAII (Michael W. Deem and Ramdas Pophale) SiO2 
 PCOD9558377
Probable space group: P -4 N 2
;
_chemical_formula_sum "Si O2"
_cell_formula_units_Z 48
_cell_length_a 12.180658
_cell_length_b 12.180658
_cell_length_c 14.157650
_cell_angle_alpha 90.000000
_cell_angle_beta 90.000000
_cell_angle_gamma 90.000000
_cell_volume 2100.548293
_symmetry_space_group_name_H-M "P -4 N 2"
_symmetry_group_IT_number 118
_symmetry_cell_setting 'tetragonal'
loop_
_space_group_symop_operation_xyz
x,y,z
y,-x,-z
-x,-y,z
-y,x,-z
1/2+y,1/2+x,1/2-z
1/2-y,1/2-x,1/2-z
1/2-x,1/2+y,1/2+z
1/2+x,1/2-y,1/2+z
loop_
_atom_site_type_symbol
_atom_site_label
_atom_site_fract_x
_atom_site_fract_y
_atom_site_fract_z
Si Si1 0.599653 0.675325 0.401181
Si Si2 0.500000 0.500000 0.303601
Si Si3 0.531758 0.769821 0.591925
Si Si4 0.841512 0.069307 0.462539
Si Si5 0.242780 0.742780 0.750000
Si Si6 0.661940 0.079967 0.606531
Si Si7 0.700522 0.414737 0.210839
O O1 0.492358 0.606514 0.370436
O O2 0.592170 0.748863 0.493660
O O3 0.684485 0.572980 0.413245
O O4 0.633221 0.744651 0.309673
O O5 0.605875 0.504953 0.237434
O O6 0.463488 0.882172 0.603895
O O7 0.606915 0.744924 0.683507
O O8 0.722076 0.085083 0.506643
O O9 0.842478 0.127822 0.360427
O O10 0.940021 0.127261 0.524279
O O11 0.271412 0.834261 0.672124
O O12 0.698772 0.965997 0.653018
#
# Coordination Sequence:
#
# PCOD9558377 Si02
#       7
#     8   4   8   8   4   8   8
#     4  10  19  29  47  80 108 155 182 233 270 338
#     4  10  16  27  51  72 114 130 181 220 285 330
#     4  10  18  29  49  72 110 141 192 220 273 324
#     4   9  18  27  45  76 111 134 167 214 279 339
#     4  10  18  32  50  70 113 150 185 208 276 354
#     4  10  16  31  46  74 106 146 173 221 275 338
#     4  10  16  27  45  76 105 139 167 222 282 330
#
# _framework density 22.851175999999999
#
# number of rings (size 3 to 8) (size 9 to 14) (size 15 to 20)
#    0.000    2.167    5.000    4.000    0.000    0.667 
#    0.000    0.000    0.000    9.000    0.000   23.333 
#    0.000   32.000    0.000    0.000    0.000    0.000 
#
# Total GULP energy -267379.183005 kJ/mol
# GULP energy per Si atom -5570.399646 kJ/mol
# Density = 2.279917 g / cm^3
# Si number density = 22.851176 Si / 1000 Ang^3
#
#
#
# Elastic Constant Matrix: (Units=GPa)
#
#
# Indices 1 2 3 4 5 6 
#
# 1 54.9651 10.5547 32.3410 0.0000 0.0000 0.0000
# 2 10.5547 54.9651 32.3410 0.0000 0.0000 0.0000
# 3 32.3410 32.3410 168.1750 0.0000 0.0000 0.0000
# 4 0.0000 0.0000 0.0000 24.7674 0.0000 0.0000
# 5 0.0000 0.0000 0.0000 0.0000 24.7674 0.0000
# 6 0.0000 0.0000 0.0000 0.0000 0.0000 19.1942
#
#
#
# Elastic Compliance Matrix: (Units=1/GPa)
#
#
# Indices 1 2 3 4 5 6 
#
# 1 0.020678 -0.001839 -0.003623 0.000000 0.000000 0.000000
# 2 -0.001839 0.020678 -0.003623 0.000000 0.000000 0.000000
# 3 -0.003623 -0.003623 0.007340 0.000000 0.000000 0.000000
# 4 0.000000 0.000000 0.000000 0.040376 0.000000 0.000000
# 5 0.000000 0.000000 0.000000 0.000000 0.040376 0.000000
# 6 0.000000 0.000000 0.000000 0.000000 0.000000 0.052099
#
#
# Mechanical properties :
#
#
# Convention : Reuss Voigt Hill
#
# Bulk Modulus (GPa) = 32.75861 47.61986 40.18924
# Shear Modulus (GPa) = 23.82183 27.27035 25.54609
#
# Velocity S-wave (km/s) = 3.23224 3.45829 3.34718
# Velocity P-wave (km/s) = 5.31946 6.06884 5.70646
#
# Compressibility (1/GPa) = 0.03052632
#
# Stress axis : x y z
#
# Youngs Moduli (GPa) = 48.36016 48.36016 136.24743
#
# Poissons Ratio (x) = 0.08894 0.49361
# Poissons Ratio (y) = 0.08894 0.49361
# Poissons Ratio (z) = 0.17520 0.17520
#
# Static dielectric constant tensor:
#      x y z
#    x 1.926310 0.000000 0.000000 
#    y 0.000000 1.926310 0.000000 
#    z 0.000000 0.000000 1.901120 
# 
# From -- ./inp_files/3372.got.cif
#   From: 2010.05.17/outbox.cif.g08.bks.cpg/sg118_2_cif.got.tgz:3372.got - 2010.05.20 11:17:24.
