data_PCOD9558557
_publ_section_title
;
Structure prediction by ZEFSAII (Michael W. Deem and Ramdas Pophale) SiO2 
 PCOD9558557
Probable space group: P -4 N 2
;
_chemical_formula_sum "Si O2"
_cell_formula_units_Z 24
_cell_length_a 8.524457
_cell_length_b 8.524457
_cell_length_c 12.659977
_cell_angle_alpha 90.000000
_cell_angle_beta 90.000000
_cell_angle_gamma 90.000000
_cell_volume 919.954537
_symmetry_space_group_name_H-M "P -4 N 2"
_symmetry_group_IT_number 118
_symmetry_cell_setting 'tetragonal'
loop_
_space_group_symop_operation_xyz
x,y,z
y,-x,-z
-x,-y,z
-y,x,-z
1/2+y,1/2+x,1/2-z
1/2-y,1/2-x,1/2-z
1/2-x,1/2+y,1/2+z
1/2+x,1/2-y,1/2+z
loop_
_atom_site_type_symbol
_atom_site_label
_atom_site_fract_x
_atom_site_fract_y
_atom_site_fract_z
Si Si1 0.332171 0.438870 0.279473
Si Si2 0.682221 0.999653 0.371354
Si Si3 0.676773 0.850436 0.601403
O O1 0.500000 0.500000 0.317251
O O2 0.404306 0.291932 0.210586
O O3 0.221751 0.503692 0.376591
O O4 0.230235 0.519742 0.186638
O O5 0.699202 0.917042 0.484940
O O6 0.500000 0.000000 0.350547
O O7 0.728089 0.182358 0.378272
#
# Coordination Sequence:
#
# PCOD9558557 Si02
#       3
#     8   8   8
#     4   9  20  41  73 108 155 212 283 358 425 509
#     4  11  22  42  76 114 164 224 288 349 433 517
#     4  10  20  43  74 112 156 224 284 359 428 495
#
# _framework density 26.088245000000001
#
# number of rings (size 3 to 8) (size 9 to 14) (size 15 to 20)
#    0.000    2.000    3.333    0.000    0.000    0.000 
#    6.000   23.333    0.000    0.000    0.000    0.000 
#    0.000    0.000    0.000    0.000    0.000    0.000 
#
# Total GULP energy -133605.597701 kJ/mol
# GULP energy per Si atom -5566.899904 kJ/mol
# Density = 2.602887 g / cm^3
# Si number density = 26.088245 Si / 1000 Ang^3
#
#
#
# Elastic Constant Matrix: (Units=GPa)
#
#
# Indices 1 2 3 4 5 6 
#
# 1 34.1247 152.3686 12.2227 0.0000 0.0000 0.0000
# 2 152.3686 34.1247 12.2227 0.0000 0.0000 0.0000
# 3 12.2227 12.2227 43.0096 0.0000 0.0000 0.0000
# 4 0.0000 0.0000 0.0000 -24.4661 0.0000 0.0000
# 5 0.0000 0.0000 0.0000 0.0000 -24.4661 0.0000
# 6 0.0000 0.0000 0.0000 0.0000 0.0000 52.4486
#
#
#
# Elastic Compliance Matrix: (Units=1/GPa)
#
#
# Indices 1 2 3 4 5 6 
#
# 1 -0.001444 0.007013 -0.001583 0.000000 0.000000 0.000000
# 2 0.007013 -0.001444 -0.001583 0.000000 0.000000 0.000000
# 3 -0.001583 -0.001583 0.024150 0.000000 0.000000 0.000000
# 4 0.000000 0.000000 0.000000 -0.040873 0.000000 0.000000
# 5 0.000000 0.000000 0.000000 0.000000 -0.040873 0.000000
# 6 0.000000 0.000000 0.000000 0.000000 0.000000 0.019066
#
#
# Mechanical properties :
#
#
# Convention : Reuss Voigt Hill
#
# Bulk Modulus (GPa) = 34.53251 51.65413 43.09332
# Shear Modulus (GPa) = -126.71226 -3.66706 -65.18966
#
# Velocity S-wave (km/s) = -6.97682 -1.18688 -5.00424
# Velocity P-wave (km/s) = 7.18581 4.23846 4.10313
#
# Compressibility (1/GPa) = 0.02895822
#
# Stress axis : x y z
#
# Youngs Moduli (GPa) = -692.64098 -692.64098 41.40748
#
# Poissons Ratio (x) = 4.85773 0.06554
# Poissons Ratio (y) = 4.85773 0.06554
# Poissons Ratio (z) = -1.09631 -1.09631
#
# Static dielectric constant tensor:
#      x y z
#    x 2.156210 0.000000 0.000000 
#    y 0.000000 2.156210 0.000000 
#    z 0.000000 0.000000 2.218460 
# 
# From -- ./inp_files/3720.got.cif
#   From: 2010.05.17/outbox.cif.g08.bks.cpg/sg118_2_cif.got.tgz:3720.got - 2010.05.20 11:17:24.
