data_PCOD9558458
_publ_section_title
;
Structure prediction by ZEFSAII (Michael W. Deem and Ramdas Pophale) SiO2 
 PCOD9558458
Probable space group: P -4 N 2
;
_chemical_formula_sum "Si O2"
_cell_formula_units_Z 64
_cell_length_a 15.486385
_cell_length_b 15.486385
_cell_length_c 13.421816
_cell_angle_alpha 90.000000
_cell_angle_beta 90.000000
_cell_angle_gamma 90.000000
_cell_volume 3218.928903
_symmetry_space_group_name_H-M "P -4 N 2"
_symmetry_group_IT_number 118
_symmetry_cell_setting 'tetragonal'
loop_
_space_group_symop_operation_xyz
x,y,z
y,-x,-z
-x,-y,z
-y,x,-z
1/2+y,1/2+x,1/2-z
1/2-y,1/2-x,1/2-z
1/2-x,1/2+y,1/2+z
1/2+x,1/2-y,1/2+z
loop_
_atom_site_type_symbol
_atom_site_label
_atom_site_fract_x
_atom_site_fract_y
_atom_site_fract_z
Si Si1 0.332912 0.531458 0.362352
Si Si2 0.082917 0.700611 0.312606
Si Si3 0.426237 0.704766 0.297854
Si Si4 0.569813 0.376213 0.975474
Si Si5 0.941862 0.585340 0.365163
Si Si6 0.311569 0.736482 0.107705
Si Si7 0.282846 0.923286 0.015237
Si Si8 0.561968 0.577619 0.224925
O O1 0.267706 0.549851 0.270325
O O2 0.385235 0.623067 0.362096
O O3 0.283049 0.485673 0.453231
O O4 0.399528 0.458548 0.326116
O O5 0.119876 0.619876 0.250000
O O6 0.163569 0.738830 0.373338
O O7 0.005135 0.666741 0.379511
O O8 0.358652 0.739700 0.216411
O O9 0.460897 0.777079 0.373025
O O10 0.504304 0.660513 0.239588
O O11 0.587458 0.366302 0.858623
O O12 0.468112 0.386251 0.995213
O O13 0.615172 0.303187 0.037854
O O14 0.909347 0.590654 0.250000
O O15 0.866215 0.578871 0.445209
O O16 0.000000 0.500000 0.374126
O O17 0.274749 0.821704 0.052884
O O18 0.500000 0.500000 0.186649
#
# Coordination Sequence:
#
# PCOD9558458 Si02
#       8
#     8   8   8   8   8   8   8   8
#     4  10  22  37  61  92 127 166 207 263 317 383
#     4  11  20  40  64  85 127 162 208 263 328 369
#     4  10  22  42  59  87 131 173 207 254 331 404
#     4  11  18  33  60  90 119 155 206 250 319 383
#     4  11  22  42  65  95 121 165 221 280 322 377
#     4  11  24  37  61  94 126 164 209 269 321 391
#     4  12  25  38  64  95 128 167 224 267 322 392
#     4  10  19  36  58  87 124 161 201 256 316 391
#
# _framework density 19.882390000000001
#
# number of rings (size 3 to 8) (size 9 to 14) (size 15 to 20)
#    0.000    1.250    5.000    3.375    5.250    0.000 
#    0.000    0.000    0.000    1.500    3.250    0.000 
#    0.000    0.000    0.000    0.000    0.000    0.000 
#
# Total GULP energy -356510.774793 kJ/mol
# GULP energy per Si atom -5570.480856 kJ/mol
# Density = 1.983714 g / cm^3
# Si number density = 19.882390 Si / 1000 Ang^3
#
#
#
# Elastic Constant Matrix: (Units=GPa)
#
#
# Indices 1 2 3 4 5 6 
#
# 1 48.8624 7.2313 30.4436 0.0000 0.0000 0.0000
# 2 7.2313 48.8623 30.4435 0.0000 0.0000 0.0000
# 3 30.4436 30.4435 102.9789 0.0000 0.0000 0.0000
# 4 0.0000 0.0000 0.0000 17.2110 0.0000 0.0000
# 5 0.0000 0.0000 0.0000 0.0000 17.2110 0.0000
# 6 0.0000 0.0000 0.0000 0.0000 0.0000 34.1202
#
#
#
# Elastic Compliance Matrix: (Units=1/GPa)
#
#
# Indices 1 2 3 4 5 6 
#
# 1 0.025136 0.001115 -0.007761 0.000000 0.000000 0.000000
# 2 0.001115 0.025136 -0.007761 0.000000 0.000000 0.000000
# 3 -0.007761 -0.007761 0.014299 0.000000 0.000000 0.000000
# 4 0.000000 0.000000 0.000000 0.058102 0.000000 0.000000
# 5 0.000000 0.000000 0.000000 0.000000 0.058102 0.000000
# 6 0.000000 0.000000 0.000000 0.000000 0.000000 0.029308
#
#
# Mechanical properties :
#
#
# Convention : Reuss Voigt Hill
#
# Bulk Modulus (GPa) = 27.96490 37.43780 32.70135
# Shear Modulus (GPa) = 19.93499 22.54745 21.24122
#
# Velocity S-wave (km/s) = 3.16989 3.37121 3.27210
# Velocity P-wave (km/s) = 5.24341 5.83300 5.54604
#
# Compressibility (1/GPa) = 0.03575911
#
# Stress axis : x y z
#
# Youngs Moduli (GPa) = 39.78388 39.78381 69.93385
#
# Poissons Ratio (x) = -0.04437 0.54273
# Poissons Ratio (y) = -0.04437 0.54273
# Poissons Ratio (z) = 0.30875 0.30875
#
# Static dielectric constant tensor:
#      x y z
#    x 1.758520 0.000000 0.000000 
#    y 0.000000 1.758520 0.000000 
#    z 0.000000 0.000000 1.743950 
# 
# From -- ./inp_files/3518.got.cif
#   From: 2010.05.17/outbox.cif.g08.bks.cpg/sg118_2_cif.got.tgz:3518.got - 2010.05.20 11:17:24.
