data_PCOD9558965
_publ_section_title
;
Structure prediction by ZEFSAII (Michael W. Deem and Ramdas Pophale) SiO2 
 PCOD9558965
Probable space group: I -4 M 2
;
_chemical_formula_sum "Si O2"
_cell_formula_units_Z 96
_cell_length_a 24.642998
_cell_length_b 24.642998
_cell_length_c 10.312597
_cell_angle_alpha 90.000000
_cell_angle_beta 90.000000
_cell_angle_gamma 90.000000
_cell_volume 6262.606582
_symmetry_space_group_name_H-M "I -4 M 2"
_symmetry_group_IT_number 119
_symmetry_cell_setting 'tetragonal'
loop_
_space_group_symop_operation_xyz
x,y,z
y,-x,-z
-x,-y,z
-y,x,-z
y,x,-z
-y,-x,-z
-x,y,z
x,-y,z
1/2+x,1/2+y,1/2+z
1/2+y,1/2-x,1/2-z
1/2-x,1/2-y,1/2+z
1/2-y,1/2+x,1/2-z
1/2+y,1/2+x,1/2-z
1/2-y,1/2-x,1/2-z
1/2-x,1/2+y,1/2+z
1/2+x,1/2-y,1/2+z
loop_
_atom_site_type_symbol
_atom_site_label
_atom_site_fract_x
_atom_site_fract_y
_atom_site_fract_z
Si Si1 0.500000 0.723734 0.770623
Si Si2 0.500000 0.181346 0.973688
Si Si3 0.734005 0.325076 0.757969
Si Si4 0.275438 0.617789 0.242196
Si Si5 0.000000 0.408257 0.245637
Si Si6 0.286216 0.882876 0.016317
Si Si7 0.702232 0.117869 0.485988
Si Si8 0.313130 0.000000 0.959301
O O1 0.500000 0.761032 0.898287
O O2 0.558699 0.695498 0.763927
O O3 0.500000 0.766988 0.652851
O O4 0.500000 0.133087 0.867335
O O5 0.442601 0.181520 0.046144
O O6 0.768860 0.268860 0.750000
O O7 0.670807 0.312125 0.770646
O O8 0.748832 0.358350 0.628913
O O9 0.756409 0.358742 0.879796
O O10 0.244319 0.621632 0.378979
O O11 0.231440 0.617984 0.126038
O O12 0.052649 0.447352 0.250000
O O13 0.000000 0.370167 0.117992
O O14 0.340391 0.847224 0.010420
O O15 0.303338 0.945021 0.037341
#
# Coordination Sequence:
#
# PCOD9558965 Si02
#       8
#     8   8  16  16   8  16  16   8
#     4   7  16  27  42  65  84 111 142 173 218 269
#     4   9  17  29  43  60  89 123 153 190 235 277
#     4  10  20  30  43  67  93 119 154 191 229 281
#     4  10  17  30  48  66  90 117 148 186 228 277
#     4  10  18  27  44  70  92 118 168 222 252 271
#     4  10  19  30  45  65  90 122 156 190 234 280
#     4  10  19  30  45  65  90 122 156 190 234 280
#     4   9  17  29  43  60  89 123 153 190 235 277
#
# _framework density 15.329079999999999
#
# number of rings (size 3 to 8) (size 9 to 14) (size 15 to 20)
#    0.000    2.417    0.000    4.500    0.000    3.333 
#    0.000    0.000    0.000    0.000    0.000    0.000 
#    0.000   13.333    0.000   24.667    0.000   32.833 
#
# Total GULP energy -267436.568373 kJ/mol
# GULP energy per Si atom -5571.595174 kJ/mol
# Density = 1.529419 g / cm^3
# Si number density = 15.329080 Si / 1000 Ang^3
#
#
#
# Elastic Constant Matrix: (Units=GPa)
#
#
# Indices 1 2 3 4 5 6 
#
# 1 88.0459 27.4242 8.1147 0.0000 0.0000 0.0000
# 2 27.4242 88.0457 8.1146 0.0000 0.0000 0.0000
# 3 8.1147 8.1146 43.4275 0.0000 0.0000 0.0000
# 4 0.0000 0.0000 0.0000 6.9327 0.0000 0.0000
# 5 0.0000 0.0000 0.0000 0.0000 6.9336 0.0000
# 6 0.0000 0.0000 0.0000 0.0000 0.0000 -1.0438
#
#
#
# Elastic Compliance Matrix: (Units=1/GPa)
#
#
# Indices 1 2 3 4 5 6 
#
# 1 0.012695 -0.003801 -0.001662 0.000000 0.000000 0.000000
# 2 -0.003801 0.012695 -0.001662 0.000000 0.000000 0.000000
# 3 -0.001662 -0.001662 0.023648 0.000000 0.000000 0.000000
# 4 0.000000 0.000000 0.000000 0.144244 0.000000 0.000000
# 5 0.000000 0.000000 0.000000 0.000000 0.144226 0.000000
# 6 0.000000 0.000000 0.000000 0.000000 0.000000 -0.958063
#
#
# Mechanical properties :
#
#
# Convention : Reuss Voigt Hill
#
# Bulk Modulus (GPa) = 28.74541 34.09179 31.41860
# Shear Modulus (GPa) = -8.40747 14.28886 2.94070
#
# Velocity S-wave (km/s) = -2.34447 3.05641 1.38656
# Velocity P-wave (km/s) = 3.38588 5.89438 4.80666
#
# Compressibility (1/GPa) = 0.03478816
#
# Stress axis : x y z
#
# Youngs Moduli (GPa) = 78.77244 78.77226 42.28702
#
# Poissons Ratio (x) = 0.29941 0.07028
# Poissons Ratio (y) = 0.29941 0.07027
# Poissons Ratio (z) = 0.13091 0.13091
#
# Static dielectric constant tensor:
#      x y z
#    x 1.516540 0.000000 0.000000 
#    y 0.000000 1.516540 0.000000 
#    z 0.000000 0.000000 1.512010 
# 
# From -- ./inp_files/2778.got.cif
#   From: 2010.05.17/outbox.cif.g08.bks.cpg/sg119_2_cif.got.tgz:2778.got - 2010.05.20 11:21:29.
