data_PCOD9558598
_publ_section_title
;
Structure prediction by ZEFSAII (Michael W. Deem and Ramdas Pophale) SiO2 
 PCOD9558598
Probable space group: P -4 N 2
;
_chemical_formula_sum "Si O2"
_cell_formula_units_Z 40
_cell_length_a 10.951699
_cell_length_b 10.951699
_cell_length_c 15.726883
_cell_angle_alpha 90.000000
_cell_angle_beta 90.000000
_cell_angle_gamma 90.000000
_cell_volume 1886.277802
_symmetry_space_group_name_H-M "P -4 N 2"
_symmetry_group_IT_number 118
_symmetry_cell_setting 'tetragonal'
loop_
_space_group_symop_operation_xyz
x,y,z
y,-x,-z
-x,-y,z
-y,x,-z
1/2+y,1/2+x,1/2-z
1/2-y,1/2-x,1/2-z
1/2-x,1/2+y,1/2+z
1/2+x,1/2-y,1/2+z
loop_
_atom_site_type_symbol
_atom_site_label
_atom_site_fract_x
_atom_site_fract_y
_atom_site_fract_z
Si Si1 0.837866 0.137711 0.247168
Si Si2 0.485092 0.741671 0.862029
Si Si3 0.677421 0.226355 0.537781
Si Si4 0.199073 0.591836 0.406310
Si Si5 0.142802 0.806931 0.783276
O O1 0.708765 0.208765 0.250000
O O2 0.913545 0.215182 0.177064
O O3 0.908342 0.147142 0.337232
O O4 0.834259 0.998790 0.221533
O O5 0.396417 0.745349 0.942979
O O6 0.566864 0.864246 0.871969
O O7 0.390250 0.718452 0.784473
O O8 0.735696 0.303009 0.462125
O O9 0.532739 0.194224 0.539097
O O10 0.683877 0.311505 0.621157
O O11 0.171007 0.671007 0.750000
#
# Coordination Sequence:
#
# PCOD9558598 Si02
#       5
#     8   8   8   8   8
#     4  10  21  39  65  94 124 173 223 269 326 399
#     4  10  22  42  64  94 134 176 218 262 336 420
#     4  11  23  40  65  99 130 169 218 283 338 396
#     4  11  23  40  65  99 130 169 218 283 338 396
#     4  10  21  39  65  94 124 173 223 269 326 399
#
# _framework density 21.205783
#
# number of rings (size 3 to 8) (size 9 to 14) (size 15 to 20)
#    0.000    1.600    2.000    2.400    0.000    2.400 
#   21.600    0.000    0.000    0.000    0.000    0.000 
#    0.000    0.000    0.000    0.000    0.000    0.000 
#
# Total GULP energy -222679.774448 kJ/mol
# GULP energy per Si atom -5566.994361 kJ/mol
# Density = 2.115752 g / cm^3
# Si number density = 21.205783 Si / 1000 Ang^3
#
#
#
# Elastic Constant Matrix: (Units=GPa)
#
#
# Indices 1 2 3 4 5 6 
#
# 1 -14.9969 117.5730 17.0530 0.0000 0.0000 0.0000
# 2 117.5730 -14.9969 17.0530 0.0000 0.0000 0.0000
# 3 17.0530 17.0530 54.1490 0.0000 0.0000 0.0000
# 4 0.0000 0.0000 0.0000 32.6018 0.0000 0.0000
# 5 0.0000 0.0000 0.0000 0.0000 32.6018 0.0000
# 6 0.0000 0.0000 0.0000 0.0000 0.0000 4.2887
#
#
#
# Elastic Compliance Matrix: (Units=1/GPa)
#
#
# Indices 1 2 3 4 5 6 
#
# 1 0.001673 0.009216 -0.003429 0.000000 0.000000 0.000000
# 2 0.009216 0.001673 -0.003429 0.000000 0.000000 0.000000
# 3 -0.003429 -0.003429 0.020628 0.000000 0.000000 0.000000
# 4 0.000000 0.000000 0.000000 0.030673 0.000000 0.000000
# 5 0.000000 0.000000 0.000000 0.000000 0.030673 0.000000
# 6 0.000000 0.000000 0.000000 0.000000 0.000000 0.233171
#
#
# Mechanical properties :
#
#
# Convention : Reuss Voigt Hill
#
# Bulk Modulus (GPa) = 34.85709 36.39038 35.62373
# Shear Modulus (GPa) = 15.46370 5.39686 10.43028
#
# Velocity S-wave (km/s) = 2.70334 1.59703 2.22020
# Velocity P-wave (km/s) = 5.12028 4.53856 4.83817
#
# Compressibility (1/GPa) = 0.02868857
#
# Stress axis : x y z
#
# Youngs Moduli (GPa) = 597.75077 597.75077 48.47893
#
# Poissons Ratio (x) = -5.50895 0.16625
# Poissons Ratio (y) = -5.50895 0.16625
# Poissons Ratio (z) = 2.04985 2.04985
#
# Static dielectric constant tensor:
#      x y z
#    x 1.819140 0.000000 0.000000 
#    y 0.000000 1.819140 0.000000 
#    z 0.000000 0.000000 1.743170 
# 
# From -- ./inp_files/4047.got.cif
#   From: 2010.05.17/outbox.cif.g08.bks.cpg/sg118_3_cif.got.tgz:4047.got - 2010.05.20 11:17:24.
