data_PCOD9558365
_publ_section_title
;
Structure prediction by ZEFSAII (Michael W. Deem and Ramdas Pophale) SiO2 
 PCOD9558365
Probable space group: P -4 B 2
;
_chemical_formula_sum "Si O2"
_cell_formula_units_Z 38
_cell_length_a 17.542947
_cell_length_b 17.542947
_cell_length_c 5.457243
_cell_angle_alpha 90.000000
_cell_angle_beta 90.000000
_cell_angle_gamma 90.000000
_cell_volume 1679.493762
_symmetry_space_group_name_H-M "P -4 B 2"
_symmetry_group_IT_number 117
_symmetry_cell_setting 'tetragonal'
loop_
_space_group_symop_operation_xyz
x,y,z
y,-x,-z
-x,-y,z
-y,x,-z
1/2+y,1/2+x,-z
1/2-y,1/2-x,-z
1/2-x,1/2+y,z
1/2+x,1/2-y,z
loop_
_atom_site_type_symbol
_atom_site_label
_atom_site_fract_x
_atom_site_fract_y
_atom_site_fract_z
Si Si1 0.024159 0.105422 0.372941
Si Si2 0.416317 0.916317 0.000000
Si Si3 0.256013 0.756013 0.500000
Si Si4 0.228752 0.429714 0.640795
Si Si5 0.547325 0.856461 0.698626
Si Si6 0.186346 0.686346 0.000000
Si Si7 0.000000 0.000000 0.000000
O O1 0.031510 0.191502 0.298863
O O2 0.936967 0.076733 0.421989
O O3 0.052779 0.056949 0.145264
O O4 0.418810 0.838237 0.159885
O O5 0.414055 0.990689 0.167389
O O6 0.346219 0.747667 0.454409
O O7 0.231829 0.711857 0.752544
O O8 0.196117 0.486903 0.438606
O O9 0.601599 0.898402 0.500000
O O10 0.599204 0.811919 0.897109
#
# Coordination Sequence:
#
# PCOD9558365 Si02
#       7
#     8   4   4   8   8   4   2
#     4   9  22  44  71 104 142 197 259 326 398 486
#     4  12  27  47  79 116 157 218 271 339 412 490
#     4  12  28  56  75 119 162 208 272 336 414 486
#     4  12  27  49  75 112 162 210 264 344 412 487
#     4  12  28  53  76 118 158 214 272 329 411 489
#     4  12  29  53  83 114 162 210 267 332 400 492
#     4   8  18  48  64 106 136 188 262 324 384 478
#
# _framework density 22.625868000000001
#
# number of rings (size 3 to 8) (size 9 to 14) (size 15 to 20)
#    0.000    1.053    3.158    1.895    2.947    9.684 
#    3.789    0.000    0.000    0.000    0.000    0.000 
#    0.000    0.000    0.000    0.000    0.000    0.000 
#
# Total GULP energy -211711.579363 kJ/mol
# GULP energy per Si atom -5571.357352 kJ/mol
# Density = 2.257437 g / cm^3
# Si number density = 22.625868 Si / 1000 Ang^3
#
#
#
# Elastic Constant Matrix: (Units=GPa)
#
#
# Indices 1 2 3 4 5 6 
#
# 1 218.3612 -56.4358 60.1560 0.0000 0.0000 0.0000
# 2 -56.4358 218.3497 60.1580 0.0000 0.0000 0.0000
# 3 60.1560 60.1580 138.3661 0.0000 0.0000 0.0000
# 4 0.0000 0.0000 0.0000 34.5785 0.0000 0.0000
# 5 0.0000 0.0000 0.0000 0.0000 34.5782 0.0000
# 6 0.0000 0.0000 0.0000 0.0000 0.0000 39.6681
#
#
#
# Elastic Compliance Matrix: (Units=1/GPa)
#
#
# Indices 1 2 3 4 5 6 
#
# 1 0.006381 0.002742 -0.003966 0.000000 0.000000 0.000000
# 2 0.002742 0.006381 -0.003967 0.000000 0.000000 0.000000
# 3 -0.003966 -0.003967 0.010676 0.000000 0.000000 0.000000
# 4 0.000000 0.000000 0.000000 0.028920 0.000000 0.000000
# 5 0.000000 0.000000 0.000000 0.000000 0.028920 0.000000
# 6 0.000000 0.000000 0.000000 0.000000 0.000000 0.025209
#
#
# Mechanical properties :
#
#
# Convention : Reuss Voigt Hill
#
# Bulk Modulus (GPa) = 76.58905 78.09259 77.34082
# Shear Modulus (GPa) = 41.24686 55.84487 48.54586
#
# Velocity S-wave (km/s) = 4.27429 4.97347 4.63708
# Velocity P-wave (km/s) = 7.63434 8.22011 7.93263
#
# Compressibility (1/GPa) = 0.01305670
#
# Stress axis : x y z
#
# Youngs Moduli (GPa) = 156.71710 156.70631 93.66660
#
# Poissons Ratio (x) = -0.42969 0.37151
# Poissons Ratio (y) = -0.42972 0.37154
# Poissons Ratio (z) = 0.62159 0.62159
#
# Static dielectric constant tensor:
#      x y z
#    x 1.841250 0.000000 0.000000 
#    y 0.000000 1.841260 0.000000 
#    z 0.000000 0.000000 1.956480 
# 
# From -- ./inp_files/648.got.cif
#   From: 2010.05.17/outbox.cif.g08.bks.cpg/sg117_1_cif.got.tgz:648.got - 2010.05.20 11:15:09.
