data_PCOD9558246
_publ_section_title
;
Structure prediction by ZEFSAII (Michael W. Deem and Ramdas Pophale) SiO2 
 PCOD9558246
Probable space group: P -4 B 2
;
_chemical_formula_sum "Si O2"
_cell_formula_units_Z 40
_cell_length_a 14.800013
_cell_length_b 14.800013
_cell_length_c 8.694818
_cell_angle_alpha 90.000000
_cell_angle_beta 90.000000
_cell_angle_gamma 90.000000
_cell_volume 1904.516280
_symmetry_space_group_name_H-M "P -4 B 2"
_symmetry_group_IT_number 117
_symmetry_cell_setting 'tetragonal'
loop_
_space_group_symop_operation_xyz
x,y,z
y,-x,-z
-x,-y,z
-y,x,-z
1/2+y,1/2+x,-z
1/2-y,1/2-x,-z
1/2-x,1/2+y,z
1/2+x,1/2-y,z
loop_
_atom_site_type_symbol
_atom_site_label
_atom_site_fract_x
_atom_site_fract_y
_atom_site_fract_z
Si Si1 0.965678 0.673903 0.431282
Si Si2 0.178551 0.796324 0.223982
Si Si3 0.334217 0.834217 0.000000
Si Si4 0.340682 0.159319 0.500000
Si Si5 0.367542 0.439978 0.468051
Si Si6 0.463788 0.168373 0.091656
O O1 0.890662 0.609339 0.500000
O O2 0.932535 0.777061 0.430667
O O3 0.054201 0.672519 0.539024
O O4 0.003851 0.643314 0.265567
O O5 0.182637 0.723735 0.360215
O O6 0.150506 0.889417 0.307005
O O7 0.101309 0.755572 0.111825
O O8 0.274702 0.802159 0.143316
O O9 0.316019 0.940700 0.988832
O O10 0.392501 0.545471 0.455985
O O11 0.407331 0.092670 0.000000
#
# Coordination Sequence:
#
# PCOD9558246 Si02
#       6
#     8   8   4   4   8   8
#     4  11  24  43  74 111 139 187 246 298 366 425
#     4  11  25  46  70 109 142 188 240 296 359 435
#     4  12  27  46  76  99 148 200 228 294 368 441
#     4  10  23  42  70 102 143 176 234 310 336 421
#     4  11  23  42  69 106 144 187 237 304 353 417
#     4  11  25  48  69 104 153 188 237 303 365 440
#
# _framework density 21.002706
#
# number of rings (size 3 to 8) (size 9 to 14) (size 15 to 20)
#    0.000    1.000    5.000    1.800    4.200    9.600 
#    3.600    0.000    2.200    0.000    0.000    0.000 
#    0.000    0.000    0.000    0.000    0.000    0.000 
#
# Total GULP energy -223532.413779 kJ/mol
# GULP energy per Si atom -5588.310344 kJ/mol
# Density = 2.095490 g / cm^3
# Si number density = 21.002706 Si / 1000 Ang^3
#
#
#
# Elastic Constant Matrix: (Units=GPa)
#
#
# Indices 1 2 3 4 5 6 
#
# 1 110.2733 111.4315 58.7109 0.0000 0.0000 0.0000
# 2 111.4315 110.2683 58.7145 0.0000 0.0000 0.0000
# 3 58.7109 58.7145 64.3728 0.0000 0.0000 0.0000
# 4 0.0000 0.0000 0.0000 23.8435 0.0000 0.0000
# 5 0.0000 0.0000 0.0000 0.0000 23.8449 0.0000
# 6 0.0000 0.0000 0.0000 0.0000 0.0000 32.4792
#
#
#
# Elastic Compliance Matrix: (Units=1/GPa)
#
#
# Indices 1 2 3 4 5 6 
#
# 1 -0.426380 0.435149 -0.008023 0.000000 0.000000 0.000000
# 2 0.435149 -0.426468 -0.007894 0.000000 0.000000 0.000000
# 3 -0.008023 -0.007894 0.030052 0.000000 0.000000 0.000000
# 4 0.000000 0.000000 0.000000 0.041940 0.000000 0.000000
# 5 0.000000 0.000000 0.000000 0.000000 0.041938 0.000000
# 6 0.000000 0.000000 0.000000 0.000000 0.000000 0.030789
#
#
# Mechanical properties :
#
#
# Convention : Reuss Voigt Hill
#
# Bulk Modulus (GPa) = 63.81852 82.51423 73.16637
# Shear Modulus (GPa) = -3.24387 19.77070 8.26341
#
# Velocity S-wave (km/s) = -1.24413 3.07146 1.98570
# Velocity P-wave (km/s) = 5.32804 7.20772 6.33795
#
# Compressibility (1/GPa) = 0.01566943
#
# Stress axis : x y z
#
# Youngs Moduli (GPa) = -2.34533 -2.34484 33.27543
#
# Poissons Ratio (x) = 1.02036 0.26698
# Poissons Ratio (y) = 1.02057 0.26268
# Poissons Ratio (z) = -0.01882 -0.01851
#
# Static dielectric constant tensor:
#      x y z
#    x 1.779550 0.000000 0.000000 
#    y 0.000000 1.779550 0.000000 
#    z 0.000000 0.000000 1.807640 
# 
# From -- ./inp_files/1756.got.cif
#   From: 2010.05.17/outbox.cif.g08.bks.cpg/sg117_1_cif.got.tgz:1756.got - 2010.05.20 11:15:09.
