data_PCOD9558845
_publ_section_title
;
Structure prediction by ZEFSAII (Michael W. Deem and Ramdas Pophale) SiO2 
 PCOD9558845
Probable space group: P -4 N 2
;
_chemical_formula_sum "Si O2"
_cell_formula_units_Z 40
_cell_length_a 9.440419
_cell_length_b 9.440419
_cell_length_c 19.725950
_cell_angle_alpha 90.000000
_cell_angle_beta 90.000000
_cell_angle_gamma 90.000000
_cell_volume 1758.006468
_symmetry_space_group_name_H-M "P -4 N 2"
_symmetry_group_IT_number 118
_symmetry_cell_setting 'tetragonal'
loop_
_space_group_symop_operation_xyz
x,y,z
y,-x,-z
-x,-y,z
-y,x,-z
1/2+y,1/2+x,1/2-z
1/2-y,1/2-x,1/2-z
1/2-x,1/2+y,1/2+z
1/2+x,1/2-y,1/2+z
loop_
_atom_site_type_symbol
_atom_site_label
_atom_site_fract_x
_atom_site_fract_y
_atom_site_fract_z
Si Si1 0.425554 0.355058 0.100226
Si Si2 0.861575 0.583567 0.396277
Si Si3 0.394753 0.394581 0.626419
Si Si4 0.736026 0.996040 0.255043
Si Si5 0.899031 0.615570 0.551419
O O1 0.500000 0.500000 0.082570
O O2 0.255019 0.358175 0.108878
O O3 0.492292 0.308760 0.172194
O O4 0.490337 0.244249 0.046393
O O5 0.736955 0.497042 0.360854
O O6 0.855638 0.559468 0.477681
O O7 0.000000 0.500000 0.372297
O O8 0.500000 0.500000 0.586345
O O9 0.343056 0.475019 0.693887
O O10 0.248300 0.354625 0.589015
O O11 0.621661 0.121661 0.250000
O O12 0.650383 0.849618 0.250000
O O13 0.000000 0.500000 0.588442
#
# Coordination Sequence:
#
# PCOD9558845 Si02
#       5
#     8   8   8   8   8
#     4  12  26  45  75 106 147 203 251 311 381 455
#     4  11  28  45  70 112 154 192 249 316 394 455
#     4  12  25  44  72 105 146 194 250 318 381 447
#     4  11  23  45  74 105 141 194 258 311 371 463
#     4  11  25  44  71 106 149 199 248 303 376 475
#
# _framework density 22.753046000000001
#
# number of rings (size 3 to 8) (size 9 to 14) (size 15 to 20)
#    0.000    0.600    2.000    5.400   11.200    0.000 
#    0.000    0.000    0.000    0.000    0.000    0.000 
#    0.000    0.000    0.000    0.000    0.000    0.000 
#
# Total GULP energy -223509.047089 kJ/mol
# GULP energy per Si atom -5587.726177 kJ/mol
# Density = 2.270126 g / cm^3
# Si number density = 22.753046 Si / 1000 Ang^3
#
#
#
# Elastic Constant Matrix: (Units=GPa)
#
#
# Indices 1 2 3 4 5 6 
#
# 1 176.0926 69.6101 10.3887 0.0000 0.0000 0.0000
# 2 69.6101 176.0944 10.3885 0.0000 0.0000 0.0000
# 3 10.3887 10.3885 67.4834 0.0000 0.0000 0.0000
# 4 0.0000 0.0000 0.0000 18.9643 0.0000 0.0000
# 5 0.0000 0.0000 0.0000 0.0000 18.9644 0.0000
# 6 0.0000 0.0000 0.0000 0.0000 0.0000 45.7674
#
#
#
# Elastic Compliance Matrix: (Units=1/GPa)
#
#
# Indices 1 2 3 4 5 6 
#
# 1 0.006757 -0.002634 -0.000635 0.000000 0.000000 0.000000
# 2 -0.002634 0.006757 -0.000635 0.000000 0.000000 0.000000
# 3 -0.000635 -0.000635 0.015014 0.000000 0.000000 0.000000
# 4 0.000000 0.000000 0.000000 0.052731 0.000000 0.000000
# 5 0.000000 0.000000 0.000000 0.000000 0.052730 0.000000
# 6 0.000000 0.000000 0.000000 0.000000 0.000000 0.021850
#
#
# Mechanical properties :
#
#
# Convention : Reuss Voigt Hill
#
# Bulk Modulus (GPa) = 48.25806 66.71614 57.48710
# Shear Modulus (GPa) = 29.31632 38.69143 34.00388
#
# Velocity S-wave (km/s) = 3.59340 4.12818 3.87004
# Velocity P-wave (km/s) = 6.20260 7.21859 6.72979
#
# Compressibility (1/GPa) = 0.02072193
#
# Stress axis : x y z
#
# Youngs Moduli (GPa) = 147.98553 147.98712 66.60496
#
# Poissons Ratio (x) = 0.38976 0.04228
# Poissons Ratio (y) = 0.38976 0.04228
# Poissons Ratio (z) = 0.09394 0.09394
#
# Static dielectric constant tensor:
#      x y z
#    x 1.940120 0.000000 0.000000 
#    y 0.000000 1.940110 0.000000 
#    z 0.000000 0.000000 1.868900 
# 
# From -- ./inp_files/6009.got.cif
#   From: 2010.05.17/outbox.cif.g08.bks.cpg/sg118_4_cif.got.tgz:6009.got - 2010.05.20 11:17:24.
