data_PCOD9558416
_publ_section_title
;
Structure prediction by ZEFSAII (Michael W. Deem and Ramdas Pophale) SiO2 
 PCOD9558416
Probable space group: P -4 N 2
;
_chemical_formula_sum "Si O2"
_cell_formula_units_Z 64
_cell_length_a 18.374181
_cell_length_b 18.374181
_cell_length_c 9.646904
_cell_angle_alpha 90.000000
_cell_angle_beta 90.000000
_cell_angle_gamma 90.000000
_cell_volume 3256.896347
_symmetry_space_group_name_H-M "P -4 N 2"
_symmetry_group_IT_number 118
_symmetry_cell_setting 'tetragonal'
loop_
_space_group_symop_operation_xyz
x,y,z
y,-x,-z
-x,-y,z
-y,x,-z
1/2+y,1/2+x,1/2-z
1/2-y,1/2-x,1/2-z
1/2-x,1/2+y,1/2+z
1/2+x,1/2-y,1/2+z
loop_
_atom_site_type_symbol
_atom_site_label
_atom_site_fract_x
_atom_site_fract_y
_atom_site_fract_z
Si Si1 0.694126 0.794325 0.894208
Si Si2 0.770141 0.637698 0.834216
Si Si3 0.832568 0.047079 0.128137
Si Si4 0.374855 0.779173 0.848441
Si Si5 0.751026 0.847607 0.334108
Si Si6 0.911777 0.183293 0.066240
Si Si7 0.550011 0.626722 0.155344
Si Si8 0.832016 0.999515 0.657195
O O1 0.670708 0.829292 0.750000
O O2 0.724477 0.713096 0.858772
O O3 0.651149 0.743727 0.550042
O O4 0.636702 0.779890 0.013198
O O5 0.840778 0.659223 0.750000
O O6 0.725013 0.585366 0.732458
O O7 0.793390 0.615200 0.987646
O O8 0.871304 0.107566 0.033741
O O9 0.889082 0.015580 0.241357
O O10 0.806054 0.983826 0.024993
O O11 0.344052 0.844052 0.750000
O O12 0.310690 0.717780 0.841645
O O13 0.450997 0.739946 0.815121
O O14 0.683843 0.816158 0.250000
O O15 0.799401 0.913803 0.283727
O O16 0.937436 0.174175 0.226478
O O17 0.604155 0.559675 0.167225
O O18 0.530903 0.649729 0.997696
#
# Coordination Sequence:
#
# PCOD9558416 Si02
#       8
#     8   8   8   8   8   8   8   8
#     4  10  18  36  59  78 106 154 209 253 321 345
#     4  10  19  36  62  77 109 154 203 258 322 344
#     4  12  24  39  53  85 123 168 211 250 300 377
#     4   9  19  34  56  83 107 145 201 266 311 346
#     4   9  18  32  55  79 103 143 196 257 307 340
#     4  12  25  36  56  84 124 170 209 252 299 387
#     4  11  22  37  55  77 119 162 207 240 292 371
#     4  11  23  36  54  81 119 165 209 239 292 371
#
# _framework density 19.65061
#
# number of rings (size 3 to 8) (size 9 to 14) (size 15 to 20)
#    0.000    1.500    3.750    3.000    3.500    5.000 
#    0.000    0.000    0.000    0.000    0.000    0.000 
#    0.000   15.000    0.000    0.000    0.000    0.000 
#
# Total GULP energy -356383.582946 kJ/mol
# GULP energy per Si atom -5568.493484 kJ/mol
# Density = 1.960588 g / cm^3
# Si number density = 19.650610 Si / 1000 Ang^3
#
#
#
# Elastic Constant Matrix: (Units=GPa)
#
#
# Indices 1 2 3 4 5 6 
#
# 1 44.5702 44.0201 11.3523 0.0000 0.0000 0.0000
# 2 44.0201 44.5692 11.3528 0.0000 0.0000 0.0000
# 3 11.3523 11.3528 64.1020 0.0000 0.0000 0.0000
# 4 0.0000 0.0000 0.0000 31.1711 0.0000 0.0000
# 5 0.0000 0.0000 0.0000 0.0000 31.1714 0.0000
# 6 0.0000 0.0000 0.0000 0.0000 0.0000 26.5396
#
#
#
# Elastic Compliance Matrix: (Units=1/GPa)
#
#
# Indices 1 2 3 4 5 6 
#
# 1 0.915709 -0.903897 -0.002085 0.000000 0.000000 0.000000
# 2 -0.903897 0.915736 -0.002103 0.000000 0.000000 0.000000
# 3 -0.002085 -0.002103 0.016342 0.000000 0.000000 0.000000
# 4 0.000000 0.000000 0.000000 0.032081 0.000000 0.000000
# 5 0.000000 0.000000 0.000000 0.000000 0.032081 0.000000
# 6 0.000000 0.000000 0.000000 0.000000 0.000000 0.037679
#
#
# Mechanical properties :
#
#
# Convention : Reuss Voigt Hill
#
# Bulk Modulus (GPa) = 31.63093 31.85465 31.74279
# Shear Modulus (GPa) = 1.32403 23.54417 12.43410
#
# Velocity S-wave (km/s) = 0.82174 3.46517 2.51820
# Velocity P-wave (km/s) = 4.12698 5.67940 4.96425
#
# Compressibility (1/GPa) = 0.03161462
#
# Stress axis : x y z
#
# Youngs Moduli (GPa) = 1.09205 1.09202 61.19245
#
# Poissons Ratio (x) = 0.98707 0.12760
# Poissons Ratio (y) = 0.98710 0.12870
# Poissons Ratio (z) = 0.00228 0.00230
#
# Static dielectric constant tensor:
#      x y z
#    x 1.708310 0.000000 0.000000 
#    y 0.000000 1.708300 0.000000 
#    z 0.000000 0.000000 1.818570 
# 
# From -- ./inp_files/2336.got.cif
#   From: 2010.05.17/outbox.cif.g08.bks.cpg/sg118_2_cif.got.tgz:2336.got - 2010.05.20 11:17:24.
