data_PCOD9558574
_publ_section_title
;
Structure prediction by ZEFSAII (Michael W. Deem and Ramdas Pophale) SiO2 
 PCOD9558574
Probable space group: P -4 N 2
;
_chemical_formula_sum "Si O2"
_cell_formula_units_Z 58
_cell_length_a 17.463551
_cell_length_b 17.463551
_cell_length_c 9.472584
_cell_angle_alpha 90.000000
_cell_angle_beta 90.000000
_cell_angle_gamma 90.000000
_cell_volume 2888.907117
_symmetry_space_group_name_H-M "P -4 N 2"
_symmetry_group_IT_number 118
_symmetry_cell_setting 'tetragonal'
loop_
_space_group_symop_operation_xyz
x,y,z
y,-x,-z
-x,-y,z
-y,x,-z
1/2+y,1/2+x,1/2-z
1/2-y,1/2-x,1/2-z
1/2-x,1/2+y,1/2+z
1/2+x,1/2-y,1/2+z
loop_
_atom_site_type_symbol
_atom_site_label
_atom_site_fract_x
_atom_site_fract_y
_atom_site_fract_z
Si Si1 0.460616 0.888305 0.488083
Si Si2 0.878425 0.252876 0.603849
Si Si3 0.426173 0.184968 0.677168
Si Si4 0.139381 0.771087 0.916058
Si Si5 0.500000 0.000000 0.250000
Si Si6 0.363295 0.743386 0.411157
Si Si7 0.149222 0.211709 0.595006
Si Si8 0.980071 0.693558 0.450263
O O1 0.528046 0.883207 0.600661
O O2 0.494803 0.926991 0.349766
O O3 0.428510 0.804638 0.447169
O O4 0.387781 0.936716 0.542491
O O5 0.895167 0.220846 0.760165
O O6 0.801349 0.303416 0.602969
O O7 0.858942 0.189112 0.484781
O O8 0.948485 0.305182 0.556180
O O9 0.349381 0.150620 0.750000
O O10 0.408304 0.245406 0.554134
O O11 0.483794 0.211183 0.798646
O O12 0.184795 0.846684 0.962979
O O13 0.284196 0.792368 0.403328
O O14 0.373058 0.703032 0.259313
O O15 0.078407 0.242197 0.503584
#
# Coordination Sequence:
#
# PCOD9558574 Si02
#       8
#     8   8   8   8   2   8   8   8
#     4  11  25  36  59  82 127 164 209 237 299 374
#     4  10  21  37  57  85 110 150 203 251 304 355
#     4  12  24  38  54  83 124 169 198 245 293 359
#     4  10  22  36  60  80 115 152 205 258 297 344
#     4  12  24  36  50  84 124 172 194 248 286 378
#     4   9  19  38  58  81 109 157 203 253 298 338
#     4   9  19  35  60  81 110 146 195 252 300 359
#     4  11  22  38  58  82 119 157 201 242 299 365
#
# _framework density 20.076796999999999
#
# number of rings (size 3 to 8) (size 9 to 14) (size 15 to 20)
#    0.000    1.655    1.379    3.724    7.724    0.552 
#    0.000    0.000    0.000    0.414    0.000    0.000 
#    0.000    0.552    0.000    0.000    0.000    0.000 
#
# Total GULP energy -323807.754949 kJ/mol
# GULP energy per Si atom -5582.892327 kJ/mol
# Density = 2.003110 g / cm^3
# Si number density = 20.076797 Si / 1000 Ang^3
#
#
#
# Elastic Constant Matrix: (Units=GPa)
#
#
# Indices 1 2 3 4 5 6 
#
# 1 42.5866 30.2507 30.0453 0.0000 0.0000 0.0000
# 2 30.2507 42.5861 30.0453 0.0000 0.0000 0.0000
# 3 30.0453 30.0453 151.0150 0.0000 0.0000 0.0000
# 4 0.0000 0.0000 0.0000 11.9929 0.0000 0.0000
# 5 0.0000 0.0000 0.0000 0.0000 11.9938 0.0000
# 6 0.0000 0.0000 0.0000 0.0000 0.0000 37.1286
#
#
#
# Elastic Compliance Matrix: (Units=1/GPa)
#
#
# Indices 1 2 3 4 5 6 
#
# 1 0.048745 -0.032320 -0.003268 0.000000 0.000000 0.000000
# 2 -0.032320 0.048746 -0.003268 0.000000 0.000000 0.000000
# 3 -0.003268 -0.003268 0.007922 0.000000 0.000000 0.000000
# 4 0.000000 0.000000 0.000000 0.083383 0.000000 0.000000
# 5 0.000000 0.000000 0.000000 0.000000 0.083376 0.000000
# 6 0.000000 0.000000 0.000000 0.000000 0.000000 0.026933
#
#
# Mechanical properties :
#
#
# Convention : Reuss Voigt Hill
#
# Bulk Modulus (GPa) = 36.09957 46.31893 41.20925
# Shear Modulus (GPa) = 12.95161 21.94616 17.44888
#
# Velocity S-wave (km/s) = 2.54264 3.30981 2.95126
# Velocity P-wave (km/s) = 5.16138 6.14226 5.67306
#
# Compressibility (1/GPa) = 0.02770116
#
# Stress axis : x y z
#
# Youngs Moduli (GPa) = 20.51473 20.51448 126.22763
#
# Poissons Ratio (x) = 0.66304 0.41249
# Poissons Ratio (y) = 0.66305 0.41251
# Poissons Ratio (z) = 0.06704 0.06704
#
# Static dielectric constant tensor:
#      x y z
#    x 1.748860 0.000000 0.000000 
#    y 0.000000 1.748860 0.000000 
#    z 0.000000 0.000000 1.767220 
# 
# From -- ./inp_files/2245.got.cif
#   From: 2010.05.17/outbox.cif.g08.bks.cpg/sg118_2_cif.got.tgz:2245.got - 2010.05.20 11:17:24.
