data_PCOD9558062
_publ_section_title
;
Structure prediction by ZEFSAII (Michael W. Deem and Ramdas Pophale) SiO2 
 PCOD9558062
Probable space group: P -4 B 2
;
_chemical_formula_sum "Si O2"
_cell_formula_units_Z 64
_cell_length_a 12.762137
_cell_length_b 12.762137
_cell_length_c 16.848132
_cell_angle_alpha 90.000000
_cell_angle_beta 90.000000
_cell_angle_gamma 90.000000
_cell_volume 2744.091327
_symmetry_space_group_name_H-M "P -4 B 2"
_symmetry_group_IT_number 117
_symmetry_cell_setting 'tetragonal'
loop_
_space_group_symop_operation_xyz
x,y,z
y,-x,-z
-x,-y,z
-y,x,-z
1/2+y,1/2+x,-z
1/2-y,1/2-x,-z
1/2-x,1/2+y,z
1/2+x,1/2-y,z
loop_
_atom_site_type_symbol
_atom_site_label
_atom_site_fract_x
_atom_site_fract_y
_atom_site_fract_z
Si Si1 0.940511 0.093995 0.260320
Si Si2 0.682202 0.230606 0.590549
Si Si3 0.894200 0.579702 0.727448
Si Si4 0.800743 0.109082 0.841439
Si Si5 0.953330 0.831814 0.991133
Si Si6 0.988338 0.254609 0.821344
Si Si7 0.204379 0.580471 0.629183
Si Si8 0.834468 0.006914 0.488198
O O1 0.829212 0.056078 0.229006
O O2 0.936278 0.196810 0.312966
O O3 0.017166 0.119621 0.186113
O O4 0.000000 0.000000 0.304119
O O5 0.692996 0.192996 0.500000
O O6 0.654799 0.148881 0.656697
O O7 0.786818 0.295882 0.611773
O O8 0.575067 0.298509 0.585872
O O9 0.802419 0.586324 0.792481
O O10 0.986694 0.635250 0.778817
O O11 0.892071 0.469970 0.676357
O O12 0.866865 0.215002 0.822076
O O13 0.774856 0.097516 0.933711
O O14 0.971634 0.764145 0.911856
O O15 0.066315 0.878744 0.017722
O O16 0.239579 0.529393 0.545101
O O17 0.908955 0.092157 0.531854
#
# Coordination Sequence:
#
# PCOD9558062 Si02
#       8
#     8   8   8   8   8   8   8   8
#     4   9  16  27  48  78 106 132 166 209 276 326
#     4  11  21  36  51  75 104 143 179 224 277 326
#     4  11  22  35  52  80 110 143 180 222 273 319
#     4   9  19  32  50  82 111 139 181 213 260 326
#     4   9  15  28  53  82 116 141 167 212 276 336
#     4  10  18  32  53  79 108 150 171 214 268 322
#     4  10  20  33  51  74 108 137 175 230 266 329
#     4   9  19  31  52  83 105 129 165 221 289 341
#
# _framework density 23.322841
#
# number of rings (size 3 to 8) (size 9 to 14) (size 15 to 20)
#    0.000    2.250    3.750    0.000    3.500    1.500 
#    0.000    0.000    0.000    0.750    3.250    0.000 
#    0.000    2.000    0.000    0.000    0.000    0.000 
#
# Total GULP energy -356834.218915 kJ/mol
# GULP energy per Si atom -5575.534671 kJ/mol
# Density = 2.326976 g / cm^3
# Si number density = 23.322841 Si / 1000 Ang^3
#
#
#
# Elastic Constant Matrix: (Units=GPa)
#
#
# Indices 1 2 3 4 5 6 
#
# 1 31.3012 4.5675 17.5981 0.0000 0.0000 0.0000
# 2 4.5675 31.3012 17.5981 0.0000 0.0000 0.0000
# 3 17.5981 17.5981 119.1654 0.0000 0.0000 0.0000
# 4 0.0000 0.0000 0.0000 28.5625 0.0000 0.0000
# 5 0.0000 0.0000 0.0000 0.0000 28.5625 0.0000
# 6 0.0000 0.0000 0.0000 0.0000 0.0000 18.7525
#
#
#
# Elastic Compliance Matrix: (Units=1/GPa)
#
#
# Indices 1 2 3 4 5 6 
#
# 1 0.035005 -0.002401 -0.004815 0.000000 0.000000 0.000000
# 2 -0.002401 0.035005 -0.004815 0.000000 0.000000 0.000000
# 3 -0.004815 -0.004815 0.009814 0.000000 0.000000 0.000000
# 4 0.000000 0.000000 0.000000 0.035011 0.000000 0.000000
# 5 0.000000 0.000000 0.000000 0.000000 0.035011 0.000000
# 6 0.000000 0.000000 0.000000 0.000000 0.000000 0.053326
#
#
# Mechanical properties :
#
#
# Convention : Reuss Voigt Hill
#
# Bulk Modulus (GPa) = 17.93323 29.03278 23.48301
# Shear Modulus (GPa) = 20.34000 24.64243 22.49121
#
# Velocity S-wave (km/s) = 2.95635 3.25403 3.10876
# Velocity P-wave (km/s) = 4.39990 5.15689 4.79337
#
# Compressibility (1/GPa) = 0.05576240
#
# Stress axis : x y z
#
# Youngs Moduli (GPa) = 28.56732 28.56732 101.89723
#
# Poissons Ratio (x) = 0.06859 0.49063
# Poissons Ratio (y) = 0.06859 0.49063
# Poissons Ratio (z) = 0.13755 0.13755
#
# Static dielectric constant tensor:
#      x y z
#    x 2.014510 0.000000 0.000000 
#    y 0.000000 2.014510 0.000000 
#    z 0.000000 0.000000 1.853060 
# 
# From -- ./inp_files/3390.got.cif
#   From: 2010.05.17/outbox.cif.g08.bks.cpg/sg117_2_cif.got.tgz:3390.got - 2010.05.20 11:15:09.
