data_PCOD9558649
_publ_section_title
;
Structure prediction by ZEFSAII (Michael W. Deem and Ramdas Pophale) SiO2 
 PCOD9558649
Probable space group: P -4 N 2
;
_chemical_formula_sum "Si O2"
_cell_formula_units_Z 38
_cell_length_a 17.824226
_cell_length_b 17.824226
_cell_length_c 5.908768
_cell_angle_alpha 90.000000
_cell_angle_beta 90.000000
_cell_angle_gamma 90.000000
_cell_volume 1877.233512
_symmetry_space_group_name_H-M "P -4 N 2"
_symmetry_group_IT_number 118
_symmetry_cell_setting 'tetragonal'
loop_
_space_group_symop_operation_xyz
x,y,z
y,-x,-z
-x,-y,z
-y,x,-z
1/2+y,1/2+x,1/2-z
1/2-y,1/2-x,1/2-z
1/2-x,1/2+y,1/2+z
1/2+x,1/2-y,1/2+z
loop_
_atom_site_type_symbol
_atom_site_label
_atom_site_fract_x
_atom_site_fract_y
_atom_site_fract_z
Si Si1 0.000000 0.000000 0.500000
Si Si2 0.784663 0.953199 0.894336
Si Si3 0.865349 0.076775 0.211164
Si Si4 0.367256 0.022309 0.118886
Si Si5 0.264034 0.951563 0.501270
Si Si6 0.904047 0.595953 0.250000
O O1 0.037124 0.063447 0.664039
O O2 0.846699 0.889424 0.906660
O O3 0.773243 0.979022 0.634767
O O4 0.701103 0.937206 0.985298
O O5 0.823779 0.020552 0.037565
O O6 0.803818 0.094717 0.400974
O O7 0.422166 0.077835 0.250000
O O8 0.321050 0.975540 0.304539
O O9 0.410698 0.966848 0.946447
O O10 0.318417 0.912367 0.675981
#
# Coordination Sequence:
#
# PCOD9558649 Si02
#       6
#     2   8   8   8   8   4
#     4  12  20  34  68  96 122 172 240 266 336 384
#     4  10  22  38  64  90 135 169 217 273 329 392
#     4  11  21  37  61  95 128 173 217 274 322 395
#     4  10  23  42  69  95 129 166 221 278 336 398
#     4  10  22  39  64  90 131 165 216 271 329 392
#     4  10  22  41  66  96 124 172 214 278 327 400
#
# _framework density 20.242553999999998
#
# number of rings (size 3 to 8) (size 9 to 14) (size 15 to 20)
#    0.000    1.684    2.105    1.895    0.000    5.895 
#    0.000    0.000   55.579    0.000    0.000    0.000 
#    0.000    0.000    0.000    0.000    0.000    0.000 
#
# Total GULP energy -212002.501074 kJ/mol
# GULP energy per Si atom -5579.013186 kJ/mol
# Density = 2.019648 g / cm^3
# Si number density = 20.242554 Si / 1000 Ang^3
#
#
#
# Elastic Constant Matrix: (Units=GPa)
#
#
# Indices 1 2 3 4 5 6 
#
# 1 93.1782 58.7804 25.3244 0.0000 0.0000 0.0000
# 2 58.7804 93.1785 25.3229 0.0000 0.0000 0.0000
# 3 25.3244 25.3229 65.3513 0.0000 0.0000 0.0000
# 4 0.0000 0.0000 0.0000 33.6564 0.0000 0.0000
# 5 0.0000 0.0000 0.0000 0.0000 33.6572 0.0000
# 6 0.0000 0.0000 0.0000 0.0000 0.0000 12.4900
#
#
#
# Elastic Compliance Matrix: (Units=1/GPa)
#
#
# Indices 1 2 3 4 5 6 
#
# 1 0.018314 -0.010757 -0.002929 0.000000 0.000000 0.000000
# 2 -0.010757 0.018314 -0.002928 0.000000 0.000000 0.000000
# 3 -0.002929 -0.002928 0.017571 0.000000 0.000000 0.000000
# 4 0.000000 0.000000 0.000000 0.029712 0.000000 0.000000
# 5 0.000000 0.000000 0.000000 0.000000 0.029711 0.000000
# 6 0.000000 0.000000 0.000000 0.000000 0.000000 0.080064
#
#
# Mechanical properties :
#
#
# Convention : Reuss Voigt Hill
#
# Bulk Modulus (GPa) = 47.68310 52.28482 49.98396
# Shear Modulus (GPa) = 21.37616 25.44607 23.41112
#
# Velocity S-wave (km/s) = 3.25314 3.54935 3.40447
# Velocity P-wave (km/s) = 6.14146 6.53318 6.34035
#
# Compressibility (1/GPa) = 0.02097179
#
# Stress axis : x y z
#
# Youngs Moduli (GPa) = 54.60228 54.60324 56.91105
#
# Poissons Ratio (x) = 0.58739 0.16667
# Poissons Ratio (y) = 0.58738 0.16663
# Poissons Ratio (z) = 0.15991 0.15987
#
# Static dielectric constant tensor:
#      x y z
#    x 1.709660 0.000000 0.000000 
#    y 0.000000 1.709660 0.000000 
#    z 0.000000 0.000000 1.823050 
# 
# From -- ./inp_files/638.got.cif
#   From: 2010.05.17/outbox.cif.g08.bks.cpg/sg118_1_cif.got.tgz:638.got - 2010.05.20 11:17:24.
