data_PCOD9558851
_publ_section_title
;
Structure prediction by ZEFSAII (Michael W. Deem and Ramdas Pophale) SiO2 
 PCOD9558851
Probable space group: P -4 N 2
;
_chemical_formula_sum "Si O2"
_cell_formula_units_Z 40
_cell_length_a 11.313391
_cell_length_b 11.313391
_cell_length_c 15.532792
_cell_angle_alpha 90.000000
_cell_angle_beta 90.000000
_cell_angle_gamma 90.000000
_cell_volume 1988.085787
_symmetry_space_group_name_H-M "P -4 N 2"
_symmetry_group_IT_number 118
_symmetry_cell_setting 'tetragonal'
loop_
_space_group_symop_operation_xyz
x,y,z
y,-x,-z
-x,-y,z
-y,x,-z
1/2+y,1/2+x,1/2-z
1/2-y,1/2-x,1/2-z
1/2-x,1/2+y,1/2+z
1/2+x,1/2-y,1/2+z
loop_
_atom_site_type_symbol
_atom_site_label
_atom_site_fract_x
_atom_site_fract_y
_atom_site_fract_z
Si Si1 0.865834 0.022631 0.887639
Si Si2 0.441845 0.869355 0.159757
Si Si3 0.174475 0.140506 0.284478
Si Si4 0.279519 0.307849 0.540858
Si Si5 0.364498 0.615393 0.967910
O O1 0.878380 0.084954 0.794453
O O2 0.807483 0.893062 0.896572
O O3 0.807409 0.108807 0.958580
O O4 0.000000 0.000000 0.912544
O O5 0.374497 0.874497 0.250000
O O6 0.541659 0.769791 0.181820
O O7 0.340238 0.848873 0.088740
O O8 0.500000 0.000000 0.145813
O O9 0.252819 0.247182 0.250000
O O10 0.105736 0.162982 0.373150
O O11 0.251465 0.179122 0.502477
O O12 0.474988 0.644295 0.028740
#
# Coordination Sequence:
#
# PCOD9558851 Si02
#       5
#     8   8   8   8   8
#     4  12  26  41  70 103 146 187 231 290 363 426
#     4  11  24  39  70 105 135 178 243 303 343 409
#     4  12  24  45  70 100 141 184 237 301 355 419
#     4  12  24  44  68 106 142 188 238 293 359 436
#     4  11  26  46  71 103 140 190 236 298 369 424
#
# _framework density 20.119858000000001
#
# number of rings (size 3 to 8) (size 9 to 14) (size 15 to 20)
#    0.000    0.400    8.000    1.200    5.600    1.600 
#    0.000    0.000    0.000    1.200    0.000    0.000 
#    0.000    0.000    0.000    0.000    0.000    0.000 
#
# Total GULP energy -222907.285586 kJ/mol
# GULP energy per Si atom -5572.682140 kJ/mol
# Density = 2.007406 g / cm^3
# Si number density = 20.119858 Si / 1000 Ang^3
#
#
#
# Elastic Constant Matrix: (Units=GPa)
#
#
# Indices 1 2 3 4 5 6 
#
# 1 61.7034 65.4978 32.3579 0.0000 0.0000 0.0000
# 2 65.4978 61.7042 32.3591 0.0000 0.0000 0.0000
# 3 32.3579 32.3591 128.4311 0.0000 0.0000 0.0000
# 4 0.0000 0.0000 0.0000 30.7819 0.0000 0.0000
# 5 0.0000 0.0000 0.0000 0.0000 30.7814 0.0000
# 6 0.0000 0.0000 0.0000 0.0000 0.0000 34.7811
#
#
#
# Elastic Compliance Matrix: (Units=1/GPa)
#
#
# Indices 1 2 3 4 5 6 
#
# 1 -0.127280 0.136297 -0.002273 0.000000 0.000000 0.000000
# 2 0.136297 -0.127279 -0.002271 0.000000 0.000000 0.000000
# 3 -0.002273 -0.002271 0.008931 0.000000 0.000000 0.000000
# 4 0.000000 0.000000 0.000000 0.032487 0.000000 0.000000
# 5 0.000000 0.000000 0.000000 0.000000 0.032487 0.000000
# 6 0.000000 0.000000 0.000000 0.000000 0.000000 0.028751
#
#
# Mechanical properties :
#
#
# Convention : Reuss Voigt Hill
#
# Bulk Modulus (GPa) = 55.93413 56.91870 56.42641
# Shear Modulus (GPa) = -12.21152 27.37714 7.58281
#
# Velocity S-wave (km/s) = -2.46629 3.69277 1.94345
# Velocity P-wave (km/s) = 4.44418 6.82153 5.75691
#
# Compressibility (1/GPa) = 0.01787817
#
# Stress axis : x y z
#
# Youngs Moduli (GPa) = -7.85671 -7.85674 111.96789
#
# Poissons Ratio (x) = 1.07085 0.25451
# Poissons Ratio (y) = 1.07085 0.25427
# Poissons Ratio (z) = -0.01786 -0.01784
#
# Static dielectric constant tensor:
#      x y z
#    x 1.770970 0.000000 0.000000 
#    y 0.000000 1.770980 0.000000 
#    z 0.000000 0.000000 1.781700 
# 
# From -- ./inp_files/4055.got.cif
#   From: 2010.05.17/outbox.cif.g08.bks.cpg/sg118_3_cif.got.tgz:4055.got - 2010.05.20 11:17:24.
