data_PCOD9558089
_publ_section_title
;
Structure prediction by ZEFSAII (Michael W. Deem and Ramdas Pophale) SiO2 
 PCOD9558089
Probable space group: P -4 B 2
;
_chemical_formula_sum "Si O2"
_cell_formula_units_Z 56
_cell_length_a 11.355614
_cell_length_b 11.355614
_cell_length_c 21.992023
_cell_angle_alpha 90.000000
_cell_angle_beta 90.000000
_cell_angle_gamma 90.000000
_cell_volume 2835.870691
_symmetry_space_group_name_H-M "P -4 B 2"
_symmetry_group_IT_number 117
_symmetry_cell_setting 'tetragonal'
loop_
_space_group_symop_operation_xyz
x,y,z
y,-x,-z
-x,-y,z
-y,x,-z
1/2+y,1/2+x,-z
1/2-y,1/2-x,-z
1/2-x,1/2+y,z
1/2+x,1/2-y,z
loop_
_atom_site_type_symbol
_atom_site_label
_atom_site_fract_x
_atom_site_fract_y
_atom_site_fract_z
Si Si1 0.724018 0.454167 0.440500
Si Si2 0.536128 0.808095 0.867576
Si Si3 0.286876 0.636658 0.572433
Si Si4 0.092994 0.105952 0.205423
Si Si5 0.185281 0.463014 0.884682
Si Si6 0.309887 0.514319 0.006436
Si Si7 0.629044 0.545651 0.663086
O O1 0.727025 0.597756 0.427930
O O2 0.690331 0.439732 0.511368
O O3 0.822278 0.349703 0.433004
O O4 0.633278 0.400369 0.391883
O O5 0.554125 0.719548 0.812334
O O6 0.404148 0.856204 0.874191
O O7 0.621065 0.919382 0.862122
O O8 0.562318 0.744236 0.931555
O O9 0.297561 0.559209 0.633097
O O10 0.058916 0.198788 0.153873
O O11 0.094249 0.168714 0.271759
O O12 0.000000 0.000000 0.200853
O O13 0.215499 0.480553 0.955517
O O14 0.399217 0.611501 0.979839
O O15 0.500000 0.500000 0.678554
#
# Coordination Sequence:
#
# PCOD9558089 Si02
#       7
#     8   8   8   8   8   8   8
#     4  10  19  35  61  93 124 166 210 269 315 384
#     4  11  25  42  63  93 124 165 212 264 328 386
#     4  10  19  35  63  92 128 161 219 262 324 378
#     4  11  24  42  65  91 126 166 218 257 311 393
#     4  11  25  42  63  91 127 165 207 269 328 380
#     4  11  22  37  64  97 121 155 210 269 324 390
#     4   9  20  38  61  91 118 165 213 251 303 387
#
# _framework density 19.747022000000001
#
# number of rings (size 3 to 8) (size 9 to 14) (size 15 to 20)
#    0.000    1.571    2.857    1.714    4.000    3.429 
#    5.143    0.714    0.000    0.000    0.000    0.000 
#    0.000    0.000    0.000    0.000    0.000    0.000 
#
# Total GULP energy -311853.525460 kJ/mol
# GULP energy per Si atom -5568.812955 kJ/mol
# Density = 1.970208 g / cm^3
# Si number density = 19.747022 Si / 1000 Ang^3
#
#
#
# Elastic Constant Matrix: (Units=GPa)
#
#
# Indices 1 2 3 4 5 6 
#
# 1 52.1303 18.0850 25.1675 0.0000 0.0000 0.0000
# 2 18.0850 52.1303 25.1675 0.0000 0.0000 0.0000
# 3 25.1675 25.1675 104.7922 0.0000 0.0000 0.0000
# 4 0.0000 0.0000 0.0000 71.9978 0.0000 0.0000
# 5 0.0000 0.0000 0.0000 0.0000 71.9978 0.0000
# 6 0.0000 0.0000 0.0000 0.0000 0.0000 13.7579
#
#
#
# Elastic Compliance Matrix: (Units=1/GPa)
#
#
# Indices 1 2 3 4 5 6 
#
# 1 0.023288 -0.006084 -0.004132 0.000000 0.000000 0.000000
# 2 -0.006084 0.023288 -0.004132 0.000000 0.000000 0.000000
# 3 -0.004132 -0.004132 0.011527 0.000000 0.000000 0.000000
# 4 0.000000 0.000000 0.000000 0.013889 0.000000 0.000000
# 5 0.000000 0.000000 0.000000 0.000000 0.013889 0.000000
# 6 0.000000 0.000000 0.000000 0.000000 0.000000 0.072685
#
#
# Mechanical properties :
#
#
# Convention : Reuss Voigt Hill
#
# Bulk Modulus (GPa) = 34.00446 38.43252 36.21849
# Shear Modulus (GPa) = 25.37219 40.92622 33.14920
#
# Velocity S-wave (km/s) = 3.58839 4.55744 4.10163
# Velocity P-wave (km/s) = 5.86738 6.87011 6.38845
#
# Compressibility (1/GPa) = 0.02940791
#
# Stress axis : x y z
#
# Youngs Moduli (GPa) = 42.94016 42.94016 86.75046
#
# Poissons Ratio (x) = 0.26126 0.35843
# Poissons Ratio (y) = 0.26126 0.35843
# Poissons Ratio (z) = 0.17742 0.17742
#
# Static dielectric constant tensor:
#      x y z
#    x 1.671020 0.000000 0.000000 
#    y 0.000000 1.671020 0.000000 
#    z 0.000000 0.000000 1.747360 
# 
# From -- ./inp_files/3482.got.cif
#   From: 2010.05.17/outbox.cif.g08.bks.cpg/sg117_2_cif.got.tgz:3482.got - 2010.05.20 11:15:09.
