data_PCOD9558371
_publ_section_title
;
Structure prediction by ZEFSAII (Michael W. Deem and Ramdas Pophale) SiO2 
 PCOD9558371
Probable space group: P -4 B 2
;
_chemical_formula_sum "Si O2"
_cell_formula_units_Z 40
_cell_length_a 15.000000
_cell_length_b 15.000000
_cell_length_c 9.000000
_cell_angle_alpha 90.000000
_cell_angle_beta 90.000000
_cell_angle_gamma 90.000000
_cell_volume 2025.000000
_symmetry_space_group_name_H-M "P -4 B 2"
_symmetry_group_IT_number 117
_symmetry_cell_setting 'tetragonal'
loop_
_space_group_symop_operation_xyz
x,y,z
y,-x,-z
-x,-y,z
-y,x,-z
1/2+y,1/2+x,-z
1/2-y,1/2-x,-z
1/2-x,1/2+y,z
1/2+x,1/2-y,z
loop_
_atom_site_type_symbol
_atom_site_label
_atom_site_fract_x
_atom_site_fract_y
_atom_site_fract_z
Si Si1 0.023974 0.857508 0.541910
Si Si2 0.491900 0.279949 0.865891
Si Si3 0.448989 0.088539 0.826400
Si Si4 0.679275 0.684815 0.065245
Si Si5 0.724620 0.868046 0.633539
O O1 0.048569 0.771539 0.445189
O O2 0.930833 0.900813 0.494791
O O3 0.024817 0.834586 0.715579
O O4 0.507705 0.177545 0.820032
O O5 0.579053 0.314854 0.947631
O O6 0.406295 0.283238 0.972035
O O7 0.364190 0.105768 0.722747
O O8 0.500000 0.000000 0.779879
O O9 0.423191 0.076810 0.000000
O O10 0.670074 0.711104 0.238347
O O11 0.764378 0.735623 0.000000
O O12 0.699142 0.800859 0.500000
#
# Coordination Sequence:
#
# PCOD9558371 Si02
#       5
#     8   8   8   8   8
#     4  11  25  43  66  98 138 177 224 276 348 420
#     4  12  25  45  69 102 136 180 230 284 349 414
#     4  11  24  44  67  95 133 175 225 285 338 407
#     4  12  26  45  72 103 136 182 232 286 345 418
#     4  12  22  46  69  93 139 180 218 291 340 403
#
# _framework density 19.753086
#
# number of rings (size 3 to 8) (size 9 to 14) (size 15 to 20)
#    0.000    0.400    8.000    0.000    5.600    0.800 
#    3.600    0.000    0.000    0.000    0.000    0.000 
#    0.000    0.000    0.000    0.000    0.000    0.000 
#
# Total GULP energy -223553.891686 kJ/mol
# GULP energy per Si atom -5588.847292 kJ/mol
# Density = 1.970813 g / cm^3
# Si number density = 19.753086 Si / 1000 Ang^3
#
#
#
# Elastic Constant Matrix: (Units=GPa)
#
#
# Indices 1 2 3 4 5 6 
#
# 1 43.1545 5.0154 9.4665 0.0000 0.0000 0.0000
# 2 5.0154 43.1584 9.4672 0.0000 0.0000 0.0000
# 3 9.4665 9.4672 94.0643 0.0000 0.0000 0.0000
# 4 0.0000 0.0000 0.0000 27.7746 0.0000 0.0000
# 5 0.0000 0.0000 0.0000 0.0000 27.7748 0.0000
# 6 0.0000 0.0000 0.0000 0.0000 0.0000 23.3966
#
#
#
# Elastic Compliance Matrix: (Units=1/GPa)
#
#
# Indices 1 2 3 4 5 6 
#
# 1 0.023917 -0.002302 -0.002175 0.000000 0.000000 0.000000
# 2 -0.002302 0.023915 -0.002175 0.000000 0.000000 0.000000
# 3 -0.002175 -0.002175 0.011069 0.000000 0.000000 0.000000
# 4 0.000000 0.000000 0.000000 0.036004 0.000000 0.000000
# 5 0.000000 0.000000 0.000000 0.000000 0.036004 0.000000
# 6 0.000000 0.000000 0.000000 0.000000 0.000000 0.042741
#
#
# Mechanical properties :
#
#
# Convention : Reuss Voigt Hill
#
# Bulk Modulus (GPa) = 21.93189 25.36394 23.64791
# Shear Modulus (GPa) = 24.73351 26.21772 25.47562
#
# Velocity S-wave (km/s) = 3.54239 3.64713 3.59514
# Velocity P-wave (km/s) = 5.27811 5.53207 5.40658
#
# Compressibility (1/GPa) = 0.04559572
#
# Stress axis : x y z
#
# Youngs Moduli (GPa) = 41.81076 41.81443 90.34343
#
# Poissons Ratio (x) = 0.09627 0.19652
# Poissons Ratio (y) = 0.09626 0.19652
# Poissons Ratio (z) = 0.09095 0.09096
#
# Static dielectric constant tensor:
#      x y z
#    x 1.703910 0.000000 0.000000 
#    y 0.000000 1.703910 0.000000 
#    z 0.000000 0.000000 1.666210 
# 
# From -- ./inp_files/1707.got.cif
#   From: 2010.05.17/outbox.ucp.g08.bks.cvg/sg117_1_cif.got.tgz:1707.got - 2010.06.11 11:34:02.
