data_PCOD9558433
_publ_section_title
;
Structure prediction by ZEFSAII (Michael W. Deem and Ramdas Pophale) SiO2 
 PCOD9558433
Probable space group: P -4 N 2
;
_chemical_formula_sum "Si O2"
_cell_formula_units_Z 48
_cell_length_a 10.874934
_cell_length_b 10.874934
_cell_length_c 21.401216
_cell_angle_alpha 90.000000
_cell_angle_beta 90.000000
_cell_angle_gamma 90.000000
_cell_volume 2530.997465
_symmetry_space_group_name_H-M "P -4 N 2"
_symmetry_group_IT_number 118
_symmetry_cell_setting 'tetragonal'
loop_
_space_group_symop_operation_xyz
x,y,z
y,-x,-z
-x,-y,z
-y,x,-z
1/2+y,1/2+x,1/2-z
1/2-y,1/2-x,1/2-z
1/2-x,1/2+y,1/2+z
1/2+x,1/2-y,1/2+z
loop_
_atom_site_type_symbol
_atom_site_label
_atom_site_fract_x
_atom_site_fract_y
_atom_site_fract_z
Si Si1 0.052533 0.880347 0.393223
Si Si2 0.846829 0.230740 0.966269
Si Si3 0.997318 0.753158 0.510911
Si Si4 0.439204 0.876509 0.402352
Si Si5 0.351807 0.517950 0.408224
Si Si6 0.251938 0.223442 0.823747
O O1 0.972534 0.798093 0.440816
O O2 0.124874 0.782091 0.352613
O O3 0.142124 0.952908 0.441486
O O4 0.000000 0.000000 0.357196
O O5 0.775131 0.356637 0.983058
O O6 0.958655 0.282874 0.925161
O O7 0.796321 0.115542 0.926537
O O8 0.896253 0.173635 0.031160
O O9 0.922287 0.636298 0.536474
O O10 0.352571 0.812795 0.352210
O O11 0.500000 0.000000 0.375988
O O12 0.500000 0.500000 0.400015
O O13 0.286277 0.589853 0.351313
O O14 0.265837 0.234163 0.750000
#
# Coordination Sequence:
#
# PCOD9558433 Si02
#       6
#     8   8   8   8   8   8
#     4  11  20  36  58  84 117 155 199 255 302 369
#     4  11  19  33  56  90 124 144 190 258 323 358
#     4  10  19  32  56  88 121 144 189 253 315 363
#     4   9  20  35  56  89 118 153 195 249 314 362
#     4  12  20  32  57  87 121 155 191 255 305 363
#     4  11  24  39  54  82 121 164 208 244 292 373
#
# _framework density 18.964853999999999
#
# number of rings (size 3 to 8) (size 9 to 14) (size 15 to 20)
#    0.000    1.333    6.667    0.000    2.333    1.000 
#    0.000    0.000    0.000    0.000    0.000    8.167 
#    0.000    0.000    0.000    0.000    0.000    0.000 
#
# Total GULP energy -267567.290104 kJ/mol
# GULP energy per Si atom -5574.318544 kJ/mol
# Density = 1.892169 g / cm^3
# Si number density = 18.964854 Si / 1000 Ang^3
#
#
#
# Elastic Constant Matrix: (Units=GPa)
#
#
# Indices 1 2 3 4 5 6 
#
# 1 92.3096 25.4983 38.3352 0.0000 0.0000 0.0000
# 2 25.4983 92.3096 38.3352 0.0000 0.0000 0.0000
# 3 38.3352 38.3352 115.6761 0.0000 0.0000 0.0000
# 4 0.0000 0.0000 0.0000 15.1087 0.0000 0.0000
# 5 0.0000 0.0000 0.0000 0.0000 15.1087 0.0000
# 6 0.0000 0.0000 0.0000 0.0000 0.0000 38.5051
#
#
#
# Elastic Compliance Matrix: (Units=1/GPa)
#
#
# Indices 1 2 3 4 5 6 
#
# 1 0.012895 -0.002072 -0.003587 0.000000 0.000000 0.000000
# 2 -0.002072 0.012895 -0.003587 0.000000 0.000000 0.000000
# 3 -0.003587 -0.003587 0.011022 0.000000 0.000000 0.000000
# 4 0.000000 0.000000 0.000000 0.066187 0.000000 0.000000
# 5 0.000000 0.000000 0.000000 0.000000 0.066187 0.000000
# 6 0.000000 0.000000 0.000000 0.000000 0.000000 0.025971
#
#
# Mechanical properties :
#
#
# Convention : Reuss Voigt Hill
#
# Bulk Modulus (GPa) = 54.58290 56.07031 55.32661
# Shear Modulus (GPa) = 22.75255 26.95293 24.85274
#
# Velocity S-wave (km/s) = 3.46746 3.77398 3.62396
# Velocity P-wave (km/s) = 6.69885 6.97281 6.83720
#
# Compressibility (1/GPa) = 0.01832076
#
# Stress axis : x y z
#
# Youngs Moduli (GPa) = 77.54908 77.54908 90.72723
#
# Poissons Ratio (x) = 0.16072 0.32540
# Poissons Ratio (y) = 0.16072 0.32540
# Poissons Ratio (z) = 0.27814 0.27814
#
# Static dielectric constant tensor:
#      x y z
#    x 1.748160 0.000000 0.000000 
#    y 0.000000 1.748160 0.000000 
#    z 0.000000 0.000000 1.610680 
# 
# From -- ./inp_files/4928.got.cif
#   From: 2010.05.17/outbox.cif.g08.bks.cpg/sg118_3_cif.got.tgz:4928.got - 2010.05.20 11:17:24.
