data_PCOD9558366
_publ_section_title
;
Structure prediction by ZEFSAII (Michael W. Deem and Ramdas Pophale) SiO2 
 PCOD9558366
Probable space group: P -4 B 2
;
_chemical_formula_sum "Si O2"
_cell_formula_units_Z 18
_cell_length_a 12.067989
_cell_length_b 12.067989
_cell_length_c 4.867635
_cell_angle_alpha 90.000000
_cell_angle_beta 90.000000
_cell_angle_gamma 90.000000
_cell_volume 708.904636
_symmetry_space_group_name_H-M "P -4 B 2"
_symmetry_group_IT_number 117
_symmetry_cell_setting 'tetragonal'
loop_
_space_group_symop_operation_xyz
x,y,z
y,-x,-z
-x,-y,z
-y,x,-z
1/2+y,1/2+x,-z
1/2-y,1/2-x,-z
1/2-x,1/2+y,z
1/2+x,1/2-y,z
loop_
_atom_site_type_symbol
_atom_site_label
_atom_site_fract_x
_atom_site_fract_y
_atom_site_fract_z
Si Si1 0.500000 0.000000 0.500000
Si Si2 0.248041 0.517996 0.636730
Si Si3 0.289774 0.380719 0.110491
O O1 0.494489 0.115141 0.328870
O O2 0.290586 0.637197 0.730239
O O3 0.022008 0.234685 0.673440
O O4 0.325559 0.440572 0.830219
O O5 0.183839 0.316162 0.000000
#
# Coordination Sequence:
#
# PCOD9558366 Si02
#       3
#     2   8   8
#     4  12  28  50  84 122 148 230 276 342 416 514
#     4  12  29  48  83 111 164 209 279 337 428 497
#     4  12  27  50  76 120 158 211 269 355 409 504
#
# _framework density 25.391286000000001
#
# number of rings (size 3 to 8) (size 9 to 14) (size 15 to 20)
#    0.000    0.000    4.444    2.667   12.444    7.111 
#    0.000    0.000    0.000    0.000    0.000    0.000 
#    0.000    0.000    0.000    0.000    0.000    0.000 
#
# Total GULP energy -100544.773401 kJ/mol
# GULP energy per Si atom -5585.820744 kJ/mol
# Density = 2.533349 g / cm^3
# Si number density = 25.391286 Si / 1000 Ang^3
#
#
#
# Elastic Constant Matrix: (Units=GPa)
#
#
# Indices 1 2 3 4 5 6 
#
# 1 95.5180 75.7676 43.4199 0.0000 0.0000 0.0000
# 2 75.7676 95.5142 43.4163 0.0000 0.0000 0.0000
# 3 43.4199 43.4163 150.3374 0.0000 0.0000 0.0000
# 4 0.0000 0.0000 0.0000 48.5127 0.0000 0.0000
# 5 0.0000 0.0000 0.0000 0.0000 48.5146 0.0000
# 6 0.0000 0.0000 0.0000 0.0000 0.0000 39.7675
#
#
#
# Elastic Compliance Matrix: (Units=1/GPa)
#
#
# Indices 1 2 3 4 5 6 
#
# 1 0.028738 -0.021899 -0.001976 0.000000 0.000000 0.000000
# 2 -0.021899 0.028739 -0.001975 0.000000 0.000000 0.000000
# 3 -0.001976 -0.001975 0.007793 0.000000 0.000000 0.000000
# 4 0.000000 0.000000 0.000000 0.020613 0.000000 0.000000
# 5 0.000000 0.000000 0.000000 0.000000 0.020612 0.000000
# 6 0.000000 0.000000 0.000000 0.000000 0.000000 0.025146
#
#
# Mechanical properties :
#
#
# Convention : Reuss Voigt Hill
#
# Bulk Modulus (GPa) = 73.68791 74.06412 73.87602
# Shear Modulus (GPa) = 26.61517 39.27667 32.94592
#
# Velocity S-wave (km/s) = 3.24111 3.93728 3.60603
# Velocity P-wave (km/s) = 6.56432 7.06413 6.81881
#
# Compressibility (1/GPa) = 0.01357075
#
# Stress axis : x y z
#
# Youngs Moduli (GPa) = 34.79724 34.79649 128.32558
#
# Poissons Ratio (x) = 0.76199 0.25355
# Poissons Ratio (y) = 0.76201 0.25342
# Poissons Ratio (z) = 0.06875 0.06872
#
# Static dielectric constant tensor:
#      x y z
#    x 2.134910 0.000000 0.000000 
#    y 0.000000 2.134940 0.000000 
#    z 0.000000 0.000000 1.990540 
# 
# From -- ./inp_files/126.got.cif
#   From: 2010.05.17/outbox.cif.g08.bks.cpg/sg117_1_cif.got.tgz:126.got - 2010.05.20 11:15:09.
