data_PCOD9558915
_publ_section_title
;
Structure prediction by ZEFSAII (Michael W. Deem and Ramdas Pophale) SiO2 
 PCOD9558915
Probable space group: P -4 N 2
;
_chemical_formula_sum "Si O2"
_cell_formula_units_Z 18
_cell_length_a 7.059299
_cell_length_b 7.059299
_cell_length_c 11.473174
_cell_angle_alpha 90.000000
_cell_angle_beta 90.000000
_cell_angle_gamma 90.000000
_cell_volume 571.750738
_symmetry_space_group_name_H-M "P -4 N 2"
_symmetry_group_IT_number 118
_symmetry_cell_setting 'tetragonal'
loop_
_space_group_symop_operation_xyz
x,y,z
y,-x,-z
-x,-y,z
-y,x,-z
1/2+y,1/2+x,1/2-z
1/2-y,1/2-x,1/2-z
1/2-x,1/2+y,1/2+z
1/2+x,1/2-y,1/2+z
loop_
_atom_site_type_symbol
_atom_site_label
_atom_site_fract_x
_atom_site_fract_y
_atom_site_fract_z
Si Si1 0.500000 0.500000 0.000000
Si Si2 0.620439 0.823940 0.581841
Si Si3 0.978746 0.218634 0.813801
O O1 0.389624 0.339302 0.928371
O O2 0.560234 0.650374 0.665821
O O3 0.224029 0.555261 0.550038
O O4 0.129914 0.370087 0.750000
O O5 0.000000 0.500000 0.118621
O O6 0.787869 0.287869 0.750000
#
# Coordination Sequence:
#
# PCOD9558915 Si02
#       3
#     2   8   8
#     4  12  24  44  88 120 168 270 284 388 524 560
#     4  12  24  52  89 130 194 259 312 421 501 573
#     4  12  26  52  90 140 192 254 334 407 505 608
#
# _framework density 31.482246
#
# number of rings (size 3 to 8) (size 9 to 14) (size 15 to 20)
#    0.000    0.000    8.889    0.000    3.111    0.889 
#    0.000    0.000    0.000    0.000    0.000    0.000 
#    0.000    0.000    0.000    0.000    0.000    0.000 
#
# Total GULP energy -100685.190012 kJ/mol
# GULP energy per Si atom -5593.621667 kJ/mol
# Density = 3.141059 g / cm^3
# Si number density = 31.482246 Si / 1000 Ang^3
#
#
#
# Elastic Constant Matrix: (Units=GPa)
#
#
# Indices 1 2 3 4 5 6 
#
# 1 228.6226 -3.3958 32.2542 0.0000 0.0000 0.0000
# 2 -3.3958 228.6237 32.2544 0.0000 0.0000 0.0000
# 3 32.2542 32.2544 206.1986 0.0000 0.0000 0.0000
# 4 0.0000 0.0000 0.0000 -4.2812 0.0000 0.0000
# 5 0.0000 0.0000 0.0000 0.0000 -4.2813 0.0000
# 6 0.0000 0.0000 0.0000 0.0000 0.0000 75.6905
#
#
#
# Elastic Compliance Matrix: (Units=1/GPa)
#
#
# Indices 1 2 3 4 5 6 
#
# 1 0.004479 0.000169 -0.000727 0.000000 0.000000 0.000000
# 2 0.000169 0.004479 -0.000727 0.000000 0.000000 0.000000
# 3 -0.000727 -0.000727 0.005077 0.000000 0.000000 0.000000
# 4 0.000000 0.000000 0.000000 -0.233579 0.000000 0.000000
# 5 0.000000 0.000000 0.000000 0.000000 -0.233575 0.000000
# 6 0.000000 0.000000 0.000000 0.000000 0.000000 0.013212
#
#
# Mechanical properties :
#
#
# Convention : Reuss Voigt Hill
#
# Bulk Modulus (GPa) = 87.22030 87.29673 87.25851
# Shear Modulus (GPa) = -11.53362 53.58108 21.02373
#
# Velocity S-wave (km/s) = -1.91611 4.12994 2.58698
# Velocity P-wave (km/s) = 4.78220 7.10851 6.05807
#
# Compressibility (1/GPa) = 0.01146522
#
# Stress axis : x y z
#
# Youngs Moduli (GPa) = 223.25861 223.25965 196.96049
#
# Poissons Ratio (x) = -0.03775 0.14321
# Poissons Ratio (y) = -0.03775 0.14321
# Poissons Ratio (z) = 0.16233 0.16233
#
# Static dielectric constant tensor:
#      x y z
#    x 4.320590 0.000000 0.000000 
#    y 0.000000 4.320620 0.000000 
#    z 0.000000 0.000000 2.267840 
# 
# From -- ./inp_files/156.got.cif
#   From: 2010.05.17/outbox.cif.g08.bks.cpg/sg118_1_cif.got.tgz:156.got - 2010.05.20 11:17:24.
