data_PCOD9558884
_publ_section_title
;
Structure prediction by ZEFSAII (Michael W. Deem and Ramdas Pophale) SiO2 
 PCOD9558884
Probable space group: P -4 N 2
;
_chemical_formula_sum "Si O2"
_cell_formula_units_Z 16
_cell_length_a 7.110452
_cell_length_b 7.110452
_cell_length_c 12.555348
_cell_angle_alpha 90.000000
_cell_angle_beta 90.000000
_cell_angle_gamma 90.000000
_cell_volume 634.779909
_symmetry_space_group_name_H-M "P -4 N 2"
_symmetry_group_IT_number 118
_symmetry_cell_setting 'tetragonal'
loop_
_space_group_symop_operation_xyz
x,y,z
y,-x,-z
-x,-y,z
-y,x,-z
1/2+y,1/2+x,1/2-z
1/2-y,1/2-x,1/2-z
1/2-x,1/2+y,1/2+z
1/2+x,1/2-y,1/2+z
loop_
_atom_site_type_symbol
_atom_site_label
_atom_site_fract_x
_atom_site_fract_y
_atom_site_fract_z
Si Si1 0.803019 0.949959 0.676469
Si Si2 0.746248 0.181761 0.987747
O O1 0.659952 0.840049 0.750000
O O2 0.849606 0.804668 0.580409
O O3 0.714504 0.132213 0.620451
O O4 0.000000 0.000000 0.732008
O O5 0.961768 0.250287 0.983750
#
# Coordination Sequence:
#
# PCOD9558884 Si02
#       2
#     8   8
#     4  12  27  52  81 121 171 225 289 352 435 523
#     4  11  25  50  82 115 165 215 272 364 430 507
#
# _framework density 25.205587999999999
#
# number of rings (size 3 to 8) (size 9 to 14) (size 15 to 20)
#    0.000    0.500    5.000    1.500    7.000    4.000 
#    0.000    2.500    0.000    0.000    0.000    0.000 
#    0.000    0.000    0.000    0.000    0.000    0.000 
#
# Total GULP energy -89891.968295 kJ/mol
# GULP energy per Si atom -5618.248018 kJ/mol
# Density = 2.514822 g / cm^3
# Si number density = 25.205588 Si / 1000 Ang^3
#
#
#
# Elastic Constant Matrix: (Units=GPa)
#
#
# Indices 1 2 3 4 5 6 
#
# 1 185.7600 86.3896 58.4267 0.0000 0.0000 0.0000
# 2 86.3896 185.7597 58.4272 0.0000 0.0000 0.0000
# 3 58.4267 58.4272 100.0404 0.0000 0.0000 0.0000
# 4 0.0000 0.0000 0.0000 45.2206 0.0000 0.0000
# 5 0.0000 0.0000 0.0000 0.0000 45.2204 0.0000
# 6 0.0000 0.0000 0.0000 0.0000 0.0000 43.8381
#
#
#
# Elastic Compliance Matrix: (Units=1/GPa)
#
#
# Indices 1 2 3 4 5 6 
#
# 1 0.007484 -0.002580 -0.002864 0.000000 0.000000 0.000000
# 2 -0.002580 0.007484 -0.002864 0.000000 0.000000 0.000000
# 3 -0.002864 -0.002864 0.013342 0.000000 0.000000 0.000000
# 4 0.000000 0.000000 0.000000 0.022114 0.000000 0.000000
# 5 0.000000 0.000000 0.000000 0.000000 0.022114 0.000000
# 6 0.000000 0.000000 0.000000 0.000000 0.000000 0.022811
#
#
# Mechanical properties :
#
#
# Convention : Reuss Voigt Hill
#
# Bulk Modulus (GPa) = 85.52034 97.56077 91.54056
# Shear Modulus (GPa) = 43.15476 44.74361 43.94919
#
# Velocity S-wave (km/s) = 4.14226 4.21782 4.18021
# Velocity P-wave (km/s) = 7.54192 7.90633 7.72627
#
# Compressibility (1/GPa) = 0.01169312
#
# Stress axis : x y z
#
# Youngs Moduli (GPa) = 133.62170 133.62101 74.95343
#
# Poissons Ratio (x) = 0.34468 0.21468
# Poissons Ratio (y) = 0.34468 0.21469
# Poissons Ratio (z) = 0.38272 0.38273
#
# Static dielectric constant tensor:
#      x y z
#    x 1.990260 0.000000 0.000000 
#    y 0.000000 1.990260 0.000000 
#    z 0.000000 0.000000 1.984320 
# 
# From -- ./inp_files/2378.got.cif
#   From: 2010.05.17/outbox.cif.g08.bks.cpg/sg118_2_cif.got.tgz:2378.got - 2010.05.20 11:17:24.
