data_PCOD9558097
_publ_section_title
;
Structure prediction by ZEFSAII (Michael W. Deem and Ramdas Pophale) SiO2 
 PCOD9558097
Probable space group: P -4 B 2
;
_chemical_formula_sum "Si O2"
_cell_formula_units_Z 40
_cell_length_a 13.045270
_cell_length_b 13.045270
_cell_length_c 9.089482
_cell_angle_alpha 90.000000
_cell_angle_beta 90.000000
_cell_angle_gamma 90.000000
_cell_volume 1546.839588
_symmetry_space_group_name_H-M "P -4 B 2"
_symmetry_group_IT_number 117
_symmetry_cell_setting 'tetragonal'
loop_
_space_group_symop_operation_xyz
x,y,z
y,-x,-z
-x,-y,z
-y,x,-z
1/2+y,1/2+x,-z
1/2-y,1/2-x,-z
1/2-x,1/2+y,z
1/2+x,1/2-y,z
loop_
_atom_site_type_symbol
_atom_site_label
_atom_site_fract_x
_atom_site_fract_y
_atom_site_fract_z
Si Si1 0.422265 0.744971 0.994870
Si Si2 0.445736 0.153436 0.778615
Si Si3 0.947272 0.236776 0.514106
Si Si4 0.445541 0.840300 0.268402
Si Si5 0.904050 0.073702 0.263867
O O1 0.531580 0.779475 0.922218
O O2 0.393387 0.652355 0.887429
O O3 0.338068 0.838068 0.000000
O O4 0.428795 0.737001 0.171489
O O5 0.385407 0.197140 0.636049
O O6 0.565815 0.134044 0.734023
O O7 0.393321 0.045233 0.805056
O O8 0.027629 0.310115 0.432418
O O9 0.998861 0.161923 0.631897
O O10 0.910705 0.169011 0.377132
O O11 0.000000 0.000000 0.227540
#
# Coordination Sequence:
#
# PCOD9558097 Si02
#       5
#     8   8   8   8   8
#     4   9  20  40  66  96 133 171 225 291 351 412
#     4   9  19  36  66  92 136 170 207 277 358 423
#     4  11  20  37  62  93 126 174 233 272 328 416
#     4  10  19  37  61 102 128 166 216 277 356 425
#     4  11  22  44  65  87 132 189 238 281 348 418
#
# _framework density 25.859178
#
# number of rings (size 3 to 8) (size 9 to 14) (size 15 to 20)
#    0.000    2.000    2.000    1.800    0.000    4.000 
#    3.600   15.000    0.000    0.000    0.000    0.000 
#    0.000    0.000    0.000    0.000    0.000    0.000 
#
# Total GULP energy -222675.199599 kJ/mol
# GULP energy per Si atom -5566.879990 kJ/mol
# Density = 2.580032 g / cm^3
# Si number density = 25.859178 Si / 1000 Ang^3
#
#
#
# Elastic Constant Matrix: (Units=GPa)
#
#
# Indices 1 2 3 4 5 6 
#
# 1 67.4542 13.4274 37.4232 0.0000 0.0000 0.0000
# 2 13.4274 67.4542 37.4232 0.0000 0.0000 0.0000
# 3 37.4232 37.4232 171.7371 0.0000 0.0000 0.0000
# 4 0.0000 0.0000 0.0000 43.5962 0.0000 0.0000
# 5 0.0000 0.0000 0.0000 0.0000 43.5962 0.0000
# 6 0.0000 0.0000 0.0000 0.0000 0.0000 9.7188
#
#
#
# Elastic Compliance Matrix: (Units=1/GPa)
#
#
# Indices 1 2 3 4 5 6 
#
# 1 0.016998 -0.001511 -0.003375 0.000000 0.000000 0.000000
# 2 -0.001511 0.016998 -0.003375 0.000000 0.000000 0.000000
# 3 -0.003375 -0.003375 0.007294 0.000000 0.000000 0.000000
# 4 0.000000 0.000000 0.000000 0.022938 0.000000 0.000000
# 5 0.000000 0.000000 0.000000 0.000000 0.022938 0.000000
# 6 0.000000 0.000000 0.000000 0.000000 0.000000 0.102894
#
#
# Mechanical properties :
#
#
# Convention : Reuss Voigt Hill
#
# Bulk Modulus (GPa) = 40.37450 53.68814 47.03132
# Shear Modulus (GPa) = 23.27353 33.94033 28.60693
#
# Velocity S-wave (km/s) = 3.00327 3.62678 3.32965
# Velocity P-wave (km/s) = 5.26054 6.19232 5.74535
#
# Compressibility (1/GPa) = 0.02476811
#
# Stress axis : x y z
#
# Youngs Moduli (GPa) = 58.83046 58.83046 137.10623
#
# Poissons Ratio (x) = 0.08891 0.46269
# Poissons Ratio (y) = 0.08891 0.46269
# Poissons Ratio (z) = 0.19853 0.19853
#
# Static dielectric constant tensor:
#      x y z
#    x 2.529480 0.000000 0.000000 
#    y 0.000000 2.529480 0.000000 
#    z 0.000000 0.000000 2.045890 
# 
# From -- ./inp_files/1703.got.cif
#   From: 2010.05.17/outbox.cif.g08.bks.cpg/sg117_1_cif.got.tgz:1703.got - 2010.05.20 11:15:09.
