data_PCOD9558795
_publ_section_title
;
Structure prediction by ZEFSAII (Michael W. Deem and Ramdas Pophale) SiO2 
 PCOD9558795
Probable space group: P -4 N 2
;
_chemical_formula_sum "Si O2"
_cell_formula_units_Z 40
_cell_length_a 15.150355
_cell_length_b 15.150355
_cell_length_c 7.362656
_cell_angle_alpha 90.000000
_cell_angle_beta 90.000000
_cell_angle_gamma 90.000000
_cell_volume 1689.974409
_symmetry_space_group_name_H-M "P -4 N 2"
_symmetry_group_IT_number 118
_symmetry_cell_setting 'tetragonal'
loop_
_space_group_symop_operation_xyz
x,y,z
y,-x,-z
-x,-y,z
-y,x,-z
1/2+y,1/2+x,1/2-z
1/2-y,1/2-x,1/2-z
1/2-x,1/2+y,1/2+z
1/2+x,1/2-y,1/2+z
loop_
_atom_site_type_symbol
_atom_site_label
_atom_site_fract_x
_atom_site_fract_y
_atom_site_fract_z
Si Si1 0.471795 0.280792 0.456540
Si Si2 0.169953 0.232621 0.423313
Si Si3 0.951263 0.659893 0.650674
Si Si4 0.554266 0.405950 0.759357
Si Si5 0.841033 0.363175 0.970128
O O1 0.532543 0.231086 0.310597
O O2 0.506122 0.346294 0.610093
O O3 0.421668 0.349037 0.325651
O O4 0.413820 0.203168 0.546000
O O5 0.218454 0.281547 0.250000
O O6 0.134441 0.311556 0.542559
O O7 0.084492 0.165381 0.410829
O O8 0.245998 0.175028 0.515553
O O9 0.931161 0.568840 0.750000
O O10 0.032701 0.653065 0.511930
O O11 0.500000 0.500000 0.789219
O O12 0.853091 0.353091 0.750000
#
# Coordination Sequence:
#
# PCOD9558795 Si02
#       5
#     8   8   8   8   8
#     4  11  21  41  66  93 127 177 224 273 330 415
#     4  11  22  44  67  95 140 176 215 283 355 406
#     4  11  24  40  68  99 124 177 237 277 340 415
#     4  12  22  39  67 101 135 177 226 277 345 409
#     4   9  20  41  63  86 129 172 216 263 330 404
#
# _framework density 23.668998999999999
#
# number of rings (size 3 to 8) (size 9 to 14) (size 15 to 20)
#    0.000    1.200    8.000    1.200    0.000    5.200 
#    0.000    2.000    0.000    1.200    0.000    0.000 
#    0.000    0.000    0.000    0.000    0.000    0.000 
#
# Total GULP energy -222866.982712 kJ/mol
# GULP energy per Si atom -5571.674568 kJ/mol
# Density = 2.361513 g / cm^3
# Si number density = 23.668999 Si / 1000 Ang^3
#
#
#
# Elastic Constant Matrix: (Units=GPa)
#
#
# Indices 1 2 3 4 5 6 
#
# 1 214.9683 -38.8100 26.4862 0.0000 0.0000 0.0000
# 2 -38.8100 214.9483 26.4830 0.0000 0.0000 0.0000
# 3 26.4862 26.4830 34.8699 0.0000 0.0000 0.0000
# 4 0.0000 0.0000 0.0000 19.4164 0.0000 0.0000
# 5 0.0000 0.0000 0.0000 0.0000 19.4162 0.0000
# 6 0.0000 0.0000 0.0000 0.0000 0.0000 46.3908
#
#
#
# Elastic Compliance Matrix: (Units=1/GPa)
#
#
# Indices 1 2 3 4 5 6 
#
# 1 0.005649 0.001708 -0.005588 0.000000 0.000000 0.000000
# 2 0.001708 0.005649 -0.005588 0.000000 0.000000 0.000000
# 3 -0.005588 -0.005588 0.037167 0.000000 0.000000 0.000000
# 4 0.000000 0.000000 0.000000 0.051503 0.000000 0.000000
# 5 0.000000 0.000000 0.000000 0.000000 0.051503 0.000000
# 6 0.000000 0.000000 0.000000 0.000000 0.000000 0.021556
#
#
# Mechanical properties :
#
#
# Convention : Reuss Voigt Hill
#
# Bulk Modulus (GPa) = 33.86509 54.78944 44.32726
# Shear Modulus (GPa) = 24.77631 47.08652 35.93142
#
# Velocity S-wave (km/s) = 3.23891 4.46508 3.90048
# Velocity P-wave (km/s) = 5.32224 7.05557 6.24929
#
# Compressibility (1/GPa) = 0.02952894
#
# Stress axis : x y z
#
# Youngs Moduli (GPa) = 177.02876 177.01491 26.90580
#
# Poissons Ratio (x) = -0.30242 0.15035
# Poissons Ratio (y) = -0.30244 0.15035
# Poissons Ratio (z) = 0.98927 0.98919
#
# Static dielectric constant tensor:
#      x y z
#    x 2.081920 0.000000 0.000000 
#    y 0.000000 2.081940 0.000000 
#    z 0.000000 0.000000 1.955380 
# 
# From -- ./inp_files/1893.got.cif
#   From: 2010.05.17/outbox.cif.g08.bks.cpg/sg118_1_cif.got.tgz:1893.got - 2010.05.20 11:17:24.
