data_PCOD9558856
_publ_section_title
;
Structure prediction by ZEFSAII (Michael W. Deem and Ramdas Pophale) SiO2 
 PCOD9558856
Probable space group: P -4 N 2
;
_chemical_formula_sum "Si O2"
_cell_formula_units_Z 34
_cell_length_a 8.436337
_cell_length_b 8.436337
_cell_length_c 21.115858
_cell_angle_alpha 90.000000
_cell_angle_beta 90.000000
_cell_angle_gamma 90.000000
_cell_volume 1502.853242
_symmetry_space_group_name_H-M "P -4 N 2"
_symmetry_group_IT_number 118
_symmetry_cell_setting 'tetragonal'
loop_
_space_group_symop_operation_xyz
x,y,z
y,-x,-z
-x,-y,z
-y,x,-z
1/2+y,1/2+x,1/2-z
1/2-y,1/2-x,1/2-z
1/2-x,1/2+y,1/2+z
1/2+x,1/2-y,1/2+z
loop_
_atom_site_type_symbol
_atom_site_label
_atom_site_fract_x
_atom_site_fract_y
_atom_site_fract_z
Si Si1 0.500000 0.500000 0.000000
Si Si2 0.178558 0.553551 0.426321
Si Si3 0.106723 0.764722 0.690390
Si Si4 0.294903 0.224549 0.059895
Si Si5 0.745174 0.388227 0.189729
O O1 0.377063 0.394395 0.041022
O O2 0.275372 0.391391 0.424082
O O3 0.188017 0.623484 0.496525
O O4 0.201264 0.681814 0.371267
O O5 0.000000 0.500000 0.415079
O O6 0.170550 0.670550 0.750000
O O7 0.118430 0.672967 0.623849
O O8 0.928188 0.818101 0.702181
O O9 0.214309 0.923907 0.681042
O O10 0.855031 0.355031 0.250000
#
# Coordination Sequence:
#
# PCOD9558856 Si02
#       5
#     2   8   8   8   8
#     4  12  20  40  72 104 136 184 232 294 344 440
#     4  12  25  42  73 103 136 188 231 297 353 419
#     4  11  24  44  70 102 142 188 237 294 349 421
#     4  12  24  43  69 103 141 180 241 286 359 420
#     4  11  25  44  71 104 141 185 240 287 352 428
#
# _framework density 22.623635
#
# number of rings (size 3 to 8) (size 9 to 14) (size 15 to 20)
#    0.000    0.471    4.706    4.235    0.000    2.824 
#    0.000    0.000    0.000    0.000    0.000    0.000 
#    0.000    0.000    0.000    0.000    0.000    0.000 
#
# Total GULP energy -190214.018878 kJ/mol
# GULP energy per Si atom -5594.529967 kJ/mol
# Density = 2.257214 g / cm^3
# Si number density = 22.623635 Si / 1000 Ang^3
#
#
#
# Elastic Constant Matrix: (Units=GPa)
#
#
# Indices 1 2 3 4 5 6 
#
# 1 62.8910 28.4638 28.2393 0.0000 0.0000 0.0000
# 2 28.4638 62.8910 28.2393 0.0000 0.0000 0.0000
# 3 28.2393 28.2393 154.3271 0.0000 0.0000 0.0000
# 4 0.0000 0.0000 0.0000 125.2106 0.0000 0.0000
# 5 0.0000 0.0000 0.0000 0.0000 125.2106 0.0000
# 6 0.0000 0.0000 0.0000 0.0000 0.0000 11.6493
#
#
#
# Elastic Compliance Matrix: (Units=1/GPa)
#
#
# Indices 1 2 3 4 5 6 
#
# 1 0.020695 -0.008352 -0.002258 0.000000 0.000000 0.000000
# 2 -0.008352 0.020695 -0.002258 0.000000 0.000000 0.000000
# 3 -0.002258 -0.002258 0.007306 0.000000 0.000000 0.000000
# 4 0.000000 0.000000 0.000000 0.007987 0.000000 0.000000
# 5 0.000000 0.000000 0.000000 0.000000 0.007987 0.000000
# 6 0.000000 0.000000 0.000000 0.000000 0.000000 0.085842
#
#
# Mechanical properties :
#
#
# Convention : Reuss Voigt Hill
#
# Bulk Modulus (GPa) = 43.55871 49.99933 46.77902
# Shear Modulus (GPa) = 27.18846 65.42522 46.30684
#
# Velocity S-wave (km/s) = 3.47042 5.38347 4.52910
# Velocity P-wave (km/s) = 5.94591 7.79685 6.93342
#
# Compressibility (1/GPa) = 0.02295752
#
# Stress axis : x y z
#
# Youngs Moduli (GPa) = 48.32155 48.32155 136.86862
#
# Poissons Ratio (x) = 0.40359 0.30912
# Poissons Ratio (y) = 0.40359 0.30912
# Poissons Ratio (z) = 0.10913 0.10913
#
# Static dielectric constant tensor:
#      x y z
#    x 1.774170 0.000000 0.000000 
#    y 0.000000 1.774170 0.000000 
#    z 0.000000 0.000000 1.872180 
# 
# From -- ./inp_files/5455.got.cif
#   From: 2010.05.17/outbox.cif.g08.bks.cpg/sg118_3_cif.got.tgz:5455.got - 2010.05.20 11:17:24.
