data_PCOD9558172
_publ_section_title
;
Structure prediction by ZEFSAII (Michael W. Deem and Ramdas Pophale) SiO2 
 PCOD9558172
Probable space group: P -4 B 2
;
_chemical_formula_sum "Si O2"
_cell_formula_units_Z 48
_cell_length_a 11.474366
_cell_length_b 11.474366
_cell_length_c 17.743084
_cell_angle_alpha 90.000000
_cell_angle_beta 90.000000
_cell_angle_gamma 90.000000
_cell_volume 2336.073515
_symmetry_space_group_name_H-M "P -4 B 2"
_symmetry_group_IT_number 117
_symmetry_cell_setting 'tetragonal'
loop_
_space_group_symop_operation_xyz
x,y,z
y,-x,-z
-x,-y,z
-y,x,-z
1/2+y,1/2+x,-z
1/2-y,1/2-x,-z
1/2-x,1/2+y,z
1/2+x,1/2-y,z
loop_
_atom_site_type_symbol
_atom_site_label
_atom_site_fract_x
_atom_site_fract_y
_atom_site_fract_z
Si Si1 0.739479 0.917479 0.624706
Si Si2 0.301991 0.841742 0.581208
Si Si3 0.185507 0.046331 0.189242
Si Si4 0.597479 0.898826 0.911705
Si Si5 0.121593 0.506406 0.309293
Si Si6 0.957458 0.190814 0.200822
O O1 0.772330 0.796345 0.584661
O O2 0.599312 0.907970 0.626268
O O3 0.773073 0.923702 0.713593
O O4 0.779336 0.042483 0.590633
O O5 0.359427 0.859427 0.500000
O O6 0.383895 0.852011 0.653960
O O7 0.275560 0.055811 0.121295
O O8 0.268281 0.046904 0.262396
O O9 0.091759 0.149612 0.195773
O O10 0.118009 0.924434 0.184414
O O11 0.708538 0.933105 0.859929
O O12 0.500000 0.000000 0.906553
O O13 0.620569 0.879432 0.000000
O O14 0.000000 0.500000 0.263337
#
# Coordination Sequence:
#
# PCOD9558172 Si02
#       6
#     8   8   8   8   8   8
#     4  11  23  42  70  97 133 180 234 281 351 417
#     4  11  26  42  65  99 139 181 229 291 353 413
#     4  11  23  43  68 104 138 171 230 282 345 412
#     4  11  27  45  69 100 136 180 227 280 349 419
#     4  10  21  38  67  96 127 176 229 280 334 412
#     4  11  25  42  72 103 133 179 226 288 344 412
#
# _framework density 20.547297
#
# number of rings (size 3 to 8) (size 9 to 14) (size 15 to 20)
#    0.000    1.167    3.333    1.500    7.000    3.667 
#    0.000    1.667    0.000    0.000    0.000    0.000 
#    0.000    0.000    0.000    0.000    0.000    0.000 
#
# Total GULP energy -267569.922686 kJ/mol
# GULP energy per Si atom -5574.373389 kJ/mol
# Density = 2.050053 g / cm^3
# Si number density = 20.547297 Si / 1000 Ang^3
#
#
#
# Elastic Constant Matrix: (Units=GPa)
#
#
# Indices 1 2 3 4 5 6 
#
# 1 113.7833 35.3609 31.3583 0.0000 0.0000 0.0000
# 2 35.3609 113.7833 31.3582 0.0000 0.0000 0.0000
# 3 31.3583 31.3582 97.2881 0.0000 0.0000 0.0000
# 4 0.0000 0.0000 0.0000 17.5667 0.0000 0.0000
# 5 0.0000 0.0000 0.0000 0.0000 17.5667 0.0000
# 6 0.0000 0.0000 0.0000 0.0000 0.0000 29.8766
#
#
#
# Elastic Compliance Matrix: (Units=1/GPa)
#
#
# Indices 1 2 3 4 5 6 
#
# 1 0.010254 -0.002498 -0.002500 0.000000 0.000000 0.000000
# 2 -0.002498 0.010254 -0.002500 0.000000 0.000000 0.000000
# 3 -0.002500 -0.002500 0.011890 0.000000 0.000000 0.000000
# 4 0.000000 0.000000 0.000000 0.056926 0.000000 0.000000
# 5 0.000000 0.000000 0.000000 0.000000 0.056926 0.000000
# 6 0.000000 0.000000 0.000000 0.000000 0.000000 0.033471
#
#
# Mechanical properties :
#
#
# Convention : Reuss Voigt Hill
#
# Bulk Modulus (GPa) = 57.46221 57.88994 57.67608
# Shear Modulus (GPa) = 24.93556 28.12050 26.52803
#
# Velocity S-wave (km/s) = 3.48741 3.70344 3.59705
# Velocity P-wave (km/s) = 6.65151 6.82073 6.73665
#
# Compressibility (1/GPa) = 0.01740274
#
# Stress axis : x y z
#
# Youngs Moduli (GPa) = 97.52450 97.52454 84.10169
#
# Poissons Ratio (x) = 0.24358 0.21025
# Poissons Ratio (y) = 0.24358 0.21025
# Poissons Ratio (z) = 0.24381 0.24381
#
# Static dielectric constant tensor:
#      x y z
#    x 1.810240 0.000000 0.000000 
#    y 0.000000 1.810250 0.000000 
#    z 0.000000 0.000000 1.724710 
# 
# From -- ./inp_files/3355.got.cif
#   From: 2010.05.17/outbox.cif.g08.bks.cpg/sg117_2_cif.got.tgz:3355.got - 2010.05.20 11:15:09.
