data_PCOD9558135
_publ_section_title
;
Structure prediction by ZEFSAII (Michael W. Deem and Ramdas Pophale) SiO2 
 PCOD9558135
Probable space group: P -4 B 2
;
_chemical_formula_sum "Si O2"
_cell_formula_units_Z 44
_cell_length_a 15.891787
_cell_length_b 15.891787
_cell_length_c 8.202062
_cell_angle_alpha 90.000000
_cell_angle_beta 90.000000
_cell_angle_gamma 90.000000
_cell_volume 2071.421687
_symmetry_space_group_name_H-M "P -4 B 2"
_symmetry_group_IT_number 117
_symmetry_cell_setting 'tetragonal'
loop_
_space_group_symop_operation_xyz
x,y,z
y,-x,-z
-x,-y,z
-y,x,-z
1/2+y,1/2+x,-z
1/2-y,1/2-x,-z
1/2-x,1/2+y,z
1/2+x,1/2-y,z
loop_
_atom_site_type_symbol
_atom_site_label
_atom_site_fract_x
_atom_site_fract_y
_atom_site_fract_z
Si Si1 0.129041 0.961883 0.450493
Si Si2 0.124914 0.448329 0.246874
Si Si3 0.225152 0.069672 0.865644
Si Si4 0.591056 0.908945 0.000000
Si Si5 0.475831 0.799377 0.410429
Si Si6 0.306867 0.427863 0.104959
O O1 0.213916 0.927289 0.535612
O O2 0.151085 0.974904 0.260514
O O3 0.099147 0.050057 0.526735
O O4 0.152440 0.488863 0.419892
O O5 0.929121 0.634510 0.292114
O O6 0.208759 0.418713 0.151508
O O7 0.082562 0.521394 0.141090
O O8 0.260283 0.054768 0.683766
O O9 0.160071 0.144179 0.896037
O O10 0.311456 0.082608 0.958708
O O11 0.185821 0.983720 0.941896
#
# Coordination Sequence:
#
# PCOD9558135 Si02
#       6
#     8   8   8   4   8   8
#     4  10  20  37  63  94 134 177 225 283 342 424
#     4   9  22  45  67  94 133 174 236 284 353 412
#     4  11  24  40  64  94 137 173 229 280 353 418
#     4  10  24  45  66  96 130 179 220 288 340 421
#     4  10  21  41  66  98 130 179 226 287 346 418
#     4  10  23  40  59  98 131 175 227 285 351 414
#
# _framework density 21.24145
#
# number of rings (size 3 to 8) (size 9 to 14) (size 15 to 20)
#    0.000    2.000    1.818    0.000    2.545    6.909 
#    6.545    3.636    0.000    0.000    0.000    0.000 
#    0.000    0.000    0.000    0.000    0.000    0.000 
#
# Total GULP energy -245361.252969 kJ/mol
# GULP energy per Si atom -5576.392113 kJ/mol
# Density = 2.119310 g / cm^3
# Si number density = 21.241450 Si / 1000 Ang^3
#
#
#
# Elastic Constant Matrix: (Units=GPa)
#
#
# Indices 1 2 3 4 5 6 
#
# 1 106.5994 54.9138 29.1614 0.0000 0.0000 0.0000
# 2 54.9138 106.5986 29.1606 0.0000 0.0000 0.0000
# 3 29.1614 29.1606 50.1663 0.0000 0.0000 0.0000
# 4 0.0000 0.0000 0.0000 29.5513 0.0000 0.0000
# 5 0.0000 0.0000 0.0000 0.0000 29.5514 0.0000
# 6 0.0000 0.0000 0.0000 0.0000 0.0000 29.1022
#
#
#
# Elastic Compliance Matrix: (Units=1/GPa)
#
#
# Indices 1 2 3 4 5 6 
#
# 1 0.013592 -0.005756 -0.004555 0.000000 0.000000 0.000000
# 2 -0.005756 0.013592 -0.004555 0.000000 0.000000 0.000000
# 3 -0.004555 -0.004555 0.025229 0.000000 0.000000 0.000000
# 4 0.000000 0.000000 0.000000 0.033839 0.000000 0.000000
# 5 0.000000 0.000000 0.000000 0.000000 0.033839 0.000000
# 6 0.000000 0.000000 0.000000 0.000000 0.000000 0.034362
#
#
# Mechanical properties :
#
#
# Convention : Reuss Voigt Hill
#
# Bulk Modulus (GPa) = 44.08892 54.42623 49.25757
# Shear Modulus (GPa) = 26.07607 27.64956 26.86281
#
# Velocity S-wave (km/s) = 3.50752 3.61179 3.56004
# Velocity P-wave (km/s) = 6.09957 6.56290 6.33547
#
# Compressibility (1/GPa) = 0.02268143
#
# Stress axis : x y z
#
# Youngs Moduli (GPa) = 73.57200 73.57213 39.63629
#
# Poissons Ratio (x) = 0.42347 0.18056
# Poissons Ratio (y) = 0.42347 0.18054
# Poissons Ratio (z) = 0.33514 0.33512
#
# Static dielectric constant tensor:
#      x y z
#    x 1.764750 0.000000 0.000000 
#    y 0.000000 1.764760 0.000000 
#    z 0.000000 0.000000 1.863080 
# 
# From -- ./inp_files/1933.got.cif
#   From: 2010.05.17/outbox.cif.g08.bks.cpg/sg117_1_cif.got.tgz:1933.got - 2010.05.20 11:15:09.
