data_PCOD9558695
_publ_section_title
;
Structure prediction by ZEFSAII (Michael W. Deem and Ramdas Pophale) SiO2 
 PCOD9558695
Probable space group: P -4 N 2
;
_chemical_formula_sum "Si O2"
_cell_formula_units_Z 40
_cell_length_a 8.792322
_cell_length_b 8.792322
_cell_length_c 20.317314
_cell_angle_alpha 90.000000
_cell_angle_beta 90.000000
_cell_angle_gamma 90.000000
_cell_volume 1570.628458
_symmetry_space_group_name_H-M "P -4 N 2"
_symmetry_group_IT_number 118
_symmetry_cell_setting 'tetragonal'
loop_
_space_group_symop_operation_xyz
x,y,z
y,-x,-z
-x,-y,z
-y,x,-z
1/2+y,1/2+x,1/2-z
1/2-y,1/2-x,1/2-z
1/2-x,1/2+y,1/2+z
1/2+x,1/2-y,1/2+z
loop_
_atom_site_type_symbol
_atom_site_label
_atom_site_fract_x
_atom_site_fract_y
_atom_site_fract_z
Si Si1 0.936332 0.828486 0.354057
Si Si2 0.402437 0.331694 0.729848
Si Si3 0.934212 0.334370 0.479644
Si Si4 0.372469 0.379444 0.584176
Si Si5 0.612106 0.887159 0.376041
O O1 0.757151 0.824580 0.339923
O O2 0.013723 0.752077 0.290760
O O3 0.981968 0.765890 0.425448
O O4 0.000000 0.000000 0.355984
O O5 0.500000 0.500000 0.728633
O O6 0.225558 0.274443 0.750000
O O7 0.414702 0.295920 0.652798
O O8 0.753174 0.332853 0.466472
O O9 0.960065 0.312689 0.557596
O O10 0.000000 0.500000 0.466423
O O11 0.500000 0.500000 0.565951
O O12 0.235324 0.491890 0.599829
O O13 0.500000 0.000000 0.338739
#
# Coordination Sequence:
#
# PCOD9558695 Si02
#       5
#     8   8   8   8   8
#     4  11  24  45  74 102 146 196 246 319 385 457
#     4  10  22  45  75 102 144 199 254 322 389 460
#     4  11  25  42  68 108 148 192 250 302 385 464
#     4  11  24  45  70  99 150 195 252 313 381 452
#     4  11  27  42  70 111 147 197 252 311 389 466
#
# _framework density 25.467510999999998
#
# number of rings (size 3 to 8) (size 9 to 14) (size 15 to 20)
#    0.000    1.200    2.000    2.400   14.000    0.000 
#    0.000   17.000    0.000    0.000    0.000    0.000 
#    0.000    0.000    0.000    0.000    0.000    0.000 
#
# Total GULP energy -222877.869170 kJ/mol
# GULP energy per Si atom -5571.946729 kJ/mol
# Density = 2.540955 g / cm^3
# Si number density = 25.467511 Si / 1000 Ang^3
#
#
#
# Elastic Constant Matrix: (Units=GPa)
#
#
# Indices 1 2 3 4 5 6 
#
# 1 104.7797 26.0410 4.3125 0.0000 0.0000 0.0000
# 2 26.0410 104.7783 4.3125 0.0000 0.0000 0.0000
# 3 4.3125 4.3125 116.6789 0.0000 0.0000 0.0000
# 4 0.0000 0.0000 0.0000 -14.6643 0.0000 0.0000
# 5 0.0000 0.0000 0.0000 0.0000 -14.6775 0.0000
# 6 0.0000 0.0000 0.0000 0.0000 0.0000 47.5420
#
#
#
# Elastic Compliance Matrix: (Units=1/GPa)
#
#
# Indices 1 2 3 4 5 6 
#
# 1 0.010181 -0.002519 -0.000283 0.000000 0.000000 0.000000
# 2 -0.002519 0.010182 -0.000283 0.000000 0.000000 0.000000
# 3 -0.000283 -0.000283 0.008591 0.000000 0.000000 0.000000
# 4 0.000000 0.000000 0.000000 -0.068193 0.000000 0.000000
# 5 0.000000 0.000000 0.000000 0.000000 -0.068132 0.000000
# 6 0.000000 0.000000 0.000000 0.000000 0.000000 0.021034
#
#
# Mechanical properties :
#
#
# Convention : Reuss Voigt Hill
#
# Bulk Modulus (GPa) = 43.89024 43.95211 43.92118
# Shear Modulus (GPa) = -68.89810 23.07812 -22.90999
#
# Velocity S-wave (km/s) = -5.20692 3.01355 -3.00255
# Velocity P-wave (km/s) = 4.34490 5.42256 2.29412
#
# Compressibility (1/GPa) = 0.02278411
#
# Stress axis : x y z
#
# Youngs Moduli (GPa) = 98.21750 98.21620 116.39462
#
# Poissons Ratio (x) = 0.24739 0.03297
# Poissons Ratio (y) = 0.24739 0.03296
# Poissons Ratio (z) = 0.02782 0.02782
#
# Static dielectric constant tensor:
#      x y z
#    x 2.174610 0.000000 0.000000 
#    y 0.000000 2.174540 0.000000 
#    z 0.000000 0.000000 2.022870 
# 
# From -- ./inp_files/6045.got.cif
#   From: 2010.05.17/outbox.cif.g08.bks.cpg/sg118_4_cif.got.tgz:6045.got - 2010.05.20 11:17:24.
