data_PCOD9558310
_publ_section_title
;
Structure prediction by ZEFSAII (Michael W. Deem and Ramdas Pophale) SiO2 
 PCOD9558310
Probable space group: P -4 B 2
;
_chemical_formula_sum "Si O2"
_cell_formula_units_Z 24
_cell_length_a 9.254858
_cell_length_b 9.254858
_cell_length_c 13.232001
_cell_angle_alpha 90.000000
_cell_angle_beta 90.000000
_cell_angle_gamma 90.000000
_cell_volume 1133.352597
_symmetry_space_group_name_H-M "P -4 B 2"
_symmetry_group_IT_number 117
_symmetry_cell_setting 'tetragonal'
loop_
_space_group_symop_operation_xyz
x,y,z
y,-x,-z
-x,-y,z
-y,x,-z
1/2+y,1/2+x,-z
1/2-y,1/2-x,-z
1/2-x,1/2+y,z
1/2+x,1/2-y,z
loop_
_atom_site_type_symbol
_atom_site_label
_atom_site_fract_x
_atom_site_fract_y
_atom_site_fract_z
Si Si1 0.855702 0.088682 0.769188
Si Si2 0.635091 0.892139 0.882619
Si Si3 0.216581 0.926089 0.540406
O O1 0.878855 0.247275 0.816035
O O2 0.779982 0.095591 0.660585
O O3 0.768051 0.988719 0.846292
O O4 0.000000 0.000000 0.748086
O O5 0.500000 0.000000 0.871933
O O6 0.649632 0.850369 0.000000
O O7 0.367614 0.867614 0.500000
O O8 0.087655 0.827648 0.492304
#
# Coordination Sequence:
#
# PCOD9558310 Si02
#       3
#     8   8   8
#     4  12  25  46  73 100 142 183 232 295 352 422
#     4  11  28  45  71 105 137 182 239 288 358 425
#     4  11  24  45  68 101 138 177 228 278 343 417
#
# _framework density 21.176112
#
# number of rings (size 3 to 8) (size 9 to 14) (size 15 to 20)
#    0.000    0.667    3.333    4.000   14.000    0.667 
#    0.000    0.000    0.000    0.000    0.000    0.000 
#    0.000    0.000    0.000    0.000    0.000    0.000 
#
# Total GULP energy -134288.016506 kJ/mol
# GULP energy per Si atom -5595.334021 kJ/mol
# Density = 2.112791 g / cm^3
# Si number density = 21.176112 Si / 1000 Ang^3
#
#
#
# Elastic Constant Matrix: (Units=GPa)
#
#
# Indices 1 2 3 4 5 6 
#
# 1 57.1640 14.5904 25.2820 0.0000 0.0000 0.0000
# 2 14.5904 57.1641 25.2820 0.0000 0.0000 0.0000
# 3 25.2820 25.2820 165.0278 0.0000 0.0000 0.0000
# 4 0.0000 0.0000 0.0000 107.5827 0.0000 0.0000
# 5 0.0000 0.0000 0.0000 0.0000 107.5778 0.0000
# 6 0.0000 0.0000 0.0000 0.0000 0.0000 35.6663
#
#
#
# Elastic Compliance Matrix: (Units=1/GPa)
#
#
# Indices 1 2 3 4 5 6 
#
# 1 0.019556 -0.003933 -0.002393 0.000000 0.000000 0.000000
# 2 -0.003933 0.019556 -0.002393 0.000000 0.000000 0.000000
# 3 -0.002393 -0.002393 0.006793 0.000000 0.000000 0.000000
# 4 0.000000 0.000000 0.000000 0.009295 0.000000 0.000000
# 5 0.000000 0.000000 0.000000 0.000000 0.009296 0.000000
# 6 0.000000 0.000000 0.000000 0.000000 0.000000 0.028038
#
#
# Mechanical properties :
#
#
# Convention : Reuss Voigt Hill
#
# Bulk Modulus (GPa) = 35.13052 45.51830 40.32441
# Shear Modulus (GPa) = 41.85473 64.44547 53.15010
#
# Velocity S-wave (km/s) = 4.45062 5.52261 5.01533
# Velocity P-wave (km/s) = 6.56021 7.88716 7.25409
#
# Compressibility (1/GPa) = 0.02846528
#
# Stress axis : x y z
#
# Youngs Moduli (GPa) = 51.13555 51.13563 147.21200
#
# Poissons Ratio (x) = 0.20111 0.35234
# Poissons Ratio (y) = 0.20111 0.35234
# Poissons Ratio (z) = 0.12239 0.12239
#
# Static dielectric constant tensor:
#      x y z
#    x 1.432970 0.000000 0.000000 
#    y 0.000000 1.432930 0.000000 
#    z 0.000000 0.000000 1.734290 
# 
# From -- ./inp_files/2998.got.cif
#   From: 2010.05.17/outbox.cif.g08.bks.cpg/sg117_2_cif.got.tgz:2998.got - 2010.05.20 11:15:09.
