data_PCOD9558937
_publ_section_title
;
Structure prediction by ZEFSAII (Michael W. Deem and Ramdas Pophale) SiO2 
 PCOD9558937
Probable space group: P -4 N 2
;
_chemical_formula_sum "Si O2"
_cell_formula_units_Z 54
_cell_length_a 15.000000
_cell_length_b 15.000000
_cell_length_c 12.000000
_cell_angle_alpha 90.000000
_cell_angle_beta 90.000000
_cell_angle_gamma 90.000000
_cell_volume 2700.000000
_symmetry_space_group_name_H-M "P -4 N 2"
_symmetry_group_IT_number 118
_symmetry_cell_setting 'tetragonal'
loop_
_space_group_symop_operation_xyz
x,y,z
y,-x,-z
-x,-y,z
-y,x,-z
1/2+y,1/2+x,1/2-z
1/2-y,1/2-x,1/2-z
1/2-x,1/2+y,1/2+z
1/2+x,1/2-y,1/2+z
loop_
_atom_site_type_symbol
_atom_site_label
_atom_site_fract_x
_atom_site_fract_y
_atom_site_fract_z
Si Si1 0.803442 0.362789 0.543854
Si Si2 0.398169 0.030841 0.856355
Si Si3 0.754009 0.688983 0.629305
Si Si4 0.107569 0.240934 0.467092
Si Si5 0.672121 0.493265 0.666633
Si Si6 0.350169 0.850169 0.750000
Si Si7 0.930115 0.207876 0.586535
Si Si8 0.500000 0.500000 0.500000
O O1 0.861165 0.428877 0.468184
O O2 0.743850 0.310446 0.452658
O O3 0.737778 0.416800 0.622233
O O4 0.868041 0.294513 0.607678
O O5 0.402508 0.097493 0.750000
O O6 0.500000 0.000000 0.872895
O O7 0.345720 0.943688 0.816215
O O8 0.766626 0.733375 0.750000
O O9 0.846636 0.697786 0.561628
O O10 0.717492 0.589686 0.647609
O O11 0.141436 0.276796 0.346851
O O12 0.139721 0.138713 0.470661
O O13 0.003813 0.238881 0.496761
O O14 0.666799 0.473469 0.800441
O O15 0.584374 0.491178 0.585939
#
# Coordination Sequence:
#
# PCOD9558937 Si02
#       8
#     8   8   8   8   8   4   8   2
#     4  11  23  40  71  97 134 180 234 281 352 418
#     4   9  18  35  60  96 134 170 226 284 341 401
#     4  11  23  44  68  95 140 184 233 289 355 428
#     4  11  25  43  68  99 136 185 232 293 354 424
#     4  12  25  46  69 104 139 183 234 294 352 422
#     4  10  21  38  66  96 136 173 234 288 346 420
#     4  11  26  45  68  98 139 176 235 287 362 420
#     4  12  28  48  72 106 144 192 244 292 346 428
#
# _framework density 20.0
#
# number of rings (size 3 to 8) (size 9 to 14) (size 15 to 20)
#    0.000    1.333    2.963    3.556    4.148    3.852 
#    0.000    0.000    0.000    0.000    0.000    0.000 
#    0.000    0.000    0.000    0.000    0.000    0.000 
#
# Total GULP energy -301401.333534 kJ/mol
# GULP energy per Si atom -5581.506177 kJ/mol
# Density = 1.995448 g / cm^3
# Si number density = 20.000000 Si / 1000 Ang^3
#
#
#
# Elastic Constant Matrix: (Units=GPa)
#
#
# Indices 1 2 3 4 5 6 
#
# 1 75.1137 50.2404 24.2841 0.0000 0.0000 0.0000
# 2 50.2404 75.1130 24.2842 0.0000 0.0000 0.0000
# 3 24.2841 24.2842 92.0211 0.0000 0.0000 0.0000
# 4 0.0000 0.0000 0.0000 8.4364 0.0000 0.0000
# 5 0.0000 0.0000 0.0000 0.0000 8.4345 0.0000
# 6 0.0000 0.0000 0.0000 0.0000 0.0000 26.3495
#
#
#
# Elastic Compliance Matrix: (Units=1/GPa)
#
#
# Indices 1 2 3 4 5 6 
#
# 1 0.024545 -0.015659 -0.002345 0.000000 0.000000 0.000000
# 2 -0.015659 0.024545 -0.002345 0.000000 0.000000 0.000000
# 3 -0.002345 -0.002345 0.012105 0.000000 0.000000 0.000000
# 4 0.000000 0.000000 0.000000 0.118535 0.000000 0.000000
# 5 0.000000 0.000000 0.000000 0.000000 0.118561 0.000000
# 6 0.000000 0.000000 0.000000 0.000000 0.000000 0.037951
#
#
# Mechanical properties :
#
#
# Convention : Reuss Voigt Hill
#
# Bulk Modulus (GPa) = 48.78821 48.87393 48.83107
# Shear Modulus (GPa) = 13.02856 18.20669 15.61763
#
# Velocity S-wave (km/s) = 2.55508 3.02045 2.79746
# Velocity P-wave (km/s) = 5.75774 6.05427 5.90787
#
# Compressibility (1/GPa) = 0.02049676
#
# Stress axis : x y z
#
# Youngs Moduli (GPa) = 40.74139 40.74096 82.61220
#
# Poissons Ratio (x) = 0.63797 0.19372
# Poissons Ratio (y) = 0.63798 0.19373
# Poissons Ratio (z) = 0.09554 0.09554
#
# Static dielectric constant tensor:
#      x y z
#    x 1.730360 0.000000 0.000000 
#    y 0.000000 1.730360 0.000000 
#    z 0.000000 0.000000 1.701810 
# 
# From -- ./inp_files/3466.got.cif
#   From: 2010.05.17/outbox.ucp.g08.bks.cvg/sg118_2_cif.got.tgz:3466.got - 2010.06.11 11:34:11.
