data_PCOD9558902
_publ_section_title
;
Structure prediction by ZEFSAII (Michael W. Deem and Ramdas Pophale) SiO2 
 PCOD9558902
Probable space group: P -4 N 2
;
_chemical_formula_sum "Si O2"
_cell_formula_units_Z 48
_cell_length_a 11.644674
_cell_length_b 11.644674
_cell_length_c 17.279554
_cell_angle_alpha 90.000000
_cell_angle_beta 90.000000
_cell_angle_gamma 90.000000
_cell_volume 2343.080438
_symmetry_space_group_name_H-M "P -4 N 2"
_symmetry_group_IT_number 118
_symmetry_cell_setting 'tetragonal'
loop_
_space_group_symop_operation_xyz
x,y,z
y,-x,-z
-x,-y,z
-y,x,-z
1/2+y,1/2+x,1/2-z
1/2-y,1/2-x,1/2-z
1/2-x,1/2+y,1/2+z
1/2+x,1/2-y,1/2+z
loop_
_atom_site_type_symbol
_atom_site_label
_atom_site_fract_x
_atom_site_fract_y
_atom_site_fract_z
Si Si1 0.849916 0.808273 0.771827
Si Si2 0.632885 0.478414 0.402572
Si Si3 0.579870 0.251841 0.979661
Si Si4 0.377330 0.952572 0.105858
Si Si5 0.163997 0.775675 0.954496
Si Si6 0.399317 0.583564 0.116106
O O1 0.719332 0.780669 0.750000
O O2 0.897627 0.705142 0.827026
O O3 0.897772 0.827572 0.686934
O O4 0.861008 0.923955 0.819037
O O5 0.500000 0.500000 0.420916
O O6 0.686582 0.384918 0.461136
O O7 0.683794 0.604272 0.410196
O O8 0.710797 0.278468 0.954263
O O9 0.486908 0.283410 0.911821
O O10 0.593882 0.132543 0.031484
O O11 0.555575 0.345850 0.043784
O O12 0.500000 0.000000 0.134858
O O13 0.303446 0.062943 0.078126
O O14 0.500000 0.500000 0.139102
#
# Coordination Sequence:
#
# PCOD9558902 Si02
#       6
#     8   8   8   8   8   8
#     4  12  25  43  67  96 139 187 226 291 370 423
#     4  12  18  39  69 103 132 180 240 284 341 438
#     4  12  22  46  70  99 136 182 234 297 344 424
#     4  12  26  41  69 108 142 178 227 302 372 422
#     4  12  21  39  74 106 137 177 240 294 352 429
#     4  12  25  44  69  96 132 187 242 279 346 444
#
# _framework density 20.485852999999999
#
# number of rings (size 3 to 8) (size 9 to 14) (size 15 to 20)
#    0.000    0.000   10.000    1.500    0.000    0.333 
#    0.000    0.833    0.000    1.000    0.000    0.000 
#    0.000    0.000    0.000    0.000    0.000    0.000 
#
# Total GULP energy -267219.957329 kJ/mol
# GULP energy per Si atom -5567.082444 kJ/mol
# Density = 2.043923 g / cm^3
# Si number density = 20.485853 Si / 1000 Ang^3
#
#
#
# Elastic Constant Matrix: (Units=GPa)
#
#
# Indices 1 2 3 4 5 6 
#
# 1 87.1881 12.6021 26.1867 0.0000 0.0000 0.0000
# 2 12.6021 87.1867 26.1864 0.0000 0.0000 0.0000
# 3 26.1867 26.1864 91.7121 0.0000 0.0000 0.0000
# 4 0.0000 0.0000 0.0000 6.0995 0.0000 0.0000
# 5 0.0000 0.0000 0.0000 0.0000 6.1058 0.0000
# 6 0.0000 0.0000 0.0000 0.0000 0.0000 263.7192
#
#
#
# Elastic Compliance Matrix: (Units=1/GPa)
#
#
# Indices 1 2 3 4 5 6 
#
# 1 0.012597 -0.000810 -0.003366 0.000000 0.000000 0.000000
# 2 -0.000810 0.012598 -0.003366 0.000000 0.000000 0.000000
# 3 -0.003366 -0.003366 0.012826 0.000000 0.000000 0.000000
# 4 0.000000 0.000000 0.000000 0.163947 0.000000 0.000000
# 5 0.000000 0.000000 0.000000 0.000000 0.163780 0.000000
# 6 0.000000 0.000000 0.000000 0.000000 0.000000 0.003792
#
#
# Mechanical properties :
#
#
# Convention : Reuss Voigt Hill
#
# Bulk Modulus (GPa) = 43.59582 44.00416 43.79999
# Shear Modulus (GPa) = 12.74640 68.59235 40.66937
#
# Velocity S-wave (km/s) = 2.49711 5.79271 4.46044
# Velocity P-wave (km/s) = 5.44437 8.14049 6.92491
#
# Compressibility (1/GPa) = 0.02293798
#
# Stress axis : x y z
#
# Youngs Moduli (GPa) = 79.38146 79.38020 77.96844
#
# Poissons Ratio (x) = 0.06430 0.26242
# Poissons Ratio (y) = 0.06430 0.26242
# Poissons Ratio (z) = 0.26717 0.26717
#
# Static dielectric constant tensor:
#      x y z
#    x 2.257420 0.000000 0.000000 
#    y 0.000000 2.257470 0.000000 
#    z 0.000000 0.000000 1.796210 
# 
# From -- ./inp_files/4918.got.cif
#   From: 2010.05.17/outbox.cif.g08.bks.cpg/sg118_3_cif.got.tgz:4918.got - 2010.05.20 11:17:24.
