data_PCOD9558552
_publ_section_title
;
Structure prediction by ZEFSAII (Michael W. Deem and Ramdas Pophale) SiO2 
 PCOD9558552
Probable space group: P -4 N 2
;
_chemical_formula_sum "Si O2"
_cell_formula_units_Z 34
_cell_length_a 12.929235
_cell_length_b 12.929235
_cell_length_c 9.700382
_cell_angle_alpha 90.000000
_cell_angle_beta 90.000000
_cell_angle_gamma 90.000000
_cell_volume 1621.565499
_symmetry_space_group_name_H-M "P -4 N 2"
_symmetry_group_IT_number 118
_symmetry_cell_setting 'tetragonal'
loop_
_space_group_symop_operation_xyz
x,y,z
y,-x,-z
-x,-y,z
-y,x,-z
1/2+y,1/2+x,1/2-z
1/2-y,1/2-x,1/2-z
1/2-x,1/2+y,1/2+z
1/2+x,1/2-y,1/2+z
loop_
_atom_site_type_symbol
_atom_site_label
_atom_site_fract_x
_atom_site_fract_y
_atom_site_fract_z
Si Si1 0.470978 0.667965 0.197357
Si Si2 0.000000 0.000000 0.500000
Si Si3 0.482157 0.844543 0.005124
Si Si4 0.417324 0.251568 0.739026
Si Si5 0.177529 0.531139 0.558241
O O1 0.538958 0.591193 0.101941
O O2 0.372274 0.600486 0.238973
O O3 0.516078 0.737197 0.322274
O O4 0.433240 0.751531 0.087867
O O5 0.509970 0.807644 0.850511
O O6 0.593987 0.875449 0.072314
O O7 0.401827 0.936552 0.030607
O O8 0.307898 0.192102 0.750000
O O9 0.456328 0.235734 0.585334
#
# Coordination Sequence:
#
# PCOD9558552 Si02
#       5
#     8   2   8   8   8
#     4  12  23  43  63  87 129 177 223 258 330 392
#     4  12  28  44  62  84 136 196 214 292 336 388
#     4  10  20  41  68 100 134 163 210 272 341 389
#     4  10  21  38  62  95 132 165 203 262 329 397
#     4  10  22  38  70 104 126 162 218 281 321 397
#
# _framework density 20.967390999999999
#
# number of rings (size 3 to 8) (size 9 to 14) (size 15 to 20)
#    0.000    1.412    2.353    3.529    0.000    6.588 
#    0.000    0.000    0.000    0.000    0.000    0.000 
#    0.000    0.000    0.000    0.000    0.000    0.000 
#
# Total GULP energy -189455.537196 kJ/mol
# GULP energy per Si atom -5572.221682 kJ/mol
# Density = 2.091967 g / cm^3
# Si number density = 20.967391 Si / 1000 Ang^3
#
#
#
# Elastic Constant Matrix: (Units=GPa)
#
#
# Indices 1 2 3 4 5 6 
#
# 1 77.8085 19.5603 51.5903 0.0000 0.0000 0.0000
# 2 19.5603 77.8081 51.5899 0.0000 0.0000 0.0000
# 3 51.5903 51.5899 150.1115 0.0000 0.0000 0.0000
# 4 0.0000 0.0000 0.0000 88.6615 0.0000 0.0000
# 5 0.0000 0.0000 0.0000 0.0000 88.6391 0.0000
# 6 0.0000 0.0000 0.0000 0.0000 0.0000 8.4159
#
#
#
# Elastic Compliance Matrix: (Units=1/GPa)
#
#
# Indices 1 2 3 4 5 6 
#
# 1 0.016660 -0.000507 -0.005551 0.000000 0.000000 0.000000
# 2 -0.000507 0.016661 -0.005551 0.000000 0.000000 0.000000
# 3 -0.005551 -0.005551 0.010478 0.000000 0.000000 0.000000
# 4 0.000000 0.000000 0.000000 0.011279 0.000000 0.000000
# 5 0.000000 0.000000 0.000000 0.000000 0.011282 0.000000
# 6 0.000000 0.000000 0.000000 0.000000 0.000000 0.118822
#
#
# Mechanical properties :
#
#
# Convention : Reuss Voigt Hill
#
# Bulk Modulus (GPa) = 48.59601 61.24546 54.92073
# Shear Modulus (GPa) = 23.22760 49.34249 36.28504
#
# Velocity S-wave (km/s) = 3.33197 4.85634 4.16450
# Velocity P-wave (km/s) = 6.16684 7.79222 7.02669
#
# Compressibility (1/GPa) = 0.02057782
#
# Stress axis : x y z
#
# Youngs Moduli (GPa) = 60.02228 60.02209 95.44216
#
# Poissons Ratio (x) = 0.03046 0.52984
# Poissons Ratio (y) = 0.03046 0.52984
# Poissons Ratio (z) = 0.33321 0.33321
#
# Static dielectric constant tensor:
#      x y z
#    x 0.862090 0.000000 0.000000 
#    y 0.000000 0.861700 0.000000 
#    z 0.000000 0.000000 1.765110 
# 
# From -- ./inp_files/1669.got.cif
#   From: 2010.05.17/outbox.cif.g08.bks.cpg/sg118_1_cif.got.tgz:1669.got - 2010.05.20 11:17:24.
