data_PCOD9558235
_publ_section_title
;
Structure prediction by ZEFSAII (Michael W. Deem and Ramdas Pophale) SiO2 
 PCOD9558235
Probable space group: P -4 B 2
;
_chemical_formula_sum "Si O2"
_cell_formula_units_Z 32
_cell_length_a 10.702779
_cell_length_b 10.702779
_cell_length_c 11.146297
_cell_angle_alpha 90.000000
_cell_angle_beta 90.000000
_cell_angle_gamma 90.000000
_cell_volume 1276.802507
_symmetry_space_group_name_H-M "P -4 B 2"
_symmetry_group_IT_number 117
_symmetry_cell_setting 'tetragonal'
loop_
_space_group_symop_operation_xyz
x,y,z
y,-x,-z
-x,-y,z
-y,x,-z
1/2+y,1/2+x,-z
1/2-y,1/2-x,-z
1/2-x,1/2+y,z
1/2+x,1/2-y,z
loop_
_atom_site_type_symbol
_atom_site_label
_atom_site_fract_x
_atom_site_fract_y
_atom_site_fract_z
Si Si1 0.000000 0.500000 0.298586
Si Si2 0.843132 0.866308 0.653983
Si Si3 0.743453 0.399366 0.380587
Si Si4 0.735730 0.038568 0.846036
Si Si5 0.783819 0.283819 0.000000
O O1 0.889184 0.441549 0.376213
O O2 0.939019 0.600604 0.210845
O O3 0.738120 0.758608 0.676845
O O4 0.817955 0.888886 0.512221
O O5 0.982942 0.823478 0.678499
O O6 0.815867 0.987415 0.733276
O O7 0.722428 0.913630 0.927560
O O8 0.780965 0.157273 0.920345
#
# Coordination Sequence:
#
# PCOD9558235 Si02
#       5
#     4   8   8   8   4
#     4  10  22  46  74 100 138 195 230 263 344 450
#     4  10  24  43  70 103 143 185 227 282 346 416
#     4  10  23  42  69 106 143 180 227 275 345 429
#     4  11  25  45  73 100 137 182 235 291 344 401
#     4  12  26  48  70 102 136 182 240 294 342 402
#
# _framework density 25.062607
#
# number of rings (size 3 to 8) (size 9 to 14) (size 15 to 20)
#    0.000    1.500    0.000    3.000    0.000   29.000 
#    0.000    5.000    0.000    0.000    0.000    0.000 
#    0.000    0.000    0.000    0.000    0.000    0.000 
#
# Total GULP energy -179089.091715 kJ/mol
# GULP energy per Si atom -5596.534116 kJ/mol
# Density = 2.500556 g / cm^3
# Si number density = 25.062607 Si / 1000 Ang^3
#
#
#
# Elastic Constant Matrix: (Units=GPa)
#
#
# Indices 1 2 3 4 5 6 
#
# 1 152.7462 49.0133 49.0839 0.0000 0.0000 0.0000
# 2 49.0133 152.7462 49.0839 0.0000 0.0000 0.0000
# 3 49.0839 49.0839 96.4222 0.0000 0.0000 0.0000
# 4 0.0000 0.0000 0.0000 28.7570 0.0000 0.0000
# 5 0.0000 0.0000 0.0000 0.0000 28.7570 0.0000
# 6 0.0000 0.0000 0.0000 0.0000 0.0000 47.8229
#
#
#
# Elastic Compliance Matrix: (Units=1/GPa)
#
#
# Indices 1 2 3 4 5 6 
#
# 1 0.008114 -0.001526 -0.003354 0.000000 0.000000 0.000000
# 2 -0.001526 0.008114 -0.003354 0.000000 0.000000 0.000000
# 3 -0.003354 -0.003354 0.013785 0.000000 0.000000 0.000000
# 4 0.000000 0.000000 0.000000 0.034774 0.000000 0.000000
# 5 0.000000 0.000000 0.000000 0.000000 0.034774 0.000000
# 6 0.000000 0.000000 0.000000 0.000000 0.000000 0.020910
#
#
# Mechanical properties :
#
#
# Convention : Reuss Voigt Hill
#
# Bulk Modulus (GPa) = 73.81732 77.36409 75.59070
# Shear Modulus (GPa) = 35.34691 38.04962 36.69827
#
# Velocity S-wave (km/s) = 3.75953 3.90061 3.83072
# Velocity P-wave (km/s) = 6.95432 7.15694 7.05635
#
# Compressibility (1/GPa) = 0.01354696
#
# Stress axis : x y z
#
# Youngs Moduli (GPa) = 123.24137 123.24137 72.54007
#
# Poissons Ratio (x) = 0.18806 0.24328
# Poissons Ratio (y) = 0.18806 0.24328
# Poissons Ratio (z) = 0.41332 0.41332
#
# Static dielectric constant tensor:
#      x y z
#    x 1.990120 0.000000 0.000000 
#    y 0.000000 1.990120 0.000000 
#    z 0.000000 0.000000 2.009110 
# 
# From -- ./inp_files/2452.got.cif
#   From: 2010.05.17/outbox.cif.g08.bks.cpg/sg117_2_cif.got.tgz:2452.got - 2010.05.20 11:15:09.
