data_PCOD9558040
_publ_section_title
;
Structure prediction by ZEFSAII (Michael W. Deem and Ramdas Pophale) SiO2 
 PCOD9558040
Probable space group: P -4 C 2
;
_chemical_formula_sum "Si O2"
_cell_formula_units_Z 16
_cell_length_a 5.183160
_cell_length_b 5.183160
_cell_length_c 25.285500
_cell_angle_alpha 90.000000
_cell_angle_beta 90.000000
_cell_angle_gamma 90.000000
_cell_volume 679.298689
_symmetry_space_group_name_H-M "P -4 C 2"
_symmetry_group_IT_number 116
_symmetry_cell_setting 'tetragonal'
loop_
_space_group_symop_operation_xyz
x,y,z
y,-x,-z
-x,-y,z
-y,x,-z
y,x,1/2-z
-y,-x,1/2-z
-x,y,1/2+z
x,-y,1/2+z
loop_
_atom_site_type_symbol
_atom_site_label
_atom_site_fract_x
_atom_site_fract_y
_atom_site_fract_z
Si Si1 0.000000 0.000000 0.500000
Si Si2 0.000000 0.000000 0.250000
Si Si3 0.733225 0.338782 0.082742
Si Si4 0.500000 0.000000 0.175455
O O1 0.878056 0.201758 0.459798
O O2 0.747911 0.970924 0.213044
O O3 0.500000 0.500000 0.059816
O O4 0.607096 0.219786 0.135735
O O5 0.000000 0.500000 0.092241
#
# Coordination Sequence:
#
# PCOD9558040 Si02
#       4
#     2   2   8   4
#     4  12  30  48  76 134 168 220 282 324 436 490
#     4  12  30  52  96 118 166 222 278 362 418 502
#     4  12  29  51  83 119 170 224 273 348 411 513
#     4  12  30  56  78 128 158 220 284 348 426 494
#
# _framework density 23.553702000000001
#
# number of rings (size 3 to 8) (size 9 to 14) (size 15 to 20)
#    0.000    0.000    0.000    7.500   21.000    0.000 
#    0.000    0.000    0.000    0.000    0.000    0.000 
#    0.000    0.000    0.000    0.000    0.000    0.000 
#
# Total GULP energy -89495.480643 kJ/mol
# GULP energy per Si atom -5593.467540 kJ/mol
# Density = 2.350009 g / cm^3
# Si number density = 23.553702 Si / 1000 Ang^3
#
#
#
# Elastic Constant Matrix: (Units=GPa)
#
#
# Indices 1 2 3 4 5 6 
#
# 1 182.8839 76.1614 85.3547 0.0000 0.0000 0.0000
# 2 76.1614 182.8839 85.3547 0.0000 0.0000 0.0000
# 3 85.3547 85.3547 185.6475 0.0000 0.0000 0.0000
# 4 0.0000 0.0000 0.0000 -14.6807 0.0000 0.0000
# 5 0.0000 0.0000 0.0000 0.0000 -14.6807 0.0000
# 6 0.0000 0.0000 0.0000 0.0000 0.0000 73.0008
#
#
#
# Elastic Compliance Matrix: (Units=1/GPa)
#
#
# Indices 1 2 3 4 5 6 
#
# 1 0.007454 -0.001916 -0.002546 0.000000 0.000000 0.000000
# 2 -0.001916 0.007454 -0.002546 0.000000 0.000000 0.000000
# 3 -0.002546 -0.002546 0.007728 0.000000 0.000000 0.000000
# 4 0.000000 0.000000 0.000000 -0.068117 0.000000 0.000000
# 5 0.000000 0.000000 0.000000 0.000000 -0.068117 0.000000
# 6 0.000000 0.000000 0.000000 0.000000 0.000000 0.013698
#
#
# Mechanical properties :
#
#
# Convention : Reuss Voigt Hill
#
# Bulk Modulus (GPa) = 116.01858 116.12854 116.07356
# Shear Modulus (GPa) = -60.23499 29.03086 -15.60207
#
# Velocity S-wave (km/s) = -5.06251 3.51456 -2.57651
# Velocity P-wave (km/s) = 3.89769 8.11667 6.36680
#
# Compressibility (1/GPa) = 0.00861931
#
# Stress axis : x y z
#
# Youngs Moduli (GPa) = 134.15200 134.15200 129.39928
#
# Poissons Ratio (x) = 0.25702 0.32950
# Poissons Ratio (y) = 0.25702 0.32950
# Poissons Ratio (z) = 0.34160 0.34160
#
# Static dielectric constant tensor:
#      x y z
#    x 1.922650 0.000000 0.000000 
#    y 0.000000 1.922650 0.000000 
#    z 0.000000 0.000000 1.886770 
# 
# From -- ./inp_files/3574.got.cif
#   From: 2010.05.17/outbox.cif.g08.bks.cpg/sg116_2_cif.got.tgz:3574.got - 2010.05.20 11:11:43.
