data_PCOD9558033
_publ_section_title
;
Structure prediction by ZEFSAII (Michael W. Deem and Ramdas Pophale) SiO2 
 PCOD9558033
Probable space group: P -4 C 2
;
_chemical_formula_sum "Si O2"
_cell_formula_units_Z 36
_cell_length_a 11.696012
_cell_length_b 11.696012
_cell_length_c 12.319666
_cell_angle_alpha 90.000000
_cell_angle_beta 90.000000
_cell_angle_gamma 90.000000
_cell_volume 1685.289613
_symmetry_space_group_name_H-M "P -4 C 2"
_symmetry_group_IT_number 116
_symmetry_cell_setting 'tetragonal'
loop_
_space_group_symop_operation_xyz
x,y,z
y,-x,-z
-x,-y,z
-y,x,-z
y,x,1/2-z
-y,-x,1/2-z
-x,y,1/2+z
x,-y,1/2+z
loop_
_atom_site_type_symbol
_atom_site_label
_atom_site_fract_x
_atom_site_fract_y
_atom_site_fract_z
Si Si1 0.331199 0.207879 0.007080
Si Si2 0.062318 0.807668 0.156277
Si Si3 0.074954 0.613683 0.783850
Si Si4 0.273584 0.446977 0.120161
Si Si5 0.500000 0.500000 0.250000
Si Si6 0.000000 0.000000 0.000000
O O1 0.333470 0.113945 0.102183
O O2 0.296046 0.329566 0.056620
O O3 0.248575 0.164866 0.912308
O O4 0.458137 0.220742 0.958491
O O5 0.113443 0.886558 0.250000
O O6 0.991025 0.888266 0.075329
O O7 0.990438 0.706649 0.211110
O O8 0.188220 0.578186 0.718726
O O9 0.000000 0.500000 0.799736
O O10 0.389768 0.494970 0.172725
#
# Coordination Sequence:
#
# PCOD9558033 Si02
#       6
#     8   8   8   8   2   2
#     4  12  27  45  77 108 151 199 253 309 389 449
#     4  12  28  48  80 111 151 198 258 312 379 452
#     4  12  27  49  73 110 153 197 252 318 378 456
#     4  12  26  46  74 110 152 198 250 314 380 462
#     4  12  24  50  72 112 152 194 244 314 372 456
#     4  12  26  52  80 110 152 200 258 312 376 442
#
# _framework density 21.361314
#
# number of rings (size 3 to 8) (size 9 to 14) (size 15 to 20)
#    0.000    0.000    4.444    4.333    7.778    1.778 
#    0.000    0.000    0.000    0.000    0.000    0.000 
#    0.000    0.000    0.000    0.000    0.000    0.000 
#
# Total GULP energy -201808.066498 kJ/mol
# GULP energy per Si atom -5605.779625 kJ/mol
# Density = 2.131269 g / cm^3
# Si number density = 21.361314 Si / 1000 Ang^3
#
#
#
# Elastic Constant Matrix: (Units=GPa)
#
#
# Indices 1 2 3 4 5 6 
#
# 1 68.1545 24.7407 25.9668 0.0000 0.0000 0.0000
# 2 24.7407 68.1523 25.9660 0.0000 0.0000 0.0000
# 3 25.9668 25.9660 103.1561 0.0000 0.0000 0.0000
# 4 0.0000 0.0000 0.0000 41.6446 0.0000 0.0000
# 5 0.0000 0.0000 0.0000 0.0000 41.6499 0.0000
# 6 0.0000 0.0000 0.0000 0.0000 0.0000 21.3340
#
#
#
# Elastic Compliance Matrix: (Units=1/GPa)
#
#
# Indices 1 2 3 4 5 6 
#
# 1 0.017781 -0.005253 -0.003154 0.000000 0.000000 0.000000
# 2 -0.005253 0.017782 -0.003154 0.000000 0.000000 0.000000
# 3 -0.003154 -0.003154 0.011282 0.000000 0.000000 0.000000
# 4 0.000000 0.000000 0.000000 0.024013 0.000000 0.000000
# 5 0.000000 0.000000 0.000000 0.000000 0.024010 0.000000
# 6 0.000000 0.000000 0.000000 0.000000 0.000000 0.046873
#
#
# Mechanical properties :
#
#
# Convention : Reuss Voigt Hill
#
# Bulk Modulus (GPa) = 42.15244 43.64556 42.89900
# Shear Modulus (GPa) = 28.94040 31.77832 30.35936
#
# Velocity S-wave (km/s) = 3.68476 3.86120 3.77401
# Velocity P-wave (km/s) = 6.15461 6.35255 6.25436
#
# Compressibility (1/GPa) = 0.02372342
#
# Stress axis : x y z
#
# Youngs Moduli (GPa) = 56.23958 56.23791 88.63952
#
# Poissons Ratio (x) = 0.29544 0.27953
# Poissons Ratio (y) = 0.29545 0.27952
# Poissons Ratio (z) = 0.17735 0.17735
#
# Static dielectric constant tensor:
#      x y z
#    x 1.734610 0.000000 0.000000 
#    y 0.000000 1.734610 0.000000 
#    z 0.000000 0.000000 1.746440 
# 
# From -- ./inp_files/1764.got.cif
#   From: 2010.05.17/outbox.cif.g08.bks.cpg/sg116_1_cif.got.tgz:1764.got - 2010.05.20 11:11:43.
