data_PCOD9558563
_publ_section_title
;
Structure prediction by ZEFSAII (Michael W. Deem and Ramdas Pophale) SiO2 
 PCOD9558563
Probable space group: P -4 N 2
;
_chemical_formula_sum "Si O2"
_cell_formula_units_Z 54
_cell_length_a 13.955329
_cell_length_b 13.955329
_cell_length_c 11.856400
_cell_angle_alpha 90.000000
_cell_angle_beta 90.000000
_cell_angle_gamma 90.000000
_cell_volume 2309.048217
_symmetry_space_group_name_H-M "P -4 N 2"
_symmetry_group_IT_number 118
_symmetry_cell_setting 'tetragonal'
loop_
_space_group_symop_operation_xyz
x,y,z
y,-x,-z
-x,-y,z
-y,x,-z
1/2+y,1/2+x,1/2-z
1/2-y,1/2-x,1/2-z
1/2-x,1/2+y,1/2+z
1/2+x,1/2-y,1/2+z
loop_
_atom_site_type_symbol
_atom_site_label
_atom_site_fract_x
_atom_site_fract_y
_atom_site_fract_z
Si Si1 0.212985 0.712985 0.750000
Si Si2 0.284736 0.861506 0.929537
Si Si3 0.983245 0.211524 0.241365
Si Si4 0.688121 0.971488 0.381577
Si Si5 0.150278 0.958650 0.520927
Si Si6 0.000000 0.500000 0.750000
Si Si7 0.988542 0.386810 0.392001
Si Si8 0.417215 0.613343 0.439682
O O1 0.245999 0.772813 0.857604
O O2 0.103939 0.726188 0.709435
O O3 0.399614 0.862005 0.923046
O O4 0.250727 0.952419 0.858518
O O5 0.219046 0.873279 0.039695
O O6 0.922374 0.127303 0.180029
O O7 0.045549 0.171357 0.345977
O O8 0.950250 0.312609 0.298074
O O9 0.768107 0.044551 0.425607
O O10 0.592639 0.009989 0.326615
O O11 0.644386 0.927632 0.498132
O O12 0.067234 0.886493 0.491818
O O13 0.000000 0.500000 0.370454
O O14 0.532824 0.614145 0.464007
#
# Coordination Sequence:
#
# PCOD9558563 Si02
#       8
#     4   8   8   8   8   2   8   8
#     4  11  22  41  67  98 129 192 230 286 343 442
#     4  11  22  41  69  98 137 183 240 282 359 430
#     4  10  21  41  65  99 133 181 229 285 358 416
#     4  10  23  40  68  95 136 177 237 284 348 412
#     4  10  22  39  65  98 134 176 223 281 352 427
#     4  10  20  48  64 100 128 188 242 282 346 406
#     4  11  23  43  71  99 144 190 236 295 355 432
#     4   9  21  40  66 102 137 175 231 300 353 426
#
# _framework density 23.38626
#
# number of rings (size 3 to 8) (size 9 to 14) (size 15 to 20)
#    0.000    1.778    2.222    0.889    2.074    9.481 
#    2.667    1.481    0.000    0.000    0.000    0.000 
#    0.000    0.000    0.000    0.000    0.000    0.000 
#
# Total GULP energy -300662.619302 kJ/mol
# GULP energy per Si atom -5567.826283 kJ/mol
# Density = 2.333303 g / cm^3
# Si number density = 23.386260 Si / 1000 Ang^3
#
#
#
# Elastic Constant Matrix: (Units=GPa)
#
#
# Indices 1 2 3 4 5 6 
#
# 1 71.5603 28.9537 21.4132 0.0000 0.0000 0.0000
# 2 28.9537 71.5603 21.4132 0.0000 0.0000 0.0000
# 3 21.4132 21.4132 74.4670 0.0000 0.0000 0.0000
# 4 0.0000 0.0000 0.0000 19.3888 0.0000 0.0000
# 5 0.0000 0.0000 0.0000 0.0000 19.3888 0.0000
# 6 0.0000 0.0000 0.0000 0.0000 0.0000 31.1191
#
#
#
# Elastic Compliance Matrix: (Units=1/GPa)
#
#
# Indices 1 2 3 4 5 6 
#
# 1 0.017404 -0.006066 -0.003260 0.000000 0.000000 0.000000
# 2 -0.006066 0.017404 -0.003260 0.000000 0.000000 0.000000
# 3 -0.003260 -0.003260 0.015304 0.000000 0.000000 0.000000
# 4 0.000000 0.000000 0.000000 0.051576 0.000000 0.000000
# 5 0.000000 0.000000 0.000000 0.000000 0.051576 0.000000
# 6 0.000000 0.000000 0.000000 0.000000 0.000000 0.032135
#
#
# Mechanical properties :
#
#
# Convention : Reuss Voigt Hill
#
# Bulk Modulus (GPa) = 40.09842 40.12755 40.11299
# Shear Modulus (GPa) = 22.84297 23.69985 23.27141
#
# Velocity S-wave (km/s) = 3.12872 3.18686 3.15793
# Velocity P-wave (km/s) = 5.49866 5.54412 5.52144
#
# Compressibility (1/GPa) = 0.02493864
#
# Stress axis : x y z
#
# Youngs Moduli (GPa) = 57.45722 57.45722 65.34335
#
# Poissons Ratio (x) = 0.34855 0.21304
# Poissons Ratio (y) = 0.34855 0.21304
# Poissons Ratio (z) = 0.18733 0.18733
#
# Static dielectric constant tensor:
#      x y z
#    x 1.965610 0.000000 0.000000 
#    y 0.000000 1.965610 0.000000 
#    z 0.000000 0.000000 1.918950 
# 
# From -- ./inp_files/3451.got.cif
#   From: 2010.05.17/outbox.cif.g08.bks.cpg/sg118_2_cif.got.tgz:3451.got - 2010.05.20 11:17:24.
