data_PCOD9558023
_publ_section_title
;
Structure prediction by ZEFSAII (Michael W. Deem and Ramdas Pophale) SiO2 
 PCOD9558023
Probable space group: P -4 C 2
;
_chemical_formula_sum "Si O2"
_cell_formula_units_Z 26
_cell_length_a 8.082731
_cell_length_b 8.082731
_cell_length_c 17.304559
_cell_angle_alpha 90.000000
_cell_angle_beta 90.000000
_cell_angle_gamma 90.000000
_cell_volume 1130.516191
_symmetry_space_group_name_H-M "P -4 C 2"
_symmetry_group_IT_number 116
_symmetry_cell_setting 'tetragonal'
loop_
_space_group_symop_operation_xyz
x,y,z
y,-x,-z
-x,-y,z
-y,x,-z
y,x,1/2-z
-y,-x,1/2-z
-x,y,1/2+z
x,-y,1/2+z
loop_
_atom_site_type_symbol
_atom_site_label
_atom_site_fract_x
_atom_site_fract_y
_atom_site_fract_z
Si Si1 0.500000 0.000000 0.181133
Si Si2 0.786487 0.695716 0.435930
Si Si3 0.500000 0.500000 0.500000
Si Si4 0.757632 0.757632 0.750000
Si Si5 0.806136 0.043043 0.406089
O O1 0.362602 0.074465 0.123384
O O2 0.577969 0.159906 0.226064
O O3 0.651859 0.554639 0.447071
O O4 0.856332 0.737051 0.521120
O O5 0.712637 0.867302 0.405036
O O6 0.864471 0.792688 0.674010
O O7 0.000000 0.000000 0.417607
#
# Coordination Sequence:
#
# PCOD9558023 Si02
#       5
#     4   8   2   4   8
#     4  12  28  46  76 108 164 210 264 332 416 476
#     4  12  24  46  73 107 147 207 266 315 387 483
#     4  12  28  40  68 118 156 188 244 354 412 420
#     4  12  27  46  72 121 156 205 258 342 413 474
#     4  12  22  45  80 106 139 206 275 314 362 481
#
# _framework density 22.998343999999999
#
# number of rings (size 3 to 8) (size 9 to 14) (size 15 to 20)
#    0.000    0.000    6.154    4.154    0.000    6.154 
#    0.000    0.000    0.000    8.308    0.000    0.000 
#    0.000    0.000    0.000    0.000    0.000    0.000 
#
# Total GULP energy -145218.945669 kJ/mol
# GULP energy per Si atom -5585.344064 kJ/mol
# Density = 2.294600 g / cm^3
# Si number density = 22.998344 Si / 1000 Ang^3
#
#
#
# Elastic Constant Matrix: (Units=GPa)
#
#
# Indices 1 2 3 4 5 6 
#
# 1 79.7333 13.5235 37.9823 0.0000 0.0000 0.0000
# 2 13.5235 79.7333 37.9823 0.0000 0.0000 0.0000
# 3 37.9823 37.9823 140.7162 0.0000 0.0000 0.0000
# 4 0.0000 0.0000 0.0000 27.3397 0.0000 0.0000
# 5 0.0000 0.0000 0.0000 0.0000 27.3397 0.0000
# 6 0.0000 0.0000 0.0000 0.0000 0.0000 53.0722
#
#
#
# Elastic Compliance Matrix: (Units=1/GPa)
#
#
# Indices 1 2 3 4 5 6 
#
# 1 0.014424 -0.000679 -0.003710 0.000000 0.000000 0.000000
# 2 -0.000679 0.014424 -0.003710 0.000000 0.000000 0.000000
# 3 -0.003710 -0.003710 0.009109 0.000000 0.000000 0.000000
# 4 0.000000 0.000000 0.000000 0.036577 0.000000 0.000000
# 5 0.000000 0.000000 0.000000 0.000000 0.036577 0.000000
# 6 0.000000 0.000000 0.000000 0.000000 0.000000 0.018842
#
#
# Mechanical properties :
#
#
# Convention : Reuss Voigt Hill
#
# Bulk Modulus (GPa) = 45.95724 53.23992 49.59858
# Shear Modulus (GPa) = 32.59322 35.59662 34.09492
#
# Velocity S-wave (km/s) = 3.76865 3.93847 3.85449
# Velocity P-wave (km/s) = 6.24205 6.62433 6.43603
#
# Compressibility (1/GPa) = 0.02175936
#
# Stress axis : x y z
#
# Youngs Moduli (GPa) = 69.32708 69.32708 109.77677
#
# Poissons Ratio (x) = 0.04708 0.40729
# Poissons Ratio (y) = 0.04708 0.40729
# Poissons Ratio (z) = 0.25721 0.25721
#
# Static dielectric constant tensor:
#      x y z
#    x 1.959250 0.000000 0.000000 
#    y 0.000000 1.959250 0.000000 
#    z 0.000000 0.000000 1.801690 
# 
# From -- ./inp_files/3107.got.cif
#   From: 2010.05.17/outbox.cif.g08.bks.cpg/sg116_2_cif.got.tgz:3107.got - 2010.05.20 11:11:43.
