data_PCOD9558005
_publ_section_title
;
Structure prediction by ZEFSAII (Michael W. Deem and Ramdas Pophale) SiO2 
 PCOD9558005
Probable space group: P -4 C 2
;
_chemical_formula_sum "Si O2"
_cell_formula_units_Z 20
_cell_length_a 7.925000
_cell_length_b 7.925000
_cell_length_c 11.563561
_cell_angle_alpha 90.000000
_cell_angle_beta 90.000000
_cell_angle_gamma 90.000000
_cell_volume 726.256676
_symmetry_space_group_name_H-M "P -4 C 2"
_symmetry_group_IT_number 116
_symmetry_cell_setting 'tetragonal'
loop_
_space_group_symop_operation_xyz
x,y,z
y,-x,-z
-x,-y,z
-y,x,-z
y,x,1/2-z
-y,-x,1/2-z
-x,y,1/2+z
x,-y,1/2+z
loop_
_atom_site_type_symbol
_atom_site_label
_atom_site_fract_x
_atom_site_fract_y
_atom_site_fract_z
Si Si1 0.271111 0.602392 0.962917
Si Si2 0.000000 0.500000 0.773999
Si Si3 0.808833 0.067901 0.362142
O O1 0.159436 0.518166 0.862853
O O2 0.454942 0.683578 0.944622
O O3 0.156922 0.745995 0.022580
O O4 0.041150 0.656319 0.687828
O O5 0.810559 0.189442 0.250000
O O6 0.000000 0.000000 0.369662
#
# Coordination Sequence:
#
# PCOD9558005 Si02
#       3
#     8   4   8
#     4  11  26  52  80 117 168 226 288 360 443 530
#     4  12  26  50  84 128 168 228 288 364 448 532
#     4  11  26  51  79 124 167 219 280 362 435 531
#
# _framework density 27.538474000000001
#
# number of rings (size 3 to 8) (size 9 to 14) (size 15 to 20)
#    0.000    0.800    4.000    1.200    0.000   16.000 
#    0.000    0.000    0.000    0.000    0.000    0.000 
#    0.000    0.000    0.000    0.000    0.000    0.000 
#
# Total GULP energy -111573.674636 kJ/mol
# GULP energy per Si atom -5578.683732 kJ/mol
# Density = 2.747580 g / cm^3
# Si number density = 27.538474 Si / 1000 Ang^3
#
#
#
# Elastic Constant Matrix: (Units=GPa)
#
#
# Indices 1 2 3 4 5 6 
#
# 1 175.6699 81.6522 56.5649 0.0000 0.0000 0.0000
# 2 81.6522 175.6643 56.5635 0.0000 0.0000 0.0000
# 3 56.5649 56.5635 70.7328 0.0000 0.0000 0.0000
# 4 0.0000 0.0000 0.0000 18.9955 0.0000 0.0000
# 5 0.0000 0.0000 0.0000 0.0000 19.0004 0.0000
# 6 0.0000 0.0000 0.0000 0.0000 0.0000 58.6343
#
#
#
# Elastic Compliance Matrix: (Units=1/GPa)
#
#
# Indices 1 2 3 4 5 6 
#
# 1 0.008315 -0.002322 -0.004793 0.000000 0.000000 0.000000
# 2 -0.002322 0.008315 -0.004793 0.000000 0.000000 0.000000
# 3 -0.004793 -0.004793 0.021803 0.000000 0.000000 0.000000
# 4 0.000000 0.000000 0.000000 0.052644 0.000000 0.000000
# 5 0.000000 0.000000 0.000000 0.000000 0.052630 0.000000
# 6 0.000000 0.000000 0.000000 0.000000 0.000000 0.017055
#
#
# Mechanical properties :
#
#
# Convention : Reuss Voigt Hill
#
# Bulk Modulus (GPa) = 68.40563 90.18092 79.29328
# Shear Modulus (GPa) = 26.39219 34.47845 30.43532
#
# Velocity S-wave (km/s) = 3.09912 3.54221 3.32805
# Velocity P-wave (km/s) = 6.14003 7.03904 6.60485
#
# Compressibility (1/GPa) = 0.01461868
#
# Stress axis : x y z
#
# Youngs Moduli (GPa) = 120.26648 120.26336 45.86477
#
# Poissons Ratio (x) = 0.27921 0.21982
# Poissons Ratio (y) = 0.27921 0.21982
# Poissons Ratio (z) = 0.57642 0.57640
#
# Static dielectric constant tensor:
#      x y z
#    x 2.569510 0.000000 0.000000 
#    y 0.000000 2.569530 0.000000 
#    z 0.000000 0.000000 2.152210 
# 
# From -- ./inp_files/2190.got.cif
#   From: 2010.05.17/outbox.cif.g08.bks.cpg/sg116_2_cif.got.tgz:2190.got - 2010.05.20 11:11:43.
