data_PCOD9558835
_publ_section_title
;
Structure prediction by ZEFSAII (Michael W. Deem and Ramdas Pophale) SiO2 
 PCOD9558835
Probable space group: P -4 N 2
;
_chemical_formula_sum "Si O2"
_cell_formula_units_Z 50
_cell_length_a 8.267220
_cell_length_b 8.267220
_cell_length_c 31.428653
_cell_angle_alpha 90.000000
_cell_angle_beta 90.000000
_cell_angle_gamma 90.000000
_cell_volume 2148.051837
_symmetry_space_group_name_H-M "P -4 N 2"
_symmetry_group_IT_number 118
_symmetry_cell_setting 'tetragonal'
loop_
_space_group_symop_operation_xyz
x,y,z
y,-x,-z
-x,-y,z
-y,x,-z
1/2+y,1/2+x,1/2-z
1/2-y,1/2-x,1/2-z
1/2-x,1/2+y,1/2+z
1/2+x,1/2-y,1/2+z
loop_
_atom_site_type_symbol
_atom_site_label
_atom_site_fract_x
_atom_site_fract_y
_atom_site_fract_z
Si Si1 0.914117 0.743966 0.289918
Si Si2 0.747802 0.602911 0.370784
Si Si3 0.740881 0.087290 0.290265
Si Si4 0.607616 0.252590 0.370909
Si Si5 0.681618 0.057726 0.449925
Si Si6 0.794038 0.721777 0.040962
Si Si7 0.000000 0.000000 0.000000
O O1 0.866134 0.633867 0.250000
O O2 0.865575 0.661541 0.334099
O O3 0.098629 0.800710 0.289206
O O4 0.804654 0.905575 0.287526
O O5 0.682122 0.426303 0.359832
O O6 0.585505 0.715951 0.374762
O O7 0.827741 0.608296 0.417328
O O8 0.633938 0.133938 0.250000
O O9 0.647424 0.128046 0.333554
O O10 0.697792 0.192293 0.413743
O O11 0.693746 0.121279 0.497811
O O12 0.500000 0.000000 0.442974
O O13 0.783213 0.894244 0.446202
O O14 0.871375 0.897205 0.027730
#
# Coordination Sequence:
#
# PCOD9558835 Si02
#       7
#     8   8   8   8   8   8   2
#     4  11  25  44  67  98 140 182 228 285 347 411
#     4  11  23  42  69 101 132 175 231 285 337 414
#     4  11  25  44  67 100 138 180 231 284 346 418
#     4  11  24  42  70 101 134 175 230 283 344 407
#     4  12  25  42  69  98 135 179 226 284 346 410
#     4  12  24  42  66  97 133 176 228 280 346 406
#     4  12  20  40  68  96 128 172 232 284 328 424
#
# _framework density 23.276904999999999
#
# number of rings (size 3 to 8) (size 9 to 14) (size 15 to 20)
#    0.000    0.640    3.200    4.800    0.000    8.000 
#    0.000    0.000    0.000    0.000    0.000    0.000 
#    0.000    0.000    0.000    0.000    0.000    0.000 
#
# Total GULP energy -280070.387598 kJ/mol
# GULP energy per Si atom -5601.407752 kJ/mol
# Density = 2.322393 g / cm^3
# Si number density = 23.276905 Si / 1000 Ang^3
#
#
#
# Elastic Constant Matrix: (Units=GPa)
#
#
# Indices 1 2 3 4 5 6 
#
# 1 65.7401 33.3351 19.3457 0.0000 0.0000 0.0000
# 2 33.3351 65.7408 19.3460 0.0000 0.0000 0.0000
# 3 19.3457 19.3460 134.6272 0.0000 0.0000 0.0000
# 4 0.0000 0.0000 0.0000 106.5786 0.0000 0.0000
# 5 0.0000 0.0000 0.0000 0.0000 106.5800 0.0000
# 6 0.0000 0.0000 0.0000 0.0000 0.0000 29.1998
#
#
#
# Elastic Compliance Matrix: (Units=1/GPa)
#
#
# Indices 1 2 3 4 5 6 
#
# 1 0.020776 -0.010083 -0.001537 0.000000 0.000000 0.000000
# 2 -0.010083 0.020776 -0.001537 0.000000 0.000000 0.000000
# 3 -0.001537 -0.001537 0.007870 0.000000 0.000000 0.000000
# 4 0.000000 0.000000 0.000000 0.009383 0.000000 0.000000
# 5 0.000000 0.000000 0.000000 0.000000 0.009383 0.000000
# 6 0.000000 0.000000 0.000000 0.000000 0.000000 0.034247
#
#
# Mechanical properties :
#
#
# Convention : Reuss Voigt Hill
#
# Bulk Modulus (GPa) = 43.27165 45.57351 44.42258
# Shear Modulus (GPa) = 36.64352 61.41044 49.02698
#
# Velocity S-wave (km/s) = 3.97198 5.14197 4.59437
# Velocity P-wave (km/s) = 6.29808 7.40773 6.87533
#
# Compressibility (1/GPa) = 0.02310982
#
# Stress axis : x y z
#
# Youngs Moduli (GPa) = 48.13164 48.13210 127.07209
#
# Poissons Ratio (x) = 0.48531 0.19526
# Poissons Ratio (y) = 0.48530 0.19527
# Poissons Ratio (z) = 0.07396 0.07396
#
# Static dielectric constant tensor:
#      x y z
#    x 1.849230 0.000000 0.000000 
#    y 0.000000 1.849230 0.000000 
#    z 0.000000 0.000000 1.866390 
# 
# From -- ./inp_files/6897.got.cif
#   From: 2010.05.17/outbox.cif.g08.bks.cpg/sg118_4_cif.got.tgz:6897.got - 2010.05.20 11:17:24.
