data_PCOD9558568
_publ_section_title
;
Structure prediction by ZEFSAII (Michael W. Deem and Ramdas Pophale) SiO2 
 PCOD9558568
Probable space group: P -4 N 2
;
_chemical_formula_sum "Si O2"
_cell_formula_units_Z 64
_cell_length_a 12.664004
_cell_length_b 12.664004
_cell_length_c 22.958785
_cell_angle_alpha 90.000000
_cell_angle_beta 90.000000
_cell_angle_gamma 90.000000
_cell_volume 3682.061000
_symmetry_space_group_name_H-M "P -4 N 2"
_symmetry_group_IT_number 118
_symmetry_cell_setting 'tetragonal'
loop_
_space_group_symop_operation_xyz
x,y,z
y,-x,-z
-x,-y,z
-y,x,-z
1/2+y,1/2+x,1/2-z
1/2-y,1/2-x,1/2-z
1/2-x,1/2+y,1/2+z
1/2+x,1/2-y,1/2+z
loop_
_atom_site_type_symbol
_atom_site_label
_atom_site_fract_x
_atom_site_fract_y
_atom_site_fract_z
Si Si1 0.773274 0.095321 0.981190
Si Si2 0.021619 0.123050 0.579500
Si Si3 0.248603 0.910242 0.175809
Si Si4 0.436725 0.099127 0.483151
Si Si5 0.211781 0.168280 0.491863
Si Si6 0.562524 0.608480 0.584424
Si Si7 0.752783 0.060482 0.309539
Si Si8 0.917251 0.411680 0.846521
O O1 0.804265 0.028806 0.924050
O O2 0.726661 0.211450 0.971012
O O3 0.875057 0.108421 0.022753
O O4 0.692533 0.021529 0.016273
O O5 0.914836 0.178970 0.557594
O O6 0.119327 0.160656 0.539412
O O7 0.050190 0.153087 0.645089
O O8 0.000000 0.000000 0.571865
O O9 0.152114 0.881518 0.133588
O O10 0.217422 0.914103 0.243554
O O11 0.344755 0.825890 0.169610
O O12 0.300076 0.025408 0.162571
O O13 0.327611 0.131020 0.513863
O O14 0.406691 0.074527 0.416126
O O15 0.500000 0.000000 0.508411
O O16 0.500000 0.500000 0.593093
O O17 0.688282 0.949657 0.314655
O O18 0.000000 0.500000 0.825125
#
# Coordination Sequence:
#
# PCOD9558568 Si02
#       8
#     8   8   8   8   8   8   8   8
#     4  12  22  36  53  83 123 154 188 237 294 362
#     4  12  24  40  61  85 117 159 193 245 308 357
#     4  10  21  36  56  83 115 151 194 250 291 355
#     4  11  21  32  57  87 117 152 195 240 291 353
#     4  12  22  39  58  86 121 155 197 246 294 362
#     4  12  21  35  52  80 114 153 185 222 297 355
#     4  10  21  37  57  81 113 151 201 243 298 347
#     4   9  17  30  53  82 109 143 183 237 288 342
#
# _framework density 17.38157
#
# number of rings (size 3 to 8) (size 9 to 14) (size 15 to 20)
#    0.000    1.000    6.250    1.875    1.750    2.000 
#    0.000    0.000    0.000    0.000    0.000    0.000 
#    0.000    3.000    0.000    0.000    0.000    0.000 
#
# Total GULP energy -356918.108297 kJ/mol
# GULP energy per Si atom -5576.845442 kJ/mol
# Density = 1.734201 g / cm^3
# Si number density = 17.381570 Si / 1000 Ang^3
#
#
#
# Elastic Constant Matrix: (Units=GPa)
#
#
# Indices 1 2 3 4 5 6 
#
# 1 111.0715 42.5263 31.8645 0.0000 0.0000 0.0000
# 2 42.5263 111.0715 31.8645 0.0000 0.0000 0.0000
# 3 31.8645 31.8645 68.3734 0.0000 0.0000 0.0000
# 4 0.0000 0.0000 0.0000 18.3643 0.0000 0.0000
# 5 0.0000 0.0000 0.0000 0.0000 18.3643 0.0000
# 6 0.0000 0.0000 0.0000 0.0000 0.0000 30.9843
#
#
#
# Elastic Compliance Matrix: (Units=1/GPa)
#
#
# Indices 1 2 3 4 5 6 
#
# 1 0.011330 -0.003259 -0.003761 0.000000 0.000000 0.000000
# 2 -0.003259 0.011330 -0.003761 0.000000 0.000000 0.000000
# 3 -0.003761 -0.003761 0.018132 0.000000 0.000000 0.000000
# 4 0.000000 0.000000 0.000000 0.054454 0.000000 0.000000
# 5 0.000000 0.000000 0.000000 0.000000 0.054454 0.000000
# 6 0.000000 0.000000 0.000000 0.000000 0.000000 0.032274
#
#
# Mechanical properties :
#
#
# Convention : Reuss Voigt Hill
#
# Bulk Modulus (GPa) = 52.00740 55.89188 53.94964
# Shear Modulus (GPa) = 23.81564 25.82665 24.82115
#
# Velocity S-wave (km/s) = 3.70559 3.85887 3.78301
# Velocity P-wave (km/s) = 6.94942 7.21666 7.08430
#
# Compressibility (1/GPa) = 0.01922803
#
# Stress axis : x y z
#
# Youngs Moduli (GPa) = 88.26092 88.26092 55.15259
#
# Poissons Ratio (x) = 0.28763 0.20745
# Poissons Ratio (y) = 0.28763 0.20745
# Poissons Ratio (z) = 0.33199 0.33199
#
# Static dielectric constant tensor:
#      x y z
#    x 1.632350 0.000000 0.000000 
#    y 0.000000 1.632350 0.000000 
#    z 0.000000 0.000000 1.586120 
# 
# From -- ./inp_files/6267.got.cif
#   From: 2010.05.17/outbox.cif.g08.bks.cpg/sg118_4_cif.got.tgz:6267.got - 2010.05.20 11:17:24.
