data_PCOD9558748
_publ_section_title
;
Structure prediction by ZEFSAII (Michael W. Deem and Ramdas Pophale) SiO2 
 PCOD9558748
Probable space group: P -4 N 2
;
_chemical_formula_sum "Si O2"
_cell_formula_units_Z 16
_cell_length_a 4.962064
_cell_length_b 4.962064
_cell_length_c 25.616685
_cell_angle_alpha 90.000000
_cell_angle_beta 90.000000
_cell_angle_gamma 90.000000
_cell_volume 630.736045
_symmetry_space_group_name_H-M "P -4 N 2"
_symmetry_group_IT_number 118
_symmetry_cell_setting 'tetragonal'
loop_
_space_group_symop_operation_xyz
x,y,z
y,-x,-z
-x,-y,z
-y,x,-z
1/2+y,1/2+x,1/2-z
1/2-y,1/2-x,1/2-z
1/2-x,1/2+y,1/2+z
1/2+x,1/2-y,1/2+z
loop_
_atom_site_type_symbol
_atom_site_label
_atom_site_fract_x
_atom_site_fract_y
_atom_site_fract_z
Si Si1 0.000000 0.500000 0.250000
Si Si2 0.500000 0.500000 0.500000
Si Si3 0.702454 0.246393 0.337663
Si Si4 0.500000 0.000000 0.569778
O O1 0.924735 0.270523 0.292182
O O2 0.401521 0.751747 0.534646
O O3 0.500000 0.500000 0.331535
O O4 0.862997 0.283135 0.391608
O O5 0.500000 0.000000 0.335760
#
# Coordination Sequence:
#
# PCOD9558748 Si02
#       4
#     2   2   8   4
#     4  10  26  40  78 110 160 200 266 312 400 464
#     4  12  28  48  80 112 152 204 260 332 400 478
#     4  11  26  48  77 112 157 205 260 326 393 476
#     4  11  28  51  78 114 154 203 266 327 404 478
#
# _framework density 25.367190000000001
#
# number of rings (size 3 to 8) (size 9 to 14) (size 15 to 20)
#    0.000    1.000    2.500    0.750   10.500   11.000 
#    0.000    0.000    0.000    0.000    0.000    0.000 
#    0.000    0.000    0.000    0.000    0.000    0.000 
#
# Total GULP energy -89444.832560 kJ/mol
# GULP energy per Si atom -5590.302035 kJ/mol
# Density = 2.530945 g / cm^3
# Si number density = 25.367190 Si / 1000 Ang^3
#
#
#
# Elastic Constant Matrix: (Units=GPa)
#
#
# Indices 1 2 3 4 5 6 
#
# 1 208.0358 92.9076 62.7759 0.0000 0.0000 0.0000
# 2 92.9076 208.0358 62.7759 0.0000 0.0000 0.0000
# 3 62.7759 62.7759 165.3061 0.0000 0.0000 0.0000
# 4 0.0000 0.0000 0.0000 -57.3655 0.0000 0.0000
# 5 0.0000 0.0000 0.0000 0.0000 -57.3655 0.0000
# 6 0.0000 0.0000 0.0000 0.0000 0.0000 68.5887
#
#
#
# Elastic Compliance Matrix: (Units=1/GPa)
#
#
# Indices 1 2 3 4 5 6 
#
# 1 0.006317 -0.002369 -0.001499 0.000000 0.000000 0.000000
# 2 -0.002369 0.006317 -0.001499 0.000000 0.000000 0.000000
# 3 -0.001499 -0.001499 0.007188 0.000000 0.000000 0.000000
# 4 0.000000 0.000000 0.000000 -0.017432 0.000000 0.000000
# 5 0.000000 0.000000 0.000000 0.000000 -0.017432 0.000000
# 6 0.000000 0.000000 0.000000 0.000000 0.000000 0.014580
#
#
# Mechanical properties :
#
#
# Convention : Reuss Voigt Hill
#
# Bulk Modulus (GPa) = 110.04321 113.14408 111.59364
# Shear Modulus (GPa) = 375.86750 14.96609 195.41680
#
# Velocity S-wave (km/s) = 12.18575 2.43158 8.78649
# Velocity P-wave (km/s) = 15.53912 7.25140 12.12532
#
# Compressibility (1/GPa) = 0.00908734
#
# Stress axis : x y z
#
# Youngs Moduli (GPa) = 158.29786 158.29786 139.11632
#
# Poissons Ratio (x) = 0.37497 0.20860
# Poissons Ratio (y) = 0.37497 0.20860
# Poissons Ratio (z) = 0.23736 0.23736
#
# Static dielectric constant tensor:
#      x y z
#    x 2.008470 0.000000 0.000000 
#    y 0.000000 2.008470 0.000000 
#    z 0.000000 0.000000 2.026330 
# 
# From -- ./inp_files/5794.got.cif
#   From: 2010.05.17/outbox.cif.g08.bks.cpg/sg118_3_cif.got.tgz:5794.got - 2010.05.20 11:17:24.
