data_PCOD9558548
_publ_section_title
;
Structure prediction by ZEFSAII (Michael W. Deem and Ramdas Pophale) SiO2 
 PCOD9558548
Probable space group: P -4 N 2
;
_chemical_formula_sum "Si O2"
_cell_formula_units_Z 40
_cell_length_a 9.421225
_cell_length_b 9.421225
_cell_length_c 21.362347
_cell_angle_alpha 90.000000
_cell_angle_beta 90.000000
_cell_angle_gamma 90.000000
_cell_volume 1896.110822
_symmetry_space_group_name_H-M "P -4 N 2"
_symmetry_group_IT_number 118
_symmetry_cell_setting 'tetragonal'
loop_
_space_group_symop_operation_xyz
x,y,z
y,-x,-z
-x,-y,z
-y,x,-z
1/2+y,1/2+x,1/2-z
1/2-y,1/2-x,1/2-z
1/2-x,1/2+y,1/2+z
1/2+x,1/2-y,1/2+z
loop_
_atom_site_type_symbol
_atom_site_label
_atom_site_fract_x
_atom_site_fract_y
_atom_site_fract_z
Si Si1 0.189082 0.378485 0.380501
Si Si2 0.087595 0.780687 0.786895
Si Si3 0.345079 0.508655 0.179594
Si Si4 0.801387 0.214709 0.150129
Si Si5 0.607537 0.291651 0.488418
O O1 0.320777 0.294314 0.349977
O O2 0.219037 0.540235 0.358675
O O3 0.183061 0.370644 0.455202
O O4 0.057642 0.292404 0.353613
O O5 0.140079 0.640079 0.750000
O O6 0.927664 0.798550 0.809043
O O7 0.132984 0.911151 0.741234
O O8 0.500000 0.500000 0.147244
O O9 0.302559 0.672394 0.181865
O O10 0.756682 0.170136 0.079340
O O11 0.439640 0.323586 0.487702
#
# Coordination Sequence:
#
# PCOD9558548 Si02
#       5
#     8   8   8   8   8
#     4  10  20  40  67 100 129 166 228 277 330 394
#     4  10  22  41  68  95 134 170 219 282 332 402
#     4  11  25  42  60  97 137 180 218 272 347 401
#     4  11  21  41  69  97 130 178 223 276 338 410
#     4   9  17  34  69 102 125 164 226 281 327 392
#
# _framework density 21.095811999999999
#
# number of rings (size 3 to 8) (size 9 to 14) (size 15 to 20)
#    0.000    1.800    2.000    2.400    0.000    3.200 
#    3.600   14.000    0.000    0.000    0.000    0.000 
#    0.000    0.000    0.000    0.000    0.000    0.000 
#
# Total GULP energy -223150.077161 kJ/mol
# GULP energy per Si atom -5578.751929 kJ/mol
# Density = 2.104780 g / cm^3
# Si number density = 21.095812 Si / 1000 Ang^3
#
#
#
# Elastic Constant Matrix: (Units=GPa)
#
#
# Indices 1 2 3 4 5 6 
#
# 1 82.0742 54.5539 54.2171 0.0000 0.0000 0.0000
# 2 54.5539 82.0742 54.2171 0.0000 0.0000 0.0000
# 3 54.2171 54.2171 135.5431 0.0000 0.0000 0.0000
# 4 0.0000 0.0000 0.0000 19.2280 0.0000 0.0000
# 5 0.0000 0.0000 0.0000 0.0000 19.2280 0.0000
# 6 0.0000 0.0000 0.0000 0.0000 0.0000 26.4050
#
#
#
# Elastic Compliance Matrix: (Units=1/GPa)
#
#
# Indices 1 2 3 4 5 6 
#
# 1 0.023530 -0.012807 -0.004289 0.000000 0.000000 0.000000
# 2 -0.012807 0.023530 -0.004289 0.000000 0.000000 0.000000
# 3 -0.004289 -0.004289 0.010809 0.000000 0.000000 0.000000
# 4 0.000000 0.000000 0.000000 0.052008 0.000000 0.000000
# 5 0.000000 0.000000 0.000000 0.000000 0.052008 0.000000
# 6 0.000000 0.000000 0.000000 0.000000 0.000000 0.037872
#
#
# Mechanical properties :
#
#
# Convention : Reuss Voigt Hill
#
# Bulk Modulus (GPa) = 66.23150 69.51863 67.87507
# Shear Modulus (GPa) = 20.19716 22.08576 21.14146
#
# Velocity S-wave (km/s) = 3.09755 3.23913 3.16913
# Velocity P-wave (km/s) = 6.65258 6.85672 6.75542
#
# Compressibility (1/GPa) = 0.01509856
#
# Stress axis : x y z
#
# Youngs Moduli (GPa) = 42.49883 42.49883 92.51395
#
# Poissons Ratio (x) = 0.54427 0.39682
# Poissons Ratio (y) = 0.54427 0.39682
# Poissons Ratio (z) = 0.18229 0.18229
#
# Static dielectric constant tensor:
#      x y z
#    x 1.779520 0.000000 0.000000 
#    y 0.000000 1.779520 0.000000 
#    z 0.000000 0.000000 1.769150 
# 
# From -- ./inp_files/6019.got.cif
#   From: 2010.05.17/outbox.cif.g08.bks.cpg/sg118_4_cif.got.tgz:6019.got - 2010.05.20 11:17:24.
