data_PCOD9558880
_publ_section_title
;
Structure prediction by ZEFSAII (Michael W. Deem and Ramdas Pophale) SiO2 
 PCOD9558880
Probable space group: P -4 N 2
;
_chemical_formula_sum "Si O2"
_cell_formula_units_Z 18
_cell_length_a 12.824379
_cell_length_b 12.824379
_cell_length_c 4.764611
_cell_angle_alpha 90.000000
_cell_angle_beta 90.000000
_cell_angle_gamma 90.000000
_cell_volume 783.610303
_symmetry_space_group_name_H-M "P -4 N 2"
_symmetry_group_IT_number 118
_symmetry_cell_setting 'tetragonal'
loop_
_space_group_symop_operation_xyz
x,y,z
y,-x,-z
-x,-y,z
-y,x,-z
1/2+y,1/2+x,1/2-z
1/2-y,1/2-x,1/2-z
1/2-x,1/2+y,1/2+z
1/2+x,1/2-y,1/2+z
loop_
_atom_site_type_symbol
_atom_site_label
_atom_site_fract_x
_atom_site_fract_y
_atom_site_fract_z
Si Si1 0.500000 0.000000 0.250000
Si Si2 0.700361 0.053135 0.897592
Si Si3 0.507823 0.334361 0.072374
O O1 0.493161 0.899326 0.446596
O O2 0.661009 0.161009 0.750000
O O3 0.739972 0.985617 0.637673
O O4 0.789481 0.052423 0.137439
O O5 0.406072 0.406187 0.085069
#
# Coordination Sequence:
#
# PCOD9558880 Si02
#       3
#     2   8   8
#     4  12  26  48  70  96 158 180 224 314 354 412
#     4  12  24  47  71 105 144 192 241 298 362 430
#     4  11  25  48  74 105 150 192 239 300 360 435
#
# _framework density 22.970600999999998
#
# number of rings (size 3 to 8) (size 9 to 14) (size 15 to 20)
#    0.000    0.444    4.444    3.333    0.000    3.556 
#   24.000    0.000    0.000    0.000    0.000    0.000 
#    0.000    0.000    0.000    0.000    0.000    0.000 
#
# Total GULP energy -100559.405787 kJ/mol
# GULP energy per Si atom -5586.633655 kJ/mol
# Density = 2.291832 g / cm^3
# Si number density = 22.970601 Si / 1000 Ang^3
#
#
#
# Elastic Constant Matrix: (Units=GPa)
#
#
# Indices 1 2 3 4 5 6 
#
# 1 85.0960 32.4819 53.6093 0.0000 0.0000 0.0000
# 2 32.4819 85.0960 53.6093 0.0000 0.0000 0.0000
# 3 53.6093 53.6093 190.2233 0.0000 0.0000 0.0000
# 4 0.0000 0.0000 0.0000 34.7243 0.0000 0.0000
# 5 0.0000 0.0000 0.0000 0.0000 34.7243 0.0000
# 6 0.0000 0.0000 0.0000 0.0000 0.0000 27.3713
#
#
#
# Elastic Compliance Matrix: (Units=1/GPa)
#
#
# Indices 1 2 3 4 5 6 
#
# 1 0.015227 -0.003780 -0.003226 0.000000 0.000000 0.000000
# 2 -0.003780 0.015227 -0.003226 0.000000 0.000000 0.000000
# 3 -0.003226 -0.003226 0.007075 0.000000 0.000000 0.000000
# 4 0.000000 0.000000 0.000000 0.028798 0.000000 0.000000
# 5 0.000000 0.000000 0.000000 0.000000 0.028798 0.000000
# 6 0.000000 0.000000 0.000000 0.000000 0.000000 0.036535
#
#
# Mechanical properties :
#
#
# Convention : Reuss Voigt Hill
#
# Bulk Modulus (GPa) = 58.59974 71.09069 64.84522
# Shear Modulus (GPa) = 31.68344 34.07831 32.88087
#
# Velocity S-wave (km/s) = 3.71793 3.85588 3.78753
# Velocity P-wave (km/s) = 6.63301 7.13018 6.88608
#
# Compressibility (1/GPa) = 0.01706492
#
# Stress axis : x y z
#
# Youngs Moduli (GPa) = 65.67495 65.67495 141.33735
#
# Poissons Ratio (x) = 0.24824 0.45595
# Poissons Ratio (y) = 0.24824 0.45595
# Poissons Ratio (z) = 0.21186 0.21186
#
# Static dielectric constant tensor:
#      x y z
#    x 1.919490 0.000000 0.000000 
#    y 0.000000 1.919490 0.000000 
#    z 0.000000 0.000000 1.869380 
# 
# From -- ./inp_files/94.got.cif
#   From: 2010.05.17/outbox.cif.g08.bks.cpg/sg118_1_cif.got.tgz:94.got - 2010.05.20 11:17:24.
