data_PCOD9558556
_publ_section_title
;
Structure prediction by ZEFSAII (Michael W. Deem and Ramdas Pophale) SiO2 
 PCOD9558556
Probable space group: P -4 N 2
;
_chemical_formula_sum "Si O2"
_cell_formula_units_Z 34
_cell_length_a 9.245339
_cell_length_b 9.245339
_cell_length_c 20.290475
_cell_angle_alpha 90.000000
_cell_angle_beta 90.000000
_cell_angle_gamma 90.000000
_cell_volume 1734.354591
_symmetry_space_group_name_H-M "P -4 N 2"
_symmetry_group_IT_number 118
_symmetry_cell_setting 'tetragonal'
loop_
_space_group_symop_operation_xyz
x,y,z
y,-x,-z
-x,-y,z
-y,x,-z
1/2+y,1/2+x,1/2-z
1/2-y,1/2-x,1/2-z
1/2-x,1/2+y,1/2+z
1/2+x,1/2-y,1/2+z
loop_
_atom_site_type_symbol
_atom_site_label
_atom_site_fract_x
_atom_site_fract_y
_atom_site_fract_z
Si Si1 0.000000 0.500000 0.250000
Si Si2 0.721657 0.888378 0.650390
Si Si3 0.567581 0.238568 0.304735
Si Si4 0.500000 0.000000 0.093972
Si Si5 0.000000 0.000000 0.279559
Si Si6 0.237515 0.020884 0.505831
O O1 0.013176 0.632449 0.299386
O O2 0.695197 0.719047 0.666750
O O3 0.695673 0.926780 0.574942
O O4 0.883325 0.930481 0.671283
O O5 0.626337 0.126337 0.250000
O O6 0.493442 0.142913 0.360650
O O7 0.473798 0.363826 0.269936
O O8 0.493451 0.858653 0.048524
O O9 0.124203 0.144104 0.483807
#
# Coordination Sequence:
#
# PCOD9558556 Si02
#       6
#     2   8   8   4   4   8
#     4  12  22  40  68  88 134 164 206 276 320 376
#     4  11  22  42  63  97 129 166 217 264 315 388
#     4  10  22  43  63  97 132 158 213 271 320 383
#     4  12  24  44  66  94 132 174 206 274 326 368
#     4  10  20  42  69  93 132 162 208 278 320 366
#     4  11  24  43  67  91 128 175 220 257 310 396
#
# _framework density 19.603832000000001
#
# number of rings (size 3 to 8) (size 9 to 14) (size 15 to 20)
#    0.000    1.176    5.882    2.471    3.294    1.882 
#    4.235    0.000    0.000    0.000    0.000    0.000 
#    0.000    0.000    0.000    0.000    0.000    0.000 
#
# Total GULP energy -189717.858964 kJ/mol
# GULP energy per Si atom -5579.937028 kJ/mol
# Density = 1.955921 g / cm^3
# Si number density = 19.603832 Si / 1000 Ang^3
#
#
#
# Elastic Constant Matrix: (Units=GPa)
#
#
# Indices 1 2 3 4 5 6 
#
# 1 26.6625 5.7676 -2.7399 0.0000 0.0000 0.0000
# 2 5.7676 26.6625 -2.7399 0.0000 0.0000 0.0000
# 3 -2.7399 -2.7399 91.3464 0.0000 0.0000 0.0000
# 4 0.0000 0.0000 0.0000 32.1965 0.0000 0.0000
# 5 0.0000 0.0000 0.0000 0.0000 32.1965 0.0000
# 6 0.0000 0.0000 0.0000 0.0000 0.0000 22.5493
#
#
#
# Elastic Compliance Matrix: (Units=1/GPa)
#
#
# Indices 1 2 3 4 5 6 
#
# 1 0.039426 -0.008433 0.000930 0.000000 0.000000 0.000000
# 2 -0.008433 0.039426 0.000930 0.000000 0.000000 0.000000
# 3 0.000930 0.000930 0.011003 0.000000 0.000000 0.000000
# 4 0.000000 0.000000 0.000000 0.031059 0.000000 0.000000
# 5 0.000000 0.000000 0.000000 0.000000 0.031059 0.000000
# 6 0.000000 0.000000 0.000000 0.000000 0.000000 0.044347
#
#
# Mechanical properties :
#
#
# Convention : Reuss Voigt Hill
#
# Bulk Modulus (GPa) = 13.03661 16.13852 14.58756
# Shear Modulus (GPa) = 21.27328 27.01402 24.14365
#
# Velocity S-wave (km/s) = 3.29775 3.71617 3.51319
# Velocity P-wave (km/s) = 4.60051 5.16366 4.89020
#
# Compressibility (1/GPa) = 0.07670707
#
# Stress axis : x y z
#
# Youngs Moduli (GPa) = 25.36421 25.36421 90.88342
#
# Poissons Ratio (x) = 0.21389 -0.08449
# Poissons Ratio (y) = 0.21389 -0.08449
# Poissons Ratio (z) = -0.02358 -0.02358
#
# Static dielectric constant tensor:
#      x y z
#    x 1.675460 0.000000 0.000000 
#    y 0.000000 1.675460 0.000000 
#    z 0.000000 0.000000 1.689100 
# 
# From -- ./inp_files/5498.got.cif
#   From: 2010.05.17/outbox.cif.g08.bks.cpg/sg118_3_cif.got.tgz:5498.got - 2010.05.20 11:17:24.
