data_PCOD9558714
_publ_section_title
;
Structure prediction by ZEFSAII (Michael W. Deem and Ramdas Pophale) SiO2 
 PCOD9558714
Probable space group: P -4 N 2
;
_chemical_formula_sum "Si O2"
_cell_formula_units_Z 22
_cell_length_a 5.161242
_cell_length_b 5.161242
_cell_length_c 33.175610
_cell_angle_alpha 90.000000
_cell_angle_beta 90.000000
_cell_angle_gamma 90.000000
_cell_volume 883.745799
_symmetry_space_group_name_H-M "P -4 N 2"
_symmetry_group_IT_number 118
_symmetry_cell_setting 'tetragonal'
loop_
_space_group_symop_operation_xyz
x,y,z
y,-x,-z
-x,-y,z
-y,x,-z
1/2+y,1/2+x,1/2-z
1/2-y,1/2-x,1/2-z
1/2-x,1/2+y,1/2+z
1/2+x,1/2-y,1/2+z
loop_
_atom_site_type_symbol
_atom_site_label
_atom_site_fract_x
_atom_site_fract_y
_atom_site_fract_z
Si Si1 0.500000 0.500000 0.500000
Si Si2 0.500000 0.000000 0.553273
Si Si3 0.177925 0.245378 0.794500
Si Si4 0.746928 0.187003 0.118567
O O1 0.427920 0.752221 0.526298
O O2 0.720517 0.894288 0.583392
O O3 0.293782 0.206219 0.750000
O O4 0.323824 0.261293 0.837157
O O5 0.000000 0.500000 0.792791
O O6 0.000000 0.000000 0.799577
O O7 0.500000 0.000000 0.114607
O O8 0.000000 0.000000 0.115990
#
# Coordination Sequence:
#
# PCOD9558714 Si02
#       4
#     2   4   8   8
#     4  12  32  48  84 104 156 188 248 320 404 452
#     4  12  28  56  75 118 144 198 249 322 384 478
#     4   9  19  42  67 105 149 195 244 296 356 429
#     4  10  23  46  77 109 150 197 246 305 370 444
#
# _framework density 24.894034999999999
#
# number of rings (size 3 to 8) (size 9 to 14) (size 15 to 20)
#    0.000    1.818    1.818    0.000    2.545    5.091 
#   32.727    0.000    0.000    0.000    0.000    0.000 
#    0.000    0.000    0.000    0.000    0.000    0.000 
#
# Total GULP energy -123011.461177 kJ/mol
# GULP energy per Si atom -5591.430054 kJ/mol
# Density = 2.483737 g / cm^3
# Si number density = 24.894035 Si / 1000 Ang^3
#
#
#
# Elastic Constant Matrix: (Units=GPa)
#
#
# Indices 1 2 3 4 5 6 
#
# 1 155.6848 50.1510 62.5443 0.0000 0.0000 0.0000
# 2 50.1510 155.6851 62.5444 0.0000 0.0000 0.0000
# 3 62.5443 62.5444 237.0301 0.0000 0.0000 0.0000
# 4 0.0000 0.0000 0.0000 7.8702 0.0000 0.0000
# 5 0.0000 0.0000 0.0000 0.0000 7.8701 0.0000
# 6 0.0000 0.0000 0.0000 0.0000 0.0000 50.0683
#
#
#
# Elastic Compliance Matrix: (Units=1/GPa)
#
#
# Indices 1 2 3 4 5 6 
#
# 1 0.007631 -0.001845 -0.001527 0.000000 0.000000 0.000000
# 2 -0.001845 0.007631 -0.001527 0.000000 0.000000 0.000000
# 3 -0.001527 -0.001527 0.005025 0.000000 0.000000 0.000000
# 4 0.000000 0.000000 0.000000 0.127062 0.000000 0.000000
# 5 0.000000 0.000000 0.000000 0.000000 0.127063 0.000000
# 6 0.000000 0.000000 0.000000 0.000000 0.000000 0.019973
#
#
# Mechanical properties :
#
#
# Convention : Reuss Voigt Hill
#
# Bulk Modulus (GPa) = 95.33149 99.87551 97.60350
# Shear Modulus (GPa) = 16.25080 38.03906 27.14493
#
# Velocity S-wave (km/s) = 2.55776 3.91326 3.30573
# Velocity P-wave (km/s) = 6.86301 7.78623 7.33915
#
# Compressibility (1/GPa) = 0.01048971
#
# Stress axis : x y z
#
# Youngs Moduli (GPa) = 131.04700 131.04721 199.02123
#
# Poissons Ratio (x) = 0.24175 0.30386
# Poissons Ratio (y) = 0.24175 0.30386
# Poissons Ratio (z) = 0.20008 0.20008
#
# Static dielectric constant tensor:
#      x y z
#    x 1.992010 0.000000 0.000000 
#    y 0.000000 1.992010 0.000000 
#    z 0.000000 0.000000 2.137700 
# 
# From -- ./inp_files/6609.got.cif
#   From: 2010.05.17/outbox.cif.g08.bks.cpg/sg118_4_cif.got.tgz:6609.got - 2010.05.20 11:17:24.
