data_PCOD9558020
_publ_section_title
;
Structure prediction by ZEFSAII (Michael W. Deem and Ramdas Pophale) SiO2 
 PCOD9558020
Probable space group: P -4 C 2
;
_chemical_formula_sum "Si O2"
_cell_formula_units_Z 26
_cell_length_a 8.339282
_cell_length_b 8.339282
_cell_length_c 17.202246
_cell_angle_alpha 90.000000
_cell_angle_beta 90.000000
_cell_angle_gamma 90.000000
_cell_volume 1196.306533
_symmetry_space_group_name_H-M "P -4 C 2"
_symmetry_group_IT_number 116
_symmetry_cell_setting 'tetragonal'
loop_
_space_group_symop_operation_xyz
x,y,z
y,-x,-z
-x,-y,z
-y,x,-z
y,x,1/2-z
-y,-x,1/2-z
-x,y,1/2+z
x,-y,1/2+z
loop_
_atom_site_type_symbol
_atom_site_label
_atom_site_fract_x
_atom_site_fract_y
_atom_site_fract_z
Si Si1 0.500000 0.000000 0.181254
Si Si2 0.313974 0.792029 0.058855
Si Si3 0.683269 0.034262 0.894526
Si Si4 0.500000 0.500000 0.500000
Si Si5 0.779298 0.220703 0.750000
O O1 0.378031 0.910882 0.123843
O O2 0.602954 0.853351 0.222603
O O3 0.133048 0.754109 0.078927
O O4 0.326473 0.859108 0.971670
O O5 0.419124 0.631690 0.054949
O O6 0.791236 0.115063 0.828093
O O7 0.500000 0.000000 0.868302
#
# Coordination Sequence:
#
# PCOD9558020 Si02
#       5
#     4   8   8   2   4
#     4  12  28  48  74 112 154 210 262 324 410 474
#     4  12  25  46  80 107 148 205 265 316 385 481
#     4  12  25  48  73 112 151 197 255 325 387 469
#     4  12  20  40  76 114 140 188 272 330 364 444
#     4  12  28  51  71 114 162 198 257 335 410 480
#
# _framework density 21.733559
#
# number of rings (size 3 to 8) (size 9 to 14) (size 15 to 20)
#    0.000    0.000    6.154    3.692    0.000    6.769 
#    0.000    1.538    0.000    0.000    0.000    0.000 
#    0.000    0.000    0.000    0.000    0.000    0.000 
#
# Total GULP energy -145005.276137 kJ/mol
# GULP energy per Si atom -5577.126005 kJ/mol
# Density = 2.168409 g / cm^3
# Si number density = 21.733559 Si / 1000 Ang^3
#
#
#
# Elastic Constant Matrix: (Units=GPa)
#
#
# Indices 1 2 3 4 5 6 
#
# 1 117.3738 52.7121 49.1591 0.0000 0.0000 0.0000
# 2 52.7121 117.3741 49.1595 0.0000 0.0000 0.0000
# 3 49.1591 49.1595 99.6535 0.0000 0.0000 0.0000
# 4 0.0000 0.0000 0.0000 49.5404 0.0000 0.0000
# 5 0.0000 0.0000 0.0000 0.0000 49.5408 0.0000
# 6 0.0000 0.0000 0.0000 0.0000 0.0000 50.5078
#
#
#
# Elastic Compliance Matrix: (Units=1/GPa)
#
#
# Indices 1 2 3 4 5 6 
#
# 1 0.011845 -0.003620 -0.004057 0.000000 0.000000 0.000000
# 2 -0.003620 0.011845 -0.004057 0.000000 0.000000 0.000000
# 3 -0.004057 -0.004057 0.014038 0.000000 0.000000 0.000000
# 4 0.000000 0.000000 0.000000 0.020186 0.000000 0.000000
# 5 0.000000 0.000000 0.000000 0.000000 0.020185 0.000000
# 6 0.000000 0.000000 0.000000 0.000000 0.000000 0.019799
#
#
# Mechanical properties :
#
#
# Convention : Reuss Voigt Hill
#
# Bulk Modulus (GPa) = 70.13595 70.71808 70.42701
# Shear Modulus (GPa) = 39.64499 42.14251 40.89375
#
# Velocity S-wave (km/s) = 4.27563 4.40824 4.34244
# Velocity P-wave (km/s) = 7.53097 7.64980 7.59062
#
# Compressibility (1/GPa) = 0.01425802
#
# Stress axis : x y z
#
# Youngs Moduli (GPa) = 84.42475 84.42467 71.23684
#
# Poissons Ratio (x) = 0.30563 0.28902
# Poissons Ratio (y) = 0.30563 0.28903
# Poissons Ratio (z) = 0.34253 0.34253
#
# Static dielectric constant tensor:
#      x y z
#    x 1.803080 0.000000 0.000000 
#    y 0.000000 1.803080 0.000000 
#    z 0.000000 0.000000 1.827050 
# 
# From -- ./inp_files/3109.got.cif
#   From: 2010.05.17/outbox.cif.g08.bks.cpg/sg116_2_cif.got.tgz:3109.got - 2010.05.20 11:11:43.
