data_PCOD9558699
_publ_section_title
;
Structure prediction by ZEFSAII (Michael W. Deem and Ramdas Pophale) SiO2 
 PCOD9558699
Probable space group: P -4 N 2
;
_chemical_formula_sum "Si O2"
_cell_formula_units_Z 48
_cell_length_a 8.906790
_cell_length_b 8.906790
_cell_length_c 27.664318
_cell_angle_alpha 90.000000
_cell_angle_beta 90.000000
_cell_angle_gamma 90.000000
_cell_volume 2194.635469
_symmetry_space_group_name_H-M "P -4 N 2"
_symmetry_group_IT_number 118
_symmetry_cell_setting 'tetragonal'
loop_
_space_group_symop_operation_xyz
x,y,z
y,-x,-z
-x,-y,z
-y,x,-z
1/2+y,1/2+x,1/2-z
1/2-y,1/2-x,1/2-z
1/2-x,1/2+y,1/2+z
1/2+x,1/2-y,1/2+z
loop_
_atom_site_type_symbol
_atom_site_label
_atom_site_fract_x
_atom_site_fract_y
_atom_site_fract_z
Si Si1 0.501720 0.817805 0.317978
Si Si2 0.839159 0.871839 0.734263
Si Si3 0.116997 0.833360 0.680594
Si Si4 0.493759 0.679480 0.420430
Si Si5 0.818309 0.833292 0.427295
Si Si6 0.586474 0.159053 0.017630
O O1 0.424063 0.716317 0.277528
O O2 0.680296 0.793603 0.313501
O O3 0.447743 0.757008 0.369694
O O4 0.500000 0.000000 0.313418
O O5 0.672610 0.827391 0.750000
O O6 0.936567 0.810033 0.688334
O O7 0.844995 0.045995 0.721597
O O8 0.152566 0.884880 0.626198
O O9 0.500000 0.500000 0.418996
O O10 0.663183 0.739101 0.426532
O O11 0.386222 0.749965 0.461588
O O12 0.914423 0.748126 0.467414
O O13 0.764595 0.996667 0.445154
O O14 0.500000 0.000000 0.013716
#
# Coordination Sequence:
#
# PCOD9558699 Si02
#       6
#     8   8   8   8   8   8
#     4  11  21  43  71 100 135 182 232 291 349 423
#     4  11  23  39  69  98 127 182 226 280 347 409
#     4  10  23  41  66 100 138 167 240 284 346 418
#     4  10  23  39  70 107 142 179 233 293 357 430
#     4  10  23  44  68  97 143 189 226 302 352 426
#     4  10  23  42  71 106 139 186 246 285 369 436
#
# _framework density 21.871514999999999
#
# number of rings (size 3 to 8) (size 9 to 14) (size 15 to 20)
#    0.000    1.667    1.667    3.000    7.000    3.000 
#    0.000    0.000    0.000    5.000    0.000    0.000 
#    0.000    0.000    0.000    0.000    0.000    0.000 
#
# Total GULP energy -267553.207542 kJ/mol
# GULP energy per Si atom -5574.025157 kJ/mol
# Density = 2.182173 g / cm^3
# Si number density = 21.871515 Si / 1000 Ang^3
#
#
#
# Elastic Constant Matrix: (Units=GPa)
#
#
# Indices 1 2 3 4 5 6 
#
# 1 85.9412 20.2547 46.2965 0.0000 0.0000 0.0000
# 2 20.2547 85.9405 46.2967 0.0000 0.0000 0.0000
# 3 46.2965 46.2967 126.6085 0.0000 0.0000 0.0000
# 4 0.0000 0.0000 0.0000 33.7515 0.0000 0.0000
# 5 0.0000 0.0000 0.0000 0.0000 33.7517 0.0000
# 6 0.0000 0.0000 0.0000 0.0000 0.0000 17.6235
#
#
#
# Elastic Compliance Matrix: (Units=1/GPa)
#
#
# Indices 1 2 3 4 5 6 
#
# 1 0.014524 -0.000700 -0.005055 0.000000 0.000000 0.000000
# 2 -0.000700 0.014524 -0.005055 0.000000 0.000000 0.000000
# 3 -0.005055 -0.005055 0.011595 0.000000 0.000000 0.000000
# 4 0.000000 0.000000 0.000000 0.029628 0.000000 0.000000
# 5 0.000000 0.000000 0.000000 0.000000 0.029628 0.000000
# 6 0.000000 0.000000 0.000000 0.000000 0.000000 0.056742
#
#
# Mechanical properties :
#
#
# Convention : Reuss Voigt Hill
#
# Bulk Modulus (GPa) = 52.56680 58.24290 55.40485
# Shear Modulus (GPa) = 27.08509 29.40147 28.24328
#
# Velocity S-wave (km/s) = 3.52287 3.67042 3.59740
# Velocity P-wave (km/s) = 6.37448 6.68207 6.53009
#
# Compressibility (1/GPa) = 0.01902342
#
# Stress axis : x y z
#
# Youngs Moduli (GPa) = 68.85183 68.85095 86.24184
#
# Poissons Ratio (x) = 0.04819 0.43595
# Poissons Ratio (y) = 0.04819 0.43596
# Poissons Ratio (z) = 0.34805 0.34805
#
# Static dielectric constant tensor:
#      x y z
#    x 1.872950 0.000000 0.000000 
#    y 0.000000 1.872950 0.000000 
#    z 0.000000 0.000000 1.831420 
# 
# From -- ./inp_files/6879.got.cif
#   From: 2010.05.17/outbox.cif.g08.bks.cpg/sg118_4_cif.got.tgz:6879.got - 2010.05.20 11:17:24.
