data_PCOD9558189
_publ_section_title
;
Structure prediction by ZEFSAII (Michael W. Deem and Ramdas Pophale) SiO2 
 PCOD9558189
Probable space group: P -4 B 2
;
_chemical_formula_sum "Si O2"
_cell_formula_units_Z 28
_cell_length_a 10.293171
_cell_length_b 10.293171
_cell_length_c 9.922909
_cell_angle_alpha 90.000000
_cell_angle_beta 90.000000
_cell_angle_gamma 90.000000
_cell_volume 1051.325950
_symmetry_space_group_name_H-M "P -4 B 2"
_symmetry_group_IT_number 117
_symmetry_cell_setting 'tetragonal'
loop_
_space_group_symop_operation_xyz
x,y,z
y,-x,-z
-x,-y,z
-y,x,-z
1/2+y,1/2+x,-z
1/2-y,1/2-x,-z
1/2-x,1/2+y,z
1/2+x,1/2-y,z
loop_
_atom_site_type_symbol
_atom_site_label
_atom_site_fract_x
_atom_site_fract_y
_atom_site_fract_z
Si Si1 0.233123 0.903317 0.077536
Si Si2 0.015256 0.790720 0.209704
Si Si3 0.640690 0.349259 0.449767
Si Si4 0.500000 0.000000 0.795851
O O1 0.392035 0.657885 0.290969
O O2 0.990481 0.807016 0.049388
O O3 0.368862 0.963660 0.126403
O O4 0.269718 0.769718 0.000000
O O5 0.146757 0.873604 0.208634
O O6 0.004625 0.823110 0.508478
O O7 0.032920 0.643083 0.262299
O O8 0.744526 0.244526 0.500000
#
# Coordination Sequence:
#
# PCOD9558189 Si02
#       4
#     8   8   8   4
#     4  10  21  41  74 119 157 203 254 328 421 481
#     4  11  24  45  78 111 163 207 265 331 403 495
#     4  11  30  58  83 118 161 224 285 334 403 487
#     4  10  23  46  73 124 159 200 256 325 420 487
#
# _framework density 26.633033999999999
#
# number of rings (size 3 to 8) (size 9 to 14) (size 15 to 20)
#    0.000    1.429    0.000    5.571    8.000    8.000 
#   10.286    0.000    0.000    0.000    0.000    0.000 
#    0.000    0.000    0.000    0.000    0.000    0.000 
#
# Total GULP energy -156432.895287 kJ/mol
# GULP energy per Si atom -5586.889117 kJ/mol
# Density = 2.657242 g / cm^3
# Si number density = 26.633034 Si / 1000 Ang^3
#
#
#
# Elastic Constant Matrix: (Units=GPa)
#
#
# Indices 1 2 3 4 5 6 
#
# 1 152.7393 95.1713 52.5656 0.0000 0.0000 0.0000
# 2 95.1713 152.7393 52.5656 0.0000 0.0000 0.0000
# 3 52.5656 52.5656 84.5537 0.0000 0.0000 0.0000
# 4 0.0000 0.0000 0.0000 37.3580 0.0000 0.0000
# 5 0.0000 0.0000 0.0000 0.0000 37.3580 0.0000
# 6 0.0000 0.0000 0.0000 0.0000 0.0000 57.7495
#
#
#
# Elastic Compliance Matrix: (Units=1/GPa)
#
#
# Indices 1 2 3 4 5 6 
#
# 1 0.011424 -0.005946 -0.003406 0.000000 0.000000 0.000000
# 2 -0.005946 0.011424 -0.003406 0.000000 0.000000 0.000000
# 3 -0.003406 -0.003406 0.016061 0.000000 0.000000 0.000000
# 4 0.000000 0.000000 0.000000 0.026768 0.000000 0.000000
# 5 0.000000 0.000000 0.000000 0.000000 0.026768 0.000000
# 6 0.000000 0.000000 0.000000 0.000000 0.000000 0.017316
#
#
# Mechanical properties :
#
#
# Convention : Reuss Voigt Hill
#
# Bulk Modulus (GPa) = 74.65568 87.84861 81.25214
# Shear Modulus (GPa) = 35.78025 39.14172 37.46099
#
# Velocity S-wave (km/s) = 3.66929 3.83778 3.75448
# Velocity P-wave (km/s) = 6.78555 7.25910 7.02632
#
# Compressibility (1/GPa) = 0.01339483
#
# Stress axis : x y z
#
# Youngs Moduli (GPa) = 87.53251 87.53251 62.26226
#
# Poissons Ratio (x) = 0.52051 0.21203
# Poissons Ratio (y) = 0.52051 0.21203
# Poissons Ratio (z) = 0.29809 0.29809
#
# Static dielectric constant tensor:
#      x y z
#    x 2.259660 0.000000 0.000000 
#    y 0.000000 2.259660 0.000000 
#    z 0.000000 0.000000 2.176790 
# 
# From -- ./inp_files/2309.got.cif
#   From: 2010.05.17/outbox.cif.g08.bks.cpg/sg117_2_cif.got.tgz:2309.got - 2010.05.20 11:15:09.
