data_PCOD9558860
_publ_section_title
;
Structure prediction by ZEFSAII (Michael W. Deem and Ramdas Pophale) SiO2 
 PCOD9558860
Probable space group: P -4 N 2
;
_chemical_formula_sum "Si O2"
_cell_formula_units_Z 40
_cell_length_a 8.501730
_cell_length_b 8.501730
_cell_length_c 21.572969
_cell_angle_alpha 90.000000
_cell_angle_beta 90.000000
_cell_angle_gamma 90.000000
_cell_volume 1559.281536
_symmetry_space_group_name_H-M "P -4 N 2"
_symmetry_group_IT_number 118
_symmetry_cell_setting 'tetragonal'
loop_
_space_group_symop_operation_xyz
x,y,z
y,-x,-z
-x,-y,z
-y,x,-z
1/2+y,1/2+x,1/2-z
1/2-y,1/2-x,1/2-z
1/2-x,1/2+y,1/2+z
1/2+x,1/2-y,1/2+z
loop_
_atom_site_type_symbol
_atom_site_label
_atom_site_fract_x
_atom_site_fract_y
_atom_site_fract_z
Si Si1 0.302787 0.138784 0.542328
Si Si2 0.616148 0.298098 0.856615
Si Si3 0.521613 0.179697 0.088850
Si Si4 0.032740 0.179543 0.107304
Si Si5 0.583630 0.673814 0.739569
O O1 0.287415 0.084588 0.472149
O O2 0.477818 0.200300 0.554693
O O3 0.194729 0.284340 0.563440
O O4 0.246989 0.999678 0.587555
O O5 0.684335 0.475519 0.861463
O O6 0.527629 0.253987 0.793410
O O7 0.778696 0.205505 0.869044
O O8 0.500000 0.000000 0.109184
O O9 0.936942 0.225895 0.168707
O O10 0.000000 0.000000 0.090462
O O11 0.500000 0.500000 0.737021
O O12 0.763750 0.736251 0.750000
#
# Coordination Sequence:
#
# PCOD9558860 Si02
#       5
#     8   8   8   8   8
#     4  12  24  43  69 100 140 190 248 301 371 453
#     4  12  24  44  72 104 141 192 245 303 368 451
#     4  12  26  44  66 101 145 193 243 309 381 450
#     4  11  25  45  70 104 143 187 244 309 373 441
#     4  11  24  44  76 109 146 192 245 310 376 449
#
# _framework density 25.652843000000001
#
# number of rings (size 3 to 8) (size 9 to 14) (size 15 to 20)
#    0.000    0.400    4.000    5.400    0.000    0.800 
#    0.000    0.000    0.000    0.000    0.000    0.000 
#    0.000    0.000    0.000    0.000    0.000    0.000 
#
# Total GULP energy -223400.916404 kJ/mol
# GULP energy per Si atom -5585.022910 kJ/mol
# Density = 2.559446 g / cm^3
# Si number density = 25.652843 Si / 1000 Ang^3
#
#
#
# Elastic Constant Matrix: (Units=GPa)
#
#
# Indices 1 2 3 4 5 6 
#
# 1 101.3641 42.1746 10.0604 0.0000 0.0000 0.0000
# 2 42.1746 101.3648 10.0605 0.0000 0.0000 0.0000
# 3 10.0604 10.0605 94.5788 0.0000 0.0000 0.0000
# 4 0.0000 0.0000 0.0000 26.6781 0.0000 0.0000
# 5 0.0000 0.0000 0.0000 0.0000 26.6775 0.0000
# 6 0.0000 0.0000 0.0000 0.0000 0.0000 44.7157
#
#
#
# Elastic Compliance Matrix: (Units=1/GPa)
#
#
# Indices 1 2 3 4 5 6 
#
# 1 0.011984 -0.004911 -0.000752 0.000000 0.000000 0.000000
# 2 -0.004911 0.011983 -0.000752 0.000000 0.000000 0.000000
# 3 -0.000752 -0.000752 0.010733 0.000000 0.000000 0.000000
# 4 0.000000 0.000000 0.000000 0.037484 0.000000 0.000000
# 5 0.000000 0.000000 0.000000 0.000000 0.037485 0.000000
# 6 0.000000 0.000000 0.000000 0.000000 0.000000 0.022363
#
#
# Mechanical properties :
#
#
# Convention : Reuss Voigt Hill
#
# Bulk Modulus (GPa) = 45.72783 46.87763 46.30273
# Shear Modulus (GPa) = 32.86153 35.28176 34.07164
#
# Velocity S-wave (km/s) = 3.58300 3.71260 3.64838
# Velocity P-wave (km/s) = 5.91452 6.05734 5.98636
#
# Compressibility (1/GPa) = 0.02186852
#
# Stress axis : x y z
#
# Youngs Moduli (GPa) = 83.44788 83.44846 93.16858
#
# Poissons Ratio (x) = 0.40984 0.07009
# Poissons Ratio (y) = 0.40984 0.07009
# Poissons Ratio (z) = 0.06278 0.06278
#
# Static dielectric constant tensor:
#      x y z
#    x 2.124930 0.000000 0.000000 
#    y 0.000000 2.124930 0.000000 
#    z 0.000000 0.000000 1.953840 
# 
# From -- ./inp_files/5998.got.cif
#   From: 2010.05.17/outbox.cif.g08.bks.cpg/sg118_3_cif.got.tgz:5998.got - 2010.05.20 11:17:24.
