data_PCOD9558545
_publ_section_title
;
Structure prediction by ZEFSAII (Michael W. Deem and Ramdas Pophale) SiO2 
 PCOD9558545
Probable space group: P -4 N 2
;
_chemical_formula_sum "Si O2"
_cell_formula_units_Z 58
_cell_length_a 18.456168
_cell_length_b 18.456168
_cell_length_c 8.962528
_cell_angle_alpha 90.000000
_cell_angle_beta 90.000000
_cell_angle_gamma 90.000000
_cell_volume 3052.907143
_symmetry_space_group_name_H-M "P -4 N 2"
_symmetry_group_IT_number 118
_symmetry_cell_setting 'tetragonal'
loop_
_space_group_symop_operation_xyz
x,y,z
y,-x,-z
-x,-y,z
-y,x,-z
1/2+y,1/2+x,1/2-z
1/2-y,1/2-x,1/2-z
1/2-x,1/2+y,1/2+z
1/2+x,1/2-y,1/2+z
loop_
_atom_site_type_symbol
_atom_site_label
_atom_site_fract_x
_atom_site_fract_y
_atom_site_fract_z
Si Si1 0.898263 0.088201 0.145918
Si Si2 0.835950 0.814610 0.121208
Si Si3 0.219582 0.957524 0.382922
Si Si4 0.807956 0.731725 0.590905
Si Si5 0.377044 0.220510 0.845641
Si Si6 0.398888 0.209748 0.194291
Si Si7 0.000000 0.000000 0.000000
Si Si8 0.188532 0.988332 0.707876
O O1 0.836999 0.074304 0.266592
O O2 0.925961 0.010687 0.088614
O O3 0.970449 0.121810 0.217018
O O4 0.865910 0.138427 0.015535
O O5 0.774126 0.852411 0.224297
O O6 0.909269 0.800818 0.218187
O O7 0.801857 0.744553 0.035358
O O8 0.264535 0.891373 0.453843
O O9 0.266907 0.017269 0.296323
O O10 0.178663 0.987780 0.528707
O O11 0.808163 0.691838 0.750000
O O12 0.779125 0.811916 0.637719
O O13 0.343843 0.156158 0.750000
O O14 0.451442 0.248217 0.772803
O O15 0.389565 0.203822 0.017188
O O16 0.365715 0.134286 0.250000
#
# Coordination Sequence:
#
# PCOD9558545 Si02
#       8
#     8   8   8   8   8   8   2   8
#     4  12  23  41  58  87 132 174 204 253 323 398
#     4  12  24  39  67  93 128 169 220 268 329 393
#     4  11  25  40  62  92 128 167 219 267 330 386
#     4  11  20  40  65  91 122 166 215 273 318 385
#     4  10  20  40  62  87 126 167 208 262 319 380
#     4  11  24  39  62  94 127 163 219 272 317 391
#     4  12  24  36  54  84 136 168 218 240 304 400
#     4  11  25  37  60  96 126 166 212 264 317 394
#
# _framework density 18.998286
#
# number of rings (size 3 to 8) (size 9 to 14) (size 15 to 20)
#    0.000    0.828    5.517    2.483    1.931    0.000 
#    0.000    0.000    0.000    0.414    0.000    0.966 
#    0.000    0.000    0.000    0.000    0.000    0.000 
#
# Total GULP energy -323210.495570 kJ/mol
# GULP energy per Si atom -5572.594751 kJ/mol
# Density = 1.895504 g / cm^3
# Si number density = 18.998286 Si / 1000 Ang^3
#
#
#
# Elastic Constant Matrix: (Units=GPa)
#
#
# Indices 1 2 3 4 5 6 
#
# 1 70.4157 35.0148 15.4211 0.0000 0.0000 0.0000
# 2 35.0148 70.4172 15.4180 0.0000 0.0000 0.0000
# 3 15.4211 15.4180 53.9605 0.0000 0.0000 0.0000
# 4 0.0000 0.0000 0.0000 28.5459 0.0000 0.0000
# 5 0.0000 0.0000 0.0000 0.0000 28.5458 0.0000
# 6 0.0000 0.0000 0.0000 0.0000 0.0000 25.7093
#
#
#
# Elastic Compliance Matrix: (Units=1/GPa)
#
#
# Indices 1 2 3 4 5 6 
#
# 1 0.019299 -0.008949 -0.002959 0.000000 0.000000 0.000000
# 2 -0.008949 0.019298 -0.002957 0.000000 0.000000 0.000000
# 3 -0.002959 -0.002957 0.020222 0.000000 0.000000 0.000000
# 4 0.000000 0.000000 0.000000 0.035031 0.000000 0.000000
# 5 0.000000 0.000000 0.000000 0.000000 0.035031 0.000000
# 6 0.000000 0.000000 0.000000 0.000000 0.000000 0.038897
#
#
# Mechanical properties :
#
#
# Convention : Reuss Voigt Hill
#
# Bulk Modulus (GPa) = 34.37368 36.27791 35.32580
# Shear Modulus (GPa) = 24.13084 25.15615 24.64349
#
# Velocity S-wave (km/s) = 3.56779 3.64280 3.60549
# Velocity P-wave (km/s) = 5.92491 6.06879 5.99728
#
# Compressibility (1/GPa) = 0.02909202
#
# Stress axis : x y z
#
# Youngs Moduli (GPa) = 51.81592 51.81853 49.45018
#
# Poissons Ratio (x) = 0.46371 0.14630
# Poissons Ratio (y) = 0.46368 0.14621
# Poissons Ratio (z) = 0.15330 0.15321
#
# Static dielectric constant tensor:
#      x y z
#    x 1.717750 0.000000 0.000000 
#    y 0.000000 1.717750 0.000000 
#    z 0.000000 0.000000 1.770130 
# 
# From -- ./inp_files/2231.got.cif
#   From: 2010.05.17/outbox.cif.g08.bks.cpg/sg118_2_cif.got.tgz:2231.got - 2010.05.20 11:17:24.
