data_PCOD9558779
_publ_section_title
;
Structure prediction by ZEFSAII (Michael W. Deem and Ramdas Pophale) SiO2 
 PCOD9558779
Probable space group: P -4 N 2
;
_chemical_formula_sum "Si O2"
_cell_formula_units_Z 24
_cell_length_a 8.531763
_cell_length_b 8.531763
_cell_length_c 11.030738
_cell_angle_alpha 90.000000
_cell_angle_beta 90.000000
_cell_angle_gamma 90.000000
_cell_volume 802.938228
_symmetry_space_group_name_H-M "P -4 N 2"
_symmetry_group_IT_number 118
_symmetry_cell_setting 'tetragonal'
loop_
_space_group_symop_operation_xyz
x,y,z
y,-x,-z
-x,-y,z
-y,x,-z
1/2+y,1/2+x,1/2-z
1/2-y,1/2-x,1/2-z
1/2-x,1/2+y,1/2+z
1/2+x,1/2-y,1/2+z
loop_
_atom_site_type_symbol
_atom_site_label
_atom_site_fract_x
_atom_site_fract_y
_atom_site_fract_z
Si Si1 0.761337 0.584187 0.866968
Si Si2 0.046573 0.209279 0.299734
Si Si3 0.454747 0.727774 0.541239
O O1 0.863856 0.636145 0.750000
O O2 0.604546 0.691918 0.883627
O O3 0.676170 0.418185 0.838602
O O4 0.095317 0.820023 0.954186
O O5 0.119893 0.368004 0.513267
O O6 0.963683 0.187615 0.169072
O O7 0.362777 0.862777 0.750000
#
# Coordination Sequence:
#
# PCOD9558779 Si02
#       3
#     8   8   8
#     4  11  21  43  70  99 138 181 236 298 351 438
#     4  11  25  42  64 103 145 177 231 299 360 420
#     4  11  20  40  72  99 131 187 234 286 365 426
#
# _framework density 29.890218000000001
#
# number of rings (size 3 to 8) (size 9 to 14) (size 15 to 20)
#    0.000    1.000    6.667    2.000    0.000    4.000 
#    0.000    6.667    0.000    0.000    0.000    0.000 
#    0.000    0.000    0.000    0.000    0.000    0.000 
#
# Total GULP energy -133854.072317 kJ/mol
# GULP energy per Si atom -5577.253013 kJ/mol
# Density = 2.982219 g / cm^3
# Si number density = 29.890218 Si / 1000 Ang^3
#
#
#
# Elastic Constant Matrix: (Units=GPa)
#
#
# Indices 1 2 3 4 5 6 
#
# 1 85.4056 111.5375 20.2515 0.0000 0.0000 0.0000
# 2 111.5375 85.4066 20.2513 0.0000 0.0000 0.0000
# 3 20.2515 20.2513 115.9908 0.0000 0.0000 0.0000
# 4 0.0000 0.0000 0.0000 37.0788 0.0000 0.0000
# 5 0.0000 0.0000 0.0000 0.0000 37.0787 0.0000
# 6 0.0000 0.0000 0.0000 0.0000 0.0000 96.0039
#
#
#
# Elastic Compliance Matrix: (Units=1/GPa)
#
#
# Indices 1 2 3 4 5 6 
#
# 1 -0.016501 0.021767 -0.000919 0.000000 0.000000 0.000000
# 2 0.021767 -0.016501 -0.000920 0.000000 0.000000 0.000000
# 3 -0.000919 -0.000920 0.008942 0.000000 0.000000 0.000000
# 4 0.000000 0.000000 0.000000 0.026970 0.000000 0.000000
# 5 0.000000 0.000000 0.000000 0.000000 0.026970 0.000000
# 6 0.000000 0.000000 0.000000 0.000000 0.000000 0.010416
#
#
# Mechanical properties :
#
#
# Convention : Reuss Voigt Hill
#
# Bulk Modulus (GPa) = 63.30027 65.65374 64.47700
# Shear Modulus (GPa) = 876.31066 43.01648 459.66357
#
# Velocity S-wave (km/s) = 17.14097 3.79773 12.41442
# Velocity P-wave (km/s) = 20.32176 6.42207 15.07012
#
# Compressibility (1/GPa) = 0.01579772
#
# Stress axis : x y z
#
# Youngs Moduli (GPa) = -60.60309 -60.60386 111.82596
#
# Poissons Ratio (x) = 1.31919 0.10282
# Poissons Ratio (y) = 1.31917 0.10283
# Poissons Ratio (z) = -0.05572 -0.05573
#
# Static dielectric constant tensor:
#      x y z
#    x 1.996040 0.000000 0.000000 
#    y 0.000000 1.996040 0.000000 
#    z 0.000000 0.000000 0.295620 
# 
# From -- ./inp_files/1380.got.cif
#   From: 2010.05.17/outbox.cif.g08.bks.cpg/sg118_1_cif.got.tgz:1380.got - 2010.05.20 11:17:24.
