data_PCOD9558474
_publ_section_title
;
Structure prediction by ZEFSAII (Michael W. Deem and Ramdas Pophale) SiO2 
 PCOD9558474
Probable space group: P -4 N 2
;
_chemical_formula_sum "Si O2"
_cell_formula_units_Z 38
_cell_length_a 8.995282
_cell_length_b 8.995282
_cell_length_c 23.766720
_cell_angle_alpha 90.000000
_cell_angle_beta 90.000000
_cell_angle_gamma 90.000000
_cell_volume 1923.086484
_symmetry_space_group_name_H-M "P -4 N 2"
_symmetry_group_IT_number 118
_symmetry_cell_setting 'tetragonal'
loop_
_space_group_symop_operation_xyz
x,y,z
y,-x,-z
-x,-y,z
-y,x,-z
1/2+y,1/2+x,1/2-z
1/2-y,1/2-x,1/2-z
1/2-x,1/2+y,1/2+z
1/2+x,1/2-y,1/2+z
loop_
_atom_site_type_symbol
_atom_site_label
_atom_site_fract_x
_atom_site_fract_y
_atom_site_fract_z
Si Si1 0.500000 0.500000 0.000000
Si Si2 0.263640 0.582763 0.505672
Si Si3 0.243768 0.496268 0.742564
Si Si4 0.500000 0.500000 0.833351
Si Si5 0.982045 0.672081 0.875262
Si Si6 0.700545 0.348788 0.080805
O O1 0.567663 0.367605 0.036109
O O2 0.414067 0.682611 0.506821
O O3 0.196678 0.577090 0.568360
O O4 0.155413 0.650736 0.457658
O O5 0.122440 0.622440 0.750000
O O6 0.363207 0.517217 0.790968
O O7 0.282905 0.512944 0.676538
O O8 0.162776 0.337225 0.750000
O O9 0.469436 0.354478 0.872765
O O10 0.810563 0.694861 0.890605
O O11 0.000000 0.500000 0.857378
#
# Coordination Sequence:
#
# PCOD9558474 Si02
#       6
#     2   8   8   4   8   8
#     4  10  20  32  48  80 108 148 194 244 310 372
#     4   9  20  36  56  86 119 154 195 250 316 376
#     4  11  21  39  61  91 116 158 216 253 305 367
#     4  11  22  37  62  92 121 164 207 266 308 372
#     4  11  19  35  60  84 114 156 204 257 298 376
#     4  10  20  34  55  84 119 152 199 252 316 375
#
# _framework density 19.759900999999999
#
# number of rings (size 3 to 8) (size 9 to 14) (size 15 to 20)
#    0.000    1.684    4.211    1.263    0.000    5.053 
#    0.000    0.000    0.000    5.684    0.000    0.000 
#    0.000    0.000    0.000    0.000    0.000    0.000 
#
# Total GULP energy -211603.259159 kJ/mol
# GULP energy per Si atom -5568.506820 kJ/mol
# Density = 1.971493 g / cm^3
# Si number density = 19.759901 Si / 1000 Ang^3
#
#
#
# Elastic Constant Matrix: (Units=GPa)
#
#
# Indices 1 2 3 4 5 6 
#
# 1 54.9121 28.6517 50.1407 0.0000 0.0000 0.0000
# 2 28.6517 54.9128 50.1408 0.0000 0.0000 0.0000
# 3 50.1407 50.1408 166.3543 0.0000 0.0000 0.0000
# 4 0.0000 0.0000 0.0000 33.8150 0.0000 0.0000
# 5 0.0000 0.0000 0.0000 0.0000 33.8150 0.0000
# 6 0.0000 0.0000 0.0000 0.0000 0.0000 20.7238
#
#
#
# Elastic Compliance Matrix: (Units=1/GPa)
#
#
# Indices 1 2 3 4 5 6 
#
# 1 0.028414 -0.009666 -0.005651 0.000000 0.000000 0.000000
# 2 -0.009666 0.028414 -0.005651 0.000000 0.000000 0.000000
# 3 -0.005651 -0.005651 0.009418 0.000000 0.000000 0.000000
# 4 0.000000 0.000000 0.000000 0.029573 0.000000 0.000000
# 5 0.000000 0.000000 0.000000 0.000000 0.029573 0.000000
# 6 0.000000 0.000000 0.000000 0.000000 0.000000 0.048254
#
#
# Mechanical properties :
#
#
# Convention : Reuss Voigt Hill
#
# Bulk Modulus (GPa) = 41.13429 59.33840 50.23635
# Shear Modulus (GPa) = 22.35304 27.48717 24.92010
#
# Velocity S-wave (km/s) = 3.36703 3.73374 3.55511
# Velocity P-wave (km/s) = 5.99817 6.97729 6.50618
#
# Compressibility (1/GPa) = 0.02431061
#
# Stress axis : x y z
#
# Youngs Moduli (GPa) = 35.19368 35.19426 106.18275
#
# Poissons Ratio (x) = 0.34018 0.60003
# Poissons Ratio (y) = 0.34017 0.60002
# Poissons Ratio (z) = 0.19888 0.19888
#
# Static dielectric constant tensor:
#      x y z
#    x 1.704450 0.000000 0.000000 
#    y 0.000000 1.704450 0.000000 
#    z 0.000000 0.000000 1.784780 
# 
# From -- ./inp_files/6057.got.cif
#   From: 2010.05.17/outbox.cif.g08.bks.cpg/sg118_4_cif.got.tgz:6057.got - 2010.05.20 11:17:24.
