data_PCOD9558342
_publ_section_title
;
Structure prediction by ZEFSAII (Michael W. Deem and Ramdas Pophale) SiO2 
 PCOD9558342
Probable space group: P -4 B 2
;
_chemical_formula_sum "Si O2"
_cell_formula_units_Z 18
_cell_length_a 10.171912
_cell_length_b 10.171912
_cell_length_c 7.991531
_cell_angle_alpha 90.000000
_cell_angle_beta 90.000000
_cell_angle_gamma 90.000000
_cell_volume 826.866081
_symmetry_space_group_name_H-M "P -4 B 2"
_symmetry_group_IT_number 117
_symmetry_cell_setting 'tetragonal'
loop_
_space_group_symop_operation_xyz
x,y,z
y,-x,-z
-x,-y,z
-y,x,-z
1/2+y,1/2+x,-z
1/2-y,1/2-x,-z
1/2-x,1/2+y,z
1/2+x,1/2-y,z
loop_
_atom_site_type_symbol
_atom_site_label
_atom_site_fract_x
_atom_site_fract_y
_atom_site_fract_z
Si Si1 0.135704 0.550958 0.314187
Si Si2 0.500000 0.500000 0.000000
Si Si3 0.714306 0.675182 0.160454
O O1 0.099625 0.599625 0.500000
O O2 0.229070 0.424550 0.298680
O O3 0.194960 0.676582 0.222160
O O4 0.000000 0.500000 0.235843
O O5 0.576659 0.610574 0.104767
O O6 0.810051 0.689950 0.000000
#
# Coordination Sequence:
#
# PCOD9558342 Si02
#       3
#     8   2   8
#     4  11  28  46  73 107 152 199 250 318 392 460
#     4  12  24  40  74 112 136 192 246 316 372 444
#     4  12  25  46  75 109 148 195 260 313 381 465
#
# _framework density 21.768941999999999
#
# number of rings (size 3 to 8) (size 9 to 14) (size 15 to 20)
#    0.000    0.444    4.444    2.667    6.222    0.000 
#    0.000    0.000    0.000    0.000    0.000    0.000 
#    0.000    0.000    0.000    0.000    0.000    0.000 
#
# Total GULP energy -100604.316372 kJ/mol
# GULP energy per Si atom -5589.128687 kJ/mol
# Density = 2.171940 g / cm^3
# Si number density = 21.768942 Si / 1000 Ang^3
#
#
#
# Elastic Constant Matrix: (Units=GPa)
#
#
# Indices 1 2 3 4 5 6 
#
# 1 113.3082 42.6702 28.9789 0.0000 0.0000 0.0000
# 2 42.6702 113.3102 28.9793 0.0000 0.0000 0.0000
# 3 28.9789 28.9793 84.1140 0.0000 0.0000 0.0000
# 4 0.0000 0.0000 0.0000 28.9696 0.0000 0.0000
# 5 0.0000 0.0000 0.0000 0.0000 28.9694 0.0000
# 6 0.0000 0.0000 0.0000 0.0000 0.0000 65.6119
#
#
#
# Elastic Compliance Matrix: (Units=1/GPa)
#
#
# Indices 1 2 3 4 5 6 
#
# 1 0.010754 -0.003402 -0.002533 0.000000 0.000000 0.000000
# 2 -0.003402 0.010754 -0.002533 0.000000 0.000000 0.000000
# 3 -0.002533 -0.002533 0.013634 0.000000 0.000000 0.000000
# 4 0.000000 0.000000 0.000000 0.034519 0.000000 0.000000
# 5 0.000000 0.000000 0.000000 0.000000 0.034519 0.000000
# 6 0.000000 0.000000 0.000000 0.000000 0.000000 0.015241
#
#
# Mechanical properties :
#
#
# Convention : Reuss Voigt Hill
#
# Bulk Modulus (GPa) = 54.92546 56.88771 55.90658
# Shear Modulus (GPa) = 35.10566 38.71712 36.91139
#
# Velocity S-wave (km/s) = 4.02014 4.22186 4.12223
# Velocity P-wave (km/s) = 6.84358 7.06786 6.95662
#
# Compressibility (1/GPa) = 0.01820649
#
# Stress axis : x y z
#
# Youngs Moduli (GPa) = 92.98436 92.98592 73.34601
#
# Poissons Ratio (x) = 0.31635 0.18579
# Poissons Ratio (y) = 0.31634 0.18579
# Poissons Ratio (z) = 0.23553 0.23554
#
# Static dielectric constant tensor:
#      x y z
#    x 1.798930 0.000000 0.000000 
#    y 0.000000 1.798930 0.000000 
#    z 0.000000 0.000000 1.838490 
# 
# From -- ./inp_files/122.got.cif
#   From: 2010.05.17/outbox.cif.g08.bks.cpg/sg117_1_cif.got.tgz:122.got - 2010.05.20 11:15:09.
