data_PCOD9558507
_publ_section_title
;
Structure prediction by ZEFSAII (Michael W. Deem and Ramdas Pophale) SiO2 
 PCOD9558507
Probable space group: P -4 N 2
;
_chemical_formula_sum "Si O2"
_cell_formula_units_Z 48
_cell_length_a 8.588917
_cell_length_b 8.588917
_cell_length_c 32.108586
_cell_angle_alpha 90.000000
_cell_angle_beta 90.000000
_cell_angle_gamma 90.000000
_cell_volume 2368.634182
_symmetry_space_group_name_H-M "P -4 N 2"
_symmetry_group_IT_number 118
_symmetry_cell_setting 'tetragonal'
loop_
_space_group_symop_operation_xyz
x,y,z
y,-x,-z
-x,-y,z
-y,x,-z
1/2+y,1/2+x,1/2-z
1/2-y,1/2-x,1/2-z
1/2-x,1/2+y,1/2+z
1/2+x,1/2-y,1/2+z
loop_
_atom_site_type_symbol
_atom_site_label
_atom_site_fract_x
_atom_site_fract_y
_atom_site_fract_z
Si Si1 0.056683 0.671151 0.413721
Si Si2 0.232859 0.110663 0.990447
Si Si3 0.750305 0.339419 0.932298
Si Si4 0.344400 0.108363 0.297096
Si Si5 0.180118 0.040183 0.133494
Si Si6 0.232210 0.892928 0.363399
O O1 0.203418 0.647881 0.444569
O O2 0.095886 0.773506 0.373437
O O3 0.000000 0.500000 0.402391
O O4 0.919137 0.764055 0.436548
O O5 0.361285 0.172227 0.023053
O O6 0.071154 0.198247 0.001220
O O7 0.861496 0.218677 0.907611
O O8 0.741236 0.488229 0.902334
O O9 0.332124 0.167877 0.250000
O O10 0.362918 0.255991 0.327262
O O11 0.500000 0.000000 0.297631
O O12 0.224668 0.993046 0.321022
O O13 0.288550 0.887608 0.134825
O O14 0.000000 0.000000 0.135815
#
# Coordination Sequence:
#
# PCOD9558507 Si02
#       6
#     8   8   8   8   8   8
#     4  12  24  40  57  88 119 165 217 268 328 385
#     4  11  25  41  60  84 114 164 214 271 313 375
#     4  11  23  39  59  83 119 158 210 264 326 377
#     4   8  16  35  62  94 123 157 204 254 318 391
#     4  10  20  36  63  90 115 160 204 259 309 387
#     4  10  22  39  62  87 123 164 207 265 317 386
#
# _framework density 20.264844
#
# number of rings (size 3 to 8) (size 9 to 14) (size 15 to 20)
#    0.000    1.667    1.667    4.000    4.667    1.333 
#    0.000    3.333    0.000    0.000    0.000    8.167 
#    0.000    1.333    0.000    0.000    0.000    0.000 
#
# Total GULP energy -268044.513625 kJ/mol
# GULP energy per Si atom -5584.260701 kJ/mol
# Density = 2.021872 g / cm^3
# Si number density = 20.264844 Si / 1000 Ang^3
#
#
#
# Elastic Constant Matrix: (Units=GPa)
#
#
# Indices 1 2 3 4 5 6 
#
# 1 87.2628 21.3800 25.7366 0.0000 0.0000 0.0000
# 2 21.3800 87.2627 25.7365 0.0000 0.0000 0.0000
# 3 25.7366 25.7365 106.2107 0.0000 0.0000 0.0000
# 4 0.0000 0.0000 0.0000 17.8241 0.0000 0.0000
# 5 0.0000 0.0000 0.0000 0.0000 17.8241 0.0000
# 6 0.0000 0.0000 0.0000 0.0000 0.0000 30.5858
#
#
#
# Elastic Compliance Matrix: (Units=1/GPa)
#
#
# Indices 1 2 3 4 5 6 
#
# 1 0.012788 -0.002390 -0.002520 0.000000 0.000000 0.000000
# 2 -0.002390 0.012788 -0.002520 0.000000 0.000000 0.000000
# 3 -0.002520 -0.002520 0.010636 0.000000 0.000000 0.000000
# 4 0.000000 0.000000 0.000000 0.056104 0.000000 0.000000
# 5 0.000000 0.000000 0.000000 0.000000 0.056104 0.000000
# 6 0.000000 0.000000 0.000000 0.000000 0.000000 0.032695
#
#
# Mechanical properties :
#
#
# Convention : Reuss Voigt Hill
#
# Bulk Modulus (GPa) = 46.82915 47.38247 47.10581
# Shear Modulus (GPa) = 24.61930 27.10566 25.86248
#
# Velocity S-wave (km/s) = 3.48929 3.66125 3.57630
# Velocity P-wave (km/s) = 6.27633 6.42693 6.35207
#
# Compressibility (1/GPa) = 0.02135422
#
# Stress axis : x y z
#
# Youngs Moduli (GPa) = 78.19612 78.19609 94.01713
#
# Poissons Ratio (x) = 0.18690 0.23689
# Poissons Ratio (y) = 0.18690 0.23689
# Poissons Ratio (z) = 0.19703 0.19703
#
# Static dielectric constant tensor:
#      x y z
#    x 1.743230 0.000000 0.000000 
#    y 0.000000 1.743230 0.000000 
#    z 0.000000 0.000000 1.761610 
# 
# From -- ./inp_files/6867.got.cif
#   From: 2010.05.17/outbox.cif.g08.bks.cpg/sg118_4_cif.got.tgz:6867.got - 2010.05.20 11:17:24.
