data_PCOD9558502
_publ_section_title
;
Structure prediction by ZEFSAII (Michael W. Deem and Ramdas Pophale) SiO2 
 PCOD9558502
Probable space group: P -4 N 2
;
_chemical_formula_sum "Si O2"
_cell_formula_units_Z 36
_cell_length_a 14.794729
_cell_length_b 14.794729
_cell_length_c 8.768291
_cell_angle_alpha 90.000000
_cell_angle_beta 90.000000
_cell_angle_gamma 90.000000
_cell_volume 1919.238661
_symmetry_space_group_name_H-M "P -4 N 2"
_symmetry_group_IT_number 118
_symmetry_cell_setting 'tetragonal'
loop_
_space_group_symop_operation_xyz
x,y,z
y,-x,-z
-x,-y,z
-y,x,-z
1/2+y,1/2+x,1/2-z
1/2-y,1/2-x,1/2-z
1/2-x,1/2+y,1/2+z
1/2+x,1/2-y,1/2+z
loop_
_atom_site_type_symbol
_atom_site_label
_atom_site_fract_x
_atom_site_fract_y
_atom_site_fract_z
Si Si1 0.544512 0.740317 0.962871
Si Si2 0.369106 0.668239 0.823655
Si Si3 0.760407 0.663639 0.474869
Si Si4 0.715412 0.784589 0.750000
Si Si5 0.062306 0.417734 0.568098
O O1 0.472359 0.679454 0.873172
O O2 0.625114 0.774588 0.851844
O O3 0.584077 0.681655 0.102053
O O4 0.491115 0.826560 0.027706
O O5 0.361377 0.682438 0.643306
O O6 0.315314 0.752733 0.899915
O O7 0.723294 0.699921 0.634699
O O8 0.837446 0.587699 0.496668
O O9 0.073990 0.426010 0.750000
O O10 0.000000 0.500000 0.513538
#
# Coordination Sequence:
#
# PCOD9558502 Si02
#       5
#     8   8   8   4   8
#     4  10  22  39  60  91 117 169 203 261 308 377
#     4   9  20  38  60  82 120 160 207 244 314 372
#     4   9  18  37  57  84 121 162 192 251 313 376
#     4  10  20  36  60  88 126 158 212 246 306 380
#     4  10  21  35  59  92 125 153 201 261 315 375
#
# _framework density 18.757438
#
# number of rings (size 3 to 8) (size 9 to 14) (size 15 to 20)
#    0.000    2.444    1.111    0.000    3.111    7.556 
#    0.000    0.000    0.000    0.000    0.000    0.000 
#    0.000    0.000    0.000    0.000    0.000    0.000 
#
# Total GULP energy -200716.488542 kJ/mol
# GULP energy per Si atom -5575.458015 kJ/mol
# Density = 1.871475 g / cm^3
# Si number density = 18.757438 Si / 1000 Ang^3
#
#
#
# Elastic Constant Matrix: (Units=GPa)
#
#
# Indices 1 2 3 4 5 6 
#
# 1 75.0452 45.6208 46.7785 0.0000 0.0000 0.0000
# 2 45.6208 75.0445 46.7787 0.0000 0.0000 0.0000
# 3 46.7785 46.7787 123.1664 0.0000 0.0000 0.0000
# 4 0.0000 0.0000 0.0000 25.1631 0.0000 0.0000
# 5 0.0000 0.0000 0.0000 0.0000 25.1627 0.0000
# 6 0.0000 0.0000 0.0000 0.0000 0.0000 31.2593
#
#
#
# Elastic Compliance Matrix: (Units=1/GPa)
#
#
# Indices 1 2 3 4 5 6 
#
# 1 0.022866 -0.011120 -0.004461 0.000000 0.000000 0.000000
# 2 -0.011120 0.022866 -0.004461 0.000000 0.000000 0.000000
# 3 -0.004461 -0.004461 0.011508 0.000000 0.000000 0.000000
# 4 0.000000 0.000000 0.000000 0.039741 0.000000 0.000000
# 5 0.000000 0.000000 0.000000 0.000000 0.039741 0.000000
# 6 0.000000 0.000000 0.000000 0.000000 0.000000 0.031991
#
#
# Mechanical properties :
#
#
# Convention : Reuss Voigt Hill
#
# Bulk Modulus (GPa) = 58.29019 61.29022 59.79021
# Shear Modulus (GPa) = 23.30832 25.25556 24.28194
#
# Velocity S-wave (km/s) = 3.52890 3.67335 3.60185
# Velocity P-wave (km/s) = 6.90995 7.12302 7.01730
#
# Compressibility (1/GPa) = 0.01715554
#
# Stress axis : x y z
#
# Youngs Moduli (GPa) = 43.73320 43.73256 86.89693
#
# Poissons Ratio (x) = 0.48629 0.38766
# Poissons Ratio (y) = 0.48630 0.38768
# Poissons Ratio (z) = 0.19510 0.19511
#
# Static dielectric constant tensor:
#      x y z
#    x 1.646200 0.000000 0.000000 
#    y 0.000000 1.646200 0.000000 
#    z 0.000000 0.000000 1.662730 
# 
# From -- ./inp_files/1749.got.cif
#   From: 2010.05.17/outbox.cif.g08.bks.cpg/sg118_1_cif.got.tgz:1749.got - 2010.05.20 11:17:24.
