data_PCOD9558667
_publ_section_title
;
Structure prediction by ZEFSAII (Michael W. Deem and Ramdas Pophale) SiO2 
 PCOD9558667
Probable space group: P -4 N 2
;
_chemical_formula_sum "Si O2"
_cell_formula_units_Z 48
_cell_length_a 8.659220
_cell_length_b 8.659220
_cell_length_c 27.675530
_cell_angle_alpha 90.000000
_cell_angle_beta 90.000000
_cell_angle_gamma 90.000000
_cell_volume 2075.169109
_symmetry_space_group_name_H-M "P -4 N 2"
_symmetry_group_IT_number 118
_symmetry_cell_setting 'tetragonal'
loop_
_space_group_symop_operation_xyz
x,y,z
y,-x,-z
-x,-y,z
-y,x,-z
1/2+y,1/2+x,1/2-z
1/2-y,1/2-x,1/2-z
1/2-x,1/2+y,1/2+z
1/2+x,1/2-y,1/2+z
loop_
_atom_site_type_symbol
_atom_site_label
_atom_site_fract_x
_atom_site_fract_y
_atom_site_fract_z
Si Si1 0.787667 0.173929 0.421309
Si Si2 0.885489 0.776917 0.010854
Si Si3 0.945843 0.181873 0.742631
Si Si4 0.450610 0.679487 0.351080
Si Si5 0.226491 0.603985 0.856705
Si Si6 0.919307 0.653511 0.396008
O O1 0.703518 0.174184 0.472255
O O2 0.700336 0.283516 0.381908
O O3 0.956422 0.243934 0.424166
O O4 0.781898 0.005642 0.398820
O O5 0.889277 0.708232 0.064157
O O6 0.057471 0.803541 0.991258
O O7 0.772129 0.272129 0.750000
O O8 0.989064 0.269547 0.693279
O O9 0.035309 0.204696 0.793167
O O10 0.000000 0.000000 0.732562
O O11 0.500000 0.500000 0.359132
O O12 0.568661 0.811304 0.369149
O O13 0.348322 0.744218 0.853557
O O14 0.000000 0.500000 0.377518
#
# Coordination Sequence:
#
# PCOD9558667 Si02
#       6
#     8   8   8   8   8   8
#     4  12  25  41  68  99 136 182 230 298 368 429
#     4  11  26  46  69  95 132 180 238 297 360 441
#     4   9  19  39  66 101 141 187 238 300 363 437
#     4  10  22  41  71 101 135 186 243 291 352 442
#     4  11  24  43  68  99 145 185 233 296 370 434
#     4  12  25  44  65 100 135 186 241 298 367 446
#
# _framework density 23.130647
#
# number of rings (size 3 to 8) (size 9 to 14) (size 15 to 20)
#    0.000    1.167    1.667    4.000    4.667    2.000 
#    0.000    2.500    0.000   14.500    0.000    0.000 
#    0.000    0.000    0.000    0.000    0.000    0.000 
#
# Total GULP energy -267797.574618 kJ/mol
# GULP energy per Si atom -5579.116138 kJ/mol
# Density = 2.307800 g / cm^3
# Si number density = 23.130647 Si / 1000 Ang^3
#
#
#
# Elastic Constant Matrix: (Units=GPa)
#
#
# Indices 1 2 3 4 5 6 
#
# 1 71.4698 51.3304 12.1467 0.0000 0.0000 0.0000
# 2 51.3304 71.4698 12.1467 0.0000 0.0000 0.0000
# 3 12.1467 12.1467 61.0341 0.0000 0.0000 0.0000
# 4 0.0000 0.0000 0.0000 21.6844 0.0000 0.0000
# 5 0.0000 0.0000 0.0000 0.0000 21.6844 0.0000
# 6 0.0000 0.0000 0.0000 0.0000 0.0000 39.5451
#
#
#
# Elastic Compliance Matrix: (Units=1/GPa)
#
#
# Indices 1 2 3 4 5 6 
#
# 1 0.029065 -0.020588 -0.001687 0.000000 0.000000 0.000000
# 2 -0.020588 0.029065 -0.001687 0.000000 0.000000 0.000000
# 3 -0.001687 -0.001687 0.017056 0.000000 0.000000 0.000000
# 4 0.000000 0.000000 0.000000 0.046116 0.000000 0.000000
# 5 0.000000 0.000000 0.000000 0.000000 0.046116 0.000000
# 6 0.000000 0.000000 0.000000 0.000000 0.000000 0.025288
#
#
# Mechanical properties :
#
#
# Convention : Reuss Voigt Hill
#
# Bulk Modulus (GPa) = 36.68154 39.46903 38.07529
# Shear Modulus (GPa) = 20.02256 25.13946 22.58101
#
# Velocity S-wave (km/s) = 2.94535 3.30031 3.12787
# Velocity P-wave (km/s) = 5.24019 5.62346 5.43521
#
# Compressibility (1/GPa) = 0.02726167
#
# Stress axis : x y z
#
# Youngs Moduli (GPa) = 34.40517 34.40517 58.63111
#
# Poissons Ratio (x) = 0.70835 0.09891
# Poissons Ratio (y) = 0.70835 0.09891
# Poissons Ratio (z) = 0.05804 0.05804
#
# Static dielectric constant tensor:
#      x y z
#    x 1.923260 0.000000 0.000000 
#    y 0.000000 1.923260 0.000000 
#    z 0.000000 0.000000 1.807540 
# 
# From -- ./inp_files/6883.got.cif
#   From: 2010.05.17/outbox.cif.g08.bks.cpg/sg118_4_cif.got.tgz:6883.got - 2010.05.20 11:17:24.
