data_PCOD9558616
_publ_section_title
;
Structure prediction by ZEFSAII (Michael W. Deem and Ramdas Pophale) SiO2 
 PCOD9558616
Probable space group: P -4 N 2
;
_chemical_formula_sum "Si O2"
_cell_formula_units_Z 56
_cell_length_a 14.761546
_cell_length_b 14.761546
_cell_length_c 12.150681
_cell_angle_alpha 90.000000
_cell_angle_beta 90.000000
_cell_angle_gamma 90.000000
_cell_volume 2647.672762
_symmetry_space_group_name_H-M "P -4 N 2"
_symmetry_group_IT_number 118
_symmetry_cell_setting 'tetragonal'
loop_
_space_group_symop_operation_xyz
x,y,z
y,-x,-z
-x,-y,z
-y,x,-z
1/2+y,1/2+x,1/2-z
1/2-y,1/2-x,1/2-z
1/2-x,1/2+y,1/2+z
1/2+x,1/2-y,1/2+z
loop_
_atom_site_type_symbol
_atom_site_label
_atom_site_fract_x
_atom_site_fract_y
_atom_site_fract_z
Si Si1 0.250350 0.610227 0.782779
Si Si2 0.757824 0.603615 0.206588
Si Si3 0.655429 0.166209 0.379946
Si Si4 0.967977 0.162951 0.124970
Si Si5 0.523066 0.333173 0.386923
Si Si6 0.804397 0.491890 0.994209
Si Si7 0.188464 0.695331 0.117933
O O1 0.152356 0.652356 0.750000
O O2 0.310586 0.694994 0.819046
O O3 0.300857 0.563917 0.680202
O O4 0.246033 0.538947 0.882465
O O5 0.853081 0.646919 0.250000
O O6 0.711235 0.540867 0.298496
O O7 0.760561 0.542765 0.097812
O O8 0.649457 0.149457 0.250000
O O9 0.583329 0.243719 0.401767
O O10 0.753832 0.214616 0.402446
O O11 0.635141 0.074811 0.446780
O O12 0.911355 0.079493 0.176084
O O13 0.890510 0.234425 0.091742
O O14 0.010935 0.134329 0.010726
O O15 0.829837 0.395357 0.048782
O O16 0.181020 0.681020 0.250000
#
# Coordination Sequence:
#
# PCOD9558616 Si02
#       7
#     8   8   8   8   8   8   8
#     4  11  25  44  66  97 138 178 220 283 357 420
#     4  11  25  44  66  97 138 178 220 283 357 420
#     4  10  21  41  66  93 131 176 217 274 350 416
#     4  11  23  42  67  94 131 181 232 281 342 420
#     4  11  23  42  67  94 131 181 232 281 342 420
#     4  12  22  40  71  97 126 172 232 272 330 417
#     4  10  21  41  66  93 131 176 217 274 350 416
#
# _framework density 21.150649000000001
#
# number of rings (size 3 to 8) (size 9 to 14) (size 15 to 20)
#    0.000    1.143    2.857    3.429    0.000    7.714 
#    0.000    7.857    0.000    3.857    0.000    0.000 
#    0.000    0.000    0.000    0.000    0.000    0.000 
#
# Total GULP energy -312272.110285 kJ/mol
# GULP energy per Si atom -5576.287684 kJ/mol
# Density = 2.110251 g / cm^3
# Si number density = 21.150649 Si / 1000 Ang^3
#
#
#
# Elastic Constant Matrix: (Units=GPa)
#
#
# Indices 1 2 3 4 5 6 
#
# 1 64.1919 0.2797 11.0022 0.0000 0.0000 0.0000
# 2 0.2797 64.1926 11.0021 0.0000 0.0000 0.0000
# 3 11.0022 11.0021 98.0218 0.0000 0.0000 0.0000
# 4 0.0000 0.0000 0.0000 34.4057 0.0000 0.0000
# 5 0.0000 0.0000 0.0000 0.0000 34.4058 0.0000
# 6 0.0000 0.0000 0.0000 0.0000 0.0000 40.7647
#
#
#
# Elastic Compliance Matrix: (Units=1/GPa)
#
#
# Indices 1 2 3 4 5 6 
#
# 1 0.015888 0.000241 -0.001810 0.000000 0.000000 0.000000
# 2 0.000241 0.015887 -0.001810 0.000000 0.000000 0.000000
# 3 -0.001810 -0.001810 0.010608 0.000000 0.000000 0.000000
# 4 0.000000 0.000000 0.000000 0.029065 0.000000 0.000000
# 5 0.000000 0.000000 0.000000 0.000000 0.029065 0.000000
# 6 0.000000 0.000000 0.000000 0.000000 0.000000 0.024531
#
#
# Mechanical properties :
#
#
# Convention : Reuss Voigt Hill
#
# Bulk Modulus (GPa) = 28.07096 30.10824 29.08960
# Shear Modulus (GPa) = 34.80014 35.52341 35.16178
#
# Velocity S-wave (km/s) = 4.06069 4.10267 4.08173
# Velocity P-wave (km/s) = 5.94023 6.05876 5.99979
#
# Compressibility (1/GPa) = 0.03562400
#
# Stress axis : x y z
#
# Youngs Moduli (GPa) = 62.94254 62.94317 94.26674
#
# Poissons Ratio (x) = -0.01517 0.17065
# Poissons Ratio (y) = -0.01517 0.17065
# Poissons Ratio (z) = 0.11395 0.11394
#
# Static dielectric constant tensor:
#      x y z
#    x 1.752230 0.000000 0.000000 
#    y 0.000000 1.752230 0.000000 
#    z 0.000000 0.000000 1.787350 
# 
# From -- ./inp_files/3427.got.cif
#   From: 2010.05.17/outbox.cif.g08.bks.cpg/sg118_2_cif.got.tgz:3427.got - 2010.05.20 11:17:24.
