data_PCOD9558786
_publ_section_title
;
Structure prediction by ZEFSAII (Michael W. Deem and Ramdas Pophale) SiO2 
 PCOD9558786
Probable space group: P -4 N 2
;
_chemical_formula_sum "Si O2"
_cell_formula_units_Z 40
_cell_length_a 19.919917
_cell_length_b 19.919917
_cell_length_c 4.898702
_cell_angle_alpha 90.000000
_cell_angle_beta 90.000000
_cell_angle_gamma 90.000000
_cell_volume 1943.820107
_symmetry_space_group_name_H-M "P -4 N 2"
_symmetry_group_IT_number 118
_symmetry_cell_setting 'tetragonal'
loop_
_space_group_symop_operation_xyz
x,y,z
y,-x,-z
-x,-y,z
-y,x,-z
1/2+y,1/2+x,1/2-z
1/2-y,1/2-x,1/2-z
1/2-x,1/2+y,1/2+z
1/2+x,1/2-y,1/2+z
loop_
_atom_site_type_symbol
_atom_site_label
_atom_site_fract_x
_atom_site_fract_y
_atom_site_fract_z
Si Si1 0.865443 0.907729 0.346884
Si Si2 0.500816 0.108662 0.332250
Si Si3 0.764369 0.328498 0.013893
Si Si4 0.498608 0.340483 0.659880
Si Si5 0.193381 0.524001 0.157125
O O1 0.808857 0.851276 0.406793
O O2 0.874932 0.944724 0.635653
O O3 0.931548 0.877215 0.211743
O O4 0.840853 0.965430 0.138246
O O5 0.565279 0.065279 0.250000
O O6 0.495323 0.132594 0.642557
O O7 0.437437 0.062564 0.250000
O O8 0.497774 0.174195 0.145545
O O9 0.772272 0.272272 0.250000
O O10 0.794285 0.396157 0.148697
O O11 0.806009 0.306009 0.750000
O O12 0.506659 0.263228 0.747430
#
# Coordination Sequence:
#
# PCOD9558786 Si02
#       5
#     8   8   8   8   8
#     4  11  24  41  62  92 121 157 200 248 306 362
#     4  11  22  35  55  84 116 151 195 239 284 349
#     4  11  21  37  62  90 118 153 202 251 296 353
#     4  11  24  41  63  88 121 155 199 252 303 368
#     4  11  21  37  58  82 114 152 191 239 295 344
#
# _framework density 20.578037999999999
#
# number of rings (size 3 to 8) (size 9 to 14) (size 15 to 20)
#    0.000    1.000    0.000   10.200    0.000    4.000 
#    0.000    3.000    0.000    0.000    0.000    0.000 
#    0.000    0.000    0.000    0.000    0.000    0.000 
#
# Total GULP energy -223588.330992 kJ/mol
# GULP energy per Si atom -5589.708275 kJ/mol
# Density = 2.053120 g / cm^3
# Si number density = 20.578038 Si / 1000 Ang^3
#
#
#
# Elastic Constant Matrix: (Units=GPa)
#
#
# Indices 1 2 3 4 5 6 
#
# 1 64.9374 55.5699 11.3301 0.0000 0.0000 0.0000
# 2 55.5699 64.9375 11.3309 0.0000 0.0000 0.0000
# 3 11.3301 11.3309 95.6268 0.0000 0.0000 0.0000
# 4 0.0000 0.0000 0.0000 26.6451 0.0000 0.0000
# 5 0.0000 0.0000 0.0000 0.0000 26.6457 0.0000
# 6 0.0000 0.0000 0.0000 0.0000 0.0000 28.5569
#
#
#
# Elastic Compliance Matrix: (Units=1/GPa)
#
#
# Indices 1 2 3 4 5 6 
#
# 1 0.057619 -0.049132 -0.001005 0.000000 0.000000 0.000000
# 2 -0.049132 0.057620 -0.001006 0.000000 0.000000 0.000000
# 3 -0.001005 -0.001006 0.010696 0.000000 0.000000 0.000000
# 4 0.000000 0.000000 0.000000 0.037530 0.000000 0.000000
# 5 0.000000 0.000000 0.000000 0.000000 0.037530 0.000000
# 6 0.000000 0.000000 0.000000 0.000000 0.000000 0.035018
#
#
# Mechanical properties :
#
#
# Convention : Reuss Voigt Hill
#
# Bulk Modulus (GPa) = 42.28725 42.44038 42.36381
# Shear Modulus (GPa) = 14.44328 26.18760 20.31544
#
# Velocity S-wave (km/s) = 2.65217 3.57122 3.14544
# Velocity P-wave (km/s) = 5.47476 6.13789 5.81579
#
# Compressibility (1/GPa) = 0.02364779
#
# Stress axis : x y z
#
# Youngs Moduli (GPa) = 17.35525 17.35521 93.49614
#
# Poissons Ratio (x) = 0.85270 0.09398
# Poissons Ratio (y) = 0.85270 0.09407
# Poissons Ratio (z) = 0.01744 0.01746
#
# Static dielectric constant tensor:
#      x y z
#    x 1.746910 0.000000 0.000000 
#    y 0.000000 1.746910 0.000000 
#    z 0.000000 0.000000 1.730210 
# 
# From -- ./inp_files/622.got.cif
#   From: 2010.05.17/outbox.cif.g08.bks.cpg/sg118_1_cif.got.tgz:622.got - 2010.05.20 11:17:24.
