data_PCOD9558816
_publ_section_title
;
Structure prediction by ZEFSAII (Michael W. Deem and Ramdas Pophale) SiO2 
 PCOD9558816
Probable space group: P -4 N 2
;
_chemical_formula_sum "Si O2"
_cell_formula_units_Z 40
_cell_length_a 13.803108
_cell_length_b 13.803108
_cell_length_c 9.978442
_cell_angle_alpha 90.000000
_cell_angle_beta 90.000000
_cell_angle_gamma 90.000000
_cell_volume 1901.150550
_symmetry_space_group_name_H-M "P -4 N 2"
_symmetry_group_IT_number 118
_symmetry_cell_setting 'tetragonal'
loop_
_space_group_symop_operation_xyz
x,y,z
y,-x,-z
-x,-y,z
-y,x,-z
1/2+y,1/2+x,1/2-z
1/2-y,1/2-x,1/2-z
1/2-x,1/2+y,1/2+z
1/2+x,1/2-y,1/2+z
loop_
_atom_site_type_symbol
_atom_site_label
_atom_site_fract_x
_atom_site_fract_y
_atom_site_fract_z
Si Si1 0.929675 0.728646 0.034094
Si Si2 0.148842 0.948729 0.715532
Si Si3 0.916157 0.417526 0.095323
Si Si4 0.555174 0.351825 0.281611
Si Si5 0.564764 0.226340 0.031528
O O1 0.928890 0.818353 0.933117
O O2 0.918804 0.764423 0.186026
O O3 0.846062 0.653015 0.997516
O O4 0.032743 0.673362 0.025480
O O5 0.180040 0.928389 0.564150
O O6 0.052309 0.892677 0.757317
O O7 0.126929 0.061897 0.740114
O O8 0.892461 0.392461 0.250000
O O9 0.828690 0.466777 0.015294
O O10 0.000000 0.500000 0.100861
O O11 0.566518 0.260424 0.183795
#
# Coordination Sequence:
#
# PCOD9558816 Si02
#       5
#     8   8   8   8   8
#     4  11  22  42  66  96 126 159 214 265 307 369
#     4  11  23  45  64  85 130 179 206 241 319 390
#     4   9  18  37  65  89 125 167 195 246 322 375
#     4  11  25  43  62  91 132 169 202 259 323 364
#     4  11  22  42  66  96 126 159 214 265 307 369
#
# _framework density 21.03989
#
# number of rings (size 3 to 8) (size 9 to 14) (size 15 to 20)
#    0.000    1.400    2.000    3.600    0.000    4.000 
#   21.600    3.000    0.000    0.000    0.000    0.000 
#    0.000    0.000    0.000    0.000    0.000    0.000 
#
# Total GULP energy -223701.908901 kJ/mol
# GULP energy per Si atom -5592.547723 kJ/mol
# Density = 2.099200 g / cm^3
# Si number density = 21.039890 Si / 1000 Ang^3
#
#
#
# Elastic Constant Matrix: (Units=GPa)
#
#
# Indices 1 2 3 4 5 6 
#
# 1 56.5370 13.5978 -6.1231 0.0000 0.0000 0.0000
# 2 13.5978 56.5370 -6.1231 0.0000 0.0000 0.0000
# 3 -6.1231 -6.1231 46.3735 0.0000 0.0000 0.0000
# 4 0.0000 0.0000 0.0000 22.1402 0.0000 0.0000
# 5 0.0000 0.0000 0.0000 0.0000 22.1402 0.0000
# 6 0.0000 0.0000 0.0000 0.0000 0.0000 22.5281
#
#
#
# Elastic Compliance Matrix: (Units=1/GPa)
#
#
# Indices 1 2 3 4 5 6 
#
# 1 0.018942 -0.004347 0.001927 0.000000 0.000000 0.000000
# 2 -0.004347 0.018942 0.001927 0.000000 0.000000 0.000000
# 3 0.001927 0.001927 0.022073 0.000000 0.000000 0.000000
# 4 0.000000 0.000000 0.000000 0.045167 0.000000 0.000000
# 5 0.000000 0.000000 0.000000 0.000000 0.045167 0.000000
# 6 0.000000 0.000000 0.000000 0.000000 0.000000 0.044389
#
#
# Mechanical properties :
#
#
# Convention : Reuss Voigt Hill
#
# Bulk Modulus (GPa) = 16.95756 18.01673 17.48715
# Shear Modulus (GPa) = 23.22111 23.90144 23.56127
#
# Velocity S-wave (km/s) = 3.32576 3.37413 3.35003
# Velocity P-wave (km/s) = 4.77753 4.87456 4.82629
#
# Compressibility (1/GPa) = 0.05897074
#
# Stress axis : x y z
#
# Youngs Moduli (GPa) = 52.79342 52.79342 45.30438
#
# Poissons Ratio (x) = 0.22949 -0.08731
# Poissons Ratio (y) = 0.22949 -0.08731
# Poissons Ratio (z) = -0.10174 -0.10174
#
# Static dielectric constant tensor:
#      x y z
#    x 1.752240 0.000000 0.000000 
#    y 0.000000 1.752240 0.000000 
#    z 0.000000 0.000000 1.689560 
# 
# From -- ./inp_files/1875.got.cif
#   From: 2010.05.17/outbox.cif.g08.bks.cpg/sg118_1_cif.got.tgz:1875.got - 2010.05.20 11:17:24.
