data_PCOD9558803
_publ_section_title
;
Structure prediction by ZEFSAII (Michael W. Deem and Ramdas Pophale) SiO2 
 PCOD9558803
Probable space group: P -4 N 2
;
_chemical_formula_sum "Si O2"
_cell_formula_units_Z 58
_cell_length_a 18.000535
_cell_length_b 18.000535
_cell_length_c 8.456667
_cell_angle_alpha 90.000000
_cell_angle_beta 90.000000
_cell_angle_gamma 90.000000
_cell_volume 2740.122986
_symmetry_space_group_name_H-M "P -4 N 2"
_symmetry_group_IT_number 118
_symmetry_cell_setting 'tetragonal'
loop_
_space_group_symop_operation_xyz
x,y,z
y,-x,-z
-x,-y,z
-y,x,-z
1/2+y,1/2+x,1/2-z
1/2-y,1/2-x,1/2-z
1/2-x,1/2+y,1/2+z
1/2+x,1/2-y,1/2+z
loop_
_atom_site_type_symbol
_atom_site_label
_atom_site_fract_x
_atom_site_fract_y
_atom_site_fract_z
Si Si1 0.744463 0.454270 0.431737
Si Si2 0.190854 0.151002 0.656173
Si Si3 0.999988 0.375904 0.256068
Si Si4 0.022150 0.660197 0.600897
Si Si5 0.698107 0.808046 0.079837
Si Si6 0.299718 0.460364 0.708547
Si Si7 0.000000 0.500000 0.750000
Si Si8 0.902800 0.952047 0.443444
O O1 0.719523 0.414474 0.270407
O O2 0.821009 0.495460 0.390455
O O3 0.758833 0.383745 0.544493
O O4 0.696238 0.513516 0.527317
O O5 0.254435 0.200356 0.573154
O O6 0.126469 0.191876 0.754166
O O7 0.151387 0.110585 0.508018
O O8 0.924404 0.424404 0.250000
O O9 0.004031 0.331651 0.420361
O O10 0.067259 0.432742 0.250000
O O11 0.110833 0.671877 0.598896
O O12 0.986639 0.721497 0.715174
O O13 0.002717 0.575969 0.649933
O O14 0.723315 0.776686 0.250000
O O15 0.364685 0.504288 0.801425
O O16 0.984071 0.916472 0.422825
#
# Coordination Sequence:
#
# PCOD9558803 Si02
#       8
#     8   8   8   8   8   8   2   8
#     4  12  22  40  61  90 128 174 219 268 331 414
#     4  11  23  41  63  97 132 169 220 288 341 417
#     4  11  22  35  60  91 123 162 214 275 333 394
#     4  12  22  40  62  95 127 169 219 282 332 407
#     4  12  21  41  69  92 121 177 233 267 334 425
#     4  11  24  41  64  94 130 171 224 279 343 404
#     4  12  24  36  66  96 132 164 226 284 334 406
#     4   9  18  37  65  91 118 156 207 270 334 393
#
# _framework density 21.166933
#
# number of rings (size 3 to 8) (size 9 to 14) (size 15 to 20)
#    0.000    0.828    6.207    1.241    1.931    1.103 
#    2.483    2.069    0.000    0.000    0.000    0.000 
#    0.000    0.000    0.000    0.000    0.000    0.000 
#
# Total GULP energy -323957.350824 kJ/mol
# GULP energy per Si atom -5585.471566 kJ/mol
# Density = 2.111876 g / cm^3
# Si number density = 21.166933 Si / 1000 Ang^3
#
#
#
# Elastic Constant Matrix: (Units=GPa)
#
#
# Indices 1 2 3 4 5 6 
#
# 1 58.7013 16.0122 11.4148 0.0000 0.0000 0.0000
# 2 16.0122 58.7010 11.4153 0.0000 0.0000 0.0000
# 3 11.4148 11.4153 90.1669 0.0000 0.0000 0.0000
# 4 0.0000 0.0000 0.0000 23.9606 0.0000 0.0000
# 5 0.0000 0.0000 0.0000 0.0000 23.9605 0.0000
# 6 0.0000 0.0000 0.0000 0.0000 0.0000 20.4742
#
#
#
# Elastic Compliance Matrix: (Units=1/GPa)
#
#
# Indices 1 2 3 4 5 6 
#
# 1 0.018674 -0.004751 -0.001763 0.000000 0.000000 0.000000
# 2 -0.004751 0.018674 -0.001763 0.000000 0.000000 0.000000
# 3 -0.001763 -0.001763 0.011537 0.000000 0.000000 0.000000
# 4 0.000000 0.000000 0.000000 0.041735 0.000000 0.000000
# 5 0.000000 0.000000 0.000000 0.000000 0.041735 0.000000
# 6 0.000000 0.000000 0.000000 0.000000 0.000000 0.048842
#
#
# Mechanical properties :
#
#
# Convention : Reuss Voigt Hill
#
# Bulk Modulus (GPa) = 30.92869 31.69487 31.31178
# Shear Modulus (GPa) = 23.97761 24.92753 24.45257
#
# Velocity S-wave (km/s) = 3.36934 3.43543 3.40255
# Velocity P-wave (km/s) = 5.45712 5.54460 5.50103
#
# Compressibility (1/GPa) = 0.03233244
#
# Stress axis : x y z
#
# Youngs Moduli (GPa) = 53.55008 53.54966 86.67881
#
# Poissons Ratio (x) = 0.25442 0.15278
# Poissons Ratio (y) = 0.25442 0.15279
# Poissons Ratio (z) = 0.09439 0.09439
#
# Static dielectric constant tensor:
#      x y z
#    x 1.769520 0.000000 0.000000 
#    y 0.000000 1.769520 0.000000 
#    z 0.000000 0.000000 1.830450 
# 
# From -- ./inp_files/2217.got.cif
#   From: 2010.05.17/outbox.cif.g08.bks.cpg/sg118_2_cif.got.tgz:2217.got - 2010.05.20 11:17:24.
