data_PCOD9558720
_publ_section_title
;
Structure prediction by ZEFSAII (Michael W. Deem and Ramdas Pophale) SiO2 
 PCOD9558720
Probable space group: P -4 N 2
;
_chemical_formula_sum "Si O2"
_cell_formula_units_Z 36
_cell_length_a 9.066334
_cell_length_b 9.066334
_cell_length_c 22.838944
_cell_angle_alpha 90.000000
_cell_angle_beta 90.000000
_cell_angle_gamma 90.000000
_cell_volume 1877.324933
_symmetry_space_group_name_H-M "P -4 N 2"
_symmetry_group_IT_number 118
_symmetry_cell_setting 'tetragonal'
loop_
_space_group_symop_operation_xyz
x,y,z
y,-x,-z
-x,-y,z
-y,x,-z
1/2+y,1/2+x,1/2-z
1/2-y,1/2-x,1/2-z
1/2-x,1/2+y,1/2+z
1/2+x,1/2-y,1/2+z
loop_
_atom_site_type_symbol
_atom_site_label
_atom_site_fract_x
_atom_site_fract_y
_atom_site_fract_z
Si Si1 0.680745 0.317436 0.080696
Si Si2 0.477834 0.666971 0.386898
Si Si3 0.496572 0.755685 0.255086
Si Si4 0.000000 0.000000 0.660797
Si Si5 0.091725 0.642076 0.533763
O O1 0.784814 0.192828 0.108093
O O2 0.639814 0.458484 0.119907
O O3 0.523800 0.236414 0.071458
O O4 0.754570 0.357283 0.019039
O O5 0.500000 0.500000 0.406941
O O6 0.515728 0.683636 0.318679
O O7 0.575985 0.777231 0.426564
O O8 0.617934 0.882067 0.250000
O O9 0.518310 0.639164 0.203477
O O10 0.338674 0.838674 0.250000
O O11 0.000000 0.500000 0.510943
#
# Coordination Sequence:
#
# PCOD9558720 Si02
#       5
#     8   8   8   4   8
#     4  11  23  41  65  95 131 175 225 277 348 411
#     4  11  24  40  65  98 133 172 228 282 342 412
#     4  11  23  42  67  95 128 174 223 272 335 408
#     4  12  22  41  70  96 133 168 220 286 336 408
#     4  10  24  41  65  96 130 179 225 277 344 412
#
# _framework density 19.176221999999999
#
# number of rings (size 3 to 8) (size 9 to 14) (size 15 to 20)
#    0.000    1.111    3.333    2.667   12.444    0.000 
#    0.000    0.000    0.000    1.333    0.000    0.000 
#    0.000    0.000    0.000    0.000    0.000    0.000 
#
# Total GULP energy -201104.359085 kJ/mol
# GULP energy per Si atom -5586.232197 kJ/mol
# Density = 1.913258 g / cm^3
# Si number density = 19.176222 Si / 1000 Ang^3
#
#
#
# Elastic Constant Matrix: (Units=GPa)
#
#
# Indices 1 2 3 4 5 6 
#
# 1 112.8215 48.3657 43.0497 0.0000 0.0000 0.0000
# 2 48.3657 112.8211 43.0499 0.0000 0.0000 0.0000
# 3 43.0497 43.0499 100.6068 0.0000 0.0000 0.0000
# 4 0.0000 0.0000 0.0000 34.6111 0.0000 0.0000
# 5 0.0000 0.0000 0.0000 0.0000 34.6119 0.0000
# 6 0.0000 0.0000 0.0000 0.0000 0.0000 26.9304
#
#
#
# Elastic Compliance Matrix: (Units=1/GPa)
#
#
# Indices 1 2 3 4 5 6 
#
# 1 0.011778 -0.003736 -0.003441 0.000000 0.000000 0.000000
# 2 -0.003736 0.011778 -0.003441 0.000000 0.000000 0.000000
# 3 -0.003441 -0.003441 0.012885 0.000000 0.000000 0.000000
# 4 0.000000 0.000000 0.000000 0.028892 0.000000 0.000000
# 5 0.000000 0.000000 0.000000 0.000000 0.028892 0.000000
# 6 0.000000 0.000000 0.000000 0.000000 0.000000 0.037133
#
#
# Mechanical properties :
#
#
# Convention : Reuss Voigt Hill
#
# Bulk Modulus (GPa) = 65.77204 66.13109 65.95157
# Shear Modulus (GPa) = 31.71304 32.01629 31.86466
#
# Velocity S-wave (km/s) = 4.07107 4.09049 4.08079
# Velocity P-wave (km/s) = 7.51474 7.54124 7.52800
#
# Compressibility (1/GPa) = 0.01520403
#
# Stress axis : x y z
#
# Youngs Moduli (GPa) = 84.90175 84.90128 77.61129
#
# Poissons Ratio (x) = 0.31721 0.26708
# Poissons Ratio (y) = 0.31721 0.26708
# Poissons Ratio (z) = 0.29217 0.29217
#
# Static dielectric constant tensor:
#      x y z
#    x 1.669150 0.000000 0.000000 
#    y 0.000000 1.669150 0.000000 
#    z 0.000000 0.000000 1.675570 
# 
# From -- ./inp_files/5437.got.cif
#   From: 2010.05.17/outbox.cif.g08.bks.cpg/sg118_3_cif.got.tgz:5437.got - 2010.05.20 11:17:24.
