data_PCOD9558678
_publ_section_title
;
Structure prediction by ZEFSAII (Michael W. Deem and Ramdas Pophale) SiO2 
 PCOD9558678
Probable space group: P -4 N 2
;
_chemical_formula_sum "Si O2"
_cell_formula_units_Z 56
_cell_length_a 14.538977
_cell_length_b 14.538977
_cell_length_c 10.282536
_cell_angle_alpha 90.000000
_cell_angle_beta 90.000000
_cell_angle_gamma 90.000000
_cell_volume 2173.541505
_symmetry_space_group_name_H-M "P -4 N 2"
_symmetry_group_IT_number 118
_symmetry_cell_setting 'tetragonal'
loop_
_space_group_symop_operation_xyz
x,y,z
y,-x,-z
-x,-y,z
-y,x,-z
1/2+y,1/2+x,1/2-z
1/2-y,1/2-x,1/2-z
1/2-x,1/2+y,1/2+z
1/2+x,1/2-y,1/2+z
loop_
_atom_site_type_symbol
_atom_site_label
_atom_site_fract_x
_atom_site_fract_y
_atom_site_fract_z
Si Si1 0.912795 0.066634 0.305134
Si Si2 0.347663 0.256466 0.649225
Si Si3 0.385030 0.789337 0.459822
Si Si4 0.602779 0.993865 0.497885
Si Si5 0.801637 0.016309 0.528066
Si Si6 0.923548 0.306359 0.877589
Si Si7 0.851319 0.791905 0.226893
O O1 0.892700 0.148980 0.203763
O O2 0.819944 0.028829 0.374156
O O3 0.947447 0.118689 0.432900
O O4 0.000000 0.000000 0.264313
O O5 0.322462 0.177539 0.750000
O O6 0.249327 0.290215 0.594166
O O7 0.403408 0.216689 0.529434
O O8 0.377708 0.898423 0.473625
O O9 0.470505 0.780881 0.363748
O O10 0.402301 0.726946 0.589666
O O11 0.702278 0.970673 0.556740
O O12 0.500000 0.000000 0.560631
O O13 0.592571 0.917260 0.383189
O O14 0.811867 0.093234 0.642418
O O15 0.861623 0.233169 0.800069
O O16 0.806817 0.693184 0.250000
#
# Coordination Sequence:
#
# PCOD9558678 Si02
#       7
#     8   8   8   8   8   8   8
#     4  12  26  44  71 112 147 197 252 305 384 454
#     4  11  24  44  72  98 143 193 242 298 377 441
#     4  10  22  46  65 100 133 184 233 295 364 430
#     4  10  22  42  72  97 140 178 242 302 362 442
#     4  12  23  44  70 103 148 185 245 307 369 448
#     4  10  24  44  68 103 133 184 237 298 365 436
#     4  11  24  41  70 100 135 186 238 292 374 434
#
# _framework density 25.764403000000001
#
# number of rings (size 3 to 8) (size 9 to 14) (size 15 to 20)
#    0.000    1.143    2.857    2.571    6.000    0.000 
#    2.571    5.714    0.000    0.000    0.000    0.000 
#    0.000    0.000    0.000    0.000    0.000    0.000 
#
# Total GULP energy -312149.236968 kJ/mol
# GULP energy per Si atom -5574.093517 kJ/mol
# Density = 2.570576 g / cm^3
# Si number density = 25.764403 Si / 1000 Ang^3
#
#
#
# Elastic Constant Matrix: (Units=GPa)
#
#
# Indices 1 2 3 4 5 6 
#
# 1 88.8371 33.7033 26.6879 0.0000 0.0000 0.0000
# 2 33.7033 88.8386 26.6874 0.0000 0.0000 0.0000
# 3 26.6879 26.6874 96.7840 0.0000 0.0000 0.0000
# 4 0.0000 0.0000 0.0000 27.1863 0.0000 0.0000
# 5 0.0000 0.0000 0.0000 0.0000 27.1857 0.0000
# 6 0.0000 0.0000 0.0000 0.0000 0.0000 24.0843
#
#
#
# Elastic Compliance Matrix: (Units=1/GPa)
#
#
# Indices 1 2 3 4 5 6 
#
# 1 0.013706 -0.004432 -0.002557 0.000000 0.000000 0.000000
# 2 -0.004432 0.013706 -0.002557 0.000000 0.000000 0.000000
# 3 -0.002557 -0.002557 0.011743 0.000000 0.000000 0.000000
# 4 0.000000 0.000000 0.000000 0.036783 0.000000 0.000000
# 5 0.000000 0.000000 0.000000 0.000000 0.036784 0.000000
# 6 0.000000 0.000000 0.000000 0.000000 0.000000 0.041521
#
#
# Mechanical properties :
#
#
# Convention : Reuss Voigt Hill
#
# Bulk Modulus (GPa) = 49.84539 49.84631 49.84585
# Shear Modulus (GPa) = 27.77431 28.18333 27.97882
#
# Velocity S-wave (km/s) = 3.28687 3.31098 3.29895
# Velocity P-wave (km/s) = 5.81320 5.83145 5.82233
#
# Compressibility (1/GPa) = 0.02006203
#
# Stress axis : x y z
#
# Youngs Moduli (GPa) = 72.96023 72.96182 85.15965
#
# Poissons Ratio (x) = 0.32333 0.21779
# Poissons Ratio (y) = 0.32332 0.21778
# Poissons Ratio (z) = 0.18659 0.18658
#
# Static dielectric constant tensor:
#      x y z
#    x 2.168120 0.000000 0.000000 
#    y 0.000000 2.168120 0.000000 
#    z 0.000000 0.000000 2.133790 
# 
# From -- ./inp_files/3403.got.cif
#   From: 2010.05.17/outbox.cif.g08.bks.cpg/sg118_2_cif.got.tgz:3403.got - 2010.05.20 11:17:24.
