data_PCOD9558261
_publ_section_title
;
Structure prediction by ZEFSAII (Michael W. Deem and Ramdas Pophale) SiO2 
 PCOD9558261
Probable space group: P -4 B 2
;
_chemical_formula_sum "Si O2"
_cell_formula_units_Z 48
_cell_length_a 16.931567
_cell_length_b 16.931567
_cell_length_c 7.015234
_cell_angle_alpha 90.000000
_cell_angle_beta 90.000000
_cell_angle_gamma 90.000000
_cell_volume 2011.112980
_symmetry_space_group_name_H-M "P -4 B 2"
_symmetry_group_IT_number 117
_symmetry_cell_setting 'tetragonal'
loop_
_space_group_symop_operation_xyz
x,y,z
y,-x,-z
-x,-y,z
-y,x,-z
1/2+y,1/2+x,-z
1/2-y,1/2-x,-z
1/2-x,1/2+y,z
1/2+x,1/2-y,z
loop_
_atom_site_type_symbol
_atom_site_label
_atom_site_fract_x
_atom_site_fract_y
_atom_site_fract_z
Si Si1 0.209545 0.412031 0.962578
Si Si2 0.667565 0.803556 0.294354
Si Si3 0.372040 0.360409 0.083761
Si Si4 0.086741 0.524967 0.792677
Si Si5 0.990876 0.892026 0.588824
Si Si6 0.952860 0.236407 0.795619
O O1 0.301922 0.392801 0.947791
O O2 0.209106 0.475848 0.135442
O O3 0.171930 0.328071 0.000000
O O4 0.147003 0.451735 0.819025
O O5 0.706485 0.793516 0.500000
O O6 0.653917 0.719797 0.195536
O O7 0.587720 0.856164 0.309483
O O8 0.723042 0.868302 0.193981
O O9 0.392463 0.425159 0.244543
O O10 0.443168 0.333924 0.949237
O O11 0.000000 0.500000 0.715185
O O12 0.062842 0.562842 0.000000
O O13 0.946021 0.930248 0.408079
O O14 0.023995 0.803129 0.595554
#
# Coordination Sequence:
#
# PCOD9558261 Si02
#       6
#     8   8   8   8   8   8
#     4  11  20  36  67  99 129 172 232 302 332 410
#     4  12  23  40  66  98 144 187 224 298 367 422
#     4  11  24  42  69 100 135 185 248 283 351 436
#     4  11  19  38  68  97 137 176 228 286 350 426
#     4  10  24  43  63  92 138 177 227 295 359 413
#     4  11  22  42  67  98 132 189 242 287 351 434
#
# _framework density 23.867381999999999
#
# number of rings (size 3 to 8) (size 9 to 14) (size 15 to 20)
#    0.000    1.000    5.000    2.500    0.000    5.667 
#    3.000    1.667    3.667    0.000    0.000    0.000 
#    0.000    0.000    0.000    0.000    0.000    0.000 
#
# Total GULP energy -267349.282019 kJ/mol
# GULP energy per Si atom -5569.776709 kJ/mol
# Density = 2.381306 g / cm^3
# Si number density = 23.867382 Si / 1000 Ang^3
#
#
#
# Elastic Constant Matrix: (Units=GPa)
#
#
# Indices 1 2 3 4 5 6 
#
# 1 140.9248 58.0863 28.8290 0.0000 0.0000 0.0000
# 2 58.0863 140.9258 28.8288 0.0000 0.0000 0.0000
# 3 28.8290 28.8288 47.7358 0.0000 0.0000 0.0000
# 4 0.0000 0.0000 0.0000 17.3959 0.0000 0.0000
# 5 0.0000 0.0000 0.0000 0.0000 17.3927 0.0000
# 6 0.0000 0.0000 0.0000 0.0000 0.0000 52.6615
#
#
#
# Elastic Compliance Matrix: (Units=1/GPa)
#
#
# Indices 1 2 3 4 5 6 
#
# 1 0.009081 -0.002991 -0.003678 0.000000 0.000000 0.000000
# 2 -0.002991 0.009081 -0.003678 0.000000 0.000000 0.000000
# 3 -0.003678 -0.003678 0.025391 0.000000 0.000000 0.000000
# 4 0.000000 0.000000 0.000000 0.057485 0.000000 0.000000
# 5 0.000000 0.000000 0.000000 0.000000 0.057496 0.000000
# 6 0.000000 0.000000 0.000000 0.000000 0.000000 0.018989
#
#
# Mechanical properties :
#
#
# Convention : Reuss Voigt Hill
#
# Bulk Modulus (GPa) = 43.74543 62.34161 53.04352
# Shear Modulus (GPa) = 24.29109 31.74616 28.01862
#
# Velocity S-wave (km/s) = 3.19368 3.65102 3.42998
# Velocity P-wave (km/s) = 5.65401 6.62948 6.16108
#
# Compressibility (1/GPa) = 0.02285953
#
# Stress axis : x y z
#
# Youngs Moduli (GPa) = 110.11898 110.11997 39.38346
#
# Poissons Ratio (x) = 0.32932 0.14486
# Poissons Ratio (y) = 0.32932 0.14486
# Poissons Ratio (z) = 0.40504 0.40504
#
# Static dielectric constant tensor:
#      x y z
#    x 1.962700 0.000000 0.000000 
#    y 0.000000 1.962690 0.000000 
#    z 0.000000 0.000000 1.970000 
# 
# From -- ./inp_files/1920.got.cif
#   From: 2010.05.17/outbox.cif.g08.bks.cpg/sg117_1_cif.got.tgz:1920.got - 2010.05.20 11:15:09.
