data_PCOD9558404
_publ_section_title
;
Structure prediction by ZEFSAII (Michael W. Deem and Ramdas Pophale) SiO2 
 PCOD9558404
Probable space group: P -4 N 2
;
_chemical_formula_sum "Si O2"
_cell_formula_units_Z 56
_cell_length_a 15.516464
_cell_length_b 15.516464
_cell_length_c 14.534780
_cell_angle_alpha 90.000000
_cell_angle_beta 90.000000
_cell_angle_gamma 90.000000
_cell_volume 3499.403154
_symmetry_space_group_name_H-M "P -4 N 2"
_symmetry_group_IT_number 118
_symmetry_cell_setting 'tetragonal'
loop_
_space_group_symop_operation_xyz
x,y,z
y,-x,-z
-x,-y,z
-y,x,-z
1/2+y,1/2+x,1/2-z
1/2-y,1/2-x,1/2-z
1/2-x,1/2+y,1/2+z
1/2+x,1/2-y,1/2+z
loop_
_atom_site_type_symbol
_atom_site_label
_atom_site_fract_x
_atom_site_fract_y
_atom_site_fract_z
Si Si1 0.059096 0.299264 0.568664
Si Si2 0.074185 0.574184 0.855774
Si Si3 0.470996 0.630833 0.958154
Si Si4 0.940904 0.700735 0.931336
Si Si5 0.470996 0.630833 0.541846
Si Si6 0.144550 0.216814 0.750000
Si Si7 0.986093 0.102840 0.250000
O O1 0.048222 0.225235 0.494736
O O2 0.127196 0.372804 0.540706
O O3 0.096489 0.255252 0.660990
O O4 0.969568 0.345744 0.593833
O O5 0.095252 0.595252 0.750000
O O6 0.000000 0.500000 0.852671
O O7 0.030433 0.654256 0.906167
O O8 0.474078 0.630567 0.847708
O O9 0.562087 0.597087 0.000116
O O10 0.903512 0.744747 0.839009
O O11 0.951777 0.774766 0.005263
O O12 0.562087 0.597087 0.499884
O O13 0.474077 0.630567 0.652291
O O14 0.240589 0.259412 0.750000
O O15 0.133460 0.113899 0.750001
O O16 0.000000 0.000000 0.249999
#
# Coordination Sequence:
#
# PCOD9558404 Si02
#       7
#     8   8   8   8   8   8   8
#     4  10  19  34  54  80 113 141 176 223 270 316
#     4   9  16  30  54  81 109 145 179 217 266 314
#     4  11  21  36  57  81 106 141 181 218 267 325
#     4  10  19  34  54  80 113 141 176 223 270 316
#     4  11  21  36  57  81 106 141 181 218 267 325
#     4  10  18  31  56  81 106 136 179 227 263 313
#     4  12  20  36  58  78 107 143 179 219 264 333
#
# _framework density 16.00273
#
# number of rings (size 3 to 8) (size 9 to 14) (size 15 to 20)
#    0.000    1.571    7.143    0.000    0.000    0.000 
#    5.143    0.714    0.000    0.000    0.000    3.000 
#    0.000    0.000    0.000    0.000    0.000    0.000 
#
# Total GULP energy -312202.477485 kJ/mol
# GULP energy per Si atom -5575.044241 kJ/mol
# Density = 1.596631 g / cm^3
# Si number density = 16.002730 Si / 1000 Ang^3
#
#
#
# Elastic Constant Matrix: (Units=GPa)
#
#
# Indices 1 2 3 4 5 6 
#
# 1 72.2288 37.8198 52.7217 0.0000 0.0000 0.0000
# 2 37.8198 72.2289 52.7220 0.0000 0.0000 0.0000
# 3 52.7217 52.7220 150.2846 0.0000 0.0000 0.0000
# 4 0.0000 0.0000 0.0000 19.9831 0.0000 0.0000
# 5 0.0000 0.0000 0.0000 0.0000 19.9825 0.0000
# 6 0.0000 0.0000 0.0000 0.0000 0.0000 12.4191
#
#
#
# Elastic Compliance Matrix: (Units=1/GPa)
#
#
# Indices 1 2 3 4 5 6 
#
# 1 0.021375 -0.007687 -0.004802 0.000000 0.000000 0.000000
# 2 -0.007687 0.021375 -0.004802 0.000000 0.000000 0.000000
# 3 -0.004802 -0.004802 0.010023 0.000000 0.000000 0.000000
# 4 0.000000 0.000000 0.000000 0.050042 0.000000 0.000000
# 5 0.000000 0.000000 0.000000 0.000000 0.050044 0.000000
# 6 0.000000 0.000000 0.000000 0.000000 0.000000 0.080521
#
#
# Mechanical properties :
#
#
# Convention : Reuss Voigt Hill
#
# Bulk Modulus (GPa) = 54.97122 64.58547 59.77834
# Shear Modulus (GPa) = 18.24646 20.57553 19.41100
#
# Velocity S-wave (km/s) = 3.38036 3.58963 3.48656
# Velocity P-wave (km/s) = 7.04709 7.59126 7.32423
#
# Compressibility (1/GPa) = 0.01819134
#
# Stress axis : x y z
#
# Youngs Moduli (GPa) = 46.78372 46.78370 99.76885
#
# Poissons Ratio (x) = 0.35963 0.47908
# Poissons Ratio (y) = 0.35963 0.47908
# Poissons Ratio (z) = 0.22465 0.22465
#
# Static dielectric constant tensor:
#      x y z
#    x 1.534830 0.000000 0.000000 
#    y 0.000000 1.534830 0.000000 
#    z 0.000000 0.000000 1.583430 
# 
# From -- ./inp_files/4258.got.cif
#   From: 2010.05.17/outbox.cif.g08.bks.cpg/sg118_3_cif.got.tgz:4258.got - 2010.05.20 11:17:24.
