data_PCOD9558331
_publ_section_title
;
Structure prediction by ZEFSAII (Michael W. Deem and Ramdas Pophale) SiO2 
 PCOD9558331
Probable space group: P -4 B 2
;
_chemical_formula_sum "Si O2"
_cell_formula_units_Z 18
_cell_length_a 10.000086
_cell_length_b 10.000086
_cell_length_c 6.557710
_cell_angle_alpha 90.000000
_cell_angle_beta 90.000000
_cell_angle_gamma 90.000000
_cell_volume 655.782279
_symmetry_space_group_name_H-M "P -4 B 2"
_symmetry_group_IT_number 117
_symmetry_cell_setting 'tetragonal'
loop_
_space_group_symop_operation_xyz
x,y,z
y,-x,-z
-x,-y,z
-y,x,-z
1/2+y,1/2+x,-z
1/2-y,1/2-x,-z
1/2-x,1/2+y,z
1/2+x,1/2-y,z
loop_
_atom_site_type_symbol
_atom_site_label
_atom_site_fract_x
_atom_site_fract_y
_atom_site_fract_z
Si Si1 0.991174 0.686690 0.882825
Si Si2 0.000000 0.500000 0.500000
Si Si3 0.157328 0.123373 0.418614
O O1 0.985368 0.618365 0.660412
O O2 0.059694 0.821770 0.807390
O O3 0.103878 0.603878 0.000000
O O4 0.853848 0.646153 0.000000
O O5 0.262628 0.237373 0.500000
O O6 0.002601 0.167073 0.426181
#
# Coordination Sequence:
#
# PCOD9558331 Si02
#       3
#     8   2   8
#     4   9  19  37  75 114 148 206 271 331 408 495
#     4   8  14  32  68 102 146 196 256 312 404 482
#     4  11  26  47  79 119 164 225 280 344 428 510
#
# _framework density 27.448135000000001
#
# number of rings (size 3 to 8) (size 9 to 14) (size 15 to 20)
#    0.000    2.667    2.222    0.000    3.111    0.889 
#    0.000    8.889    0.000   10.667    0.000    0.000 
#    0.000    0.000    0.000    0.000    0.000    0.000 
#
# Total GULP energy -100260.406874 kJ/mol
# GULP energy per Si atom -5570.022604 kJ/mol
# Density = 2.738566 g / cm^3
# Si number density = 27.448135 Si / 1000 Ang^3
#
#
#
# Elastic Constant Matrix: (Units=GPa)
#
#
# Indices 1 2 3 4 5 6 
#
# 1 165.2601 65.8533 39.1334 0.0000 0.0000 0.0000
# 2 65.8533 165.2587 39.1321 0.0000 0.0000 0.0000
# 3 39.1334 39.1321 145.6259 0.0000 0.0000 0.0000
# 4 0.0000 0.0000 0.0000 50.6465 0.0000 0.0000
# 5 0.0000 0.0000 0.0000 0.0000 50.6474 0.0000
# 6 0.0000 0.0000 0.0000 0.0000 0.0000 56.5489
#
#
#
# Elastic Compliance Matrix: (Units=1/GPa)
#
#
# Indices 1 2 3 4 5 6 
#
# 1 0.007410 -0.002650 -0.001279 0.000000 0.000000 0.000000
# 2 -0.002650 0.007410 -0.001279 0.000000 0.000000 0.000000
# 3 -0.001279 -0.001279 0.007554 0.000000 0.000000 0.000000
# 4 0.000000 0.000000 0.000000 0.019745 0.000000 0.000000
# 5 0.000000 0.000000 0.000000 0.000000 0.019744 0.000000
# 6 0.000000 0.000000 0.000000 0.000000 0.000000 0.017684
#
#
# Mechanical properties :
#
#
# Convention : Reuss Voigt Hill
#
# Bulk Modulus (GPa) = 83.62617 84.93137 84.27877
# Shear Modulus (GPa) = 53.22024 53.70362 53.46193
#
# Velocity S-wave (km/s) = 4.40811 4.42809 4.41811
# Velocity P-wave (km/s) = 7.51277 7.56000 7.53642
#
# Compressibility (1/GPa) = 0.01195798
#
# Stress axis : x y z
#
# Youngs Moduli (GPa) = 134.95483 134.95419 132.37378
#
# Poissons Ratio (x) = 0.35761 0.16933
# Poissons Ratio (y) = 0.35761 0.16932
# Poissons Ratio (z) = 0.17263 0.17262
#
# Static dielectric constant tensor:
#      x y z
#    x 2.524910 0.000000 0.000000 
#    y 0.000000 2.524920 0.000000 
#    z 0.000000 0.000000 2.182900 
# 
# From -- ./inp_files/136.got.cif
#   From: 2010.05.17/outbox.cif.g08.bks.cpg/sg117_1_cif.got.tgz:136.got - 2010.05.20 11:15:09.
