data_PCOD9558930
_publ_section_title
;
Structure prediction by ZEFSAII (Michael W. Deem and Ramdas Pophale) SiO2 
 PCOD9558930
Probable space group: P -4 N 2
;
_chemical_formula_sum "Si O2"
_cell_formula_units_Z 20
_cell_length_a 5.241038
_cell_length_b 5.241038
_cell_length_c 28.098076
_cell_angle_alpha 90.000000
_cell_angle_beta 90.000000
_cell_angle_gamma 90.000000
_cell_volume 771.811419
_symmetry_space_group_name_H-M "P -4 N 2"
_symmetry_group_IT_number 118
_symmetry_cell_setting 'tetragonal'
loop_
_space_group_symop_operation_xyz
x,y,z
y,-x,-z
-x,-y,z
-y,x,-z
1/2+y,1/2+x,1/2-z
1/2-y,1/2-x,1/2-z
1/2-x,1/2+y,1/2+z
1/2+x,1/2-y,1/2+z
loop_
_atom_site_type_symbol
_atom_site_label
_atom_site_fract_x
_atom_site_fract_y
_atom_site_fract_z
Si Si1 0.331654 0.256482 0.572616
Si Si2 0.000000 0.000000 0.500000
Si Si3 0.741985 0.166329 0.318175
Si Si4 0.500000 0.000000 0.750000
O O1 0.500000 0.500000 0.561138
O O2 0.109302 0.214432 0.534786
O O3 0.228150 0.283120 0.626156
O O4 0.500000 0.000000 0.571554
O O5 0.780234 0.425997 0.288197
O O6 0.500000 0.000000 0.303500
O O7 0.000000 0.000000 0.311196
#
# Coordination Sequence:
#
# PCOD9558930 Si02
#       4
#     8   2   8   2
#     4  12  29  53  84 121 174 232 293 365 441 526
#     4  12  32  52  80 132 168 232 296 356 448 518
#     4  12  28  52  83 119 172 229 292 364 438 524
#     4  12  30  48  82 126 164 232 296 352 448 514
#
# _framework density 25.913069
#
# number of rings (size 3 to 8) (size 9 to 14) (size 15 to 20)
#    0.000    0.000    4.000    3.000   11.200    0.000 
#    0.000    0.000    0.000    0.000    0.000    0.000 
#    0.000    0.000    0.000    0.000    0.000    0.000 
#
# Total GULP energy -112215.816578 kJ/mol
# GULP energy per Si atom -5610.790829 kJ/mol
# Density = 2.585409 g / cm^3
# Si number density = 25.913069 Si / 1000 Ang^3
#
#
#
# Elastic Constant Matrix: (Units=GPa)
#
#
# Indices 1 2 3 4 5 6 
#
# 1 179.7513 96.7166 55.4966 0.0000 0.0000 0.0000
# 2 96.7166 179.7513 55.4966 0.0000 0.0000 0.0000
# 3 55.4966 55.4966 239.1325 0.0000 0.0000 0.0000
# 4 0.0000 0.0000 0.0000 -15.8568 0.0000 0.0000
# 5 0.0000 0.0000 0.0000 0.0000 -15.8568 0.0000
# 6 0.0000 0.0000 0.0000 0.0000 0.0000 83.9295
#
#
#
# Elastic Compliance Matrix: (Units=1/GPa)
#
#
# Indices 1 2 3 4 5 6 
#
# 1 0.008016 -0.004027 -0.000926 0.000000 0.000000 0.000000
# 2 -0.004027 0.008016 -0.000926 0.000000 0.000000 0.000000
# 3 -0.000926 -0.000926 0.004611 0.000000 0.000000 0.000000
# 4 0.000000 0.000000 0.000000 -0.063064 0.000000 0.000000
# 5 0.000000 0.000000 0.000000 0.000000 -0.063064 0.000000
# 6 0.000000 0.000000 0.000000 0.000000 0.000000 0.011915
#
#
# Mechanical properties :
#
#
# Convention : Reuss Voigt Hill
#
# Bulk Modulus (GPa) = 112.53516 112.67274 112.60395
# Shear Modulus (GPa) = -63.41026 36.50486 -13.45270
#
# Velocity S-wave (km/s) = -4.95212 3.75739 -2.28095
# Velocity P-wave (km/s) = 3.29002 7.89933 6.05077
#
# Compressibility (1/GPa) = 0.00888611
#
# Stress axis : x y z
#
# Youngs Moduli (GPa) = 124.75167 124.75167 216.85235
#
# Poissons Ratio (x) = 0.50240 0.20073
# Poissons Ratio (y) = 0.50240 0.20073
# Poissons Ratio (z) = 0.11548 0.11548
#
# Static dielectric constant tensor:
#      x y z
#    x 2.170720 0.000000 0.000000 
#    y 0.000000 2.170720 0.000000 
#    z 0.000000 0.000000 1.972260 
# 
# From -- ./inp_files/6280.got.cif
#   From: 2010.05.17/outbox.cif.g08.bks.cpg/sg118_4_cif.got.tgz:6280.got - 2010.05.20 11:17:24.
