data_PCOD9558077
_publ_section_title
;
Structure prediction by ZEFSAII (Michael W. Deem and Ramdas Pophale) SiO2 
 PCOD9558077
Probable space group: P -4 B 2
;
_chemical_formula_sum "Si O2"
_cell_formula_units_Z 32
_cell_length_a 14.350983
_cell_length_b 14.350983
_cell_length_c 8.263881
_cell_angle_alpha 90.000000
_cell_angle_beta 90.000000
_cell_angle_gamma 90.000000
_cell_volume 1701.952185
_symmetry_space_group_name_H-M "P -4 B 2"
_symmetry_group_IT_number 117
_symmetry_cell_setting 'tetragonal'
loop_
_space_group_symop_operation_xyz
x,y,z
y,-x,-z
-x,-y,z
-y,x,-z
1/2+y,1/2+x,-z
1/2-y,1/2-x,-z
1/2-x,1/2+y,z
1/2+x,1/2-y,z
loop_
_atom_site_type_symbol
_atom_site_label
_atom_site_fract_x
_atom_site_fract_y
_atom_site_fract_z
Si Si1 0.600442 0.725493 0.637235
Si Si2 0.239518 0.186628 0.827914
Si Si3 0.352511 0.545044 0.017473
Si Si4 0.248952 0.893629 0.440176
O O1 0.676354 0.801179 0.699558
O O2 0.561085 0.685910 0.805051
O O3 0.505139 0.754390 0.548857
O O4 0.661317 0.648186 0.542406
O O5 0.418679 0.282105 0.119325
O O6 0.150033 0.230537 0.738440
O O7 0.263806 0.236195 0.000000
O O8 0.441751 0.612245 0.006346
O O9 0.341969 0.841969 0.500000
#
# Coordination Sequence:
#
# PCOD9558077 Si02
#       4
#     8   8   8   8
#     4  10  21  34  57  84 118 157 193 242 301 359
#     4   9  19  37  54  81 116 156 190 238 293 347
#     4  10  19  31  54  86 118 150 195 246 295 351
#     4  10  21  37  56  87 118 155 193 242 302 357
#
# _framework density 18.801939999999998
#
# number of rings (size 3 to 8) (size 9 to 14) (size 15 to 20)
#    0.000    2.250    2.500    0.000    3.500    0.500 
#    0.000    0.000    0.000    6.750    0.000    7.000 
#    0.000    0.000    0.000    0.000    0.000    0.000 
#
# Total GULP energy -178236.467014 kJ/mol
# GULP energy per Si atom -5569.889594 kJ/mol
# Density = 1.875915 g / cm^3
# Si number density = 18.801940 Si / 1000 Ang^3
#
#
#
# Elastic Constant Matrix: (Units=GPa)
#
#
# Indices 1 2 3 4 5 6 
#
# 1 103.8525 51.0841 23.5046 0.0000 0.0000 0.0000
# 2 51.0841 103.8515 23.5048 0.0000 0.0000 0.0000
# 3 23.5046 23.5048 64.7763 0.0000 0.0000 0.0000
# 4 0.0000 0.0000 0.0000 17.9805 0.0000 0.0000
# 5 0.0000 0.0000 0.0000 0.0000 17.9803 0.0000
# 6 0.0000 0.0000 0.0000 0.0000 0.0000 14.3456
#
#
#
# Elastic Compliance Matrix: (Units=1/GPa)
#
#
# Indices 1 2 3 4 5 6 
#
# 1 0.013102 -0.005849 -0.002632 0.000000 0.000000 0.000000
# 2 -0.005849 0.013102 -0.002632 0.000000 0.000000 0.000000
# 3 -0.002632 -0.002632 0.017348 0.000000 0.000000 0.000000
# 4 0.000000 0.000000 0.000000 0.055616 0.000000 0.000000
# 5 0.000000 0.000000 0.000000 0.000000 0.055616 0.000000
# 6 0.000000 0.000000 0.000000 0.000000 0.000000 0.069708
#
#
# Mechanical properties :
#
#
# Convention : Reuss Voigt Hill
#
# Bulk Modulus (GPa) = 46.89060 52.07415 49.48237
# Shear Modulus (GPa) = 19.69860 21.68707 20.69283
#
# Velocity S-wave (km/s) = 3.24032 3.39993 3.32108
# Velocity P-wave (km/s) = 6.24443 6.57031 6.40944
#
# Compressibility (1/GPa) = 0.02132624
#
# Stress axis : x y z
#
# Youngs Moduli (GPa) = 76.32558 76.32461 57.64475
#
# Poissons Ratio (x) = 0.44643 0.15170
# Poissons Ratio (y) = 0.44643 0.15171
# Poissons Ratio (z) = 0.20086 0.20087
#
# Static dielectric constant tensor:
#      x y z
#    x 1.666730 0.000000 0.000000 
#    y 0.000000 1.666730 0.000000 
#    z 0.000000 0.000000 1.697150 
# 
# From -- ./inp_files/1472.got.cif
#   From: 2010.05.17/outbox.cif.g08.bks.cpg/sg117_1_cif.got.tgz:1472.got - 2010.05.20 11:15:09.
