data_PCOD9558434
_publ_section_title
;
Structure prediction by ZEFSAII (Michael W. Deem and Ramdas Pophale) SiO2 
 PCOD9558434
Probable space group: P -4 N 2
;
_chemical_formula_sum "Si O2"
_cell_formula_units_Z 64
_cell_length_a 19.791204
_cell_length_b 19.791204
_cell_length_c 9.219042
_cell_angle_alpha 90.000000
_cell_angle_beta 90.000000
_cell_angle_gamma 90.000000
_cell_volume 3611.022747
_symmetry_space_group_name_H-M "P -4 N 2"
_symmetry_group_IT_number 118
_symmetry_cell_setting 'tetragonal'
loop_
_space_group_symop_operation_xyz
x,y,z
y,-x,-z
-x,-y,z
-y,x,-z
1/2+y,1/2+x,1/2-z
1/2-y,1/2-x,1/2-z
1/2-x,1/2+y,1/2+z
1/2+x,1/2-y,1/2+z
loop_
_atom_site_type_symbol
_atom_site_label
_atom_site_fract_x
_atom_site_fract_y
_atom_site_fract_z
Si Si1 0.499289 0.804056 0.273403
Si Si2 0.705522 0.318727 0.413021
Si Si3 0.590410 0.760401 0.018445
Si Si4 0.096128 0.666148 0.024439
Si Si5 0.794478 0.181273 0.413021
Si Si6 0.166148 0.403872 0.975561
Si Si7 0.999289 0.304056 0.273403
Si Si8 0.239599 0.409590 0.481555
O O1 0.546751 0.764750 0.162035
O O2 0.547620 0.843472 0.386059
O O3 0.448052 0.845744 0.169656
O O4 0.456355 0.755367 0.377002
O O5 0.755891 0.378244 0.458742
O O6 0.750000 0.250000 0.410118
O O7 0.676344 0.323656 0.250000
O O8 0.645144 0.298630 0.519293
O O9 0.624451 0.834921 0.995423
O O10 0.645144 0.701370 0.019293
O O11 0.543645 0.755367 0.877002
O O12 0.051948 0.654256 0.169656
O O13 0.744109 0.121756 0.458742
O O14 0.124451 0.334921 0.995423
O O15 0.156528 0.452380 0.113942
O O16 0.046751 0.264750 0.162035
#
# Coordination Sequence:
#
# PCOD9558434 Si02
#       8
#     8   8   8   8   8   8   8   8
#     4  10  20  30  48  73 100 127 162 200 240 284
#     4   9  16  29  51  73  93 120 156 197 250 301
#     4  10  19  33  51  71  98 130 160 199 246 286
#     4  10  19  33  51  71  98 130 160 199 246 286
#     4   9  16  29  51  73  93 120 156 197 250 301
#     4  10  19  33  51  71  98 130 160 199 246 286
#     4  10  20  30  48  73 100 127 162 200 240 284
#     4  10  19  33  51  71  98 130 160 199 246 286
#
# _framework density 17.723510999999998
#
# number of rings (size 3 to 8) (size 9 to 14) (size 15 to 20)
#    0.000    2.250    2.500    1.500    0.000    1.000 
#    0.000    3.750    0.000   52.500    0.000    0.000 
#    0.000   70.000    0.000    0.000    0.000    0.000 
#
# Total GULP energy -356366.171594 kJ/mol
# GULP energy per Si atom -5568.221431 kJ/mol
# Density = 1.768317 g / cm^3
# Si number density = 17.723511 Si / 1000 Ang^3
#
#
#
# Elastic Constant Matrix: (Units=GPa)
#
#
# Indices 1 2 3 4 5 6 
#
# 1 56.5343 35.2343 31.6596 0.0000 0.0000 0.0000
# 2 35.2343 56.5343 31.6596 0.0000 0.0000 0.0000
# 3 31.6596 31.6596 109.4492 0.0000 0.0000 0.0000
# 4 0.0000 0.0000 0.0000 20.0707 0.0000 0.0000
# 5 0.0000 0.0000 0.0000 0.0000 20.0707 0.0000
# 6 0.0000 0.0000 0.0000 0.0000 0.0000 11.1251
#
#
#
# Elastic Compliance Matrix: (Units=1/GPa)
#
#
# Indices 1 2 3 4 5 6 
#
# 1 0.030281 -0.016667 -0.003938 0.000000 0.000000 0.000000
# 2 -0.016667 0.030281 -0.003938 0.000000 0.000000 0.000000
# 3 -0.003938 -0.003938 0.011415 0.000000 0.000000 0.000000
# 4 0.000000 0.000000 0.000000 0.049824 0.000000 0.000000
# 5 0.000000 0.000000 0.000000 0.000000 0.049824 0.000000
# 6 0.000000 0.000000 0.000000 0.000000 0.000000 0.089887
#
#
# Mechanical properties :
#
#
# Convention : Reuss Voigt Hill
#
# Bulk Modulus (GPa) = 43.68529 46.62500 45.15514
# Shear Modulus (GPa) = 15.71196 18.51759 17.11477
#
# Velocity S-wave (km/s) = 2.98065 3.23585 3.11087
# Velocity P-wave (km/s) = 6.04545 6.35019 6.19969
#
# Compressibility (1/GPa) = 0.02289100
#
# Stress axis : x y z
#
# Youngs Moduli (GPa) = 33.02368 33.02368 87.60446
#
# Poissons Ratio (x) = 0.55041 0.34499
# Poissons Ratio (y) = 0.55041 0.34499
# Poissons Ratio (z) = 0.13005 0.13005
#
# Static dielectric constant tensor:
#      x y z
#    x 1.619380 0.000000 0.000000 
#    y 0.000000 1.619380 0.000000 
#    z 0.000000 0.000000 1.634440 
# 
# From -- ./inp_files/2339.got.cif
#   From: 2010.05.17/outbox.cif.g08.bks.cpg/sg118_2_cif.got.tgz:2339.got - 2010.05.20 11:17:24.
