data_PCOD9558353
_publ_section_title
;
Structure prediction by ZEFSAII (Michael W. Deem and Ramdas Pophale) SiO2 
 PCOD9558353
Probable space group: P -4 B 2
;
_chemical_formula_sum "Si O2"
_cell_formula_units_Z 54
_cell_length_a 14.633644
_cell_length_b 14.633644
_cell_length_c 11.179947
_cell_angle_alpha 90.000000
_cell_angle_beta 90.000000
_cell_angle_gamma 90.000000
_cell_volume 2394.113391
_symmetry_space_group_name_H-M "P -4 B 2"
_symmetry_group_IT_number 117
_symmetry_cell_setting 'tetragonal'
loop_
_space_group_symop_operation_xyz
x,y,z
y,-x,-z
-x,-y,z
-y,x,-z
1/2+y,1/2+x,-z
1/2-y,1/2-x,-z
1/2-x,1/2+y,z
1/2+x,1/2-y,z
loop_
_atom_site_type_symbol
_atom_site_label
_atom_site_fract_x
_atom_site_fract_y
_atom_site_fract_z
Si Si1 0.360222 0.350368 0.033200
Si Si2 0.842556 0.869062 0.243516
Si Si3 0.588263 0.062649 0.250771
Si Si4 0.541922 0.278016 0.646402
Si Si5 0.756364 0.832379 0.732539
Si Si6 0.525543 0.238582 0.370013
Si Si7 0.000000 0.000000 0.000000
Si Si8 0.356205 0.856205 0.000000
O O1 0.362366 0.268465 0.128547
O O2 0.386821 0.329643 0.896907
O O3 0.430749 0.431120 0.068839
O O4 0.252159 0.373569 0.020848
O O5 0.755455 0.807498 0.281097
O O6 0.931699 0.810539 0.276399
O O7 0.846512 0.963105 0.314214
O O8 0.682364 0.015287 0.289226
O O9 0.575728 0.143966 0.344886
O O10 0.596942 0.107206 0.119660
O O11 0.500000 0.000000 0.254648
O O12 0.641271 0.305171 0.693638
O O13 0.542800 0.269431 0.504408
O O14 0.725704 0.918793 0.656325
#
# Coordination Sequence:
#
# PCOD9558353 Si02
#       8
#     8   8   8   8   8   8   2   4
#     4  12  22  47  72 102 143 184 233 295 366 432
#     4  12  25  46  73 105 142 190 241 301 368 430
#     4  12  26  46  73 105 144 188 244 301 359 428
#     4  12  26  45  71 103 145 194 242 295 360 431
#     4  12  25  46  73 105 142 190 241 301 368 430
#     4  12  26  45  71 103 145 194 242 295 360 431
#     4  12  28  36  72 108 134 180 232 284 352 442
#     4  12  23  50  72 108 146 185 234 302 374 431
#
# _framework density 22.555323000000001
#
# number of rings (size 3 to 8) (size 9 to 14) (size 15 to 20)
#    0.000    0.000    5.926    4.222    0.000    4.741 
#    0.000    4.444    0.000    0.000    0.000    0.000 
#    0.000    0.000    0.000    0.000    0.000    0.000 
#
# Total GULP energy -302342.562982 kJ/mol
# GULP energy per Si atom -5598.936352 kJ/mol
# Density = 2.250399 g / cm^3
# Si number density = 22.555323 Si / 1000 Ang^3
#
#
#
# Elastic Constant Matrix: (Units=GPa)
#
#
# Indices 1 2 3 4 5 6 
#
# 1 64.7987 -1.1623 -9.3635 0.0000 0.0000 0.0000
# 2 -1.1623 64.7987 -9.3635 0.0000 0.0000 0.0000
# 3 -9.3635 -9.3635 114.9589 0.0000 0.0000 0.0000
# 4 0.0000 0.0000 0.0000 21.5334 0.0000 0.0000
# 5 0.0000 0.0000 0.0000 0.0000 21.5334 0.0000
# 6 0.0000 0.0000 0.0000 0.0000 0.0000 35.4686
#
#
#
# Elastic Compliance Matrix: (Units=1/GPa)
#
#
# Indices 1 2 3 4 5 6 
#
# 1 0.015630 0.000470 0.001311 0.000000 0.000000 0.000000
# 2 0.000470 0.015630 0.001311 0.000000 0.000000 0.000000
# 3 0.001311 0.001311 0.008912 0.000000 0.000000 0.000000
# 4 0.000000 0.000000 0.000000 0.046439 0.000000 0.000000
# 5 0.000000 0.000000 0.000000 0.000000 0.046439 0.000000
# 6 0.000000 0.000000 0.000000 0.000000 0.000000 0.028194
#
#
# Mechanical properties :
#
#
# Convention : Reuss Voigt Hill
#
# Bulk Modulus (GPa) = 21.57112 22.75307 22.16209
# Shear Modulus (GPa) = 29.32320 33.33679 31.33000
#
# Velocity S-wave (km/s) = 3.60954 3.84865 3.73101
# Velocity P-wave (km/s) = 5.19193 5.46434 5.32988
#
# Compressibility (1/GPa) = 0.04635828
#
# Stress axis : x y z
#
# Youngs Moduli (GPa) = 63.97815 63.97815 112.20336
#
# Poissons Ratio (x) = -0.03006 -0.14714
# Poissons Ratio (y) = -0.03006 -0.14714
# Poissons Ratio (z) = -0.08390 -0.08390
#
# Static dielectric constant tensor:
#      x y z
#    x 1.827360 0.000000 0.000000 
#    y 0.000000 1.827360 0.000000 
#    z 0.000000 0.000000 1.816900 
# 
# From -- ./inp_files/2911.got.cif
#   From: 2010.05.17/outbox.cif.g08.bks.cpg/sg117_2_cif.got.tgz:2911.got - 2010.05.20 11:15:09.
