data_PCOD9558740
_publ_section_title
;
Structure prediction by ZEFSAII (Michael W. Deem and Ramdas Pophale) SiO2 
 PCOD9558740
Probable space group: P -4 N 2
;
_chemical_formula_sum "Si O2"
_cell_formula_units_Z 56
_cell_length_a 11.739351
_cell_length_b 11.739351
_cell_length_c 20.301009
_cell_angle_alpha 90.000000
_cell_angle_beta 90.000000
_cell_angle_gamma 90.000000
_cell_volume 2797.729999
_symmetry_space_group_name_H-M "P -4 N 2"
_symmetry_group_IT_number 118
_symmetry_cell_setting 'tetragonal'
loop_
_space_group_symop_operation_xyz
x,y,z
y,-x,-z
-x,-y,z
-y,x,-z
1/2+y,1/2+x,1/2-z
1/2-y,1/2-x,1/2-z
1/2-x,1/2+y,1/2+z
1/2+x,1/2-y,1/2+z
loop_
_atom_site_type_symbol
_atom_site_label
_atom_site_fract_x
_atom_site_fract_y
_atom_site_fract_z
Si Si1 0.842467 0.530449 0.689152
Si Si2 0.364480 0.868112 0.670716
Si Si3 0.387313 0.360632 0.009979
Si Si4 0.838389 0.271565 0.639624
Si Si5 0.624371 0.871839 0.828922
Si Si6 0.634390 0.508983 0.778776
Si Si7 0.672904 0.250467 0.115468
O O1 0.919145 0.580856 0.750000
O O2 0.859910 0.401170 0.663263
O O3 0.713237 0.538983 0.716566
O O4 0.860784 0.621786 0.631582
O O5 0.358510 0.858510 0.750000
O O6 0.292636 0.767319 0.638577
O O7 0.496767 0.864784 0.652501
O O8 0.327001 0.997480 0.653451
O O9 0.390581 0.272161 0.070310
O O10 0.364911 0.492423 0.029118
O O11 0.287860 0.334409 0.959225
O O12 0.891640 0.188287 0.694799
O O13 0.634659 0.865342 0.750000
O O14 0.722411 0.799442 0.861245
O O15 0.500000 0.500000 0.767922
O O16 0.668000 0.596790 0.837032
#
# Coordination Sequence:
#
# PCOD9558740 Si02
#       7
#     8   8   8   8   8   8   8
#     4  10  25  42  63  96 139 171 215 274 339 414
#     4   9  18  32  56  90 125 158 204 259 328 381
#     4  11  23  43  65  89 118 158 223 280 324 391
#     4  12  23  39  63  93 127 171 213 272 326 400
#     4   9  17  33  57  89 126 160 201 267 324 387
#     4  11  21  38  67  99 122 163 212 273 335 379
#     4  11  22  39  60  90 126 167 210 267 324 391
#
# _framework density 20.016228000000002
#
# number of rings (size 3 to 8) (size 9 to 14) (size 15 to 20)
#    0.000    1.571    1.429    6.000    0.000    7.429 
#    2.571    0.000    0.000    0.000    0.000    0.000 
#    0.000    0.000    0.000    0.000    0.000    0.000 
#
# Total GULP energy -312530.059859 kJ/mol
# GULP energy per Si atom -5580.893926 kJ/mol
# Density = 1.997067 g / cm^3
# Si number density = 20.016228 Si / 1000 Ang^3
#
#
#
# Elastic Constant Matrix: (Units=GPa)
#
#
# Indices 1 2 3 4 5 6 
#
# 1 129.6222 45.8411 35.5037 0.0000 0.0000 0.0000
# 2 45.8411 129.6225 35.5035 0.0000 0.0000 0.0000
# 3 35.5037 35.5035 62.8897 0.0000 0.0000 0.0000
# 4 0.0000 0.0000 0.0000 15.1163 0.0000 0.0000
# 5 0.0000 0.0000 0.0000 0.0000 15.1166 0.0000
# 6 0.0000 0.0000 0.0000 0.0000 0.0000 24.0273
#
#
#
# Elastic Compliance Matrix: (Units=1/GPa)
#
#
# Indices 1 2 3 4 5 6 
#
# 1 0.009661 -0.002275 -0.004170 0.000000 0.000000 0.000000
# 2 -0.002275 0.009661 -0.004170 0.000000 0.000000 0.000000
# 3 -0.004170 -0.004170 0.020609 0.000000 0.000000 0.000000
# 4 0.000000 0.000000 0.000000 0.066154 0.000000 0.000000
# 5 0.000000 0.000000 0.000000 0.000000 0.066152 0.000000
# 6 0.000000 0.000000 0.000000 0.000000 0.000000 0.041619
#
#
# Mechanical properties :
#
#
# Convention : Reuss Voigt Hill
#
# Bulk Modulus (GPa) = 53.46928 61.75900 57.61414
# Shear Modulus (GPa) = 20.71933 24.53781 22.62857
#
# Velocity S-wave (km/s) = 3.22083 3.50508 3.36595
# Velocity P-wave (km/s) = 6.37202 6.87766 6.62966
#
# Compressibility (1/GPa) = 0.01870233
#
# Stress axis : x y z
#
# Youngs Moduli (GPa) = 103.50549 103.50596 48.52200
#
# Poissons Ratio (x) = 0.23543 0.20234
# Poissons Ratio (y) = 0.23543 0.20234
# Poissons Ratio (z) = 0.43163 0.43163
#
# Static dielectric constant tensor:
#      x y z
#    x 1.786340 0.000000 0.000000 
#    y 0.000000 1.786340 0.000000 
#    z 0.000000 0.000000 1.694590 
# 
# From -- ./inp_files/5714.got.cif
#   From: 2010.05.17/outbox.cif.g08.bks.cpg/sg118_3_cif.got.tgz:5714.got - 2010.05.20 11:17:24.
