data_PCOD9558056
_publ_section_title
;
Structure prediction by ZEFSAII (Michael W. Deem and Ramdas Pophale) SiO2 
 PCOD9558056
Probable space group: P -4 B 2
;
_chemical_formula_sum "Si O2"
_cell_formula_units_Z 56
_cell_length_a 18.374698
_cell_length_b 18.374698
_cell_length_c 10.738483
_cell_angle_alpha 90.000000
_cell_angle_beta 90.000000
_cell_angle_gamma 90.000000
_cell_volume 3625.628932
_symmetry_space_group_name_H-M "P -4 B 2"
_symmetry_group_IT_number 117
_symmetry_cell_setting 'tetragonal'
loop_
_space_group_symop_operation_xyz
x,y,z
y,-x,-z
-x,-y,z
-y,x,-z
1/2+y,1/2+x,-z
1/2-y,1/2-x,-z
1/2-x,1/2+y,z
1/2+x,1/2-y,z
loop_
_atom_site_type_symbol
_atom_site_label
_atom_site_fract_x
_atom_site_fract_y
_atom_site_fract_z
Si Si1 0.218966 0.965800 0.473840
Si Si2 0.657286 0.281218 0.313395
Si Si3 0.141138 0.933852 0.858284
Si Si4 0.165377 0.215568 0.696454
Si Si5 0.491251 0.418417 0.669823
Si Si6 0.598979 0.619701 0.128903
Si Si7 0.372800 0.246905 0.511661
O O1 0.224716 0.910050 0.588979
O O2 0.236047 0.914622 0.355209
O O3 0.138337 0.996550 0.441182
O O4 0.262488 0.040659 0.491504
O O5 0.619487 0.294281 0.181199
O O6 0.711816 0.213167 0.309163
O O7 0.710341 0.345523 0.364758
O O8 0.083375 0.917418 0.747868
O O9 0.157926 0.020014 0.860258
O O10 0.108432 0.911115 0.990595
O O11 0.162797 0.170348 0.824660
O O12 0.201090 0.157867 0.598711
O O13 0.500000 0.500000 0.627591
O O14 0.553364 0.405110 0.773385
O O15 0.327577 0.172424 0.500000
#
# Coordination Sequence:
#
# PCOD9558056 Si02
#       7
#     8   8   8   8   8   8   8
#     4  10  17  32  49  68  93 128 159 200 243 286
#     4  10  20  32  48  67  96 130 163 197 239 287
#     4  11  18  30  48  69  99 131 158 194 236 286
#     4   9  20  34  46  67  97 130 162 197 237 289
#     4   9  18  29  43  70 100 127 155 191 231 289
#     4  10  19  30  48  68  99 129 160 194 238 279
#     4   9  17  31  48  69  95 121 158 201 242 290
#
# _framework density 15.445595000000001
#
# number of rings (size 3 to 8) (size 9 to 14) (size 15 to 20)
#    0.000    2.286    2.857    2.143    0.000    1.714 
#    0.000    0.000    0.000    1.714    0.000    0.000 
#    0.000    0.000    0.000    5.714    0.000    0.000 
#
# Total GULP energy -311744.109724 kJ/mol
# GULP energy per Si atom -5566.859102 kJ/mol
# Density = 1.541044 g / cm^3
# Si number density = 15.445595 Si / 1000 Ang^3
#
#
#
# Elastic Constant Matrix: (Units=GPa)
#
#
# Indices 1 2 3 4 5 6 
#
# 1 88.2876 44.9615 28.6620 0.0000 0.0000 0.0000
# 2 44.9615 88.2863 28.6619 0.0000 0.0000 0.0000
# 3 28.6620 28.6619 55.9488 0.0000 0.0000 0.0000
# 4 0.0000 0.0000 0.0000 15.4692 0.0000 0.0000
# 5 0.0000 0.0000 0.0000 0.0000 15.4694 0.0000
# 6 0.0000 0.0000 0.0000 0.0000 0.0000 21.2442
#
#
#
# Elastic Compliance Matrix: (Units=1/GPa)
#
#
# Indices 1 2 3 4 5 6 
#
# 1 0.016354 -0.006727 -0.004931 0.000000 0.000000 0.000000
# 2 -0.006727 0.016354 -0.004932 0.000000 0.000000 0.000000
# 3 -0.004931 -0.004932 0.022926 0.000000 0.000000 0.000000
# 4 0.000000 0.000000 0.000000 0.064644 0.000000 0.000000
# 5 0.000000 0.000000 0.000000 0.000000 0.064644 0.000000
# 6 0.000000 0.000000 0.000000 0.000000 0.000000 0.047072
#
#
# Mechanical properties :
#
#
# Convention : Reuss Voigt Hill
#
# Bulk Modulus (GPa) = 44.53757 48.56595 46.55176
# Shear Modulus (GPa) = 18.33795 19.11904 18.72849
#
# Velocity S-wave (km/s) = 3.44940 3.52210 3.48594
# Velocity P-wave (km/s) = 6.69046 6.93194 6.81227
#
# Compressibility (1/GPa) = 0.02245295
#
# Stress axis : x y z
#
# Youngs Moduli (GPa) = 61.14873 61.14769 43.61828
#
# Poissons Ratio (x) = 0.41137 0.21510
# Poissons Ratio (y) = 0.41137 0.21510
# Poissons Ratio (z) = 0.30155 0.30155
#
# Static dielectric constant tensor:
#      x y z
#    x 1.545570 0.000000 0.000000 
#    y 0.000000 1.545570 0.000000 
#    z 0.000000 0.000000 1.539260 
# 
# From -- ./inp_files/2916.got.cif
#   From: 2010.05.17/outbox.cif.g08.bks.cpg/sg117_2_cif.got.tgz:2916.got - 2010.05.20 11:15:09.
