data_PCOD9558864
_publ_section_title
;
Structure prediction by ZEFSAII (Michael W. Deem and Ramdas Pophale) SiO2 
 PCOD9558864
Probable space group: P -4 N 2
;
_chemical_formula_sum "Si O2"
_cell_formula_units_Z 30
_cell_length_a 8.027097
_cell_length_b 8.027097
_cell_length_c 18.349795
_cell_angle_alpha 90.000000
_cell_angle_beta 90.000000
_cell_angle_gamma 90.000000
_cell_volume 1182.355944
_symmetry_space_group_name_H-M "P -4 N 2"
_symmetry_group_IT_number 118
_symmetry_cell_setting 'tetragonal'
loop_
_space_group_symop_operation_xyz
x,y,z
y,-x,-z
-x,-y,z
-y,x,-z
1/2+y,1/2+x,1/2-z
1/2-y,1/2-x,1/2-z
1/2-x,1/2+y,1/2+z
1/2+x,1/2-y,1/2+z
loop_
_atom_site_type_symbol
_atom_site_label
_atom_site_fract_x
_atom_site_fract_y
_atom_site_fract_z
Si Si1 0.978859 0.305268 0.667744
Si Si2 0.000000 0.500000 0.250000
Si Si3 0.246533 0.126747 0.486135
Si Si4 0.800262 0.350283 0.366044
Si Si5 0.500000 0.500000 0.277787
O O1 0.159885 0.251368 0.639897
O O2 0.000000 0.500000 0.683070
O O3 0.857711 0.294723 0.598168
O O4 0.953013 0.166556 0.730750
O O5 0.039864 0.638329 0.311933
O O6 0.378275 0.181012 0.547859
O O7 0.067412 0.213539 0.494918
O O8 0.658486 0.458381 0.327847
#
# Coordination Sequence:
#
# PCOD9558864 Si02
#       5
#     8   2   8   8   4
#     4  11  24  46  76 113 154 206 269 332 395 488
#     4  12  24  44  70  96 162 188 262 326 392 480
#     4   9  20  43  77 107 152 206 264 321 402 479
#     4  11  25  45  72 113 147 208 262 324 415 475
#     4  12  24  48  77 117 156 198 270 330 402 473
#
# _framework density 25.373072000000001
#
# number of rings (size 3 to 8) (size 9 to 14) (size 15 to 20)
#    0.000    1.333    2.667    3.200    1.867    4.267 
#    0.000    0.000    0.000    0.000    0.000    0.000 
#    0.000    0.000    0.000    0.000    0.000    0.000 
#
# Total GULP energy -167466.634233 kJ/mol
# GULP energy per Si atom -5582.221141 kJ/mol
# Density = 2.531532 g / cm^3
# Si number density = 25.373072 Si / 1000 Ang^3
#
#
#
# Elastic Constant Matrix: (Units=GPa)
#
#
# Indices 1 2 3 4 5 6 
#
# 1 84.2159 20.9505 64.6500 0.0000 0.0000 0.0000
# 2 20.9505 84.2159 64.6500 0.0000 0.0000 0.0000
# 3 64.6500 64.6500 237.5898 0.0000 0.0000 0.0000
# 4 0.0000 0.0000 0.0000 84.9124 0.0000 0.0000
# 5 0.0000 0.0000 0.0000 0.0000 84.9124 0.0000
# 6 0.0000 0.0000 0.0000 0.0000 0.0000 42.9230
#
#
#
# Elastic Compliance Matrix: (Units=1/GPa)
#
#
# Indices 1 2 3 4 5 6 
#
# 1 0.015048 -0.000759 -0.003888 0.000000 0.000000 0.000000
# 2 -0.000759 0.015048 -0.003888 0.000000 0.000000 0.000000
# 3 -0.003888 -0.003888 0.006325 0.000000 0.000000 0.000000
# 4 0.000000 0.000000 0.000000 0.011777 0.000000 0.000000
# 5 0.000000 0.000000 0.000000 0.000000 0.011777 0.000000
# 6 0.000000 0.000000 0.000000 0.000000 0.000000 0.023298
#
#
# Mechanical properties :
#
#
# Convention : Reuss Voigt Hill
#
# Bulk Modulus (GPa) = 51.67810 78.50252 65.09031
# Shear Modulus (GPa) = 46.81998 59.60097 53.21047
#
# Velocity S-wave (km/s) = 4.30031 4.85189 4.58440
# Velocity P-wave (km/s) = 6.71330 7.89900 7.33017
#
# Compressibility (1/GPa) = 0.01935056
#
# Stress axis : x y z
#
# Youngs Moduli (GPa) = 66.45485 66.45485 158.10398
#
# Poissons Ratio (x) = 0.05041 0.61474
# Poissons Ratio (y) = 0.05041 0.61474
# Poissons Ratio (z) = 0.25839 0.25839
#
# Static dielectric constant tensor:
#      x y z
#    x 1.975920 0.000000 0.000000 
#    y 0.000000 1.975920 0.000000 
#    z 0.000000 0.000000 2.162240 
# 
# From -- ./inp_files/5369.got.cif
#   From: 2010.05.17/outbox.cif.g08.bks.cpg/sg118_3_cif.got.tgz:5369.got - 2010.05.20 11:17:24.
