data_PCOD9558093
_publ_section_title
;
Structure prediction by ZEFSAII (Michael W. Deem and Ramdas Pophale) SiO2 
 PCOD9558093
Probable space group: P -4 B 2
;
_chemical_formula_sum "Si O2"
_cell_formula_units_Z 56
_cell_length_a 14.150585
_cell_length_b 14.150585
_cell_length_c 11.707722
_cell_angle_alpha 90.000000
_cell_angle_beta 90.000000
_cell_angle_gamma 90.000000
_cell_volume 2344.343199
_symmetry_space_group_name_H-M "P -4 B 2"
_symmetry_group_IT_number 117
_symmetry_cell_setting 'tetragonal'
loop_
_space_group_symop_operation_xyz
x,y,z
y,-x,-z
-x,-y,z
-y,x,-z
1/2+y,1/2+x,-z
1/2-y,1/2-x,-z
1/2-x,1/2+y,z
1/2+x,1/2-y,z
loop_
_atom_site_type_symbol
_atom_site_label
_atom_site_fract_x
_atom_site_fract_y
_atom_site_fract_z
Si Si1 0.860571 0.624574 0.170042
Si Si2 0.927425 0.336158 0.158409
Si Si3 0.684292 0.795054 0.375623
Si Si4 0.753735 0.463884 0.066209
Si Si5 0.095635 0.294210 0.586069
Si Si6 0.642236 0.346641 0.231621
Si Si7 0.138965 0.981635 0.552039
O O1 0.788599 0.572182 0.083905
O O2 0.833332 0.574679 0.289778
O O3 0.851387 0.738996 0.182669
O O4 0.972099 0.611287 0.151228
O O5 0.899734 0.299931 0.283997
O O6 0.842669 0.402726 0.114662
O O7 0.938634 0.250717 0.067501
O O8 0.664925 0.835076 0.500000
O O9 0.730632 0.690817 0.392506
O O10 0.769664 0.852462 0.318063
O O11 0.663279 0.425449 0.135741
O O12 0.124266 0.375735 0.500000
O O13 0.021654 0.237417 0.511548
O O14 0.554193 0.359316 0.317772
O O15 0.078678 0.911593 0.471221
#
# Coordination Sequence:
#
# PCOD9558093 Si02
#       7
#     8   8   8   8   8   8   8
#     4  11  21  37  65  95 120 172 221 264 335 410
#     4  10  22  39  63  96 127 173 213 272 340 398
#     4   9  17  35  59  89 124 163 196 261 333 379
#     4  10  22  44  62  89 137 171 216 284 327 395
#     4  10  19  37  57  88 126 160 204 271 320 391
#     4  10  21  39  62  93 124 166 225 267 322 398
#     4  11  22  36  60  89 127 178 217 267 340 413
#
# _framework density 23.887288999999999
#
# number of rings (size 3 to 8) (size 9 to 14) (size 15 to 20)
#    0.000    1.857    4.286    1.714    2.000    1.143 
#   20.571    0.000    0.000    0.000    0.000    0.000 
#    0.000    0.000    0.000    0.000    0.000    0.000 
#
# Total GULP energy -312668.831161 kJ/mol
# GULP energy per Si atom -5583.371985 kJ/mol
# Density = 2.383292 g / cm^3
# Si number density = 23.887289 Si / 1000 Ang^3
#
#
#
# Elastic Constant Matrix: (Units=GPa)
#
#
# Indices 1 2 3 4 5 6 
#
# 1 297.7987 -241.4917 24.1639 0.0000 0.0000 0.0000
# 2 -241.4917 297.7981 24.1561 0.0000 0.0000 0.0000
# 3 24.1639 24.1561 164.8845 0.0000 0.0000 0.0000
# 4 0.0000 0.0000 0.0000 29.9161 0.0000 0.0000
# 5 0.0000 0.0000 0.0000 0.0000 29.9162 0.0000
# 6 0.0000 0.0000 0.0000 0.0000 0.0000 27.8112
#
#
#
# Elastic Compliance Matrix: (Units=1/GPa)
#
#
# Indices 1 2 3 4 5 6 
#
# 1 0.011084 0.009230 -0.002977 0.000000 0.000000 0.000000
# 2 0.009230 0.011084 -0.002977 0.000000 0.000000 0.000000
# 3 -0.002977 -0.002977 0.006937 0.000000 0.000000 0.000000
# 4 0.000000 0.000000 0.000000 0.033427 0.000000 0.000000
# 5 0.000000 0.000000 0.000000 0.000000 0.033427 0.000000
# 6 0.000000 0.000000 0.000000 0.000000 0.000000 0.035957
#
#
# Mechanical properties :
#
#
# Convention : Reuss Voigt Hill
#
# Bulk Modulus (GPa) = 28.04318 41.57089 34.80704
# Shear Modulus (GPa) = 36.43019 81.10555 58.76787
#
# Velocity S-wave (km/s) = 3.90947 5.83328 4.96544
# Velocity P-wave (km/s) = 5.66956 7.92529 6.89036
#
# Compressibility (1/GPa) = 0.03565929
#
# Stress axis : x y z
#
# Youngs Moduli (GPa) = 90.21777 90.21829 144.15143
#
# Poissons Ratio (x) = -0.83271 0.42909
# Poissons Ratio (y) = -0.83271 0.42907
# Poissons Ratio (z) = 0.26854 0.26854
#
# Static dielectric constant tensor:
#      x y z
#    x 1.787880 0.000000 0.000000 
#    y 0.000000 1.787830 0.000000 
#    z 0.000000 0.000000 1.771210 
# 
# From -- ./inp_files/2878.got.cif
#   From: 2010.05.17/outbox.cif.g08.bks.cpg/sg117_2_cif.got.tgz:2878.got - 2010.05.20 11:15:09.
