data_PCOD9558326
_publ_section_title
;
Structure prediction by ZEFSAII (Michael W. Deem and Ramdas Pophale) SiO2 
 PCOD9558326
Probable space group: P -4 B 2
;
_chemical_formula_sum "Si O2"
_cell_formula_units_Z 26
_cell_length_a 9.948842
_cell_length_b 9.948842
_cell_length_c 9.293964
_cell_angle_alpha 90.000000
_cell_angle_beta 90.000000
_cell_angle_gamma 90.000000
_cell_volume 919.911511
_symmetry_space_group_name_H-M "P -4 B 2"
_symmetry_group_IT_number 117
_symmetry_cell_setting 'tetragonal'
loop_
_space_group_symop_operation_xyz
x,y,z
y,-x,-z
-x,-y,z
-y,x,-z
1/2+y,1/2+x,-z
1/2-y,1/2-x,-z
1/2-x,1/2+y,z
1/2+x,1/2-y,z
loop_
_atom_site_type_symbol
_atom_site_label
_atom_site_fract_x
_atom_site_fract_y
_atom_site_fract_z
Si Si1 0.633065 0.168113 0.332824
Si Si2 0.111155 0.735067 0.142418
Si Si3 0.500000 0.500000 0.000000
Si Si4 0.760045 0.898425 0.378689
O O1 0.616442 0.116442 0.500000
O O2 0.762049 0.269652 0.256156
O O3 0.594823 0.335604 0.399868
O O4 0.722949 0.029240 0.296288
O O5 0.990799 0.660725 0.222311
O O6 0.162075 0.662075 0.000000
O O7 0.060483 0.879875 0.094208
O O8 0.664461 0.835540 0.500000
#
# Coordination Sequence:
#
# PCOD9558326 Si02
#       4
#     8   8   2   8
#     4  11  25  49  81 125 168 221 290 353 434 521
#     4  12  28  52  87 115 175 223 290 358 442 517
#     4  12  32  60  76 138 172 232 300 366 436 548
#     4  11  25  48  81 118 163 223 282 355 429 519
#
# _framework density 28.263589
#
# number of rings (size 3 to 8) (size 9 to 14) (size 15 to 20)
#    0.000    0.615    3.077    2.769    8.615    2.462 
#    5.538    0.000    0.000    0.000    0.000    0.000 
#    0.000    0.000    0.000    0.000    0.000    0.000 
#
# Total GULP energy -144736.473031 kJ/mol
# GULP energy per Si atom -5566.787424 kJ/mol
# Density = 2.819926 g / cm^3
# Si number density = 28.263589 Si / 1000 Ang^3
#
#
#
# Elastic Constant Matrix: (Units=GPa)
#
#
# Indices 1 2 3 4 5 6 
#
# 1 121.8270 6.3847 43.2796 0.0000 0.0000 0.0000
# 2 6.3847 121.8269 43.2796 0.0000 0.0000 0.0000
# 3 43.2796 43.2796 194.2487 0.0000 0.0000 0.0000
# 4 0.0000 0.0000 0.0000 27.5573 0.0000 0.0000
# 5 0.0000 0.0000 0.0000 0.0000 27.5571 0.0000
# 6 0.0000 0.0000 0.0000 0.0000 0.0000 44.5091
#
#
#
# Elastic Compliance Matrix: (Units=1/GPa)
#
#
# Indices 1 2 3 4 5 6 
#
# 1 0.008921 0.000259 -0.002045 0.000000 0.000000 0.000000
# 2 0.000259 0.008921 -0.002045 0.000000 0.000000 0.000000
# 3 -0.002045 -0.002045 0.006060 0.000000 0.000000 0.000000
# 4 0.000000 0.000000 0.000000 0.036288 0.000000 0.000000
# 5 0.000000 0.000000 0.000000 0.000000 0.036288 0.000000
# 6 0.000000 0.000000 0.000000 0.000000 0.000000 0.022467
#
#
# Mechanical properties :
#
#
# Convention : Reuss Voigt Hill
#
# Bulk Modulus (GPa) = 61.58110 69.31003 65.44557
# Shear Modulus (GPa) = 37.87231 42.92196 40.39714
#
# Velocity S-wave (km/s) = 3.66453 3.90119 3.78471
# Velocity P-wave (km/s) = 6.30400 6.69838 6.50418
#
# Compressibility (1/GPa) = 0.01623875
#
# Stress axis : x y z
#
# Youngs Moduli (GPa) = 112.08942 112.08935 165.02951
#
# Poissons Ratio (x) = -0.02904 0.33756
# Poissons Ratio (y) = -0.02904 0.33756
# Poissons Ratio (z) = 0.22928 0.22928
#
# Static dielectric constant tensor:
#      x y z
#    x 2.647990 0.000000 0.000000 
#    y 0.000000 2.647990 0.000000 
#    z 0.000000 0.000000 2.419830 
# 
# From -- ./inp_files/1280.got.cif
#   From: 2010.05.17/outbox.cif.g08.bks.cpg/sg117_1_cif.got.tgz:1280.got - 2010.05.20 11:15:09.
