data_PCOD9558283
_publ_section_title
;
Structure prediction by ZEFSAII (Michael W. Deem and Ramdas Pophale) SiO2 
 PCOD9558283
Probable space group: P -4 B 2
;
_chemical_formula_sum "Si O2"
_cell_formula_units_Z 42
_cell_length_a 14.827391
_cell_length_b 14.827391
_cell_length_c 9.202954
_cell_angle_alpha 90.000000
_cell_angle_beta 90.000000
_cell_angle_gamma 90.000000
_cell_volume 2023.283461
_symmetry_space_group_name_H-M "P -4 B 2"
_symmetry_group_IT_number 117
_symmetry_cell_setting 'tetragonal'
loop_
_space_group_symop_operation_xyz
x,y,z
y,-x,-z
-x,-y,z
-y,x,-z
1/2+y,1/2+x,-z
1/2-y,1/2-x,-z
1/2-x,1/2+y,z
1/2+x,1/2-y,z
loop_
_atom_site_type_symbol
_atom_site_label
_atom_site_fract_x
_atom_site_fract_y
_atom_site_fract_z
Si Si1 0.650277 0.592589 0.671128
Si Si2 0.568894 0.922320 0.735791
Si Si3 0.518435 0.638628 0.039567
Si Si4 0.536279 0.181287 0.500091
Si Si5 0.759663 0.345716 0.121942
Si Si6 0.000000 0.000000 0.500000
O O1 0.662882 0.526914 0.809343
O O2 0.719266 0.559743 0.548608
O O3 0.668205 0.692325 0.739757
O O4 0.552830 0.571086 0.602734
O O5 0.511102 0.845848 0.650363
O O6 0.632778 0.862348 0.835327
O O7 0.500000 0.000000 0.793614
O O8 0.631485 0.974799 0.620706
O O9 0.593336 0.560474 0.056359
O O10 0.566870 0.718107 0.956151
O O11 0.630405 0.130405 0.500000
O O12 0.766474 0.266474 0.000000
#
# Coordination Sequence:
#
# PCOD9558283 Si02
#       6
#     8   8   8   8   8   2
#     4  11  22  40  58  94 120 157 208 251 312 370
#     4   9  19  39  64  85 118 160 209 249 306 366
#     4   9  19  38  61  83 125 163 195 246 306 363
#     4   9  19  39  60  87 120 157 197 261 307 356
#     4  11  22  38  57  91 124 165 197 250 309 371
#     4  12  24  40  70  88 116 160 220 262 308 376
#
# _framework density 20.758337000000001
#
# number of rings (size 3 to 8) (size 9 to 14) (size 15 to 20)
#    0.000    2.095    0.000    5.714    0.000    0.381 
#   24.000    0.000    0.000    0.000    0.000    0.000 
#    0.000    0.000    0.000    0.000    0.000    0.000 
#
# Total GULP energy -234031.457991 kJ/mol
# GULP energy per Si atom -5572.177571 kJ/mol
# Density = 2.071109 g / cm^3
# Si number density = 20.758337 Si / 1000 Ang^3
#
#
#
# Elastic Constant Matrix: (Units=GPa)
#
#
# Indices 1 2 3 4 5 6 
#
# 1 -149.8016 256.6500 20.2437 0.0000 0.0000 0.0000
# 2 256.6500 -149.8016 20.2437 0.0000 0.0000 0.0000
# 3 20.2437 20.2437 40.7650 0.0000 0.0000 0.0000
# 4 0.0000 0.0000 0.0000 20.0899 0.0000 0.0000
# 5 0.0000 0.0000 0.0000 0.0000 20.0899 0.0000
# 6 0.0000 0.0000 0.0000 0.0000 0.0000 16.5332
#
#
#
# Elastic Compliance Matrix: (Units=1/GPa)
#
#
# Indices 1 2 3 4 5 6 
#
# 1 0.004534 0.006994 -0.005725 0.000000 0.000000 0.000000
# 2 0.006994 0.004534 -0.005725 0.000000 0.000000 0.000000
# 3 -0.005725 -0.005725 0.030217 0.000000 0.000000 0.000000
# 4 0.000000 0.000000 0.000000 0.049776 0.000000 0.000000
# 5 0.000000 0.000000 0.000000 0.000000 0.049776 0.000000
# 6 0.000000 0.000000 0.000000 0.000000 0.000000 0.060484
#
#
# Mechanical properties :
#
#
# Convention : Reuss Voigt Hill
#
# Bulk Modulus (GPa) = 32.92310 37.27073 35.09692
# Shear Modulus (GPa) = 22.89822 -25.72244 -1.41211
#
# Velocity S-wave (km/s) = 3.32488 -3.52396 -0.82568
# Velocity P-wave (km/s) = 5.53483 1.19827 4.00439
#
# Compressibility (1/GPa) = 0.03037381
#
# Stress axis : x y z
#
# Youngs Moduli (GPa) = 220.55434 220.55434 33.09412
#
# Poissons Ratio (x) = -1.54263 0.18946
# Poissons Ratio (y) = -1.54263 0.18946
# Poissons Ratio (z) = 1.26266 1.26266
#
# Static dielectric constant tensor:
#      x y z
#    x 1.761010 0.000000 0.000000 
#    y 0.000000 1.761010 0.000000 
#    z 0.000000 0.000000 2.370960 
# 
# From -- ./inp_files/1789.got.cif
#   From: 2010.05.17/outbox.cif.g08.bks.cpg/sg117_1_cif.got.tgz:1789.got - 2010.05.20 11:15:09.
