data_PCOD9558304
_publ_section_title
;
Structure prediction by ZEFSAII (Michael W. Deem and Ramdas Pophale) SiO2 
 PCOD9558304
Probable space group: P -4 B 2
;
_chemical_formula_sum "Si O2"
_cell_formula_units_Z 40
_cell_length_a 9.919405
_cell_length_b 9.919405
_cell_length_c 19.267703
_cell_angle_alpha 90.000000
_cell_angle_beta 90.000000
_cell_angle_gamma 90.000000
_cell_volume 1895.837844
_symmetry_space_group_name_H-M "P -4 B 2"
_symmetry_group_IT_number 117
_symmetry_cell_setting 'tetragonal'
loop_
_space_group_symop_operation_xyz
x,y,z
y,-x,-z
-x,-y,z
-y,x,-z
1/2+y,1/2+x,-z
1/2-y,1/2-x,-z
1/2-x,1/2+y,z
1/2+x,1/2-y,z
loop_
_atom_site_type_symbol
_atom_site_label
_atom_site_fract_x
_atom_site_fract_y
_atom_site_fract_z
Si Si1 0.597649 0.121789 0.417141
Si Si2 0.647635 0.515779 0.786810
Si Si3 0.870034 0.915340 0.629090
Si Si4 0.278990 0.212761 0.145025
Si Si5 0.461480 0.856983 0.925872
O O1 0.612892 0.112892 0.500000
O O2 0.752800 0.126619 0.386549
O O3 0.500948 0.248163 0.402647
O O4 0.500000 0.000000 0.391960
O O5 0.500000 0.500000 0.819571
O O6 0.639610 0.447450 0.711347
O O7 0.755548 0.427640 0.827825
O O8 0.675972 0.674987 0.792968
O O9 0.000000 0.000000 0.603908
O O10 0.223607 0.350448 0.114645
O O11 0.277030 0.101183 0.084035
O O12 0.500000 0.000000 0.893018
O O13 0.399169 0.899169 0.000000
#
# Coordination Sequence:
#
# PCOD9558304 Si02
#       5
#     8   8   8   8   8
#     4  11  26  44  71 107 142 191 243 297 370 436
#     4  11  24  43  69 103 135 183 234 290 356 417
#     4  11  25  45  70 102 144 189 245 302 359 432
#     4  12  23  45  70  98 140 178 227 287 347 418
#     4  11  26  43  68 102 134 176 226 280 346 413
#
# _framework density 21.098851
#
# number of rings (size 3 to 8) (size 9 to 14) (size 15 to 20)
#    0.000    0.800    4.000    2.400    8.400    1.600 
#    3.600    0.000    0.000    0.000    0.000    0.000 
#    0.000    0.000    0.000    0.000    0.000    0.000 
#
# Total GULP energy -222791.528732 kJ/mol
# GULP energy per Si atom -5569.788218 kJ/mol
# Density = 2.105083 g / cm^3
# Si number density = 21.098851 Si / 1000 Ang^3
#
#
#
# Elastic Constant Matrix: (Units=GPa)
#
#
# Indices 1 2 3 4 5 6 
#
# 1 156.6888 63.1203 28.6674 0.0000 0.0000 0.0000
# 2 63.1203 156.6888 28.6674 0.0000 0.0000 0.0000
# 3 28.6674 28.6674 53.8793 0.0000 0.0000 0.0000
# 4 0.0000 0.0000 0.0000 26.1076 0.0000 0.0000
# 5 0.0000 0.0000 0.0000 0.0000 26.1076 0.0000
# 6 0.0000 0.0000 0.0000 0.0000 0.0000 39.9107
#
#
#
# Elastic Compliance Matrix: (Units=1/GPa)
#
#
# Indices 1 2 3 4 5 6 
#
# 1 0.007985 -0.002702 -0.002811 0.000000 0.000000 0.000000
# 2 -0.002702 0.007985 -0.002811 0.000000 0.000000 0.000000
# 3 -0.002811 -0.002811 0.021551 0.000000 0.000000 0.000000
# 4 0.000000 0.000000 0.000000 0.038303 0.000000 0.000000
# 5 0.000000 0.000000 0.000000 0.000000 0.038303 0.000000
# 6 0.000000 0.000000 0.000000 0.000000 0.000000 0.025056
#
#
# Mechanical properties :
#
#
# Convention : Reuss Voigt Hill
#
# Bulk Modulus (GPa) = 47.90799 67.57411 57.74105
# Shear Modulus (GPa) = 30.71481 34.87865 32.79673
#
# Velocity S-wave (km/s) = 3.81958 4.07025 3.94691
# Velocity P-wave (km/s) = 6.49677 7.36113 6.94241
#
# Compressibility (1/GPa) = 0.02087335
#
# Stress axis : x y z
#
# Youngs Moduli (GPa) = 125.23565 125.23565 46.40176
#
# Poissons Ratio (x) = 0.33844 0.13042
# Poissons Ratio (y) = 0.33844 0.13042
# Poissons Ratio (z) = 0.35199 0.35199
#
# Static dielectric constant tensor:
#      x y z
#    x 1.827980 0.000000 0.000000 
#    y 0.000000 1.827980 0.000000 
#    z 0.000000 0.000000 1.841220 
# 
# From -- ./inp_files/3526.got.cif
#   From: 2010.05.17/outbox.cif.g08.bks.cpg/sg117_2_cif.got.tgz:3526.got - 2010.05.20 11:15:09.
