data_PCOD9558473
_publ_section_title
;
Structure prediction by ZEFSAII (Michael W. Deem and Ramdas Pophale) SiO2 
 PCOD9558473
Probable space group: P -4 N 2
;
_chemical_formula_sum "Si O2"
_cell_formula_units_Z 34
_cell_length_a 17.221047
_cell_length_b 17.221047
_cell_length_c 5.369104
_cell_angle_alpha 90.000000
_cell_angle_beta 90.000000
_cell_angle_gamma 90.000000
_cell_volume 1592.285427
_symmetry_space_group_name_H-M "P -4 N 2"
_symmetry_group_IT_number 118
_symmetry_cell_setting 'tetragonal'
loop_
_space_group_symop_operation_xyz
x,y,z
y,-x,-z
-x,-y,z
-y,x,-z
1/2+y,1/2+x,1/2-z
1/2-y,1/2-x,1/2-z
1/2-x,1/2+y,1/2+z
1/2+x,1/2-y,1/2+z
loop_
_atom_site_type_symbol
_atom_site_label
_atom_site_fract_x
_atom_site_fract_y
_atom_site_fract_z
Si Si1 0.929539 0.725803 0.921063
Si Si2 0.701694 0.611209 0.077070
Si Si3 0.963376 0.155203 0.688307
Si Si4 0.038035 0.584965 0.997569
Si Si5 0.500000 0.500000 0.500000
O O1 0.882490 0.743140 0.665605
O O2 0.006402 0.779532 0.879359
O O3 0.965696 0.642498 0.972000
O O4 0.884717 0.754019 0.163918
O O5 0.624290 0.662320 0.094961
O O6 0.667056 0.523832 0.037230
O O7 0.979041 0.073622 0.826649
O O8 0.089744 0.589744 0.750000
O O9 0.000000 0.500000 0.999544
O O10 0.087977 0.587977 0.250000
#
# Coordination Sequence:
#
# PCOD9558473 Si02
#       5
#     8   8   8   8   2
#     4  10  22  33  53  90 117 154 203 253 298 360
#     4  10  20  31  49  80 127 165 201 236 278 349
#     4  10  20  29  50  80 129 170 207 229 269 342
#     4  10  21  41  68  93 106 135 199 277 337 373
#     4  12  16  34  48  86 124 186 208 238 256 354
#
# _framework density 21.352955000000001
#
# number of rings (size 3 to 8) (size 9 to 14) (size 15 to 20)
#    1.412    0.471    2.353    2.824    3.294    0.000 
#    0.000    0.000    0.000    0.000   24.471    0.000 
#    0.000    0.000    0.000    0.000    0.000    0.000 
#
# Total GULP energy -189447.301878 kJ/mol
# GULP energy per Si atom -5571.979467 kJ/mol
# Density = 2.130435 g / cm^3
# Si number density = 21.352955 Si / 1000 Ang^3
#
#
#
# Elastic Constant Matrix: (Units=GPa)
#
#
# Indices 1 2 3 4 5 6 
#
# 1 80.9408 -8.8168 8.8173 0.0000 0.0000 0.0000
# 2 -8.8168 80.9408 8.8173 0.0000 0.0000 0.0000
# 3 8.8173 8.8173 164.5487 0.0000 0.0000 0.0000
# 4 0.0000 0.0000 0.0000 13.5273 0.0000 0.0000
# 5 0.0000 0.0000 0.0000 0.0000 13.5273 0.0000
# 6 0.0000 0.0000 0.0000 0.0000 0.0000 27.9216
#
#
#
# Elastic Compliance Matrix: (Units=1/GPa)
#
#
# Indices 1 2 3 4 5 6 
#
# 1 0.012595 0.001454 -0.000753 0.000000 0.000000 0.000000
# 2 0.001454 0.012595 -0.000753 0.000000 0.000000 0.000000
# 3 -0.000753 -0.000753 0.006158 0.000000 0.000000 0.000000
# 4 0.000000 0.000000 0.000000 0.073925 0.000000 0.000000
# 5 0.000000 0.000000 0.000000 0.000000 0.073925 0.000000
# 6 0.000000 0.000000 0.000000 0.000000 0.000000 0.035815
#
#
# Mechanical properties :
#
#
# Convention : Reuss Voigt Hill
#
# Bulk Modulus (GPa) = 32.00534 38.22955 35.11744
# Shear Modulus (GPa) = 22.16994 32.16938 27.16966
#
# Velocity S-wave (km/s) = 3.22570 3.88565 3.57095
# Velocity P-wave (km/s) = 5.37539 6.17037 5.78655
#
# Compressibility (1/GPa) = 0.03124479
#
# Stress axis : x y z
#
# Youngs Moduli (GPa) = 79.39600 79.39600 162.39280
#
# Poissons Ratio (x) = -0.11544 0.12225
# Poissons Ratio (y) = -0.11544 0.12225
# Poissons Ratio (z) = 0.05977 0.05977
#
# Static dielectric constant tensor:
#      x y z
#    x 1.781740 0.000000 0.000000 
#    y 0.000000 1.781740 0.000000 
#    z 0.000000 0.000000 1.718020 
# 
# From -- ./inp_files/542.got.cif
#   From: 2010.05.17/outbox.cif.g08.bks.cpg/sg118_1_cif.got.tgz:542.got - 2010.05.20 11:17:24.
