data_PCOD9558817
_publ_section_title
;
Structure prediction by ZEFSAII (Michael W. Deem and Ramdas Pophale) SiO2 
 PCOD9558817
Probable space group: P -4 N 2
;
_chemical_formula_sum "Si O2"
_cell_formula_units_Z 40
_cell_length_a 9.000407
_cell_length_b 9.000407
_cell_length_c 23.113130
_cell_angle_alpha 90.000000
_cell_angle_beta 90.000000
_cell_angle_gamma 90.000000
_cell_volume 1872.332861
_symmetry_space_group_name_H-M "P -4 N 2"
_symmetry_group_IT_number 118
_symmetry_cell_setting 'tetragonal'
loop_
_space_group_symop_operation_xyz
x,y,z
y,-x,-z
-x,-y,z
-y,x,-z
1/2+y,1/2+x,1/2-z
1/2-y,1/2-x,1/2-z
1/2-x,1/2+y,1/2+z
1/2+x,1/2-y,1/2+z
loop_
_atom_site_type_symbol
_atom_site_label
_atom_site_fract_x
_atom_site_fract_y
_atom_site_fract_z
Si Si1 0.745776 0.992059 0.252249
Si Si2 0.466893 0.667391 0.375666
Si Si3 0.315170 0.381530 0.874301
Si Si4 0.337938 0.988609 0.566968
Si Si5 0.205272 0.656780 0.949807
O O1 0.612069 0.112069 0.250000
O O2 0.821418 0.039126 0.312041
O O3 0.668486 0.831515 0.250000
O O4 0.834524 0.002390 0.192991
O O5 0.500000 0.500000 0.397723
O O6 0.307239 0.748695 0.378669
O O7 0.575348 0.779516 0.409664
O O8 0.463150 0.295223 0.891220
O O9 0.271840 0.509507 0.919571
O O10 0.343732 0.101210 0.512720
O O11 0.500000 0.000000 0.595057
O O12 0.287078 0.827180 0.545315
#
# Coordination Sequence:
#
# PCOD9558817 Si02
#       5
#     8   8   8   8   8
#     4   9  18  37  66  94 126 172 228 282 336 413
#     4  11  23  41  66  99 135 173 224 291 356 406
#     4  11  22  42  68  95 133 180 227 282 342 416
#     4  12  26  43  62  96 136 177 228 286 349 423
#     4  12  24  42  66  94 131 179 230 280 346 425
#
# _framework density 21.363724999999999
#
# number of rings (size 3 to 8) (size 9 to 14) (size 15 to 20)
#    0.000    1.000    4.000    3.600    0.000    1.600 
#    0.000    0.000    0.000    4.200    0.000    0.000 
#    0.000    0.000    0.000    0.000    0.000    0.000 
#
# Total GULP energy -223395.612031 kJ/mol
# GULP energy per Si atom -5584.890301 kJ/mol
# Density = 2.131510 g / cm^3
# Si number density = 21.363725 Si / 1000 Ang^3
#
#
#
# Elastic Constant Matrix: (Units=GPa)
#
#
# Indices 1 2 3 4 5 6 
#
# 1 76.4378 15.2319 9.9892 0.0000 0.0000 0.0000
# 2 15.2319 76.4386 9.9894 0.0000 0.0000 0.0000
# 3 9.9892 9.9894 102.1286 0.0000 0.0000 0.0000
# 4 0.0000 0.0000 0.0000 24.8743 0.0000 0.0000
# 5 0.0000 0.0000 0.0000 0.0000 24.8733 0.0000
# 6 0.0000 0.0000 0.0000 0.0000 0.0000 30.6628
#
#
#
# Elastic Compliance Matrix: (Units=1/GPa)
#
#
# Indices 1 2 3 4 5 6 
#
# 1 0.013742 -0.002596 -0.001090 0.000000 0.000000 0.000000
# 2 -0.002596 0.013742 -0.001090 0.000000 0.000000 0.000000
# 3 -0.001090 -0.001090 0.010005 0.000000 0.000000 0.000000
# 4 0.000000 0.000000 0.000000 0.040202 0.000000 0.000000
# 5 0.000000 0.000000 0.000000 0.000000 0.040204 0.000000
# 6 0.000000 0.000000 0.000000 0.000000 0.000000 0.032613
#
#
# Mechanical properties :
#
#
# Convention : Reuss Voigt Hill
#
# Bulk Modulus (GPa) = 35.79545 36.15844 35.97695
# Shear Modulus (GPa) = 29.52066 30.73506 30.12786
#
# Velocity S-wave (km/s) = 3.72131 3.79708 3.75938
# Velocity P-wave (km/s) = 5.93766 6.01545 5.97668
#
# Compressibility (1/GPa) = 0.02793651
#
# Stress axis : x y z
#
# Youngs Moduli (GPa) = 72.76804 72.76873 99.95149
#
# Poissons Ratio (x) = 0.18890 0.10897
# Poissons Ratio (y) = 0.18890 0.10897
# Poissons Ratio (z) = 0.07933 0.07934
#
# Static dielectric constant tensor:
#      x y z
#    x 1.802390 0.000000 0.000000 
#    y 0.000000 1.802380 0.000000 
#    z 0.000000 0.000000 1.754600 
# 
# From -- ./inp_files/5999.got.cif
#   From: 2010.05.17/outbox.cif.g08.bks.cpg/sg118_3_cif.got.tgz:5999.got - 2010.05.20 11:17:24.
