data_PCOD9558117
_publ_section_title
;
Structure prediction by ZEFSAII (Michael W. Deem and Ramdas Pophale) SiO2 
 PCOD9558117
Probable space group: P -4 B 2
;
_chemical_formula_sum "Si O2"
_cell_formula_units_Z 42
_cell_length_a 16.171182
_cell_length_b 16.171182
_cell_length_c 7.977302
_cell_angle_alpha 90.000000
_cell_angle_beta 90.000000
_cell_angle_gamma 90.000000
_cell_volume 2086.121329
_symmetry_space_group_name_H-M "P -4 B 2"
_symmetry_group_IT_number 117
_symmetry_cell_setting 'tetragonal'
loop_
_space_group_symop_operation_xyz
x,y,z
y,-x,-z
-x,-y,z
-y,x,-z
1/2+y,1/2+x,-z
1/2-y,1/2-x,-z
1/2-x,1/2+y,z
1/2+x,1/2-y,z
loop_
_atom_site_type_symbol
_atom_site_label
_atom_site_fract_x
_atom_site_fract_y
_atom_site_fract_z
Si Si1 0.864468 0.944287 0.753587
Si Si2 0.177850 0.723069 0.319308
Si Si3 0.642683 0.966363 0.252489
Si Si4 0.217365 0.282636 0.000000
Si Si5 0.793206 0.043939 0.070889
Si Si6 0.000000 0.500000 0.500000
Si Si7 0.500000 0.000000 0.000000
Si Si8 0.000000 0.000000 0.500000
O O1 0.787465 0.897309 0.669965
O O2 0.922589 0.872501 0.829527
O O3 0.919676 0.994906 0.621197
O O4 0.827049 0.992971 0.912475
O O5 0.220934 0.720934 0.500000
O O6 0.145378 0.631953 0.275736
O O7 0.237762 0.748284 0.166743
O O8 0.588708 0.000134 0.406653
O O9 0.733914 0.995822 0.201003
O O10 0.583439 0.995828 0.104034
O O11 0.121307 0.259361 0.999403
#
# Coordination Sequence:
#
# PCOD9558117 Si02
#       8
#     8   8   8   4   8   2   2   2
#     4  11  26  43  69 100 132 183 225 289 350 417
#     4  11  24  43  69  96 133 184 228 281 341 430
#     4  11  21  40  64  96 134 177 222 279 346 410
#     4  10  24  44  68 102 130 180 232 286 350 408
#     4  11  23  45  70  95 133 182 230 286 345 432
#     4  10  24  38  60 106 140 170 224 286 356 402
#     4  10  20  34  64  94 132 174 220 280 334 414
#     4  12  28  42  68 108 140 178 224 300 360 398
#
# _framework density 20.133058999999999
#
# number of rings (size 3 to 8) (size 9 to 14) (size 15 to 20)
#    0.000    1.143    0.952    5.714    5.333    1.524 
#    6.857    0.000    0.000    0.000    0.000    0.000 
#    0.000    0.000    0.000    0.000    0.000    0.000 
#
# Total GULP energy -234482.043629 kJ/mol
# GULP energy per Si atom -5582.905801 kJ/mol
# Density = 2.008723 g / cm^3
# Si number density = 20.133059 Si / 1000 Ang^3
#
#
#
# Elastic Constant Matrix: (Units=GPa)
#
#
# Indices 1 2 3 4 5 6 
#
# 1 108.4389 51.6345 55.3152 0.0000 0.0000 0.0000
# 2 51.6345 108.4395 55.3150 0.0000 0.0000 0.0000
# 3 55.3152 55.3150 115.5984 0.0000 0.0000 0.0000
# 4 0.0000 0.0000 0.0000 31.5906 0.0000 0.0000
# 5 0.0000 0.0000 0.0000 0.0000 31.5909 0.0000
# 6 0.0000 0.0000 0.0000 0.0000 0.0000 32.9349
#
#
#
# Elastic Compliance Matrix: (Units=1/GPa)
#
#
# Indices 1 2 3 4 5 6 
#
# 1 0.013469 -0.004135 -0.004466 0.000000 0.000000 0.000000
# 2 -0.004135 0.013469 -0.004466 0.000000 0.000000 0.000000
# 3 -0.004466 -0.004466 0.012925 0.000000 0.000000 0.000000
# 4 0.000000 0.000000 0.000000 0.031655 0.000000 0.000000
# 5 0.000000 0.000000 0.000000 0.000000 0.031655 0.000000
# 6 0.000000 0.000000 0.000000 0.000000 0.000000 0.030363
#
#
# Mechanical properties :
#
#
# Convention : Reuss Voigt Hill
#
# Bulk Modulus (GPa) = 72.84713 73.00072 72.92392
# Shear Modulus (GPa) = 30.44187 30.57073 30.50630
#
# Velocity S-wave (km/s) = 3.89271 3.90094 3.89682
# Velocity P-wave (km/s) = 7.51436 7.52513 7.51975
#
# Compressibility (1/GPa) = 0.01372738
#
# Stress axis : x y z
#
# Youngs Moduli (GPa) = 74.24385 74.24457 77.36900
#
# Poissons Ratio (x) = 0.30701 0.34556
# Poissons Ratio (y) = 0.30701 0.34556
# Poissons Ratio (z) = 0.33161 0.33160
#
# Static dielectric constant tensor:
#      x y z
#    x 1.659710 0.000000 0.000000 
#    y 0.000000 1.659710 0.000000 
#    z 0.000000 0.000000 1.746240 
# 
# From -- ./inp_files/1834.got.cif
#   From: 2010.05.17/outbox.cif.g08.bks.cpg/sg117_1_cif.got.tgz:1834.got - 2010.05.20 11:15:09.
