data_PCOD9558619
_publ_section_title
;
Structure prediction by ZEFSAII (Michael W. Deem and Ramdas Pophale) SiO2 
 PCOD9558619
Probable space group: P -4 N 2
;
_chemical_formula_sum "Si O2"
_cell_formula_units_Z 32
_cell_length_a 8.087535
_cell_length_b 8.087535
_cell_length_c 21.958284
_cell_angle_alpha 90.000000
_cell_angle_beta 90.000000
_cell_angle_gamma 90.000000
_cell_volume 1436.252323
_symmetry_space_group_name_H-M "P -4 N 2"
_symmetry_group_IT_number 118
_symmetry_cell_setting 'tetragonal'
loop_
_space_group_symop_operation_xyz
x,y,z
y,-x,-z
-x,-y,z
-y,x,-z
1/2+y,1/2+x,1/2-z
1/2-y,1/2-x,1/2-z
1/2-x,1/2+y,1/2+z
1/2+x,1/2-y,1/2+z
loop_
_atom_site_type_symbol
_atom_site_label
_atom_site_fract_x
_atom_site_fract_y
_atom_site_fract_z
Si Si1 0.348805 0.192041 0.679238
Si Si2 0.259488 0.907518 0.007452
Si Si3 0.874007 0.701504 0.382716
Si Si4 0.510444 0.826821 0.358706
O O1 0.350960 0.149041 0.750000
O O2 0.526116 0.166596 0.648783
O O3 0.299109 0.383851 0.672545
O O4 0.240479 0.050284 0.644091
O O5 0.373751 0.828844 0.955458
O O6 0.336042 0.930746 0.073497
O O7 0.090466 0.801444 0.012981
O O8 0.704568 0.795168 0.367151
O O9 0.500000 0.000000 0.325599
#
# Coordination Sequence:
#
# PCOD9558619 Si02
#       4
#     8   8   8   8
#     4  11  24  45  66  92 127 173 226 267 319 390
#     4   9  17  34  66  95 128 161 210 267 324 386
#     4  10  21  41  69  95 121 172 218 265 322 389
#     4  11  24  40  62 102 132 169 211 270 333 392
#
# _framework density 22.280208999999999
#
# number of rings (size 3 to 8) (size 9 to 14) (size 15 to 20)
#    0.000    1.750    2.500    2.250    3.500    1.500 
#   13.500    0.000    0.000    3.000    0.000    0.000 
#    0.000    0.000    0.000    0.000    0.000    0.000 
#
# Total GULP energy -178513.182373 kJ/mol
# GULP energy per Si atom -5578.536949 kJ/mol
# Density = 2.222950 g / cm^3
# Si number density = 22.280209 Si / 1000 Ang^3
#
#
#
# Elastic Constant Matrix: (Units=GPa)
#
#
# Indices 1 2 3 4 5 6 
#
# 1 51.1008 5.8835 -7.5306 0.0000 0.0000 0.0000
# 2 5.8835 51.1012 -7.5305 0.0000 0.0000 0.0000
# 3 -7.5306 -7.5305 85.7697 0.0000 0.0000 0.0000
# 4 0.0000 0.0000 0.0000 105.9772 0.0000 0.0000
# 5 0.0000 0.0000 0.0000 0.0000 105.9749 0.0000
# 6 0.0000 0.0000 0.0000 0.0000 0.0000 11.2612
#
#
#
# Elastic Compliance Matrix: (Units=1/GPa)
#
#
# Indices 1 2 3 4 5 6 
#
# 1 0.020040 -0.002075 0.001577 0.000000 0.000000 0.000000
# 2 -0.002075 0.020040 0.001577 0.000000 0.000000 0.000000
# 3 0.001577 0.001577 0.011936 0.000000 0.000000 0.000000
# 4 0.000000 0.000000 0.000000 0.009436 0.000000 0.000000
# 5 0.000000 0.000000 0.000000 0.000000 0.009436 0.000000
# 6 0.000000 0.000000 0.000000 0.000000 0.000000 0.088801
#
#
# Mechanical properties :
#
#
# Convention : Reuss Voigt Hill
#
# Bulk Modulus (GPa) = 18.45814 18.84628 18.65221
# Shear Modulus (GPa) = 28.47557 57.78594 43.13075
#
# Velocity S-wave (km/s) = 3.57888 5.09826 4.40458
# Velocity P-wave (km/s) = 5.03790 6.56761 5.85294
#
# Compressibility (1/GPa) = 0.05417664
#
# Stress axis : x y z
#
# Youngs Moduli (GPa) = 49.89896 49.89935 83.77941
#
# Poissons Ratio (x) = 0.10354 -0.13215
# Poissons Ratio (y) = 0.10353 -0.13215
# Poissons Ratio (z) = -0.07871 -0.07871
#
# Static dielectric constant tensor:
#      x y z
#    x 1.862540 0.000000 0.000000 
#    y 0.000000 1.862520 0.000000 
#    z 0.000000 0.000000 1.809560 
# 
# From -- ./inp_files/5285.got.cif
#   From: 2010.05.17/outbox.cif.g08.bks.cpg/sg118_3_cif.got.tgz:5285.got - 2010.05.20 11:17:24.
