data_PCOD9558588
_publ_section_title
;
Structure prediction by ZEFSAII (Michael W. Deem and Ramdas Pophale) SiO2 
 PCOD9558588
Probable space group: P -4 N 2
;
_chemical_formula_sum "Si O2"
_cell_formula_units_Z 32
_cell_length_a 14.195717
_cell_length_b 14.195717
_cell_length_c 6.955326
_cell_angle_alpha 90.000000
_cell_angle_beta 90.000000
_cell_angle_gamma 90.000000
_cell_volume 1401.626036
_symmetry_space_group_name_H-M "P -4 N 2"
_symmetry_group_IT_number 118
_symmetry_cell_setting 'tetragonal'
loop_
_space_group_symop_operation_xyz
x,y,z
y,-x,-z
-x,-y,z
-y,x,-z
1/2+y,1/2+x,1/2-z
1/2-y,1/2-x,1/2-z
1/2-x,1/2+y,1/2+z
1/2+x,1/2-y,1/2+z
loop_
_atom_site_type_symbol
_atom_site_label
_atom_site_fract_x
_atom_site_fract_y
_atom_site_fract_z
Si Si1 0.619884 0.582574 0.051967
Si Si2 0.603205 0.236736 0.615190
Si Si3 0.546754 0.905220 0.470010
Si Si4 0.722226 0.794512 0.483156
O O1 0.681487 0.563975 0.244238
O O2 0.670021 0.674281 0.967223
O O3 0.614176 0.489026 0.922512
O O4 0.658644 0.158644 0.750000
O O5 0.525435 0.180431 0.497927
O O6 0.683344 0.281642 0.477933
O O7 0.569211 0.930790 0.250000
O O8 0.645086 0.867816 0.552712
O O9 0.500000 0.000000 0.549724
O O10 0.707664 0.792336 0.250000
#
# Coordination Sequence:
#
# PCOD9558588 Si02
#       4
#     8   8   8   8
#     4   9  18  35  61  88 127 179 230 277 346 432
#     4   9  20  39  61  90 136 176 227 292 360 423
#     4  10  21  38  65  98 139 184 241 297 355 430
#     4   8  18  36  59  88 129 174 224 289 352 411
#
# _framework density 22.830624
#
# number of rings (size 3 to 8) (size 9 to 14) (size 15 to 20)
#    0.000    3.500    0.000    0.000    7.000    0.500 
#    0.000   15.000    0.000    0.000    0.000    0.000 
#    0.000    0.000    0.000    0.000    0.000    0.000 
#
# Total GULP energy -178255.748788 kJ/mol
# GULP energy per Si atom -5570.492150 kJ/mol
# Density = 2.277866 g / cm^3
# Si number density = 22.830624 Si / 1000 Ang^3
#
#
#
# Elastic Constant Matrix: (Units=GPa)
#
#
# Indices 1 2 3 4 5 6 
#
# 1 144.4675 53.6136 43.9465 0.0000 0.0000 0.0000
# 2 53.6136 144.4644 43.9460 0.0000 0.0000 0.0000
# 3 43.9465 43.9460 119.3815 0.0000 0.0000 0.0000
# 4 0.0000 0.0000 0.0000 408.1316 0.0000 0.0000
# 5 0.0000 0.0000 0.0000 0.0000 408.0227 0.0000
# 6 0.0000 0.0000 0.0000 0.0000 0.0000 57.9505
#
#
#
# Elastic Compliance Matrix: (Units=1/GPa)
#
#
# Indices 1 2 3 4 5 6 
#
# 1 0.008520 -0.002486 -0.002221 0.000000 0.000000 0.000000
# 2 -0.002486 0.008521 -0.002221 0.000000 0.000000 0.000000
# 3 -0.002221 -0.002221 0.010012 0.000000 0.000000 0.000000
# 4 0.000000 0.000000 0.000000 0.002450 0.000000 0.000000
# 5 0.000000 0.000000 0.000000 0.000000 0.002451 0.000000
# 6 0.000000 0.000000 0.000000 0.000000 0.000000 0.017256
#
#
# Mechanical properties :
#
#
# Convention : Reuss Voigt Hill
#
# Bulk Modulus (GPa) = 75.78595 76.81399 76.29997
# Shear Modulus (GPa) = 74.11128 192.60811 133.35970
#
# Velocity S-wave (km/s) = 5.70367 9.19495 7.65111
# Velocity P-wave (km/s) = 8.75458 12.10155 10.56149
#
# Compressibility (1/GPa) = 0.01319506
#
# Stress axis : x y z
#
# Youngs Moduli (GPa) = 117.36549 117.36298 99.88150
#
# Poissons Ratio (x) = 0.29181 0.22186
# Poissons Ratio (y) = 0.29182 0.22186
# Poissons Ratio (z) = 0.26070 0.26069
#
# Static dielectric constant tensor:
#      x y z
#    x 1.879660 0.000000 0.000000 
#    y 0.000000 1.879650 0.000000 
#    z 0.000000 0.000000 1.878220 
# 
# From -- ./inp_files/1607.got.cif
#   From: 2010.05.17/outbox.cif.g08.bks.cpg/sg118_1_cif.got.tgz:1607.got - 2010.05.20 11:17:24.
