data_PCOD9558811
_publ_section_title
;
Structure prediction by ZEFSAII (Michael W. Deem and Ramdas Pophale) SiO2 
 PCOD9558811
Probable space group: P -4 N 2
;
_chemical_formula_sum "Si O2"
_cell_formula_units_Z 48
_cell_length_a 10.939745
_cell_length_b 10.939745
_cell_length_c 19.581982
_cell_angle_alpha 90.000000
_cell_angle_beta 90.000000
_cell_angle_gamma 90.000000
_cell_volume 2343.532846
_symmetry_space_group_name_H-M "P -4 N 2"
_symmetry_group_IT_number 118
_symmetry_cell_setting 'tetragonal'
loop_
_space_group_symop_operation_xyz
x,y,z
y,-x,-z
-x,-y,z
-y,x,-z
1/2+y,1/2+x,1/2-z
1/2-y,1/2-x,1/2-z
1/2-x,1/2+y,1/2+z
1/2+x,1/2-y,1/2+z
loop_
_atom_site_type_symbol
_atom_site_label
_atom_site_fract_x
_atom_site_fract_y
_atom_site_fract_z
Si Si1 0.863022 0.772117 0.417045
Si Si2 0.235439 0.974545 0.938501
Si Si3 0.977079 0.194063 0.903633
Si Si4 0.890753 0.317276 0.673457
Si Si5 0.743972 0.852039 0.559864
Si Si6 0.681171 0.177545 0.326520
O O1 0.822625 0.630943 0.410101
O O2 0.818396 0.857801 0.354448
O O3 0.795774 0.816973 0.485941
O O4 0.005575 0.763673 0.430114
O O5 0.299572 0.105915 0.930859
O O6 0.107093 0.927313 0.905526
O O7 0.211968 0.968423 0.020430
O O8 0.893802 0.309778 0.880855
O O9 0.086003 0.218741 0.851270
O O10 0.841169 0.341169 0.750000
O O11 0.033339 0.355395 0.673973
O O12 0.820138 0.786928 0.618578
O O13 0.712845 0.212845 0.250000
#
# Coordination Sequence:
#
# PCOD9558811 Si02
#       6
#     8   8   8   8   8   8
#     4  11  25  43  71 100 135 185 236 296 356 431
#     4  11  22  44  71 101 136 182 230 295 356 427
#     4  11  22  40  70 106 138 174 236 295 354 429
#     4  11  23  43  70 101 135 181 239 294 355 430
#     4  12  25  44  67 101 141 181 239 290 365 426
#     4  12  25  42  67 104 139 182 231 297 367 434
#
# _framework density 20.481895999999999
#
# number of rings (size 3 to 8) (size 9 to 14) (size 15 to 20)
#    0.000    0.667    6.667    2.000    0.000    6.000 
#    6.000    1.667    0.000    0.000    0.000    0.000 
#    0.000    0.000    0.000    0.000    0.000    0.000 
#
# Total GULP energy -267582.002501 kJ/mol
# GULP energy per Si atom -5574.625052 kJ/mol
# Density = 2.043528 g / cm^3
# Si number density = 20.481896 Si / 1000 Ang^3
#
#
#
# Elastic Constant Matrix: (Units=GPa)
#
#
# Indices 1 2 3 4 5 6 
#
# 1 92.0560 29.2972 49.6170 0.0000 0.0000 0.0000
# 2 29.2972 92.0560 49.6170 0.0000 0.0000 0.0000
# 3 49.6170 49.6170 128.5561 0.0000 0.0000 0.0000
# 4 0.0000 0.0000 0.0000 18.1862 0.0000 0.0000
# 5 0.0000 0.0000 0.0000 0.0000 18.1862 0.0000
# 6 0.0000 0.0000 0.0000 0.0000 0.0000 6.2941
#
#
#
# Elastic Compliance Matrix: (Units=1/GPa)
#
#
# Indices 1 2 3 4 5 6 
#
# 1 0.013987 -0.001947 -0.004647 0.000000 0.000000 0.000000
# 2 -0.001947 0.013987 -0.004647 0.000000 0.000000 0.000000
# 3 -0.004647 -0.004647 0.011366 0.000000 0.000000 0.000000
# 4 0.000000 0.000000 0.000000 0.054987 0.000000 0.000000
# 5 0.000000 0.000000 0.000000 0.000000 0.054987 0.000000
# 6 0.000000 0.000000 0.000000 0.000000 0.000000 0.158879
#
#
# Mechanical properties :
#
#
# Convention : Reuss Voigt Hill
#
# Bulk Modulus (GPa) = 59.31751 63.30337 61.31044
# Shear Modulus (GPa) = 14.86791 20.80909 17.83850
#
# Velocity S-wave (km/s) = 2.69719 3.19089 2.95437
# Velocity P-wave (km/s) = 6.22283 6.67457 6.45265
#
# Compressibility (1/GPa) = 0.01685843
#
# Stress axis : x y z
#
# Youngs Moduli (GPa) = 71.49374 71.49374 87.98288
#
# Poissons Ratio (x) = 0.13918 0.40886
# Poissons Ratio (y) = 0.13918 0.40886
# Poissons Ratio (z) = 0.33224 0.33224
#
# Static dielectric constant tensor:
#      x y z
#    x 1.833700 0.000000 0.000000 
#    y 0.000000 1.833700 0.000000 
#    z 0.000000 0.000000 1.681240 
# 
# From -- ./inp_files/4946.got.cif
#   From: 2010.05.17/outbox.cif.g08.bks.cpg/sg118_3_cif.got.tgz:4946.got - 2010.05.20 11:17:24.
