data_PCOD9558380
_publ_section_title
;
Structure prediction by ZEFSAII (Michael W. Deem and Ramdas Pophale) SiO2 
 PCOD9558380
Probable space group: P -4 N 2
;
_chemical_formula_sum "Si O2"
_cell_formula_units_Z 38
_cell_length_a 8.504276
_cell_length_b 8.504276
_cell_length_c 23.910756
_cell_angle_alpha 90.000000
_cell_angle_beta 90.000000
_cell_angle_gamma 90.000000
_cell_volume 1729.290679
_symmetry_space_group_name_H-M "P -4 N 2"
_symmetry_group_IT_number 118
_symmetry_cell_setting 'tetragonal'
loop_
_space_group_symop_operation_xyz
x,y,z
y,-x,-z
-x,-y,z
-y,x,-z
1/2+y,1/2+x,1/2-z
1/2-y,1/2-x,1/2-z
1/2-x,1/2+y,1/2+z
1/2+x,1/2-y,1/2+z
loop_
_atom_site_type_symbol
_atom_site_label
_atom_site_fract_x
_atom_site_fract_y
_atom_site_fract_z
Si Si1 0.792389 0.363037 0.162470
Si Si2 0.500000 0.000000 0.750000
Si Si3 0.500000 0.000000 0.387644
Si Si4 0.060673 0.252736 0.514132
Si Si5 0.737120 0.032751 0.207428
Si Si6 0.000000 0.500000 0.431642
Si Si7 0.500000 0.500000 0.210149
O O1 0.823740 0.186905 0.182368
O O2 0.610816 0.403756 0.167606
O O3 0.855975 0.485183 0.208660
O O4 0.885110 0.399852 0.107089
O O5 0.349652 0.957424 0.427339
O O6 0.460078 0.144142 0.345067
O O7 0.104778 0.389980 0.470719
O O8 0.180514 0.108091 0.505721
O O9 0.612864 0.112864 0.250000
O O10 0.862383 0.943594 0.246377
#
# Coordination Sequence:
#
# PCOD9558380 Si02
#       7
#     8   2   4   8   8   4   4
#     4  10  20  37  59  90 128 160 204 247 292 358
#     4  10  16  38  56  82 124 164 198 248 274 350
#     4  11  23  41  65  87 125 165 197 258 318 360
#     4  10  23  44  66  91 116 153 211 265 316 375
#     4  10  21  39  57  91 131 164 203 242 295 372
#     4  10  22  37  65  91 119 160 204 256 314 358
#     4  10  20  38  58  90 134 166 204 240 288 364
#
# _framework density 21.974329000000001
#
# number of rings (size 3 to 8) (size 9 to 14) (size 15 to 20)
#    0.000    1.895    3.158    1.579    0.000    6.737 
#    7.579    0.000    0.000    5.684    0.000    0.000 
#    0.000    0.000    0.000    0.000    0.000    0.000 
#
# Total GULP energy -211618.293334 kJ/mol
# GULP energy per Si atom -5568.902456 kJ/mol
# Density = 2.192431 g / cm^3
# Si number density = 21.974329 Si / 1000 Ang^3
#
#
#
# Elastic Constant Matrix: (Units=GPa)
#
#
# Indices 1 2 3 4 5 6 
#
# 1 56.3688 29.3854 47.7821 0.0000 0.0000 0.0000
# 2 29.3854 56.3688 47.7821 0.0000 0.0000 0.0000
# 3 47.7821 47.7821 149.5502 0.0000 0.0000 0.0000
# 4 0.0000 0.0000 0.0000 12.4147 0.0000 0.0000
# 5 0.0000 0.0000 0.0000 0.0000 12.4147 0.0000
# 6 0.0000 0.0000 0.0000 0.0000 0.0000 24.8785
#
#
#
# Elastic Compliance Matrix: (Units=1/GPa)
#
#
# Indices 1 2 3 4 5 6 
#
# 1 0.027584 -0.009475 -0.005786 0.000000 0.000000 0.000000
# 2 -0.009475 0.027584 -0.005786 0.000000 0.000000 0.000000
# 3 -0.005786 -0.005786 0.010384 0.000000 0.000000 0.000000
# 4 0.000000 0.000000 0.000000 0.080550 0.000000 0.000000
# 5 0.000000 0.000000 0.000000 0.000000 0.080550 0.000000
# 6 0.000000 0.000000 0.000000 0.000000 0.000000 0.040195
#
#
# Mechanical properties :
#
#
# Convention : Reuss Voigt Hill
#
# Bulk Modulus (GPa) = 42.62874 56.90968 49.76921
# Shear Modulus (GPa) = 15.78476 19.09747 17.44111
#
# Velocity S-wave (km/s) = 2.68307 2.95122 2.82033
# Velocity P-wave (km/s) = 5.38887 6.12922 5.77093
#
# Compressibility (1/GPa) = 0.02345835
#
# Stress axis : x y z
#
# Youngs Moduli (GPa) = 36.25235 36.25235 96.30197
#
# Poissons Ratio (x) = 0.34350 0.55720
# Poissons Ratio (y) = 0.34350 0.55720
# Poissons Ratio (z) = 0.20975 0.20975
#
# Static dielectric constant tensor:
#      x y z
#    x 2.260940 0.000000 0.000000 
#    y 0.000000 2.260940 0.000000 
#    z 0.000000 0.000000 1.843430 
# 
# From -- ./inp_files/6121.got.cif
#   From: 2010.05.17/outbox.cif.g08.bks.cpg/sg118_4_cif.got.tgz:6121.got - 2010.05.20 11:17:24.
