data_PCOD9558121
_publ_section_title
;
Structure prediction by ZEFSAII (Michael W. Deem and Ramdas Pophale) SiO2 
 PCOD9558121
Probable space group: P -4 B 2
;
_chemical_formula_sum "Si O2"
_cell_formula_units_Z 54
_cell_length_a 11.672654
_cell_length_b 11.672654
_cell_length_c 18.622027
_cell_angle_alpha 90.000000
_cell_angle_beta 90.000000
_cell_angle_gamma 90.000000
_cell_volume 2537.267034
_symmetry_space_group_name_H-M "P -4 B 2"
_symmetry_group_IT_number 117
_symmetry_cell_setting 'tetragonal'
loop_
_space_group_symop_operation_xyz
x,y,z
y,-x,-z
-x,-y,z
-y,x,-z
1/2+y,1/2+x,-z
1/2-y,1/2-x,-z
1/2-x,1/2+y,z
1/2+x,1/2-y,z
loop_
_atom_site_type_symbol
_atom_site_label
_atom_site_fract_x
_atom_site_fract_y
_atom_site_fract_z
Si Si1 0.311621 0.456710 0.992555
Si Si2 0.827443 0.651487 0.113976
Si Si3 0.000000 0.000000 0.252451
Si Si4 0.713269 0.374474 0.797135
Si Si5 0.386503 0.951908 0.746308
Si Si6 0.798041 0.731310 0.651574
Si Si7 0.321066 0.547524 0.380054
Si Si8 0.000000 0.000000 0.500000
O O1 0.220163 0.437860 0.056337
O O2 0.368078 0.582298 0.995179
O O3 0.238671 0.417807 0.922407
O O4 0.717072 0.722389 0.140439
O O5 0.865227 0.590568 0.187959
O O6 0.954476 0.101217 0.201706
O O7 0.102337 0.040489 0.306401
O O8 0.824395 0.448547 0.788142
O O9 0.702436 0.312227 0.720620
O O10 0.308688 0.895467 0.685573
O O11 0.500000 0.000000 0.711645
O O12 0.670516 0.743843 0.618615
O O13 0.922790 0.757050 0.615433
O O14 0.405527 0.551428 0.447420
#
# Coordination Sequence:
#
# PCOD9558121 Si02
#       8
#     8   8   4   8   8   8   8   2
#     4  10  22  42  58  74 108 157 202 256 305 375
#     4  10  23  37  57  87 111 149 203 250 315 380
#     4   9  18  35  60  86 125 163 204 242 326 391
#     4  10  20  35  60  91 121 159 198 256 315 403
#     4  11  22  36  58  96 128 157 193 262 334 397
#     4  10  21  38  65  95 136 166 215 268 336 387
#     4  10  20  40  62  96 129 179 218 273 319 395
#     4  10  24  40  68  88 132 178 240 258 320 402
#
# _framework density 21.282741999999999
#
# number of rings (size 3 to 8) (size 9 to 14) (size 15 to 20)
#    0.000    1.926    1.481    1.778    2.074    2.963 
#    0.000    0.741    0.000    0.000    0.000    0.000 
#    0.000    0.000    0.000    0.000    0.000    0.000 
#
# Total GULP energy -300917.073098 kJ/mol
# GULP energy per Si atom -5572.538391 kJ/mol
# Density = 2.123430 g / cm^3
# Si number density = 21.282742 Si / 1000 Ang^3
#
#
#
# Elastic Constant Matrix: (Units=GPa)
#
#
# Indices 1 2 3 4 5 6 
#
# 1 71.3357 15.7416 2.9369 0.0000 0.0000 0.0000
# 2 15.7416 71.3357 2.9369 0.0000 0.0000 0.0000
# 3 2.9369 2.9369 38.7416 0.0000 0.0000 0.0000
# 4 0.0000 0.0000 0.0000 5.5115 0.0000 0.0000
# 5 0.0000 0.0000 0.0000 0.0000 5.5115 0.0000
# 6 0.0000 0.0000 0.0000 0.0000 0.0000 34.7118
#
#
#
# Elastic Compliance Matrix: (Units=1/GPa)
#
#
# Indices 1 2 3 4 5 6 
#
# 1 0.014765 -0.003222 -0.000875 0.000000 0.000000 0.000000
# 2 -0.003222 0.014765 -0.000875 0.000000 0.000000 0.000000
# 3 -0.000875 -0.000875 0.025945 0.000000 0.000000 0.000000
# 4 0.000000 0.000000 0.000000 0.181438 0.000000 0.000000
# 5 0.000000 0.000000 0.000000 0.000000 0.181438 0.000000
# 6 0.000000 0.000000 0.000000 0.000000 0.000000 0.028809
#
#
# Mechanical properties :
#
#
# Convention : Reuss Voigt Hill
#
# Bulk Modulus (GPa) = 21.96321 24.96042 23.46182
# Shear Modulus (GPa) = 10.58692 19.80015 15.19353
#
# Velocity S-wave (km/s) = 2.23276 3.05345 2.67477
# Velocity P-wave (km/s) = 4.12178 4.91782 4.53729
#
# Compressibility (1/GPa) = 0.04553068
#
# Stress axis : x y z
#
# Youngs Moduli (GPa) = 67.72634 67.72634 38.54348
#
# Poissons Ratio (x) = 0.21823 0.03373
# Poissons Ratio (y) = 0.21823 0.03373
# Poissons Ratio (z) = 0.05926 0.05926
#
# Static dielectric constant tensor:
#      x y z
#    x 1.852770 0.000000 0.000000 
#    y 0.000000 1.852770 0.000000 
#    z 0.000000 0.000000 1.755920 
# 
# From -- ./inp_files/3489.got.cif
#   From: 2010.05.17/outbox.cif.g08.bks.cpg/sg117_2_cif.got.tgz:3489.got - 2010.05.20 11:15:09.
