data_PCOD9558400
_publ_section_title
;
Structure prediction by ZEFSAII (Michael W. Deem and Ramdas Pophale) SiO2 
 PCOD9558400
Probable space group: P -4 N 2
;
_chemical_formula_sum "Si O2"
_cell_formula_units_Z 56
_cell_length_a 11.248031
_cell_length_b 11.248031
_cell_length_c 25.443552
_cell_angle_alpha 90.000000
_cell_angle_beta 90.000000
_cell_angle_gamma 90.000000
_cell_volume 3219.072436
_symmetry_space_group_name_H-M "P -4 N 2"
_symmetry_group_IT_number 118
_symmetry_cell_setting 'tetragonal'
loop_
_space_group_symop_operation_xyz
x,y,z
y,-x,-z
-x,-y,z
-y,x,-z
1/2+y,1/2+x,1/2-z
1/2-y,1/2-x,1/2-z
1/2-x,1/2+y,1/2+z
1/2+x,1/2-y,1/2+z
loop_
_atom_site_type_symbol
_atom_site_label
_atom_site_fract_x
_atom_site_fract_y
_atom_site_fract_z
Si Si1 0.749480 0.452145 0.639825
Si Si2 0.926587 0.159430 0.974593
Si Si3 0.900528 0.224606 0.643068
Si Si4 0.973478 0.861149 0.431147
Si Si5 0.701212 0.005010 0.250510
Si Si6 0.071048 0.393106 0.578987
Si Si7 0.718218 0.294424 0.019191
O O1 0.670479 0.458931 0.587085
O O2 0.790858 0.315864 0.645961
O O3 0.718047 0.494053 0.698303
O O4 0.865015 0.533511 0.625703
O O5 0.844112 0.268784 0.992267
O O6 0.039941 0.146630 0.012488
O O7 0.857812 0.096471 0.623845
O O8 0.975688 0.227484 0.696561
O O9 0.985124 0.289383 0.599882
O O10 0.877878 0.821442 0.474271
O O11 0.094123 0.788478 0.441094
O O12 0.000000 0.000000 0.439396
O O13 0.628623 0.128623 0.250000
O O14 0.598164 0.901837 0.250000
O O15 0.171735 0.324543 0.547338
O O16 0.000000 0.500000 0.550434
#
# Coordination Sequence:
#
# PCOD9558400 Si02
#       7
#     8   8   8   8   8   8   8
#     4  10  18  33  53  79 106 142 184 229 270 324
#     4  11  24  39  56  76 105 146 188 229 276 331
#     4  10  18  31  50  79 115 140 176 225 279 332
#     4  12  21  31  49  78 114 146 173 212 279 332
#     4   9  16  28  50  82 111 139 180 232 282 324
#     4  10  19  29  52  80 110 144 179 217 270 325
#     4  12  21  35  51  77 112 148 180 223 271 334
#
# _framework density 17.396315000000001
#
# number of rings (size 3 to 8) (size 9 to 14) (size 15 to 20)
#    0.000    1.429    7.143    0.000    2.000    0.000 
#    0.000    0.000    3.143    0.000    0.000    0.000 
#    0.000    3.429    0.000    0.000    0.000    0.286 
#
# Total GULP energy -311936.139576 kJ/mol
# GULP energy per Si atom -5570.288207 kJ/mol
# Density = 1.735672 g / cm^3
# Si number density = 17.396315 Si / 1000 Ang^3
#
#
#
# Elastic Constant Matrix: (Units=GPa)
#
#
# Indices 1 2 3 4 5 6 
#
# 1 55.5018 28.1415 32.2731 0.0000 0.0000 0.0000
# 2 28.1415 55.5019 32.2731 0.0000 0.0000 0.0000
# 3 32.2731 32.2731 111.1205 0.0000 0.0000 0.0000
# 4 0.0000 0.0000 0.0000 15.8976 0.0000 0.0000
# 5 0.0000 0.0000 0.0000 0.0000 15.8975 0.0000
# 6 0.0000 0.0000 0.0000 0.0000 0.0000 30.2894
#
#
#
# Elastic Compliance Matrix: (Units=1/GPa)
#
#
# Indices 1 2 3 4 5 6 
#
# 1 0.025979 -0.010570 -0.004475 0.000000 0.000000 0.000000
# 2 -0.010570 0.025979 -0.004475 0.000000 0.000000 0.000000
# 3 -0.004475 -0.004475 0.011599 0.000000 0.000000 0.000000
# 4 0.000000 0.000000 0.000000 0.062903 0.000000 0.000000
# 5 0.000000 0.000000 0.000000 0.000000 0.062903 0.000000
# 6 0.000000 0.000000 0.000000 0.000000 0.000000 0.033015
#
#
# Mechanical properties :
#
#
# Convention : Reuss Voigt Hill
#
# Bulk Modulus (GPa) = 40.79021 45.27772 43.03397
# Shear Modulus (GPa) = 18.54663 21.04600 19.79632
#
# Velocity S-wave (km/s) = 3.26870 3.48199 3.37703
# Velocity P-wave (km/s) = 6.14364 6.49995 6.32431
#
# Compressibility (1/GPa) = 0.02451568
#
# Stress axis : x y z
#
# Youngs Moduli (GPa) = 38.49239 38.49243 86.21586
#
# Poissons Ratio (x) = 0.40687 0.38584
# Poissons Ratio (y) = 0.40687 0.38584
# Poissons Ratio (z) = 0.17226 0.17227
#
# Static dielectric constant tensor:
#      x y z
#    x 1.623190 0.000000 0.000000 
#    y 0.000000 1.623190 0.000000 
#    z 0.000000 0.000000 1.638380 
# 
# From -- ./inp_files/6208.got.cif
#   From: 2010.05.17/outbox.cif.g08.bks.cpg/sg118_4_cif.got.tgz:6208.got - 2010.05.20 11:17:24.
