data_PCOD9558102
_publ_section_title
;
Structure prediction by ZEFSAII (Michael W. Deem and Ramdas Pophale) SiO2 
 PCOD9558102
Probable space group: P -4 B 2
;
_chemical_formula_sum "Si O2"
_cell_formula_units_Z 48
_cell_length_a 13.895910
_cell_length_b 13.895910
_cell_length_c 11.077817
_cell_angle_alpha 90.000000
_cell_angle_beta 90.000000
_cell_angle_gamma 90.000000
_cell_volume 2139.085638
_symmetry_space_group_name_H-M "P -4 B 2"
_symmetry_group_IT_number 117
_symmetry_cell_setting 'tetragonal'
loop_
_space_group_symop_operation_xyz
x,y,z
y,-x,-z
-x,-y,z
-y,x,-z
1/2+y,1/2+x,-z
1/2-y,1/2-x,-z
1/2-x,1/2+y,z
1/2+x,1/2-y,z
loop_
_atom_site_type_symbol
_atom_site_label
_atom_site_fract_x
_atom_site_fract_y
_atom_site_fract_z
Si Si1 0.739590 0.186424 0.870342
Si Si2 0.151469 0.978248 0.987710
Si Si3 0.723045 0.034301 0.552169
Si Si4 0.860919 0.214370 0.556409
Si Si5 0.785770 0.420424 0.183464
Si Si6 0.422066 0.882497 0.700024
O O1 0.809879 0.278873 0.859649
O O2 0.658208 0.181025 0.769440
O O3 0.690742 0.190742 0.000000
O O4 0.802128 0.087476 0.882299
O O5 0.227837 0.018047 0.084180
O O6 0.072840 0.908192 0.051456
O O7 0.785261 0.129666 0.566379
O O8 0.641368 0.027030 0.655101
O O9 0.665794 0.045871 0.425914
O O10 0.796714 0.947308 0.537774
O O11 0.806011 0.306011 0.500000
O O12 0.905704 0.230982 0.688612
O O13 0.879660 0.483775 0.215585
#
# Coordination Sequence:
#
# PCOD9558102 Si02
#       6
#     8   8   8   8   8   8
#     4  11  19  34  60  88 122 168 209 248 321 376
#     4   9  19  35  54  86 121 154 202 256 312 375
#     4  10  21  39  64  90 124 160 208 263 322 373
#     4  11  21  41  65  91 125 161 209 258 322 386
#     4  10  20  36  62  85 121 166 203 258 308 380
#     4  10  19  39  58  86 124 163 199 263 308 375
#
# _framework density 22.439495999999998
#
# number of rings (size 3 to 8) (size 9 to 14) (size 15 to 20)
#    0.000    1.833    5.000    0.000    0.000    0.333 
#    6.000   11.667    0.000    2.000    0.000    0.000 
#    0.000    0.000    0.000    0.000    0.000    0.000 
#
# Total GULP energy -267222.910374 kJ/mol
# GULP energy per Si atom -5567.143966 kJ/mol
# Density = 2.238842 g / cm^3
# Si number density = 22.439496 Si / 1000 Ang^3
#
#
#
# Elastic Constant Matrix: (Units=GPa)
#
#
# Indices 1 2 3 4 5 6 
#
# 1 19.8823 40.4295 15.4647 0.0000 0.0000 0.0000
# 2 40.4295 19.8823 15.4647 0.0000 0.0000 0.0000
# 3 15.4647 15.4647 57.0388 0.0000 0.0000 0.0000
# 4 0.0000 0.0000 0.0000 25.2447 0.0000 0.0000
# 5 0.0000 0.0000 0.0000 0.0000 25.2447 0.0000
# 6 0.0000 0.0000 0.0000 0.0000 0.0000 21.6691
#
#
#
# Elastic Compliance Matrix: (Units=1/GPa)
#
#
# Indices 1 2 3 4 5 6 
#
# 1 -0.014705 0.033963 -0.005221 0.000000 0.000000 0.000000
# 2 0.033963 -0.014705 -0.005221 0.000000 0.000000 0.000000
# 3 -0.005221 -0.005221 0.020363 0.000000 0.000000 0.000000
# 4 0.000000 0.000000 0.000000 0.039612 0.000000 0.000000
# 5 0.000000 0.000000 0.000000 0.000000 0.039612 0.000000
# 6 0.000000 0.000000 0.000000 0.000000 0.000000 0.046149
#
#
# Mechanical properties :
#
#
# Convention : Reuss Voigt Hill
#
# Bulk Modulus (GPa) = 26.31995 26.61347 26.46671
# Shear Modulus (GPa) = 61.01292 16.12800 38.57046
#
# Velocity S-wave (km/s) = 5.22006 2.68383 4.15042
# Velocity P-wave (km/s) = 6.93446 4.63570 5.89816
#
# Compressibility (1/GPa) = 0.03799400
#
# Stress axis : x y z
#
# Youngs Moduli (GPa) = -68.00354 -68.00354 49.10819
#
# Poissons Ratio (x) = 2.30962 0.25641
# Poissons Ratio (y) = 2.30962 0.25641
# Poissons Ratio (z) = -0.35507 -0.35507
#
# Static dielectric constant tensor:
#      x y z
#    x 1.884160 0.000000 0.000000 
#    y 0.000000 1.884160 0.000000 
#    z 0.000000 0.000000 1.855800 
# 
# From -- ./inp_files/2759.got.cif
#   From: 2010.05.17/outbox.cif.g08.bks.cpg/sg117_2_cif.got.tgz:2759.got - 2010.05.20 11:15:09.
