data_PCOD9558264
_publ_section_title
;
Structure prediction by ZEFSAII (Michael W. Deem and Ramdas Pophale) SiO2 
 PCOD9558264
Probable space group: P -4 B 2
;
_chemical_formula_sum "Si O2"
_cell_formula_units_Z 26
_cell_length_a 9.163555
_cell_length_b 9.163555
_cell_length_c 14.528869
_cell_angle_alpha 90.000000
_cell_angle_beta 90.000000
_cell_angle_gamma 90.000000
_cell_volume 1219.999885
_symmetry_space_group_name_H-M "P -4 B 2"
_symmetry_group_IT_number 117
_symmetry_cell_setting 'tetragonal'
loop_
_space_group_symop_operation_xyz
x,y,z
y,-x,-z
-x,-y,z
-y,x,-z
1/2+y,1/2+x,-z
1/2-y,1/2-x,-z
1/2-x,1/2+y,z
1/2+x,1/2-y,z
loop_
_atom_site_type_symbol
_atom_site_label
_atom_site_fract_x
_atom_site_fract_y
_atom_site_fract_z
Si Si1 0.432136 0.717906 0.462189
Si Si2 0.000000 0.000000 0.000000
Si Si3 0.612149 0.621910 0.175972
Si Si4 0.072308 0.348150 0.266085
O O1 0.588523 0.673422 0.502316
O O2 0.367948 0.867948 0.500000
O O3 0.430187 0.739316 0.352981
O O4 0.075153 0.115526 0.931105
O O5 0.500000 0.500000 0.215240
O O6 0.765625 0.627275 0.227276
O O7 0.529984 0.774505 0.189253
O O8 0.000000 0.500000 0.294560
#
# Coordination Sequence:
#
# PCOD9558264 Si02
#       4
#     8   2   8   8
#     4  11  28  45  70 106 146 193 247 305 357 442
#     4   8  24  48  76 104 158 184 248 308 400 440
#     4  10  24  47  74 106 149 194 246 321 376 475
#     4  12  26  45  76 108 146 203 253 310 391 445
#
# _framework density 21.311477
#
# number of rings (size 3 to 8) (size 9 to 14) (size 15 to 20)
#    0.923    0.308    0.000    3.692   17.231    1.231 
#    0.000    1.538    0.000    0.000    0.000    0.000 
#    0.000    0.000    0.000    0.000    0.000    0.000 
#
# Total GULP energy -145171.280424 kJ/mol
# GULP energy per Si atom -5583.510786 kJ/mol
# Density = 2.126297 g / cm^3
# Si number density = 21.311477 Si / 1000 Ang^3
#
#
#
# Elastic Constant Matrix: (Units=GPa)
#
#
# Indices 1 2 3 4 5 6 
#
# 1 123.6619 56.5279 57.9124 0.0000 0.0000 0.0000
# 2 56.5279 123.6619 57.9124 0.0000 0.0000 0.0000
# 3 57.9124 57.9124 136.5713 0.0000 0.0000 0.0000
# 4 0.0000 0.0000 0.0000 3.6542 0.0000 0.0000
# 5 0.0000 0.0000 0.0000 0.0000 3.6542 0.0000
# 6 0.0000 0.0000 0.0000 0.0000 0.0000 55.7425
#
#
#
# Elastic Compliance Matrix: (Units=1/GPa)
#
#
# Indices 1 2 3 4 5 6 
#
# 1 0.011262 -0.003633 -0.003235 0.000000 0.000000 0.000000
# 2 -0.003633 0.011262 -0.003235 0.000000 0.000000 0.000000
# 3 -0.003235 -0.003235 0.010066 0.000000 0.000000 0.000000
# 4 0.000000 0.000000 0.000000 0.273654 0.000000 0.000000
# 5 0.000000 0.000000 0.000000 0.000000 0.273654 0.000000
# 6 0.000000 0.000000 0.000000 0.000000 0.000000 0.017940
#
#
# Mechanical properties :
#
#
# Convention : Reuss Voigt Hill
#
# Bulk Modulus (GPa) = 80.75078 80.95559 80.85318
# Shear Modulus (GPa) = 8.03635 26.71302 17.37468
#
# Velocity S-wave (km/s) = 1.94399 3.54426 2.85840
# Velocity P-wave (km/s) = 6.55834 7.40394 6.99393
#
# Compressibility (1/GPa) = 0.01238378
#
# Stress axis : x y z
#
# Youngs Moduli (GPa) = 88.79095 88.79095 99.34562
#
# Poissons Ratio (x) = 0.32259 0.32140
# Poissons Ratio (y) = 0.32259 0.32140
# Poissons Ratio (z) = 0.28725 0.28725
#
# Static dielectric constant tensor:
#      x y z
#    x 1.913020 0.000000 0.000000 
#    y 0.000000 1.913020 0.000000 
#    z 0.000000 0.000000 1.814950 
# 
# From -- ./inp_files/3293.got.cif
#   From: 2010.05.17/outbox.cif.g08.bks.cpg/sg117_2_cif.got.tgz:3293.got - 2010.05.20 11:15:09.
