data_PCOD9558750
_publ_section_title
;
Structure prediction by ZEFSAII (Michael W. Deem and Ramdas Pophale) SiO2 
 PCOD9558750
Probable space group: P -4 N 2
;
_chemical_formula_sum "Si O2"
_cell_formula_units_Z 40
_cell_length_a 9.072813
_cell_length_b 9.072813
_cell_length_c 22.559892
_cell_angle_alpha 90.000000
_cell_angle_beta 90.000000
_cell_angle_gamma 90.000000
_cell_volume 1857.038620
_symmetry_space_group_name_H-M "P -4 N 2"
_symmetry_group_IT_number 118
_symmetry_cell_setting 'tetragonal'
loop_
_space_group_symop_operation_xyz
x,y,z
y,-x,-z
-x,-y,z
-y,x,-z
1/2+y,1/2+x,1/2-z
1/2-y,1/2-x,1/2-z
1/2-x,1/2+y,1/2+z
1/2+x,1/2-y,1/2+z
loop_
_atom_site_type_symbol
_atom_site_label
_atom_site_fract_x
_atom_site_fract_y
_atom_site_fract_z
Si Si1 0.709046 0.422051 0.771095
Si Si2 0.481319 0.330600 0.093686
Si Si3 0.420122 0.158705 0.477534
Si Si4 0.922315 0.215437 0.221044
Si Si5 0.197596 0.820381 0.090039
O O1 0.867308 0.367308 0.750000
O O2 0.684381 0.410742 0.841089
O O3 0.671672 0.588434 0.754079
O O4 0.589791 0.323377 0.736111
O O5 0.500000 0.500000 0.077601
O O6 0.380223 0.239082 0.049102
O O7 0.644132 0.260132 0.095986
O O8 0.516117 0.257472 0.432141
O O9 0.397362 0.243531 0.538692
O O10 0.500000 0.000000 0.485407
O O11 0.866727 0.366727 0.250000
O O12 0.885715 0.195684 0.152095
#
# Coordination Sequence:
#
# PCOD9558750 Si02
#       5
#     8   8   8   8   8
#     4  11  23  40  66 100 130 174 228 275 343 410
#     4  11  22  43  69  99 133 180 238 286 339 420
#     4  10  26  43  69 106 131 187 232 285 361 404
#     4  11  22  44  64  96 134 177 218 277 347 403
#     4  11  24  45  67  96 146 176 232 290 345 424
#
# _framework density 21.539671999999999
#
# number of rings (size 3 to 8) (size 9 to 14) (size 15 to 20)
#    0.000    1.200    4.000    1.200    5.600    6.000 
#    3.600    0.000    0.000    0.000    0.000    0.000 
#    0.000    0.000    0.000    0.000    0.000    0.000 
#
# Total GULP energy -223829.648192 kJ/mol
# GULP energy per Si atom -5595.741205 kJ/mol
# Density = 2.149065 g / cm^3
# Si number density = 21.539672 Si / 1000 Ang^3
#
#
#
# Elastic Constant Matrix: (Units=GPa)
#
#
# Indices 1 2 3 4 5 6 
#
# 1 24.3063 47.2147 11.8433 0.0000 0.0000 0.0000
# 2 47.2147 24.3063 11.8433 0.0000 0.0000 0.0000
# 3 11.8433 11.8433 97.5488 0.0000 0.0000 0.0000
# 4 0.0000 0.0000 0.0000 7.5729 0.0000 0.0000
# 5 0.0000 0.0000 0.0000 0.0000 7.5729 0.0000
# 6 0.0000 0.0000 0.0000 0.0000 0.0000 30.2340
#
#
#
# Elastic Compliance Matrix: (Units=1/GPa)
#
#
# Indices 1 2 3 4 5 6 
#
# 1 -0.014542 0.029110 -0.001769 0.000000 0.000000 0.000000
# 2 0.029110 -0.014542 -0.001769 0.000000 0.000000 0.000000
# 3 -0.001769 -0.001769 0.010681 0.000000 0.000000 0.000000
# 4 0.000000 0.000000 0.000000 0.132050 0.000000 0.000000
# 5 0.000000 0.000000 0.000000 0.000000 0.132050 0.000000
# 6 0.000000 0.000000 0.000000 0.000000 0.000000 0.033075
#
#
# Mechanical properties :
#
#
# Convention : Reuss Voigt Hill
#
# Bulk Modulus (GPa) = 30.54231 31.99600 31.26916
# Shear Modulus (GPa) = 20.96075 14.09328 17.52701
#
# Velocity S-wave (km/s) = 3.12288 2.56069 2.85565
# Velocity P-wave (km/s) = 5.21665 4.86102 5.04198
#
# Compressibility (1/GPa) = 0.03274146
#
# Stress axis : x y z
#
# Youngs Moduli (GPa) = -68.76522 -68.76522 93.62647
#
# Poissons Ratio (x) = 2.00175 0.16559
# Poissons Ratio (y) = 2.00175 0.16559
# Poissons Ratio (z) = -0.12162 -0.12162
#
# Static dielectric constant tensor:
#      x y z
#    x 1.770880 0.000000 0.000000 
#    y 0.000000 1.770880 0.000000 
#    z 0.000000 0.000000 1.743670 
# 
# From -- ./inp_files/5988.got.cif
#   From: 2010.05.17/outbox.cif.g08.bks.cpg/sg118_3_cif.got.tgz:5988.got - 2010.05.20 11:17:24.
