data_PCOD9558218
_publ_section_title
;
Structure prediction by ZEFSAII (Michael W. Deem and Ramdas Pophale) SiO2 
 PCOD9558218
Probable space group: P -4 B 2
;
_chemical_formula_sum "Si O2"
_cell_formula_units_Z 20
_cell_length_a 8.676811
_cell_length_b 8.676811
_cell_length_c 11.272970
_cell_angle_alpha 90.000000
_cell_angle_beta 90.000000
_cell_angle_gamma 90.000000
_cell_volume 848.708646
_symmetry_space_group_name_H-M "P -4 B 2"
_symmetry_group_IT_number 117
_symmetry_cell_setting 'tetragonal'
loop_
_space_group_symop_operation_xyz
x,y,z
y,-x,-z
-x,-y,z
-y,x,-z
1/2+y,1/2+x,-z
1/2-y,1/2-x,-z
1/2-x,1/2+y,z
1/2+x,1/2-y,z
loop_
_atom_site_type_symbol
_atom_site_label
_atom_site_fract_x
_atom_site_fract_y
_atom_site_fract_z
Si Si1 0.000000 0.000000 0.500000
Si Si2 0.253639 0.054755 0.802575
Si Si3 0.469179 0.292471 0.712080
Si Si4 0.500000 0.000000 0.000000
O O1 0.976604 0.851833 0.584130
O O2 0.387201 0.130076 0.722321
O O3 0.108577 0.174757 0.804280
O O4 0.167839 0.910105 0.746319
O O5 0.344452 0.011235 0.921319
#
# Coordination Sequence:
#
# PCOD9558218 Si02
#       4
#     2   8   8   2
#     4   8  20  40  68  94 136 172 216 284 352 386
#     4  10  23  40  64  93 129 167 224 267 329 404
#     4  10  22  42  65  99 130 170 223 278 329 416
#     4  12  24  44  64  88 132 186 220 288 352 390
#
# _framework density 23.565211999999999
#
# number of rings (size 3 to 8) (size 9 to 14) (size 15 to 20)
#    0.000    2.400    0.000    2.400    0.000   12.800 
#    0.000   12.000    0.000   28.800    0.000    0.000 
#    0.000    0.000    0.000    0.000    0.000    0.000 
#
# Total GULP energy -111540.790662 kJ/mol
# GULP energy per Si atom -5577.039533 kJ/mol
# Density = 2.351158 g / cm^3
# Si number density = 23.565212 Si / 1000 Ang^3
#
#
#
# Elastic Constant Matrix: (Units=GPa)
#
#
# Indices 1 2 3 4 5 6 
#
# 1 83.9087 99.3604 38.7865 0.0000 0.0000 0.0000
# 2 99.3604 83.9087 38.7865 0.0000 0.0000 0.0000
# 3 38.7865 38.7865 112.3897 0.0000 0.0000 0.0000
# 4 0.0000 0.0000 0.0000 26.6091 0.0000 0.0000
# 5 0.0000 0.0000 0.0000 0.0000 26.6091 0.0000
# 6 0.0000 0.0000 0.0000 0.0000 0.0000 72.9746
#
#
#
# Elastic Compliance Matrix: (Units=1/GPa)
#
#
# Indices 1 2 3 4 5 6 
#
# 1 -0.029164 0.035554 -0.002205 0.000000 0.000000 0.000000
# 2 0.035554 -0.029164 -0.002205 0.000000 0.000000 0.000000
# 3 -0.002205 -0.002205 0.010420 0.000000 0.000000 0.000000
# 4 0.000000 0.000000 0.000000 0.037581 0.000000 0.000000
# 5 0.000000 0.000000 0.000000 0.000000 0.037581 0.000000
# 6 0.000000 0.000000 0.000000 0.000000 0.000000 0.013703
#
#
# Mechanical properties :
#
#
# Convention : Reuss Voigt Hill
#
# Bulk Modulus (GPa) = 69.54766 70.45267 70.00016
# Shear Modulus (GPa) = -302.35858 32.12347 -135.11756
#
# Velocity S-wave (km/s) = -11.33956 3.69612 -7.58038
# Velocity P-wave (km/s) = 11.91095 6.94096 6.84448
#
# Compressibility (1/GPa) = 0.01437863
#
# Stress axis : x y z
#
# Youngs Moduli (GPa) = -34.28886 -34.28886 95.97239
#
# Poissons Ratio (x) = 1.21910 0.21164
# Poissons Ratio (y) = 1.21910 0.21164
# Poissons Ratio (z) = -0.07561 -0.07561
#
# Static dielectric constant tensor:
#      x y z
#    x 1.912350 0.000000 0.000000 
#    y 0.000000 1.912350 0.000000 
#    z 0.000000 0.000000 1.904810 
# 
# From -- ./inp_files/2238.got.cif
#   From: 2010.05.17/outbox.cif.g08.bks.cpg/sg117_2_cif.got.tgz:2238.got - 2010.05.20 11:15:09.
