data_PCOD9558744
_publ_section_title
;
Structure prediction by ZEFSAII (Michael W. Deem and Ramdas Pophale) SiO2 
 PCOD9558744
Probable space group: P -4 N 2
;
_chemical_formula_sum "Si O2"
_cell_formula_units_Z 26
_cell_length_a 11.265195
_cell_length_b 11.265195
_cell_length_c 8.771348
_cell_angle_alpha 90.000000
_cell_angle_beta 90.000000
_cell_angle_gamma 90.000000
_cell_volume 1113.124571
_symmetry_space_group_name_H-M "P -4 N 2"
_symmetry_group_IT_number 118
_symmetry_cell_setting 'tetragonal'
loop_
_space_group_symop_operation_xyz
x,y,z
y,-x,-z
-x,-y,z
-y,x,-z
1/2+y,1/2+x,1/2-z
1/2-y,1/2-x,1/2-z
1/2-x,1/2+y,1/2+z
1/2+x,1/2-y,1/2+z
loop_
_atom_site_type_symbol
_atom_site_label
_atom_site_fract_x
_atom_site_fract_y
_atom_site_fract_z
Si Si1 0.162163 0.200667 0.044893
Si Si2 0.196799 0.696799 0.250000
Si Si3 0.000000 0.000000 0.000000
Si Si4 0.636285 0.021376 0.545410
Si Si5 0.123759 0.623759 0.750000
O O1 0.162353 0.341372 0.079014
O O2 0.265692 0.134427 0.136468
O O3 0.195163 0.198893 0.866984
O O4 0.046571 0.121507 0.077965
O O5 0.203089 0.576762 0.147152
O O6 0.500000 0.000000 0.583683
O O7 0.640587 0.986922 0.365034
#
# Coordination Sequence:
#
# PCOD9558744 Si02
#       5
#     8   4   2   8   4
#     4  11  26  45  74 104 155 189 243 316 369 435
#     4  10  25  46  71 108 140 194 254 299 362 464
#     4  12  28  40  64 114 144 188 228 318 364 420
#     4  11  24  44  72 103 139 196 248 294 368 453
#     4  10  25  46  71 108 140 194 254 299 362 464
#
# _framework density 23.357672000000001
#
# number of rings (size 3 to 8) (size 9 to 14) (size 15 to 20)
#    0.000    1.231    0.000    4.615   17.231    0.000 
#    0.000    0.000    0.000    7.385    0.000    0.000 
#    0.000    0.000    0.000    0.000    0.000    0.000 
#
# Total GULP energy -145202.037163 kJ/mol
# GULP energy per Si atom -5584.693737 kJ/mol
# Density = 2.330451 g / cm^3
# Si number density = 23.357672 Si / 1000 Ang^3
#
#
#
# Elastic Constant Matrix: (Units=GPa)
#
#
# Indices 1 2 3 4 5 6 
#
# 1 84.1109 40.0337 31.1755 0.0000 0.0000 0.0000
# 2 40.0337 84.1109 31.1755 0.0000 0.0000 0.0000
# 3 31.1755 31.1755 153.0692 0.0000 0.0000 0.0000
# 4 0.0000 0.0000 0.0000 1.8125 0.0000 0.0000
# 5 0.0000 0.0000 0.0000 0.0000 1.8125 0.0000
# 6 0.0000 0.0000 0.0000 0.0000 0.0000 39.9167
#
#
#
# Elastic Compliance Matrix: (Units=1/GPa)
#
#
# Indices 1 2 3 4 5 6 
#
# 1 0.015830 -0.006857 -0.001828 0.000000 0.000000 0.000000
# 2 -0.006857 0.015830 -0.001828 0.000000 0.000000 0.000000
# 3 -0.001828 -0.001828 0.007277 0.000000 0.000000 0.000000
# 4 0.000000 0.000000 0.000000 0.551735 0.000000 0.000000
# 5 0.000000 0.000000 0.000000 0.000000 0.551735 0.000000
# 6 0.000000 0.000000 0.000000 0.000000 0.000000 0.025052
#
#
# Mechanical properties :
#
#
# Convention : Reuss Voigt Hill
#
# Bulk Modulus (GPa) = 55.82446 58.45117 57.13782
# Shear Modulus (GPa) = 4.18601 23.30206 13.74404
#
# Velocity S-wave (km/s) = 1.34016 3.16194 2.42836
# Velocity P-wave (km/s) = 5.13288 6.19752 5.69015
#
# Compressibility (1/GPa) = 0.01791329
#
# Stress axis : x y z
#
# Youngs Moduli (GPa) = 63.17025 63.17025 137.41141
#
# Poissons Ratio (x) = 0.43317 0.25112
# Poissons Ratio (y) = 0.43317 0.25112
# Poissons Ratio (z) = 0.11545 0.11545
#
# Static dielectric constant tensor:
#      x y z
#    x 1.871540 0.000000 0.000000 
#    y 0.000000 1.871540 0.000000 
#    z 0.000000 0.000000 1.967100 
# 
# From -- ./inp_files/1450.got.cif
#   From: 2010.05.17/outbox.cif.g08.bks.cpg/sg118_1_cif.got.tgz:1450.got - 2010.05.20 11:17:24.
