data_PCOD9558573
_publ_section_title
;
Structure prediction by ZEFSAII (Michael W. Deem and Ramdas Pophale) SiO2 
 PCOD9558573
Probable space group: P -4 N 2
;
_chemical_formula_sum "Si O2"
_cell_formula_units_Z 64
_cell_length_a 17.448385
_cell_length_b 17.448385
_cell_length_c 12.301864
_cell_angle_alpha 90.000000
_cell_angle_beta 90.000000
_cell_angle_gamma 90.000000
_cell_volume 3745.254999
_symmetry_space_group_name_H-M "P -4 N 2"
_symmetry_group_IT_number 118
_symmetry_cell_setting 'tetragonal'
loop_
_space_group_symop_operation_xyz
x,y,z
y,-x,-z
-x,-y,z
-y,x,-z
1/2+y,1/2+x,1/2-z
1/2-y,1/2-x,1/2-z
1/2-x,1/2+y,1/2+z
1/2+x,1/2-y,1/2+z
loop_
_atom_site_type_symbol
_atom_site_label
_atom_site_fract_x
_atom_site_fract_y
_atom_site_fract_z
Si Si1 0.808184 0.176642 0.012916
Si Si2 0.413113 0.217840 0.376790
Si Si3 0.586887 0.782160 0.123210
Si Si4 0.030931 0.659937 0.250000
Si Si5 0.808184 0.176642 0.487084
Si Si6 0.210004 0.159982 0.750000
Si Si7 0.943479 0.683136 0.026069
Si Si8 0.316864 0.943479 0.526069
O O1 0.745253 0.245253 0.015475
O O2 0.836054 0.164790 0.136780
O O3 0.875755 0.209439 0.938071
O O4 0.762510 0.103760 0.968681
O O5 0.426501 0.233485 0.250000
O O6 0.350945 0.149055 0.384697
O O7 0.489284 0.192216 0.438835
O O8 0.624245 0.709439 0.061929
O O9 0.510716 0.807784 0.061165
O O10 0.085534 0.585534 0.250000
O O11 0.087204 0.733509 0.250000
O O12 0.980359 0.662967 0.141921
O O13 0.980359 0.662967 0.358080
O O14 0.836054 0.164790 0.363220
O O15 0.762510 0.103760 0.531319
O O16 0.266328 0.233673 0.750000
O O17 0.883273 0.616727 0.995197
#
# Coordination Sequence:
#
# PCOD9558573 Si02
#       8
#     8   8   8   8   8   8   8   8
#     4   9  19  35  55  78 106 142 189 234 270 321
#     4  10  21  37  55  77 112 151 182 223 279 334
#     4  10  21  37  55  77 112 151 182 223 279 334
#     4  11  21  36  57  85 118 150 184 229 291 346
#     4   9  19  35  55  78 106 142 189 234 270 321
#     4   9  16  33  58  76 101 143 188 230 271 320
#     4  11  23  35  55  86 114 144 186 231 278 339
#     4  11  23  35  55  86 114 144 186 231 278 339
#
# _framework density 17.088289
#
# number of rings (size 3 to 8) (size 9 to 14) (size 15 to 20)
#    0.000    2.000    2.500    1.125    3.500    3.000 
#    0.000    1.250    0.000    0.750    0.000    3.500 
#    0.000    0.000    0.000    0.000    0.000    0.000 
#
# Total GULP energy -357012.216851 kJ/mol
# GULP energy per Si atom -5578.315888 kJ/mol
# Density = 1.704940 g / cm^3
# Si number density = 17.088289 Si / 1000 Ang^3
#
#
#
# Elastic Constant Matrix: (Units=GPa)
#
#
# Indices 1 2 3 4 5 6 
#
# 1 51.4475 70.4604 63.4642 0.0000 0.0000 0.0000
# 2 70.4604 51.4452 63.4594 0.0000 0.0000 0.0000
# 3 63.4642 63.4594 147.5509 0.0000 0.0000 0.0000
# 4 0.0000 0.0000 0.0000 19.3149 0.0000 0.0000
# 5 0.0000 0.0000 0.0000 0.0000 19.3147 0.0000
# 6 0.0000 0.0000 0.0000 0.0000 0.0000 21.5325
#
#
#
# Elastic Compliance Matrix: (Units=1/GPa)
#
#
# Indices 1 2 3 4 5 6 
#
# 1 -0.018869 0.033724 -0.006388 0.000000 0.000000 0.000000
# 2 0.033724 -0.018868 -0.006390 0.000000 0.000000 0.000000
# 3 -0.006388 -0.006390 0.012273 0.000000 0.000000 0.000000
# 4 0.000000 0.000000 0.000000 0.051773 0.000000 0.000000
# 5 0.000000 0.000000 0.000000 0.000000 0.051774 0.000000
# 6 0.000000 0.000000 0.000000 0.000000 0.000000 0.046442
#
#
# Mechanical properties :
#
#
# Convention : Reuss Voigt Hill
#
# Bulk Modulus (GPa) = 60.87624 71.69017 66.28320
# Shear Modulus (GPa) = 56.74771 15.56973 36.15872
#
# Velocity S-wave (km/s) = 5.76894 3.02177 4.60498
# Velocity P-wave (km/s) = 8.94852 7.36334 8.19435
#
# Compressibility (1/GPa) = 0.01642677
#
# Stress axis : x y z
#
# Youngs Moduli (GPa) = -52.99561 -52.99946 81.47745
#
# Poissons Ratio (x) = 1.78735 0.52048
# Poissons Ratio (y) = 1.78722 0.52067
# Poissons Ratio (z) = -0.33854 -0.33869
#
# Static dielectric constant tensor:
#      x y z
#    x 1.566210 0.000000 0.000000 
#    y 0.000000 1.566210 0.000000 
#    z 0.000000 0.000000 1.577920 
# 
# From -- ./inp_files/3522.got.cif
#   From: 2010.05.17/outbox.cif.g08.bks.cpg/sg118_2_cif.got.tgz:3522.got - 2010.05.20 11:17:24.
