data_PCOD9558186
_publ_section_title
;
Structure prediction by ZEFSAII (Michael W. Deem and Ramdas Pophale) SiO2 
 PCOD9558186
Probable space group: P -4 B 2
;
_chemical_formula_sum "Si O2"
_cell_formula_units_Z 36
_cell_length_a 13.624510
_cell_length_b 13.624510
_cell_length_c 9.231398
_cell_angle_alpha 90.000000
_cell_angle_beta 90.000000
_cell_angle_gamma 90.000000
_cell_volume 1713.599234
_symmetry_space_group_name_H-M "P -4 B 2"
_symmetry_group_IT_number 117
_symmetry_cell_setting 'tetragonal'
loop_
_space_group_symop_operation_xyz
x,y,z
y,-x,-z
-x,-y,z
-y,x,-z
1/2+y,1/2+x,-z
1/2-y,1/2-x,-z
1/2-x,1/2+y,z
1/2+x,1/2-y,z
loop_
_atom_site_type_symbol
_atom_site_label
_atom_site_fract_x
_atom_site_fract_y
_atom_site_fract_z
Si Si1 0.888567 0.817168 0.583951
Si Si2 0.000000 0.000000 0.500000
Si Si3 0.963638 0.277133 0.921477
Si Si4 0.326560 0.699269 0.897975
Si Si5 0.723497 0.907897 0.405450
Si Si6 0.500000 0.000000 0.000000
O O1 0.945121 0.921317 0.600626
O O2 0.824851 0.791099 0.724483
O O3 0.815774 0.842155 0.454761
O O4 0.976953 0.741984 0.556294
O O5 0.907650 0.276728 0.767926
O O6 0.056342 0.204178 0.921415
O O7 0.893760 0.236126 0.047763
O O8 0.997813 0.390522 0.931139
O O9 0.284751 0.784751 0.000000
O O10 0.633600 0.866401 0.500000
#
# Coordination Sequence:
#
# PCOD9558186 Si02
#       6
#     8   2   8   8   8   2
#     4   9  20  37  64  89 129 168 215 275 324 386
#     4   8  16  36  60  90 124 164 216 282 332 368
#     4  11  25  42  70  95 137 174 225 272 337 405
#     4  11  22  40  64  99 130 178 221 274 333 402
#     4  10  21  41  64  98 127 173 223 270 331 389
#     4  12  24  48  66  96 136 180 202 280 340 396
#
# _framework density 21.008412
#
# number of rings (size 3 to 8) (size 9 to 14) (size 15 to 20)
#    0.000    1.778    2.222    1.333    0.000    7.556 
#    0.000    0.556    0.000    0.000    0.000    0.000 
#    0.000    0.000    0.000    0.000    0.000    0.000 
#
# Total GULP energy -200501.091203 kJ/mol
# GULP energy per Si atom -5569.474756 kJ/mol
# Density = 2.096060 g / cm^3
# Si number density = 21.008412 Si / 1000 Ang^3
#
#
#
# Elastic Constant Matrix: (Units=GPa)
#
#
# Indices 1 2 3 4 5 6 
#
# 1 103.1286 52.0003 59.5322 0.0000 0.0000 0.0000
# 2 52.0003 103.1278 59.5331 0.0000 0.0000 0.0000
# 3 59.5322 59.5331 109.8947 0.0000 0.0000 0.0000
# 4 0.0000 0.0000 0.0000 18.2753 0.0000 0.0000
# 5 0.0000 0.0000 0.0000 0.0000 18.2759 0.0000
# 6 0.0000 0.0000 0.0000 0.0000 0.0000 46.8991
#
#
#
# Elastic Compliance Matrix: (Units=1/GPa)
#
#
# Indices 1 2 3 4 5 6 
#
# 1 0.015296 -0.004262 -0.005977 0.000000 0.000000 0.000000
# 2 -0.004262 0.015297 -0.005978 0.000000 0.000000 0.000000
# 3 -0.005977 -0.005978 0.015576 0.000000 0.000000 0.000000
# 4 0.000000 0.000000 0.000000 0.054719 0.000000 0.000000
# 5 0.000000 0.000000 0.000000 0.000000 0.054717 0.000000
# 6 0.000000 0.000000 0.000000 0.000000 0.000000 0.021322
#
#
# Mechanical properties :
#
#
# Convention : Reuss Voigt Hill
#
# Bulk Modulus (GPa) = 72.81032 73.14248 72.97640
# Shear Modulus (GPa) = 23.37110 26.36242 24.86676
#
# Velocity S-wave (km/s) = 3.33898 3.54623 3.44416
# Velocity P-wave (km/s) = 7.04258 7.18742 7.11537
#
# Compressibility (1/GPa) = 0.01373432
#
# Stress axis : x y z
#
# Youngs Moduli (GPa) = 65.37538 65.37375 64.20185
#
# Poissons Ratio (x) = 0.27865 0.38375
# Poissons Ratio (y) = 0.27865 0.38378
# Poissons Ratio (z) = 0.39077 0.39078
#
# Static dielectric constant tensor:
#      x y z
#    x 1.804100 0.000000 0.000000 
#    y 0.000000 1.804100 0.000000 
#    z 0.000000 0.000000 1.747020 
# 
# From -- ./inp_files/1626.got.cif
#   From: 2010.05.17/outbox.cif.g08.bks.cpg/sg117_1_cif.got.tgz:1626.got - 2010.05.20 11:15:09.
