data_PCOD9558658
_publ_section_title
;
Structure prediction by ZEFSAII (Michael W. Deem and Ramdas Pophale) SiO2 
 PCOD9558658
Probable space group: P -4 N 2
;
_chemical_formula_sum "Si O2"
_cell_formula_units_Z 34
_cell_length_a 10.831567
_cell_length_b 10.831567
_cell_length_c 13.918785
_cell_angle_alpha 90.000000
_cell_angle_beta 90.000000
_cell_angle_gamma 90.000000
_cell_volume 1632.991437
_symmetry_space_group_name_H-M "P -4 N 2"
_symmetry_group_IT_number 118
_symmetry_cell_setting 'tetragonal'
loop_
_space_group_symop_operation_xyz
x,y,z
y,-x,-z
-x,-y,z
-y,x,-z
1/2+y,1/2+x,1/2-z
1/2-y,1/2-x,1/2-z
1/2-x,1/2+y,1/2+z
1/2+x,1/2-y,1/2+z
loop_
_atom_site_type_symbol
_atom_site_label
_atom_site_fract_x
_atom_site_fract_y
_atom_site_fract_z
Si Si1 0.132164 0.530993 0.950083
Si Si2 0.621970 0.153100 0.857890
Si Si3 0.500000 0.500000 0.500000
Si Si4 0.697398 0.394090 0.614050
Si Si5 0.860797 0.945048 0.325770
O O1 0.131643 0.678883 0.944146
O O2 0.261699 0.493894 0.898825
O O3 0.000000 0.500000 0.900948
O O4 0.125357 0.470014 0.055228
O O5 0.601111 0.101111 0.750000
O O6 0.764670 0.122318 0.883014
O O7 0.620757 0.301562 0.850683
O O8 0.619140 0.500192 0.565141
O O9 0.710020 0.437057 0.723766
O O10 0.000000 0.000000 0.321002
#
# Coordination Sequence:
#
# PCOD9558658 Si02
#       5
#     8   8   2   8   8
#     4  11  23  39  65  97 135 176 225 288 353 407
#     4   9  21  40  63  95 137 172 223 285 352 407
#     4  12  20  40  64  80 130 176 236 256 368 420
#     4  10  22  40  62  93 132 177 221 293 344 412
#     4  10  22  40  66  98 131 181 230 284 344 428
#
# _framework density 20.820685999999998
#
# number of rings (size 3 to 8) (size 9 to 14) (size 15 to 20)
#    0.000    1.882    1.176    3.529    6.588    2.353 
#    0.000    0.000    0.000    0.000    0.000    0.000 
#    0.000    0.000    0.000    0.000    0.000    0.000 
#
# Total GULP energy -189316.943617 kJ/mol
# GULP energy per Si atom -5568.145401 kJ/mol
# Density = 2.077330 g / cm^3
# Si number density = 20.820686 Si / 1000 Ang^3
#
#
#
# Elastic Constant Matrix: (Units=GPa)
#
#
# Indices 1 2 3 4 5 6 
#
# 1 71.2837 16.0948 43.9547 0.0000 0.0000 0.0000
# 2 16.0948 71.2837 43.9547 0.0000 0.0000 0.0000
# 3 43.9547 43.9547 144.3115 0.0000 0.0000 0.0000
# 4 0.0000 0.0000 0.0000 31.5648 0.0000 0.0000
# 5 0.0000 0.0000 0.0000 0.0000 31.5648 0.0000
# 6 0.0000 0.0000 0.0000 0.0000 0.0000 36.8567
#
#
#
# Elastic Compliance Matrix: (Units=1/GPa)
#
#
# Indices 1 2 3 4 5 6 
#
# 1 0.017310 -0.000809 -0.005026 0.000000 0.000000 0.000000
# 2 -0.000809 0.017310 -0.005026 0.000000 0.000000 0.000000
# 3 -0.005026 -0.005026 0.009991 0.000000 0.000000 0.000000
# 4 0.000000 0.000000 0.000000 0.031681 0.000000 0.000000
# 5 0.000000 0.000000 0.000000 0.000000 0.031681 0.000000
# 6 0.000000 0.000000 0.000000 0.000000 0.000000 0.027132
#
#
# Mechanical properties :
#
#
# Convention : Reuss Voigt Hill
#
# Bulk Modulus (GPa) = 43.68852 54.98749 49.33801
# Shear Modulus (GPa) = 30.40301 32.18889 31.29595
#
# Velocity S-wave (km/s) = 3.82544 3.93619 3.88121
# Velocity P-wave (km/s) = 6.36717 6.86480 6.62066
#
# Compressibility (1/GPa) = 0.02288931
#
# Stress axis : x y z
#
# Youngs Moduli (GPa) = 57.76925 57.76925 100.08969
#
# Poissons Ratio (x) = 0.04676 0.50304
# Poissons Ratio (y) = 0.04676 0.50304
# Poissons Ratio (z) = 0.29034 0.29034
#
# Static dielectric constant tensor:
#      x y z
#    x 1.806510 0.000000 0.000000 
#    y 0.000000 1.806510 0.000000 
#    z 0.000000 0.000000 1.797360 
# 
# From -- ./inp_files/2962.got.cif
#   From: 2010.05.17/outbox.cif.g08.bks.cpg/sg118_2_cif.got.tgz:2962.got - 2010.05.20 11:17:24.
