data_PCOD9558956
_publ_section_title
;
Structure prediction by ZEFSAII (Michael W. Deem and Ramdas Pophale) SiO2 
 PCOD9558956
Probable space group: I -4 M 2
;
_chemical_formula_sum "Si O2"
_cell_formula_units_Z 72
_cell_length_a 12.123964
_cell_length_b 12.123964
_cell_length_c 29.997896
_cell_angle_alpha 90.000000
_cell_angle_beta 90.000000
_cell_angle_gamma 90.000000
_cell_volume 4409.405824
_symmetry_space_group_name_H-M "I -4 M 2"
_symmetry_group_IT_number 119
_symmetry_cell_setting 'tetragonal'
loop_
_space_group_symop_operation_xyz
x,y,z
y,-x,-z
-x,-y,z
-y,x,-z
y,x,-z
-y,-x,-z
-x,y,z
x,-y,z
1/2+x,1/2+y,1/2+z
1/2+y,1/2-x,1/2-z
1/2-x,1/2-y,1/2+z
1/2-y,1/2+x,1/2-z
1/2+y,1/2+x,1/2-z
1/2-y,1/2-x,1/2-z
1/2-x,1/2+y,1/2+z
1/2+x,1/2-y,1/2+z
loop_
_atom_site_type_symbol
_atom_site_label
_atom_site_fract_x
_atom_site_fract_y
_atom_site_fract_z
Si Si1 0.500000 0.624866 0.901066
Si Si2 0.132159 0.369803 0.626737
Si Si3 0.220473 0.250143 0.199895
Si Si4 0.750425 0.000000 0.690564
Si Si5 0.871096 0.000000 0.782680
Si Si6 0.870277 0.224364 0.542611
O O1 0.500000 0.500000 0.883619
O O2 0.500000 0.702531 0.858854
O O3 0.609373 0.638088 0.930375
O O4 0.159401 0.500000 0.630736
O O5 0.195185 0.294995 0.663009
O O6 0.156815 0.321182 0.577496
O O7 0.000000 0.357846 0.633003
O O8 0.266876 0.233125 0.250000
O O9 0.193800 0.380878 0.196274
O O10 0.108309 0.182709 0.196669
O O11 0.841515 0.000000 0.729930
O O12 0.000000 0.000000 0.788951
O O13 0.792255 0.207746 0.500000
O O14 0.000000 0.235976 0.529282
#
# Coordination Sequence:
#
# PCOD9558956 Si02
#       6
#     8  16  16   8   8  16
#     4  10  17  26  49  79 108 131 165 215 270 323
#     4  10  21  35  52  77 109 143 175 214 266 320
#     4  10  21  35  54  79 106 141 179 223 265 313
#     4  10  19  33  52  79 107 136 176 228 279 307
#     4  10  21  35  53  74 107 149 189 213 251 318
#     4  10  18  29  50  78 105 131 168 217 269 323
#
# _framework density 16.328731999999999
#
# number of rings (size 3 to 8) (size 9 to 14) (size 15 to 20)
#    0.000    2.000    3.333    1.000    0.000    4.889 
#    0.000    3.333    2.444    0.000    0.000    0.000 
#    0.000    0.000    0.000    0.000    0.000    0.000 
#
# Total GULP energy -200602.895824 kJ/mol
# GULP energy per Si atom -5572.302662 kJ/mol
# Density = 1.629157 g / cm^3
# Si number density = 16.328732 Si / 1000 Ang^3
#
#
#
# Elastic Constant Matrix: (Units=GPa)
#
#
# Indices 1 2 3 4 5 6 
#
# 1 87.9977 47.9265 30.1365 0.0000 0.0000 0.0000
# 2 47.9265 87.9979 30.1361 0.0000 0.0000 0.0000
# 3 30.1365 30.1361 73.5087 0.0000 0.0000 0.0000
# 4 0.0000 0.0000 0.0000 15.6743 0.0000 0.0000
# 5 0.0000 0.0000 0.0000 0.0000 15.6748 0.0000
# 6 0.0000 0.0000 0.0000 0.0000 0.0000 19.1583
#
#
#
# Elastic Compliance Matrix: (Units=1/GPa)
#
#
# Indices 1 2 3 4 5 6 
#
# 1 0.016974 -0.007982 -0.003686 0.000000 0.000000 0.000000
# 2 -0.007982 0.016974 -0.003686 0.000000 0.000000 0.000000
# 3 -0.003686 -0.003686 0.016626 0.000000 0.000000 0.000000
# 4 0.000000 0.000000 0.000000 0.063799 0.000000 0.000000
# 5 0.000000 0.000000 0.000000 0.000000 0.063797 0.000000
# 6 0.000000 0.000000 0.000000 0.000000 0.000000 0.052197
#
#
# Mechanical properties :
#
#
# Convention : Reuss Voigt Hill
#
# Bulk Modulus (GPa) = 50.34115 51.76695 51.05405
# Shear Modulus (GPa) = 18.67789 19.52182 19.09985
#
# Velocity S-wave (km/s) = 3.38578 3.46142 3.42381
# Velocity P-wave (km/s) = 6.79569 6.90993 6.85305
#
# Compressibility (1/GPa) = 0.01986447
#
# Stress axis : x y z
#
# Youngs Moduli (GPa) = 58.91480 58.91522 60.14540
#
# Poissons Ratio (x) = 0.47026 0.22172
# Poissons Ratio (y) = 0.47026 0.22171
# Poissons Ratio (z) = 0.21718 0.21717
#
# Static dielectric constant tensor:
#      x y z
#    x 1.551360 0.000000 0.000000 
#    y 0.000000 1.551360 0.000000 
#    z 0.000000 0.000000 1.549600 
# 
# From -- ./inp_files/9376.got.cif
#   From: 2010.05.17/outbox.cif.g08.bks.cpg/sg119_5_cif.got.tgz:9376.got - 2010.05.20 11:21:29.
