data_PCOD9558125
_publ_section_title
;
Structure prediction by ZEFSAII (Michael W. Deem and Ramdas Pophale) SiO2 
 PCOD9558125
Probable space group: P -4 B 2
;
_chemical_formula_sum "Si O2"
_cell_formula_units_Z 48
_cell_length_a 17.975814
_cell_length_b 17.975814
_cell_length_c 6.197818
_cell_angle_alpha 90.000000
_cell_angle_beta 90.000000
_cell_angle_gamma 90.000000
_cell_volume 2002.700242
_symmetry_space_group_name_H-M "P -4 B 2"
_symmetry_group_IT_number 117
_symmetry_cell_setting 'tetragonal'
loop_
_space_group_symop_operation_xyz
x,y,z
y,-x,-z
-x,-y,z
-y,x,-z
1/2+y,1/2+x,-z
1/2-y,1/2-x,-z
1/2-x,1/2+y,z
1/2+x,1/2-y,z
loop_
_atom_site_type_symbol
_atom_site_label
_atom_site_fract_x
_atom_site_fract_y
_atom_site_fract_z
Si Si1 0.024892 0.800704 0.899084
Si Si2 0.685916 0.288974 0.607326
Si Si3 0.907496 0.104141 0.220370
Si Si4 0.844830 0.448435 0.382778
Si Si5 0.675516 0.175516 0.000000
Si Si6 0.500000 0.000000 0.500000
Si Si7 0.500000 0.500000 0.500000
Si Si8 0.942523 0.732161 0.291127
O O1 0.053820 0.722255 0.797260
O O2 0.826115 0.875076 0.648363
O O3 0.082214 0.864898 0.977138
O O4 0.985050 0.784334 0.126339
O O5 0.760663 0.260663 0.500000
O O6 0.622007 0.265766 0.439554
O O7 0.677430 0.245048 0.834551
O O8 0.976238 0.066653 0.341129
O O9 0.039269 0.155746 0.768832
O O10 0.873066 0.373066 0.500000
O O11 0.808005 0.499388 0.561724
O O12 0.925522 0.490449 0.349362
O O13 0.602071 0.176400 0.139074
#
# Coordination Sequence:
#
# PCOD9558125 Si02
#       8
#     8   8   8   8   4   2   2   8
#     4  12  26  47  76 112 155 212 269 340 414 493
#     4  10  22  41  70 107 147 198 255 328 401 475
#     4  12  25  49  77 111 158 204 278 341 405 500
#     4  10  24  44  71 111 155 209 263 324 408 489
#     4  10  20  36  72 105 140 192 254 309 398 478
#     4   8  24  44  78 108 156 218 264 322 400 500
#     4  12  28  50  92 116 146 232 276 354 436 484
#     4  11  21  40  71 106 146 197 253 324 396 482
#
# _framework density 23.967641
#
# number of rings (size 3 to 8) (size 9 to 14) (size 15 to 20)
#    0.500    0.667    3.333    2.000    5.833    0.667 
#    0.000    3.333    0.000    0.000    0.000    0.000 
#    0.000    0.000    0.000    0.000    0.000    0.000 
#
# Total GULP energy -267730.078449 kJ/mol
# GULP energy per Si atom -5577.709968 kJ/mol
# Density = 2.391309 g / cm^3
# Si number density = 23.967641 Si / 1000 Ang^3
#
#
#
# Elastic Constant Matrix: (Units=GPa)
#
#
# Indices 1 2 3 4 5 6 
#
# 1 113.7246 63.1940 46.1363 0.0000 0.0000 0.0000
# 2 63.1940 113.7246 46.1363 0.0000 0.0000 0.0000
# 3 46.1363 46.1363 91.9422 0.0000 0.0000 0.0000
# 4 0.0000 0.0000 0.0000 100.6295 0.0000 0.0000
# 5 0.0000 0.0000 0.0000 0.0000 100.6295 0.0000
# 6 0.0000 0.0000 0.0000 0.0000 0.0000 52.7849
#
#
#
# Elastic Compliance Matrix: (Units=1/GPa)
#
#
# Indices 1 2 3 4 5 6 
#
# 1 0.013723 -0.006067 -0.003842 0.000000 0.000000 0.000000
# 2 -0.006067 0.013723 -0.003842 0.000000 0.000000 0.000000
# 3 -0.003842 -0.003842 0.014732 0.000000 0.000000 0.000000
# 4 0.000000 0.000000 0.000000 0.009937 0.000000 0.000000
# 5 0.000000 0.000000 0.000000 0.000000 0.009937 0.000000
# 6 0.000000 0.000000 0.000000 0.000000 0.000000 0.018945
#
#
# Mechanical properties :
#
#
# Convention : Reuss Voigt Hill
#
# Bulk Modulus (GPa) = 68.13413 70.03607 69.08510
# Shear Modulus (GPa) = 44.09522 61.73711 52.91617
#
# Velocity S-wave (km/s) = 4.29392 5.08079 4.70384
# Velocity P-wave (km/s) = 7.28512 7.98147 7.64123
#
# Compressibility (1/GPa) = 0.01467693
#
# Stress axis : x y z
#
# Youngs Moduli (GPa) = 72.87040 72.87040 67.87960
#
# Poissons Ratio (x) = 0.44210 0.26078
# Poissons Ratio (y) = 0.44210 0.26078
# Poissons Ratio (z) = 0.27995 0.27995
#
# Static dielectric constant tensor:
#      x y z
#    x 1.986600 0.000000 0.000000 
#    y 0.000000 1.986600 0.000000 
#    z 0.000000 0.000000 2.185500 
# 
# From -- ./inp_files/851.got.cif
#   From: 2010.05.17/outbox.cif.g08.bks.cpg/sg117_1_cif.got.tgz:851.got - 2010.05.20 11:15:09.
