data_PCOD9558527
_publ_section_title
;
Structure prediction by ZEFSAII (Michael W. Deem and Ramdas Pophale) SiO2 
 PCOD9558527
Probable space group: P -4 N 2
;
_chemical_formula_sum "Si O2"
_cell_formula_units_Z 40
_cell_length_a 11.422162
_cell_length_b 11.422162
_cell_length_c 15.410031
_cell_angle_alpha 90.000000
_cell_angle_beta 90.000000
_cell_angle_gamma 90.000000
_cell_volume 2010.481788
_symmetry_space_group_name_H-M "P -4 N 2"
_symmetry_group_IT_number 118
_symmetry_cell_setting 'tetragonal'
loop_
_space_group_symop_operation_xyz
x,y,z
y,-x,-z
-x,-y,z
-y,x,-z
1/2+y,1/2+x,1/2-z
1/2-y,1/2-x,1/2-z
1/2-x,1/2+y,1/2+z
1/2+x,1/2-y,1/2+z
loop_
_atom_site_type_symbol
_atom_site_label
_atom_site_fract_x
_atom_site_fract_y
_atom_site_fract_z
Si Si1 0.399259 0.785607 0.523445
Si Si2 0.103132 0.918327 0.712795
Si Si3 0.828465 0.498862 0.296878
Si Si4 0.361720 0.541438 0.611577
Si Si5 0.589982 0.334498 0.973780
O O1 0.483710 0.840160 0.599213
O O2 0.350477 0.670584 0.572209
O O3 0.463330 0.728576 0.441471
O O4 0.292681 0.868572 0.495308
O O5 0.048973 0.835777 0.786059
O O6 0.162775 0.871285 0.627159
O O7 0.194884 0.995331 0.767627
O O8 0.000000 0.000000 0.679042
O O9 0.889946 0.389946 0.250000
O O10 0.891534 0.608467 0.250000
O O11 0.500000 0.500000 0.601144
O O12 0.449446 0.351605 0.982793
#
# Coordination Sequence:
#
# PCOD9558527 Si02
#       5
#     8   8   8   8   8
#     4  11  20  39  62  90 124 161 210 267 316 384
#     4  10  20  40  59  82 125 172 201 250 317 393
#     4  10  21  37  62  95 123 154 208 272 329 354
#     4  10  20  38  63  91 122 160 212 259 319 375
#     4  11  23  41  59  85 128 173 210 255 333 386
#
# _framework density 19.89573
#
# number of rings (size 3 to 8) (size 9 to 14) (size 15 to 20)
#    0.000    1.600    6.000    0.000    0.000    1.600 
#    0.000    1.000    0.000    0.000    0.000    2.800 
#    0.000    0.000    0.000    0.000    0.000    0.000 
#
# Total GULP energy -222814.807764 kJ/mol
# GULP energy per Si atom -5570.370194 kJ/mol
# Density = 1.985045 g / cm^3
# Si number density = 19.895730 Si / 1000 Ang^3
#
#
#
# Elastic Constant Matrix: (Units=GPa)
#
#
# Indices 1 2 3 4 5 6 
#
# 1 68.8878 26.2488 29.5309 0.0000 0.0000 0.0000
# 2 26.2488 68.8895 29.5304 0.0000 0.0000 0.0000
# 3 29.5309 29.5304 133.8484 0.0000 0.0000 0.0000
# 4 0.0000 0.0000 0.0000 25.1908 0.0000 0.0000
# 5 0.0000 0.0000 0.0000 0.0000 25.1908 0.0000
# 6 0.0000 0.0000 0.0000 0.0000 0.0000 30.0417
#
#
#
# Elastic Compliance Matrix: (Units=1/GPa)
#
#
# Indices 1 2 3 4 5 6 
#
# 1 0.017816 -0.005637 -0.002687 0.000000 0.000000 0.000000
# 2 -0.005637 0.017815 -0.002687 0.000000 0.000000 0.000000
# 3 -0.002687 -0.002687 0.008657 0.000000 0.000000 0.000000
# 4 0.000000 0.000000 0.000000 0.039697 0.000000 0.000000
# 5 0.000000 0.000000 0.000000 0.000000 0.039697 0.000000
# 6 0.000000 0.000000 0.000000 0.000000 0.000000 0.033287
#
#
# Mechanical properties :
#
#
# Convention : Reuss Voigt Hill
#
# Bulk Modulus (GPa) = 44.90950 49.13842 47.02396
# Shear Modulus (GPa) = 26.82215 28.50570 27.66392
#
# Velocity S-wave (km/s) = 3.67568 3.78928 3.73291
# Velocity P-wave (km/s) = 6.37461 6.62544 6.50123
#
# Compressibility (1/GPa) = 0.02226700
#
# Stress axis : x y z
#
# Youngs Moduli (GPa) = 56.12925 56.13102 115.51577
#
# Poissons Ratio (x) = 0.31638 0.31041
# Poissons Ratio (y) = 0.31637 0.31039
# Poissons Ratio (z) = 0.15083 0.15082
#
# Static dielectric constant tensor:
#      x y z
#    x 1.742330 0.000000 0.000000 
#    y 0.000000 1.742330 0.000000 
#    z 0.000000 0.000000 1.774130 
# 
# From -- ./inp_files/4075.got.cif
#   From: 2010.05.17/outbox.cif.g08.bks.cpg/sg118_3_cif.got.tgz:4075.got - 2010.05.20 11:17:24.
