data_PCOD9558256
_publ_section_title
;
Structure prediction by ZEFSAII (Michael W. Deem and Ramdas Pophale) SiO2 
 PCOD9558256
Probable space group: P -4 B 2
;
_chemical_formula_sum "Si O2"
_cell_formula_units_Z 32
_cell_length_a 10.417795
_cell_length_b 10.417795
_cell_length_c 13.711890
_cell_angle_alpha 90.000000
_cell_angle_beta 90.000000
_cell_angle_gamma 90.000000
_cell_volume 1488.157629
_symmetry_space_group_name_H-M "P -4 B 2"
_symmetry_group_IT_number 117
_symmetry_cell_setting 'tetragonal'
loop_
_space_group_symop_operation_xyz
x,y,z
y,-x,-z
-x,-y,z
-y,x,-z
1/2+y,1/2+x,-z
1/2-y,1/2-x,-z
1/2-x,1/2+y,z
1/2+x,1/2-y,z
loop_
_atom_site_type_symbol
_atom_site_label
_atom_site_fract_x
_atom_site_fract_y
_atom_site_fract_z
Si Si1 0.756818 0.103301 0.789946
Si Si2 0.500000 0.500000 0.323412
Si Si3 0.500000 0.000000 0.000000
Si Si4 0.000000 0.500000 0.500000
Si Si5 0.157077 0.615876 0.152307
Si Si6 0.782569 0.545931 0.346031
O O1 0.793055 0.220156 0.862342
O O2 0.680326 0.169842 0.700009
O O3 0.882906 0.039815 0.745016
O O4 0.683312 0.980832 0.833738
O O5 0.632946 0.540349 0.375470
O O6 0.626697 0.985488 0.067389
O O7 0.125111 0.495629 0.432557
O O8 0.190008 0.546708 0.253961
#
# Coordination Sequence:
#
# PCOD9558256 Si02
#       6
#     8   4   2   2   8   8
#     4  11  20  43  65  98 136 192 230 303 360 440
#     4  10  24  40  71  97 136 186 240 286 367 443
#     4  12  22  40  64 110 126 194 238 292 352 442
#     4  12  22  40  80 102 140 200 242 300 376 458
#     4  11  23  40  70  93 144 188 240 294 369 426
#     4  11  22  44  71 101 138 192 236 302 371 441
#
# _framework density 21.503098999999999
#
# number of rings (size 3 to 8) (size 9 to 14) (size 15 to 20)
#    0.000    1.000    7.500    0.000    0.000    1.000 
#    0.000   12.500    0.000    1.500    0.000    0.000 
#    0.000    0.000    0.000    0.000    0.000    0.000 
#
# Total GULP energy -178526.843497 kJ/mol
# GULP energy per Si atom -5578.963859 kJ/mol
# Density = 2.145416 g / cm^3
# Si number density = 21.503099 Si / 1000 Ang^3
#
#
#
# Elastic Constant Matrix: (Units=GPa)
#
#
# Indices 1 2 3 4 5 6 
#
# 1 162.0067 59.6842 41.6299 0.0000 0.0000 0.0000
# 2 59.6842 162.0067 41.6299 0.0000 0.0000 0.0000
# 3 41.6299 41.6299 81.7121 0.0000 0.0000 0.0000
# 4 0.0000 0.0000 0.0000 12.9113 0.0000 0.0000
# 5 0.0000 0.0000 0.0000 0.0000 12.9113 0.0000
# 6 0.0000 0.0000 0.0000 0.0000 0.0000 39.8641
#
#
#
# Elastic Compliance Matrix: (Units=1/GPa)
#
#
# Indices 1 2 3 4 5 6 
#
# 1 0.007676 -0.002097 -0.002842 0.000000 0.000000 0.000000
# 2 -0.002097 0.007676 -0.002842 0.000000 0.000000 0.000000
# 3 -0.002842 -0.002842 0.015134 0.000000 0.000000 0.000000
# 4 0.000000 0.000000 0.000000 0.077452 0.000000 0.000000
# 5 0.000000 0.000000 0.000000 0.000000 0.077452 0.000000
# 6 0.000000 0.000000 0.000000 0.000000 0.000000 0.025085
#
#
# Mechanical properties :
#
#
# Convention : Reuss Voigt Hill
#
# Bulk Modulus (GPa) = 67.01300 76.84598 71.92949
# Shear Modulus (GPa) = 21.64409 30.65610 26.15010
#
# Velocity S-wave (km/s) = 3.17607 3.77989 3.49106
# Velocity P-wave (km/s) = 6.68445 7.40708 7.05502
#
# Compressibility (1/GPa) = 0.01492248
#
# Stress axis : x y z
#
# Youngs Moduli (GPa) = 130.28361 130.28361 66.07730
#
# Poissons Ratio (x) = 0.27326 0.18778
# Poissons Ratio (y) = 0.27326 0.18778
# Poissons Ratio (z) = 0.37025 0.37025
#
# Static dielectric constant tensor:
#      x y z
#    x 1.851890 0.000000 0.000000 
#    y 0.000000 1.851890 0.000000 
#    z 0.000000 0.000000 1.786960 
# 
# From -- ./inp_files/2486.got.cif
#   From: 2010.05.17/outbox.cif.g08.bks.cpg/sg117_2_cif.got.tgz:2486.got - 2010.05.20 11:15:09.
