data_PCOD9558629
_publ_section_title
;
Structure prediction by ZEFSAII (Michael W. Deem and Ramdas Pophale) SiO2 
 PCOD9558629
Probable space group: P -4 N 2
;
_chemical_formula_sum "Si O2"
_cell_formula_units_Z 40
_cell_length_a 8.647125
_cell_length_b 8.647125
_cell_length_c 22.764465
_cell_angle_alpha 90.000000
_cell_angle_beta 90.000000
_cell_angle_gamma 90.000000
_cell_volume 1702.162123
_symmetry_space_group_name_H-M "P -4 N 2"
_symmetry_group_IT_number 118
_symmetry_cell_setting 'tetragonal'
loop_
_space_group_symop_operation_xyz
x,y,z
y,-x,-z
-x,-y,z
-y,x,-z
1/2+y,1/2+x,1/2-z
1/2-y,1/2-x,1/2-z
1/2-x,1/2+y,1/2+z
1/2+x,1/2-y,1/2+z
loop_
_atom_site_type_symbol
_atom_site_label
_atom_site_fract_x
_atom_site_fract_y
_atom_site_fract_z
Si Si1 0.000000 0.500000 0.392485
Si Si2 0.000000 0.000000 0.500000
Si Si3 0.357459 0.785300 0.982836
Si Si4 0.253412 0.085957 0.803330
Si Si5 0.000000 0.000000 0.000000
Si Si6 0.308072 0.036572 0.063989
Si Si7 0.916843 0.246092 0.803300
O O1 0.879211 0.587722 0.433709
O O2 0.879940 0.398164 0.355093
O O3 0.978163 0.846384 0.464481
O O4 0.191552 0.705713 0.975252
O O5 0.398359 0.881307 0.042422
O O6 0.357954 0.142047 0.750000
O O7 0.095205 0.186626 0.800448
O O8 0.192371 0.907778 0.802459
O O9 0.971216 0.861805 0.954510
O O10 0.321786 0.086089 0.131477
O O11 0.856623 0.356623 0.750000
#
# Coordination Sequence:
#
# PCOD9558629 Si02
#       7
#     4   2   8   8   2   8   8
#     4  12  23  46  76 110 143 208 252 324 396 482
#     4  12  28  48  60 114 152 196 240 316 396 470
#     4  11  25  43  74 107 155 190 256 311 403 465
#     4  11  25  45  76 107 148 200 266 325 380 467
#     4   8  16  32  72 110 140 184 260 300 386 444
#     4  10  21  42  73 107 145 200 244 319 372 483
#     4  11  24  46  75 110 152 206 263 318 393 471
#
# _framework density 23.499525999999999
#
# number of rings (size 3 to 8) (size 9 to 14) (size 15 to 20)
#    0.000    1.200    2.000    3.900    8.400    0.400 
#    3.600    4.000    0.000    0.000    0.000    0.000 
#    0.000    0.000    0.000    0.000    0.000    0.000 
#
# Total GULP energy -222680.897547 kJ/mol
# GULP energy per Si atom -5567.022439 kJ/mol
# Density = 2.344604 g / cm^3
# Si number density = 23.499526 Si / 1000 Ang^3
#
#
#
# Elastic Constant Matrix: (Units=GPa)
#
#
# Indices 1 2 3 4 5 6 
#
# 1 91.6103 48.7444 39.7026 0.0000 0.0000 0.0000
# 2 48.7444 91.6116 39.7025 0.0000 0.0000 0.0000
# 3 39.7026 39.7025 135.6452 0.0000 0.0000 0.0000
# 4 0.0000 0.0000 0.0000 17.5570 0.0000 0.0000
# 5 0.0000 0.0000 0.0000 0.0000 17.5574 0.0000
# 6 0.0000 0.0000 0.0000 0.0000 0.0000 54.2654
#
#
#
# Elastic Compliance Matrix: (Units=1/GPa)
#
#
# Indices 1 2 3 4 5 6 
#
# 1 0.015934 -0.007395 -0.002499 0.000000 0.000000 0.000000
# 2 -0.007395 0.015933 -0.002499 0.000000 0.000000 0.000000
# 3 -0.002499 -0.002499 0.008835 0.000000 0.000000 0.000000
# 4 0.000000 0.000000 0.000000 0.056957 0.000000 0.000000
# 5 0.000000 0.000000 0.000000 0.000000 0.056956 0.000000
# 6 0.000000 0.000000 0.000000 0.000000 0.000000 0.018428
#
#
# Mechanical properties :
#
#
# Convention : Reuss Voigt Hill
#
# Bulk Modulus (GPa) = 62.83115 63.90736 63.36925
# Shear Modulus (GPa) = 24.61415 30.59045 27.60230
#
# Velocity S-wave (km/s) = 3.23992 3.61189 3.43095
# Velocity P-wave (km/s) = 6.38681 6.68196 6.53605
#
# Compressibility (1/GPa) = 0.01591567
#
# Stress axis : x y z
#
# Youngs Moduli (GPa) = 62.76057 62.76165 113.18370
#
# Poissons Ratio (x) = 0.46411 0.28288
# Poissons Ratio (y) = 0.46410 0.28287
# Poissons Ratio (z) = 0.15686 0.15685
#
# Static dielectric constant tensor:
#      x y z
#    x 2.145730 0.000000 0.000000 
#    y 0.000000 2.145730 0.000000 
#    z 0.000000 0.000000 1.866370 
# 
# From -- ./inp_files/6112.got.cif
#   From: 2010.05.17/outbox.cif.g08.bks.cpg/sg118_4_cif.got.tgz:6112.got - 2010.05.20 11:17:24.
