data_PCOD9558774
_publ_section_title
;
Structure prediction by ZEFSAII (Michael W. Deem and Ramdas Pophale) SiO2 
 PCOD9558774
Probable space group: P -4 N 2
;
_chemical_formula_sum "Si O2"
_cell_formula_units_Z 48
_cell_length_a 21.078569
_cell_length_b 21.078569
_cell_length_c 5.375813
_cell_angle_alpha 90.000000
_cell_angle_beta 90.000000
_cell_angle_gamma 90.000000
_cell_volume 2388.506353
_symmetry_space_group_name_H-M "P -4 N 2"
_symmetry_group_IT_number 118
_symmetry_cell_setting 'tetragonal'
loop_
_space_group_symop_operation_xyz
x,y,z
y,-x,-z
-x,-y,z
-y,x,-z
1/2+y,1/2+x,1/2-z
1/2-y,1/2-x,1/2-z
1/2-x,1/2+y,1/2+z
1/2+x,1/2-y,1/2+z
loop_
_atom_site_type_symbol
_atom_site_label
_atom_site_fract_x
_atom_site_fract_y
_atom_site_fract_z
Si Si1 0.755683 0.505943 0.604091
Si Si2 0.176987 0.763124 0.923999
Si Si3 0.019239 0.821568 0.383211
Si Si4 0.878444 0.856796 0.407699
Si Si5 0.642646 0.912215 0.999458
Si Si6 0.645786 0.244868 0.248334
O O1 0.715761 0.479103 0.374519
O O2 0.826352 0.480517 0.551906
O O3 0.753030 0.581886 0.593307
O O4 0.725644 0.487002 0.874320
O O5 0.230009 0.730009 0.750000
O O6 0.140784 0.821251 0.790635
O O7 0.133046 0.705175 0.007791
O O8 0.211915 0.798625 0.143190
O O9 0.084214 0.860772 0.414094
O O10 0.953843 0.861944 0.361821
O O11 0.871846 0.783726 0.501619
O O12 0.606149 0.893852 0.250000
O O13 0.602659 0.897342 0.750000
O O14 0.674830 0.174830 0.250000
#
# Coordination Sequence:
#
# PCOD9558774 Si02
#       6
#     8   8   8   8   8   8
#     4  11  23  40  60  89 124 156 200 252 311 371
#     4  11  20  34  57  89 118 150 199 258 305 359
#     4  11  24  39  60  85 121 168 204 254 302 355
#     4  11  23  39  58  84 124 161 207 254 301 363
#     4  11  23  37  61  90 121 158 198 250 308 368
#     4  11  22  37  61  90 120 156 198 257 316 367
#
# _framework density 20.096240999999999
#
# number of rings (size 3 to 8) (size 9 to 14) (size 15 to 20)
#    0.000    1.000    5.000    2.500    4.667    0.333 
#    0.000    0.000    0.000    2.500    0.000    1.167 
#    0.000    0.000    0.000    0.000    0.000    0.000 
#
# Total GULP energy -267439.583617 kJ/mol
# GULP energy per Si atom -5571.657992 kJ/mol
# Density = 2.005050 g / cm^3
# Si number density = 20.096241 Si / 1000 Ang^3
#
#
#
# Elastic Constant Matrix: (Units=GPa)
#
#
# Indices 1 2 3 4 5 6 
#
# 1 43.3702 21.3029 14.3884 0.0000 0.0000 0.0000
# 2 21.3029 43.3649 14.3869 0.0000 0.0000 0.0000
# 3 14.3884 14.3869 91.9457 0.0000 0.0000 0.0000
# 4 0.0000 0.0000 0.0000 20.7324 0.0000 0.0000
# 5 0.0000 0.0000 0.0000 0.0000 20.7310 0.0000
# 6 0.0000 0.0000 0.0000 0.0000 0.0000 32.6348
#
#
#
# Elastic Compliance Matrix: (Units=1/GPa)
#
#
# Indices 1 2 3 4 5 6 
#
# 1 0.030969 -0.014351 -0.002601 0.000000 0.000000 0.000000
# 2 -0.014351 0.030973 -0.002601 0.000000 0.000000 0.000000
# 3 -0.002601 -0.002601 0.011690 0.000000 0.000000 0.000000
# 4 0.000000 0.000000 0.000000 0.048234 0.000000 0.000000
# 5 0.000000 0.000000 0.000000 0.000000 0.048237 0.000000
# 6 0.000000 0.000000 0.000000 0.000000 0.000000 0.030642
#
#
# Mechanical properties :
#
#
# Convention : Reuss Voigt Hill
#
# Bulk Modulus (GPa) = 28.96249 30.98191 29.97220
# Shear Modulus (GPa) = 19.89199 23.39314 21.64257
#
# Velocity S-wave (km/s) = 3.14958 3.41553 3.28525
# Velocity P-wave (km/s) = 5.26019 5.56818 5.41638
#
# Compressibility (1/GPa) = 0.03452742
#
# Stress axis : x y z
#
# Youngs Moduli (GPa) = 32.29038 32.28656 85.54391
#
# Poissons Ratio (x) = 0.46333 0.22248
# Poissons Ratio (y) = 0.46339 0.22247
# Poissons Ratio (z) = 0.08398 0.08397
#
# Static dielectric constant tensor:
#      x y z
#    x 1.821370 0.000000 0.000000 
#    y 0.000000 1.821370 0.000000 
#    z 0.000000 0.000000 1.784870 
# 
# From -- ./inp_files/803.got.cif
#   From: 2010.05.17/outbox.cif.g08.bks.cpg/sg118_1_cif.got.tgz:803.got - 2010.05.20 11:17:24.
