data_PCOD9558325
_publ_section_title
;
Structure prediction by ZEFSAII (Michael W. Deem and Ramdas Pophale) SiO2 
 PCOD9558325
Probable space group: P -4 B 2
;
_chemical_formula_sum "Si O2"
_cell_formula_units_Z 28
_cell_length_a 12.004968
_cell_length_b 12.004968
_cell_length_c 6.941841
_cell_angle_alpha 90.000000
_cell_angle_beta 90.000000
_cell_angle_gamma 90.000000
_cell_volume 1000.452965
_symmetry_space_group_name_H-M "P -4 B 2"
_symmetry_group_IT_number 117
_symmetry_cell_setting 'tetragonal'
loop_
_space_group_symop_operation_xyz
x,y,z
y,-x,-z
-x,-y,z
-y,x,-z
1/2+y,1/2+x,-z
1/2-y,1/2-x,-z
1/2-x,1/2+y,z
1/2+x,1/2-y,z
loop_
_atom_site_type_symbol
_atom_site_label
_atom_site_fract_x
_atom_site_fract_y
_atom_site_fract_z
Si Si1 0.000000 0.500000 0.000000
Si Si2 0.621273 0.878727 0.500000
Si Si3 0.132892 0.367109 0.500000
Si Si4 0.867077 0.852184 0.238603
Si Si5 0.763019 0.426119 0.876942
Si Si6 0.500000 0.500000 0.500000
O O1 0.879318 0.493190 0.901416
O O2 0.494950 0.864621 0.581118
O O3 0.628014 0.786736 0.332293
O O4 0.143314 0.263719 0.355388
O O5 0.773050 0.867589 0.076496
O O6 0.985834 0.835705 0.138134
O O7 0.893577 0.955971 0.378294
#
# Coordination Sequence:
#
# PCOD9558325 Si02
#       6
#     2   4   4   8   8   2
#     4  12  28  46  72 116 160 202 268 342 408 488
#     4   9  20  46  84 118 160 203 264 339 409 484
#     4   9  20  44  82 123 156 208 268 333 409 490
#     4  11  25  46  77 113 159 213 270 332 412 492
#     4  11  25  48  78 116 159 209 267 339 411 494
#     4  12  28  46  72 116 168 218 272 342 412 496
#
# _framework density 27.987321000000001
#
# number of rings (size 3 to 8) (size 9 to 14) (size 15 to 20)
#    0.000    1.429    0.000    5.143    0.000   12.571 
#    0.000    4.286    0.000   20.571    0.000    0.000 
#    0.000    0.000    0.000    0.000    0.000    0.000 
#
# Total GULP energy -156525.406187 kJ/mol
# GULP energy per Si atom -5590.193078 kJ/mol
# Density = 2.792362 g / cm^3
# Si number density = 27.987321 Si / 1000 Ang^3
#
#
#
# Elastic Constant Matrix: (Units=GPa)
#
#
# Indices 1 2 3 4 5 6 
#
# 1 134.1508 74.5064 97.4850 0.0000 0.0000 0.0000
# 2 74.5064 134.1510 97.4847 0.0000 0.0000 0.0000
# 3 97.4850 97.4847 173.5406 0.0000 0.0000 0.0000
# 4 0.0000 0.0000 0.0000 61.3985 0.0000 0.0000
# 5 0.0000 0.0000 0.0000 0.0000 61.3988 0.0000
# 6 0.0000 0.0000 0.0000 0.0000 0.0000 45.7541
#
#
#
# Elastic Compliance Matrix: (Units=1/GPa)
#
#
# Indices 1 2 3 4 5 6 
#
# 1 0.013427 -0.003339 -0.005666 0.000000 0.000000 0.000000
# 2 -0.003339 0.013427 -0.005666 0.000000 0.000000 0.000000
# 3 -0.005666 -0.005666 0.012128 0.000000 0.000000 0.000000
# 4 0.000000 0.000000 0.000000 0.016287 0.000000 0.000000
# 5 0.000000 0.000000 0.000000 0.000000 0.016287 0.000000
# 6 0.000000 0.000000 0.000000 0.000000 0.000000 0.021856
#
#
# Mechanical properties :
#
#
# Convention : Reuss Voigt Hill
#
# Bulk Modulus (GPa) = 103.76366 108.97717 106.37042
# Shear Modulus (GPa) = 39.69245 45.20138 42.44691
#
# Velocity S-wave (km/s) = 3.77002 4.02315 3.89864
# Velocity P-wave (km/s) = 7.49043 7.78483 7.63905
#
# Compressibility (1/GPa) = 0.00963728
#
# Stress axis : x y z
#
# Youngs Moduli (GPa) = 74.47857 74.47911 82.45066
#
# Poissons Ratio (x) = 0.24871 0.46720
# Poissons Ratio (y) = 0.24871 0.46720
# Poissons Ratio (z) = 0.42203 0.42203
#
# Static dielectric constant tensor:
#      x y z
#    x 2.248940 0.000000 0.000000 
#    y 0.000000 2.248940 0.000000 
#    z 0.000000 0.000000 2.298610 
# 
# From -- ./inp_files/2365.got.cif
#   From: 2010.05.17/outbox.cif.g08.bks.cpg/sg117_2_cif.got.tgz:2365.got - 2010.05.20 11:15:09.
