data_PCOD9558418
_publ_section_title
;
Structure prediction by ZEFSAII (Michael W. Deem and Ramdas Pophale) SiO2 
 PCOD9558418
Probable space group: P -4 N 2
;
_chemical_formula_sum "Si O2"
_cell_formula_units_Z 64
_cell_length_a 11.568519
_cell_length_b 11.568519
_cell_length_c 27.417423
_cell_angle_alpha 90.000000
_cell_angle_beta 90.000000
_cell_angle_gamma 90.000000
_cell_volume 3669.291044
_symmetry_space_group_name_H-M "P -4 N 2"
_symmetry_group_IT_number 118
_symmetry_cell_setting 'tetragonal'
loop_
_space_group_symop_operation_xyz
x,y,z
y,-x,-z
-x,-y,z
-y,x,-z
1/2+y,1/2+x,1/2-z
1/2-y,1/2-x,1/2-z
1/2-x,1/2+y,1/2+z
1/2+x,1/2-y,1/2+z
loop_
_atom_site_type_symbol
_atom_site_label
_atom_site_fract_x
_atom_site_fract_y
_atom_site_fract_z
Si Si1 0.386196 0.572314 0.793409
Si Si2 0.332083 0.761966 0.091039
Si Si3 0.228920 0.106345 0.392441
Si Si4 0.712210 0.018227 0.755841
Si Si5 0.804349 0.314460 0.318740
Si Si6 0.984690 0.363301 0.870804
Si Si7 0.352691 0.376246 0.007241
Si Si8 0.435341 0.782181 0.273686
O O1 0.500000 0.500000 0.807542
O O2 0.328897 0.630725 0.840449
O O3 0.416061 0.668961 0.753539
O O4 0.298775 0.484020 0.768036
O O5 0.465149 0.727309 0.104172
O O6 0.242832 0.697279 0.127676
O O7 0.323934 0.899930 0.100605
O O8 0.320512 0.726802 0.034575
O O9 0.361216 0.146794 0.395845
O O10 0.162373 0.162796 0.437330
O O11 0.603815 0.103815 0.750000
O O12 0.713650 0.918587 0.713345
O O13 0.707323 0.951315 0.807538
O O14 0.686243 0.263115 0.295577
O O15 0.000000 0.500000 0.861281
O O16 0.981829 0.297788 0.819390
O O17 0.343737 0.514611 0.004857
O O18 0.404073 0.904073 0.250000
#
# Coordination Sequence:
#
# PCOD9558418 Si02
#       8
#     8   8   8   8   8   8   8   8
#     4  12  23  34  53  81 116 153 183 225 280 335
#     4   9  18  34  60  78 102 145 188 226 285 339
#     4  10  21  32  52  81 114 137 178 235 288 329
#     4  11  23  35  53  78 113 150 185 231 269 322
#     4  10  18  37  55  74 103 148 196 218 264 332
#     4   9  19  33  52  79 107 141 176 225 277 331
#     4   9  19  33  53  83 107 134 178 237 287 342
#     4  11  19  33  53  79 106 146 188 217 261 340
#
# _framework density 17.442062
#
# number of rings (size 3 to 8) (size 9 to 14) (size 15 to 20)
#    0.000    1.875    2.500    3.750    7.000    1.250 
#    0.000    0.000    2.750    1.500    0.000    0.000 
#    0.000    0.000    0.000    0.000    0.000    0.000 
#
# Total GULP energy -356654.512157 kJ/mol
# GULP energy per Si atom -5572.726752 kJ/mol
# Density = 1.740236 g / cm^3
# Si number density = 17.442062 Si / 1000 Ang^3
#
#
#
# Elastic Constant Matrix: (Units=GPa)
#
#
# Indices 1 2 3 4 5 6 
#
# 1 42.8966 39.3796 27.1120 0.0000 0.0000 0.0000
# 2 39.3796 42.8966 27.1120 0.0000 0.0000 0.0000
# 3 27.1120 27.1120 92.6447 0.0000 0.0000 0.0000
# 4 0.0000 0.0000 0.0000 22.6464 0.0000 0.0000
# 5 0.0000 0.0000 0.0000 0.0000 22.6464 0.0000
# 6 0.0000 0.0000 0.0000 0.0000 0.0000 28.3991
#
#
#
# Elastic Compliance Matrix: (Units=1/GPa)
#
#
# Indices 1 2 3 4 5 6 
#
# 1 0.149696 -0.134638 -0.004407 0.000000 0.000000 0.000000
# 2 -0.134638 0.149696 -0.004407 0.000000 0.000000 0.000000
# 3 -0.004407 -0.004407 0.013373 0.000000 0.000000 0.000000
# 4 0.000000 0.000000 0.000000 0.044157 0.000000 0.000000
# 5 0.000000 0.000000 0.000000 0.000000 0.044157 0.000000
# 6 0.000000 0.000000 0.000000 0.000000 0.000000 0.035212
#
#
# Mechanical properties :
#
#
# Convention : Reuss Voigt Hill
#
# Bulk Modulus (GPa) = 38.66532 40.62724 39.64628
# Shear Modulus (GPa) = 6.83231 20.39400 13.61316
#
# Velocity S-wave (km/s) = 1.98133 3.42313 2.79674
# Velocity P-wave (km/s) = 5.23929 6.24235 5.76269
#
# Compressibility (1/GPa) = 0.02586297
#
# Stress axis : x y z
#
# Youngs Moduli (GPa) = 6.68018 6.68018 74.77652
#
# Poissons Ratio (x) = 0.89941 0.32952
# Poissons Ratio (y) = 0.89941 0.32952
# Poissons Ratio (z) = 0.02944 0.02944
#
# Static dielectric constant tensor:
#      x y z
#    x 1.624190 0.000000 0.000000 
#    y 0.000000 1.624190 0.000000 
#    z 0.000000 0.000000 1.603130 
# 
# From -- ./inp_files/6580.got.cif
#   From: 2010.05.17/outbox.cif.g08.bks.cpg/sg118_4_cif.got.tgz:6580.got - 2010.05.20 11:17:24.
