data_PCOD9558883
_publ_section_title
;
Structure prediction by ZEFSAII (Michael W. Deem and Ramdas Pophale) SiO2 
 PCOD9558883
Probable space group: P -4 N 2
;
_chemical_formula_sum "Si O2"
_cell_formula_units_Z 40
_cell_length_a 13.644392
_cell_length_b 13.644392
_cell_length_c 9.416303
_cell_angle_alpha 90.000000
_cell_angle_beta 90.000000
_cell_angle_gamma 90.000000
_cell_volume 1753.027791
_symmetry_space_group_name_H-M "P -4 N 2"
_symmetry_group_IT_number 118
_symmetry_cell_setting 'tetragonal'
loop_
_space_group_symop_operation_xyz
x,y,z
y,-x,-z
-x,-y,z
-y,x,-z
1/2+y,1/2+x,1/2-z
1/2-y,1/2-x,1/2-z
1/2-x,1/2+y,1/2+z
1/2+x,1/2-y,1/2+z
loop_
_atom_site_type_symbol
_atom_site_label
_atom_site_fract_x
_atom_site_fract_y
_atom_site_fract_z
Si Si1 0.143643 0.356358 0.250000
Si Si2 0.000000 0.500000 0.750000
Si Si3 0.536840 0.781810 0.328379
Si Si4 0.059465 0.692052 0.143563
Si Si5 0.500000 0.500000 0.000000
Si Si6 0.347133 0.646677 0.894278
Si Si7 0.678646 0.656130 0.769455
O O1 0.147483 0.450571 0.352443
O O2 0.246591 0.364902 0.170238
O O3 0.893680 0.498500 0.679344
O O4 0.589873 0.784875 0.481206
O O5 0.602115 0.744241 0.195124
O O6 0.441811 0.712074 0.311293
O O7 0.121020 0.621020 0.250000
O O8 0.078036 0.798172 0.211422
O O9 0.565358 0.567428 0.103755
O O10 0.343871 0.664686 0.062248
O O11 0.766433 0.733568 0.750000
#
# Coordination Sequence:
#
# PCOD9558883 Si02
#       7
#     4   2   8   8   2   8   8
#     4  12  28  46  80 110 160 212 264 338 412 494
#     4  12  30  44  78 110 152 202 276 348 408 502
#     4  12  28  48  78 113 156 212 272 341 419 499
#     4  11  29  48  78 113 160 209 272 337 410 502
#     4  12  24  52  84 118 160 216 280 358 408 524
#     4  12  27  48  81 116 154 215 273 334 425 500
#     4  11  25  50  76 109 158 204 268 341 414 489
#
# _framework density 22.817665999999999
#
# number of rings (size 3 to 8) (size 9 to 14) (size 15 to 20)
#    0.000    0.400    3.000    3.300   16.800    0.000 
#    0.000    0.000    0.000    0.000    0.000    0.000 
#    0.000    0.000    0.000    0.000    0.000    0.000 
#
# Total GULP energy -222993.633314 kJ/mol
# GULP energy per Si atom -5574.840833 kJ/mol
# Density = 2.276573 g / cm^3
# Si number density = 22.817666 Si / 1000 Ang^3
#
#
#
# Elastic Constant Matrix: (Units=GPa)
#
#
# Indices 1 2 3 4 5 6 
#
# 1 110.5690 44.9769 47.6560 0.0000 0.0000 0.0000
# 2 44.9769 110.5686 47.6562 0.0000 0.0000 0.0000
# 3 47.6560 47.6562 155.4604 0.0000 0.0000 0.0000
# 4 0.0000 0.0000 0.0000 37.3340 0.0000 0.0000
# 5 0.0000 0.0000 0.0000 0.0000 37.3343 0.0000
# 6 0.0000 0.0000 0.0000 0.0000 0.0000 54.6599
#
#
#
# Elastic Compliance Matrix: (Units=1/GPa)
#
#
# Indices 1 2 3 4 5 6 
#
# 1 0.011581 -0.003665 -0.002427 0.000000 0.000000 0.000000
# 2 -0.003665 0.011581 -0.002427 0.000000 0.000000 0.000000
# 3 -0.002427 -0.002427 0.007920 0.000000 0.000000 0.000000
# 4 0.000000 0.000000 0.000000 0.026785 0.000000 0.000000
# 5 0.000000 0.000000 0.000000 0.000000 0.026785 0.000000
# 6 0.000000 0.000000 0.000000 0.000000 0.000000 0.018295
#
#
# Mechanical properties :
#
#
# Convention : Reuss Voigt Hill
#
# Bulk Modulus (GPa) = 71.19649 73.01958 72.10803
# Shear Modulus (GPa) = 40.10737 41.61956 40.86346
#
# Velocity S-wave (km/s) = 4.19708 4.27547 4.23646
# Velocity P-wave (km/s) = 7.39983 7.51290 7.45658
#
# Compressibility (1/GPa) = 0.01404564
#
# Stress axis : x y z
#
# Youngs Moduli (GPa) = 86.34968 86.34921 126.25862
#
# Poissons Ratio (x) = 0.31647 0.30638
# Poissons Ratio (y) = 0.31647 0.30638
# Poissons Ratio (z) = 0.20953 0.20954
#
# Static dielectric constant tensor:
#      x y z
#    x 1.966780 0.000000 0.000000 
#    y 0.000000 1.966780 0.000000 
#    z 0.000000 0.000000 1.974640 
# 
# From -- ./inp_files/1967.got.cif
#   From: 2010.05.17/outbox.cif.g08.bks.cpg/sg118_1_cif.got.tgz:1967.got - 2010.05.20 11:17:24.
