data_PCOD9558555
_publ_section_title
;
Structure prediction by ZEFSAII (Michael W. Deem and Ramdas Pophale) SiO2 
 PCOD9558555
Probable space group: P -4 N 2
;
_chemical_formula_sum "Si O2"
_cell_formula_units_Z 24
_cell_length_a 11.948324
_cell_length_b 11.948324
_cell_length_c 7.920906
_cell_angle_alpha 90.000000
_cell_angle_beta 90.000000
_cell_angle_gamma 90.000000
_cell_volume 1130.807918
_symmetry_space_group_name_H-M "P -4 N 2"
_symmetry_group_IT_number 118
_symmetry_cell_setting 'tetragonal'
loop_
_space_group_symop_operation_xyz
x,y,z
y,-x,-z
-x,-y,z
-y,x,-z
1/2+y,1/2+x,1/2-z
1/2-y,1/2-x,1/2-z
1/2-x,1/2+y,1/2+z
1/2+x,1/2-y,1/2+z
loop_
_atom_site_type_symbol
_atom_site_label
_atom_site_fract_x
_atom_site_fract_y
_atom_site_fract_z
Si Si1 0.000000 0.000000 0.500000
Si Si2 0.227703 0.727703 0.250000
Si Si3 0.763211 0.012823 0.660749
Si Si4 0.592231 0.182111 0.481037
Si Si5 0.000000 0.500000 0.750000
O O1 0.891297 0.028965 0.610252
O O2 0.230266 0.616664 0.138173
O O3 0.339298 0.733187 0.363259
O O4 0.683348 0.092662 0.551267
O O5 0.739377 0.038883 0.856776
O O6 0.507438 0.109629 0.367752
#
# Coordination Sequence:
#
# PCOD9558555 Si02
#       5
#     2   4   8   8   2
#     4  12  24  44  70 100 144 176 226 276 352 386
#     4  11  22  40  66  97 132 176 224 277 336 404
#     4  11  23  44  66  97 135 181 222 281 330 410
#     4  10  23  42  67  97 132 179 230 272 339 399
#     4  10  20  42  68  98 132 172 228 284 324 406
#
# _framework density 21.223763000000002
#
# number of rings (size 3 to 8) (size 9 to 14) (size 15 to 20)
#    0.000    1.333    3.333    2.000    0.000    5.333 
#    6.000    0.000    0.000    0.000    0.000    0.000 
#    0.000    0.000    0.000    0.000    0.000    0.000 
#
# Total GULP energy -134231.786240 kJ/mol
# GULP energy per Si atom -5592.991093 kJ/mol
# Density = 2.117546 g / cm^3
# Si number density = 21.223763 Si / 1000 Ang^3
#
#
#
# Elastic Constant Matrix: (Units=GPa)
#
#
# Indices 1 2 3 4 5 6 
#
# 1 76.8314 60.6295 37.7514 0.0000 0.0000 0.0000
# 2 60.6295 76.8314 37.7514 0.0000 0.0000 0.0000
# 3 37.7514 37.7514 108.7380 0.0000 0.0000 0.0000
# 4 0.0000 0.0000 0.0000 19.9356 0.0000 0.0000
# 5 0.0000 0.0000 0.0000 0.0000 19.9356 0.0000
# 6 0.0000 0.0000 0.0000 0.0000 0.0000 35.3939
#
#
#
# Elastic Compliance Matrix: (Units=1/GPa)
#
#
# Indices 1 2 3 4 5 6 
#
# 1 0.035355 -0.026366 -0.003121 0.000000 0.000000 0.000000
# 2 -0.026366 0.035355 -0.003121 0.000000 0.000000 0.000000
# 3 -0.003121 -0.003121 0.011363 0.000000 0.000000 0.000000
# 4 0.000000 0.000000 0.000000 0.050162 0.000000 0.000000
# 5 0.000000 0.000000 0.000000 0.000000 0.050162 0.000000
# 6 0.000000 0.000000 0.000000 0.000000 0.000000 0.028253
#
#
# Mechanical properties :
#
#
# Convention : Reuss Voigt Hill
#
# Bulk Modulus (GPa) = 59.31845 59.40727 59.36286
# Shear Modulus (GPa) = 17.76293 23.47089 20.61691
#
# Velocity S-wave (km/s) = 2.89612 3.32908 3.12012
# Velocity P-wave (km/s) = 6.26044 6.54437 6.40398
#
# Compressibility (1/GPa) = 0.01685816
#
# Stress axis : x y z
#
# Youngs Moduli (GPa) = 28.28443 28.28443 88.00231
#
# Poissons Ratio (x) = 0.74575 0.27463
# Poissons Ratio (y) = 0.74575 0.27463
# Poissons Ratio (z) = 0.08827 0.08827
#
# Static dielectric constant tensor:
#      x y z
#    x 1.747620 0.000000 0.000000 
#    y 0.000000 1.747620 0.000000 
#    z 0.000000 0.000000 1.745570 
# 
# From -- ./inp_files/1433.got.cif
#   From: 2010.05.17/outbox.cif.g08.bks.cpg/sg118_1_cif.got.tgz:1433.got - 2010.05.20 11:17:24.
