data_PCOD9558003
_publ_section_title
;
Structure prediction by ZEFSAII (Michael W. Deem and Ramdas Pophale) SiO2 
 PCOD9558003
Probable space group: P -4 C 2
;
_chemical_formula_sum "Si O2"
_cell_formula_units_Z 22
_cell_length_a 5.276614
_cell_length_b 5.276614
_cell_length_c 31.967660
_cell_angle_alpha 90.000000
_cell_angle_beta 90.000000
_cell_angle_gamma 90.000000
_cell_volume 890.064538
_symmetry_space_group_name_H-M "P -4 C 2"
_symmetry_group_IT_number 116
_symmetry_cell_setting 'tetragonal'
loop_
_space_group_symop_operation_xyz
x,y,z
y,-x,-z
-x,-y,z
-y,x,-z
y,x,1/2-z
-y,-x,1/2-z
-x,y,1/2+z
x,-y,1/2+z
loop_
_atom_site_type_symbol
_atom_site_label
_atom_site_fract_x
_atom_site_fract_y
_atom_site_fract_z
Si Si1 0.242017 0.162600 0.933785
Si Si2 0.500000 0.500000 0.000000
Si Si3 0.832491 0.744024 0.203320
Si Si4 0.500000 0.000000 0.137447
O O1 0.147869 0.303568 0.892046
O O2 0.500000 0.000000 0.927488
O O3 0.303123 0.364965 0.969504
O O4 0.000000 0.000000 0.946935
O O5 0.719451 0.719451 0.250000
O O6 0.000000 0.500000 0.194597
O O7 0.629568 0.796305 0.167685
O O8 0.000000 0.000000 0.203544
#
# Coordination Sequence:
#
# PCOD9558003 Si02
#       4
#     8   2   8   4
#     4  12  31  53  85 128 171 228 292 364 447 533
#     4  12  32  52  84 120 170 228 284 368 436 544
#     4  11  26  50  82 122 169 231 292 359 432 520
#     4  12  28  54  86 126 178 224 296 366 440 530
#
# _framework density 24.717309
#
# number of rings (size 3 to 8) (size 9 to 14) (size 15 to 20)
#    0.000    0.364    1.818    3.273    7.636   16.000 
#    0.000    0.000    0.000    0.000    0.000    0.000 
#    0.000    0.000    0.000    0.000    0.000    0.000 
#
# Total GULP energy -123632.782982 kJ/mol
# GULP energy per Si atom -5619.671954 kJ/mol
# Density = 2.466105 g / cm^3
# Si number density = 24.717309 Si / 1000 Ang^3
#
#
#
# Elastic Constant Matrix: (Units=GPa)
#
#
# Indices 1 2 3 4 5 6 
#
# 1 163.9887 85.8661 73.8554 0.0000 0.0000 0.0000
# 2 85.8661 163.9887 73.8554 0.0000 0.0000 0.0000
# 3 73.8554 73.8554 195.3083 0.0000 0.0000 0.0000
# 4 0.0000 0.0000 0.0000 8.0803 0.0000 0.0000
# 5 0.0000 0.0000 0.0000 0.0000 8.0803 0.0000
# 6 0.0000 0.0000 0.0000 0.0000 0.0000 71.4869
#
#
#
# Elastic Compliance Matrix: (Units=1/GPa)
#
#
# Indices 1 2 3 4 5 6 
#
# 1 0.008978 -0.003823 -0.001949 0.000000 0.000000 0.000000
# 2 -0.003823 0.008978 -0.001949 0.000000 0.000000 0.000000
# 3 -0.001949 -0.001949 0.006594 0.000000 0.000000 0.000000
# 4 0.000000 0.000000 0.000000 0.123757 0.000000 0.000000
# 5 0.000000 0.000000 0.000000 0.000000 0.123757 0.000000
# 6 0.000000 0.000000 0.000000 0.000000 0.000000 0.013989
#
#
# Mechanical properties :
#
#
# Convention : Reuss Voigt Hill
#
# Bulk Modulus (GPa) = 109.80869 110.04881 109.92875
# Shear Modulus (GPa) = 16.41872 36.84345 26.63108
#
# Velocity S-wave (km/s) = 2.58012 3.86501 3.28598
# Velocity P-wave (km/s) = 7.30741 8.03351 7.67905
#
# Compressibility (1/GPa) = 0.00910675
#
# Stress axis : x y z
#
# Youngs Moduli (GPa) = 111.38914 111.38914 151.64605
#
# Poissons Ratio (x) = 0.42582 0.29559
# Poissons Ratio (y) = 0.42582 0.29559
# Poissons Ratio (z) = 0.21712 0.21712
#
# Static dielectric constant tensor:
#      x y z
#    x 1.888670 0.000000 0.000000 
#    y 0.000000 1.888670 0.000000 
#    z 0.000000 0.000000 1.915620 
# 
# From -- ./inp_files/5053.got.cif
#   From: 2010.05.17/outbox.cif.g08.bks.cpg/sg116_3_cif.got.tgz:5053.got - 2010.05.20 11:11:43.
