data_PCOD9558375
_publ_section_title
;
Structure prediction by ZEFSAII (Michael W. Deem and Ramdas Pophale) SiO2 
 PCOD9558375
Probable space group: P -4 N 2
;
_chemical_formula_sum "Si O2"
_cell_formula_units_Z 52
_cell_length_a 19.661523
_cell_length_b 19.661523
_cell_length_c 5.863170
_cell_angle_alpha 90.000000
_cell_angle_beta 90.000000
_cell_angle_gamma 90.000000
_cell_volume 2266.557796
_symmetry_space_group_name_H-M "P -4 N 2"
_symmetry_group_IT_number 118
_symmetry_cell_setting 'tetragonal'
loop_
_space_group_symop_operation_xyz
x,y,z
y,-x,-z
-x,-y,z
-y,x,-z
1/2+y,1/2+x,1/2-z
1/2-y,1/2-x,1/2-z
1/2-x,1/2+y,1/2+z
1/2+x,1/2-y,1/2+z
loop_
_atom_site_type_symbol
_atom_site_label
_atom_site_fract_x
_atom_site_fract_y
_atom_site_fract_z
Si Si1 0.945887 0.734995 0.520138
Si Si2 0.288823 0.341482 0.367605
Si Si3 0.324016 0.175985 0.750000
Si Si4 0.312174 0.187827 0.250000
Si Si5 0.030460 0.160633 0.937639
Si Si6 0.331590 0.831590 0.250000
Si Si7 0.410444 0.543338 0.908964
Si Si8 0.715456 0.426602 0.187851
O O1 0.891082 0.758298 0.328774
O O2 0.956659 0.790704 0.718311
O O3 0.905407 0.674542 0.637331
O O4 0.021664 0.728457 0.421379
O O5 0.316823 0.270318 0.273598
O O6 0.345384 0.393571 0.464863
O O7 0.229057 0.326835 0.557781
O O8 0.342221 0.157950 0.485302
O O9 0.353991 0.252568 0.753587
O O10 0.994780 0.096689 0.827837
O O11 0.973933 0.193509 0.100718
O O12 0.346468 0.582579 0.011427
O O13 0.479532 0.583787 0.917542
#
# Coordination Sequence:
#
# PCOD9558375 Si02
#       8
#     8   8   4   4   8   4   8   8
#     4   9  18  34  60  88 128 168 218 272 351 420
#     4  10  19  34  58  96 136 167 220 282 369 414
#     4  12  31  44  68  94 143 189 241 281 358 431
#     4  12  26  40  64 104 138 178 222 300 354 428
#     4   9  21  38  63  88 130 177 224 287 348 427
#     4  10  15  30  58  96 129 169 209 282 350 428
#     4  10  23  42  64  91 130 181 246 305 351 411
#     4  10  24  45  61  94 128 189 232 289 356 434
#
# _framework density 22.942278000000002
#
# number of rings (size 3 to 8) (size 9 to 14) (size 15 to 20)
#    0.000    2.000    1.538    0.462    8.615    3.692 
#    0.000    1.538    0.000    0.000    0.000   31.231 
#    0.000    0.000    0.000    0.000    0.000    0.000 
#
# Total GULP energy -289904.568014 kJ/mol
# GULP energy per Si atom -5575.087846 kJ/mol
# Density = 2.289006 g / cm^3
# Si number density = 22.942278 Si / 1000 Ang^3
#
#
#
# Elastic Constant Matrix: (Units=GPa)
#
#
# Indices 1 2 3 4 5 6 
#
# 1 86.2924 59.9881 24.5841 0.0000 0.0000 0.0000
# 2 59.9881 86.2984 24.5853 0.0000 0.0000 0.0000
# 3 24.5841 24.5853 125.0603 0.0000 0.0000 0.0000
# 4 0.0000 0.0000 0.0000 35.1154 0.0000 0.0000
# 5 0.0000 0.0000 0.0000 0.0000 35.1147 0.0000
# 6 0.0000 0.0000 0.0000 0.0000 0.0000 48.9377
#
#
#
# Elastic Compliance Matrix: (Units=1/GPa)
#
#
# Indices 1 2 3 4 5 6 
#
# 1 0.022667 -0.015346 -0.001439 0.000000 0.000000 0.000000
# 2 -0.015346 0.022665 -0.001439 0.000000 0.000000 0.000000
# 3 -0.001439 -0.001439 0.008562 0.000000 0.000000 0.000000
# 4 0.000000 0.000000 0.000000 0.028478 0.000000 0.000000
# 5 0.000000 0.000000 0.000000 0.000000 0.028478 0.000000
# 6 0.000000 0.000000 0.000000 0.000000 0.000000 0.020434
#
#
# Mechanical properties :
#
#
# Convention : Reuss Voigt Hill
#
# Bulk Modulus (GPa) = 57.32114 57.32957 57.32535
# Shear Modulus (GPa) = 28.81061 36.39979 32.60520
#
# Velocity S-wave (km/s) = 3.54755 3.98751 3.77395
# Velocity P-wave (km/s) = 6.46679 6.80024 6.63561
#
# Compressibility (1/GPa) = 0.01744557
#
# Stress axis : x y z
#
# Youngs Moduli (GPa) = 44.11745 44.12048 116.79676
#
# Poissons Ratio (x) = 0.67709 0.16806
# Poissons Ratio (y) = 0.67704 0.16806
# Poissons Ratio (z) = 0.06348 0.06349
#
# Static dielectric constant tensor:
#      x y z
#    x 1.863980 0.000000 0.000000 
#    y 0.000000 1.863970 0.000000 
#    z 0.000000 0.000000 2.066430 
# 
# From -- ./inp_files/908.got.cif
#   From: 2010.05.17/outbox.cif.g08.bks.cpg/sg118_1_cif.got.tgz:908.got - 2010.05.20 11:17:24.
