data_PCOD9558972
_publ_section_title
;
Structure prediction by ZEFSAII (Michael W. Deem and Ramdas Pophale) SiO2 
 PCOD9558972
Probable space group: I -4 M 2
;
_chemical_formula_sum "Si O2"
_cell_formula_units_Z 112
_cell_length_a 17.859900
_cell_length_b 17.859900
_cell_length_c 21.158458
_cell_angle_alpha 90.000000
_cell_angle_beta 90.000000
_cell_angle_gamma 90.000000
_cell_volume 6749.040892
_symmetry_space_group_name_H-M "I -4 M 2"
_symmetry_group_IT_number 119
_symmetry_cell_setting 'tetragonal'
loop_
_space_group_symop_operation_xyz
x,y,z
y,-x,-z
-x,-y,z
-y,x,-z
y,x,-z
-y,-x,-z
-x,y,z
x,-y,z
1/2+x,1/2+y,1/2+z
1/2+y,1/2-x,1/2-z
1/2-x,1/2-y,1/2+z
1/2-y,1/2+x,1/2-z
1/2+y,1/2+x,1/2-z
1/2-y,1/2-x,1/2-z
1/2-x,1/2+y,1/2+z
1/2+x,1/2-y,1/2+z
loop_
_atom_site_type_symbol
_atom_site_label
_atom_site_fract_x
_atom_site_fract_y
_atom_site_fract_z
Si Si1 0.913891 0.698612 0.609475
Si Si2 0.810249 0.303061 0.157317
Si Si3 0.232705 0.644636 0.662731
Si Si4 0.912037 0.801013 0.964150
Si Si5 0.088110 0.771179 0.249217
Si Si6 0.414181 0.313205 0.219744
Si Si7 0.806387 0.319976 0.012256
O O1 0.852846 0.642628 0.640108
O O2 0.907862 0.775389 0.650532
O O3 0.886768 0.706687 0.536972
O O4 0.000000 0.674538 0.613297
O O5 0.753168 0.232969 0.165924
O O6 0.886159 0.263581 0.181835
O O7 0.783231 0.369761 0.201790
O O8 0.808990 0.332882 0.086501
O O9 0.288247 0.611536 0.609077
O O10 0.248909 0.604887 0.728642
O O11 0.000000 0.811869 0.969378
O O12 0.866148 0.866148 0.000000
O O13 0.882496 0.724019 0.995144
O O14 0.124014 0.852666 0.263736
O O15 0.000000 0.772715 0.255707
O O16 0.500000 0.338279 0.227958
O O17 0.740472 0.259529 0.000000
#
# Coordination Sequence:
#
# PCOD9558972 Si02
#       7
#    16  16  16  16  16  16  16
#     4  10  19  30  52  84 108 132 180 237 276 315
#     4  10  18  35  57  74 103 143 187 228 264 323
#     4  10  17  34  54  74 104 146 190 225 261 328
#     4  10  19  31  49  76 106 142 181 222 274 324
#     4  10  21  34  54  84 110 138 182 231 274 321
#     4  10  19  32  53  80 112 148 177 216 273 331
#     4  10  17  33  53  74 101 143 184 227 266 326
#
# _framework density 16.594950000000001
#
# number of rings (size 3 to 8) (size 9 to 14) (size 15 to 20)
#    0.000    2.000    5.714    0.857    0.000    1.571 
#    0.000    0.000    0.000   15.857    0.000   18.000 
#    0.000    0.000    0.000    0.000    0.000    0.000 
#
# Total GULP energy -311827.462910 kJ/mol
# GULP energy per Si atom -5568.347552 kJ/mol
# Density = 1.655718 g / cm^3
# Si number density = 16.594950 Si / 1000 Ang^3
#
#
#
# Elastic Constant Matrix: (Units=GPa)
#
#
# Indices 1 2 3 4 5 6 
#
# 1 113.6923 40.5020 35.4381 0.0000 0.0000 0.0000
# 2 40.5020 113.6923 35.4382 0.0000 0.0000 0.0000
# 3 35.4381 35.4382 114.4574 0.0000 0.0000 0.0000
# 4 0.0000 0.0000 0.0000 19.6238 0.0000 0.0000
# 5 0.0000 0.0000 0.0000 0.0000 19.6238 0.0000
# 6 0.0000 0.0000 0.0000 0.0000 0.0000 10.2007
#
#
#
# Elastic Compliance Matrix: (Units=1/GPa)
#
#
# Indices 1 2 3 4 5 6 
#
# 1 0.010612 -0.003051 -0.002341 0.000000 0.000000 0.000000
# 2 -0.003051 0.010612 -0.002341 0.000000 0.000000 0.000000
# 3 -0.002341 -0.002341 0.010187 0.000000 0.000000 0.000000
# 4 0.000000 0.000000 0.000000 0.050958 0.000000 0.000000
# 5 0.000000 0.000000 0.000000 0.000000 0.050959 0.000000
# 6 0.000000 0.000000 0.000000 0.000000 0.000000 0.098032
#
#
# Mechanical properties :
#
#
# Convention : Reuss Voigt Hill
#
# Bulk Modulus (GPa) = 62.71615 62.73317 62.72466
# Shear Modulus (GPa) = 19.83014 25.25392 22.54203
#
# Velocity S-wave (km/s) = 3.46056 3.90524 3.68960
# Velocity P-wave (km/s) = 7.33768 7.63015 7.48534
#
# Compressibility (1/GPa) = 0.01594486
#
# Stress axis : x y z
#
# Youngs Moduli (GPa) = 94.23096 94.23084 98.16799
#
# Poissons Ratio (x) = 0.28748 0.22983
# Poissons Ratio (y) = 0.28748 0.22983
# Poissons Ratio (z) = 0.22061 0.22061
#
# Static dielectric constant tensor:
#      x y z
#    x 1.555660 0.000000 0.000000 
#    y 0.000000 1.555670 0.000000 
#    z 0.000000 0.000000 1.621090 
# 
# From -- ./inp_files/8029.got.cif
#   From: 2010.05.17/outbox.cif.g08.bks.cpg/sg119_5_cif.got.tgz:8029.got - 2010.05.20 11:21:29.
