data_PCOD9558081
_publ_section_title
;
Structure prediction by ZEFSAII (Michael W. Deem and Ramdas Pophale) SiO2 
 PCOD9558081
Probable space group: P -4 B 2
;
_chemical_formula_sum "Si O2"
_cell_formula_units_Z 40
_cell_length_a 19.030069
_cell_length_b 19.030069
_cell_length_c 4.791218
_cell_angle_alpha 90.000000
_cell_angle_beta 90.000000
_cell_angle_gamma 90.000000
_cell_volume 1735.108581
_symmetry_space_group_name_H-M "P -4 B 2"
_symmetry_group_IT_number 117
_symmetry_cell_setting 'tetragonal'
loop_
_space_group_symop_operation_xyz
x,y,z
y,-x,-z
-x,-y,z
-y,x,-z
1/2+y,1/2+x,-z
1/2-y,1/2-x,-z
1/2-x,1/2+y,z
1/2+x,1/2-y,z
loop_
_atom_site_type_symbol
_atom_site_label
_atom_site_fract_x
_atom_site_fract_y
_atom_site_fract_z
Si Si1 0.366377 0.525918 0.169084
Si Si2 0.935613 0.564388 0.500000
Si Si3 0.947388 0.712570 0.205381
Si Si4 0.000000 0.500000 0.000000
Si Si5 0.287411 0.383995 0.282036
Si Si6 0.796819 0.914861 0.680073
Si Si7 0.000000 0.000000 0.500000
O O1 0.339300 0.447182 0.198554
O O2 0.312228 0.572568 0.354430
O O3 0.441512 0.533706 0.302751
O O4 0.359130 0.548267 0.853239
O O5 0.943900 0.636428 0.337541
O O6 0.992001 0.560163 0.760571
O O7 0.902231 0.764115 0.405738
O O8 0.030682 0.735281 0.222136
O O9 0.905406 0.721624 0.914708
O O10 0.331738 0.311330 0.261319
#
# Coordination Sequence:
#
# PCOD9558081 Si02
#       7
#     8   4   8   2   8   8   2
#     4  10  21  26  42  65 108 157 213 262 300 342
#     4  11  22  46  70 104 126 150 214 269 370 396
#     4  10  22  36  61  87 123 166 203 271 313 398
#     4  10  24  42  80 102 120 142 176 286 340 412
#     4  10  19  33  50  80 118 166 207 247 310 377
#     4  10  20  34  46  77 115 161 212 248 306 371
#     4  12  20  26  40  66 104 170 208 282 296 342
#
# _framework density 23.053311999999998
#
# number of rings (size 3 to 8) (size 9 to 14) (size 15 to 20)
#    0.000    1.800    2.000    2.400    5.600    0.800 
#    0.000    0.000    0.000    4.800    0.000    1.400 
#    0.000    0.000    0.000    0.000    0.000    0.000 
#
# Total GULP energy -222683.784139 kJ/mol
# GULP energy per Si atom -5567.094603 kJ/mol
# Density = 2.300084 g / cm^3
# Si number density = 23.053312 Si / 1000 Ang^3
#
#
#
# Elastic Constant Matrix: (Units=GPa)
#
#
# Indices 1 2 3 4 5 6 
#
# 1 42.5543 33.6854 11.3660 0.0000 0.0000 0.0000
# 2 33.6854 42.5523 11.3663 0.0000 0.0000 0.0000
# 3 11.3660 11.3663 98.8906 0.0000 0.0000 0.0000
# 4 0.0000 0.0000 0.0000 25.7955 0.0000 0.0000
# 5 0.0000 0.0000 0.0000 0.0000 25.7955 0.0000
# 6 0.0000 0.0000 0.0000 0.0000 0.0000 15.2186
#
#
#
# Elastic Compliance Matrix: (Units=1/GPa)
#
#
# Indices 1 2 3 4 5 6 
#
# 1 0.063173 -0.049592 -0.001561 0.000000 0.000000 0.000000
# 2 -0.049592 0.063176 -0.001561 0.000000 0.000000 0.000000
# 3 -0.001561 -0.001561 0.010471 0.000000 0.000000 0.000000
# 4 0.000000 0.000000 0.000000 0.038766 0.000000 0.000000
# 5 0.000000 0.000000 0.000000 0.000000 0.038766 0.000000
# 6 0.000000 0.000000 0.000000 0.000000 0.000000 0.065709
#
#
# Mechanical properties :
#
#
# Convention : Reuss Voigt Hill
#
# Bulk Modulus (GPa) = 31.85627 32.98143 32.41885
# Shear Modulus (GPa) = 12.62773 21.86723 17.24748
#
# Velocity S-wave (km/s) = 2.34297 3.08320 2.73821
# Velocity P-wave (km/s) = 4.60086 5.19735 4.90817
#
# Compressibility (1/GPa) = 0.03139100
#
# Stress axis : x y z
#
# Youngs Moduli (GPa) = 15.82962 15.82881 95.50155
#
# Poissons Ratio (x) = 0.78499 0.14905
# Poissons Ratio (y) = 0.78503 0.14912
# Poissons Ratio (z) = 0.02471 0.02472
#
# Static dielectric constant tensor:
#      x y z
#    x 1.934830 0.000000 0.000000 
#    y 0.000000 1.934830 0.000000 
#    z 0.000000 0.000000 1.924310 
# 
# From -- ./inp_files/743.got.cif
#   From: 2010.05.17/outbox.cif.g08.bks.cpg/sg117_1_cif.got.tgz:743.got - 2010.05.20 11:15:09.
