data_PCOD9558969
_publ_section_title
;
Structure prediction by ZEFSAII (Michael W. Deem and Ramdas Pophale) SiO2 
 PCOD9558969
Probable space group: I -4 M 2
;
_chemical_formula_sum "Si O2"
_cell_formula_units_Z 80
_cell_length_a 18.089173
_cell_length_b 18.089173
_cell_length_c 13.921547
_cell_angle_alpha 90.000000
_cell_angle_beta 90.000000
_cell_angle_gamma 90.000000
_cell_volume 4555.383270
_symmetry_space_group_name_H-M "I -4 M 2"
_symmetry_group_IT_number 119
_symmetry_cell_setting 'tetragonal'
loop_
_space_group_symop_operation_xyz
x,y,z
y,-x,-z
-x,-y,z
-y,x,-z
y,x,-z
-y,-x,-z
-x,y,z
x,-y,z
1/2+x,1/2+y,1/2+z
1/2+y,1/2-x,1/2-z
1/2-x,1/2-y,1/2+z
1/2-y,1/2+x,1/2-z
1/2+y,1/2+x,1/2-z
1/2-y,1/2-x,1/2-z
1/2-x,1/2+y,1/2+z
1/2+x,1/2-y,1/2+z
loop_
_atom_site_type_symbol
_atom_site_label
_atom_site_fract_x
_atom_site_fract_y
_atom_site_fract_z
Si Si1 0.294374 0.678453 0.894767
Si Si2 0.419287 0.777317 0.811842
Si Si3 0.083731 0.349185 0.101916
Si Si4 0.237645 0.143268 0.058483
Si Si5 0.710882 0.084292 0.252414
O O1 0.353720 0.720858 0.830677
O O2 0.223477 0.731924 0.908074
O O3 0.261567 0.607281 0.842635
O O4 0.329465 0.670535 0.000000
O O5 0.500000 0.745737 0.832359
O O6 0.406551 0.850077 0.878245
O O7 0.417004 0.803375 0.701533
O O8 0.000000 0.378536 0.088101
O O9 0.106827 0.296083 0.014875
O O10 0.240473 0.096609 0.155942
O O11 0.162876 0.162876 0.000000
O O12 0.641722 0.141722 0.250000
O O13 0.685868 0.000000 0.258029
#
# Coordination Sequence:
#
# PCOD9558969 Si02
#       5
#    16  16  16  16  16
#     4  10  19  34  55  77 103 148 198 240 265 320
#     4  10  20  33  52  78 110 145 187 232 279 329
#     4  10  19  31  50  78 113 144 176 221 278 340
#     4  10  17  32  56  79 105 147 188 233 272 330
#     4  10  22  36  56  86 119 153 188 232 285 345
#
# _framework density 17.561639
#
# number of rings (size 3 to 8) (size 9 to 14) (size 15 to 20)
#    0.000    2.000    4.000    1.800    5.600    1.400 
#    0.000    2.000    0.000    3.000    0.000    1.400 
#    0.000    5.200    0.000    0.000    0.000    0.000 
#
# Total GULP energy -222843.098478 kJ/mol
# GULP energy per Si atom -5571.077462 kJ/mol
# Density = 1.752167 g / cm^3
# Si number density = 17.561639 Si / 1000 Ang^3
#
#
#
# Elastic Constant Matrix: (Units=GPa)
#
#
# Indices 1 2 3 4 5 6 
#
# 1 48.8932 38.3299 18.6719 0.0000 0.0000 0.0000
# 2 38.3299 48.8932 18.6718 0.0000 0.0000 0.0000
# 3 18.6719 18.6718 77.6567 0.0000 0.0000 0.0000
# 4 0.0000 0.0000 0.0000 11.7678 0.0000 0.0000
# 5 0.0000 0.0000 0.0000 0.0000 11.7676 0.0000
# 6 0.0000 0.0000 0.0000 0.0000 0.0000 11.4963
#
#
#
# Elastic Compliance Matrix: (Units=1/GPa)
#
#
# Indices 1 2 3 4 5 6 
#
# 1 0.053724 -0.040944 -0.003073 0.000000 0.000000 0.000000
# 2 -0.040944 0.053724 -0.003073 0.000000 0.000000 0.000000
# 3 -0.003073 -0.003073 0.014355 0.000000 0.000000 0.000000
# 4 0.000000 0.000000 0.000000 0.084978 0.000000 0.000000
# 5 0.000000 0.000000 0.000000 0.000000 0.084979 0.000000
# 6 0.000000 0.000000 0.000000 0.000000 0.000000 0.086984
#
#
# Mechanical properties :
#
#
# Convention : Reuss Voigt Hill
#
# Bulk Modulus (GPa) = 36.20027 36.31004 36.25516
# Shear Modulus (GPa) = 10.37060 13.65762 12.01411
#
# Velocity S-wave (km/s) = 2.43271 2.79175 2.61839
# Velocity P-wave (km/s) = 5.34311 5.57785 5.46174
#
# Compressibility (1/GPa) = 0.02762410
#
# Stress axis : x y z
#
# Youngs Moduli (GPa) = 18.61357 18.61359 69.66248
#
# Poissons Ratio (x) = 0.76211 0.21407
# Poissons Ratio (y) = 0.76211 0.21407
# Poissons Ratio (z) = 0.05720 0.05720
#
# Static dielectric constant tensor:
#      x y z
#    x 1.597410 0.000000 0.000000 
#    y 0.000000 1.597410 0.000000 
#    z 0.000000 0.000000 1.651760 
# 
# From -- ./inp_files/5257.got.cif
#   From: 2010.05.17/outbox.cif.g08.bks.cpg/sg119_3_cif.got.tgz:5257.got - 2010.05.20 11:21:29.
