data_PCOD9558715
_publ_section_title
;
Structure prediction by ZEFSAII (Michael W. Deem and Ramdas Pophale) SiO2 
 PCOD9558715
Probable space group: P -4 N 2
;
_chemical_formula_sum "Si O2"
_cell_formula_units_Z 42
_cell_length_a 14.768844
_cell_length_b 14.768844
_cell_length_c 8.125914
_cell_angle_alpha 90.000000
_cell_angle_beta 90.000000
_cell_angle_gamma 90.000000
_cell_volume 1772.414229
_symmetry_space_group_name_H-M "P -4 N 2"
_symmetry_group_IT_number 118
_symmetry_cell_setting 'tetragonal'
loop_
_space_group_symop_operation_xyz
x,y,z
y,-x,-z
-x,-y,z
-y,x,-z
1/2+y,1/2+x,1/2-z
1/2-y,1/2-x,1/2-z
1/2-x,1/2+y,1/2+z
1/2+x,1/2-y,1/2+z
loop_
_atom_site_type_symbol
_atom_site_label
_atom_site_fract_x
_atom_site_fract_y
_atom_site_fract_z
Si Si1 0.488794 0.604030 0.236681
Si Si2 0.000000 0.500000 0.750000
Si Si3 0.667887 0.396416 0.451412
Si Si4 0.195928 0.333340 0.431705
Si Si5 0.022992 0.663182 0.202555
Si Si6 0.703133 0.021379 0.425167
O O1 0.500000 0.500000 0.175079
O O2 0.383475 0.598060 0.280020
O O3 0.541325 0.620859 0.410286
O O4 0.511740 0.700215 0.148466
O O5 0.999785 0.397596 0.658041
O O6 0.654168 0.294745 0.504476
O O7 0.771571 0.419680 0.415595
O O8 0.207869 0.292132 0.250000
O O9 0.150827 0.430423 0.394957
O O10 0.130453 0.287471 0.561790
O O11 0.072994 0.572994 0.250000
O O12 0.004867 0.705110 0.381911
#
# Coordination Sequence:
#
# PCOD9558715 Si02
#       6
#     8   2   8   8   8   8
#     4  12  24  48  73 103 149 202 254 309 394 467
#     4  12  24  48  78 116 168 196 258 332 412 472
#     4  12  23  46  71  98 144 204 246 311 387 470
#     4  10  23  47  71 103 146 191 252 317 393 464
#     4  11  25  45  74 110 145 193 259 321 398 470
#     4  11  27  45  75 115 146 201 253 331 385 473
#
# _framework density 23.696491999999999
#
# number of rings (size 3 to 8) (size 9 to 14) (size 15 to 20)
#    0.000    0.762    3.810    2.286    5.333    4.190 
#    6.857    0.952    0.000    0.000    0.000    0.000 
#    0.000    0.000    0.000    0.000    0.000    0.000 
#
# Total GULP energy -234013.638988 kJ/mol
# GULP energy per Si atom -5571.753309 kJ/mol
# Density = 2.364256 g / cm^3
# Si number density = 23.696492 Si / 1000 Ang^3
#
#
#
# Elastic Constant Matrix: (Units=GPa)
#
#
# Indices 1 2 3 4 5 6 
#
# 1 425.9033 -268.1508 36.0034 0.0000 0.0000 0.0000
# 2 -268.1508 425.8871 36.0136 0.0000 0.0000 0.0000
# 3 36.0034 36.0136 72.7406 0.0000 0.0000 0.0000
# 4 0.0000 0.0000 0.0000 43.9004 0.0000 0.0000
# 5 0.0000 0.0000 0.0000 0.0000 43.9007 0.0000
# 6 0.0000 0.0000 0.0000 0.0000 0.0000 28.8272
#
#
#
# Elastic Compliance Matrix: (Units=1/GPa)
#
#
# Indices 1 2 3 4 5 6 
#
# 1 0.004815 0.003375 -0.004054 0.000000 0.000000 0.000000
# 2 0.003375 0.004816 -0.004055 0.000000 0.000000 0.000000
# 3 -0.004054 -0.004055 0.017762 0.000000 0.000000 0.000000
# 4 0.000000 0.000000 0.000000 0.022779 0.000000 0.000000
# 5 0.000000 0.000000 0.000000 0.000000 0.022779 0.000000
# 6 0.000000 0.000000 0.000000 0.000000 0.000000 0.034689
#
#
# Mechanical properties :
#
#
# Convention : Reuss Voigt Hill
#
# Bulk Modulus (GPa) = 55.78935 59.14037 57.46486
# Shear Modulus (GPa) = 40.62302 98.03665 69.32984
#
# Velocity S-wave (km/s) = 4.14491 6.43907 5.41488
# Velocity P-wave (km/s) = 6.81920 8.96068 7.96226
#
# Compressibility (1/GPa) = 0.01792457
#
# Stress axis : x y z
#
# Youngs Moduli (GPa) = 207.66450 207.65113 56.30119
#
# Poissons Ratio (x) = -0.70078 0.22826
# Poissons Ratio (y) = -0.70082 0.22828
# Poissons Ratio (z) = 0.84193 0.84195
#
# Static dielectric constant tensor:
#      x y z
#    x 1.872600 0.000000 0.000000 
#    y 0.000000 1.872620 0.000000 
#    z 0.000000 0.000000 1.783770 
# 
# From -- ./inp_files/1918.got.cif
#   From: 2010.05.17/outbox.cif.g08.bks.cpg/sg118_1_cif.got.tgz:1918.got - 2010.05.20 11:17:24.
