data_PCOD9558960
_publ_section_title
;
Structure prediction by ZEFSAII (Michael W. Deem and Ramdas Pophale) SiO2 
 PCOD9558960
Probable space group: I -4 M 2
;
_chemical_formula_sum "Si O2"
_cell_formula_units_Z 96
_cell_length_a 27.748536
_cell_length_b 27.748536
_cell_length_c 9.334692
_cell_angle_alpha 90.000000
_cell_angle_beta 90.000000
_cell_angle_gamma 90.000000
_cell_volume 7187.537816
_symmetry_space_group_name_H-M "I -4 M 2"
_symmetry_group_IT_number 119
_symmetry_cell_setting 'tetragonal'
loop_
_space_group_symop_operation_xyz
x,y,z
y,-x,-z
-x,-y,z
-y,x,-z
y,x,-z
-y,-x,-z
-x,y,z
x,-y,z
1/2+x,1/2+y,1/2+z
1/2+y,1/2-x,1/2-z
1/2-x,1/2-y,1/2+z
1/2-y,1/2+x,1/2-z
1/2+y,1/2+x,1/2-z
1/2-y,1/2-x,1/2-z
1/2-x,1/2+y,1/2+z
1/2+x,1/2-y,1/2+z
loop_
_atom_site_type_symbol
_atom_site_label
_atom_site_fract_x
_atom_site_fract_y
_atom_site_fract_z
Si Si1 0.152629 0.733793 0.210920
Si Si2 0.322553 0.877265 0.044708
Si Si3 0.889236 0.711261 0.645567
Si Si4 0.230901 0.202335 0.340338
Si Si5 0.124726 0.553970 0.318184
Si Si6 0.446241 0.782078 0.873248
O O1 0.186550 0.686550 0.250000
O O2 0.184762 0.779432 0.252110
O O3 0.102188 0.737689 0.295933
O O4 0.140490 0.723545 0.046207
O O5 0.305362 0.899999 0.193502
O O6 0.356371 0.831509 0.077960
O O7 0.352042 0.913296 0.942555
O O8 0.853917 0.757573 0.646984
O O9 0.933991 0.718384 0.540979
O O10 0.224771 0.224771 0.500000
O O11 0.274997 0.225004 0.250000
O O12 0.116324 0.500000 0.370064
O O13 0.078215 0.578215 0.250000
O O14 0.164124 0.552673 0.191232
O O15 0.500000 0.761481 0.844153
#
# Coordination Sequence:
#
# PCOD9558960 Si02
#       6
#    16  16  16  16  16  16
#     4  10  17  29  42  60  88 107 133 175 208 252
#     4  10  18  29  43  59  88 104 131 166 213 260
#     4  11  18  28  42  65  83 110 135 164 206 267
#     4  11  19  25  41  64  89 110 133 160 214 256
#     4  10  19  32  48  61  75 102 137 184 233 268
#     4  10  18  30  45  58  77 110 143 172 208 248
#
# _framework density 13.356452000000001
#
# number of rings (size 3 to 8) (size 9 to 14) (size 15 to 20)
#    0.000    1.667    6.667    2.000    0.000    0.833 
#    0.000    0.000    0.000    0.000    0.000    0.000 
#    0.000    0.000    0.000    0.000    0.000    6.667 
#
# Total GULP energy -267219.083416 kJ/mol
# GULP energy per Si atom -5567.064238 kJ/mol
# Density = 1.332605 g / cm^3
# Si number density = 13.356452 Si / 1000 Ang^3
#
#
#
# Elastic Constant Matrix: (Units=GPa)
#
#
# Indices 1 2 3 4 5 6 
#
# 1 49.8575 36.5888 17.0424 0.0000 0.0000 0.0000
# 2 36.5888 49.8574 17.0415 0.0000 0.0000 0.0000
# 3 17.0424 17.0415 82.2279 0.0000 0.0000 0.0000
# 4 0.0000 0.0000 0.0000 11.6903 0.0000 0.0000
# 5 0.0000 0.0000 0.0000 0.0000 11.6902 0.0000
# 6 0.0000 0.0000 0.0000 0.0000 0.0000 13.1618
#
#
#
# Elastic Compliance Matrix: (Units=1/GPa)
#
#
# Indices 1 2 3 4 5 6 
#
# 1 0.043982 -0.031384 -0.002611 0.000000 0.000000 0.000000
# 2 -0.031384 0.043981 -0.002610 0.000000 0.000000 0.000000
# 3 -0.002611 -0.002610 0.013244 0.000000 0.000000 0.000000
# 4 0.000000 0.000000 0.000000 0.085541 0.000000 0.000000
# 5 0.000000 0.000000 0.000000 0.000000 0.085541 0.000000
# 6 0.000000 0.000000 0.000000 0.000000 0.000000 0.075977
#
#
# Mechanical properties :
#
#
# Convention : Reuss Voigt Hill
#
# Bulk Modulus (GPa) = 35.72093 35.92091 35.82092
# Shear Modulus (GPa) = 11.60606 14.72647 13.16627
#
# Velocity S-wave (km/s) = 2.95099 3.32410 3.14309
# Velocity P-wave (km/s) = 6.19786 6.45642 6.32846
#
# Compressibility (1/GPa) = 0.02799479
#
# Stress axis : x y z
#
# Youngs Moduli (GPa) = 22.73681 22.73694 75.50860
#
# Poissons Ratio (x) = 0.71358 0.19717
# Poissons Ratio (y) = 0.71358 0.19710
# Poissons Ratio (z) = 0.05937 0.05935
#
# Static dielectric constant tensor:
#      x y z
#    x 1.438410 0.000000 0.000000 
#    y 0.000000 1.438410 0.000000 
#    z 0.000000 0.000000 1.475920 
# 
# From -- ./inp_files/2781.got.cif
#   From: 2010.05.17/outbox.cif.g08.bks.cpg/sg119_2_cif.got.tgz:2781.got - 2010.05.20 11:21:29.
