data_PCOD9558046
_publ_section_title
;
Structure prediction by ZEFSAII (Michael W. Deem and Ramdas Pophale) SiO2 
 PCOD9558046
Probable space group: P -4 B 2
;
_chemical_formula_sum "Si O2"
_cell_formula_units_Z 64
_cell_length_a 30.657420
_cell_length_b 30.657420
_cell_length_c 5.481091
_cell_angle_alpha 90.000000
_cell_angle_beta 90.000000
_cell_angle_gamma 90.000000
_cell_volume 5151.553564
_symmetry_space_group_name_H-M "P -4 B 2"
_symmetry_group_IT_number 117
_symmetry_cell_setting 'tetragonal'
loop_
_space_group_symop_operation_xyz
x,y,z
y,-x,-z
-x,-y,z
-y,x,-z
1/2+y,1/2+x,-z
1/2-y,1/2-x,-z
1/2-x,1/2+y,z
1/2+x,1/2-y,z
loop_
_atom_site_type_symbol
_atom_site_label
_atom_site_fract_x
_atom_site_fract_y
_atom_site_fract_z
Si Si1 0.437137 0.583929 0.749998
Si Si2 0.291434 0.632591 0.750000
Si Si3 0.903134 0.959747 0.249998
Si Si4 0.298343 0.185375 0.750000
Si Si5 0.322948 0.599949 0.250000
Si Si6 0.614174 0.324678 0.750000
Si Si7 0.721247 0.253994 0.250000
Si Si8 0.868774 0.806394 0.250000
O O1 0.488420 0.593095 0.750000
O O2 0.424456 0.558717 0.500349
O O3 0.410384 0.629224 0.749999
O O4 0.424455 0.558716 0.999644
O O5 0.247536 0.660357 0.750000
O O6 0.296196 0.605270 0.500436
O O7 0.333496 0.664985 0.750000
O O8 0.296196 0.605270 0.999564
O O9 0.853542 0.942109 0.249999
O O10 0.323215 0.176786 0.500000
O O11 0.287630 0.237639 0.749999
O O12 0.323215 0.176786 0.000000
O O13 0.355581 0.642076 0.250000
O O14 0.605590 0.299527 0.500037
O O15 0.605590 0.299528 0.999963
O O16 0.727115 0.227115 0.500000
O O17 0.676089 0.279667 0.250000
O O18 0.727115 0.227115 0.000000
#
# Coordination Sequence:
#
# PCOD9558046 Si02
#       8
#     8   8   8   8   8   8   8   8
#     4  12  23  37  49  60  72  82 101 138 176 228
#     4  10  16  25  43  50  71  95 110 128 142 180
#     4  12  23  37  49  60  72  82 101 138 176 228
#     4  10  16  22  31  54  77  92 110 128 146 160
#     4  10  16  29  41  55  64  85 115 124 151 194
#     4  10  16  29  41  55  64  85 115 124 151 194
#     4  10  16  22  31  54  77  92 110 128 146 160
#     4  10  16  25  43  50  71  95 110 128 142 180
#
# _framework density 12.423438000000001
#
# number of rings (size 3 to 8) (size 9 to 14) (size 15 to 20)
#    0.000    1.500    5.000    8.250    0.000    1.500 
#    0.000    0.000    0.000    0.000    0.000    0.000 
#    0.000    0.000    0.000    0.000    0.000    0.000 
#
# Total GULP energy -356603.943321 kJ/mol
# GULP energy per Si atom -5571.936614 kJ/mol
# Density = 1.239516 g / cm^3
# Si number density = 12.423438 Si / 1000 Ang^3
#
#
#
# Elastic Constant Matrix: (Units=GPa)
#
#
# Indices 1 2 3 4 5 6 
#
# 1 22.0691 23.0507 21.0374 0.0000 0.0000 0.0000
# 2 23.0507 22.0697 21.0378 0.0000 0.0000 0.0000
# 3 21.0374 21.0378 149.4247 0.0000 0.0000 0.0000
# 4 0.0000 0.0000 0.0000 12.5773 0.0000 0.0000
# 5 0.0000 0.0000 0.0000 0.0000 12.5772 0.0000
# 6 0.0000 0.0000 0.0000 0.0000 0.0000 5.9624
#
#
#
# Elastic Compliance Matrix: (Units=1/GPa)
#
#
# Indices 1 2 3 4 5 6 
#
# 1 -0.496793 0.522299 -0.003592 0.000000 0.000000 0.000000
# 2 0.522299 -0.496779 -0.003592 0.000000 0.000000 0.000000
# 3 -0.003592 -0.003592 0.007704 0.000000 0.000000 0.000000
# 4 0.000000 0.000000 0.000000 0.079508 0.000000 0.000000
# 5 0.000000 0.000000 0.000000 0.000000 0.079509 0.000000
# 6 0.000000 0.000000 0.000000 0.000000 0.000000 0.167717
#
#
# Mechanical properties :
#
#
# Convention : Reuss Voigt Hill
#
# Bulk Modulus (GPa) = 22.54223 35.97950 29.26086
# Shear Modulus (GPa) = -2.98583 14.78591 5.90004
#
# Velocity S-wave (km/s) = -1.55197 3.45362 2.18161
# Velocity P-wave (km/s) = 3.86948 6.70277 5.47266
#
# Compressibility (1/GPa) = 0.04436119
#
# Stress axis : x y z
#
# Youngs Moduli (GPa) = -2.01291 -2.01297 129.80683
#
# Poissons Ratio (x) = 1.05137 0.46628
# Poissons Ratio (y) = 1.05134 0.46624
# Poissons Ratio (z) = -0.00723 -0.00723
#
# Static dielectric constant tensor:
#      x y z
#    x 1.376100 0.000000 0.000000 
#    y 0.000000 1.376100 0.000000 
#    z 0.000000 0.000000 1.520930 
# 
# From -- ./inp_files/993.got.cif
#   From: 2010.05.17/outbox.cif.g08.bks.cpg/sg117_1_cif.got.tgz:993.got - 2010.05.20 11:15:09.
