data_PCOD9558580
_publ_section_title
;
Structure prediction by ZEFSAII (Michael W. Deem and Ramdas Pophale) SiO2 
 PCOD9558580
Probable space group: P -4 N 2
;
_chemical_formula_sum "Si O2"
_cell_formula_units_Z 48
_cell_length_a 14.109157
_cell_length_b 14.109157
_cell_length_c 11.884996
_cell_angle_alpha 90.000000
_cell_angle_beta 90.000000
_cell_angle_gamma 90.000000
_cell_volume 2365.926083
_symmetry_space_group_name_H-M "P -4 N 2"
_symmetry_group_IT_number 118
_symmetry_cell_setting 'tetragonal'
loop_
_space_group_symop_operation_xyz
x,y,z
y,-x,-z
-x,-y,z
-y,x,-z
1/2+y,1/2+x,1/2-z
1/2-y,1/2-x,1/2-z
1/2-x,1/2+y,1/2+z
1/2+x,1/2-y,1/2+z
loop_
_atom_site_type_symbol
_atom_site_label
_atom_site_fract_x
_atom_site_fract_y
_atom_site_fract_z
Si Si1 0.389147 0.772906 0.387173
Si Si2 0.407303 0.155317 0.361590
Si Si3 0.889923 0.800656 0.645060
Si Si4 0.125116 0.925459 0.950428
Si Si5 0.406762 0.282942 0.031805
Si Si6 0.692821 0.660494 0.248347
O O1 0.487519 0.827985 0.404460
O O2 0.302278 0.843015 0.372291
O O3 0.402069 0.702136 0.280032
O O4 0.366557 0.708966 0.493831
O O5 0.409868 0.090133 0.250000
O O6 0.328360 0.116291 0.447208
O O7 0.366835 0.254510 0.310277
O O8 0.821182 0.879489 0.590873
O O9 0.988895 0.803647 0.579012
O O10 0.155101 0.928558 0.819984
O O11 0.025865 0.878955 0.985402
O O12 0.339049 0.338916 0.119798
O O13 0.801068 0.698932 0.250000
#
# Coordination Sequence:
#
# PCOD9558580 Si02
#       6
#     8   8   8   8   8   8
#     4  11  21  38  58  92 115 156 198 251 294 359
#     4   9  16  35  60  79 117 144 196 238 290 335
#     4  11  23  36  60  87 125 151 202 237 314 344
#     4  11  21  33  55  85 117 151 199 247 291 347
#     4  10  21  38  56  89 117 163 189 253 291 370
#     4   9  17  35  57  78 110 157 191 232 291 349
#
# _framework density 20.288036999999999
#
# number of rings (size 3 to 8) (size 9 to 14) (size 15 to 20)
#    0.000    2.167    5.000    2.000    0.000    2.333 
#    0.000    0.000    0.000    0.000    0.000    0.000 
#    0.000    0.000    0.000    0.000    0.000    0.000 
#
# Total GULP energy -267470.361761 kJ/mol
# GULP energy per Si atom -5572.299203 kJ/mol
# Density = 2.024186 g / cm^3
# Si number density = 20.288037 Si / 1000 Ang^3
#
#
#
# Elastic Constant Matrix: (Units=GPa)
#
#
# Indices 1 2 3 4 5 6 
#
# 1 27.4513 22.3504 19.5701 0.0000 0.0000 0.0000
# 2 22.3504 27.4520 19.5702 0.0000 0.0000 0.0000
# 3 19.5701 19.5702 68.8715 0.0000 0.0000 0.0000
# 4 0.0000 0.0000 0.0000 23.4675 0.0000 0.0000
# 5 0.0000 0.0000 0.0000 0.0000 23.4674 0.0000
# 6 0.0000 0.0000 0.0000 0.0000 0.0000 16.0491
#
#
#
# Elastic Compliance Matrix: (Units=1/GPa)
#
#
# Indices 1 2 3 4 5 6 
#
# 1 0.110944 -0.085089 -0.007347 0.000000 0.000000 0.000000
# 2 -0.085089 0.110941 -0.007346 0.000000 0.000000 0.000000
# 3 -0.007347 -0.007346 0.018695 0.000000 0.000000 0.000000
# 4 0.000000 0.000000 0.000000 0.042612 0.000000 0.000000
# 5 0.000000 0.000000 0.000000 0.000000 0.042612 0.000000
# 6 0.000000 0.000000 0.000000 0.000000 0.000000 0.062309
#
#
# Mechanical properties :
#
#
# Convention : Reuss Voigt Hill
#
# Bulk Modulus (GPa) = 24.38084 27.41734 25.89909
# Shear Modulus (GPa) = 8.31465 16.74907 12.53186
#
# Velocity S-wave (km/s) = 2.02662 2.87638 2.48805
# Velocity P-wave (km/s) = 4.18565 4.95730 4.58773
#
# Compressibility (1/GPa) = 0.04101581
#
# Stress axis : x y z
#
# Youngs Moduli (GPa) = 9.01356 9.01383 53.49096
#
# Poissons Ratio (x) = 0.76698 0.39297
# Poissons Ratio (y) = 0.76696 0.39294
# Poissons Ratio (z) = 0.06622 0.06622
#
# Static dielectric constant tensor:
#      x y z
#    x 1.788590 0.000000 0.000000 
#    y 0.000000 1.788590 0.000000 
#    z 0.000000 0.000000 1.874350 
# 
# From -- ./inp_files/3348.got.cif
#   From: 2010.05.17/outbox.cif.g08.bks.cpg/sg118_2_cif.got.tgz:3348.got - 2010.05.20 11:17:24.
