data_PCOD9558209
_publ_section_title
;
Structure prediction by ZEFSAII (Michael W. Deem and Ramdas Pophale) SiO2 
 PCOD9558209
Probable space group: P -4 B 2
;
_chemical_formula_sum "Si O2"
_cell_formula_units_Z 40
_cell_length_a 14.111623
_cell_length_b 14.111623
_cell_length_c 10.346864
_cell_angle_alpha 90.000000
_cell_angle_beta 90.000000
_cell_angle_gamma 90.000000
_cell_volume 2060.452807
_symmetry_space_group_name_H-M "P -4 B 2"
_symmetry_group_IT_number 117
_symmetry_cell_setting 'tetragonal'
loop_
_space_group_symop_operation_xyz
x,y,z
y,-x,-z
-x,-y,z
-y,x,-z
1/2+y,1/2+x,-z
1/2-y,1/2-x,-z
1/2-x,1/2+y,z
1/2+x,1/2-y,z
loop_
_atom_site_type_symbol
_atom_site_label
_atom_site_fract_x
_atom_site_fract_y
_atom_site_fract_z
Si Si1 0.885331 0.134834 0.834648
Si Si2 0.348094 0.002804 0.462062
Si Si3 0.000000 0.000000 0.000000
Si Si4 0.789756 0.710245 0.000000
Si Si5 0.000000 0.500000 0.000000
Si Si6 0.032758 0.135896 0.443095
Si Si7 0.310520 0.976231 0.162713
O O1 0.869730 0.096172 0.687862
O O2 0.968019 0.212027 0.845908
O O3 0.801173 0.188123 0.910974
O O4 0.917136 0.041702 0.911865
O O5 0.421445 0.921445 0.500000
O O6 0.245375 0.984348 0.523662
O O7 0.397204 0.102797 0.500000
O O8 0.337936 0.991043 0.310046
O O9 0.872625 0.707213 0.893685
O O10 0.005682 0.596085 0.917096
O O11 0.927749 0.087066 0.447242
#
# Coordination Sequence:
#
# PCOD9558209 Si02
#       7
#     8   8   2   4   2   8   8
#     4  12  24  45  70 104 142 181 239 293 351 430
#     4  11  24  45  69 100 138 183 232 290 353 420
#     4  12  24  44  70  96 136 188 224 302 344 404
#     4  11  25  43  70 105 137 187 234 290 366 420
#     4  10  22  40  74  96 138 182 216 290 348 420
#     4  11  24  45  69 100 140 186 236 286 352 422
#     4  11  23  45  66 100 139 178 230 283 352 424
#
# _framework density 19.413209999999999
#
# number of rings (size 3 to 8) (size 9 to 14) (size 15 to 20)
#    0.000    0.800    4.000    4.200    0.000    2.400 
#    7.200    0.000    0.000    0.000    0.000    0.000 
#    0.000    0.000    0.000    0.000    0.000    0.000 
#
# Total GULP energy -222914.968054 kJ/mol
# GULP energy per Si atom -5572.874201 kJ/mol
# Density = 1.936902 g / cm^3
# Si number density = 19.413210 Si / 1000 Ang^3
#
#
#
# Elastic Constant Matrix: (Units=GPa)
#
#
# Indices 1 2 3 4 5 6 
#
# 1 85.6958 61.7595 35.8135 0.0000 0.0000 0.0000
# 2 61.7595 85.6973 35.8178 0.0000 0.0000 0.0000
# 3 35.8135 35.8178 111.2305 0.0000 0.0000 0.0000
# 4 0.0000 0.0000 0.0000 47.4313 0.0000 0.0000
# 5 0.0000 0.0000 0.0000 0.0000 47.4334 0.0000
# 6 0.0000 0.0000 0.0000 0.0000 0.0000 33.7878
#
#
#
# Elastic Compliance Matrix: (Units=1/GPa)
#
#
# Indices 1 2 3 4 5 6 
#
# 1 0.024907 -0.016869 -0.002588 0.000000 0.000000 0.000000
# 2 -0.016869 0.024908 -0.002589 0.000000 0.000000 0.000000
# 3 -0.002588 -0.002589 0.010657 0.000000 0.000000 0.000000
# 4 0.000000 0.000000 0.000000 0.021083 0.000000 0.000000
# 5 0.000000 0.000000 0.000000 0.000000 0.021082 0.000000
# 6 0.000000 0.000000 0.000000 0.000000 0.000000 0.029596
#
#
# Mechanical properties :
#
#
# Convention : Reuss Voigt Hill
#
# Bulk Modulus (GPa) = 61.04484 61.04500 61.04492
# Shear Modulus (GPa) = 27.50482 35.67935 31.59209
#
# Velocity S-wave (km/s) = 3.76814 4.29171 4.03842
# Velocity P-wave (km/s) = 7.10247 7.48811 7.29784
#
# Compressibility (1/GPa) = 0.01638140
#
# Stress axis : x y z
#
# Youngs Moduli (GPa) = 40.14861 40.14791 93.83198
#
# Poissons Ratio (x) = 0.67724 0.24281
# Poissons Ratio (y) = 0.67725 0.24297
# Poissons Ratio (z) = 0.10389 0.10396
#
# Static dielectric constant tensor:
#      x y z
#    x 1.635510 0.000000 0.000000 
#    y 0.000000 1.635490 0.000000 
#    z 0.000000 0.000000 1.938190 
# 
# From -- ./inp_files/1809.got.cif
#   From: 2010.05.17/outbox.cif.g08.bks.cpg/sg117_1_cif.got.tgz:1809.got - 2010.05.20 11:15:09.
