data_PCOD9558224
_publ_section_title
;
Structure prediction by ZEFSAII (Michael W. Deem and Ramdas Pophale) SiO2 
 PCOD9558224
Probable space group: P -4 B 2
;
_chemical_formula_sum "Si O2"
_cell_formula_units_Z 34
_cell_length_a 9.166549
_cell_length_b 9.166549
_cell_length_c 19.039359
_cell_angle_alpha 90.000000
_cell_angle_beta 90.000000
_cell_angle_gamma 90.000000
_cell_volume 1599.793955
_symmetry_space_group_name_H-M "P -4 B 2"
_symmetry_group_IT_number 117
_symmetry_cell_setting 'tetragonal'
loop_
_space_group_symop_operation_xyz
x,y,z
y,-x,-z
-x,-y,z
-y,x,-z
1/2+y,1/2+x,-z
1/2-y,1/2-x,-z
1/2-x,1/2+y,z
1/2+x,1/2-y,z
loop_
_atom_site_type_symbol
_atom_site_label
_atom_site_fract_x
_atom_site_fract_y
_atom_site_fract_z
Si Si1 0.000000 0.000000 0.500000
Si Si2 0.161152 0.057576 0.633535
Si Si3 0.780348 0.936596 0.028411
Si Si4 0.667063 0.438334 0.191912
Si Si5 0.841937 0.657357 0.283688
O O1 0.862028 0.974014 0.551280
O O2 0.173190 0.224102 0.654287
O O3 0.297278 0.986144 0.673851
O O4 0.000000 0.000000 0.660358
O O5 0.780086 0.949633 0.112143
O O6 0.632029 0.867972 0.000000
O O7 0.911317 0.826519 0.006600
O O8 0.500000 0.500000 0.192548
O O9 0.785552 0.515648 0.242737
O O10 0.662203 0.275780 0.221508
#
# Coordination Sequence:
#
# PCOD9558224 Si02
#       5
#     2   8   8   8   8
#     4   8  20  48  64  92 144 180 190 280 348 372
#     4  10  22  43  64  97 134 168 211 271 326 387
#     4  11  24  44  66  91 132 172 221 274 328 393
#     4  12  23  42  65  98 133 175 213 278 341 374
#     4  12  21  42  67  96 135 170 218 269 327 390
#
# _framework density 21.252735000000001
#
# number of rings (size 3 to 8) (size 9 to 14) (size 15 to 20)
#    0.706    0.235    7.059    1.412    0.000    2.353 
#    0.000    2.353    0.000    2.824    0.000    0.000 
#    0.000    0.000    0.000    0.000    0.000    0.000 
#
# Total GULP energy -189406.139324 kJ/mol
# GULP energy per Si atom -5570.768804 kJ/mol
# Density = 2.120436 g / cm^3
# Si number density = 21.252735 Si / 1000 Ang^3
#
#
#
# Elastic Constant Matrix: (Units=GPa)
#
#
# Indices 1 2 3 4 5 6 
#
# 1 24.0487 29.9432 13.7749 0.0000 0.0000 0.0000
# 2 29.9432 24.0458 13.7750 0.0000 0.0000 0.0000
# 3 13.7749 13.7750 164.8311 0.0000 0.0000 0.0000
# 4 0.0000 0.0000 0.0000 25.2519 0.0000 0.0000
# 5 0.0000 0.0000 0.0000 0.0000 25.2562 0.0000
# 6 0.0000 0.0000 0.0000 0.0000 0.0000 35.1529
#
#
#
# Elastic Compliance Matrix: (Units=1/GPa)
#
#
# Indices 1 2 3 4 5 6 
#
# 1 -0.075125 0.094477 -0.001617 0.000000 0.000000 0.000000
# 2 0.094477 -0.075135 -0.001616 0.000000 0.000000 0.000000
# 3 -0.001617 -0.001616 0.006337 0.000000 0.000000 0.000000
# 4 0.000000 0.000000 0.000000 0.039601 0.000000 0.000000
# 5 0.000000 0.000000 0.000000 0.000000 0.039594 0.000000
# 6 0.000000 0.000000 0.000000 0.000000 0.000000 0.028447
#
#
# Mechanical properties :
#
#
# Convention : Reuss Voigt Hill
#
# Bulk Modulus (GPa) = 25.93131 36.43466 31.18299
# Shear Modulus (GPa) = -24.28207 27.49436 1.60615
#
# Velocity S-wave (km/s) = -3.38381 3.60069 0.87027
# Velocity P-wave (km/s) = 1.74328 5.87089 3.96411
#
# Compressibility (1/GPa) = 0.03856342
#
# Stress axis : x y z
#
# Youngs Moduli (GPa) = -13.31108 -13.30937 157.80210
#
# Poissons Ratio (x) = 1.25743 0.25521
# Poissons Ratio (y) = 1.25759 0.25506
# Poissons Ratio (z) = -0.02153 -0.02151
#
# Static dielectric constant tensor:
#      x y z
#    x 1.649900 0.000000 0.000000 
#    y 0.000000 1.649900 0.000000 
#    z 0.000000 0.000000 1.748690 
# 
# From -- ./inp_files/3410.got.cif
#   From: 2010.05.17/outbox.cif.g08.bks.cpg/sg117_2_cif.got.tgz:3410.got - 2010.05.20 11:15:09.
