data_PCOD9558435
_publ_section_title
;
Structure prediction by ZEFSAII (Michael W. Deem and Ramdas Pophale) SiO2 
 PCOD9558435
Probable space group: P -4 N 2
;
_chemical_formula_sum "Si O2"
_cell_formula_units_Z 32
_cell_length_a 7.584957
_cell_length_b 7.584957
_cell_length_c 25.530989
_cell_angle_alpha 90.000000
_cell_angle_beta 90.000000
_cell_angle_gamma 90.000000
_cell_volume 1468.837950
_symmetry_space_group_name_H-M "P -4 N 2"
_symmetry_group_IT_number 118
_symmetry_cell_setting 'tetragonal'
loop_
_space_group_symop_operation_xyz
x,y,z
y,-x,-z
-x,-y,z
-y,x,-z
1/2+y,1/2+x,1/2-z
1/2-y,1/2-x,1/2-z
1/2-x,1/2+y,1/2+z
1/2+x,1/2-y,1/2+z
loop_
_atom_site_type_symbol
_atom_site_label
_atom_site_fract_x
_atom_site_fract_y
_atom_site_fract_z
Si Si1 0.500000 0.000000 0.578707
Si Si2 0.216528 0.716528 0.750000
Si Si3 0.500000 0.500000 0.000000
Si Si4 0.143852 0.368239 0.974001
Si Si5 0.691916 0.191916 0.250000
Si Si6 0.500000 0.500000 0.500000
Si Si7 0.515264 0.706802 0.664443
O O1 0.632561 0.087176 0.536465
O O2 0.458986 0.161228 0.616766
O O3 0.230460 0.510642 0.764978
O O4 0.345875 0.751239 0.701170
O O5 0.342324 0.424192 0.963627
O O6 0.000000 0.500000 0.949082
O O7 0.084186 0.166552 0.969252
O O8 0.729899 0.317490 0.298240
O O9 0.500000 0.500000 0.649706
#
# Coordination Sequence:
#
# PCOD9558435 Si02
#       7
#     4   4   2   8   4   2   8
#     4  10  22  37  50  90 118 150 184 242 294 359
#     4   9  18  33  54  76 100 151 198 231 280 340
#     4  12  20  48  64  96 112 158 204 240 284 368
#     4  10  23  37  65  90 120 152 196 243 291 355
#     4   9  18  33  54  76 100 147 202 235 276 336
#     4  12  20  44  72  88 116 162 196 244 288 360
#     4  10  19  33  53  75 114 146 189 239 288 339
#
# _framework density 21.785931000000001
#
# number of rings (size 3 to 8) (size 9 to 14) (size 15 to 20)
#    0.750    1.250    2.500    1.500    1.750    0.000 
#    4.500    0.000    0.000    0.000    0.000    0.000 
#    0.000    0.000    0.000    0.000    0.000    0.000 
#
# Total GULP energy -178446.565254 kJ/mol
# GULP energy per Si atom -5576.455164 kJ/mol
# Density = 2.173635 g / cm^3
# Si number density = 21.785931 Si / 1000 Ang^3
#
#
#
# Elastic Constant Matrix: (Units=GPa)
#
#
# Indices 1 2 3 4 5 6 
#
# 1 121.4635 51.2668 32.3603 0.0000 0.0000 0.0000
# 2 51.2668 121.4635 32.3603 0.0000 0.0000 0.0000
# 3 32.3603 32.3603 87.3059 0.0000 0.0000 0.0000
# 4 0.0000 0.0000 0.0000 -462.7895 0.0000 0.0000
# 5 0.0000 0.0000 0.0000 0.0000 -462.7918 0.0000
# 6 0.0000 0.0000 0.0000 0.0000 0.0000 38.4037
#
#
#
# Elastic Compliance Matrix: (Units=1/GPa)
#
#
# Indices 1 2 3 4 5 6 
#
# 1 0.010484 -0.003761 -0.002492 0.000000 0.000000 0.000000
# 2 -0.003761 0.010484 -0.002492 0.000000 0.000000 0.000000
# 3 -0.002492 -0.002492 0.013301 0.000000 0.000000 0.000000
# 4 0.000000 0.000000 0.000000 -0.002161 0.000000 0.000000
# 5 0.000000 0.000000 0.000000 0.000000 -0.002161 0.000000
# 6 0.000000 0.000000 0.000000 0.000000 0.000000 0.026039
#
#
# Mechanical properties :
#
#
# Convention : Reuss Voigt Hill
#
# Bulk Modulus (GPa) = 59.59590 62.46755 61.03173
# Shear Modulus (GPa) = 63.23415 -163.15250 -49.95917
#
# Velocity S-wave (km/s) = 5.39335 -8.66323 -4.79392
# Velocity P-wave (km/s) = 8.13627 8.44589 1.60221
#
# Compressibility (1/GPa) = 0.01677968
#
# Stress axis : x y z
#
# Youngs Moduli (GPa) = 95.37995 95.37996 75.18072
#
# Poissons Ratio (x) = 0.35875 0.18735
# Poissons Ratio (y) = 0.35875 0.18735
# Poissons Ratio (z) = 0.23768 0.23768
#
# Static dielectric constant tensor:
#      x y z
#    x 2.004010 0.000000 0.000000 
#    y 0.000000 2.004010 0.000000 
#    z 0.000000 0.000000 1.712970 
# 
# From -- ./inp_files/6371.got.cif
#   From: 2010.05.17/outbox.cif.g08.bks.cpg/sg118_4_cif.got.tgz:6371.got - 2010.05.20 11:17:24.
