data_PCOD9558180
_publ_section_title
;
Structure prediction by ZEFSAII (Michael W. Deem and Ramdas Pophale) SiO2 
 PCOD9558180
Probable space group: P -4 B 2
;
_chemical_formula_sum "Si O2"
_cell_formula_units_Z 40
_cell_length_a 15.026819
_cell_length_b 15.026819
_cell_length_c 6.630101
_cell_angle_alpha 90.000000
_cell_angle_beta 90.000000
_cell_angle_gamma 90.000000
_cell_volume 1497.111874
_symmetry_space_group_name_H-M "P -4 B 2"
_symmetry_group_IT_number 117
_symmetry_cell_setting 'tetragonal'
loop_
_space_group_symop_operation_xyz
x,y,z
y,-x,-z
-x,-y,z
-y,x,-z
1/2+y,1/2+x,-z
1/2-y,1/2-x,-z
1/2-x,1/2+y,z
1/2+x,1/2-y,z
loop_
_atom_site_type_symbol
_atom_site_label
_atom_site_fract_x
_atom_site_fract_y
_atom_site_fract_z
Si Si1 0.385902 0.580258 0.459156
Si Si2 0.352599 0.752917 0.160414
Si Si3 0.263449 0.144737 0.739650
Si Si4 0.839643 0.519635 0.507585
Si Si5 0.227903 0.014255 0.106201
O O1 0.484894 0.612678 0.435659
O O2 0.325876 0.639184 0.604741
O O3 0.348649 0.557284 0.241259
O O4 0.223318 0.751519 0.770692
O O5 0.426280 0.702479 0.020458
O O6 0.330386 0.830386 0.000000
O O7 0.408015 0.786217 0.353430
O O8 0.327039 0.075013 0.620084
O O9 0.256246 0.090140 0.947743
O O10 0.935762 0.564239 0.500000
O O11 0.799674 0.508366 0.282552
#
# Coordination Sequence:
#
# PCOD9558180 Si02
#       5
#     8   8   8   8   8
#     4  10  22  39  57  86 140 200 241 296 366 460
#     4  11  21  38  66  99 140 188 248 310 361 444
#     4  10  24  37  61 103 134 184 254 302 374 451
#     4  10  21  40  63  94 137 187 237 299 373 446
#     4  10  22  39  61  96 137 192 245 304 373 445
#
# _framework density 26.718108999999998
#
# number of rings (size 3 to 8) (size 9 to 14) (size 15 to 20)
#    0.000    1.800    2.000    1.200    2.800    9.600 
#    0.000    2.000    0.000    0.000    0.000    4.200 
#    0.000    0.000    0.000    0.000    0.000    0.000 
#
# Total GULP energy -223537.662342 kJ/mol
# GULP energy per Si atom -5588.441559 kJ/mol
# Density = 2.665730 g / cm^3
# Si number density = 26.718109 Si / 1000 Ang^3
#
#
#
# Elastic Constant Matrix: (Units=GPa)
#
#
# Indices 1 2 3 4 5 6 
#
# 1 169.2343 101.7273 114.1368 0.0000 0.0000 0.0000
# 2 101.7273 169.2351 114.1375 0.0000 0.0000 0.0000
# 3 114.1368 114.1375 205.5395 0.0000 0.0000 0.0000
# 4 0.0000 0.0000 0.0000 61.7540 0.0000 0.0000
# 5 0.0000 0.0000 0.0000 0.0000 61.7558 0.0000
# 6 0.0000 0.0000 0.0000 0.0000 0.0000 49.1980
#
#
#
# Elastic Compliance Matrix: (Units=1/GPa)
#
#
# Indices 1 2 3 4 5 6 
#
# 1 0.010874 -0.003939 -0.003851 0.000000 0.000000 0.000000
# 2 -0.003939 0.010874 -0.003851 0.000000 0.000000 0.000000
# 3 -0.003851 -0.003851 0.009142 0.000000 0.000000 0.000000
# 4 0.000000 0.000000 0.000000 0.016193 0.000000 0.000000
# 5 0.000000 0.000000 0.000000 0.000000 0.016193 0.000000
# 6 0.000000 0.000000 0.000000 0.000000 0.000000 0.020326
#
#
# Mechanical properties :
#
#
# Convention : Reuss Voigt Hill
#
# Bulk Modulus (GPa) = 131.44041 133.77911 132.60976
# Shear Modulus (GPa) = 45.69534 48.80873 47.25203
#
# Velocity S-wave (km/s) = 4.14003 4.27875 4.20996
# Velocity P-wave (km/s) = 8.49442 8.63652 8.56577
#
# Compressibility (1/GPa) = 0.00760801
#
# Stress axis : x y z
#
# Youngs Moduli (GPa) = 91.96250 91.96253 109.38361
#
# Poissons Ratio (x) = 0.36226 0.42123
# Poissons Ratio (y) = 0.36226 0.42123
# Poissons Ratio (z) = 0.35414 0.35414
#
# Static dielectric constant tensor:
#      x y z
#    x 2.174240 0.000000 0.000000 
#    y 0.000000 2.174240 0.000000 
#    z 0.000000 0.000000 2.084800 
# 
# From -- ./inp_files/553.got.cif
#   From: 2010.05.17/outbox.cif.g08.bks.cpg/sg117_1_cif.got.tgz:553.got - 2010.05.20 11:15:09.
