data_PCOD9558562
_publ_section_title
;
Structure prediction by ZEFSAII (Michael W. Deem and Ramdas Pophale) SiO2 
 PCOD9558562
Probable space group: P -4 N 2
;
_chemical_formula_sum "Si O2"
_cell_formula_units_Z 38
_cell_length_a 15.253272
_cell_length_b 15.253272
_cell_length_c 7.113851
_cell_angle_alpha 90.000000
_cell_angle_beta 90.000000
_cell_angle_gamma 90.000000
_cell_volume 1655.124983
_symmetry_space_group_name_H-M "P -4 N 2"
_symmetry_group_IT_number 118
_symmetry_cell_setting 'tetragonal'
loop_
_space_group_symop_operation_xyz
x,y,z
y,-x,-z
-x,-y,z
-y,x,-z
1/2+y,1/2+x,1/2-z
1/2-y,1/2-x,1/2-z
1/2-x,1/2+y,1/2+z
1/2+x,1/2-y,1/2+z
loop_
_atom_site_type_symbol
_atom_site_label
_atom_site_fract_x
_atom_site_fract_y
_atom_site_fract_z
Si Si1 0.668457 0.585032 0.381543
Si Si2 0.804999 0.407309 0.010678
Si Si3 0.754045 0.745956 0.750000
Si Si4 0.500000 0.500000 0.500000
Si Si5 0.576837 0.752947 0.413231
Si Si6 0.298662 0.893434 0.578182
O O1 0.572892 0.544094 0.374868
O O2 0.650828 0.680649 0.472466
O O3 0.725565 0.517446 0.506240
O O4 0.704729 0.592479 0.174631
O O5 0.751083 0.348741 0.162047
O O6 0.847612 0.391069 0.521689
O O7 0.830596 0.507510 0.047896
O O8 0.754431 0.415726 0.811880
O O9 0.823964 0.709489 0.588857
O O10 0.352000 0.852000 0.750000
#
# Coordination Sequence:
#
# PCOD9558562 Si02
#       6
#     8   8   4   2   8   8
#     4  10  20  44  76 115 154 204 259 333 411 484
#     4  11  25  47  76 116 156 209 267 335 402 500
#     4  12  26  52  81 113 154 210 264 328 416 490
#     4   8  20  40  80 114 152 200 254 340 408 486
#     4  10  22  44  81 112 156 205 265 335 411 481
#     4  12  28  48  78 115 153 214 269 333 408 499
#
# _framework density 22.958988999999999
#
# number of rings (size 3 to 8) (size 9 to 14) (size 15 to 20)
#    0.000    1.263    2.105    2.526    5.895    1.684 
#    3.789    4.737    0.000    0.000    0.000    0.000 
#    0.000    0.000    0.000    0.000    0.000    0.000 
#
# Total GULP energy -211579.636071 kJ/mol
# GULP energy per Si atom -5567.885160 kJ/mol
# Density = 2.290673 g / cm^3
# Si number density = 22.958989 Si / 1000 Ang^3
#
#
#
# Elastic Constant Matrix: (Units=GPa)
#
#
# Indices 1 2 3 4 5 6 
#
# 1 150.6075 -12.9628 50.8022 0.0000 0.0000 0.0000
# 2 -12.9628 150.6064 50.8008 0.0000 0.0000 0.0000
# 3 50.8022 50.8008 162.3834 0.0000 0.0000 0.0000
# 4 0.0000 0.0000 0.0000 11.0476 0.0000 0.0000
# 5 0.0000 0.0000 0.0000 0.0000 11.0474 0.0000
# 6 0.0000 0.0000 0.0000 0.0000 0.0000 -28.2848
#
#
#
# Elastic Compliance Matrix: (Units=1/GPa)
#
#
# Indices 1 2 3 4 5 6 
#
# 1 0.007780 0.001667 -0.002955 0.000000 0.000000 0.000000
# 2 0.001667 0.007780 -0.002955 0.000000 0.000000 0.000000
# 3 -0.002955 -0.002955 0.008007 0.000000 0.000000 0.000000
# 4 0.000000 0.000000 0.000000 0.090517 0.000000 0.000000
# 5 0.000000 0.000000 0.000000 0.000000 0.090519 0.000000
# 6 0.000000 0.000000 0.000000 0.000000 0.000000 -0.035355
#
#
# Mechanical properties :
#
#
# Convention : Reuss Voigt Hill
#
# Bulk Modulus (GPa) = 66.31640 71.20863 68.76251
# Shear Modulus (GPa) = 27.35770 23.75918 25.55844
#
# Velocity S-wave (km/s) = 3.45569 3.22040 3.34012
# Velocity P-wave (km/s) = 6.69849 6.70156 6.70003
#
# Compressibility (1/GPa) = 0.01507923
#
# Stress axis : x y z
#
# Youngs Moduli (GPa) = 128.53284 128.53256 124.88391
#
# Poissons Ratio (x) = -0.21420 0.36908
# Poissons Ratio (y) = -0.21420 0.36908
# Poissons Ratio (z) = 0.37987 0.37986
#
# Static dielectric constant tensor:
#      x y z
#    x 1.657590 0.000000 0.000000 
#    y 0.000000 1.657580 0.000000 
#    z 0.000000 0.000000 1.843510 
# 
# From -- ./inp_files/647.got.cif
#   From: 2010.05.17/outbox.cif.g08.bks.cpg/sg118_1_cif.got.tgz:647.got - 2010.05.20 11:17:24.
