data_PCOD9558846
_publ_section_title
;
Structure prediction by ZEFSAII (Michael W. Deem and Ramdas Pophale) SiO2 
 PCOD9558846
Probable space group: P -4 N 2
;
_chemical_formula_sum "Si O2"
_cell_formula_units_Z 38
_cell_length_a 11.719924
_cell_length_b 11.719924
_cell_length_c 14.377439
_cell_angle_alpha 90.000000
_cell_angle_beta 90.000000
_cell_angle_gamma 90.000000
_cell_volume 1974.836405
_symmetry_space_group_name_H-M "P -4 N 2"
_symmetry_group_IT_number 118
_symmetry_cell_setting 'tetragonal'
loop_
_space_group_symop_operation_xyz
x,y,z
y,-x,-z
-x,-y,z
-y,x,-z
1/2+y,1/2+x,1/2-z
1/2-y,1/2-x,1/2-z
1/2-x,1/2+y,1/2+z
1/2+x,1/2-y,1/2+z
loop_
_atom_site_type_symbol
_atom_site_label
_atom_site_fract_x
_atom_site_fract_y
_atom_site_fract_z
Si Si1 0.000000 0.500000 0.250000
Si Si2 0.667656 0.667656 0.116137
Si Si3 0.000000 0.000000 0.500000
Si Si4 0.171405 0.438554 0.404695
Si Si5 0.593457 0.406543 0.679031
Si Si6 0.000000 0.500000 0.750000
Si Si7 0.061446 0.671405 0.904695
O O1 0.106052 0.494307 0.318699
O O2 0.583060 0.583060 0.060379
O O3 0.802033 0.646947 0.094195
O O4 0.645652 0.645652 0.225742
O O5 0.646947 0.802033 0.094195
O O6 0.303919 0.455726 0.381961
O O7 0.139664 0.500000 0.500000
O O8 0.500000 0.500000 0.702410
O O9 0.696081 0.455726 0.618039
O O10 0.994307 0.393948 0.818699
#
# Coordination Sequence:
#
# PCOD9558846 Si02
#       7
#     2   8   2   8   8   2   8
#     4  12  22  42  66  90 136 174 216 276 336 394
#     4  11  24  48  62  95 142 173 220 278 334 389
#     4  12  28  40  68  96 130 192 220 264 332 420
#     4  11  25  42  70  97 130 176 226 277 330 394
#     4  11  23  46  67  94 135 180 214 276 338 394
#     4  12  22  42  66  90 136 174 216 276 336 394
#     4  11  25  42  70  97 130 176 226 277 330 394
#
# _framework density 19.242100000000001
#
# number of rings (size 3 to 8) (size 9 to 14) (size 15 to 20)
#    0.000    0.842    5.263    1.895   11.789    0.000 
#    0.000    1.053    0.000    0.000    0.000    0.000 
#    0.000    0.000    0.000    0.000    0.000    0.000 
#
# Total GULP energy -212305.790429 kJ/mol
# GULP energy per Si atom -5586.994485 kJ/mol
# Density = 1.919830 g / cm^3
# Si number density = 19.242100 Si / 1000 Ang^3
#
#
#
# Elastic Constant Matrix: (Units=GPa)
#
#
# Indices 1 2 3 4 5 6 
#
# 1 81.8184 84.3721 52.7731 0.0000 0.0000 0.0000
# 2 84.3721 81.8184 52.7731 0.0000 0.0000 0.0000
# 3 52.7731 52.7731 158.1308 0.0000 0.0000 0.0000
# 4 0.0000 0.0000 0.0000 44.6842 0.0000 0.0000
# 5 0.0000 0.0000 0.0000 0.0000 44.6842 0.0000
# 6 0.0000 0.0000 0.0000 0.0000 0.0000 39.9776
#
#
#
# Elastic Compliance Matrix: (Units=1/GPa)
#
#
# Indices 1 2 3 4 5 6 
#
# 1 -0.191976 0.199611 -0.002548 0.000000 0.000000 0.000000
# 2 0.199611 -0.191976 -0.002548 0.000000 0.000000 0.000000
# 3 -0.002548 -0.002548 0.008025 0.000000 0.000000 0.000000
# 4 0.000000 0.000000 0.000000 0.022379 0.000000 0.000000
# 5 0.000000 0.000000 0.000000 0.000000 0.022379 0.000000
# 6 0.000000 0.000000 0.000000 0.000000 0.000000 0.025014
#
#
# Mechanical properties :
#
#
# Convention : Reuss Voigt Hill
#
# Bulk Modulus (GPa) = 76.31878 77.95604 77.13741
# Shear Modulus (GPa) = -7.23781 34.65916 13.71067
#
# Velocity S-wave (km/s) = -1.94155 4.24868 2.67223
# Velocity P-wave (km/s) = 5.89257 8.04174 7.04954
#
# Compressibility (1/GPa) = 0.01310293
#
# Stress axis : x y z
#
# Youngs Moduli (GPa) = -5.20899 -5.20899 124.61507
#
# Poissons Ratio (x) = 1.03977 0.31755
# Poissons Ratio (y) = 1.03977 0.31755
# Poissons Ratio (z) = -0.01327 -0.01327
#
# Static dielectric constant tensor:
#      x y z
#    x 1.665360 0.000000 0.000000 
#    y 0.000000 1.665360 0.000000 
#    z 0.000000 0.000000 1.645050 
# 
# From -- ./inp_files/4155.got.cif
#   From: 2010.05.17/outbox.cif.g08.bks.cpg/sg118_3_cif.got.tgz:4155.got - 2010.05.20 11:17:24.
