data_PCOD9558684
_publ_section_title
;
Structure prediction by ZEFSAII (Michael W. Deem and Ramdas Pophale) SiO2 
 PCOD9558684
Probable space group: P -4 N 2
;
_chemical_formula_sum "Si O2"
_cell_formula_units_Z 40
_cell_length_a 15.314001
_cell_length_b 15.314001
_cell_length_c 8.653257
_cell_angle_alpha 90.000000
_cell_angle_beta 90.000000
_cell_angle_gamma 90.000000
_cell_volume 2029.349947
_symmetry_space_group_name_H-M "P -4 N 2"
_symmetry_group_IT_number 118
_symmetry_cell_setting 'tetragonal'
loop_
_space_group_symop_operation_xyz
x,y,z
y,-x,-z
-x,-y,z
-y,x,-z
1/2+y,1/2+x,1/2-z
1/2-y,1/2-x,1/2-z
1/2-x,1/2+y,1/2+z
1/2+x,1/2-y,1/2+z
loop_
_atom_site_type_symbol
_atom_site_label
_atom_site_fract_x
_atom_site_fract_y
_atom_site_fract_z
Si Si1 0.500000 0.500000 0.000000
Si Si2 0.273961 0.375643 0.251065
Si Si3 0.500000 0.000000 0.750000
Si Si4 0.967923 0.660652 0.022786
Si Si5 0.830595 0.669405 0.750000
Si Si6 0.905699 0.261596 0.780315
Si Si7 0.312971 0.436218 0.904160
O O1 0.417106 0.459019 0.904184
O O2 0.193921 0.306080 0.250000
O O3 0.241370 0.447855 0.366742
O O4 0.359836 0.329613 0.316185
O O5 0.292505 0.408910 0.079567
O O6 0.418598 0.991912 0.865882
O O7 0.045362 0.690034 0.915276
O O8 0.888190 0.644059 0.901631
O O9 0.731465 0.640316 0.796860
O O10 0.825830 0.325830 0.750000
O O11 0.976593 0.239741 0.647653
#
# Coordination Sequence:
#
# PCOD9558684 Si02
#       7
#     2   8   2   8   4   8   8
#     4  12  24  44  72 102 132 188 248 298 344 432
#     4  11  21  45  63  92 135 177 223 282 336 416
#     4  12  24  38  70 104 134 170 228 296 340 418
#     4  11  24  40  66 100 133 174 226 285 346 407
#     4  10  22  43  71  94 137 182 223 284 370 414
#     4  10  25  42  66  94 135 179 223 278 346 422
#     4  11  22  44  70  99 132 186 233 289 351 415
#
# _framework density 19.710743999999998
#
# number of rings (size 3 to 8) (size 9 to 14) (size 15 to 20)
#    0.000    1.200    5.000    0.000    8.400    0.000 
#    7.200    1.000    0.000    1.200    0.000    0.000 
#    0.000    0.000    0.000    0.000    0.000    0.000 
#
# Total GULP energy -222837.533247 kJ/mol
# GULP energy per Si atom -5570.938331 kJ/mol
# Density = 1.966588 g / cm^3
# Si number density = 19.710744 Si / 1000 Ang^3
#
#
#
# Elastic Constant Matrix: (Units=GPa)
#
#
# Indices 1 2 3 4 5 6 
#
# 1 98.5806 47.3035 40.4598 0.0000 0.0000 0.0000
# 2 47.3035 98.5803 40.4586 0.0000 0.0000 0.0000
# 3 40.4598 40.4586 93.2887 0.0000 0.0000 0.0000
# 4 0.0000 0.0000 0.0000 49.7050 0.0000 0.0000
# 5 0.0000 0.0000 0.0000 0.0000 49.7056 0.0000
# 6 0.0000 0.0000 0.0000 0.0000 0.0000 44.6292
#
#
#
# Elastic Compliance Matrix: (Units=1/GPa)
#
#
# Indices 1 2 3 4 5 6 
#
# 1 0.014264 -0.005238 -0.003915 0.000000 0.000000 0.000000
# 2 -0.005238 0.014264 -0.003914 0.000000 0.000000 0.000000
# 3 -0.003915 -0.003914 0.014115 0.000000 0.000000 0.000000
# 4 0.000000 0.000000 0.000000 0.020119 0.000000 0.000000
# 5 0.000000 0.000000 0.000000 0.000000 0.020118 0.000000
# 6 0.000000 0.000000 0.000000 0.000000 0.000000 0.022407
#
#
# Mechanical properties :
#
#
# Convention : Reuss Voigt Hill
#
# Bulk Modulus (GPa) = 60.57412 60.76594 60.67003
# Shear Modulus (GPa) = 36.51653 39.62312 38.06983
#
# Velocity S-wave (km/s) = 4.30888 4.48842 4.39957
# Velocity P-wave (km/s) = 7.45342 7.59980 7.52697
#
# Compressibility (1/GPa) = 0.01650870
#
# Stress axis : x y z
#
# Youngs Moduli (GPa) = 70.10606 70.10668 70.84688
#
# Poissons Ratio (x) = 0.36721 0.27735
# Poissons Ratio (y) = 0.36721 0.27733
# Poissons Ratio (z) = 0.27445 0.27443
#
# Static dielectric constant tensor:
#      x y z
#    x 1.818870 0.000000 0.000000 
#    y 0.000000 1.818870 0.000000 
#    z 0.000000 0.000000 1.662780 
# 
# From -- ./inp_files/1987.got.cif
#   From: 2010.05.17/outbox.cif.g08.bks.cpg/sg118_1_cif.got.tgz:1987.got - 2010.05.20 11:17:24.
