data_PCOD9558874
_publ_section_title
;
Structure prediction by ZEFSAII (Michael W. Deem and Ramdas Pophale) SiO2 
 PCOD9558874
Probable space group: P -4 N 2
;
_chemical_formula_sum "Si O2"
_cell_formula_units_Z 42
_cell_length_a 7.606934
_cell_length_b 7.606934
_cell_length_c 29.279776
_cell_angle_alpha 90.000000
_cell_angle_beta 90.000000
_cell_angle_gamma 90.000000
_cell_volume 1694.287264
_symmetry_space_group_name_H-M "P -4 N 2"
_symmetry_group_IT_number 118
_symmetry_cell_setting 'tetragonal'
loop_
_space_group_symop_operation_xyz
x,y,z
y,-x,-z
-x,-y,z
-y,x,-z
1/2+y,1/2+x,1/2-z
1/2-y,1/2-x,1/2-z
1/2-x,1/2+y,1/2+z
1/2+x,1/2-y,1/2+z
loop_
_atom_site_type_symbol
_atom_site_label
_atom_site_fract_x
_atom_site_fract_y
_atom_site_fract_z
Si Si1 0.732193 0.131855 0.504544
Si Si2 0.776060 0.633232 0.907036
Si Si3 0.873922 0.744021 0.396693
Si Si4 0.000000 0.500000 0.750000
Si Si5 0.268129 0.901140 0.798278
Si Si6 0.613939 0.240710 0.313205
O O1 0.641713 0.173761 0.456473
O O2 0.651566 0.170070 0.554292
O O3 0.923769 0.223702 0.500347
O O4 0.733053 0.427537 0.899252
O O5 0.581453 0.715884 0.901452
O O6 0.891439 0.708042 0.866584
O O7 0.843624 0.658947 0.347423
O O8 0.057795 0.352322 0.712877
O O9 0.352311 0.852311 0.750000
O O10 0.073771 0.813836 0.797050
O O11 0.252096 0.110669 0.801576
#
# Coordination Sequence:
#
# PCOD9558874 Si02
#       6
#     8   8   8   2   8   8
#     4   7  12  28  55  89 123 160 204 251 299 365
#     4   9  18  34  63  95 120 162 212 255 310 375
#     4   9  18  35  61  91 130 162 204 260 312 368
#     4  12  24  44  62  88 112 158 204 254 306 392
#     4  11  25  43  58  86 124 162 206 265 320 377
#     4  11  25  41  63  85 120 159 211 258 312 381
#
# _framework density 24.789186000000001
#
# number of rings (size 3 to 8) (size 9 to 14) (size 15 to 20)
#    0.000    2.476    0.952    3.429    2.667    2.286 
#    0.000    1.905    0.000    9.143    0.000    0.000 
#    0.000    0.000    0.000    0.000    0.000    0.000 
#
# Total GULP energy -234397.312748 kJ/mol
# GULP energy per Si atom -5580.888399 kJ/mol
# Density = 2.473276 g / cm^3
# Si number density = 24.789186 Si / 1000 Ang^3
#
#
#
# Elastic Constant Matrix: (Units=GPa)
#
#
# Indices 1 2 3 4 5 6 
#
# 1 63.7373 20.0149 68.2679 0.0000 0.0000 0.0000
# 2 20.0149 63.7373 68.2679 0.0000 0.0000 0.0000
# 3 68.2679 68.2679 323.9944 0.0000 0.0000 0.0000
# 4 0.0000 0.0000 0.0000 28.2938 0.0000 0.0000
# 5 0.0000 0.0000 0.0000 0.0000 28.2938 0.0000
# 6 0.0000 0.0000 0.0000 0.0000 0.0000 24.6440
#
#
#
# Elastic Compliance Matrix: (Units=1/GPa)
#
#
# Indices 1 2 3 4 5 6 
#
# 1 0.020529 -0.002342 -0.003832 0.000000 0.000000 0.000000
# 2 -0.002342 0.020529 -0.003832 0.000000 0.000000 0.000000
# 3 -0.003832 -0.003832 0.004701 0.000000 0.000000 0.000000
# 4 0.000000 0.000000 0.000000 0.035343 0.000000 0.000000
# 5 0.000000 0.000000 0.000000 0.000000 0.035343 0.000000
# 6 0.000000 0.000000 0.000000 0.000000 0.000000 0.040578
#
#
# Mechanical properties :
#
#
# Convention : Reuss Voigt Hill
#
# Bulk Modulus (GPa) = 38.83894 84.95226 61.89560
# Shear Modulus (GPa) = 26.93667 35.90754 31.42211
#
# Velocity S-wave (km/s) = 3.29998 3.81007 3.56416
# Velocity P-wave (km/s) = 5.49741 7.32801 6.47771
#
# Compressibility (1/GPa) = 0.02574736
#
# Stress axis : x y z
#
# Youngs Moduli (GPa) = 48.71045 48.71045 212.70170
#
# Poissons Ratio (x) = 0.11408 0.81512
# Poissons Ratio (y) = 0.11408 0.81512
# Poissons Ratio (z) = 0.18667 0.18667
#
# Static dielectric constant tensor:
#      x y z
#    x 2.145590 0.000000 0.000000 
#    y 0.000000 2.145590 0.000000 
#    z 0.000000 0.000000 1.984670 
# 
# From -- ./inp_files/6503.got.cif
#   From: 2010.05.17/outbox.cif.g08.bks.cpg/sg118_4_cif.got.tgz:6503.got - 2010.05.20 11:17:24.
