data_PCOD9558907
_publ_section_title
;
Structure prediction by ZEFSAII (Michael W. Deem and Ramdas Pophale) SiO2 
 PCOD9558907
Probable space group: P -4 N 2
;
_chemical_formula_sum "Si O2"
_cell_formula_units_Z 34
_cell_length_a 17.391708
_cell_length_b 17.391708
_cell_length_c 4.996430
_cell_angle_alpha 90.000000
_cell_angle_beta 90.000000
_cell_angle_gamma 90.000000
_cell_volume 1511.277713
_symmetry_space_group_name_H-M "P -4 N 2"
_symmetry_group_IT_number 118
_symmetry_cell_setting 'tetragonal'
loop_
_space_group_symop_operation_xyz
x,y,z
y,-x,-z
-x,-y,z
-y,x,-z
1/2+y,1/2+x,1/2-z
1/2-y,1/2-x,1/2-z
1/2-x,1/2+y,1/2+z
1/2+x,1/2-y,1/2+z
loop_
_atom_site_type_symbol
_atom_site_label
_atom_site_fract_x
_atom_site_fract_y
_atom_site_fract_z
Si Si1 0.203576 0.703576 0.750000
Si Si2 0.627476 0.872525 0.750000
Si Si3 0.856164 0.532829 0.365609
Si Si4 0.500000 0.000000 0.250000
Si Si5 0.316048 0.503729 0.348625
Si Si6 0.849853 0.891827 0.347918
O O1 0.179127 0.650916 0.499012
O O2 0.179046 0.790897 0.698272
O O3 0.539425 0.859982 0.836739
O O4 0.888030 0.611971 0.250000
O O5 0.767038 0.531804 0.429662
O O6 0.921529 0.506614 0.576737
O O7 0.361557 0.435556 0.200628
O O8 0.343210 0.541233 0.625199
O O9 0.323575 0.572549 0.131433
#
# Coordination Sequence:
#
# PCOD9558907 Si02
#       6
#     4   4   8   2   8   8
#     4  12  23  44  73 102 144 181 224 295 362 426
#     4  12  21  42  71  98 141 194 222 275 358 438
#     4  12  25  40  67 113 147 193 237 291 366 449
#     4  12  24  40  70 110 162 194 224 288 370 460
#     4  12  29  49  75 105 140 194 249 307 355 429
#     4  12  27  50  75 105 142 189 245 302 364 418
#
# _framework density 22.497517999999999
#
# number of rings (size 3 to 8) (size 9 to 14) (size 15 to 20)
#    0.000    0.000    7.059    2.118    4.941    2.824 
#    0.000    1.176    0.000    0.000    0.000    0.000 
#    0.000    0.000    0.000    0.000    0.000    0.000 
#
# Total GULP energy -189749.966172 kJ/mol
# GULP energy per Si atom -5580.881358 kJ/mol
# Density = 2.244631 g / cm^3
# Si number density = 22.497518 Si / 1000 Ang^3
#
#
#
# Elastic Constant Matrix: (Units=GPa)
#
#
# Indices 1 2 3 4 5 6 
#
# 1 61.8925 59.0260 5.2909 0.0000 0.0000 0.0000
# 2 59.0260 61.8920 5.2878 0.0000 0.0000 0.0000
# 3 5.2909 5.2878 93.3531 0.0000 0.0000 0.0000
# 4 0.0000 0.0000 0.0000 22.2374 0.0000 0.0000
# 5 0.0000 0.0000 0.0000 0.0000 22.2376 0.0000
# 6 0.0000 0.0000 0.0000 0.0000 0.0000 44.3015
#
#
#
# Elastic Compliance Matrix: (Units=1/GPa)
#
#
# Indices 1 2 3 4 5 6 
#
# 1 0.178598 -0.170287 -0.000477 0.000000 0.000000 0.000000
# 2 -0.170287 0.178598 -0.000465 0.000000 0.000000 0.000000
# 3 -0.000477 -0.000465 0.010765 0.000000 0.000000 0.000000
# 4 0.000000 0.000000 0.000000 0.044969 0.000000 0.000000
# 5 0.000000 0.000000 0.000000 0.000000 0.044969 0.000000
# 6 0.000000 0.000000 0.000000 0.000000 0.000000 0.022573
#
#
# Mechanical properties :
#
#
# Convention : Reuss Voigt Hill
#
# Bulk Modulus (GPa) = 39.20917 39.59410 39.40163
# Shear Modulus (GPa) = 6.01373 27.59082 16.80227
#
# Velocity S-wave (km/s) = 1.63672 3.50579 2.73582
# Velocity P-wave (km/s) = 4.58671 5.83309 5.24704
#
# Compressibility (1/GPa) = 0.02550424
#
# Stress axis : x y z
#
# Youngs Moduli (GPa) = 5.59917 5.59916 92.89040
#
# Poissons Ratio (x) = 0.95346 0.04427
# Poissons Ratio (y) = 0.95346 0.04322
# Poissons Ratio (z) = 0.00267 0.00261
#
# Static dielectric constant tensor:
#      x y z
#    x 1.878580 0.000000 0.000000 
#    y 0.000000 1.878580 0.000000 
#    z 0.000000 0.000000 1.887790 
# 
# From -- ./inp_files/572.got.cif
#   From: 2010.05.17/outbox.cif.g08.bks.cpg/sg118_1_cif.got.tgz:572.got - 2010.05.20 11:17:24.
