data_PCOD9558106
_publ_section_title
;
Structure prediction by ZEFSAII (Michael W. Deem and Ramdas Pophale) SiO2 
 PCOD9558106
Probable space group: P -4 B 2
;
_chemical_formula_sum "Si O2"
_cell_formula_units_Z 40
_cell_length_a 13.530922
_cell_length_b 13.530922
_cell_length_c 10.315152
_cell_angle_alpha 90.000000
_cell_angle_beta 90.000000
_cell_angle_gamma 90.000000
_cell_volume 1888.558374
_symmetry_space_group_name_H-M "P -4 B 2"
_symmetry_group_IT_number 117
_symmetry_cell_setting 'tetragonal'
loop_
_space_group_symop_operation_xyz
x,y,z
y,-x,-z
-x,-y,z
-y,x,-z
1/2+y,1/2+x,-z
1/2-y,1/2-x,-z
1/2-x,1/2+y,z
1/2+x,1/2-y,z
loop_
_atom_site_type_symbol
_atom_site_label
_atom_site_fract_x
_atom_site_fract_y
_atom_site_fract_z
Si Si1 0.265239 0.280853 0.213878
Si Si2 0.641606 0.858395 0.000000
Si Si3 0.350572 0.458873 0.548548
Si Si4 0.164862 0.920250 0.829687
Si Si5 0.007092 0.220749 0.898261
Si Si6 0.719257 0.219257 0.500000
O O1 0.333481 0.219270 0.115603
O O2 0.151305 0.259560 0.174561
O O3 0.280637 0.395515 0.186886
O O4 0.270515 0.250016 0.364470
O O5 0.672336 0.963032 0.060571
O O6 0.382370 0.557913 0.474350
O O7 0.342733 0.484467 0.700921
O O8 0.252541 0.395808 0.513524
O O9 0.076617 0.841343 0.827064
O O10 0.166224 0.973995 0.965433
#
# Coordination Sequence:
#
# PCOD9558106 Si02
#       6
#     8   4   8   8   8   4
#     4  10  19  40  54  85 120 151 199 241 286 376
#     4  10  22  36  59  89 116 152 196 246 304 354
#     4  10  22  38  56  90 119 151 205 249 292 372
#     4  10  22  34  57  86 115 155 193 244 303 351
#     4  11  19  37  59  84 121 148 197 251 301 355
#     4  10  22  36  64  80 120 170 182 244 320 346
#
# _framework density 21.180177
#
# number of rings (size 3 to 8) (size 9 to 14) (size 15 to 20)
#    0.000    1.800    4.000    1.200    2.800    3.600 
#    0.000    2.000    0.000    0.600    0.000    0.000 
#    0.000    0.000    0.000    0.000    0.000    0.000 
#
# Total GULP energy -223127.062157 kJ/mol
# GULP energy per Si atom -5578.176554 kJ/mol
# Density = 2.113197 g / cm^3
# Si number density = 21.180177 Si / 1000 Ang^3
#
#
#
# Elastic Constant Matrix: (Units=GPa)
#
#
# Indices 1 2 3 4 5 6 
#
# 1 516.3049 -425.0929 9.5356 0.0000 0.0000 0.0000
# 2 -425.0929 516.2974 9.5360 0.0000 0.0000 0.0000
# 3 9.5356 9.5360 129.7624 0.0000 0.0000 0.0000
# 4 0.0000 0.0000 0.0000 20.4691 0.0000 0.0000
# 5 0.0000 0.0000 0.0000 0.0000 20.4694 0.0000
# 6 0.0000 0.0000 0.0000 0.0000 0.0000 26.4137
#
#
#
# Elastic Compliance Matrix: (Units=1/GPa)
#
#
# Indices 1 2 3 4 5 6 
#
# 1 0.006099 0.005036 -0.000818 0.000000 0.000000 0.000000
# 2 0.005036 0.006099 -0.000818 0.000000 0.000000 0.000000
# 3 -0.000818 -0.000818 0.007827 0.000000 0.000000 0.000000
# 4 0.000000 0.000000 0.000000 0.048854 0.000000 0.000000
# 5 0.000000 0.000000 0.000000 0.000000 0.048853 0.000000
# 6 0.000000 0.000000 0.000000 0.000000 0.000000 0.037859
#
#
# Mechanical properties :
#
#
# Convention : Reuss Voigt Hill
#
# Bulk Modulus (GPa) = 37.28059 38.92467 38.10263
# Shear Modulus (GPa) = 31.69929 118.02949 74.86439
#
# Velocity S-wave (km/s) = 3.87285 7.47311 5.95174
# Velocity P-wave (km/s) = 6.13502 9.63748 8.07835
#
# Compressibility (1/GPa) = 0.02682361
#
# Stress axis : x y z
#
# Youngs Moduli (GPa) = 163.97218 163.96976 127.76842
#
# Poissons Ratio (x) = -0.82582 0.10455
# Poissons Ratio (y) = -0.82583 0.10455
# Poissons Ratio (z) = 0.13417 0.13417
#
# Static dielectric constant tensor:
#      x y z
#    x 1.803080 0.000000 0.000000 
#    y 0.000000 1.803080 0.000000 
#    z 0.000000 0.000000 1.709220 
# 
# From -- ./inp_files/2653.got.cif
#   From: 2010.05.17/outbox.cif.g08.bks.cpg/sg117_2_cif.got.tgz:2653.got - 2010.05.20 11:15:09.
