data_PCOD9558589
_publ_section_title
;
Structure prediction by ZEFSAII (Michael W. Deem and Ramdas Pophale) SiO2 
 PCOD9558589
Probable space group: P -4 N 2
;
_chemical_formula_sum "Si O2"
_cell_formula_units_Z 40
_cell_length_a 12.501117
_cell_length_b 12.501117
_cell_length_c 13.476177
_cell_angle_alpha 90.000000
_cell_angle_beta 90.000000
_cell_angle_gamma 90.000000
_cell_volume 2106.028995
_symmetry_space_group_name_H-M "P -4 N 2"
_symmetry_group_IT_number 118
_symmetry_cell_setting 'tetragonal'
loop_
_space_group_symop_operation_xyz
x,y,z
y,-x,-z
-x,-y,z
-y,x,-z
1/2+y,1/2+x,1/2-z
1/2-y,1/2-x,1/2-z
1/2-x,1/2+y,1/2+z
1/2+x,1/2-y,1/2+z
loop_
_atom_site_type_symbol
_atom_site_label
_atom_site_fract_x
_atom_site_fract_y
_atom_site_fract_z
Si Si1 0.869287 0.121206 0.196483
Si Si2 0.252194 0.325411 0.117536
Si Si3 0.112201 0.529796 0.142969
Si Si4 0.377021 0.627412 0.695616
Si Si5 0.776923 0.797709 0.598761
O O1 0.836067 0.149622 0.309685
O O2 0.790671 0.193481 0.130862
O O3 0.995501 0.149114 0.185214
O O4 0.858097 0.996393 0.171469
O O5 0.174435 0.419468 0.153974
O O6 0.352064 0.338997 0.191127
O O7 0.192128 0.212562 0.133619
O O8 0.279757 0.338335 0.002950
O O9 0.083549 0.583549 0.250000
O O10 0.187434 0.610751 0.085344
O O11 0.000000 0.500000 0.093829
#
# Coordination Sequence:
#
# PCOD9558589 Si02
#       5
#     8   8   8   8   8
#     4  10  21  39  62  84 125 160 197 246 321 364
#     4  11  23  37  62  92 124 156 213 255 308 366
#     4  11  20  38  67  90 123 162 217 260 302 366
#     4  10  21  39  60  87 118 163 199 254 302 372
#     4  11  22  38  59  92 124 158 204 258 311 366
#
# _framework density 18.993091
#
# number of rings (size 3 to 8) (size 9 to 14) (size 15 to 20)
#    0.000    1.400    4.000    3.600    2.800    3.200 
#    0.000    4.000    0.000    2.400    0.000    0.000 
#    0.000    0.000    0.000    0.000    0.000    0.000 
#
# Total GULP energy -223284.675118 kJ/mol
# GULP energy per Si atom -5582.116878 kJ/mol
# Density = 1.894986 g / cm^3
# Si number density = 18.993091 Si / 1000 Ang^3
#
#
#
# Elastic Constant Matrix: (Units=GPa)
#
#
# Indices 1 2 3 4 5 6 
#
# 1 64.9925 24.0496 -16.5854 0.0000 0.0000 0.0000
# 2 24.0496 64.9925 -16.5854 0.0000 0.0000 0.0000
# 3 -16.5854 -16.5854 45.3055 0.0000 0.0000 0.0000
# 4 0.0000 0.0000 0.0000 2.7514 0.0000 0.0000
# 5 0.0000 0.0000 0.0000 0.0000 2.7514 0.0000
# 6 0.0000 0.0000 0.0000 0.0000 0.0000 32.9496
#
#
#
# Elastic Compliance Matrix: (Units=1/GPa)
#
#
# Indices 1 2 3 4 5 6 
#
# 1 0.018714 -0.005710 0.004761 0.000000 0.000000 0.000000
# 2 -0.005710 0.018714 0.004761 0.000000 0.000000 0.000000
# 3 0.004761 0.004761 0.025558 0.000000 0.000000 0.000000
# 4 0.000000 0.000000 0.000000 0.363447 0.000000 0.000000
# 5 0.000000 0.000000 0.000000 0.000000 0.363447 0.000000
# 6 0.000000 0.000000 0.000000 0.000000 0.000000 0.030349
#
#
# Mechanical properties :
#
#
# Convention : Reuss Voigt Hill
#
# Bulk Modulus (GPa) = 14.16269 17.44980 15.80624
# Shear Modulus (GPa) = 5.97984 19.98461 12.98223
#
# Velocity S-wave (km/s) = 1.77631 3.24729 2.61726
# Velocity P-wave (km/s) = 3.41760 4.82361 4.18014
#
# Compressibility (1/GPa) = 0.07060806
#
# Stress axis : x y z
#
# Youngs Moduli (GPa) = 53.43549 53.43549 39.12692
#
# Poissons Ratio (x) = 0.30512 -0.18626
# Poissons Ratio (y) = 0.30512 -0.18626
# Poissons Ratio (z) = -0.25438 -0.25438
#
# Static dielectric constant tensor:
#      x y z
#    x 1.675290 0.000000 0.000000 
#    y 0.000000 1.675290 0.000000 
#    z 0.000000 0.000000 1.683150 
# 
# From -- ./inp_files/4079.got.cif
#   From: 2010.05.17/outbox.cif.g08.bks.cpg/sg118_3_cif.got.tgz:4079.got - 2010.05.20 11:17:24.
