data_PCOD9558526
_publ_section_title
;
Structure prediction by ZEFSAII (Michael W. Deem and Ramdas Pophale) SiO2 
 PCOD9558526
Probable space group: P -4 N 2
;
_chemical_formula_sum "Si O2"
_cell_formula_units_Z 52
_cell_length_a 16.923058
_cell_length_b 16.923058
_cell_length_c 7.990159
_cell_angle_alpha 90.000000
_cell_angle_beta 90.000000
_cell_angle_gamma 90.000000
_cell_volume 2288.300774
_symmetry_space_group_name_H-M "P -4 N 2"
_symmetry_group_IT_number 118
_symmetry_cell_setting 'tetragonal'
loop_
_space_group_symop_operation_xyz
x,y,z
y,-x,-z
-x,-y,z
-y,x,-z
1/2+y,1/2+x,1/2-z
1/2-y,1/2-x,1/2-z
1/2-x,1/2+y,1/2+z
1/2+x,1/2-y,1/2+z
loop_
_atom_site_type_symbol
_atom_site_label
_atom_site_fract_x
_atom_site_fract_y
_atom_site_fract_z
Si Si1 0.615982 0.115982 0.250000
Si Si2 0.367414 0.248279 0.562832
Si Si3 0.875536 0.754950 0.250808
Si Si4 0.073366 0.811723 0.729469
Si Si5 0.109514 0.460728 0.086557
Si Si6 0.586544 0.286465 0.376226
Si Si7 0.591475 0.789001 0.913841
O O1 0.580804 0.078480 0.417174
O O2 0.599839 0.209717 0.261254
O O3 0.401728 0.250311 0.376733
O O4 0.338757 0.335226 0.612208
O O5 0.422425 0.226223 0.718411
O O6 0.296631 0.185455 0.564073
O O7 0.789085 0.710916 0.250000
O O8 0.866617 0.848474 0.288415
O O9 0.923754 0.696978 0.372447
O O10 0.915249 0.753401 0.066780
O O11 0.061702 0.772500 0.549708
O O12 0.988291 0.835853 0.806661
O O13 0.060316 0.439685 0.250000
O O14 0.126242 0.552149 0.053418
#
# Coordination Sequence:
#
# PCOD9558526 Si02
#       7
#     4   8   8   8   8   8   8
#     4  12  20  36  60  93 124 162 209 256 306 382
#     4  10  24  40  61  91 127 159 216 264 314 380
#     4  10  20  38  62  92 123 163 208 261 309 379
#     4  11  22  37  61  94 126 160 212 262 321 374
#     4  11  23  38  63  92 130 169 211 259 321 379
#     4  11  21  38  63  92 121 163 209 265 314 379
#     4  11  22  39  64  93 122 170 208 264 315 383
#
# _framework density 22.724285999999999
#
# number of rings (size 3 to 8) (size 9 to 14) (size 15 to 20)
#    0.000    1.231    4.615    4.154    2.154    0.000 
#    0.000    1.538    0.000   16.615    0.000   10.769 
#    0.000    0.000    0.000    0.000    0.000    0.000 
#
# Total GULP energy -290085.107022 kJ/mol
# GULP energy per Si atom -5578.559750 kJ/mol
# Density = 2.267256 g / cm^3
# Si number density = 22.724286 Si / 1000 Ang^3
#
#
#
# Elastic Constant Matrix: (Units=GPa)
#
#
# Indices 1 2 3 4 5 6 
#
# 1 88.2026 8.5303 2.5832 0.0000 0.0000 0.0000
# 2 8.5303 88.2017 2.5822 0.0000 0.0000 0.0000
# 3 2.5832 2.5822 92.2714 0.0000 0.0000 0.0000
# 4 0.0000 0.0000 0.0000 20.1474 0.0000 0.0000
# 5 0.0000 0.0000 0.0000 0.0000 20.1474 0.0000
# 6 0.0000 0.0000 0.0000 0.0000 0.0000 21.9062
#
#
#
# Elastic Compliance Matrix: (Units=1/GPa)
#
#
# Indices 1 2 3 4 5 6 
#
# 1 0.011452 -0.001099 -0.000290 0.000000 0.000000 0.000000
# 2 -0.001099 0.011452 -0.000290 0.000000 0.000000 0.000000
# 3 -0.000290 -0.000290 0.010854 0.000000 0.000000 0.000000
# 4 0.000000 0.000000 0.000000 0.049634 0.000000 0.000000
# 5 0.000000 0.000000 0.000000 0.000000 0.049634 0.000000
# 6 0.000000 0.000000 0.000000 0.000000 0.000000 0.045649
#
#
# Mechanical properties :
#
#
# Convention : Reuss Voigt Hill
#
# Bulk Modulus (GPa) = 32.89345 32.89634 32.89489
# Shear Modulus (GPa) = 26.01899 29.43886 27.72892
#
# Velocity S-wave (km/s) = 3.38744 3.60318 3.49697
# Velocity P-wave (km/s) = 5.45949 5.64077 5.55087
#
# Compressibility (1/GPa) = 0.03040119
#
# Stress axis : x y z
#
# Youngs Moduli (GPa) = 87.31852 87.31775 92.13343
#
# Poissons Ratio (x) = 0.09597 0.02671
# Poissons Ratio (y) = 0.09597 0.02669
# Poissons Ratio (z) = 0.02531 0.02530
#
# Static dielectric constant tensor:
#      x y z
#    x 1.917490 0.000000 0.000000 
#    y 0.000000 1.917490 0.000000 
#    z 0.000000 0.000000 1.861820 
# 
# From -- ./inp_files/2172.got.cif
#   From: 2010.05.17/outbox.cif.g08.bks.cpg/sg118_2_cif.got.tgz:2172.got - 2010.05.20 11:17:24.
