data_PCOD9558948
_publ_section_title
;
Structure prediction by ZEFSAII (Michael W. Deem and Ramdas Pophale) SiO2 
 PCOD9558948
Probable space group: I -4 M 2
;
_chemical_formula_sum "Si O2"
_cell_formula_units_Z 120
_cell_length_a 23.685658
_cell_length_b 23.685658
_cell_length_c 15.403441
_cell_angle_alpha 90.000000
_cell_angle_beta 90.000000
_cell_angle_gamma 90.000000
_cell_volume 8641.490518
_symmetry_space_group_name_H-M "I -4 M 2"
_symmetry_group_IT_number 119
_symmetry_cell_setting 'tetragonal'
loop_
_space_group_symop_operation_xyz
x,y,z
y,-x,-z
-x,-y,z
-y,x,-z
y,x,-z
-y,-x,-z
-x,y,z
x,-y,z
1/2+x,1/2+y,1/2+z
1/2+y,1/2-x,1/2-z
1/2-x,1/2-y,1/2+z
1/2-y,1/2+x,1/2-z
1/2+y,1/2+x,1/2-z
1/2-y,1/2-x,1/2-z
1/2-x,1/2+y,1/2+z
1/2+x,1/2-y,1/2+z
loop_
_atom_site_type_symbol
_atom_site_label
_atom_site_fract_x
_atom_site_fract_y
_atom_site_fract_z
Si Si1 0.436172 0.389042 0.177428
Si Si2 0.436493 0.313098 0.833612
Si Si3 0.564110 0.334717 0.364999
Si Si4 0.778964 0.827255 0.088043
Si Si5 0.324227 0.734259 0.757206
Si Si6 0.209376 0.936634 0.460876
Si Si7 0.065775 0.934226 0.000000
Si Si8 0.256016 0.683053 0.918818
O O1 0.500000 0.414619 0.178776
O O2 0.380456 0.427238 0.178848
O O3 0.431657 0.350701 0.263846
O O4 0.432360 0.348989 0.093092
O O5 0.500000 0.298200 0.806857
O O6 0.388737 0.277231 0.783725
O O7 0.430615 0.301608 0.936640
O O8 0.500000 0.318691 0.383722
O O9 0.607475 0.286867 0.392292
O O10 0.576894 0.391145 0.421399
O O11 0.810279 0.794977 0.166241
O O12 0.715807 0.803169 0.082298
O O13 0.810089 0.810089 0.000000
O O14 0.297224 0.797224 0.750000
O O15 0.288741 0.701670 0.831934
O O16 0.246228 0.883901 0.429281
O O17 0.231802 0.000000 0.444654
O O18 0.000000 0.927290 0.026423
O O19 0.291592 0.708409 0.000000
#
# Coordination Sequence:
#
# PCOD9558948 Si02
#       8
#    16  16  16  16  16  16   8  16
#     4  10  19  30  43  60  88 123 157 188 219 260
#     4  11  20  30  46  67  93 121 153 186 223 269
#     4  10  18  30  44  58  83 113 151 196 231 266
#     4  10  19  29  44  66  82 110 153 188 232 273
#     4  10  19  32  48  65  88 116 151 191 230 273
#     4  10  18  29  46  67  92 119 148 184 226 271
#     4   9  18  30  42  54  72 108 156 198 232 264
#     4  10  16  28  49  64  87 114 145 187 225 278
#
# _framework density 13.886493
#
# number of rings (size 3 to 8) (size 9 to 14) (size 15 to 20)
#    0.000    1.933    4.667    0.400    0.000    0.800 
#    0.000    2.000    0.000    2.400    0.000    0.000 
#    0.000    0.800    0.000    2.933    0.000   20.800 
#
# Total GULP energy -334240.388204 kJ/mol
# GULP energy per Si atom -5570.673137 kJ/mol
# Density = 1.385489 g / cm^3
# Si number density = 13.886493 Si / 1000 Ang^3
#
#
#
# Elastic Constant Matrix: (Units=GPa)
#
#
# Indices 1 2 3 4 5 6 
#
# 1 86.6557 52.7444 20.5770 0.0000 0.0000 0.0000
# 2 52.7444 86.6556 20.5772 0.0000 0.0000 0.0000
# 3 20.5770 20.5772 72.9231 0.0000 0.0000 0.0000
# 4 0.0000 0.0000 0.0000 17.2160 0.0000 0.0000
# 5 0.0000 0.0000 0.0000 0.0000 17.2158 0.0000
# 6 0.0000 0.0000 0.0000 0.0000 0.0000 23.6193
#
#
#
# Elastic Compliance Matrix: (Units=1/GPa)
#
#
# Indices 1 2 3 4 5 6 
#
# 1 0.018657 -0.010832 -0.002208 0.000000 0.000000 0.000000
# 2 -0.010832 0.018657 -0.002208 0.000000 0.000000 0.000000
# 3 -0.002208 -0.002208 0.014959 0.000000 0.000000 0.000000
# 4 0.000000 0.000000 0.000000 0.058086 0.000000 0.000000
# 5 0.000000 0.000000 0.000000 0.000000 0.058086 0.000000
# 6 0.000000 0.000000 0.000000 0.000000 0.000000 0.042338
#
#
# Mechanical properties :
#
#
# Convention : Reuss Voigt Hill
#
# Bulk Modulus (GPa) = 45.91873 48.22572 47.07222
# Shear Modulus (GPa) = 20.11761 21.76595 20.94178
#
# Velocity S-wave (km/s) = 3.81033 3.96336 3.88760
# Velocity P-wave (km/s) = 7.24549 7.46647 7.35681
#
# Compressibility (1/GPa) = 0.02177761
#
# Stress axis : x y z
#
# Youngs Moduli (GPa) = 53.59894 53.59878 66.84825
#
# Poissons Ratio (x) = 0.58056 0.14761
# Poissons Ratio (y) = 0.58056 0.14762
# Poissons Ratio (z) = 0.11835 0.11836
#
# Static dielectric constant tensor:
#      x y z
#    x 1.459240 0.000000 0.000000 
#    y 0.000000 1.459240 0.000000 
#    z 0.000000 0.000000 1.468250 
# 
# From -- ./inp_files/5722.got.cif
#   From: 2010.05.17/outbox.cif.g08.bks.cpg/sg119_3_cif.got.tgz:5722.got - 2010.05.20 11:21:29.
