data_PCOD9558977
_publ_section_title
;
Structure prediction by ZEFSAII (Michael W. Deem and Ramdas Pophale) SiO2 
 PCOD9558977
Probable space group: I -4 M 2
;
_chemical_formula_sum "Si O2"
_cell_formula_units_Z 112
_cell_length_a 14.324381
_cell_length_b 14.324381
_cell_length_c 38.328197
_cell_angle_alpha 90.000000
_cell_angle_beta 90.000000
_cell_angle_gamma 90.000000
_cell_volume 7864.481910
_symmetry_space_group_name_H-M "I -4 M 2"
_symmetry_group_IT_number 119
_symmetry_cell_setting 'tetragonal'
loop_
_space_group_symop_operation_xyz
x,y,z
y,-x,-z
-x,-y,z
-y,x,-z
y,x,-z
-y,-x,-z
-x,y,z
x,-y,z
1/2+x,1/2+y,1/2+z
1/2+y,1/2-x,1/2-z
1/2-x,1/2-y,1/2+z
1/2-y,1/2+x,1/2-z
1/2+y,1/2+x,1/2-z
1/2-y,1/2-x,1/2-z
1/2-x,1/2+y,1/2+z
1/2+x,1/2-y,1/2+z
loop_
_atom_site_type_symbol
_atom_site_label
_atom_site_fract_x
_atom_site_fract_y
_atom_site_fract_z
Si Si1 0.108172 0.110167 0.397005
Si Si2 0.611464 0.210081 0.141247
Si Si3 0.893754 0.113766 0.039518
Si Si4 0.386592 0.892207 0.211383
Si Si5 0.288853 0.387612 0.032167
Si Si6 0.612261 0.789439 0.423437
Si Si7 0.612516 0.105430 0.003584
O O1 0.179989 0.125612 0.365586
O O2 0.140054 0.169094 0.430652
O O3 0.000000 0.131716 0.389104
O O4 0.112965 0.000000 0.406350
O O5 0.500000 0.191424 0.137605
O O6 0.641273 0.171499 0.178862
O O7 0.665376 0.157861 0.110317
O O8 0.816098 0.142409 0.067329
O O9 0.000000 0.145430 0.045606
O O10 0.895606 0.000000 0.039487
O O11 0.862340 0.137661 0.000000
O O12 0.500000 0.893573 0.212402
O O13 0.358362 0.858362 0.250000
O O14 0.356582 0.000000 0.206001
O O15 0.295101 0.500000 0.030861
O O16 0.181861 0.359914 0.024953
O O17 0.346896 0.346896 0.000000
O O18 0.500000 0.790947 0.419183
O O19 0.632863 0.848391 0.458526
O O20 0.500000 0.104843 0.005536
O O21 0.644698 0.000000 0.995982
#
# Coordination Sequence:
#
# PCOD9558977 Si02
#       7
#    16  16  16  16  16  16  16
#     4   9  18  30  41  55  75  99 132 170 198 222
#     4  10  18  27  41  60  82 106 127 151 188 229
#     4   8  15  28  41  51  68  97 134 173 204 228
#     4   8  14  25  41  62  87 109 124 139 166 214
#     4  10  18  27  40  55  73 100 132 166 201 234
#     4  10  18  25  37  58  79 100 127 159 197 239
#     4   9  18  30  40  52  73 100 130 164 201 240
#
# _framework density 14.241243000000001
#
# number of rings (size 3 to 8) (size 9 to 14) (size 15 to 20)
#    0.000    2.857    0.000    3.000    0.000    6.143 
#    0.000    0.000    0.000    0.000    0.000    1.000 
#    0.000    5.714    0.000    0.000    0.000    0.000 
#
# Total GULP energy -312101.931570 kJ/mol
# GULP energy per Si atom -5573.248778 kJ/mol
# Density = 1.420883 g / cm^3
# Si number density = 14.241243 Si / 1000 Ang^3
#
#
#
# Elastic Constant Matrix: (Units=GPa)
#
#
# Indices 1 2 3 4 5 6 
#
# 1 49.7299 26.7672 46.2600 0.0000 0.0000 0.0000
# 2 26.7672 49.7301 46.2599 0.0000 0.0000 0.0000
# 3 46.2600 46.2599 108.4464 0.0000 0.0000 0.0000
# 4 0.0000 0.0000 0.0000 15.3469 0.0000 0.0000
# 5 0.0000 0.0000 0.0000 0.0000 15.3469 0.0000
# 6 0.0000 0.0000 0.0000 0.0000 0.0000 9.1000
#
#
#
# Elastic Compliance Matrix: (Units=1/GPa)
#
#
# Indices 1 2 3 4 5 6 
#
# 1 0.035277 -0.008272 -0.011519 0.000000 0.000000 0.000000
# 2 -0.008272 0.035276 -0.011519 0.000000 0.000000 0.000000
# 3 -0.011519 -0.011519 0.019049 0.000000 0.000000 0.000000
# 4 0.000000 0.000000 0.000000 0.065160 0.000000 0.000000
# 5 0.000000 0.000000 0.000000 0.000000 0.065160 0.000000
# 6 0.000000 0.000000 0.000000 0.000000 0.000000 0.109890
#
#
# Mechanical properties :
#
#
# Convention : Reuss Voigt Hill
#
# Bulk Modulus (GPa) = 37.06390 49.60896 43.33643
# Shear Modulus (GPa) = 12.45557 13.86670 13.16113
#
# Velocity S-wave (km/s) = 2.96059 3.12380 3.04329
# Velocity P-wave (km/s) = 6.14565 6.92251 6.54562
#
# Compressibility (1/GPa) = 0.02698043
#
# Stress axis : x y z
#
# Youngs Moduli (GPa) = 28.34731 28.34751 52.49709
#
# Poissons Ratio (x) = 0.23450 0.60473
# Poissons Ratio (y) = 0.23449 0.60472
# Poissons Ratio (z) = 0.32654 0.32654
#
# Static dielectric constant tensor:
#      x y z
#    x 1.498620 0.000000 0.000000 
#    y 0.000000 1.498620 0.000000 
#    z 0.000000 0.000000 1.439590 
# 
# From -- ./inp_files/10447.got.cif
#   From: 2010.05.17/outbox.cif.g08.bks.cpg/sg119_6_cif.got.tgz:10447.got - 2010.05.20 11:21:29.
