data_PCOD9558985
_publ_section_title
;
Structure prediction by ZEFSAII (Michael W. Deem and Ramdas Pophale) SiO2 
 PCOD9558985
Probable space group: I -4 M 2
;
_chemical_formula_sum "Si O2"
_cell_formula_units_Z 112
_cell_length_a 14.854536
_cell_length_b 14.854536
_cell_length_c 36.009198
_cell_angle_alpha 90.000000
_cell_angle_beta 90.000000
_cell_angle_gamma 90.000000
_cell_volume 7945.690237
_symmetry_space_group_name_H-M "I -4 M 2"
_symmetry_group_IT_number 119
_symmetry_cell_setting 'tetragonal'
loop_
_space_group_symop_operation_xyz
x,y,z
y,-x,-z
-x,-y,z
-y,x,-z
y,x,-z
-y,-x,-z
-x,y,z
x,-y,z
1/2+x,1/2+y,1/2+z
1/2+y,1/2-x,1/2-z
1/2-x,1/2-y,1/2+z
1/2-y,1/2+x,1/2-z
1/2+y,1/2+x,1/2-z
1/2-y,1/2-x,1/2-z
1/2-x,1/2+y,1/2+z
1/2+x,1/2-y,1/2+z
loop_
_atom_site_type_symbol
_atom_site_label
_atom_site_fract_x
_atom_site_fract_y
_atom_site_fract_z
Si Si1 0.897780 0.705701 0.986458
Si Si2 0.399937 0.602579 0.445665
Si Si3 0.107447 0.286745 0.363155
Si Si4 0.105877 0.218369 0.530242
Si Si5 0.894276 0.101188 0.394391
Si Si6 0.708762 0.897485 0.924555
Si Si7 0.603874 0.109567 0.708744
O O1 0.894871 0.808221 0.971200
O O2 0.817736 0.648962 0.968365
O O3 0.000000 0.673027 0.979527
O O4 0.882408 0.701039 0.031005
O O5 0.500000 0.603965 0.429256
O O6 0.390411 0.500000 0.462880
O O7 0.315960 0.609634 0.418087
O O8 0.124139 0.180318 0.365414
O O9 0.153632 0.331069 0.398991
O O10 0.138976 0.334622 0.325476
O O11 0.000000 0.301337 0.365903
O O12 0.161160 0.161160 0.500000
O O13 0.113619 0.167142 0.569387
O O14 0.000000 0.223039 0.520404
O O15 0.000000 0.108755 0.405404
O O16 0.880393 0.000000 0.380073
O O17 0.679545 0.000000 0.917054
O O18 0.500000 0.137956 0.703133
O O19 0.635968 0.135968 0.750000
O O20 0.603464 0.000000 0.709299
#
# Coordination Sequence:
#
# PCOD9558985 Si02
#       7
#    16  16  16  16  16  16  16
#     4  10  20  31  42  58  81 107 137 175 218 259
#     4   9  17  29  44  59  76 103 141 181 213 242
#     4  10  18  28  43  60  81 108 131 156 197 241
#     4  11  21  32  45  58  76 105 142 180 215 249
#     4   9  18  30  42  58  78 101 136 178 208 231
#     4  10  19  27  37  57  81 103 131 166 203 245
#     4   8  14  25  41  62  86 107 126 147 174 221
#
# _framework density 14.095692
#
# number of rings (size 3 to 8) (size 9 to 14) (size 15 to 20)
#    0.000    2.429    0.000    4.286    0.000    5.286 
#    0.000    5.714    0.000    0.000    0.000    1.000 
#    0.000    5.714    0.000    0.000    0.000    0.000 
#
# Total GULP energy -311840.634596 kJ/mol
# GULP energy per Si atom -5568.582761 kJ/mol
# Density = 1.406361 g / cm^3
# Si number density = 14.095692 Si / 1000 Ang^3
#
#
#
# Elastic Constant Matrix: (Units=GPa)
#
#
# Indices 1 2 3 4 5 6 
#
# 1 73.9216 46.5454 36.2847 0.0000 0.0000 0.0000
# 2 46.5454 73.9216 36.2847 0.0000 0.0000 0.0000
# 3 36.2847 36.2847 56.7125 0.0000 0.0000 0.0000
# 4 0.0000 0.0000 0.0000 11.6104 0.0000 0.0000
# 5 0.0000 0.0000 0.0000 0.0000 11.6104 0.0000
# 6 0.0000 0.0000 0.0000 0.0000 0.0000 22.8249
#
#
#
# Elastic Compliance Matrix: (Units=1/GPa)
#
#
# Indices 1 2 3 4 5 6 
#
# 1 0.025017 -0.011511 -0.008642 0.000000 0.000000 0.000000
# 2 -0.011511 0.025017 -0.008642 0.000000 0.000000 0.000000
# 3 -0.008642 -0.008642 0.028691 0.000000 0.000000 0.000000
# 4 0.000000 0.000000 0.000000 0.086129 0.000000 0.000000
# 5 0.000000 0.000000 0.000000 0.000000 0.086129 0.000000
# 6 0.000000 0.000000 0.000000 0.000000 0.000000 0.043812
#
#
# Mechanical properties :
#
#
# Convention : Reuss Voigt Hill
#
# Bulk Modulus (GPa) = 47.30899 49.19837 48.25368
# Shear Modulus (GPa) = 13.91093 14.90522 14.40808
#
# Velocity S-wave (km/s) = 3.14489 3.25534 3.20059
# Velocity P-wave (km/s) = 6.84271 7.00775 6.92572
#
# Compressibility (1/GPa) = 0.02113763
#
# Stress axis : x y z
#
# Youngs Moduli (GPa) = 39.97219 39.97219 34.85460
#
# Poissons Ratio (x) = 0.46011 0.30120
# Poissons Ratio (y) = 0.46011 0.30120
# Poissons Ratio (z) = 0.34542 0.34542
#
# Static dielectric constant tensor:
#      x y z
#    x 1.488070 0.000000 0.000000 
#    y 0.000000 1.488070 0.000000 
#    z 0.000000 0.000000 1.443130 
# 
# From -- ./inp_files/10446.got.cif
#   From: 2010.05.17/outbox.cif.g08.bks.cpg/sg119_6_cif.got.tgz:10446.got - 2010.05.20 11:21:29.
