data_PCOD9558442
_publ_section_title
;
Structure prediction by ZEFSAII (Michael W. Deem and Ramdas Pophale) SiO2 
 PCOD9558442
Probable space group: P -4 N 2
;
_chemical_formula_sum "Si O2"
_cell_formula_units_Z 34
_cell_length_a 16.197770
_cell_length_b 16.197770
_cell_length_c 5.139987
_cell_angle_alpha 90.000000
_cell_angle_beta 90.000000
_cell_angle_gamma 90.000000
_cell_volume 1348.566839
_symmetry_space_group_name_H-M "P -4 N 2"
_symmetry_group_IT_number 118
_symmetry_cell_setting 'tetragonal'
loop_
_space_group_symop_operation_xyz
x,y,z
y,-x,-z
-x,-y,z
-y,x,-z
1/2+y,1/2+x,1/2-z
1/2-y,1/2-x,1/2-z
1/2-x,1/2+y,1/2+z
1/2+x,1/2-y,1/2+z
loop_
_atom_site_type_symbol
_atom_site_label
_atom_site_fract_x
_atom_site_fract_y
_atom_site_fract_z
Si Si1 0.046475 0.675244 0.166502
Si Si2 0.740813 0.515859 0.833110
Si Si3 0.874571 0.101805 0.692577
Si Si4 0.207473 0.780224 0.017453
Si Si5 0.500000 0.500000 0.500000
O O1 0.088285 0.588285 0.250000
O O2 0.994041 0.704435 0.409917
O O3 0.995419 0.694800 0.904107
O O4 0.125592 0.736549 0.129754
O O5 0.673427 0.584105 0.928247
O O6 0.678189 0.437088 0.822897
O O7 0.810458 0.128893 0.913657
O O8 0.925095 0.024941 0.810453
O O9 0.233854 0.733854 0.750000
O O10 0.272926 0.772926 0.250000
#
# Coordination Sequence:
#
# PCOD9558442 Si02
#       5
#     8   8   8   8   2
#     4  10  19  34  52  74  99 139 190 239 294 343
#     4  11  22  33  53  74 108 148 186 241 287 361
#     4  11  22  36  52  80 114 154 202 237 307 375
#     4  10  20  34  54  72  98 143 196 251 288 337
#     4  12  24  38  56  82 128 170 196 250 312 406
#
# _framework density 25.211950999999999
#
# number of rings (size 3 to 8) (size 9 to 14) (size 15 to 20)
#    0.000    1.412    0.000   10.588    0.000    7.529 
#    0.000    0.000    0.000    0.000    0.000    0.000 
#    0.000    0.941    0.000   39.059    0.000   43.059 
#
# Total GULP energy -189957.229659 kJ/mol
# GULP energy per Si atom -5586.977343 kJ/mol
# Density = 2.515457 g / cm^3
# Si number density = 25.211951 Si / 1000 Ang^3
#
#
#
# Elastic Constant Matrix: (Units=GPa)
#
#
# Indices 1 2 3 4 5 6 
#
# 1 22.5369 7.5144 13.6362 0.0000 0.0000 0.0000
# 2 7.5144 22.5369 13.6362 0.0000 0.0000 0.0000
# 3 13.6362 13.6362 206.3925 0.0000 0.0000 0.0000
# 4 0.0000 0.0000 0.0000 34.2389 0.0000 0.0000
# 5 0.0000 0.0000 0.0000 0.0000 34.2389 0.0000
# 6 0.0000 0.0000 0.0000 0.0000 0.0000 42.3156
#
#
#
# Elastic Compliance Matrix: (Units=1/GPa)
#
#
# Indices 1 2 3 4 5 6 
#
# 1 0.050983 -0.015584 -0.002339 0.000000 0.000000 0.000000
# 2 -0.015584 0.050983 -0.002339 0.000000 0.000000 0.000000
# 3 -0.002339 -0.002339 0.005154 0.000000 0.000000 0.000000
# 4 0.000000 0.000000 0.000000 0.029207 0.000000 0.000000
# 5 0.000000 0.000000 0.000000 0.000000 0.029207 0.000000
# 6 0.000000 0.000000 0.000000 0.000000 0.000000 0.023632
#
#
# Mechanical properties :
#
#
# Convention : Reuss Voigt Hill
#
# Bulk Modulus (GPa) = 15.01572 35.67110 25.34341
# Shear Modulus (GPa) = 19.85017 36.60398 28.22707
#
# Velocity S-wave (km/s) = 2.80899 3.81445 3.34966
# Velocity P-wave (km/s) = 4.06070 5.79476 5.00342
#
# Compressibility (1/GPa) = 0.06659688
#
# Stress axis : x y z
#
# Youngs Moduli (GPa) = 19.61442 19.61442 194.01729
#
# Poissons Ratio (x) = 0.30567 0.45376
# Poissons Ratio (y) = 0.30567 0.45376
# Poissons Ratio (z) = 0.04587 0.04587
#
# Static dielectric constant tensor:
#      x y z
#    x 2.071670 0.000000 0.000000 
#    y 0.000000 2.071670 0.000000 
#    z 0.000000 0.000000 2.072020 
# 
# From -- ./inp_files/541.got.cif
#   From: 2010.05.17/outbox.cif.g08.bks.cpg/sg118_1_cif.got.tgz:541.got - 2010.05.20 11:17:24.
