data_PCOD9558983
_publ_section_title
;
Structure prediction by ZEFSAII (Michael W. Deem and Ramdas Pophale) SiO2 
 PCOD9558983
Probable space group: I -4 M 2
;
_chemical_formula_sum "Si O2"
_cell_formula_units_Z 48
_cell_length_a 14.009008
_cell_length_b 14.009008
_cell_length_c 9.917874
_cell_angle_alpha 90.000000
_cell_angle_beta 90.000000
_cell_angle_gamma 90.000000
_cell_volume 1946.405635
_symmetry_space_group_name_H-M "I -4 M 2"
_symmetry_group_IT_number 119
_symmetry_cell_setting 'tetragonal'
loop_
_space_group_symop_operation_xyz
x,y,z
y,-x,-z
-x,-y,z
-y,x,-z
y,x,-z
-y,-x,-z
-x,y,z
x,-y,z
1/2+x,1/2+y,1/2+z
1/2+y,1/2-x,1/2-z
1/2-x,1/2-y,1/2+z
1/2-y,1/2+x,1/2-z
1/2+y,1/2+x,1/2-z
1/2-y,1/2-x,1/2-z
1/2-x,1/2+y,1/2+z
1/2+x,1/2-y,1/2+z
loop_
_atom_site_type_symbol
_atom_site_label
_atom_site_fract_x
_atom_site_fract_y
_atom_site_fract_z
Si Si1 0.108389 0.384893 0.595007
Si Si2 0.115703 0.108366 0.345023
Si Si3 0.112852 0.275391 0.151797
O O1 0.103969 0.500000 0.582636
O O2 0.132711 0.367290 0.750000
O O3 0.188593 0.350437 0.491974
O O4 0.000000 0.350088 0.564074
O O5 0.136423 0.136423 0.500000
O O6 0.149428 0.182832 0.232533
O O7 0.000000 0.106602 0.340298
O O8 0.148573 0.000000 0.318340
O O9 0.136525 0.363476 0.250000
O O10 0.000000 0.260526 0.138002
#
# Coordination Sequence:
#
# PCOD9558983 Si02
#       3
#    16  16  16
#     4   8  14  25  41  67 115 175 214 234 278 360
#     4   8  15  30  52  79 114 158 209 261 308 354
#     4  10  18  27  47  85 126 162 203 249 299 358
#
# _framework density 24.660838999999999
#
# number of rings (size 3 to 8) (size 9 to 14) (size 15 to 20)
#    0.000    3.333    0.000    3.000    0.000    1.667 
#    0.000    0.000    0.000    2.000    0.000   11.667 
#    0.000   22.000    0.000    4.667    0.000    2.000 
#
# Total GULP energy -134130.088296 kJ/mol
# GULP energy per Si atom -5588.753679 kJ/mol
# Density = 2.460471 g / cm^3
# Si number density = 24.660839 Si / 1000 Ang^3
#
#
#
# Elastic Constant Matrix: (Units=GPa)
#
#
# Indices 1 2 3 4 5 6 
#
# 1 89.1952 87.5073 69.6827 0.0000 0.0000 0.0000
# 2 87.5073 89.1807 69.6825 0.0000 0.0000 0.0000
# 3 69.6827 69.6825 225.9967 0.0000 0.0000 0.0000
# 4 0.0000 0.0000 0.0000 -8.8092 0.0000 0.0000
# 5 0.0000 0.0000 0.0000 0.0000 -8.8157 0.0000
# 6 0.0000 0.0000 0.0000 0.0000 0.0000 15.3255
#
#
#
# Elastic Compliance Matrix: (Units=1/GPa)
#
#
# Indices 1 2 3 4 5 6 
#
# 1 0.301216 -0.293770 -0.002296 0.000000 0.000000 0.000000
# 2 -0.293770 0.301280 -0.002315 0.000000 0.000000 0.000000
# 3 -0.002296 -0.002315 0.005847 0.000000 0.000000 0.000000
# 4 0.000000 0.000000 0.000000 -0.113518 0.000000 0.000000
# 5 0.000000 0.000000 0.000000 0.000000 -0.113433 0.000000
# 6 0.000000 0.000000 0.000000 0.000000 0.000000 0.065251
#
#
# Mechanical properties :
#
#
# Convention : Reuss Voigt Hill
#
# Bulk Modulus (GPa) = 86.35661 95.34641 90.85151
# Shear Modulus (GPa) = 4.77435 11.37345 8.07390
#
# Velocity S-wave (km/s) = 1.39291 2.14987 1.81138
# Velocity P-wave (km/s) = 6.13846 6.70146 6.42613
#
# Compressibility (1/GPa) = 0.01157989
#
# Stress axis : x y z
#
# Youngs Moduli (GPa) = 3.31988 3.31917 171.03576
#
# Poissons Ratio (x) = 0.97507 0.39272
# Poissons Ratio (y) = 0.97528 0.39601
# Poissons Ratio (z) = 0.00762 0.00769
#
# Static dielectric constant tensor:
#      x y z
#    x 1.992230 0.000000 0.000000 
#    y 0.000000 1.992230 0.000000 
#    z 0.000000 0.000000 1.948170 
# 
# From -- ./inp_files/1796.got.cif
#   From: 2010.05.17/outbox.cif.g08.bks.cpg/sg119_1_cif.got.tgz:1796.got - 2010.05.20 11:21:29.
