data_PCOD9558190
_publ_section_title
;
Structure prediction by ZEFSAII (Michael W. Deem and Ramdas Pophale) SiO2 
 PCOD9558190
Probable space group: P -4 B 2
;
_chemical_formula_sum "Si O2"
_cell_formula_units_Z 40
_cell_length_a 14.261888
_cell_length_b 14.261888
_cell_length_c 8.017074
_cell_angle_alpha 90.000000
_cell_angle_beta 90.000000
_cell_angle_gamma 90.000000
_cell_volume 1630.684471
_symmetry_space_group_name_H-M "P -4 B 2"
_symmetry_group_IT_number 117
_symmetry_cell_setting 'tetragonal'
loop_
_space_group_symop_operation_xyz
x,y,z
y,-x,-z
-x,-y,z
-y,x,-z
1/2+y,1/2+x,-z
1/2-y,1/2-x,-z
1/2-x,1/2+y,z
1/2+x,1/2-y,z
loop_
_atom_site_type_symbol
_atom_site_label
_atom_site_fract_x
_atom_site_fract_y
_atom_site_fract_z
Si Si1 0.703358 0.417407 0.644008
Si Si2 0.954902 0.597209 0.693634
Si Si3 0.631604 0.770140 0.702523
Si Si4 0.606417 0.248748 0.182823
Si Si5 0.445100 0.624487 0.926199
O O1 0.698238 0.389109 0.451341
O O2 0.798027 0.358967 0.684528
O O3 0.720690 0.526534 0.682833
O O4 0.616155 0.387533 0.761229
O O5 0.925301 0.574700 0.500000
O O6 0.859193 0.622275 0.783699
O O7 0.000000 0.500000 0.756883
O O8 0.031972 0.678206 0.715661
O O9 0.694933 0.703825 0.817667
O O10 0.559569 0.274373 0.007594
O O11 0.553130 0.594264 0.928974
#
# Coordination Sequence:
#
# PCOD9558190 Si02
#       5
#     8   8   8   8   8
#     4  10  21  42  64  96 141 178 238 285 353 423
#     4  11  20  42  69 103 146 182 220 301 367 415
#     4  11  23  37  69 107 130 183 231 297 354 426
#     4  11  23  39  69 101 135 187 239 283 360 428
#     4   9  21  42  66  96 142 194 233 292 356 420
#
# _framework density 24.529574
#
# number of rings (size 3 to 8) (size 9 to 14) (size 15 to 20)
#    0.000    1.600    4.000    1.200    2.800    4.000 
#    0.000    2.000    0.000    0.000    0.000    1.400 
#    0.000    0.000    0.000    0.000    0.000    0.000 
#
# Total GULP energy -223170.513763 kJ/mol
# GULP energy per Si atom -5579.262844 kJ/mol
# Density = 2.447374 g / cm^3
# Si number density = 24.529574 Si / 1000 Ang^3
#
#
#
# Elastic Constant Matrix: (Units=GPa)
#
#
# Indices 1 2 3 4 5 6 
#
# 1 127.7793 64.8830 36.7175 0.0000 0.0000 0.0000
# 2 64.8830 127.7792 36.7175 0.0000 0.0000 0.0000
# 3 36.7175 36.7175 34.5368 0.0000 0.0000 0.0000
# 4 0.0000 0.0000 0.0000 -74.5636 0.0000 0.0000
# 5 0.0000 0.0000 0.0000 0.0000 -74.5474 0.0000
# 6 0.0000 0.0000 0.0000 0.0000 0.0000 40.1101
#
#
#
# Elastic Compliance Matrix: (Units=1/GPa)
#
#
# Indices 1 2 3 4 5 6 
#
# 1 0.012313 -0.003586 -0.009278 0.000000 0.000000 0.000000
# 2 -0.003586 0.012313 -0.009278 0.000000 0.000000 0.000000
# 3 -0.009278 -0.009278 0.048682 0.000000 0.000000 0.000000
# 4 0.000000 0.000000 0.000000 -0.013411 0.000000 0.000000
# 5 0.000000 0.000000 0.000000 0.000000 -0.013414 0.000000
# 6 0.000000 0.000000 0.000000 0.000000 0.000000 0.024931
#
#
# Mechanical properties :
#
#
# Convention : Reuss Voigt Hill
#
# Bulk Modulus (GPa) = 34.45395 62.97016 48.71205
# Shear Modulus (GPa) = 39.88134 -11.68170 14.09982
#
# Velocity S-wave (km/s) = 4.03655 -2.18463 2.40012
# Velocity P-wave (km/s) = 5.98343 4.40038 5.25189
#
# Compressibility (1/GPa) = 0.02902425
#
# Stress axis : x y z
#
# Youngs Moduli (GPa) = 81.21521 81.21512 20.54152
#
# Poissons Ratio (x) = 0.29126 0.19058
# Poissons Ratio (y) = 0.29126 0.19058
# Poissons Ratio (z) = 0.75350 0.75350
#
# Static dielectric constant tensor:
#      x y z
#    x 4.437190 0.000000 0.000000 
#    y 0.000000 4.437670 0.000000 
#    z 0.000000 0.000000 2.017600 
# 
# From -- ./inp_files/1729.got.cif
#   From: 2010.05.17/outbox.cif.g08.bks.cpg/sg117_1_cif.got.tgz:1729.got - 2010.05.20 11:15:09.
