data_PCOD9558262
_publ_section_title
;
Structure prediction by ZEFSAII (Michael W. Deem and Ramdas Pophale) SiO2 
 PCOD9558262
Probable space group: P -4 B 2
;
_chemical_formula_sum "Si O2"
_cell_formula_units_Z 40
_cell_length_a 15.071977
_cell_length_b 15.071977
_cell_length_c 8.109544
_cell_angle_alpha 90.000000
_cell_angle_beta 90.000000
_cell_angle_gamma 90.000000
_cell_volume 1842.200432
_symmetry_space_group_name_H-M "P -4 B 2"
_symmetry_group_IT_number 117
_symmetry_cell_setting 'tetragonal'
loop_
_space_group_symop_operation_xyz
x,y,z
y,-x,-z
-x,-y,z
-y,x,-z
1/2+y,1/2+x,-z
1/2-y,1/2-x,-z
1/2-x,1/2+y,z
1/2+x,1/2-y,z
loop_
_atom_site_type_symbol
_atom_site_label
_atom_site_fract_x
_atom_site_fract_y
_atom_site_fract_z
Si Si1 0.628125 0.129198 0.308290
Si Si2 0.258861 0.029155 0.301258
Si Si3 0.251092 0.524096 0.682091
Si Si4 0.144675 0.980929 0.990824
Si Si5 0.269254 0.223737 0.804496
O O1 0.646677 0.146677 0.500000
O O2 0.526096 0.157653 0.283402
O O3 0.699722 0.195095 0.221752
O O4 0.649063 0.025455 0.282724
O O5 0.226773 0.012288 0.489042
O O6 0.257575 0.134448 0.275205
O O7 0.204325 0.985776 0.152371
O O8 0.255385 0.627506 0.729172
O O9 0.311766 0.472294 0.812373
O O10 0.074184 0.904874 0.013531
O O11 0.284150 0.215851 0.000000
#
# Coordination Sequence:
#
# PCOD9558262 Si02
#       5
#     8   8   8   8   8
#     4  10  24  43  68  97 131 180 223 270 331 391
#     4  11  24  43  66  96 132 172 221 272 328 394
#     4  11  24  43  66  96 132 172 221 272 328 394
#     4  11  24  40  62  95 128 170 222 271 334 395
#     4  12  24  41  68  98 134 177 219 273 332 393
#
# _framework density 21.713163000000002
#
# number of rings (size 3 to 8) (size 9 to 14) (size 15 to 20)
#    0.000    1.000    2.000    4.200    2.800    5.600 
#    0.000    6.000    0.000    0.000    0.000    0.000 
#    0.000    0.000    0.000    0.000    0.000    0.000 
#
# Total GULP energy -223176.669735 kJ/mol
# GULP energy per Si atom -5579.416743 kJ/mol
# Density = 2.166374 g / cm^3
# Si number density = 21.713163 Si / 1000 Ang^3
#
#
#
# Elastic Constant Matrix: (Units=GPa)
#
#
# Indices 1 2 3 4 5 6 
#
# 1 62.0164 -1.3289 8.7356 0.0000 0.0000 0.0000
# 2 -1.3289 62.0167 8.7354 0.0000 0.0000 0.0000
# 3 8.7356 8.7354 55.8157 0.0000 0.0000 0.0000
# 4 0.0000 0.0000 0.0000 60.0358 0.0000 0.0000
# 5 0.0000 0.0000 0.0000 0.0000 60.0258 0.0000
# 6 0.0000 0.0000 0.0000 0.0000 0.0000 49.3772
#
#
#
# Elastic Compliance Matrix: (Units=1/GPa)
#
#
# Indices 1 2 3 4 5 6 
#
# 1 0.016521 0.000734 -0.002701 0.000000 0.000000 0.000000
# 2 0.000734 0.016521 -0.002701 0.000000 0.000000 0.000000
# 3 -0.002701 -0.002701 0.018761 0.000000 0.000000 0.000000
# 4 0.000000 0.000000 0.000000 0.016657 0.000000 0.000000
# 5 0.000000 0.000000 0.000000 0.000000 0.016660 0.000000
# 6 0.000000 0.000000 0.000000 0.000000 0.000000 0.020252
#
#
# Mechanical properties :
#
#
# Convention : Reuss Voigt Hill
#
# Bulk Modulus (GPa) = 23.54617 23.57032 23.55825
# Shear Modulus (GPa) = 38.80134 44.80155 41.80145
#
# Velocity S-wave (km/s) = 4.23187 4.54732 4.39243
# Velocity P-wave (km/s) = 5.89458 6.20079 6.04962
#
# Compressibility (1/GPa) = 0.04246974
#
# Stress axis : x y z
#
# Youngs Moduli (GPa) = 60.52934 60.52978 53.30093
#
# Poissons Ratio (x) = -0.04445 0.14394
# Poissons Ratio (y) = -0.04445 0.14394
# Poissons Ratio (z) = 0.16346 0.16346
#
# Static dielectric constant tensor:
#      x y z
#    x 1.804390 0.000000 0.000000 
#    y 0.000000 1.804380 0.000000 
#    z 0.000000 0.000000 1.829480 
# 
# From -- ./inp_files/1705.got.cif
#   From: 2010.05.17/outbox.cif.g08.bks.cpg/sg117_1_cif.got.tgz:1705.got - 2010.05.20 11:15:09.
