data_PCOD9558181
_publ_section_title
;
Structure prediction by ZEFSAII (Michael W. Deem and Ramdas Pophale) SiO2 
 PCOD9558181
Probable space group: P -4 B 2
;
_chemical_formula_sum "Si O2"
_cell_formula_units_Z 32
_cell_length_a 14.028301
_cell_length_b 14.028301
_cell_length_c 8.333397
_cell_angle_alpha 90.000000
_cell_angle_beta 90.000000
_cell_angle_gamma 90.000000
_cell_volume 1639.956104
_symmetry_space_group_name_H-M "P -4 B 2"
_symmetry_group_IT_number 117
_symmetry_cell_setting 'tetragonal'
loop_
_space_group_symop_operation_xyz
x,y,z
y,-x,-z
-x,-y,z
-y,x,-z
1/2+y,1/2+x,-z
1/2-y,1/2-x,-z
1/2-x,1/2+y,z
1/2+x,1/2-y,z
loop_
_atom_site_type_symbol
_atom_site_label
_atom_site_fract_x
_atom_site_fract_y
_atom_site_fract_z
Si Si1 0.819712 0.501647 0.763894
Si Si2 0.160729 0.339272 0.500000
Si Si3 0.500000 0.500000 0.000000
Si Si4 0.200075 0.764736 0.248132
Si Si5 0.841017 0.132001 0.912262
Si Si6 0.500000 0.000000 0.000000
O O1 0.839717 0.569341 0.613511
O O2 0.786127 0.397975 0.708582
O O3 0.734852 0.551859 0.862876
O O4 0.908596 0.497516 0.884196
O O5 0.170359 0.247462 0.615775
O O6 0.582443 0.444121 0.096735
O O7 0.278198 0.684190 0.200673
O O8 0.179320 0.828407 0.090500
#
# Coordination Sequence:
#
# PCOD9558181 Si02
#       6
#     8   4   2   8   8   2
#     4  11  23  42  62  95 125 169 213 269 329 386
#     4  10  24  43  58  89 132 164 212 256 328 408
#     4  12  20  36  72 102 120 164 216 282 304 396
#     4  10  21  43  63  88 130 168 205 273 326 387
#     4  10  21  40  65  96 121 159 219 266 318 376
#     4  12  24  38  72  92 120 170 228 280 320 386
#
# _framework density 19.512715
#
# number of rings (size 3 to 8) (size 9 to 14) (size 15 to 20)
#    0.000    1.500    2.500    4.500    0.000    2.500 
#    9.000    0.000    0.000    1.500    0.000    0.000 
#    0.000    0.000    0.000    0.000    0.000    0.000 
#
# Total GULP energy -178705.046115 kJ/mol
# GULP energy per Si atom -5584.532691 kJ/mol
# Density = 1.946830 g / cm^3
# Si number density = 19.512715 Si / 1000 Ang^3
#
#
#
# Elastic Constant Matrix: (Units=GPa)
#
#
# Indices 1 2 3 4 5 6 
#
# 1 130.2695 75.5386 50.2824 0.0000 0.0000 0.0000
# 2 75.5386 130.2695 50.2830 0.0000 0.0000 0.0000
# 3 50.2824 50.2830 108.7775 0.0000 0.0000 0.0000
# 4 0.0000 0.0000 0.0000 5.8666 0.0000 0.0000
# 5 0.0000 0.0000 0.0000 0.0000 5.8673 0.0000
# 6 0.0000 0.0000 0.0000 0.0000 0.0000 32.1027
#
#
#
# Elastic Compliance Matrix: (Units=1/GPa)
#
#
# Indices 1 2 3 4 5 6 
#
# 1 0.012274 -0.005997 -0.002901 0.000000 0.000000 0.000000
# 2 -0.005997 0.012274 -0.002901 0.000000 0.000000 0.000000
# 3 -0.002901 -0.002901 0.011875 0.000000 0.000000 0.000000
# 4 0.000000 0.000000 0.000000 0.170456 0.000000 0.000000
# 5 0.000000 0.000000 0.000000 0.000000 0.170436 0.000000
# 6 0.000000 0.000000 0.000000 0.000000 0.000000 0.031150
#
#
# Mechanical properties :
#
#
# Convention : Reuss Voigt Hill
#
# Bulk Modulus (GPa) = 77.98411 80.16938 79.07674
# Shear Modulus (GPa) = 11.45895 21.64816 16.55356
#
# Velocity S-wave (km/s) = 2.42596 3.33444 2.91580
# Velocity P-wave (km/s) = 6.92096 7.48328 7.20761
#
# Compressibility (1/GPa) = 0.01282313
#
# Stress axis : x y z
#
# Youngs Moduli (GPa) = 81.47386 81.47342 84.20753
#
# Poissons Ratio (x) = 0.48862 0.24431
# Poissons Ratio (y) = 0.48862 0.24432
# Poissons Ratio (z) = 0.23638 0.23639
#
# Static dielectric constant tensor:
#      x y z
#    x 1.697250 0.000000 0.000000 
#    y 0.000000 1.697250 0.000000 
#    z 0.000000 0.000000 1.678670 
# 
# From -- ./inp_files/1536.got.cif
#   From: 2010.05.17/outbox.cif.g08.bks.cpg/sg117_1_cif.got.tgz:1536.got - 2010.05.20 11:15:09.
