data_PCOD9558208
_publ_section_title
;
Structure prediction by ZEFSAII (Michael W. Deem and Ramdas Pophale) SiO2 
 PCOD9558208
Probable space group: P -4 B 2
;
_chemical_formula_sum "Si O2"
_cell_formula_units_Z 36
_cell_length_a 13.142440
_cell_length_b 13.142440
_cell_length_c 9.302984
_cell_angle_alpha 90.000000
_cell_angle_beta 90.000000
_cell_angle_gamma 90.000000
_cell_volume 1606.846089
_symmetry_space_group_name_H-M "P -4 B 2"
_symmetry_group_IT_number 117
_symmetry_cell_setting 'tetragonal'
loop_
_space_group_symop_operation_xyz
x,y,z
y,-x,-z
-x,-y,z
-y,x,-z
1/2+y,1/2+x,-z
1/2-y,1/2-x,-z
1/2-x,1/2+y,z
1/2+x,1/2-y,z
loop_
_atom_site_type_symbol
_atom_site_label
_atom_site_fract_x
_atom_site_fract_y
_atom_site_fract_z
Si Si1 0.500000 0.500000 0.000000
Si Si2 0.500000 0.500000 0.500000
Si Si3 0.372931 0.872931 0.000000
Si Si4 0.193452 0.222596 0.226587
Si Si5 0.325180 0.174821 0.500000
Si Si6 0.802537 0.963876 0.668534
Si Si7 0.773189 0.944491 0.991328
O O1 0.622876 0.505538 0.035304
O O2 0.446157 0.412659 0.404203
O O3 0.327800 0.821168 0.856448
O O4 0.329121 0.986899 0.994053
O O5 0.260883 0.212295 0.365427
O O6 0.081091 0.194755 0.283966
O O7 0.231066 0.143754 0.106898
O O8 0.287344 0.064195 0.555317
O O9 0.787494 0.912394 0.824719
#
# Coordination Sequence:
#
# PCOD9558208 Si02
#       7
#     2   2   4   8   4   8   8
#     4  12  18  36  72 110 126 164 228 306 334 408
#     4  12  22  40  66 104 134 172 222 280 346 432
#     4  10  22  40  70 102 138 172 234 308 348 412
#     4  11  24  42  66 100 132 180 232 288 350 426
#     4  12  26  40  64 100 144 178 224 296 360 422
#     4  11  24  40  65 101 137 176 221 289 356 413
#     4  11  23  40  70 104 132 175 235 297 348 409
#
# _framework density 22.404136999999999
#
# number of rings (size 3 to 8) (size 9 to 14) (size 15 to 20)
#    0.000    0.889    6.667    2.000    0.000    1.778 
#    0.000    0.000    0.000   28.000    0.000    0.000 
#    0.000    0.000    0.000    0.000    0.000    0.000 
#
# Total GULP energy -200490.649854 kJ/mol
# GULP energy per Si atom -5569.184718 kJ/mol
# Density = 2.235314 g / cm^3
# Si number density = 22.404137 Si / 1000 Ang^3
#
#
#
# Elastic Constant Matrix: (Units=GPa)
#
#
# Indices 1 2 3 4 5 6 
#
# 1 35.0221 77.1793 45.4350 0.0000 0.0000 0.0000
# 2 77.1793 35.0219 45.4347 0.0000 0.0000 0.0000
# 3 45.4350 45.4347 169.2097 0.0000 0.0000 0.0000
# 4 0.0000 0.0000 0.0000 33.8946 0.0000 0.0000
# 5 0.0000 0.0000 0.0000 0.0000 33.8946 0.0000
# 6 0.0000 0.0000 0.0000 0.0000 0.0000 35.1512
#
#
#
# Elastic Compliance Matrix: (Units=1/GPa)
#
#
# Indices 1 2 3 4 5 6 
#
# 1 -0.006166 0.017555 -0.003058 0.000000 0.000000 0.000000
# 2 0.017555 -0.006166 -0.003058 0.000000 0.000000 0.000000
# 3 -0.003058 -0.003058 0.007552 0.000000 0.000000 0.000000
# 4 0.000000 0.000000 0.000000 0.029503 0.000000 0.000000
# 5 0.000000 0.000000 0.000000 0.000000 0.029503 0.000000
# 6 0.000000 0.000000 0.000000 0.000000 0.000000 0.028449
#
#
# Mechanical properties :
#
#
# Convention : Reuss Voigt Hill
#
# Bulk Modulus (GPa) = 55.25447 63.92796 59.59121
# Shear Modulus (GPa) = 75.95197 25.33506 50.64351
#
# Velocity S-wave (km/s) = 5.82876 3.36642 4.75958
# Velocity P-wave (km/s) = 8.36752 6.61107 7.54061
#
# Compressibility (1/GPa) = 0.01809808
#
# Stress axis : x y z
#
# Youngs Moduli (GPa) = -162.18802 -162.18717 132.41279
#
# Poissons Ratio (x) = 2.84720 0.40494
# Poissons Ratio (y) = 2.84721 0.40494
# Poissons Ratio (z) = -0.49600 -0.49600
#
# Static dielectric constant tensor:
#      x y z
#    x 1.924350 0.000000 0.000000 
#    y 0.000000 1.924360 0.000000 
#    z 0.000000 0.000000 1.881150 
# 
# From -- ./inp_files/1657.got.cif
#   From: 2010.05.17/outbox.cif.g08.bks.cpg/sg117_1_cif.got.tgz:1657.got - 2010.05.20 11:15:09.
