data_PCOD9558509
_publ_section_title
;
Structure prediction by ZEFSAII (Michael W. Deem and Ramdas Pophale) SiO2 
 PCOD9558509
Probable space group: P -4 N 2
;
_chemical_formula_sum "Si O2"
_cell_formula_units_Z 42
_cell_length_a 15.501989
_cell_length_b 15.501989
_cell_length_c 6.651879
_cell_angle_alpha 90.000000
_cell_angle_beta 90.000000
_cell_angle_gamma 90.000000
_cell_volume 1598.524104
_symmetry_space_group_name_H-M "P -4 N 2"
_symmetry_group_IT_number 118
_symmetry_cell_setting 'tetragonal'
loop_
_space_group_symop_operation_xyz
x,y,z
y,-x,-z
-x,-y,z
-y,x,-z
1/2+y,1/2+x,1/2-z
1/2-y,1/2-x,1/2-z
1/2-x,1/2+y,1/2+z
1/2+x,1/2-y,1/2+z
loop_
_atom_site_type_symbol
_atom_site_label
_atom_site_fract_x
_atom_site_fract_y
_atom_site_fract_z
Si Si1 0.401685 0.210181 0.974886
Si Si2 0.398211 0.562411 0.123750
Si Si3 0.500000 0.500000 0.500000
Si Si4 0.846033 0.580451 0.925636
Si Si5 0.396873 0.260805 0.446049
Si Si6 0.759294 0.095645 0.039954
O O1 0.399077 0.303171 0.869291
O O2 0.494155 0.164307 0.950340
O O3 0.401573 0.236599 0.210888
O O4 0.321621 0.146749 0.949024
O O5 0.465052 0.607114 0.968336
O O6 0.403635 0.761577 0.217892
O O7 0.554212 0.444225 0.338688
O O8 0.920415 0.579586 0.750000
O O9 0.868033 0.668043 0.038631
O O10 0.495929 0.272837 0.511764
O O11 0.332300 0.340648 0.464921
#
# Coordination Sequence:
#
# PCOD9558509 Si02
#       6
#     8   8   2   8   8   8
#     4  10  20  36  67 106 144 193 255 316 385 467
#     4   9  20  39  67 105 156 199 249 322 390 473
#     4   8  18  44  64 102 164 220 258 312 404 482
#     4   7  17  36  60  96 145 195 249 310 380 441
#     4  10  20  37  61 102 150 194 256 309 391 462
#     4   8  18  36  60  94 145 198 248 311 370 459
#
# _framework density 26.274238
#
# number of rings (size 3 to 8) (size 9 to 14) (size 15 to 20)
#    1.143    2.095    0.000    0.000    2.667    1.143 
#    3.429   26.667    0.000    0.000    0.000    0.000 
#    0.000    0.000    0.762    0.000    0.000    0.762 
#
# Total GULP energy -234996.767339 kJ/mol
# GULP energy per Si atom -5595.161127 kJ/mol
# Density = 2.621444 g / cm^3
# Si number density = 26.274238 Si / 1000 Ang^3
#
#
#
# Elastic Constant Matrix: (Units=GPa)
#
#
# Indices 1 2 3 4 5 6 
#
# 1 186.8817 118.5386 25.5061 0.0000 0.0000 0.0000
# 2 118.5386 186.8821 25.5062 0.0000 0.0000 0.0000
# 3 25.5061 25.5062 106.4658 0.0000 0.0000 0.0000
# 4 0.0000 0.0000 0.0000 39.2744 0.0000 0.0000
# 5 0.0000 0.0000 0.0000 0.0000 39.2742 0.0000
# 6 0.0000 0.0000 0.0000 0.0000 0.0000 51.4426
#
#
#
# Elastic Compliance Matrix: (Units=1/GPa)
#
#
# Indices 1 2 3 4 5 6 
#
# 1 0.009021 -0.005611 -0.000817 0.000000 0.000000 0.000000
# 2 -0.005611 0.009021 -0.000817 0.000000 0.000000 0.000000
# 3 -0.000817 -0.000817 0.009784 0.000000 0.000000 0.000000
# 4 0.000000 0.000000 0.000000 0.025462 0.000000 0.000000
# 5 0.000000 0.000000 0.000000 0.000000 0.025462 0.000000
# 6 0.000000 0.000000 0.000000 0.000000 0.000000 0.019439
#
#
# Mechanical properties :
#
#
# Convention : Reuss Voigt Hill
#
# Bulk Modulus (GPa) = 74.97874 91.03682 83.00778
# Shear Modulus (GPa) = 42.68932 46.71017 44.69975
#
# Velocity S-wave (km/s) = 4.03520 4.22096 4.12913
# Velocity P-wave (km/s) = 7.09291 7.64718 7.37525
#
# Compressibility (1/GPa) = 0.01333711
#
# Stress axis : x y z
#
# Youngs Moduli (GPa) = 110.84825 110.84853 102.20573
#
# Poissons Ratio (x) = 0.62194 0.08351
# Poissons Ratio (y) = 0.62193 0.08351
# Poissons Ratio (z) = 0.09057 0.09057
#
# Static dielectric constant tensor:
#      x y z
#    x 2.053810 0.000000 0.000000 
#    y 0.000000 2.053810 0.000000 
#    z 0.000000 0.000000 2.220700 
# 
# From -- ./inp_files/1958.got.cif
#   From: 2010.05.17/outbox.cif.g08.bks.cpg/sg118_1_cif.got.tgz:1958.got - 2010.05.20 11:17:24.
