data_PCOD9558843
_publ_section_title
;
Structure prediction by ZEFSAII (Michael W. Deem and Ramdas Pophale) SiO2 
 PCOD9558843
Probable space group: P -4 N 2
;
_chemical_formula_sum "Si O2"
_cell_formula_units_Z 24
_cell_length_a 8.028777
_cell_length_b 8.028777
_cell_length_c 16.195594
_cell_angle_alpha 90.000000
_cell_angle_beta 90.000000
_cell_angle_gamma 90.000000
_cell_volume 1043.988398
_symmetry_space_group_name_H-M "P -4 N 2"
_symmetry_group_IT_number 118
_symmetry_cell_setting 'tetragonal'
loop_
_space_group_symop_operation_xyz
x,y,z
y,-x,-z
-x,-y,z
-y,x,-z
1/2+y,1/2+x,1/2-z
1/2-y,1/2-x,1/2-z
1/2-x,1/2+y,1/2+z
1/2+x,1/2-y,1/2+z
loop_
_atom_site_type_symbol
_atom_site_label
_atom_site_fract_x
_atom_site_fract_y
_atom_site_fract_z
Si Si1 0.214637 0.688749 0.402890
Si Si2 0.170852 0.322879 0.073428
Si Si3 0.523118 0.825667 0.165229
O O1 0.245347 0.495084 0.380233
O O2 0.319692 0.740167 0.483394
O O3 0.022290 0.678612 0.430369
O O4 0.242856 0.839701 0.338019
O O5 0.340494 0.280801 0.119939
O O6 0.612635 0.887366 0.250000
O O7 0.500000 0.000000 0.118129
#
# Coordination Sequence:
#
# PCOD9558843 Si02
#       3
#     8   8   8
#     4  11  23  43  74 108 143 186 254 314 361 446
#     4  11  23  43  75 109 141 190 251 308 371 437
#     4  11  25  46  65 103 149 192 240 302 382 444
#
# _framework density 22.988762999999999
#
# number of rings (size 3 to 8) (size 9 to 14) (size 15 to 20)
#    0.000    1.000    3.333    3.000    0.000    4.667 
#   24.000    1.667    0.000    0.000    0.000    0.000 
#    0.000    0.000    0.000    0.000    0.000    0.000 
#
# Total GULP energy -133805.078052 kJ/mol
# GULP energy per Si atom -5575.211586 kJ/mol
# Density = 2.293644 g / cm^3
# Si number density = 22.988763 Si / 1000 Ang^3
#
#
#
# Elastic Constant Matrix: (Units=GPa)
#
#
# Indices 1 2 3 4 5 6 
#
# 1 128.8021 49.5091 27.2597 0.0000 0.0000 0.0000
# 2 49.5091 128.8008 27.2591 0.0000 0.0000 0.0000
# 3 27.2597 27.2591 72.2899 0.0000 0.0000 0.0000
# 4 0.0000 0.0000 0.0000 22.1190 0.0000 0.0000
# 5 0.0000 0.0000 0.0000 0.0000 22.1184 0.0000
# 6 0.0000 0.0000 0.0000 0.0000 0.0000 28.9149
#
#
#
# Elastic Compliance Matrix: (Units=1/GPa)
#
#
# Indices 1 2 3 4 5 6 
#
# 1 0.009475 -0.003136 -0.002390 0.000000 0.000000 0.000000
# 2 -0.003136 0.009475 -0.002390 0.000000 0.000000 0.000000
# 3 -0.002390 -0.002390 0.015636 0.000000 0.000000 0.000000
# 4 0.000000 0.000000 0.000000 0.045210 0.000000 0.000000
# 5 0.000000 0.000000 0.000000 0.000000 0.045211 0.000000
# 6 0.000000 0.000000 0.000000 0.000000 0.000000 0.034584
#
#
# Mechanical properties :
#
#
# Convention : Reuss Voigt Hill
#
# Bulk Modulus (GPa) = 53.32596 59.77207 56.54901
# Shear Modulus (GPa) = 27.52138 29.68810 28.60474
#
# Velocity S-wave (km/s) = 3.46376 3.59753 3.53128
# Velocity P-wave (km/s) = 6.26448 6.58128 6.42484
#
# Compressibility (1/GPa) = 0.01875259
#
# Stress axis : x y z
#
# Youngs Moduli (GPa) = 105.53786 105.53713 63.95526
#
# Poissons Ratio (x) = 0.33099 0.15288
# Poissons Ratio (y) = 0.33099 0.15287
# Poissons Ratio (z) = 0.25228 0.25227
#
# Static dielectric constant tensor:
#      x y z
#    x 1.928460 0.000000 0.000000 
#    y 0.000000 1.928460 0.000000 
#    z 0.000000 0.000000 1.982120 
# 
# From -- ./inp_files/4404.got.cif
#   From: 2010.05.17/outbox.cif.g08.bks.cpg/sg118_3_cif.got.tgz:4404.got - 2010.05.20 11:17:24.
