data_PCOD9558529
_publ_section_title
;
Structure prediction by ZEFSAII (Michael W. Deem and Ramdas Pophale) SiO2 
 PCOD9558529
Probable space group: P -4 N 2
;
_chemical_formula_sum "Si O2"
_cell_formula_units_Z 48
_cell_length_a 11.543852
_cell_length_b 11.543852
_cell_length_c 19.574778
_cell_angle_alpha 90.000000
_cell_angle_beta 90.000000
_cell_angle_gamma 90.000000
_cell_volume 2608.545076
_symmetry_space_group_name_H-M "P -4 N 2"
_symmetry_group_IT_number 118
_symmetry_cell_setting 'tetragonal'
loop_
_space_group_symop_operation_xyz
x,y,z
y,-x,-z
-x,-y,z
-y,x,-z
1/2+y,1/2+x,1/2-z
1/2-y,1/2-x,1/2-z
1/2-x,1/2+y,1/2+z
1/2+x,1/2-y,1/2+z
loop_
_atom_site_type_symbol
_atom_site_label
_atom_site_fract_x
_atom_site_fract_y
_atom_site_fract_z
Si Si1 0.132641 0.500000 0.890599
Si Si2 0.244821 0.134273 0.066823
Si Si3 0.755181 0.134276 0.066825
Si Si4 0.000002 0.133373 0.702244
Si Si5 0.631229 0.275439 0.701227
Si Si6 0.224567 0.131224 0.798771
O O1 0.137266 0.616327 0.934786
O O2 0.137269 0.383670 0.934784
O O3 0.248981 0.500001 0.843481
O O4 0.000000 0.500000 0.857527
O O5 0.207811 0.203456 0.134534
O O6 0.207886 0.999999 0.074550
O O7 0.188103 0.188099 0.999999
O O8 0.792192 0.203458 0.134537
O O9 0.111336 0.139541 0.751080
O O10 0.888674 0.139542 0.751084
O O11 0.000000 0.000000 0.671215
O O12 0.673201 0.173201 0.750000
O O13 0.500002 0.259900 0.678406
O O14 0.326809 0.173191 0.750000
#
# Coordination Sequence:
#
# PCOD9558529 Si02
#       6
#     8   8   8   8   8   8
#     4  10  22  42  64  94 122 159 206 252 309 370
#     4  11  23  41  63  89 122 160 203 249 304 361
#     4  11  23  41  63  89 122 160 203 249 304 361
#     4  10  20  38  64  94 124 151 200 256 307 370
#     4  11  22  38  62  91 121 156 203 249 304 363
#     4  11  22  38  62  91 121 156 203 249 304 363
#
# _framework density 18.401062
#
# number of rings (size 3 to 8) (size 9 to 14) (size 15 to 20)
#    0.000    1.333    5.000    1.000    0.000    2.000 
#    9.000    0.000    0.000    0.000    0.000    0.000 
#    0.000    0.000    0.000    0.000    0.000    0.000 
#
# Total GULP energy -267631.977646 kJ/mol
# GULP energy per Si atom -5575.666201 kJ/mol
# Density = 1.835918 g / cm^3
# Si number density = 18.401062 Si / 1000 Ang^3
#
#
#
# Elastic Constant Matrix: (Units=GPa)
#
#
# Indices 1 2 3 4 5 6 
#
# 1 95.3491 -3.0250 26.4477 0.0000 0.0000 0.0000
# 2 -3.0250 95.3511 26.4482 0.0000 0.0000 0.0000
# 3 26.4477 26.4482 72.7589 0.0000 0.0000 0.0000
# 4 0.0000 0.0000 0.0000 21.6636 0.0000 0.0000
# 5 0.0000 0.0000 0.0000 0.0000 21.6641 0.0000
# 6 0.0000 0.0000 0.0000 0.0000 0.0000 20.6826
#
#
#
# Elastic Compliance Matrix: (Units=1/GPa)
#
#
# Indices 1 2 3 4 5 6 
#
# 1 0.011923 0.001758 -0.004973 0.000000 0.000000 0.000000
# 2 0.001758 0.011923 -0.004973 0.000000 0.000000 0.000000
# 3 -0.004973 -0.004973 0.017359 0.000000 0.000000 0.000000
# 4 0.000000 0.000000 0.000000 0.046160 0.000000 0.000000
# 5 0.000000 0.000000 0.000000 0.000000 0.046159 0.000000
# 6 0.000000 0.000000 0.000000 0.000000 0.000000 0.048350
#
#
# Mechanical properties :
#
#
# Convention : Reuss Voigt Hill
#
# Bulk Modulus (GPa) = 40.27595 40.35564 40.31580
# Shear Modulus (GPa) = 24.20995 27.04128 25.62561
#
# Velocity S-wave (km/s) = 3.63117 3.83763 3.73583
# Velocity P-wave (km/s) = 6.28616 6.45099 6.36911
#
# Compressibility (1/GPa) = 0.02482871
#
# Stress axis : x y z
#
# Youngs Moduli (GPa) = 83.87228 83.87392 57.60609
#
# Poissons Ratio (x) = -0.14742 0.28647
# Poissons Ratio (y) = -0.14741 0.28646
# Poissons Ratio (z) = 0.41708 0.41709
#
# Static dielectric constant tensor:
#      x y z
#    x 1.656470 0.000000 0.000000 
#    y 0.000000 1.656470 0.000000 
#    z 0.000000 0.000000 1.572500 
# 
# From -- ./inp_files/4925.got.cif
#   From: 2010.05.17/outbox.cif.g08.bks.cpg/sg118_3_cif.got.tgz:4925.got - 2010.05.20 11:17:24.
