data_PCOD9558886
_publ_section_title
;
Structure prediction by ZEFSAII (Michael W. Deem and Ramdas Pophale) SiO2 
 PCOD9558886
Probable space group: P -4 N 2
;
_chemical_formula_sum "Si O2"
_cell_formula_units_Z 36
_cell_length_a 11.061891
_cell_length_b 11.061891
_cell_length_c 14.809304
_cell_angle_alpha 90.000000
_cell_angle_beta 90.000000
_cell_angle_gamma 90.000000
_cell_volume 1812.146889
_symmetry_space_group_name_H-M "P -4 N 2"
_symmetry_group_IT_number 118
_symmetry_cell_setting 'tetragonal'
loop_
_space_group_symop_operation_xyz
x,y,z
y,-x,-z
-x,-y,z
-y,x,-z
1/2+y,1/2+x,1/2-z
1/2-y,1/2-x,1/2-z
1/2-x,1/2+y,1/2+z
1/2+x,1/2-y,1/2+z
loop_
_atom_site_type_symbol
_atom_site_label
_atom_site_fract_x
_atom_site_fract_y
_atom_site_fract_z
Si Si1 0.567150 0.317495 0.528291
Si Si2 0.433092 0.740761 0.734082
Si Si3 0.216636 0.716636 0.250000
Si Si4 0.271938 0.857898 0.433601
Si Si5 0.627407 0.422135 0.903055
O O1 0.428125 0.353178 0.511050
O O2 0.592134 0.308042 0.634336
O O3 0.608278 0.192793 0.481392
O O4 0.367253 0.867253 0.750000
O O5 0.575404 0.756469 0.743053
O O6 0.385652 0.652432 0.811595
O O7 0.256719 0.779268 0.343196
O O8 0.168301 0.852355 0.512336
O O9 0.245486 0.993478 0.401151
O O10 0.500000 0.500000 0.907486
#
# Coordination Sequence:
#
# PCOD9558886 Si02
#       5
#     8   8   4   8   8
#     4  11  26  45  67  97 136 179 217 279 346 406
#     4  12  25  44  68  98 136 175 226 281 340 395
#     4  12  25  40  68 102 133 172 226 284 329 398
#     4  12  23  43  67 101 129 176 226 272 331 403
#     4  12  23  42  71  95 131 179 224 269 328 402
#
# _framework density 19.865939999999998
#
# number of rings (size 3 to 8) (size 9 to 14) (size 15 to 20)
#    0.000    0.222    8.889    0.333    6.222    0.000 
#    0.000    1.111    0.000    1.333    0.000    0.000 
#    0.000    0.000    0.000    0.000    0.000    0.000 
#
# Total GULP energy -200884.763488 kJ/mol
# GULP energy per Si atom -5580.132319 kJ/mol
# Density = 1.982072 g / cm^3
# Si number density = 19.865940 Si / 1000 Ang^3
#
#
#
# Elastic Constant Matrix: (Units=GPa)
#
#
# Indices 1 2 3 4 5 6 
#
# 1 23.9643 -0.7652 20.4368 0.0000 0.0000 0.0000
# 2 -0.7652 23.9643 20.4368 0.0000 0.0000 0.0000
# 3 20.4368 20.4368 180.4864 0.0000 0.0000 0.0000
# 4 0.0000 0.0000 0.0000 79.6472 0.0000 0.0000
# 5 0.0000 0.0000 0.0000 0.0000 79.6472 0.0000
# 6 0.0000 0.0000 0.0000 0.0000 0.0000 35.5913
#
#
#
# Elastic Compliance Matrix: (Units=1/GPa)
#
#
# Indices 1 2 3 4 5 6 
#
# 1 0.047143 0.006705 -0.006097 0.000000 0.000000 0.000000
# 2 0.006705 0.047143 -0.006097 0.000000 0.000000 0.000000
# 3 -0.006097 -0.006097 0.006921 0.000000 0.000000 0.000000
# 4 0.000000 0.000000 0.000000 0.012555 0.000000 0.000000
# 5 0.000000 0.000000 0.000000 0.000000 0.012555 0.000000
# 6 0.000000 0.000000 0.000000 0.000000 0.000000 0.028097
#
#
# Mechanical properties :
#
#
# Convention : Reuss Voigt Hill
#
# Bulk Modulus (GPa) = 11.08305 34.29243 22.68774
# Shear Modulus (GPa) = 25.57949 51.53092 38.55520
#
# Velocity S-wave (km/s) = 3.59221 5.09859 4.41020
# Velocity P-wave (km/s) = 4.77455 7.20835 6.11378
#
# Compressibility (1/GPa) = 0.09022786
#
# Stress axis : x y z
#
# Youngs Moduli (GPa) = 21.21220 21.21220 144.47944
#
# Poissons Ratio (x) = -0.14223 0.88093
# Poissons Ratio (y) = -0.14223 0.88093
# Poissons Ratio (z) = 0.12934 0.12934
#
# Static dielectric constant tensor:
#      x y z
#    x 1.707210 0.000000 0.000000 
#    y 0.000000 1.707210 0.000000 
#    z 0.000000 0.000000 1.660270 
# 
# From -- ./inp_files/3998.got.cif
#   From: 2010.05.17/outbox.cif.g08.bks.cpg/sg118_2_cif.got.tgz:3998.got - 2010.05.20 11:17:24.
