data_PCOD9558959
_publ_section_title
;
Structure prediction by ZEFSAII (Michael W. Deem and Ramdas Pophale) SiO2 
 PCOD9558959
Probable space group: I -4 M 2
;
_chemical_formula_sum "Si O2"
_cell_formula_units_Z 128
_cell_length_a 21.516568
_cell_length_b 21.516568
_cell_length_c 18.424043
_cell_angle_alpha 90.000000
_cell_angle_beta 90.000000
_cell_angle_gamma 90.000000
_cell_volume 8529.644665
_symmetry_space_group_name_H-M "I -4 M 2"
_symmetry_group_IT_number 119
_symmetry_cell_setting 'tetragonal'
loop_
_space_group_symop_operation_xyz
x,y,z
y,-x,-z
-x,-y,z
-y,x,-z
y,x,-z
-y,-x,-z
-x,y,z
x,-y,z
1/2+x,1/2+y,1/2+z
1/2+y,1/2-x,1/2-z
1/2-x,1/2-y,1/2+z
1/2-y,1/2+x,1/2-z
1/2+y,1/2+x,1/2-z
1/2-y,1/2-x,1/2-z
1/2-x,1/2+y,1/2+z
1/2+x,1/2-y,1/2+z
loop_
_atom_site_type_symbol
_atom_site_label
_atom_site_fract_x
_atom_site_fract_y
_atom_site_fract_z
Si Si1 0.069622 0.774454 0.328094
Si Si2 0.310726 0.233220 0.324639
Si Si3 0.878199 0.795395 0.175633
Si Si4 0.570745 0.647073 0.541120
Si Si5 0.929649 0.624609 0.323849
Si Si6 0.238646 0.573971 0.565917
Si Si7 0.728515 0.689671 0.077028
Si Si8 0.877896 0.321250 0.072465
O O1 0.082537 0.801188 0.248245
O O2 0.072196 0.699595 0.319372
O O3 0.127469 0.790371 0.379902
O O4 0.000000 0.790797 0.353617
O O5 0.305755 0.194246 0.250000
O O6 0.297165 0.305501 0.304905
O O7 0.375976 0.230829 0.369078
O O8 0.252566 0.216124 0.376954
O O9 0.891839 0.846883 0.115279
O O10 0.894344 0.732129 0.131673
O O11 0.583378 0.583378 0.500000
O O12 0.500000 0.658724 0.559193
O O13 0.589570 0.699266 0.481587
O O14 0.902241 0.597760 0.250000
O O15 0.886121 0.606860 0.390539
O O16 0.000000 0.604250 0.333414
O O17 0.239981 0.500000 0.585269
O O18 0.187765 0.587921 0.503664
O O19 0.803247 0.686208 0.063381
O O20 0.695649 0.695649 0.000000
#
# Coordination Sequence:
#
# PCOD9558959 Si02
#       8
#    16  16  16  16  16  16  16  16
#     4  10  19  30  46  72 104 133 157 194 248 294
#     4  11  19  30  52  77  96 123 164 206 246 286
#     4  10  17  28  47  71  98 127 162 195 228 284
#     4  10  19  30  45  68 101 135 163 190 222 275
#     4  10  19  30  42  62  96 133 167 197 227 283
#     4  10  20  33  49  69  96 126 159 206 252 289
#     4  10  18  29  49  75 100 125 163 207 239 283
#     4   9  18  28  46  67  94 128 163 196 238 284
#
# _framework density 15.006486000000001
#
# number of rings (size 3 to 8) (size 9 to 14) (size 15 to 20)
#    0.000    2.000    5.000    0.375    0.000    1.250 
#    0.000    0.000    0.000    1.500    0.000    0.000 
#    0.000    2.250    0.000    0.000    0.000    0.000 
#
# Total GULP energy -356400.325783 kJ/mol
# GULP energy per Si atom -5568.755090 kJ/mol
# Density = 1.497233 g / cm^3
# Si number density = 15.006486 Si / 1000 Ang^3
#
#
#
# Elastic Constant Matrix: (Units=GPa)
#
#
# Indices 1 2 3 4 5 6 
#
# 1 48.3286 9.4392 32.5824 0.0000 0.0000 0.0000
# 2 9.4392 48.3255 32.5816 0.0000 0.0000 0.0000
# 3 32.5824 32.5816 81.7134 0.0000 0.0000 0.0000
# 4 0.0000 0.0000 0.0000 17.9773 0.0000 0.0000
# 5 0.0000 0.0000 0.0000 0.0000 17.9779 0.0000
# 6 0.0000 0.0000 0.0000 0.0000 0.0000 11.5809
#
#
#
# Elastic Compliance Matrix: (Units=1/GPa)
#
#
# Indices 1 2 3 4 5 6 
#
# 1 0.028588 0.002874 -0.012545 0.000000 0.000000 0.000000
# 2 0.002874 0.028590 -0.012546 0.000000 0.000000 0.000000
# 3 -0.012545 -0.012546 0.022243 0.000000 0.000000 0.000000
# 4 0.000000 0.000000 0.000000 0.055626 0.000000 0.000000
# 5 0.000000 0.000000 0.000000 0.000000 0.055624 0.000000
# 6 0.000000 0.000000 0.000000 0.000000 0.000000 0.086349
#
#
# Mechanical properties :
#
#
# Convention : Reuss Voigt Hill
#
# Bulk Modulus (GPa) = 28.58203 36.39711 32.48957
# Shear Modulus (GPa) = 15.00981 16.42484 15.71732
#
# Velocity S-wave (km/s) = 3.16606 3.31194 3.23982
# Velocity P-wave (km/s) = 5.69676 6.23956 5.97433
#
# Compressibility (1/GPa) = 0.03498702
#
# Stress axis : x y z
#
# Youngs Moduli (GPa) = 34.97963 34.97714 44.95889
#
# Poissons Ratio (x) = -0.10053 0.56402
# Poissons Ratio (y) = -0.10054 0.56404
# Poissons Ratio (z) = 0.43883 0.43882
#
# Static dielectric constant tensor:
#      x y z
#    x 1.517750 0.000000 0.000000 
#    y 0.000000 1.517750 0.000000 
#    z 0.000000 0.000000 1.486560 
# 
# From -- ./inp_files/6937.got.cif
#   From: 2010.05.17/outbox.cif.g08.bks.cpg/sg119_4_cif.got.tgz:6937.got - 2010.05.20 11:21:29.
