data_PCOD9558631
_publ_section_title
;
Structure prediction by ZEFSAII (Michael W. Deem and Ramdas Pophale) SiO2 
 PCOD9558631
Probable space group: P -4 N 2
;
_chemical_formula_sum "Si O2"
_cell_formula_units_Z 24
_cell_length_a 12.755921
_cell_length_b 12.755921
_cell_length_c 5.338188
_cell_angle_alpha 90.000000
_cell_angle_beta 90.000000
_cell_angle_gamma 90.000000
_cell_volume 868.595363
_symmetry_space_group_name_H-M "P -4 N 2"
_symmetry_group_IT_number 118
_symmetry_cell_setting 'tetragonal'
loop_
_space_group_symop_operation_xyz
x,y,z
y,-x,-z
-x,-y,z
-y,x,-z
1/2+y,1/2+x,1/2-z
1/2-y,1/2-x,1/2-z
1/2-x,1/2+y,1/2+z
1/2+x,1/2-y,1/2+z
loop_
_atom_site_type_symbol
_atom_site_label
_atom_site_fract_x
_atom_site_fract_y
_atom_site_fract_z
Si Si1 0.594668 0.864565 0.500508
Si Si2 0.153167 0.985876 0.114041
Si Si3 0.763701 0.174132 0.495242
O O1 0.575920 0.924081 0.750000
O O2 0.525728 0.761803 0.492257
O O3 0.721291 0.837849 0.498876
O O4 0.575781 0.924220 0.250000
O O5 0.170300 0.925728 0.379298
O O6 0.093467 0.913897 0.908221
O O7 0.691430 0.191430 0.250000
O O8 0.693740 0.193740 0.750000
#
# Coordination Sequence:
#
# PCOD9558631 Si02
#       3
#     8   8   8
#     4  10  21  43  64  99 163 215 263 365 474 522
#     4  11  22  42  76 119 158 225 317 379 433 551
#     4  10  21  43  64  99 164 219 261 364 469 524
#
# _framework density 27.630818000000001
#
# number of rings (size 3 to 8) (size 9 to 14) (size 15 to 20)
#    0.000    1.667    6.667    0.000    0.000    2.667 
#    0.000    0.000    0.000    1.000    0.000    7.000 
#    0.000    0.000    0.000    0.000    0.000    2.667 
#
# Total GULP energy -133892.750887 kJ/mol
# GULP energy per Si atom -5578.864620 kJ/mol
# Density = 2.756793 g / cm^3
# Si number density = 27.630818 Si / 1000 Ang^3
#
#
#
# Elastic Constant Matrix: (Units=GPa)
#
#
# Indices 1 2 3 4 5 6 
#
# 1 80.7753 185.4851 84.6581 0.0000 0.0000 0.0000
# 2 185.4851 80.7670 84.6528 0.0000 0.0000 0.0000
# 3 84.6581 84.6528 336.7750 0.0000 0.0000 0.0000
# 4 0.0000 0.0000 0.0000 114.9089 0.0000 0.0000
# 5 0.0000 0.0000 0.0000 0.0000 114.9067 0.0000
# 6 0.0000 0.0000 0.0000 0.0000 0.0000 43.7520
#
#
#
# Elastic Compliance Matrix: (Units=1/GPa)
#
#
# Indices 1 2 3 4 5 6 
#
# 1 -0.002540 0.007010 -0.001124 0.000000 0.000000 0.000000
# 2 0.007010 -0.002540 -0.001124 0.000000 0.000000 0.000000
# 3 -0.001124 -0.001124 0.003534 0.000000 0.000000 0.000000
# 4 0.000000 0.000000 0.000000 0.008703 0.000000 0.000000
# 5 0.000000 0.000000 0.000000 0.000000 0.008703 0.000000
# 6 0.000000 0.000000 0.000000 0.000000 0.000000 0.022856
#
#
# Mechanical properties :
#
#
# Convention : Reuss Voigt Hill
#
# Bulk Modulus (GPa) = 125.31156 134.21215 129.76185
# Shear Modulus (GPa) = 156.98157 64.28161 110.63159
#
# Velocity S-wave (km/s) = 7.54568 4.82856 6.33452
# Velocity P-wave (km/s) = 11.01667 8.93115 10.02827
#
# Compressibility (1/GPa) = 0.00798011
#
# Stress axis : x y z
#
# Youngs Moduli (GPa) = -393.75957 -393.72212 282.94311
#
# Poissons Ratio (x) = 2.76003 0.31793
# Poissons Ratio (y) = 2.76029 0.31796
# Poissons Ratio (z) = -0.44246 -0.44245
#
# Static dielectric constant tensor:
#      x y z
#    x 2.181620 0.000000 0.000000 
#    y 0.000000 2.181620 0.000000 
#    z 0.000000 0.000000 2.439130 
# 
# From -- ./inp_files/209.got.cif
#   From: 2010.05.17/outbox.cif.g08.bks.cpg/sg118_1_cif.got.tgz:209.got - 2010.05.20 11:17:24.
