data_PCOD9558955
_publ_section_title
;
Structure prediction by ZEFSAII (Michael W. Deem and Ramdas Pophale) SiO2 
 PCOD9558955
Probable space group: I -4 M 2
;
_chemical_formula_sum "Si O2"
_cell_formula_units_Z 80
_cell_length_a 17.917505
_cell_length_b 17.917505
_cell_length_c 18.776381
_cell_angle_alpha 90.000000
_cell_angle_beta 90.000000
_cell_angle_gamma 90.000000
_cell_volume 6027.912753
_symmetry_space_group_name_H-M "I -4 M 2"
_symmetry_group_IT_number 119
_symmetry_cell_setting 'tetragonal'
loop_
_space_group_symop_operation_xyz
x,y,z
y,-x,-z
-x,-y,z
-y,x,-z
y,x,-z
-y,-x,-z
-x,y,z
x,-y,z
1/2+x,1/2+y,1/2+z
1/2+y,1/2-x,1/2-z
1/2-x,1/2-y,1/2+z
1/2-y,1/2+x,1/2-z
1/2+y,1/2+x,1/2-z
1/2-y,1/2-x,1/2-z
1/2-x,1/2+y,1/2+z
1/2+x,1/2-y,1/2+z
loop_
_atom_site_type_symbol
_atom_site_label
_atom_site_fract_x
_atom_site_fract_y
_atom_site_fract_z
Si Si1 0.586912 0.710961 0.083267
Si Si2 0.500000 0.090466 0.419046
Si Si3 0.089736 0.357691 0.324407
Si Si4 0.210961 0.913088 0.583267
Si Si5 0.090466 0.500000 0.419047
Si Si6 0.089736 0.357691 0.675593
O O1 0.500000 0.689709 0.093029
O O2 0.642496 0.642496 0.096130
O O3 0.603172 0.780406 0.134736
O O4 0.595036 0.733963 1.000000
O O5 0.500000 0.118229 0.500000
O O6 0.573946 0.111582 0.375947
O O7 0.500000 0.000000 0.422137
O O8 0.131744 0.368257 0.250000
O O9 0.103172 0.280406 0.365264
O O10 0.111582 0.426053 0.375948
O O11 0.000000 0.363887 0.311144
O O12 0.189709 0.000000 0.593029
O O13 0.000000 0.500000 0.422137
O O14 0.131744 0.368257 0.750000
O O15 0.000000 0.363887 0.688856
#
# Coordination Sequence:
#
# PCOD9558955 Si02
#       6
#    16   8  16  16   8  16
#     4   9  18  31  45  61  82 108 140 176 211 249
#     4   9  16  24  38  58  82 114 145 170 197 235
#     4  10  17  26  41  61  86 112 140 171 202 240
#     4   9  18  31  45  61  82 108 140 176 211 249
#     4   9  16  24  38  58  82 114 145 170 197 235
#     4  10  17  26  41  61  86 112 140 171 202 240
#
# _framework density 13.271592
#
# number of rings (size 3 to 8) (size 9 to 14) (size 15 to 20)
#    0.000    2.600    2.000    1.200    0.000    6.000 
#    0.000    2.000    0.000    0.000    0.000    0.000 
#    0.000    0.000    0.000    0.000    0.000    2.000 
#
# Total GULP energy -222794.134939 kJ/mol
# GULP energy per Si atom -5569.853373 kJ/mol
# Density = 1.324139 g / cm^3
# Si number density = 13.271592 Si / 1000 Ang^3
#
#
#
# Elastic Constant Matrix: (Units=GPa)
#
#
# Indices 1 2 3 4 5 6 
#
# 1 75.6638 58.5157 64.5818 0.0000 0.0000 0.0000
# 2 58.5157 75.6642 64.5826 0.0000 0.0000 0.0000
# 3 64.5818 64.5826 122.1351 0.0000 0.0000 0.0000
# 4 0.0000 0.0000 0.0000 16.7821 0.0000 0.0000
# 5 0.0000 0.0000 0.0000 0.0000 16.7808 0.0000
# 6 0.0000 0.0000 0.0000 0.0000 0.0000 14.4647
#
#
#
# Elastic Compliance Matrix: (Units=1/GPa)
#
#
# Indices 1 2 3 4 5 6 
#
# 1 0.036747 -0.021568 -0.008026 0.000000 0.000000 0.000000
# 2 -0.021568 0.036747 -0.008027 0.000000 0.000000 0.000000
# 3 -0.008026 -0.008027 0.016676 0.000000 0.000000 0.000000
# 4 0.000000 0.000000 0.000000 0.059587 0.000000 0.000000
# 5 0.000000 0.000000 0.000000 0.000000 0.059592 0.000000
# 6 0.000000 0.000000 0.000000 0.000000 0.000000 0.069134
#
#
# Mechanical properties :
#
#
# Convention : Reuss Voigt Hill
#
# Bulk Modulus (GPa) = 66.98515 72.09148 69.53832
# Shear Modulus (GPa) = 13.93926 15.32441 14.63183
#
# Velocity S-wave (km/s) = 3.24436 3.40174 3.32398
# Velocity P-wave (km/s) = 8.03845 8.35866 8.20012
#
# Compressibility (1/GPa) = 0.01492868
#
# Stress axis : x y z
#
# Youngs Moduli (GPa) = 27.21343 27.21313 59.96685
#
# Poissons Ratio (x) = 0.58693 0.48129
# Poissons Ratio (y) = 0.58693 0.48133
# Poissons Ratio (z) = 0.21841 0.21843
#
# Static dielectric constant tensor:
#      x y z
#    x 1.415260 0.000000 0.000000 
#    y 0.000000 1.415260 0.000000 
#    z 0.000000 0.000000 1.434990 
# 
# From -- ./inp_files/6553.got.cif
#   From: 2010.05.17/outbox.cif.g08.bks.cpg/sg119_4_cif.got.tgz:6553.got - 2010.05.20 11:21:29.
