data_PCOD9558021
_publ_section_title
;
Structure prediction by ZEFSAII (Michael W. Deem and Ramdas Pophale) SiO2 
 PCOD9558021
Probable space group: P -4 C 2
;
_chemical_formula_sum "Si O2"
_cell_formula_units_Z 22
_cell_length_a 7.939542
_cell_length_b 7.939542
_cell_length_c 13.025167
_cell_angle_alpha 90.000000
_cell_angle_beta 90.000000
_cell_angle_gamma 90.000000
_cell_volume 821.058688
_symmetry_space_group_name_H-M "P -4 C 2"
_symmetry_group_IT_number 116
_symmetry_cell_setting 'tetragonal'
loop_
_space_group_symop_operation_xyz
x,y,z
y,-x,-z
-x,-y,z
-y,x,-z
y,x,1/2-z
-y,-x,1/2-z
-x,y,1/2+z
x,-y,1/2+z
loop_
_atom_site_type_symbol
_atom_site_label
_atom_site_fract_x
_atom_site_fract_y
_atom_site_fract_z
Si Si1 0.147396 0.873955 0.872547
Si Si2 0.000000 0.500000 0.667723
Si Si3 0.527513 0.253039 0.668065
Si Si4 0.500000 0.500000 0.500000
O O1 0.130011 0.869990 0.750000
O O2 0.337810 0.937513 0.893876
O O3 0.150569 0.673821 0.893415
O O4 0.000000 0.000000 0.904488
O O5 0.861905 0.568134 0.750407
O O6 0.624717 0.375284 0.750000
O O7 0.436949 0.357697 0.579205
#
# Coordination Sequence:
#
# PCOD9558021 Si02
#       4
#     8   4   8   2
#     4   8  15  33  59  97 116 150 215 261 313 384
#     4   8  16  36  64  90 120 164 208 260 334 370
#     4   9  20  39  61  95 117 168 218 252 332 383
#     4  12  22  40  60  86 144 160 214 264 308 418
#
# _framework density 26.794674000000001
#
# number of rings (size 3 to 8) (size 9 to 14) (size 15 to 20)
#    0.000    4.000    0.000    0.545    0.000    0.000 
#   52.364    7.273    8.000    0.000    0.000    0.000 
#    0.000    0.000    0.000    0.000    0.000    0.000 
#
# Total GULP energy -122549.758068 kJ/mol
# GULP energy per Si atom -5570.443549 kJ/mol
# Density = 2.673369 g / cm^3
# Si number density = 26.794674 Si / 1000 Ang^3
#
#
#
# Elastic Constant Matrix: (Units=GPa)
#
#
# Indices 1 2 3 4 5 6 
#
# 1 68.0036 39.2232 6.6844 0.0000 0.0000 0.0000
# 2 39.2232 68.0039 6.6851 0.0000 0.0000 0.0000
# 3 6.6844 6.6851 114.4419 0.0000 0.0000 0.0000
# 4 0.0000 0.0000 0.0000 -17.0652 0.0000 0.0000
# 5 0.0000 0.0000 0.0000 0.0000 -17.0658 0.0000
# 6 0.0000 0.0000 0.0000 0.0000 0.0000 53.7157
#
#
#
# Elastic Compliance Matrix: (Units=1/GPa)
#
#
# Indices 1 2 3 4 5 6 
#
# 1 0.022070 -0.012676 -0.000549 0.000000 0.000000 0.000000
# 2 -0.012676 0.022070 -0.000549 0.000000 0.000000 0.000000
# 3 -0.000549 -0.000549 0.008802 0.000000 0.000000 0.000000
# 4 0.000000 0.000000 0.000000 -0.058599 0.000000 0.000000
# 5 0.000000 0.000000 0.000000 0.000000 -0.058597 0.000000
# 6 0.000000 0.000000 0.000000 0.000000 0.000000 0.018617
#
#
# Mechanical properties :
#
#
# Convention : Reuss Voigt Hill
#
# Bulk Modulus (GPa) = 39.37620 39.51497 39.44558
# Shear Modulus (GPa) = -519.47869 17.10739 -251.18565
#
# Velocity S-wave (km/s) = -13.93896 2.52952 -9.69268
# Velocity P-wave (km/s) = 15.63113 4.82811 10.51241
#
# Compressibility (1/GPa) = 0.02539605
#
# Stress axis : x y z
#
# Youngs Moduli (GPa) = 45.31018 45.31031 113.60846
#
# Poissons Ratio (x) = 0.57434 0.06233
# Poissons Ratio (y) = 0.57434 0.06235
# Poissons Ratio (z) = 0.02486 0.02487
#
# Static dielectric constant tensor:
#      x y z
#    x 2.227830 0.000000 0.000000 
#    y 0.000000 2.227830 0.000000 
#    z 0.000000 0.000000 1.999750 
# 
# From -- ./inp_files/2318.got.cif
#   From: 2010.05.17/outbox.cif.g08.bks.cpg/sg116_2_cif.got.tgz:2318.got - 2010.05.20 11:11:43.
