data_PCOD9558734
_publ_section_title
;
Structure prediction by ZEFSAII (Michael W. Deem and Ramdas Pophale) SiO2 
 PCOD9558734
Probable space group: P -4 N 2
;
_chemical_formula_sum "Si O2"
_cell_formula_units_Z 24
_cell_length_a 13.970717
_cell_length_b 13.970717
_cell_length_c 4.783797
_cell_angle_alpha 90.000000
_cell_angle_beta 90.000000
_cell_angle_gamma 90.000000
_cell_volume 933.705964
_symmetry_space_group_name_H-M "P -4 N 2"
_symmetry_group_IT_number 118
_symmetry_cell_setting 'tetragonal'
loop_
_space_group_symop_operation_xyz
x,y,z
y,-x,-z
-x,-y,z
-y,x,-z
1/2+y,1/2+x,1/2-z
1/2-y,1/2-x,1/2-z
1/2-x,1/2+y,1/2+z
1/2+x,1/2-y,1/2+z
loop_
_atom_site_type_symbol
_atom_site_label
_atom_site_fract_x
_atom_site_fract_y
_atom_site_fract_z
Si Si1 0.025206 0.295358 0.013224
Si Si2 0.270690 0.770690 0.250000
Si Si3 0.500000 0.500000 0.000000
Si Si4 0.000000 0.500000 0.750000
Si Si5 0.933547 0.205878 0.503414
O O1 0.134123 0.273104 0.937314
O O2 0.001053 0.403167 0.929375
O O3 0.959541 0.223782 0.825612
O O4 0.001690 0.277758 0.334230
O O5 0.175290 0.772046 0.434433
O O6 0.600661 0.459593 0.115353
#
# Coordination Sequence:
#
# PCOD9558734 Si02
#       5
#     8   4   2   2   8
#     4  11  27  45  73 106 144 191 243 303 368 443
#     4  11  26  45  76 107 146 195 244 306 368 439
#     4  12  28  50  76 110 152 198 248 310 372 442
#     4  10  24  50  72 106 148 188 244 306 372 436
#     4  12  27  47  73 109 147 194 245 303 372 439
#
# _framework density 25.704021999999998
#
# number of rings (size 3 to 8) (size 9 to 14) (size 15 to 20)
#    0.000    0.667    3.333    2.000    4.667   10.667 
#    0.000    0.000    0.000    0.000    0.000    0.000 
#    0.000    0.000    0.000    0.000    0.000    0.000 
#
# Total GULP energy -134669.559863 kJ/mol
# GULP energy per Si atom -5611.231661 kJ/mol
# Density = 2.564552 g / cm^3
# Si number density = 25.704022 Si / 1000 Ang^3
#
#
#
# Elastic Constant Matrix: (Units=GPa)
#
#
# Indices 1 2 3 4 5 6 
#
# 1 134.6479 63.0297 15.6744 0.0000 0.0000 0.0000
# 2 63.0297 134.6479 15.6744 0.0000 0.0000 0.0000
# 3 15.6744 15.6744 77.5092 0.0000 0.0000 0.0000
# 4 0.0000 0.0000 0.0000 13.2717 0.0000 0.0000
# 5 0.0000 0.0000 0.0000 0.0000 13.2717 0.0000
# 6 0.0000 0.0000 0.0000 0.0000 0.0000 43.1056
#
#
#
# Elastic Compliance Matrix: (Units=1/GPa)
#
#
# Indices 1 2 3 4 5 6 
#
# 1 0.009595 -0.004368 -0.001057 0.000000 0.000000 0.000000
# 2 -0.004368 0.009595 -0.001057 0.000000 0.000000 0.000000
# 3 -0.001057 -0.001057 0.013329 0.000000 0.000000 0.000000
# 4 0.000000 0.000000 0.000000 0.075348 0.000000 0.000000
# 5 0.000000 0.000000 0.000000 0.000000 0.075348 0.000000
# 6 0.000000 0.000000 0.000000 0.000000 0.000000 0.023199
#
#
# Mechanical properties :
#
#
# Convention : Reuss Voigt Hill
#
# Bulk Modulus (GPa) = 51.13980 59.50691 55.32336
# Shear Modulus (GPa) = 22.13410 30.75824 26.44617
#
# Velocity S-wave (km/s) = 2.93766 3.46299 3.21108
# Velocity P-wave (km/s) = 5.60761 6.26026 5.94290
#
# Compressibility (1/GPa) = 0.01955424
#
# Stress axis : x y z
#
# Youngs Moduli (GPa) = 104.22479 104.22479 75.02341
#
# Poissons Ratio (x) = 0.45528 0.07929
# Poissons Ratio (y) = 0.45528 0.07929
# Poissons Ratio (z) = 0.11016 0.11016
#
# Static dielectric constant tensor:
#      x y z
#    x 1.989700 0.000000 0.000000 
#    y 0.000000 1.989700 0.000000 
#    z 0.000000 0.000000 1.957320 
# 
# From -- ./inp_files/283.got.cif
#   From: 2010.05.17/outbox.cif.g08.bks.cpg/sg118_1_cif.got.tgz:283.got - 2010.05.20 11:17:24.
