data_PCOD9558490
_publ_section_title
;
Structure prediction by ZEFSAII (Michael W. Deem and Ramdas Pophale) SiO2 
 PCOD9558490
Probable space group: P -4 N 2
;
_chemical_formula_sum "Si O2"
_cell_formula_units_Z 48
_cell_length_a 11.577487
_cell_length_b 11.577487
_cell_length_c 19.164290
_cell_angle_alpha 90.000000
_cell_angle_beta 90.000000
_cell_angle_gamma 90.000000
_cell_volume 2568.747036
_symmetry_space_group_name_H-M "P -4 N 2"
_symmetry_group_IT_number 118
_symmetry_cell_setting 'tetragonal'
loop_
_space_group_symop_operation_xyz
x,y,z
y,-x,-z
-x,-y,z
-y,x,-z
1/2+y,1/2+x,1/2-z
1/2-y,1/2-x,1/2-z
1/2-x,1/2+y,1/2+z
1/2+x,1/2-y,1/2+z
loop_
_atom_site_type_symbol
_atom_site_label
_atom_site_fract_x
_atom_site_fract_y
_atom_site_fract_z
Si Si1 0.861637 0.390302 0.463944
Si Si2 0.530260 0.181521 0.301730
Si Si3 0.167955 0.709443 0.619231
Si Si4 0.530274 0.365978 0.186642
Si Si5 0.659128 0.119279 0.554843
Si Si6 0.265723 0.807399 0.407759
O O1 0.861890 0.346737 0.544072
O O2 0.846858 0.526890 0.460196
O O3 0.759462 0.325040 0.424632
O O4 0.983176 0.350925 0.429411
O O5 0.584435 0.084435 0.250000
O O6 0.398507 0.173132 0.327549
O O7 0.544417 0.302079 0.260651
O O8 0.614251 0.175272 0.368187
O O9 0.070145 0.795463 0.646791
O O10 0.280317 0.791016 0.607590
O O11 0.500000 0.500000 0.191317
O O12 0.641968 0.335387 0.140492
O O13 0.729704 0.130519 0.482520
#
# Coordination Sequence:
#
# PCOD9558490 Si02
#       6
#     8   8   8   8   8   8
#     4  10  20  36  59  85 119 157 193 250 310 379
#     4  10  23  39  62  85 119 165 206 256 302 371
#     4  11  21  37  58  89 118 154 206 253 311 370
#     4  11  23  38  57  84 117 153 202 251 299 354
#     4  10  20  35  58  84 118 154 191 250 303 382
#     4  10  20  37  55  85 114 152 194 244 311 358
#
# _framework density 18.686152
#
# number of rings (size 3 to 8) (size 9 to 14) (size 15 to 20)
#    0.000    1.667    3.333    1.500    0.000    6.000 
#    0.000    0.000    0.000    0.000    0.000   10.500 
#    0.000    0.000    0.000    0.000    0.000    0.000 
#
# Total GULP energy -267714.209383 kJ/mol
# GULP energy per Si atom -5577.379362 kJ/mol
# Density = 1.864362 g / cm^3
# Si number density = 18.686152 Si / 1000 Ang^3
#
#
#
# Elastic Constant Matrix: (Units=GPa)
#
#
# Indices 1 2 3 4 5 6 
#
# 1 68.0763 -0.1876 18.9250 0.0000 0.0000 0.0000
# 2 -0.1876 68.0763 18.9250 0.0000 0.0000 0.0000
# 3 18.9250 18.9250 59.4869 0.0000 0.0000 0.0000
# 4 0.0000 0.0000 0.0000 16.0604 0.0000 0.0000
# 5 0.0000 0.0000 0.0000 0.0000 16.0604 0.0000
# 6 0.0000 0.0000 0.0000 0.0000 0.0000 31.6030
#
#
#
# Elastic Compliance Matrix: (Units=1/GPa)
#
#
# Indices 1 2 3 4 5 6 
#
# 1 0.016278 0.001628 -0.005697 0.000000 0.000000 0.000000
# 2 0.001628 0.016278 -0.005697 0.000000 0.000000 0.000000
# 3 -0.005697 -0.005697 0.020435 0.000000 0.000000 0.000000
# 4 0.000000 0.000000 0.000000 0.062265 0.000000 0.000000
# 5 0.000000 0.000000 0.000000 0.000000 0.062265 0.000000
# 6 0.000000 0.000000 0.000000 0.000000 0.000000 0.031643
#
#
# Mechanical properties :
#
#
# Convention : Reuss Voigt Hill
#
# Bulk Modulus (GPa) = 29.88577 30.10715 29.99646
# Shear Modulus (GPa) = 20.84674 23.27655 22.06165
#
# Velocity S-wave (km/s) = 3.34372 3.53322 3.43977
# Velocity P-wave (km/s) = 5.56197 5.72641 5.64479
#
# Compressibility (1/GPa) = 0.03346074
#
# Stress axis : x y z
#
# Youngs Moduli (GPa) = 61.43441 61.43441 48.93562
#
# Poissons Ratio (x) = -0.10005 0.27877
# Poissons Ratio (y) = -0.10005 0.27877
# Poissons Ratio (z) = 0.34997 0.34997
#
# Static dielectric constant tensor:
#      x y z
#    x 1.643250 0.000000 0.000000 
#    y 0.000000 1.643250 0.000000 
#    z 0.000000 0.000000 1.650100 
# 
# From -- ./inp_files/4919.got.cif
#   From: 2010.05.17/outbox.cif.g08.bks.cpg/sg118_3_cif.got.tgz:4919.got - 2010.05.20 11:17:24.
