data_PCOD9558668
_publ_section_title
;
Structure prediction by ZEFSAII (Michael W. Deem and Ramdas Pophale) SiO2 
 PCOD9558668
Probable space group: P -4 N 2
;
_chemical_formula_sum "Si O2"
_cell_formula_units_Z 40
_cell_length_a 10.495458
_cell_length_b 10.495458
_cell_length_c 14.170717
_cell_angle_alpha 90.000000
_cell_angle_beta 90.000000
_cell_angle_gamma 90.000000
_cell_volume 1560.970210
_symmetry_space_group_name_H-M "P -4 N 2"
_symmetry_group_IT_number 118
_symmetry_cell_setting 'tetragonal'
loop_
_space_group_symop_operation_xyz
x,y,z
y,-x,-z
-x,-y,z
-y,x,-z
1/2+y,1/2+x,1/2-z
1/2-y,1/2-x,1/2-z
1/2-x,1/2+y,1/2+z
1/2+x,1/2-y,1/2+z
loop_
_atom_site_type_symbol
_atom_site_label
_atom_site_fract_x
_atom_site_fract_y
_atom_site_fract_z
Si Si1 0.199748 0.156122 0.326913
Si Si2 0.836582 0.946219 0.555219
Si Si3 0.168977 0.590056 0.348869
Si Si4 0.957954 0.360743 0.949068
Si Si5 0.791129 0.094744 0.201709
O O1 0.236573 0.263428 0.250000
O O2 0.061044 0.173023 0.369989
O O3 0.313497 0.157184 0.406468
O O4 0.197695 0.025191 0.268850
O O5 0.855162 0.040675 0.462794
O O6 0.723209 0.859483 0.594857
O O7 0.094107 0.594107 0.250000
O O8 0.142510 0.503387 0.439427
O O9 0.316206 0.588312 0.318684
O O10 0.000000 0.500000 0.914595
O O11 0.042491 0.257501 0.897187
O O12 0.688209 0.188209 0.250000
#
# Coordination Sequence:
#
# PCOD9558668 Si02
#       5
#     8   8   8   8   8
#     4  10  22  43  72 107 129 175 235 299 348 405
#     4  11  25  41  72 101 132 179 244 289 342 404
#     4  11  27  45  62 101 143 186 222 281 357 412
#     4  11  22  40  70 100 129 177 232 282 344 403
#     4  10  22  41  71  95 134 175 230 285 334 413
#
# _framework density 25.62509
#
# number of rings (size 3 to 8) (size 9 to 14) (size 15 to 20)
#    0.000    1.400    4.000    0.000   14.000    0.400 
#   10.800    0.000    0.000    0.000    0.000    0.000 
#    0.000    0.000    0.000    0.000    0.000    0.000 
#
# Total GULP energy -223074.596859 kJ/mol
# GULP energy per Si atom -5576.864921 kJ/mol
# Density = 2.556677 g / cm^3
# Si number density = 25.625090 Si / 1000 Ang^3
#
#
#
# Elastic Constant Matrix: (Units=GPa)
#
#
# Indices 1 2 3 4 5 6 
#
# 1 35.1610 7.6137 19.0347 0.0000 0.0000 0.0000
# 2 7.6137 35.1598 19.0346 0.0000 0.0000 0.0000
# 3 19.0347 19.0346 214.7671 0.0000 0.0000 0.0000
# 4 0.0000 0.0000 0.0000 18.1393 0.0000 0.0000
# 5 0.0000 0.0000 0.0000 0.0000 18.1394 0.0000
# 6 0.0000 0.0000 0.0000 0.0000 0.0000 28.8519
#
#
#
# Elastic Compliance Matrix: (Units=1/GPa)
#
#
# Indices 1 2 3 4 5 6 
#
# 1 0.030841 -0.005461 -0.002249 0.000000 0.000000 0.000000
# 2 -0.005461 0.030842 -0.002250 0.000000 0.000000 0.000000
# 3 -0.002249 -0.002250 0.005055 0.000000 0.000000 0.000000
# 4 0.000000 0.000000 0.000000 0.055129 0.000000 0.000000
# 5 0.000000 0.000000 0.000000 0.000000 0.055129 0.000000
# 6 0.000000 0.000000 0.000000 0.000000 0.000000 0.034660
#
#
# Mechanical properties :
#
#
# Convention : Reuss Voigt Hill
#
# Bulk Modulus (GPa) = 21.35911 41.82821 31.59366
# Shear Modulus (GPa) = 20.22814 28.98643 24.60729
#
# Velocity S-wave (km/s) = 2.81265 3.36694 3.10220
# Velocity P-wave (km/s) = 4.34757 5.61014 5.01871
#
# Compressibility (1/GPa) = 0.04681843
#
# Stress axis : x y z
#
# Youngs Moduli (GPa) = 32.42457 32.42347 197.82614
#
# Poissons Ratio (x) = 0.17705 0.44500
# Poissons Ratio (y) = 0.17706 0.44501
# Poissons Ratio (z) = 0.07294 0.07294
#
# Static dielectric constant tensor:
#      x y z
#    x 2.119420 0.000000 0.000000 
#    y 0.000000 2.119420 0.000000 
#    z 0.000000 0.000000 2.230590 
# 
# From -- ./inp_files/4086.got.cif
#   From: 2010.05.17/outbox.cif.g08.bks.cpg/sg118_3_cif.got.tgz:4086.got - 2010.05.20 11:17:24.
