data_PCOD9558109
_publ_section_title
;
Structure prediction by ZEFSAII (Michael W. Deem and Ramdas Pophale) SiO2 
 PCOD9558109
Probable space group: P -4 B 2
;
_chemical_formula_sum "Si O2"
_cell_formula_units_Z 32
_cell_length_a 12.101109
_cell_length_b 12.101109
_cell_length_c 12.029567
_cell_angle_alpha 90.000000
_cell_angle_beta 90.000000
_cell_angle_gamma 90.000000
_cell_volume 1761.571766
_symmetry_space_group_name_H-M "P -4 B 2"
_symmetry_group_IT_number 117
_symmetry_cell_setting 'tetragonal'
loop_
_space_group_symop_operation_xyz
x,y,z
y,-x,-z
-x,-y,z
-y,x,-z
1/2+y,1/2+x,-z
1/2-y,1/2-x,-z
1/2-x,1/2+y,z
1/2+x,1/2-y,z
loop_
_atom_site_type_symbol
_atom_site_label
_atom_site_fract_x
_atom_site_fract_y
_atom_site_fract_z
Si Si1 0.030834 0.662538 0.815119
Si Si2 0.115449 0.162725 0.165726
Si Si3 0.500000 0.000000 0.500000
Si Si4 0.500000 0.500000 0.000000
Si Si5 0.966698 0.652250 0.300141
Si Si6 0.139360 0.360641 0.000000
O O1 0.085097 0.781783 0.804392
O O2 0.117059 0.565707 0.784120
O O3 0.928668 0.635514 0.732513
O O4 0.976871 0.650214 0.936591
O O5 0.062363 0.221938 0.273315
O O6 0.154642 0.265325 0.090431
O O7 0.033056 0.097622 0.084117
O O8 0.391899 0.999909 0.578877
#
# Coordination Sequence:
#
# PCOD9558109 Si02
#       6
#     8   8   2   2   8   4
#     4   9  19  34  49  77 112 149 201 233 278 354
#     4  11  22  32  51  84 118 163 187 238 287 361
#     4   8  16  44  64  86 104 146 204 266 296 330
#     4  12  24  36  48  84 142 160 180 240 304 354
#     4   9  21  36  62  80 111 148 205 251 292 356
#     4  10  20  31  50  71 112 164 194 217 278 348
#
# _framework density 18.165595
#
# number of rings (size 3 to 8) (size 9 to 14) (size 15 to 20)
#    0.000    2.500    2.500    0.000    3.500   10.000 
#    0.000    5.000    0.000    0.000    0.000    0.000 
#    0.000    0.000    0.000    0.000    0.000    0.000 
#
# Total GULP energy -178212.531952 kJ/mol
# GULP energy per Si atom -5569.141623 kJ/mol
# Density = 1.812425 g / cm^3
# Si number density = 18.165595 Si / 1000 Ang^3
#
#
#
# Elastic Constant Matrix: (Units=GPa)
#
#
# Indices 1 2 3 4 5 6 
#
# 1 63.6215 33.1353 35.1371 0.0000 0.0000 0.0000
# 2 33.1353 63.6218 35.1372 0.0000 0.0000 0.0000
# 3 35.1371 35.1372 90.4120 0.0000 0.0000 0.0000
# 4 0.0000 0.0000 0.0000 22.7357 0.0000 0.0000
# 5 0.0000 0.0000 0.0000 0.0000 22.7357 0.0000
# 6 0.0000 0.0000 0.0000 0.0000 0.0000 37.9093
#
#
#
# Elastic Compliance Matrix: (Units=1/GPa)
#
#
# Indices 1 2 3 4 5 6 
#
# 1 0.023601 -0.009201 -0.005596 0.000000 0.000000 0.000000
# 2 -0.009201 0.023601 -0.005596 0.000000 0.000000 0.000000
# 3 -0.005596 -0.005596 0.015410 0.000000 0.000000 0.000000
# 4 0.000000 0.000000 0.000000 0.043984 0.000000 0.000000
# 5 0.000000 0.000000 0.000000 0.000000 0.043984 0.000000
# 6 0.000000 0.000000 0.000000 0.000000 0.000000 0.026379
#
#
# Mechanical properties :
#
#
# Convention : Reuss Voigt Hill
#
# Bulk Modulus (GPa) = 45.81948 47.16384 46.49166
# Shear Modulus (GPa) = 22.22033 24.29253 23.25643
#
# Velocity S-wave (km/s) = 3.50124 3.66085 3.58193
# Velocity P-wave (km/s) = 6.45158 6.62486 6.53879
#
# Compressibility (1/GPa) = 0.02182478
#
# Stress axis : x y z
#
# Youngs Moduli (GPa) = 42.37168 42.37181 64.89198
#
# Poissons Ratio (x) = 0.38986 0.36315
# Poissons Ratio (y) = 0.38986 0.36315
# Poissons Ratio (z) = 0.23712 0.23712
#
# Static dielectric constant tensor:
#      x y z
#    x 1.658060 0.000000 0.000000 
#    y 0.000000 1.658060 0.000000 
#    z 0.000000 0.000000 1.662740 
# 
# From -- ./inp_files/2476.got.cif
#   From: 2010.05.17/outbox.cif.g08.bks.cpg/sg117_2_cif.got.tgz:2476.got - 2010.05.20 11:15:09.
