data_PCOD9558430
_publ_section_title
;
Structure prediction by ZEFSAII (Michael W. Deem and Ramdas Pophale) SiO2 
 PCOD9558430
Probable space group: P -4 N 2
;
_chemical_formula_sum "Si O2"
_cell_formula_units_Z 56
_cell_length_a 12.155513
_cell_length_b 12.155513
_cell_length_c 18.130863
_cell_angle_alpha 90.000000
_cell_angle_beta 90.000000
_cell_angle_gamma 90.000000
_cell_volume 2678.952792
_symmetry_space_group_name_H-M "P -4 N 2"
_symmetry_group_IT_number 118
_symmetry_cell_setting 'tetragonal'
loop_
_space_group_symop_operation_xyz
x,y,z
y,-x,-z
-x,-y,z
-y,x,-z
1/2+y,1/2+x,1/2-z
1/2-y,1/2-x,1/2-z
1/2-x,1/2+y,1/2+z
1/2+x,1/2-y,1/2+z
loop_
_atom_site_type_symbol
_atom_site_label
_atom_site_fract_x
_atom_site_fract_y
_atom_site_fract_z
Si Si1 0.876257 0.455756 0.089427
Si Si2 0.927764 0.749959 0.273871
Si Si3 0.911994 0.143717 0.616608
Si Si4 0.397745 0.830913 0.379353
Si Si5 0.576798 0.268600 0.020974
Si Si6 0.860377 0.243770 0.180442
Si Si7 0.119858 0.588785 0.836683
O O1 0.825436 0.521211 0.160047
O O2 0.865499 0.329191 0.112636
O O3 0.000000 0.500000 0.079372
O O4 0.806667 0.481981 0.016225
O O5 0.817342 0.682659 0.250000
O O6 0.919460 0.869901 0.312299
O O7 0.013903 0.766821 0.207657
O O8 0.850583 0.106235 0.543521
O O9 0.870504 0.264584 0.635637
O O10 0.037689 0.158318 0.590980
O O11 0.321333 0.836057 0.451724
O O12 0.357702 0.721624 0.337199
O O13 0.528234 0.844261 0.382199
O O14 0.377999 0.955021 0.345504
O O15 0.802367 0.302367 0.250000
O O16 0.106580 0.606580 0.750000
#
# Coordination Sequence:
#
# PCOD9558430 Si02
#       7
#     8   8   8   8   8   8   8
#     4  10  19  31  57  88 121 158 197 262 303 369
#     4  10  19  35  57  91 119 158 196 252 321 379
#     4  10  22  38  57  82 118 162 195 254 308 379
#     4  10  20  36  58  90 115 157 202 263 298 365
#     4  10  22  37  55  85 120 155 207 239 313 373
#     4  10  19  32  58  89 122 149 202 256 317 367
#     4  10  20  37  62  83 118 153 204 253 309 364
#
# _framework density 20.903690999999998
#
# number of rings (size 3 to 8) (size 9 to 14) (size 15 to 20)
#    0.000    2.000    1.429    3.000    4.000    0.286 
#    0.000    4.286    0.000    9.429    0.000    0.000 
#    0.000    0.000    0.000    0.000    0.000    0.000 
#
# Total GULP energy -311810.664673 kJ/mol
# GULP energy per Si atom -5568.047583 kJ/mol
# Density = 2.085611 g / cm^3
# Si number density = 20.903691 Si / 1000 Ang^3
#
#
#
# Elastic Constant Matrix: (Units=GPa)
#
#
# Indices 1 2 3 4 5 6 
#
# 1 35.8400 42.0796 2.3410 0.0000 0.0000 0.0000
# 2 42.0796 35.8399 2.3413 0.0000 0.0000 0.0000
# 3 2.3410 2.3413 34.4699 0.0000 0.0000 0.0000
# 4 0.0000 0.0000 0.0000 24.7660 0.0000 0.0000
# 5 0.0000 0.0000 0.0000 0.0000 24.7663 0.0000
# 6 0.0000 0.0000 0.0000 0.0000 0.0000 27.1954
#
#
#
# Elastic Compliance Matrix: (Units=1/GPa)
#
#
# Indices 1 2 3 4 5 6 
#
# 1 -0.073689 0.086576 -0.000876 0.000000 0.000000 0.000000
# 2 0.086576 -0.073690 -0.000875 0.000000 0.000000 0.000000
# 3 -0.000876 -0.000875 0.029130 0.000000 0.000000 0.000000
# 4 0.000000 0.000000 0.000000 0.040378 0.000000 0.000000
# 5 0.000000 0.000000 0.000000 0.000000 0.040377 0.000000
# 6 0.000000 0.000000 0.000000 0.000000 0.000000 0.036771
#
#
# Mechanical properties :
#
#
# Convention : Reuss Voigt Hill
#
# Bulk Modulus (GPa) = 19.45466 22.18592 20.82029
# Shear Modulus (GPa) = -32.62844 19.30474 -6.66185
#
# Velocity S-wave (km/s) = -3.95510 3.04223 -1.78713
# Velocity P-wave (km/s) = 3.39560 4.79339 2.39234
#
# Compressibility (1/GPa) = 0.05140156
#
# Stress axis : x y z
#
# Youngs Moduli (GPa) = -13.57046 -13.57041 34.32924
#
# Poissons Ratio (x) = 1.17487 0.03007
# Poissons Ratio (y) = 1.17488 0.03002
# Poissons Ratio (z) = -0.01189 -0.01187
#
# Static dielectric constant tensor:
#      x y z
#    x 1.813620 0.000000 0.000000 
#    y 0.000000 1.813620 0.000000 
#    z 0.000000 0.000000 1.763050 
# 
# From -- ./inp_files/5689.got.cif
#   From: 2010.05.17/outbox.cif.g08.bks.cpg/sg118_3_cif.got.tgz:5689.got - 2010.05.20 11:17:24.
