data_PCOD9558275
_publ_section_title
;
Structure prediction by ZEFSAII (Michael W. Deem and Ramdas Pophale) SiO2 
 PCOD9558275
Probable space group: P -4 B 2
;
_chemical_formula_sum "Si O2"
_cell_formula_units_Z 48
_cell_length_a 13.807628
_cell_length_b 13.807628
_cell_length_c 11.064211
_cell_angle_alpha 90.000000
_cell_angle_beta 90.000000
_cell_angle_gamma 90.000000
_cell_volume 2109.398366
_symmetry_space_group_name_H-M "P -4 B 2"
_symmetry_group_IT_number 117
_symmetry_cell_setting 'tetragonal'
loop_
_space_group_symop_operation_xyz
x,y,z
y,-x,-z
-x,-y,z
-y,x,-z
1/2+y,1/2+x,-z
1/2-y,1/2-x,-z
1/2-x,1/2+y,z
1/2+x,1/2-y,z
loop_
_atom_site_type_symbol
_atom_site_label
_atom_site_fract_x
_atom_site_fract_y
_atom_site_fract_z
Si Si1 0.366821 0.887041 0.142739
Si Si2 0.431025 0.208514 0.534784
Si Si3 0.822590 0.124389 0.893126
Si Si4 0.183419 0.989827 0.251529
Si Si5 0.368501 0.052444 0.703941
Si Si6 0.602496 0.695794 0.144297
O O1 0.336586 0.775279 0.168191
O O2 0.283481 0.958772 0.184990
O O3 0.464809 0.903310 0.215989
O O4 0.389606 0.889606 0.000000
O O5 0.316934 0.183066 0.500000
O O6 0.470149 0.295413 0.614392
O O7 0.442942 0.116208 0.625461
O O8 0.484620 0.199160 0.407288
O O9 0.920406 0.140367 0.820686
O O10 0.806373 0.009032 0.899451
O O11 0.836712 0.171443 0.024610
O O12 0.120151 0.892708 0.237349
O O13 0.299206 0.116785 0.790702
#
# Coordination Sequence:
#
# PCOD9558275 Si02
#       6
#     8   8   8   8   8   8
#     4  11  22  40  65 104 132 171 229 278 342 413
#     4   8  22  47  65  91 129 183 226 272 352 398
#     4  11  23  40  65  98 144 174 216 288 345 425
#     4  12  23  37  70  99 127 182 231 270 343 418
#     4   8  21  45  64  92 138 170 227 280 339 411
#     4  11  20  40  67  95 135 179 220 270 357 408
#
# _framework density 22.755300999999999
#
# number of rings (size 3 to 8) (size 9 to 14) (size 15 to 20)
#    1.000    0.667    3.333    1.500    2.333    1.333 
#    9.000    3.333    0.000    0.000    0.000    0.000 
#    0.000    0.000    0.000    0.000    0.000    0.000 
#
# Total GULP energy -267605.202402 kJ/mol
# GULP energy per Si atom -5575.108383 kJ/mol
# Density = 2.270351 g / cm^3
# Si number density = 22.755301 Si / 1000 Ang^3
#
#
#
# Elastic Constant Matrix: (Units=GPa)
#
#
# Indices 1 2 3 4 5 6 
#
# 1 48.2696 16.6209 7.8280 0.0000 0.0000 0.0000
# 2 16.6209 48.2697 7.8283 0.0000 0.0000 0.0000
# 3 7.8280 7.8283 79.0198 0.0000 0.0000 0.0000
# 4 0.0000 0.0000 0.0000 32.4370 0.0000 0.0000
# 5 0.0000 0.0000 0.0000 0.0000 32.4371 0.0000
# 6 0.0000 0.0000 0.0000 0.0000 0.0000 37.7317
#
#
#
# Elastic Compliance Matrix: (Units=1/GPa)
#
#
# Indices 1 2 3 4 5 6 
#
# 1 0.023692 -0.007904 -0.001564 0.000000 0.000000 0.000000
# 2 -0.007904 0.023692 -0.001564 0.000000 0.000000 0.000000
# 3 -0.001564 -0.001564 0.012965 0.000000 0.000000 0.000000
# 4 0.000000 0.000000 0.000000 0.030829 0.000000 0.000000
# 5 0.000000 0.000000 0.000000 0.000000 0.030829 0.000000
# 6 0.000000 0.000000 0.000000 0.000000 0.000000 0.026503
#
#
# Mechanical properties :
#
#
# Convention : Reuss Voigt Hill
#
# Bulk Modulus (GPa) = 26.12018 26.67931 26.39974
# Shear Modulus (GPa) = 27.27217 30.07328 28.67273
#
# Velocity S-wave (km/s) = 3.46569 3.63932 3.55356
# Velocity P-wave (km/s) = 5.24579 5.42304 5.33515
#
# Compressibility (1/GPa) = 0.03828458
#
# Stress axis : x y z
#
# Youngs Moduli (GPa) = 42.20769 42.20773 77.13108
#
# Poissons Ratio (x) = 0.33363 0.12063
# Poissons Ratio (y) = 0.33363 0.12064
# Poissons Ratio (z) = 0.06601 0.06602
#
# Static dielectric constant tensor:
#      x y z
#    x 1.917290 0.000000 0.000000 
#    y 0.000000 1.917290 0.000000 
#    z 0.000000 0.000000 1.863120 
# 
# From -- ./inp_files/2785.got.cif
#   From: 2010.05.17/outbox.cif.g08.bks.cpg/sg117_2_cif.got.tgz:2785.got - 2010.05.20 11:15:09.
