data_PCOD9558477
_publ_section_title
;
Structure prediction by ZEFSAII (Michael W. Deem and Ramdas Pophale) SiO2 
 PCOD9558477
Probable space group: P -4 N 2
;
_chemical_formula_sum "Si O2"
_cell_formula_units_Z 34
_cell_length_a 12.189007
_cell_length_b 12.189007
_cell_length_c 13.728631
_cell_angle_alpha 90.000000
_cell_angle_beta 90.000000
_cell_angle_gamma 90.000000
_cell_volume 2039.688677
_symmetry_space_group_name_H-M "P -4 N 2"
_symmetry_group_IT_number 118
_symmetry_cell_setting 'tetragonal'
loop_
_space_group_symop_operation_xyz
x,y,z
y,-x,-z
-x,-y,z
-y,x,-z
1/2+y,1/2+x,1/2-z
1/2-y,1/2-x,1/2-z
1/2-x,1/2+y,1/2+z
1/2+x,1/2-y,1/2+z
loop_
_atom_site_type_symbol
_atom_site_label
_atom_site_fract_x
_atom_site_fract_y
_atom_site_fract_z
Si Si1 0.455938 0.800086 0.815268
Si Si2 0.500000 0.500000 0.500000
Si Si3 0.724234 0.777283 0.137870
Si Si4 0.298190 0.481628 0.379289
Si Si5 0.908479 0.416070 0.484558
O O1 0.394668 0.894668 0.750000
O O2 0.355363 0.734507 0.865067
O O3 0.512171 0.725248 0.732945
O O4 0.534957 0.851974 0.894566
O O5 0.401892 0.536457 0.429767
O O6 0.695787 0.804214 0.250000
O O7 0.849898 0.815677 0.119578
O O8 0.641785 0.833037 0.063162
O O9 0.191365 0.513229 0.440878
O O10 0.000000 0.500000 0.524370
#
# Coordination Sequence:
#
# PCOD9558477 Si02
#       5
#     8   2   8   8   8
#     4   9  19  36  56  83 110 146 191 242 285 326
#     4  12  20  36  56  80 126 152 184 232 304 336
#     4   9  20  36  51  79 115 148 180 236 295 333
#     4  10  20  33  56  82 112 146 193 233 282 337
#     4  12  19  32  63  88 107 149 202 238 274 346
#
# _framework density 16.66921
#
# number of rings (size 3 to 8) (size 9 to 14) (size 15 to 20)
#    0.000    2.353    7.059    0.706    0.000    0.471 
#    0.000    4.706    0.000    0.000    0.000    0.000 
#    0.000    0.000    0.000    0.000    0.000    0.000 
#
# Total GULP energy -189395.924853 kJ/mol
# GULP energy per Si atom -5570.468378 kJ/mol
# Density = 1.663127 g / cm^3
# Si number density = 16.669210 Si / 1000 Ang^3
#
#
#
# Elastic Constant Matrix: (Units=GPa)
#
#
# Indices 1 2 3 4 5 6 
#
# 1 71.3483 30.5328 55.8421 0.0000 0.0000 0.0000
# 2 30.5328 71.3480 55.8419 0.0000 0.0000 0.0000
# 3 55.8421 55.8419 114.0586 0.0000 0.0000 0.0000
# 4 0.0000 0.0000 0.0000 26.4437 0.0000 0.0000
# 5 0.0000 0.0000 0.0000 0.0000 26.4438 0.0000
# 6 0.0000 0.0000 0.0000 0.0000 0.0000 14.3292
#
#
#
# Elastic Compliance Matrix: (Units=1/GPa)
#
#
# Indices 1 2 3 4 5 6 
#
# 1 0.022843 -0.001657 -0.010372 0.000000 0.000000 0.000000
# 2 -0.001657 0.022843 -0.010372 0.000000 0.000000 0.000000
# 3 -0.010372 -0.010372 0.018924 0.000000 0.000000 0.000000
# 4 0.000000 0.000000 0.000000 0.037816 0.000000 0.000000
# 5 0.000000 0.000000 0.000000 0.000000 0.037816 0.000000
# 6 0.000000 0.000000 0.000000 0.000000 0.000000 0.069788
#
#
# Mechanical properties :
#
#
# Convention : Reuss Voigt Hill
#
# Bulk Modulus (GPa) = 50.48980 60.13205 55.31092
# Shear Modulus (GPa) = 19.12512 21.07921 20.10217
#
# Velocity S-wave (km/s) = 3.39090 3.55992 3.47644
# Velocity P-wave (km/s) = 6.75914 7.28350 7.02622
#
# Compressibility (1/GPa) = 0.01980598
#
# Stress axis : x y z
#
# Youngs Moduli (GPa) = 43.77678 43.77665 52.84335
#
# Poissons Ratio (x) = 0.07255 0.54811
# Poissons Ratio (y) = 0.07255 0.54811
# Poissons Ratio (z) = 0.45407 0.45407
#
# Static dielectric constant tensor:
#      x y z
#    x 1.581530 0.000000 0.000000 
#    y 0.000000 1.581530 0.000000 
#    z 0.000000 0.000000 1.573770 
# 
# From -- ./inp_files/3999.got.cif
#   From: 2010.05.17/outbox.cif.g08.bks.cpg/sg118_2_cif.got.tgz:3999.got - 2010.05.20 11:17:24.
