data_PCOD9558753
_publ_section_title
;
Structure prediction by ZEFSAII (Michael W. Deem and Ramdas Pophale) SiO2 
 PCOD9558753
Probable space group: P -4 N 2
;
_chemical_formula_sum "Si O2"
_cell_formula_units_Z 14
_cell_length_a 6.704637
_cell_length_b 6.704637
_cell_length_c 15.086066
_cell_angle_alpha 90.000000
_cell_angle_beta 90.000000
_cell_angle_gamma 90.000000
_cell_volume 678.151212
_symmetry_space_group_name_H-M "P -4 N 2"
_symmetry_group_IT_number 118
_symmetry_cell_setting 'tetragonal'
loop_
_space_group_symop_operation_xyz
x,y,z
y,-x,-z
-x,-y,z
-y,x,-z
1/2+y,1/2+x,1/2-z
1/2-y,1/2-x,1/2-z
1/2-x,1/2+y,1/2+z
1/2+x,1/2-y,1/2+z
loop_
_atom_site_type_symbol
_atom_site_label
_atom_site_fract_x
_atom_site_fract_y
_atom_site_fract_z
Si Si1 0.000000 0.500000 0.050971
Si Si2 0.500000 0.000000 0.250000
Si Si3 0.201513 0.125503 0.101970
O O1 0.857326 0.641700 0.108614
O O2 0.891100 0.346576 0.983631
O O3 0.314548 0.025046 0.184013
O O4 0.000000 0.000000 0.092241
#
# Coordination Sequence:
#
# PCOD9558753 Si02
#       3
#     4   2   8
#     4  11  20  42  72  95 134 174 236 277 332 406
#     4  10  28  42  64  96 148 184 216 288 356 398
#     4  11  23  45  64 105 133 178 231 284 337 409
#
# _framework density 20.644361
#
# number of rings (size 3 to 8) (size 9 to 14) (size 15 to 20)
#    0.000    1.143    5.714    0.000    0.000    6.857 
#    0.000    0.000    0.000    0.000    0.000    0.000 
#    0.000    0.000    0.000    0.000    0.000    0.000 
#
# Total GULP energy -78041.893725 kJ/mol
# GULP energy per Si atom -5574.420980 kJ/mol
# Density = 2.059737 g / cm^3
# Si number density = 20.644361 Si / 1000 Ang^3
#
#
#
# Elastic Constant Matrix: (Units=GPa)
#
#
# Indices 1 2 3 4 5 6 
#
# 1 138.9276 80.5907 49.7037 0.0000 0.0000 0.0000
# 2 80.5907 138.9276 49.7037 0.0000 0.0000 0.0000
# 3 49.7037 49.7037 97.5312 0.0000 0.0000 0.0000
# 4 0.0000 0.0000 0.0000 3.8241 0.0000 0.0000
# 5 0.0000 0.0000 0.0000 0.0000 3.8241 0.0000
# 6 0.0000 0.0000 0.0000 0.0000 0.0000 45.0376
#
#
#
# Elastic Compliance Matrix: (Units=1/GPa)
#
#
# Indices 1 2 3 4 5 6 
#
# 1 0.011532 -0.005610 -0.003018 0.000000 0.000000 0.000000
# 2 -0.005610 0.011532 -0.003018 0.000000 0.000000 0.000000
# 3 -0.003018 -0.003018 0.013329 0.000000 0.000000 0.000000
# 4 0.000000 0.000000 0.000000 0.261501 0.000000 0.000000
# 5 0.000000 0.000000 0.000000 0.000000 0.261501 0.000000
# 6 0.000000 0.000000 0.000000 0.000000 0.000000 0.022204
#
#
# Mechanical properties :
#
#
# Convention : Reuss Voigt Hill
#
# Bulk Modulus (GPa) = 76.32794 81.70918 79.01856
# Shear Modulus (GPa) = 8.20671 23.56305 15.88488
#
# Velocity S-wave (km/s) = 1.99597 3.38210 2.77691
# Velocity P-wave (km/s) = 6.50883 7.41059 6.97430
#
# Compressibility (1/GPa) = 0.01310136
#
# Stress axis : x y z
#
# Youngs Moduli (GPa) = 86.71552 86.71552 75.02327
#
# Poissons Ratio (x) = 0.48646 0.22642
# Poissons Ratio (y) = 0.48646 0.22642
# Poissons Ratio (z) = 0.26171 0.26171
#
# Static dielectric constant tensor:
#      x y z
#    x 1.754330 0.000000 0.000000 
#    y 0.000000 1.754330 0.000000 
#    z 0.000000 0.000000 1.810100 
# 
# From -- ./inp_files/4332.got.cif
#   From: 2010.05.17/outbox.cif.g08.bks.cpg/sg118_3_cif.got.tgz:4332.got - 2010.05.20 11:17:24.
