data_PCOD9558939
_publ_section_title
;
Structure prediction by ZEFSAII (Michael W. Deem and Ramdas Pophale) SiO2 
 PCOD9558939
Probable space group: P -4 N 2
;
_chemical_formula_sum "Si O2"
_cell_formula_units_Z 40
_cell_length_a 12.000000
_cell_length_b 12.000000
_cell_length_c 15.000000
_cell_angle_alpha 90.000000
_cell_angle_beta 90.000000
_cell_angle_gamma 90.000000
_cell_volume 2160.000000
_symmetry_space_group_name_H-M "P -4 N 2"
_symmetry_group_IT_number 118
_symmetry_cell_setting 'tetragonal'
loop_
_space_group_symop_operation_xyz
x,y,z
y,-x,-z
-x,-y,z
-y,x,-z
1/2+y,1/2+x,1/2-z
1/2-y,1/2-x,1/2-z
1/2-x,1/2+y,1/2+z
1/2+x,1/2-y,1/2+z
loop_
_atom_site_type_symbol
_atom_site_label
_atom_site_fract_x
_atom_site_fract_y
_atom_site_fract_z
Si Si1 0.214955 0.420850 0.670849
Si Si2 0.785481 0.411976 0.103790
Si Si3 0.180360 0.800827 0.834249
Si Si4 0.772263 0.938053 0.812368
Si Si5 0.152007 0.278015 0.502047
O O1 0.132015 0.367986 0.750000
O O2 0.243868 0.555057 0.668971
O O3 0.335537 0.359934 0.681232
O O4 0.166872 0.377111 0.575443
O O5 0.895403 0.329992 0.121516
O O6 0.761054 0.441863 0.207433
O O7 0.788173 0.527985 0.045045
O O8 0.688309 0.333153 0.059777
O O9 0.248732 0.748732 0.750000
O O10 0.254212 0.777973 0.923474
O O11 0.180420 0.937520 0.831412
#
# Coordination Sequence:
#
# PCOD9558939 Si02
#       5
#     8   8   8   8   8
#     4  11  25  48  69  96 145 188 228 287 361 424
#     4  10  22  44  72 103 137 176 236 292 352 416
#     4  12  27  44  67 105 138 181 239 288 349 427
#     4  10  21  49  71  97 137 185 232 292 350 418
#     4  11  25  44  69 105 136 184 237 287 355 424
#
# _framework density 18.518519000000001
#
# number of rings (size 3 to 8) (size 9 to 14) (size 15 to 20)
#    0.000    1.200    6.000    0.600    8.400    1.600 
#    3.600    0.000    0.000    0.000    0.000    0.000 
#    0.000    0.000    0.000    0.000    0.000    0.000 
#
# Total GULP energy -222781.506422 kJ/mol
# GULP energy per Si atom -5569.537661 kJ/mol
# Density = 1.847637 g / cm^3
# Si number density = 18.518519 Si / 1000 Ang^3
#
#
#
# Elastic Constant Matrix: (Units=GPa)
#
#
# Indices 1 2 3 4 5 6 
#
# 1 150.2909 37.9458 46.2631 0.0000 0.0000 0.0000
# 2 37.9458 150.2908 46.2631 0.0000 0.0000 0.0000
# 3 46.2631 46.2631 134.8835 0.0000 0.0000 0.0000
# 4 0.0000 0.0000 0.0000 46.5641 0.0000 0.0000
# 5 0.0000 0.0000 0.0000 0.0000 46.5641 0.0000
# 6 0.0000 0.0000 0.0000 0.0000 0.0000 31.9340
#
#
#
# Elastic Compliance Matrix: (Units=1/GPa)
#
#
# Indices 1 2 3 4 5 6 
#
# 1 0.007645 -0.001256 -0.002192 0.000000 0.000000 0.000000
# 2 -0.001256 0.007645 -0.002192 0.000000 0.000000 0.000000
# 3 -0.002192 -0.002192 0.008917 0.000000 0.000000 0.000000
# 4 0.000000 0.000000 0.000000 0.021476 0.000000 0.000000
# 5 0.000000 0.000000 0.000000 0.000000 0.021476 0.000000
# 6 0.000000 0.000000 0.000000 0.000000 0.000000 0.031315
#
#
# Mechanical properties :
#
#
# Convention : Reuss Voigt Hill
#
# Bulk Modulus (GPa) = 77.33787 77.37879 77.35833
# Shear Modulus (GPa) = 43.83582 45.34534 44.59058
#
# Velocity S-wave (km/s) = 4.87060 4.95375 4.91235
# Velocity P-wave (km/s) = 8.57225 8.63683 8.60460
#
# Compressibility (1/GPa) = 0.01293028
#
# Stress axis : x y z
#
# Youngs Moduli (GPa) = 130.79706 130.79705 112.14324
#
# Poissons Ratio (x) = 0.16424 0.24577
# Poissons Ratio (y) = 0.16424 0.24577
# Poissons Ratio (z) = 0.28665 0.28665
#
# Static dielectric constant tensor:
#      x y z
#    x 1.668430 0.000000 0.000000 
#    y 0.000000 1.668430 0.000000 
#    z 0.000000 0.000000 1.659320 
# 
# From -- ./inp_files/4060.got.cif
#   From: 2010.05.17/outbox.ucp.g08.bks.cvg/sg118_3_cif.got.tgz:4060.got - 2010.06.11 11:34:11.
