data_PCOD9558216
_publ_section_title
;
Structure prediction by ZEFSAII (Michael W. Deem and Ramdas Pophale) SiO2 
 PCOD9558216
Probable space group: P -4 B 2
;
_chemical_formula_sum "Si O2"
_cell_formula_units_Z 42
_cell_length_a 14.381183
_cell_length_b 14.381183
_cell_length_c 9.768993
_cell_angle_alpha 90.000000
_cell_angle_beta 90.000000
_cell_angle_gamma 90.000000
_cell_volume 2020.407741
_symmetry_space_group_name_H-M "P -4 B 2"
_symmetry_group_IT_number 117
_symmetry_cell_setting 'tetragonal'
loop_
_space_group_symop_operation_xyz
x,y,z
y,-x,-z
-x,-y,z
-y,x,-z
1/2+y,1/2+x,-z
1/2-y,1/2-x,-z
1/2-x,1/2+y,z
1/2+x,1/2-y,z
loop_
_atom_site_type_symbol
_atom_site_label
_atom_site_fract_x
_atom_site_fract_y
_atom_site_fract_z
Si Si1 0.000000 0.500000 0.000000
Si Si2 0.773588 0.726413 0.000000
Si Si3 0.269655 0.916600 0.445530
Si Si4 0.816046 0.921799 0.619605
Si Si5 0.000000 0.000000 0.500000
Si Si6 0.567631 0.694006 0.068844
Si Si7 0.000000 0.000000 0.000000
Si Si8 0.050701 0.312955 0.860047
O O1 0.089310 0.493256 0.097491
O O2 0.664528 0.708775 0.990411
O O3 0.811885 0.662698 0.122541
O O4 0.357084 0.857084 0.500000
O O5 0.181454 0.844447 0.434383
O O6 0.283183 0.960970 0.294837
O O7 0.249824 0.006955 0.538340
O O8 0.777078 0.917593 0.774144
O O9 0.914949 0.973330 0.597722
O O10 0.540561 0.586525 0.081585
O O11 0.491017 0.744431 0.975688
#
# Coordination Sequence:
#
# PCOD9558216 Si02
#       8
#     2   4   8   8   2   8   2   8
#     4  10  26  48  74  92 138 182 242 288 352 424
#     4  11  23  41  72  99 141 177 232 292 354 424
#     4  11  25  46  69 100 143 186 237 288 360 436
#     4  10  22  41  68 102 135 182 226 291 352 422
#     4   8  18  40  64  98 142 176 220 278 362 428
#     4  12  23  41  70 104 138 176 236 294 359 413
#     4  12  22  36  68 114 134 176 224 302 346 420
#     4  11  25  47  69 103 137 188 235 292 357 429
#
# _framework density 20.787883999999998
#
# number of rings (size 3 to 8) (size 9 to 14) (size 15 to 20)
#    0.000    1.143    3.810    1.143    5.333    4.571 
#    3.429    0.476    0.000    0.000    0.000    0.000 
#    0.000    0.000    0.000    0.000    0.000    0.000 
#
# Total GULP energy -234144.509717 kJ/mol
# GULP energy per Si atom -5574.869279 kJ/mol
# Density = 2.074057 g / cm^3
# Si number density = 20.787884 Si / 1000 Ang^3
#
#
#
# Elastic Constant Matrix: (Units=GPa)
#
#
# Indices 1 2 3 4 5 6 
#
# 1 104.5448 38.2271 37.2871 0.0000 0.0000 0.0000
# 2 38.2271 104.5456 37.2867 0.0000 0.0000 0.0000
# 3 37.2871 37.2867 89.6257 0.0000 0.0000 0.0000
# 4 0.0000 0.0000 0.0000 35.3306 0.0000 0.0000
# 5 0.0000 0.0000 0.0000 0.0000 35.3285 0.0000
# 6 0.0000 0.0000 0.0000 0.0000 0.0000 40.2735
#
#
#
# Elastic Compliance Matrix: (Units=1/GPa)
#
#
# Indices 1 2 3 4 5 6 
#
# 1 0.012014 -0.003065 -0.003723 0.000000 0.000000 0.000000
# 2 -0.003065 0.012014 -0.003723 0.000000 0.000000 0.000000
# 3 -0.003723 -0.003723 0.014255 0.000000 0.000000 0.000000
# 4 0.000000 0.000000 0.000000 0.028304 0.000000 0.000000
# 5 0.000000 0.000000 0.000000 0.000000 0.028306 0.000000
# 6 0.000000 0.000000 0.000000 0.000000 0.000000 0.024830
#
#
# Mechanical properties :
#
#
# Convention : Reuss Voigt Hill
#
# Bulk Modulus (GPa) = 57.93421 58.25754 58.09588
# Shear Modulus (GPa) = 34.13005 34.58084 34.35545
#
# Velocity S-wave (km/s) = 4.05634 4.08304 4.06971
# Velocity P-wave (km/s) = 7.06174 7.09323 7.07750
#
# Compressibility (1/GPa) = 0.01726096
#
# Stress axis : x y z
#
# Youngs Moduli (GPa) = 83.23712 83.23814 70.14979
#
# Poissons Ratio (x) = 0.25513 0.26117
# Poissons Ratio (y) = 0.25513 0.26116
# Poissons Ratio (z) = 0.30989 0.30989
#
# Static dielectric constant tensor:
#      x y z
#    x 1.753730 0.000000 0.000000 
#    y 0.000000 1.753730 0.000000 
#    z 0.000000 0.000000 1.776320 
# 
# From -- ./inp_files/1848.got.cif
#   From: 2010.05.17/outbox.cif.g08.bks.cpg/sg117_1_cif.got.tgz:1848.got - 2010.05.20 11:15:09.
