data_PCOD9558673
_publ_section_title
;
Structure prediction by ZEFSAII (Michael W. Deem and Ramdas Pophale) SiO2 
 PCOD9558673
Probable space group: P -4 N 2
;
_chemical_formula_sum "Si O2"
_cell_formula_units_Z 48
_cell_length_a 8.899558
_cell_length_b 8.899558
_cell_length_c 30.875414
_cell_angle_alpha 90.000000
_cell_angle_beta 90.000000
_cell_angle_gamma 90.000000
_cell_volume 2445.398634
_symmetry_space_group_name_H-M "P -4 N 2"
_symmetry_group_IT_number 118
_symmetry_cell_setting 'tetragonal'
loop_
_space_group_symop_operation_xyz
x,y,z
y,-x,-z
-x,-y,z
-y,x,-z
1/2+y,1/2+x,1/2-z
1/2-y,1/2-x,1/2-z
1/2-x,1/2+y,1/2+z
1/2+x,1/2-y,1/2+z
loop_
_atom_site_type_symbol
_atom_site_label
_atom_site_fract_x
_atom_site_fract_y
_atom_site_fract_z
Si Si1 0.109421 0.358258 0.201090
Si Si2 0.209248 0.873051 0.487585
Si Si3 0.071514 0.838565 0.133924
Si Si4 0.650103 0.087856 0.394555
Si Si5 0.135207 0.882138 0.631568
Si Si6 0.645848 0.099937 0.937313
O O1 0.165791 0.334210 0.250000
O O2 0.253512 0.395886 0.171782
O O3 0.000000 0.500000 0.201696
O O4 0.005572 0.235111 0.176604
O O5 0.253925 0.877480 0.437657
O O6 0.335987 0.794768 0.517215
O O7 0.046511 0.802558 0.496511
O O8 0.252663 0.853385 0.130665
O O9 0.005834 0.746550 0.093008
O O10 0.000000 0.000000 0.130106
O O11 0.500000 0.000000 0.408991
O O12 0.728542 0.957352 0.366770
O O13 0.248610 0.886172 0.590762
O O14 0.000000 0.000000 0.628604
O O15 0.500000 0.000000 0.945573
#
# Coordination Sequence:
#
# PCOD9558673 Si02
#       6
#     8   8   8   8   8   8
#     4  10  22  42  68  97 126 163 212 264 327 410
#     4  11  22  37  59  89 123 166 227 283 312 378
#     4  11  24  43  63  91 132 172 211 276 344 400
#     4  12  24  39  62  91 126 176 220 267 333 397
#     4  11  20  37  63  89 121 159 211 260 325 389
#     4  11  21  38  59  86 121 170 218 272 326 384
#
# _framework density 19.628703000000002
#
# number of rings (size 3 to 8) (size 9 to 14) (size 15 to 20)
#    0.000    1.000    1.667    8.500    0.000    0.667 
#    0.000    0.000    0.000    3.500    0.000    0.000 
#    0.000    0.000    0.000    0.000    0.000    0.000 
#
# Total GULP energy -267840.030582 kJ/mol
# GULP energy per Si atom -5580.000637 kJ/mol
# Density = 1.958403 g / cm^3
# Si number density = 19.628703 Si / 1000 Ang^3
#
#
#
# Elastic Constant Matrix: (Units=GPa)
#
#
# Indices 1 2 3 4 5 6 
#
# 1 92.7560 12.4000 17.6861 0.0000 0.0000 0.0000
# 2 12.4000 92.7561 17.6862 0.0000 0.0000 0.0000
# 3 17.6861 17.6862 65.8955 0.0000 0.0000 0.0000
# 4 0.0000 0.0000 0.0000 14.7733 0.0000 0.0000
# 5 0.0000 0.0000 0.0000 0.0000 14.7734 0.0000
# 6 0.0000 0.0000 0.0000 0.0000 0.0000 33.9316
#
#
#
# Elastic Compliance Matrix: (Units=1/GPa)
#
#
# Indices 1 2 3 4 5 6 
#
# 1 0.011449 -0.000996 -0.002806 0.000000 0.000000 0.000000
# 2 -0.000996 0.011449 -0.002806 0.000000 0.000000 0.000000
# 3 -0.002806 -0.002806 0.016682 0.000000 0.000000 0.000000
# 4 0.000000 0.000000 0.000000 0.067690 0.000000 0.000000
# 5 0.000000 0.000000 0.000000 0.000000 0.067689 0.000000
# 6 0.000000 0.000000 0.000000 0.000000 0.000000 0.029471
#
#
# Mechanical properties :
#
#
# Convention : Reuss Voigt Hill
#
# Bulk Modulus (GPa) = 37.92790 38.55024 38.23907
# Shear Modulus (GPa) = 22.08169 26.27135 24.17652
#
# Velocity S-wave (km/s) = 3.35769 3.66240 3.51335
# Velocity P-wave (km/s) = 5.86488 6.12916 5.99848
#
# Compressibility (1/GPa) = 0.02636582
#
# Stress axis : x y z
#
# Youngs Moduli (GPa) = 87.34363 87.34369 59.94624
#
# Poissons Ratio (x) = 0.08696 0.16819
# Poissons Ratio (y) = 0.08696 0.16819
# Poissons Ratio (z) = 0.24506 0.24506
#
# Static dielectric constant tensor:
#      x y z
#    x 1.864330 0.000000 0.000000 
#    y 0.000000 1.864330 0.000000 
#    z 0.000000 0.000000 1.713560 
# 
# From -- ./inp_files/6822.got.cif
#   From: 2010.05.17/outbox.cif.g08.bks.cpg/sg118_4_cif.got.tgz:6822.got - 2010.05.20 11:17:24.
