data_PCOD9558488
_publ_section_title
;
Structure prediction by ZEFSAII (Michael W. Deem and Ramdas Pophale) SiO2 
 PCOD9558488
Probable space group: P -4 N 2
;
_chemical_formula_sum "Si O2"
_cell_formula_units_Z 54
_cell_length_a 12.138871
_cell_length_b 12.138871
_cell_length_c 18.117925
_cell_angle_alpha 90.000000
_cell_angle_beta 90.000000
_cell_angle_gamma 90.000000
_cell_volume 2669.715912
_symmetry_space_group_name_H-M "P -4 N 2"
_symmetry_group_IT_number 118
_symmetry_cell_setting 'tetragonal'
loop_
_space_group_symop_operation_xyz
x,y,z
y,-x,-z
-x,-y,z
-y,x,-z
1/2+y,1/2+x,1/2-z
1/2-y,1/2-x,1/2-z
1/2-x,1/2+y,1/2+z
1/2+x,1/2-y,1/2+z
loop_
_atom_site_type_symbol
_atom_site_label
_atom_site_fract_x
_atom_site_fract_y
_atom_site_fract_z
Si Si1 0.425439 0.892315 0.997115
Si Si2 0.057987 0.888091 0.737397
Si Si3 0.000000 0.000000 0.117669
Si Si4 0.500000 0.500000 0.000000
Si Si5 0.402484 0.213609 0.891626
Si Si6 0.455623 0.690849 0.101394
Si Si7 0.257589 0.527398 0.422216
Si Si8 0.525431 0.205571 0.747790
O O1 0.485378 0.827090 0.930351
O O2 0.500000 0.000000 0.010916
O O3 0.306584 0.937898 0.971789
O O4 0.432954 0.807851 0.064145
O O5 0.024962 0.898461 0.824199
O O6 0.188041 0.901961 0.728471
O O7 0.008133 0.798314 0.682762
O O8 0.000000 0.000000 0.708047
O O9 0.975514 0.110833 0.072920
O O10 0.526934 0.607660 0.049999
O O11 0.372357 0.340014 0.896756
O O12 0.305006 0.143808 0.930324
O O13 0.426121 0.194924 0.805249
O O14 0.232499 0.503907 0.336072
O O15 0.596472 0.096472 0.750000
#
# Coordination Sequence:
#
# PCOD9558488 Si02
#       8
#     8   8   4   2   8   8   8   8
#     4  10  23  37  53  83 122 156 197 245 298 361
#     4   9  18  32  54  85 113 142 186 241 302 350
#     4   8  17  38  58  82 116 148 197 258 292 366
#     4  12  18  28  56  84 100 152 178 248 296 322
#     4  11  20  32  54  88 111 153 192 250 305 343
#     4  12  20  35  56  82 121 147 202 243 292 366
#     4  10  20  35  55  81 117 149 199 239 303 362
#     4  11  19  31  56  87 119 145 180 248 313 356
#
# _framework density 20.226872
#
# number of rings (size 3 to 8) (size 9 to 14) (size 15 to 20)
#    0.444    1.185    5.185    0.444    0.000    0.593 
#    0.000    2.963    3.259    0.000    0.000    0.000 
#    0.000    0.000    0.000    0.000    0.000    0.000 
#
# Total GULP energy -301012.118921 kJ/mol
# GULP energy per Si atom -5574.298499 kJ/mol
# Density = 2.018083 g / cm^3
# Si number density = 20.226872 Si / 1000 Ang^3
#
#
#
# Elastic Constant Matrix: (Units=GPa)
#
#
# Indices 1 2 3 4 5 6 
#
# 1 80.3805 24.7102 18.9994 0.0000 0.0000 0.0000
# 2 24.7102 80.3805 18.9994 0.0000 0.0000 0.0000
# 3 18.9994 18.9994 45.8727 0.0000 0.0000 0.0000
# 4 0.0000 0.0000 0.0000 14.9139 0.0000 0.0000
# 5 0.0000 0.0000 0.0000 0.0000 14.9139 0.0000
# 6 0.0000 0.0000 0.0000 0.0000 0.0000 7.2209
#
#
#
# Elastic Compliance Matrix: (Units=1/GPa)
#
#
# Indices 1 2 3 4 5 6 
#
# 1 0.014577 -0.003386 -0.004635 0.000000 0.000000 0.000000
# 2 -0.003386 0.014577 -0.004635 0.000000 0.000000 0.000000
# 3 -0.004635 -0.004635 0.025639 0.000000 0.000000 0.000000
# 4 0.000000 0.000000 0.000000 0.067052 0.000000 0.000000
# 5 0.000000 0.000000 0.000000 0.000000 0.067052 0.000000
# 6 0.000000 0.000000 0.000000 0.000000 0.000000 0.138486
#
#
# Mechanical properties :
#
#
# Convention : Reuss Voigt Hill
#
# Bulk Modulus (GPa) = 33.91997 36.89463 35.40730
# Shear Modulus (GPa) = 13.79223 17.00472 15.39848
#
# Velocity S-wave (km/s) = 2.61411 2.90263 2.76214
# Velocity P-wave (km/s) = 5.09093 5.43265 5.26456
#
# Compressibility (1/GPa) = 0.02948115
#
# Stress axis : x y z
#
# Youngs Moduli (GPa) = 68.60000 68.60000 39.00291
#
# Poissons Ratio (x) = 0.23225 0.18079
# Poissons Ratio (y) = 0.23225 0.18079
# Poissons Ratio (z) = 0.31798 0.31798
#
# Static dielectric constant tensor:
#      x y z
#    x 1.747910 0.000000 0.000000 
#    y 0.000000 1.747910 0.000000 
#    z 0.000000 0.000000 1.789860 
# 
# From -- ./inp_files/5744.got.cif
#   From: 2010.05.17/outbox.cif.g08.bks.cpg/sg118_3_cif.got.tgz:5744.got - 2010.05.20 11:17:24.
