data_PCOD9558608
_publ_section_title
;
Structure prediction by ZEFSAII (Michael W. Deem and Ramdas Pophale) SiO2 
 PCOD9558608
Probable space group: P -4 N 2
;
_chemical_formula_sum "Si O2"
_cell_formula_units_Z 32
_cell_length_a 8.283104
_cell_length_b 8.283104
_cell_length_c 21.791031
_cell_angle_alpha 90.000000
_cell_angle_beta 90.000000
_cell_angle_gamma 90.000000
_cell_volume 1495.078537
_symmetry_space_group_name_H-M "P -4 N 2"
_symmetry_group_IT_number 118
_symmetry_cell_setting 'tetragonal'
loop_
_space_group_symop_operation_xyz
x,y,z
y,-x,-z
-x,-y,z
-y,x,-z
1/2+y,1/2+x,1/2-z
1/2-y,1/2-x,1/2-z
1/2-x,1/2+y,1/2+z
1/2+x,1/2-y,1/2+z
loop_
_atom_site_type_symbol
_atom_site_label
_atom_site_fract_x
_atom_site_fract_y
_atom_site_fract_z
Si Si1 0.799332 0.277536 0.452872
Si Si2 0.190369 0.045573 0.074604
Si Si3 0.274128 0.279988 0.180394
Si Si4 0.500000 0.000000 0.632591
Si Si5 0.500000 0.500000 0.895947
O O1 0.625493 0.220454 0.429060
O O2 0.762071 0.338997 0.521388
O O3 0.863692 0.426938 0.412256
O O4 0.929909 0.141065 0.438887
O O5 0.216893 0.132896 0.138260
O O6 0.000000 0.000000 0.065659
O O7 0.278630 0.221371 0.250000
O O8 0.430709 0.360356 0.148753
O O9 0.139455 0.420288 0.172731
#
# Coordination Sequence:
#
# PCOD9558608 Si02
#       5
#     8   8   8   4   4
#     4  11  22  44  70 105 135 178 237 294 372 413
#     4  12  22  42  74 102 130 186 235 288 349 438
#     4  11  25  43  67 101 145 192 241 286 352 427
#     4  10  21  40  70 102 139 184 232 296 350 428
#     4  10  28  45  68 104 144 187 228 318 358 415
#
# _framework density 21.403555999999998
#
# number of rings (size 3 to 8) (size 9 to 14) (size 15 to 20)
#    0.000    1.000    5.000    0.375    1.750    8.000 
#    0.000    2.500    0.000    0.000    0.000    0.000 
#    0.000    0.000    0.000    0.000    0.000    0.000 
#
# Total GULP energy -178958.944196 kJ/mol
# GULP energy per Si atom -5592.467006 kJ/mol
# Density = 2.135484 g / cm^3
# Si number density = 21.403556 Si / 1000 Ang^3
#
#
#
# Elastic Constant Matrix: (Units=GPa)
#
#
# Indices 1 2 3 4 5 6 
#
# 1 75.5157 12.3456 44.9277 0.0000 0.0000 0.0000
# 2 12.3456 75.5158 44.9278 0.0000 0.0000 0.0000
# 3 44.9277 44.9278 173.6225 0.0000 0.0000 0.0000
# 4 0.0000 0.0000 0.0000 19.9445 0.0000 0.0000
# 5 0.0000 0.0000 0.0000 0.0000 19.9445 0.0000
# 6 0.0000 0.0000 0.0000 0.0000 0.0000 29.7015
#
#
#
# Elastic Compliance Matrix: (Units=1/GPa)
#
#
# Indices 1 2 3 4 5 6 
#
# 1 0.015654 -0.000176 -0.004005 0.000000 0.000000 0.000000
# 2 -0.000176 0.015654 -0.004005 0.000000 0.000000 0.000000
# 3 -0.004005 -0.004005 0.007832 0.000000 0.000000 0.000000
# 4 0.000000 0.000000 0.000000 0.050139 0.000000 0.000000
# 5 0.000000 0.000000 0.000000 0.000000 0.050139 0.000000
# 6 0.000000 0.000000 0.000000 0.000000 0.000000 0.033668
#
#
# Mechanical properties :
#
#
# Convention : Reuss Voigt Hill
#
# Bulk Modulus (GPa) = 43.92291 58.78403 51.35347
# Shear Modulus (GPa) = 25.37443 28.74831 27.06137
#
# Velocity S-wave (km/s) = 3.44688 3.66889 3.55961
# Velocity P-wave (km/s) = 6.03384 6.74328 6.39840
#
# Compressibility (1/GPa) = 0.02276716
#
# Stress axis : x y z
#
# Youngs Moduli (GPa) = 63.88185 63.88184 127.67514
#
# Poissons Ratio (x) = 0.01127 0.51135
# Poissons Ratio (y) = 0.01127 0.51135
# Poissons Ratio (z) = 0.25585 0.25585
#
# Static dielectric constant tensor:
#      x y z
#    x 1.822970 0.000000 0.000000 
#    y 0.000000 1.822970 0.000000 
#    z 0.000000 0.000000 1.733410 
# 
# From -- ./inp_files/5915.got.cif
#   From: 2010.05.17/outbox.cif.g08.bks.cpg/sg118_3_cif.got.tgz:5915.got - 2010.05.20 11:17:24.
