data_PCOD9558302
_publ_section_title
;
Structure prediction by ZEFSAII (Michael W. Deem and Ramdas Pophale) SiO2 
 PCOD9558302
Probable space group: P -4 B 2
;
_chemical_formula_sum "Si O2"
_cell_formula_units_Z 36
_cell_length_a 10.101212
_cell_length_b 10.101212
_cell_length_c 18.033279
_cell_angle_alpha 90.000000
_cell_angle_beta 90.000000
_cell_angle_gamma 90.000000
_cell_volume 1840.016315
_symmetry_space_group_name_H-M "P -4 B 2"
_symmetry_group_IT_number 117
_symmetry_cell_setting 'tetragonal'
loop_
_space_group_symop_operation_xyz
x,y,z
y,-x,-z
-x,-y,z
-y,x,-z
1/2+y,1/2+x,-z
1/2-y,1/2-x,-z
1/2-x,1/2+y,z
1/2+x,1/2-y,z
loop_
_atom_site_type_symbol
_atom_site_label
_atom_site_fract_x
_atom_site_fract_y
_atom_site_fract_z
Si Si1 0.001584 0.162357 0.406943
Si Si2 0.467738 0.654562 0.232665
Si Si3 0.747043 0.752958 0.500000
Si Si4 0.288908 0.230151 0.146527
Si Si5 0.027582 0.360765 0.922312
O O1 0.010310 0.184707 0.319110
O O2 0.876062 0.233863 0.444163
O O3 0.126139 0.228071 0.447689
O O4 0.000000 0.000000 0.417346
O O5 0.500000 0.500000 0.221290
O O6 0.570184 0.738168 0.183166
O O7 0.318214 0.682069 0.206895
O O8 0.233339 0.366883 0.114910
O O9 0.294976 0.116996 0.083022
O O10 0.000000 0.500000 0.881245
O O11 0.092505 0.407496 0.000000
#
# Coordination Sequence:
#
# PCOD9558302 Si02
#       5
#     8   8   4   8   8
#     4  11  24  43  65  97 139 173 230 282 339 403
#     4  11  24  42  69 100 132 182 224 283 341 406
#     4  12  20  46  64  94 134 180 214 288 334 402
#     4  12  23  46  68 100 135 178 226 278 343 398
#     4  11  26  43  68  99 137 171 224 284 331 406
#
# _framework density 19.565042999999999
#
# number of rings (size 3 to 8) (size 9 to 14) (size 15 to 20)
#    0.000    0.667    6.667    1.333    3.111    0.444 
#    0.000    2.222    0.000    0.000    0.000    0.000 
#    0.000    0.000    0.000    0.000    0.000    0.000 
#
# Total GULP energy -200774.103293 kJ/mol
# GULP energy per Si atom -5577.058425 kJ/mol
# Density = 1.952051 g / cm^3
# Si number density = 19.565043 Si / 1000 Ang^3
#
#
#
# Elastic Constant Matrix: (Units=GPa)
#
#
# Indices 1 2 3 4 5 6 
#
# 1 113.4491 44.0370 37.3744 0.0000 0.0000 0.0000
# 2 44.0370 113.4572 37.3657 0.0000 0.0000 0.0000
# 3 37.3744 37.3657 103.5131 0.0000 0.0000 0.0000
# 4 0.0000 0.0000 0.0000 32.0072 0.0000 0.0000
# 5 0.0000 0.0000 0.0000 0.0000 32.0077 0.0000
# 6 0.0000 0.0000 0.0000 0.0000 0.0000 38.6984
#
#
#
# Elastic Compliance Matrix: (Units=1/GPa)
#
#
# Indices 1 2 3 4 5 6 
#
# 1 0.011035 -0.003372 -0.002767 0.000000 0.000000 0.000000
# 2 -0.003372 0.011033 -0.002765 0.000000 0.000000 0.000000
# 3 -0.002767 -0.002765 0.011658 0.000000 0.000000 0.000000
# 4 0.000000 0.000000 0.000000 0.031243 0.000000 0.000000
# 5 0.000000 0.000000 0.000000 0.000000 0.031243 0.000000
# 6 0.000000 0.000000 0.000000 0.000000 0.000000 0.025841
#
#
# Mechanical properties :
#
#
# Convention : Reuss Voigt Hill
#
# Bulk Modulus (GPa) = 62.82315 63.10816 62.96566
# Shear Modulus (GPa) = 34.44309 34.65213 34.54761
#
# Velocity S-wave (km/s) = 4.20031 4.21304 4.20668
# Velocity P-wave (km/s) = 7.46345 7.48277 7.47312
#
# Compressibility (1/GPa) = 0.01591770
#
# Stress axis : x y z
#
# Youngs Moduli (GPa) = 90.62135 90.63444 85.77837
#
# Poissons Ratio (x) = 0.30560 0.23736
# Poissons Ratio (y) = 0.30555 0.23721
# Poissons Ratio (z) = 0.25076 0.25064
#
# Static dielectric constant tensor:
#      x y z
#    x 1.689870 0.000000 0.000000 
#    y 0.000000 1.689870 0.000000 
#    z 0.000000 0.000000 2.193880 
# 
# From -- ./inp_files/3420.got.cif
#   From: 2010.05.17/outbox.cif.g08.bks.cpg/sg117_2_cif.got.tgz:3420.got - 2010.05.20 11:15:09.
