data_PCOD9558055
_publ_section_title
;
Structure prediction by ZEFSAII (Michael W. Deem and Ramdas Pophale) SiO2 
 PCOD9558055
Probable space group: P -4 B 2
;
_chemical_formula_sum "Si O2"
_cell_formula_units_Z 64
_cell_length_a 18.808859
_cell_length_b 18.808859
_cell_length_c 9.447582
_cell_angle_alpha 90.000000
_cell_angle_beta 90.000000
_cell_angle_gamma 90.000000
_cell_volume 3342.301098
_symmetry_space_group_name_H-M "P -4 B 2"
_symmetry_group_IT_number 117
_symmetry_cell_setting 'tetragonal'
loop_
_space_group_symop_operation_xyz
x,y,z
y,-x,-z
-x,-y,z
-y,x,-z
1/2+y,1/2+x,-z
1/2-y,1/2-x,-z
1/2-x,1/2+y,z
1/2+x,1/2-y,z
loop_
_atom_site_type_symbol
_atom_site_label
_atom_site_fract_x
_atom_site_fract_y
_atom_site_fract_z
Si Si1 0.018965 0.134319 0.188300
Si Si2 0.377768 0.796970 0.786992
Si Si3 0.291076 0.252941 0.349799
Si Si4 0.694537 0.541558 0.369023
Si Si5 0.393173 0.764819 0.107705
Si Si6 0.658513 0.413865 0.564830
Si Si7 0.037066 0.853503 0.883247
Si Si8 0.247049 0.164722 0.109533
O O1 0.047712 0.215262 0.177059
O O2 0.086414 0.082847 0.195487
O O3 0.965738 0.126491 0.316897
O O4 0.981671 0.120111 0.038827
O O5 0.315867 0.739471 0.749277
O O6 0.433587 0.775066 0.665110
O O7 0.332476 0.869616 0.798538
O O8 0.408121 0.787273 0.945750
O O9 0.251152 0.248849 0.500000
O O10 0.372036 0.273171 0.377116
O O11 0.276954 0.181142 0.265160
O O12 0.682707 0.465332 0.439702
O O13 0.648802 0.599919 0.456637
O O14 0.662371 0.531825 0.211138
O O15 0.323379 0.714169 0.093006
O O16 0.085474 0.782987 0.902044
O O17 0.305633 0.194368 0.000000
#
# Coordination Sequence:
#
# PCOD9558055 Si02
#       8
#     8   8   8   8   8   8   8   8
#     4  11  22  33  50  76 107 145 185 224 252 310
#     4   9  17  32  54  72 100 128 176 226 281 306
#     4  10  19  33  53  75  98 134 176 227 279 315
#     4  11  22  37  49  72 106 153 183 218 256 315
#     4   9  16  32  53  76  96 130 169 233 281 309
#     4  11  24  36  51  71 112 146 185 219 257 307
#     4  11  22  32  51  74 104 144 192 213 260 315
#     4  10  17  31  53  72  98 130 175 230 283 311
#
# _framework density 19.148485000000001
#
# number of rings (size 3 to 8) (size 9 to 14) (size 15 to 20)
#    0.000    1.750    3.750    3.000    3.500    8.000 
#    0.000    0.000    0.000    0.000    0.000    0.000 
#    0.000   15.000    0.000    0.125    0.000    0.000 
#
# Total GULP energy -356712.470533 kJ/mol
# GULP energy per Si atom -5573.632352 kJ/mol
# Density = 1.910490 g / cm^3
# Si number density = 19.148485 Si / 1000 Ang^3
#
#
#
# Elastic Constant Matrix: (Units=GPa)
#
#
# Indices 1 2 3 4 5 6 
#
# 1 31.5008 37.5216 7.5859 0.0000 0.0000 0.0000
# 2 37.5216 31.5007 7.5850 0.0000 0.0000 0.0000
# 3 7.5859 7.5850 55.3263 0.0000 0.0000 0.0000
# 4 0.0000 0.0000 0.0000 26.2491 0.0000 0.0000
# 5 0.0000 0.0000 0.0000 0.0000 26.2492 0.0000
# 6 0.0000 0.0000 0.0000 0.0000 0.0000 27.0142
#
#
#
# Elastic Compliance Matrix: (Units=1/GPa)
#
#
# Indices 1 2 3 4 5 6 
#
# 1 -0.075576 0.090514 -0.002047 0.000000 0.000000 0.000000
# 2 0.090514 -0.075575 -0.002049 0.000000 0.000000 0.000000
# 3 -0.002047 -0.002049 0.018636 0.000000 0.000000 0.000000
# 4 0.000000 0.000000 0.000000 0.038097 0.000000 0.000000
# 5 0.000000 0.000000 0.000000 0.000000 0.038096 0.000000
# 6 0.000000 0.000000 0.000000 0.000000 0.000000 0.037018
#
#
# Mechanical properties :
#
#
# Convention : Reuss Voigt Hill
#
# Bulk Modulus (GPa) = 24.80141 24.85697 24.82919
# Shear Modulus (GPa) = -27.97998 20.27820 -3.85089
#
# Velocity S-wave (km/s) = -3.82673 3.25775 -1.41966
# Velocity P-wave (km/s) = 2.55829 5.21152 3.21054
#
# Compressibility (1/GPa) = 0.04032030
#
# Stress axis : x y z
#
# Youngs Moduli (GPa) = -13.23177 -13.23185 53.65901
#
# Poissons Ratio (x) = 1.19766 0.10982
# Poissons Ratio (y) = 1.19766 0.10997
# Poissons Ratio (z) = -0.02708 -0.02712
#
# Static dielectric constant tensor:
#      x y z
#    x 1.690700 0.000000 0.000000 
#    y 0.000000 1.690700 0.000000 
#    z 0.000000 0.000000 1.722710 
# 
# From -- ./inp_files/2177.got.cif
#   From: 2010.05.17/outbox.cif.g08.bks.cpg/sg117_2_cif.got.tgz:2177.got - 2010.05.20 11:15:09.
