data_PCOD9558571
_publ_section_title
;
Structure prediction by ZEFSAII (Michael W. Deem and Ramdas Pophale) SiO2 
 PCOD9558571
Probable space group: P -4 N 2
;
_chemical_formula_sum "Si O2"
_cell_formula_units_Z 56
_cell_length_a 15.316844
_cell_length_b 15.316844
_cell_length_c 10.253057
_cell_angle_alpha 90.000000
_cell_angle_beta 90.000000
_cell_angle_gamma 90.000000
_cell_volume 2405.425718
_symmetry_space_group_name_H-M "P -4 N 2"
_symmetry_group_IT_number 118
_symmetry_cell_setting 'tetragonal'
loop_
_space_group_symop_operation_xyz
x,y,z
y,-x,-z
-x,-y,z
-y,x,-z
1/2+y,1/2+x,1/2-z
1/2-y,1/2-x,1/2-z
1/2-x,1/2+y,1/2+z
1/2+x,1/2-y,1/2+z
loop_
_atom_site_type_symbol
_atom_site_label
_atom_site_fract_x
_atom_site_fract_y
_atom_site_fract_z
Si Si1 0.564983 0.627017 0.238637
Si Si2 0.943664 0.131547 0.266833
Si Si3 0.058987 0.687443 0.718034
Si Si4 0.696984 0.364189 0.485271
Si Si5 0.390484 0.810775 0.383006
Si Si6 0.365909 0.210318 0.882147
Si Si7 0.517849 0.098795 0.975845
O O1 0.620138 0.544153 0.190722
O O2 0.465617 0.594095 0.250819
O O3 0.562245 0.716356 0.156507
O O4 0.603308 0.658817 0.377866
O O5 0.937033 0.180497 0.126800
O O6 0.884555 0.187290 0.365764
O O7 0.153973 0.653973 0.750000
O O8 0.991186 0.691925 0.837670
O O9 0.020562 0.615300 0.620763
O O10 0.642880 0.281220 0.432702
O O11 0.796883 0.329184 0.484885
O O12 0.339161 0.839161 0.250000
O O13 0.381118 0.881093 0.498901
O O14 0.319638 0.180363 0.750000
O O15 0.459925 0.163935 0.891118
O O16 0.500000 0.000000 0.934728
#
# Coordination Sequence:
#
# PCOD9558571 Si02
#       7
#     8   8   8   8   8   8   8
#     4  11  23  39  68  98 136 174 232 289 342 410
#     4  10  22  42  65  96 135 181 225 284 345 413
#     4  11  21  39  63 103 138 169 224 291 344 407
#     4  11  21  39  67 100 128 173 229 290 345 407
#     4  10  21  36  64  96 134 180 220 282 352 417
#     4  10  24  44  67  92 138 183 229 278 352 429
#     4  11  23  40  66  95 131 180 226 275 343 417
#
# _framework density 23.280702999999999
#
# number of rings (size 3 to 8) (size 9 to 14) (size 15 to 20)
#    0.000    1.429    2.857    3.000    2.000    2.571 
#    5.143    0.000    0.000    1.714    0.000    0.000 
#    0.000    0.000    0.000    0.000    0.000    0.000 
#
# Total GULP energy -312941.814042 kJ/mol
# GULP energy per Si atom -5588.246679 kJ/mol
# Density = 2.322772 g / cm^3
# Si number density = 23.280703 Si / 1000 Ang^3
#
#
#
# Elastic Constant Matrix: (Units=GPa)
#
#
# Indices 1 2 3 4 5 6 
#
# 1 129.1614 44.2139 11.7916 0.0000 0.0000 0.0000
# 2 44.2139 129.1612 11.7916 0.0000 0.0000 0.0000
# 3 11.7916 11.7916 43.1902 0.0000 0.0000 0.0000
# 4 0.0000 0.0000 0.0000 21.0135 0.0000 0.0000
# 5 0.0000 0.0000 0.0000 0.0000 21.0134 0.0000
# 6 0.0000 0.0000 0.0000 0.0000 0.0000 42.2006
#
#
#
# Elastic Compliance Matrix: (Units=1/GPa)
#
#
# Indices 1 2 3 4 5 6 
#
# 1 0.008881 -0.002891 -0.001635 0.000000 0.000000 0.000000
# 2 -0.002891 0.008881 -0.001635 0.000000 0.000000 0.000000
# 3 -0.001635 -0.001635 0.024046 0.000000 0.000000 0.000000
# 4 0.000000 0.000000 0.000000 0.047588 0.000000 0.000000
# 5 0.000000 0.000000 0.000000 0.000000 0.047589 0.000000
# 6 0.000000 0.000000 0.000000 0.000000 0.000000 0.023696
#
#
# Mechanical properties :
#
#
# Convention : Reuss Voigt Hill
#
# Bulk Modulus (GPa) = 33.91528 48.56743 41.24136
# Shear Modulus (GPa) = 27.34721 32.42655 29.88688
#
# Velocity S-wave (km/s) = 3.43107 3.73614 3.58685
# Velocity P-wave (km/s) = 5.50417 6.28638 5.90824
#
# Compressibility (1/GPa) = 0.02948523
#
# Stress axis : x y z
#
# Youngs Moduli (GPa) = 112.59812 112.59797 41.58626
#
# Poissons Ratio (x) = 0.32550 0.06801
# Poissons Ratio (y) = 0.32550 0.06801
# Poissons Ratio (z) = 0.18415 0.18415
#
# Static dielectric constant tensor:
#      x y z
#    x 1.895320 0.000000 0.000000 
#    y 0.000000 1.895330 0.000000 
#    z 0.000000 0.000000 1.907360 
# 
# From -- ./inp_files/3441.got.cif
#   From: 2010.05.17/outbox.cif.g08.bks.cpg/sg118_2_cif.got.tgz:3441.got - 2010.05.20 11:17:24.
