data_PCOD9558469
_publ_section_title
;
Structure prediction by ZEFSAII (Michael W. Deem and Ramdas Pophale) SiO2 
 PCOD9558469
Probable space group: P -4 N 2
;
_chemical_formula_sum "Si O2"
_cell_formula_units_Z 18
_cell_length_a 7.223192
_cell_length_b 7.223192
_cell_length_c 13.060847
_cell_angle_alpha 90.000000
_cell_angle_beta 90.000000
_cell_angle_gamma 90.000000
_cell_volume 681.443197
_symmetry_space_group_name_H-M "P -4 N 2"
_symmetry_group_IT_number 118
_symmetry_cell_setting 'tetragonal'
loop_
_space_group_symop_operation_xyz
x,y,z
y,-x,-z
-x,-y,z
-y,x,-z
1/2+y,1/2+x,1/2-z
1/2-y,1/2-x,1/2-z
1/2-x,1/2+y,1/2+z
1/2+x,1/2-y,1/2+z
loop_
_atom_site_type_symbol
_atom_site_label
_atom_site_fract_x
_atom_site_fract_y
_atom_site_fract_z
Si Si1 0.323165 0.823165 0.750000
Si Si2 0.000000 0.000000 0.376833
Si Si3 0.500000 0.500000 0.500000
Si Si4 0.733832 0.296801 0.362426
O O1 0.363838 0.634996 0.810950
O O2 0.497878 0.811386 0.669111
O O3 0.130669 0.840249 0.422931
O O4 0.552725 0.330878 0.427711
O O5 0.710386 0.210386 0.250000
#
# Coordination Sequence:
#
# PCOD9558469 Si02
#       4
#     4   4   2   8
#     4  10  21  44  75 110 159 206 257 340 403 458
#     4  10  19  40  75 108 150 204 254 320 401 466
#     4  12  26  48  80 118 162 216 268 326 414 490
#     4  10  21  44  77 110 154 206 262 332 396 468
#
# _framework density 26.414528000000001
#
# number of rings (size 3 to 8) (size 9 to 14) (size 15 to 20)
#    0.000    1.778    0.000   11.333    0.000    0.000 
#    0.000   47.778    0.000   10.667    0.000    0.000 
#    0.000    0.000    0.000    0.000    0.000    0.000 
#
# Total GULP energy -100224.808337 kJ/mol
# GULP energy per Si atom -5568.044908 kJ/mol
# Density = 2.635441 g / cm^3
# Si number density = 26.414528 Si / 1000 Ang^3
#
#
#
# Elastic Constant Matrix: (Units=GPa)
#
#
# Indices 1 2 3 4 5 6 
#
# 1 134.8385 18.0374 21.6829 0.0000 0.0000 0.0000
# 2 18.0374 134.8385 21.6829 0.0000 0.0000 0.0000
# 3 21.6829 21.6829 106.5622 0.0000 0.0000 0.0000
# 4 0.0000 0.0000 0.0000 25.5479 0.0000 0.0000
# 5 0.0000 0.0000 0.0000 0.0000 25.5479 0.0000
# 6 0.0000 0.0000 0.0000 0.0000 0.0000 56.4801
#
#
#
# Elastic Compliance Matrix: (Units=1/GPa)
#
#
# Indices 1 2 3 4 5 6 
#
# 1 0.007752 -0.000810 -0.001413 0.000000 0.000000 0.000000
# 2 -0.000810 0.007752 -0.001413 0.000000 0.000000 0.000000
# 3 -0.001413 -0.001413 0.009959 0.000000 0.000000 0.000000
# 4 0.000000 0.000000 0.000000 0.039142 0.000000 0.000000
# 5 0.000000 0.000000 0.000000 0.000000 0.039142 0.000000
# 6 0.000000 0.000000 0.000000 0.000000 0.000000 0.017705
#
#
# Mechanical properties :
#
#
# Convention : Reuss Voigt Hill
#
# Bulk Modulus (GPa) = 54.96676 55.44951 55.20813
# Shear Modulus (GPa) = 37.09583 42.50426 39.80004
#
# Velocity S-wave (km/s) = 3.75156 4.01574 3.88590
# Velocity P-wave (km/s) = 6.29445 6.52221 6.40934
#
# Compressibility (1/GPa) = 0.01819281
#
# Stress axis : x y z
#
# Youngs Moduli (GPa) = 129.00316 129.00316 100.41147
#
# Poissons Ratio (x) = 0.10447 0.14183
# Poissons Ratio (y) = 0.10447 0.14183
# Poissons Ratio (z) = 0.18222 0.18222
#
# Static dielectric constant tensor:
#      x y z
#    x 2.130940 0.000000 0.000000 
#    y 0.000000 2.130940 0.000000 
#    z 0.000000 0.000000 2.268200 
# 
# From -- ./inp_files/3588.got.cif
#   From: 2010.05.17/outbox.cif.g08.bks.cpg/sg118_2_cif.got.tgz:3588.got - 2010.05.20 11:17:24.
