data_PCOD9558766
_publ_section_title
;
Structure prediction by ZEFSAII (Michael W. Deem and Ramdas Pophale) SiO2 
 PCOD9558766
Probable space group: P -4 N 2
;
_chemical_formula_sum "Si O2"
_cell_formula_units_Z 64
_cell_length_a 12.023074
_cell_length_b 12.023074
_cell_length_c 23.308229
_cell_angle_alpha 90.000000
_cell_angle_beta 90.000000
_cell_angle_gamma 90.000000
_cell_volume 3369.304923
_symmetry_space_group_name_H-M "P -4 N 2"
_symmetry_group_IT_number 118
_symmetry_cell_setting 'tetragonal'
loop_
_space_group_symop_operation_xyz
x,y,z
y,-x,-z
-x,-y,z
-y,x,-z
1/2+y,1/2+x,1/2-z
1/2-y,1/2-x,1/2-z
1/2-x,1/2+y,1/2+z
1/2+x,1/2-y,1/2+z
loop_
_atom_site_type_symbol
_atom_site_label
_atom_site_fract_x
_atom_site_fract_y
_atom_site_fract_z
Si Si1 0.521609 0.378020 0.835744
Si Si2 0.045100 0.627988 0.190081
Si Si3 0.435255 0.329792 0.007653
Si Si4 0.074936 0.691826 0.804169
Si Si5 0.568451 0.754420 0.133704
Si Si6 0.686381 0.165534 0.313764
Si Si7 0.880349 0.045933 0.795254
Si Si8 0.845969 0.276696 0.397580
O O1 0.500000 0.500000 0.861525
O O2 0.651730 0.358305 0.843331
O O3 0.496416 0.383322 0.768880
O O4 0.441946 0.293499 0.865922
O O5 0.117862 0.617862 0.250000
O O6 0.102608 0.636699 0.127840
O O7 0.000000 0.500000 0.189228
O O8 0.979144 0.748065 0.190801
O O9 0.458444 0.271627 0.068131
O O10 0.366949 0.444460 0.016731
O O11 0.366116 0.253046 0.963574
O O12 0.126389 0.626389 0.750000
O O13 0.136542 0.640652 0.858857
O O14 0.101143 0.821598 0.796809
O O15 0.946075 0.665470 0.811256
O O16 0.457006 0.765021 0.172320
O O17 0.712196 0.212196 0.250000
O O18 0.732554 0.237201 0.366633
O O19 0.000000 0.000000 0.822211
#
# Coordination Sequence:
#
# PCOD9558766 Si02
#       8
#     8   8   8   8   8   8   8   8
#     4  11  19  33  56  91 124 163 209 258 325 402
#     4  11  25  39  61  94 132 171 225 293 347 414
#     4  11  22  39  64  97 129 170 227 279 338 413
#     4  12  25  39  63  93 135 177 221 274 351 430
#     4  12  23  38  61  95 132 172 215 279 340 411
#     4  12  23  38  61 100 137 173 212 271 350 428
#     4  11  24  41  61  93 129 178 225 270 343 437
#     4  12  23  39  65  91 132 174 217 280 347 407
#
# _framework density 18.995014999999999
#
# number of rings (size 3 to 8) (size 9 to 14) (size 15 to 20)
#    0.000    0.500    7.500    1.500    5.250    0.000 
#    0.000    1.250    2.750    0.000    0.000    0.000 
#    0.000    0.000    0.000    0.000    0.000    0.000 
#
# Total GULP energy -356335.418247 kJ/mol
# GULP energy per Si atom -5567.740910 kJ/mol
# Density = 1.895178 g / cm^3
# Si number density = 18.995015 Si / 1000 Ang^3
#
#
#
# Elastic Constant Matrix: (Units=GPa)
#
#
# Indices 1 2 3 4 5 6 
#
# 1 103.0043 44.6312 28.5188 0.0000 0.0000 0.0000
# 2 44.6312 103.0043 28.5188 0.0000 0.0000 0.0000
# 3 28.5188 28.5188 91.2539 0.0000 0.0000 0.0000
# 4 0.0000 0.0000 0.0000 27.8629 0.0000 0.0000
# 5 0.0000 0.0000 0.0000 0.0000 27.8629 0.0000
# 6 0.0000 0.0000 0.0000 0.0000 0.0000 34.6470
#
#
#
# Elastic Compliance Matrix: (Units=1/GPa)
#
#
# Indices 1 2 3 4 5 6 
#
# 1 0.012417 -0.004714 -0.002408 0.000000 0.000000 0.000000
# 2 -0.004714 0.012417 -0.002408 0.000000 0.000000 0.000000
# 3 -0.002408 -0.002408 0.012463 0.000000 0.000000 0.000000
# 4 0.000000 0.000000 0.000000 0.035890 0.000000 0.000000
# 5 0.000000 0.000000 0.000000 0.000000 0.035890 0.000000
# 6 0.000000 0.000000 0.000000 0.000000 0.000000 0.028863
#
#
# Mechanical properties :
#
#
# Convention : Reuss Voigt Hill
#
# Bulk Modulus (GPa) = 54.82380 55.62225 55.22302
# Shear Modulus (GPa) = 30.66011 31.11414 30.88712
#
# Velocity S-wave (km/s) = 4.02196 4.05163 4.03682
# Velocity P-wave (km/s) = 7.10585 7.15778 7.13186
#
# Compressibility (1/GPa) = 0.01824025
#
# Stress axis : x y z
#
# Youngs Moduli (GPa) = 80.53241 80.53241 80.23596
#
# Poissons Ratio (x) = 0.37961 0.19317
# Poissons Ratio (y) = 0.37961 0.19317
# Poissons Ratio (z) = 0.19388 0.19388
#
# Static dielectric constant tensor:
#      x y z
#    x 1.761260 0.000000 0.000000 
#    y 0.000000 1.761260 0.000000 
#    z 0.000000 0.000000 1.681690 
# 
# From -- ./inp_files/6249.got.cif
#   From: 2010.05.17/outbox.cif.g08.bks.cpg/sg118_4_cif.got.tgz:6249.got - 2010.05.20 11:17:24.
