data_PCOD9558871
_publ_section_title
;
Structure prediction by ZEFSAII (Michael W. Deem and Ramdas Pophale) SiO2 
 PCOD9558871
Probable space group: P -4 N 2
;
_chemical_formula_sum "Si O2"
_cell_formula_units_Z 42
_cell_length_a 10.808723
_cell_length_b 10.808723
_cell_length_c 15.184722
_cell_angle_alpha 90.000000
_cell_angle_beta 90.000000
_cell_angle_gamma 90.000000
_cell_volume 1774.008186
_symmetry_space_group_name_H-M "P -4 N 2"
_symmetry_group_IT_number 118
_symmetry_cell_setting 'tetragonal'
loop_
_space_group_symop_operation_xyz
x,y,z
y,-x,-z
-x,-y,z
-y,x,-z
1/2+y,1/2+x,1/2-z
1/2-y,1/2-x,1/2-z
1/2-x,1/2+y,1/2+z
1/2+x,1/2-y,1/2+z
loop_
_atom_site_type_symbol
_atom_site_label
_atom_site_fract_x
_atom_site_fract_y
_atom_site_fract_z
Si Si1 0.127367 0.966997 0.329372
Si Si2 0.592263 0.106108 0.099331
Si Si3 0.912299 0.249658 0.813697
Si Si4 0.766385 0.236639 0.527560
Si Si5 0.475994 0.232794 0.878574
Si Si6 0.000000 0.500000 0.250000
O O1 0.101387 0.823564 0.315259
O O2 0.131844 0.043850 0.240225
O O3 0.264479 0.974080 0.372650
O O4 0.000000 0.000000 0.380973
O O5 0.382486 0.230681 0.963511
O O6 0.500000 0.000000 0.063002
O O7 0.661812 0.031132 0.175573
O O8 0.697333 0.151048 0.032831
O O9 0.815118 0.315118 0.750000
O O10 0.847890 0.235708 0.907234
O O11 0.779934 0.110115 0.585535
O O12 0.500098 0.114245 0.818462
#
# Coordination Sequence:
#
# PCOD9558871 Si02
#       6
#     8   8   8   8   8   2
#     4  11  26  46  77 116 157 204 269 342 408 486
#     4  11  24  48  81 114 156 215 277 334 406 506
#     4  12  25  47  79 117 159 212 273 337 408 503
#     4  11  28  49  78 116 164 211 278 344 417 497
#     4  11  29  51  78 111 160 217 271 344 417 507
#     4  12  32  56  80 112 168 218 284 340 444 516
#
# _framework density 23.675201000000001
#
# number of rings (size 3 to 8) (size 9 to 14) (size 15 to 20)
#    0.000    0.762    1.905    2.857   21.333    0.000 
#    3.429    0.000    0.000    0.000    0.000    0.000 
#    0.000    0.000    0.000    0.000    0.000    0.000 
#
# Total GULP energy -234364.345464 kJ/mol
# GULP energy per Si atom -5580.103463 kJ/mol
# Density = 2.362132 g / cm^3
# Si number density = 23.675201 Si / 1000 Ang^3
#
#
#
# Elastic Constant Matrix: (Units=GPa)
#
#
# Indices 1 2 3 4 5 6 
#
# 1 135.9207 74.9123 69.5246 0.0000 0.0000 0.0000
# 2 74.9123 135.9207 69.5246 0.0000 0.0000 0.0000
# 3 69.5246 69.5246 135.5298 0.0000 0.0000 0.0000
# 4 0.0000 0.0000 0.0000 48.1886 0.0000 0.0000
# 5 0.0000 0.0000 0.0000 0.0000 48.1886 0.0000
# 6 0.0000 0.0000 0.0000 0.0000 0.0000 42.9032
#
#
#
# Elastic Compliance Matrix: (Units=1/GPa)
#
#
# Indices 1 2 3 4 5 6 
#
# 1 0.011780 -0.004611 -0.003677 0.000000 0.000000 0.000000
# 2 -0.004611 0.011780 -0.003677 0.000000 0.000000 0.000000
# 3 -0.003677 -0.003677 0.011151 0.000000 0.000000 0.000000
# 4 0.000000 0.000000 0.000000 0.020752 0.000000 0.000000
# 5 0.000000 0.000000 0.000000 0.000000 0.020752 0.000000
# 6 0.000000 0.000000 0.000000 0.000000 0.000000 0.023308
#
#
# Mechanical properties :
#
#
# Convention : Reuss Voigt Hill
#
# Bulk Modulus (GPa) = 92.77405 92.81046 92.79226
# Shear Modulus (GPa) = 39.35544 40.75007 40.05275
#
# Velocity S-wave (km/s) = 4.08156 4.15325 4.11756
# Velocity P-wave (km/s) = 7.84114 7.89215 7.86668
#
# Compressibility (1/GPa) = 0.01077888
#
# Stress axis : x y z
#
# Youngs Moduli (GPa) = 84.89147 84.89147 89.67679
#
# Poissons Ratio (x) = 0.39147 0.32976
# Poissons Ratio (y) = 0.39147 0.32976
# Poissons Ratio (z) = 0.31216 0.31216
#
# Static dielectric constant tensor:
#      x y z
#    x 1.970390 0.000000 0.000000 
#    y 0.000000 1.970390 0.000000 
#    z 0.000000 0.000000 1.948660 
# 
# From -- ./inp_files/4864.got.cif
#   From: 2010.05.17/outbox.cif.g08.bks.cpg/sg118_3_cif.got.tgz:4864.got - 2010.05.20 11:17:24.
