data_PCOD9558493
_publ_section_title
;
Structure prediction by ZEFSAII (Michael W. Deem and Ramdas Pophale) SiO2 
 PCOD9558493
Probable space group: P -4 N 2
;
_chemical_formula_sum "Si O2"
_cell_formula_units_Z 56
_cell_length_a 12.172980
_cell_length_b 12.172980
_cell_length_c 19.072944
_cell_angle_alpha 90.000000
_cell_angle_beta 90.000000
_cell_angle_gamma 90.000000
_cell_volume 2826.256347
_symmetry_space_group_name_H-M "P -4 N 2"
_symmetry_group_IT_number 118
_symmetry_cell_setting 'tetragonal'
loop_
_space_group_symop_operation_xyz
x,y,z
y,-x,-z
-x,-y,z
-y,x,-z
1/2+y,1/2+x,1/2-z
1/2-y,1/2-x,1/2-z
1/2-x,1/2+y,1/2+z
1/2+x,1/2-y,1/2+z
loop_
_atom_site_type_symbol
_atom_site_label
_atom_site_fract_x
_atom_site_fract_y
_atom_site_fract_z
Si Si1 0.318197 0.320377 0.563008
Si Si2 0.374494 0.488838 0.798187
Si Si3 0.785120 0.334542 0.828329
Si Si4 0.246274 0.446953 0.438296
Si Si5 0.164601 0.053980 0.137452
Si Si6 0.858652 0.265760 0.320241
Si Si7 0.597242 0.146227 0.828981
O O1 0.239569 0.355843 0.499208
O O2 0.431975 0.270819 0.533450
O O3 0.340182 0.435790 0.602188
O O4 0.279556 0.232022 0.619569
O O5 0.500000 0.500000 0.823922
O O6 0.279934 0.552888 0.841540
O O7 0.365616 0.539240 0.719647
O O8 0.354462 0.360264 0.796663
O O9 0.834190 0.334190 0.750000
O O10 0.887021 0.283944 0.870740
O O11 0.688628 0.243045 0.830625
O O12 0.356833 0.417705 0.394887
O O13 0.144025 0.440133 0.385351
O O14 0.832851 0.332851 0.250000
O O15 0.979068 0.303220 0.345073
O O16 0.599737 0.099737 0.750000
#
# Coordination Sequence:
#
# PCOD9558493 Si02
#       7
#     8   8   8   8   8   8   8
#     4  12  23  39  61  96 127 165 207 269 324 389
#     4  11  19  36  64  93 126 165 212 266 314 377
#     4   8  17  33  59  89 118 160 207 251 306 370
#     4  11  23  39  65  93 127 167 214 261 328 385
#     4  10  20  35  62  94 125 161 210 260 319 378
#     4  12  25  38  62 101 132 163 216 268 331 385
#     4  10  21  40  63  93 126 167 210 266 326 380
#
# _framework density 19.814197
#
# number of rings (size 3 to 8) (size 9 to 14) (size 15 to 20)
#    0.000    1.429    4.286    3.000    0.000    2.000 
#    0.000    3.571    3.143    0.000    0.000    0.000 
#    0.000    0.000    0.000    0.000    0.000    0.000 
#
# Total GULP energy -312407.492605 kJ/mol
# GULP energy per Si atom -5578.705225 kJ/mol
# Density = 1.976910 g / cm^3
# Si number density = 19.814197 Si / 1000 Ang^3
#
#
#
# Elastic Constant Matrix: (Units=GPa)
#
#
# Indices 1 2 3 4 5 6 
#
# 1 76.4831 29.2713 15.5359 0.0000 0.0000 0.0000
# 2 29.2713 76.4831 15.5359 0.0000 0.0000 0.0000
# 3 15.5359 15.5359 73.1158 0.0000 0.0000 0.0000
# 4 0.0000 0.0000 0.0000 21.9531 0.0000 0.0000
# 5 0.0000 0.0000 0.0000 0.0000 21.9531 0.0000
# 6 0.0000 0.0000 0.0000 0.0000 0.0000 31.6222
#
#
#
# Elastic Compliance Matrix: (Units=1/GPa)
#
#
# Indices 1 2 3 4 5 6 
#
# 1 0.015633 -0.005548 -0.002143 0.000000 0.000000 0.000000
# 2 -0.005548 0.015633 -0.002143 0.000000 0.000000 0.000000
# 3 -0.002143 -0.002143 0.014588 0.000000 0.000000 0.000000
# 4 0.000000 0.000000 0.000000 0.045552 0.000000 0.000000
# 5 0.000000 0.000000 0.000000 0.000000 0.045552 0.000000
# 6 0.000000 0.000000 0.000000 0.000000 0.000000 0.031623
#
#
# Mechanical properties :
#
#
# Convention : Reuss Voigt Hill
#
# Bulk Modulus (GPa) = 38.18739 38.52979 38.35859
# Shear Modulus (GPa) = 25.38361 26.15494 25.76928
#
# Velocity S-wave (km/s) = 3.58310 3.63714 3.61022
# Velocity P-wave (km/s) = 6.03596 6.09312 6.06460
#
# Compressibility (1/GPa) = 0.02618665
#
# Stress axis : x y z
#
# Youngs Moduli (GPa) = 63.96599 63.96599 68.55120
#
# Poissons Ratio (x) = 0.35487 0.14691
# Poissons Ratio (y) = 0.35487 0.14691
# Poissons Ratio (z) = 0.13708 0.13708
#
# Static dielectric constant tensor:
#      x y z
#    x 1.714700 0.000000 0.000000 
#    y 0.000000 1.714700 0.000000 
#    z 0.000000 0.000000 1.741280 
# 
# From -- ./inp_files/5706.got.cif
#   From: 2010.05.17/outbox.cif.g08.bks.cpg/sg118_3_cif.got.tgz:5706.got - 2010.05.20 11:17:24.
