data_PCOD9558622
_publ_section_title
;
Structure prediction by ZEFSAII (Michael W. Deem and Ramdas Pophale) SiO2 
 PCOD9558622
Probable space group: P -4 N 2
;
_chemical_formula_sum "Si O2"
_cell_formula_units_Z 52
_cell_length_a 17.819092
_cell_length_b 17.819092
_cell_length_c 7.052561
_cell_angle_alpha 90.000000
_cell_angle_beta 90.000000
_cell_angle_gamma 90.000000
_cell_volume 2239.329449
_symmetry_space_group_name_H-M "P -4 N 2"
_symmetry_group_IT_number 118
_symmetry_cell_setting 'tetragonal'
loop_
_space_group_symop_operation_xyz
x,y,z
y,-x,-z
-x,-y,z
-y,x,-z
1/2+y,1/2+x,1/2-z
1/2-y,1/2-x,1/2-z
1/2-x,1/2+y,1/2+z
1/2+x,1/2-y,1/2+z
loop_
_atom_site_type_symbol
_atom_site_label
_atom_site_fract_x
_atom_site_fract_y
_atom_site_fract_z
Si Si1 0.000000 0.000000 0.000000
Si Si2 0.272335 0.711760 0.578342
Si Si3 0.060658 0.848548 0.984539
Si Si4 0.866863 0.761577 0.605231
Si Si5 0.424001 0.759520 0.536327
Si Si6 0.424855 0.901078 0.028839
Si Si7 0.000000 0.500000 0.250000
Si Si8 0.580223 0.586261 0.057650
O O1 0.931542 0.947561 0.923197
O O2 0.212767 0.712767 0.750000
O O3 0.295174 0.632955 0.487697
O O4 0.249035 0.779336 0.442427
O O5 0.353342 0.737323 0.665629
O O6 0.065508 0.873495 0.760809
O O7 0.992438 0.796675 0.051899
O O8 0.892120 0.753976 0.823693
O O9 0.911114 0.688617 0.521165
O O10 0.883853 0.844920 0.537593
O O11 0.437959 0.847619 0.550664
O O12 0.426298 0.926298 0.250000
O O13 0.491655 0.931195 0.898505
O O14 0.594380 0.496801 0.058873
#
# Coordination Sequence:
#
# PCOD9558622 Si02
#       8
#     2   8   8   8   8   8   2   8
#     4  12  24  40  58 100 148 172 216 290 352 424
#     4  11  22  38  66  96 127 173 231 281 333 417
#     4  12  23  39  65  99 140 182 221 287 350 424
#     4  10  21  42  66  94 130 183 228 281 344 426
#     4  10  22  43  65  90 134 182 224 280 355 417
#     4   9  22  41  69 100 129 183 236 290 360 425
#     4  12  22  40  76  98 132 164 242 316 356 420
#     4  11  22  37  64 102 135 179 230 273 336 424
#
# _framework density 23.221238
#
# number of rings (size 3 to 8) (size 9 to 14) (size 15 to 20)
#    0.000    1.385    4.615    2.538    4.308    0.000 
#    0.000    4.615    3.385    0.000    2.000    0.000 
#    0.000    0.000    0.000    0.000    0.000    0.000 
#
# Total GULP energy -289941.940022 kJ/mol
# GULP energy per Si atom -5575.806539 kJ/mol
# Density = 2.316839 g / cm^3
# Si number density = 23.221238 Si / 1000 Ang^3
#
#
#
# Elastic Constant Matrix: (Units=GPa)
#
#
# Indices 1 2 3 4 5 6 
#
# 1 100.5722 84.4455 4.5477 0.0000 0.0000 0.0000
# 2 84.4455 100.5722 4.5477 0.0000 0.0000 0.0000
# 3 4.5477 4.5477 52.6361 0.0000 0.0000 0.0000
# 4 0.0000 0.0000 0.0000 19.8480 0.0000 0.0000
# 5 0.0000 0.0000 0.0000 0.0000 19.8480 0.0000
# 6 0.0000 0.0000 0.0000 0.0000 0.0000 35.4738
#
#
#
# Elastic Compliance Matrix: (Units=1/GPa)
#
#
# Indices 1 2 3 4 5 6 
#
# 1 0.033718 -0.028290 -0.000469 0.000000 0.000000 0.000000
# 2 -0.028290 0.033718 -0.000469 0.000000 0.000000 0.000000
# 3 -0.000469 -0.000469 0.019079 0.000000 0.000000 0.000000
# 4 0.000000 0.000000 0.000000 0.050383 0.000000 0.000000
# 5 0.000000 0.000000 0.000000 0.000000 0.050383 0.000000
# 6 0.000000 0.000000 0.000000 0.000000 0.000000 0.028190
#
#
# Mechanical properties :
#
#
# Convention : Reuss Voigt Hill
#
# Bulk Modulus (GPa) = 35.63866 48.98469 42.31168
# Shear Modulus (GPa) = 17.65027 25.71661 21.68344
#
# Velocity S-wave (km/s) = 2.75997 3.33146 3.05909
# Velocity P-wave (km/s) = 5.05345 5.99490 5.54419
#
# Compressibility (1/GPa) = 0.02805941
#
# Stress axis : x y z
#
# Youngs Moduli (GPa) = 29.65741 29.65741 52.41258
#
# Poissons Ratio (x) = 0.83902 0.02458
# Poissons Ratio (y) = 0.83902 0.02458
# Poissons Ratio (z) = 0.01391 0.01391
#
# Static dielectric constant tensor:
#      x y z
#    x 1.901960 0.000000 0.000000 
#    y 0.000000 1.901960 0.000000 
#    z 0.000000 0.000000 2.028290 
# 
# From -- ./inp_files/2201.got.cif
#   From: 2010.05.17/outbox.cif.g08.bks.cpg/sg118_2_cif.got.tgz:2201.got - 2010.05.20 11:17:24.
