data_PCOD9558301
_publ_section_title
;
Structure prediction by ZEFSAII (Michael W. Deem and Ramdas Pophale) SiO2 
 PCOD9558301
Probable space group: P -4 B 2
;
_chemical_formula_sum "Si O2"
_cell_formula_units_Z 40
_cell_length_a 11.109452
_cell_length_b 11.109452
_cell_length_c 14.206664
_cell_angle_alpha 90.000000
_cell_angle_beta 90.000000
_cell_angle_gamma 90.000000
_cell_volume 1753.385387
_symmetry_space_group_name_H-M "P -4 B 2"
_symmetry_group_IT_number 117
_symmetry_cell_setting 'tetragonal'
loop_
_space_group_symop_operation_xyz
x,y,z
y,-x,-z
-x,-y,z
-y,x,-z
1/2+y,1/2+x,-z
1/2-y,1/2-x,-z
1/2-x,1/2+y,z
1/2+x,1/2-y,z
loop_
_atom_site_type_symbol
_atom_site_label
_atom_site_fract_x
_atom_site_fract_y
_atom_site_fract_z
Si Si1 0.827972 0.379058 0.107596
Si Si2 0.479107 0.158704 0.291572
Si Si3 0.358597 0.781131 0.814115
Si Si4 0.407071 0.606246 0.650879
Si Si5 0.514824 0.836217 0.557373
O O1 0.802500 0.521317 0.124248
O O2 0.733916 0.269675 0.132384
O O3 0.929124 0.348469 0.185085
O O4 0.863979 0.363979 0.000000
O O5 0.620075 0.162455 0.267971
O O6 0.451401 0.275246 0.354833
O O7 0.399033 0.056667 0.344398
O O8 0.396530 0.664271 0.754373
O O9 0.500000 0.500000 0.647188
O O10 0.457412 0.708122 0.580153
O O11 0.638474 0.861527 0.500000
O O12 0.414613 0.914613 0.500000
#
# Coordination Sequence:
#
# PCOD9558301 Si02
#       5
#     8   8   8   8   8
#     4  11  26  42  74 116 153 211 263 329 391 490
#     4  11  25  46  82 110 152 204 262 321 393 474
#     4  11  23  47  75 111 160 204 263 327 399 475
#     4  11  25  48  76 113 153 199 252 323 398 467
#     4  11  24  48  78 110 148 201 259 317 392 467
#
# _framework density 22.813009999999998
#
# number of rings (size 3 to 8) (size 9 to 14) (size 15 to 20)
#    0.000    1.000    2.000    4.200    5.600    1.600 
#    3.600    0.000    0.000    0.000    0.000    0.000 
#    0.000    0.000    0.000    0.000    0.000    0.000 
#
# Total GULP energy -222705.766538 kJ/mol
# GULP energy per Si atom -5567.644163 kJ/mol
# Density = 2.276109 g / cm^3
# Si number density = 22.813010 Si / 1000 Ang^3
#
#
#
# Elastic Constant Matrix: (Units=GPa)
#
#
# Indices 1 2 3 4 5 6 
#
# 1 128.7418 58.0197 35.9418 0.0000 0.0000 0.0000
# 2 58.0197 128.7419 35.9414 0.0000 0.0000 0.0000
# 3 35.9418 35.9414 119.8121 0.0000 0.0000 0.0000
# 4 0.0000 0.0000 0.0000 17.7187 0.0000 0.0000
# 5 0.0000 0.0000 0.0000 0.0000 17.7189 0.0000
# 6 0.0000 0.0000 0.0000 0.0000 0.0000 24.5106
#
#
#
# Elastic Compliance Matrix: (Units=1/GPa)
#
#
# Indices 1 2 3 4 5 6 
#
# 1 0.010097 -0.004043 -0.001816 0.000000 0.000000 0.000000
# 2 -0.004043 0.010097 -0.001816 0.000000 0.000000 0.000000
# 3 -0.001816 -0.001816 0.009436 0.000000 0.000000 0.000000
# 4 0.000000 0.000000 0.000000 0.056437 0.000000 0.000000
# 5 0.000000 0.000000 0.000000 0.000000 0.056437 0.000000
# 6 0.000000 0.000000 0.000000 0.000000 0.000000 0.040799
#
#
# Mechanical properties :
#
#
# Convention : Reuss Voigt Hill
#
# Bulk Modulus (GPa) = 70.03304 70.78906 70.41105
# Shear Modulus (GPa) = 24.58065 28.48250 26.53158
#
# Velocity S-wave (km/s) = 3.28607 3.53727 3.41398
# Velocity P-wave (km/s) = 6.72034 6.91235 6.81702
#
# Compressibility (1/GPa) = 0.01427897
#
# Stress axis : x y z
#
# Youngs Moduli (GPa) = 99.04324 99.04349 105.97841
#
# Poissons Ratio (x) = 0.40046 0.19245
# Poissons Ratio (y) = 0.40046 0.19244
# Poissons Ratio (z) = 0.17986 0.17985
#
# Static dielectric constant tensor:
#      x y z
#    x 1.968030 0.000000 0.000000 
#    y 0.000000 1.968030 0.000000 
#    z 0.000000 0.000000 1.895000 
# 
# From -- ./inp_files/3106.got.cif
#   From: 2010.05.17/outbox.cif.g08.bks.cpg/sg117_2_cif.got.tgz:3106.got - 2010.05.20 11:15:09.
