data_PCOD9558968
_publ_section_title
;
Structure prediction by ZEFSAII (Michael W. Deem and Ramdas Pophale) SiO2 
 PCOD9558968
Probable space group: I -4 M 2
;
_chemical_formula_sum "Si O2"
_cell_formula_units_Z 120
_cell_length_a 25.379917
_cell_length_b 25.379917
_cell_length_c 12.281485
_cell_angle_alpha 90.000000
_cell_angle_beta 90.000000
_cell_angle_gamma 90.000000
_cell_volume 7910.998044
_symmetry_space_group_name_H-M "I -4 M 2"
_symmetry_group_IT_number 119
_symmetry_cell_setting 'tetragonal'
loop_
_space_group_symop_operation_xyz
x,y,z
y,-x,-z
-x,-y,z
-y,x,-z
y,x,-z
-y,-x,-z
-x,y,z
x,-y,z
1/2+x,1/2+y,1/2+z
1/2+y,1/2-x,1/2-z
1/2-x,1/2-y,1/2+z
1/2-y,1/2+x,1/2-z
1/2+y,1/2+x,1/2-z
1/2-y,1/2-x,1/2-z
1/2-x,1/2+y,1/2+z
1/2+x,1/2-y,1/2+z
loop_
_atom_site_type_symbol
_atom_site_label
_atom_site_fract_x
_atom_site_fract_y
_atom_site_fract_z
Si Si1 0.403330 0.096671 0.750000
Si Si2 0.801475 0.633805 0.972447
Si Si3 0.104575 0.441022 0.016522
Si Si4 0.834737 0.244514 0.736970
Si Si5 0.623668 0.057463 0.170128
Si Si6 0.781723 0.394496 0.571305
Si Si7 0.838782 0.253761 0.298664
Si Si8 0.563383 0.213857 0.668532
O O1 0.438585 0.090464 0.856533
O O2 0.416190 0.154811 0.701093
O O3 0.765371 0.631357 0.865436
O O4 0.845936 0.678939 0.956632
O O5 0.836847 0.582753 0.999415
O O6 0.768001 0.650495 0.076522
O O7 0.101852 0.500000 0.976278
O O8 0.066022 0.405124 0.945068
O O9 0.791235 0.291235 0.750000
O O10 0.868086 0.239445 0.848292
O O11 0.800314 0.193126 0.713211
O O12 0.601862 0.101862 0.250000
O O13 0.684526 0.066404 0.146863
O O14 0.611782 0.000000 0.213947
O O15 0.772077 0.423289 0.457191
O O16 0.800505 0.300505 0.250000
O O17 0.895322 0.252171 0.239187
O O18 0.500000 0.217407 0.687679
#
# Coordination Sequence:
#
# PCOD9558968 Si02
#       8
#     8  16  16  16  16  16  16  16
#     4  12  20  36  48  63  88 118 164 204 252 280
#     4  10  17  32  47  67  92 120 153 193 246 299
#     4  11  22  33  49  66  87 121 165 212 249 286
#     4   9  20  29  49  71  93 117 149 192 251 296
#     4  11  22  35  49  62  85 118 159 208 255 295
#     4  10  18  34  48  65  89 117 156 196 238 300
#     4  11  18  32  48  73  96 119 150 200 242 294
#     4  12  21  33  53  70  91 127 161 201 251 292
#
# _framework density 15.168756
#
# number of rings (size 3 to 8) (size 9 to 14) (size 15 to 20)
#    0.000    1.333    6.000    3.600    0.000    2.000 
#    0.000    0.667    0.000    1.800    0.000    0.000 
#    0.000    0.000    0.000    0.000    0.000   18.667 
#
# Total GULP energy -334296.742725 kJ/mol
# GULP energy per Si atom -5571.612379 kJ/mol
# Density = 1.513423 g / cm^3
# Si number density = 15.168756 Si / 1000 Ang^3
#
#
#
# Elastic Constant Matrix: (Units=GPa)
#
#
# Indices 1 2 3 4 5 6 
#
# 1 43.8447 27.6204 13.6204 0.0000 0.0000 0.0000
# 2 27.6204 43.8449 13.6203 0.0000 0.0000 0.0000
# 3 13.6204 13.6203 79.7297 0.0000 0.0000 0.0000
# 4 0.0000 0.0000 0.0000 3.4685 0.0000 0.0000
# 5 0.0000 0.0000 0.0000 0.0000 3.4686 0.0000
# 6 0.0000 0.0000 0.0000 0.0000 0.0000 6.9211
#
#
#
# Elastic Compliance Matrix: (Units=1/GPa)
#
#
# Indices 1 2 3 4 5 6 
#
# 1 0.038302 -0.023334 -0.002557 0.000000 0.000000 0.000000
# 2 -0.023334 0.038301 -0.002557 0.000000 0.000000 0.000000
# 3 -0.002557 -0.002557 0.013416 0.000000 0.000000 0.000000
# 4 0.000000 0.000000 0.000000 0.288307 0.000000 0.000000
# 5 0.000000 0.000000 0.000000 0.000000 0.288298 0.000000
# 6 0.000000 0.000000 0.000000 0.000000 0.000000 0.144486
#
#
# Mechanical properties :
#
#
# Convention : Reuss Voigt Hill
#
# Bulk Modulus (GPa) = 30.19027 30.79348 30.49188
# Shear Modulus (GPa) = 5.68798 10.27552 7.98175
#
# Velocity S-wave (km/s) = 1.93854 2.60554 2.29639
# Velocity P-wave (km/s) = 4.99567 5.42185 5.21312
#
# Compressibility (1/GPa) = 0.03312325
#
# Stress axis : x y z
#
# Youngs Moduli (GPa) = 26.10859 26.10875 74.53794
#
# Poissons Ratio (x) = 0.60922 0.19059
# Poissons Ratio (y) = 0.60922 0.19059
# Poissons Ratio (z) = 0.06676 0.06676
#
# Static dielectric constant tensor:
#      x y z
#    x 1.509840 0.000000 0.000000 
#    y 0.000000 1.509840 0.000000 
#    z 0.000000 0.000000 1.553800 
# 
# From -- ./inp_files/4485.got.cif
#   From: 2010.05.17/outbox.cif.g08.bks.cpg/sg119_3_cif.got.tgz:4485.got - 2010.05.20 11:21:29.
