data_PCOD9558029
_publ_section_title
;
Structure prediction by ZEFSAII (Michael W. Deem and Ramdas Pophale) SiO2 
 PCOD9558029
Probable space group: P -4 C 2
;
_chemical_formula_sum "Si O2"
_cell_formula_units_Z 36
_cell_length_a 11.575546
_cell_length_b 11.575546
_cell_length_c 12.418206
_cell_angle_alpha 90.000000
_cell_angle_beta 90.000000
_cell_angle_gamma 90.000000
_cell_volume 1663.955970
_symmetry_space_group_name_H-M "P -4 C 2"
_symmetry_group_IT_number 116
_symmetry_cell_setting 'tetragonal'
loop_
_space_group_symop_operation_xyz
x,y,z
y,-x,-z
-x,-y,z
-y,x,-z
y,x,1/2-z
-y,-x,1/2-z
-x,y,1/2+z
x,-y,1/2+z
loop_
_atom_site_type_symbol
_atom_site_label
_atom_site_fract_x
_atom_site_fract_y
_atom_site_fract_z
Si Si1 0.256355 0.207442 0.993498
Si Si2 0.894259 0.581593 0.319181
Si Si3 0.314494 0.569880 0.347726
Si Si4 0.972379 0.757832 0.131519
Si Si5 0.000000 0.000000 0.250000
Si Si6 0.500000 0.500000 0.500000
O O1 0.283495 0.319565 0.921429
O O2 0.270619 0.095516 0.918771
O O3 0.336795 0.168780 0.093601
O O4 0.128642 0.228528 0.042922
O O5 0.795313 0.489411 0.293563
O O6 0.934697 0.663353 0.220951
O O7 0.000000 0.500000 0.358747
O O8 0.393774 0.606227 0.250000
O O9 0.388099 0.487495 0.425655
O O10 0.993007 0.883577 0.181966
#
# Coordination Sequence:
#
# PCOD9558029 Si02
#       6
#     8   8   8   8   2   2
#     4  12  26  48  75 110 150 201 249 318 387 460
#     4  12  27  48  73 112 153 201 257 321 387 458
#     4  12  28  46  77 107 148 201 259 314 375 453
#     4  12  27  46  77 109 153 197 254 316 386 469
#     4  12  24  46  72 108 140 190 244 306 376 460
#     4  12  26  48  72 102 148 200 262 304 372 450
#
# _framework density 21.635186999999998
#
# number of rings (size 3 to 8) (size 9 to 14) (size 15 to 20)
#    0.000    0.000    4.444    4.333    7.778    6.222 
#    0.000    0.000    0.000    0.000    0.000    0.000 
#    0.000    0.000    0.000    0.000    0.000    0.000 
#
# Total GULP energy -201237.304808 kJ/mol
# GULP energy per Si atom -5589.925134 kJ/mol
# Density = 2.158594 g / cm^3
# Si number density = 21.635187 Si / 1000 Ang^3
#
#
#
# Elastic Constant Matrix: (Units=GPa)
#
#
# Indices 1 2 3 4 5 6 
#
# 1 107.6421 33.2258 36.2737 0.0000 0.0000 0.0000
# 2 33.2258 107.6430 36.2736 0.0000 0.0000 0.0000
# 3 36.2737 36.2736 92.1444 0.0000 0.0000 0.0000
# 4 0.0000 0.0000 0.0000 19.4404 0.0000 0.0000
# 5 0.0000 0.0000 0.0000 0.0000 19.4378 0.0000
# 6 0.0000 0.0000 0.0000 0.0000 0.0000 44.2886
#
#
#
# Elastic Compliance Matrix: (Units=1/GPa)
#
#
# Indices 1 2 3 4 5 6 
#
# 1 0.011171 -0.002267 -0.003505 0.000000 0.000000 0.000000
# 2 -0.002267 0.011171 -0.003505 0.000000 0.000000 0.000000
# 3 -0.003505 -0.003505 0.013612 0.000000 0.000000 0.000000
# 4 0.000000 0.000000 0.000000 0.051439 0.000000 0.000000
# 5 0.000000 0.000000 0.000000 0.000000 0.051446 0.000000
# 6 0.000000 0.000000 0.000000 0.000000 0.000000 0.022579
#
#
# Mechanical properties :
#
#
# Convention : Reuss Voigt Hill
#
# Bulk Modulus (GPa) = 57.47267 57.66398 57.56833
# Shear Modulus (GPa) = 26.91456 30.07711 28.49584
#
# Velocity S-wave (km/s) = 3.53089 3.73258 3.63313
# Velocity P-wave (km/s) = 6.57610 6.72955 6.65327
#
# Compressibility (1/GPa) = 0.01739957
#
# Stress axis : x y z
#
# Youngs Moduli (GPa) = 89.51775 89.51872 73.46341
#
# Poissons Ratio (x) = 0.20293 0.25750
# Poissons Ratio (y) = 0.20293 0.25750
# Poissons Ratio (z) = 0.31378 0.31377
#
# Static dielectric constant tensor:
#      x y z
#    x 1.777210 0.000000 0.000000 
#    y 0.000000 1.777210 0.000000 
#    z 0.000000 0.000000 1.820820 
# 
# From -- ./inp_files/1762.got.cif
#   From: 2010.05.17/outbox.cif.g08.bks.cpg/sg116_1_cif.got.tgz:1762.got - 2010.05.20 11:11:43.
