data_PCOD9558895
_publ_section_title
;
Structure prediction by ZEFSAII (Michael W. Deem and Ramdas Pophale) SiO2 
 PCOD9558895
Probable space group: P -4 N 2
;
_chemical_formula_sum "Si O2"
_cell_formula_units_Z 36
_cell_length_a 15.853322
_cell_length_b 15.853322
_cell_length_c 5.365128
_cell_angle_alpha 90.000000
_cell_angle_beta 90.000000
_cell_angle_gamma 90.000000
_cell_volume 1348.405916
_symmetry_space_group_name_H-M "P -4 N 2"
_symmetry_group_IT_number 118
_symmetry_cell_setting 'tetragonal'
loop_
_space_group_symop_operation_xyz
x,y,z
y,-x,-z
-x,-y,z
-y,x,-z
1/2+y,1/2+x,1/2-z
1/2-y,1/2-x,1/2-z
1/2-x,1/2+y,1/2+z
1/2+x,1/2-y,1/2+z
loop_
_atom_site_type_symbol
_atom_site_label
_atom_site_fract_x
_atom_site_fract_y
_atom_site_fract_z
Si Si1 0.363760 0.726638 0.227367
Si Si2 0.833003 0.000034 0.885937
Si Si3 0.000000 0.000000 0.500000
Si Si4 0.500000 0.000000 0.750000
Si Si5 0.145516 0.778852 0.712472
Si Si6 0.006735 0.677985 0.490991
O O1 0.273364 0.773364 0.250000
O O2 0.311287 0.575595 0.586139
O O3 0.428817 0.799861 0.163887
O O4 0.348027 0.661194 0.002685
O O5 0.749888 0.000642 0.717960
O O6 0.918763 0.997992 0.703530
O O7 0.819979 0.085088 0.052310
O O8 0.583817 0.999343 0.591575
O O9 0.239900 0.739900 0.750000
O O10 0.097033 0.699235 0.599062
#
# Coordination Sequence:
#
# PCOD9558895 Si02
#       6
#     8   8   2   2   8   8
#     4  11  28  50  86 124 174 235 306 394 478 586
#     4  11  29  58  80 134 178 248 323 388 501 572
#     4  12  32  56 100 124 200 270 332 426 456 612
#     4  12  24  48  90 128 180 230 308 406 480 592
#     4  11  28  50  86 124 174 235 306 394 478 586
#     4  11  27  50  80 123 171 236 301 387 479 569
#
# _framework density 26.698191000000001
#
# number of rings (size 3 to 8) (size 9 to 14) (size 15 to 20)
#    0.000    0.889    0.000    2.667   12.444    5.333 
#    8.000    8.889    0.000    0.000    0.000    0.000 
#    0.000    0.000    0.000    0.000    0.000    0.000 
#
# Total GULP energy -200752.043392 kJ/mol
# GULP energy per Si atom -5576.445650 kJ/mol
# Density = 2.663743 g / cm^3
# Si number density = 26.698191 Si / 1000 Ang^3
#
#
#
# Elastic Constant Matrix: (Units=GPa)
#
#
# Indices 1 2 3 4 5 6 
#
# 1 169.8323 32.4943 54.7309 0.0000 0.0000 0.0000
# 2 32.4943 169.8323 54.7309 0.0000 0.0000 0.0000
# 3 54.7309 54.7309 133.7066 0.0000 0.0000 0.0000
# 4 0.0000 0.0000 0.0000 46.8354 0.0000 0.0000
# 5 0.0000 0.0000 0.0000 0.0000 46.8354 0.0000
# 6 0.0000 0.0000 0.0000 0.0000 0.0000 57.8622
#
#
#
# Elastic Compliance Matrix: (Units=1/GPa)
#
#
# Indices 1 2 3 4 5 6 
#
# 1 0.006815 -0.000466 -0.002599 0.000000 0.000000 0.000000
# 2 -0.000466 0.006815 -0.002599 0.000000 0.000000 0.000000
# 3 -0.002599 -0.002599 0.009606 0.000000 0.000000 0.000000
# 4 0.000000 0.000000 0.000000 0.021351 0.000000 0.000000
# 5 0.000000 0.000000 0.000000 0.000000 0.021351 0.000000
# 6 0.000000 0.000000 0.000000 0.000000 0.000000 0.017282
#
#
# Mechanical properties :
#
#
# Convention : Reuss Voigt Hill
#
# Bulk Modulus (GPa) = 83.97169 84.14260 84.05714
# Shear Modulus (GPa) = 50.75194 52.40094 51.57644
#
# Velocity S-wave (km/s) = 4.36472 4.43506 4.40003
# Velocity P-wave (km/s) = 7.54463 7.60335 7.57405
#
# Compressibility (1/GPa) = 0.01190878
#
# Stress axis : x y z
#
# Youngs Moduli (GPa) = 146.73830 146.73830 104.09628
#
# Poissons Ratio (x) = 0.06845 0.27051
# Poissons Ratio (y) = 0.06845 0.27051
# Poissons Ratio (z) = 0.38132 0.38132
#
# Static dielectric constant tensor:
#      x y z
#    x 1.920230 0.000000 0.000000 
#    y 0.000000 1.920230 0.000000 
#    z 0.000000 0.000000 2.206880 
# 
# From -- ./inp_files/1790.got.cif
#   From: 2010.05.17/outbox.cif.g08.bks.cpg/sg118_1_cif.got.tgz:1790.got - 2010.05.20 11:17:24.
