data_PCOD9558862
_publ_section_title
;
Structure prediction by ZEFSAII (Michael W. Deem and Ramdas Pophale) SiO2 
 PCOD9558862
Probable space group: P -4 N 2
;
_chemical_formula_sum "Si O2"
_cell_formula_units_Z 28
_cell_length_a 8.138403
_cell_length_b 8.138403
_cell_length_c 17.258893
_cell_angle_alpha 90.000000
_cell_angle_beta 90.000000
_cell_angle_gamma 90.000000
_cell_volume 1143.118674
_symmetry_space_group_name_H-M "P -4 N 2"
_symmetry_group_IT_number 118
_symmetry_cell_setting 'tetragonal'
loop_
_space_group_symop_operation_xyz
x,y,z
y,-x,-z
-x,-y,z
-y,x,-z
1/2+y,1/2+x,1/2-z
1/2-y,1/2-x,1/2-z
1/2-x,1/2+y,1/2+z
1/2+x,1/2-y,1/2+z
loop_
_atom_site_type_symbol
_atom_site_label
_atom_site_fract_x
_atom_site_fract_y
_atom_site_fract_z
Si Si1 0.107359 0.764873 0.648991
Si Si2 0.100657 0.745481 0.326497
Si Si3 0.000000 0.000000 0.000000
Si Si4 0.877085 0.348814 0.002685
Si Si5 0.000000 0.500000 0.750000
O O1 0.109301 0.768131 0.556035
O O2 0.123901 0.582043 0.684204
O O3 0.927246 0.819786 0.677814
O O4 0.235259 0.904176 0.672167
O O5 0.152539 0.652539 0.250000
O O6 0.164072 0.668223 0.407086
O O7 0.820042 0.951320 0.031737
O O8 0.000000 0.500000 0.996489
#
# Coordination Sequence:
#
# PCOD9558862 Si02
#       5
#     8   8   2   8   2
#     4  11  24  46  75 104 157 203 261 332 401 496
#     4  11  25  45  72 113 153 204 262 334 412 483
#     4  12  28  44  84 112 156 212 274 336 396 492
#     4  12  26  48  73 113 154 210 269 327 403 493
#     4  12  24  44  74 104 136 204 256 318 400 480
#
# _framework density 24.494395000000001
#
# number of rings (size 3 to 8) (size 9 to 14) (size 15 to 20)
#    0.000    0.571    2.857    5.143    0.000    9.714 
#    0.000    0.000    0.000    0.000    0.000    0.000 
#    0.000    0.000    0.000    0.000    0.000    0.000 
#
# Total GULP energy -156034.267336 kJ/mol
# GULP energy per Si atom -5572.652405 kJ/mol
# Density = 2.443864 g / cm^3
# Si number density = 24.494395 Si / 1000 Ang^3
#
#
#
# Elastic Constant Matrix: (Units=GPa)
#
#
# Indices 1 2 3 4 5 6 
#
# 1 99.1610 20.4944 59.6034 0.0000 0.0000 0.0000
# 2 20.4944 99.1610 59.6034 0.0000 0.0000 0.0000
# 3 59.6034 59.6034 219.8226 0.0000 0.0000 0.0000
# 4 0.0000 0.0000 0.0000 84.9587 0.0000 0.0000
# 5 0.0000 0.0000 0.0000 0.0000 84.9587 0.0000
# 6 0.0000 0.0000 0.0000 0.0000 0.0000 28.7065
#
#
#
# Elastic Compliance Matrix: (Units=1/GPa)
#
#
# Indices 1 2 3 4 5 6 
#
# 1 0.012081 -0.000631 -0.003105 0.000000 0.000000 0.000000
# 2 -0.000631 0.012081 -0.003105 0.000000 0.000000 0.000000
# 3 -0.003105 -0.003105 0.006233 0.000000 0.000000 0.000000
# 4 0.000000 0.000000 0.000000 0.011770 0.000000 0.000000
# 5 0.000000 0.000000 0.000000 0.000000 0.011770 0.000000
# 6 0.000000 0.000000 0.000000 0.000000 0.000000 0.034835
#
#
# Mechanical properties :
#
#
# Convention : Reuss Voigt Hill
#
# Bulk Modulus (GPa) = 59.82738 77.50521 68.66630
# Shear Modulus (GPa) = 46.28642 58.28768 52.28705
#
# Velocity S-wave (km/s) = 4.35175 4.88344 4.62524
# Velocity P-wave (km/s) = 7.05183 7.96919 7.52450
#
# Compressibility (1/GPa) = 0.01671475
#
# Stress axis : x y z
#
# Youngs Moduli (GPa) = 82.77368 82.77368 160.44268
#
# Poissons Ratio (x) = 0.05221 0.49813
# Poissons Ratio (y) = 0.05221 0.49813
# Poissons Ratio (z) = 0.25699 0.25699
#
# Static dielectric constant tensor:
#      x y z
#    x 1.608370 0.000000 0.000000 
#    y 0.000000 1.608370 0.000000 
#    z 0.000000 0.000000 1.952610 
# 
# From -- ./inp_files/4652.got.cif
#   From: 2010.05.17/outbox.cif.g08.bks.cpg/sg118_3_cif.got.tgz:4652.got - 2010.05.20 11:17:24.
