data_PCOD9558617
_publ_section_title
;
Structure prediction by ZEFSAII (Michael W. Deem and Ramdas Pophale) SiO2 
 PCOD9558617
Probable space group: P -4 N 2
;
_chemical_formula_sum "Si O2"
_cell_formula_units_Z 64
_cell_length_a 11.961879
_cell_length_b 11.961879
_cell_length_c 21.036873
_cell_angle_alpha 90.000000
_cell_angle_beta 90.000000
_cell_angle_gamma 90.000000
_cell_volume 3010.093564
_symmetry_space_group_name_H-M "P -4 N 2"
_symmetry_group_IT_number 118
_symmetry_cell_setting 'tetragonal'
loop_
_space_group_symop_operation_xyz
x,y,z
y,-x,-z
-x,-y,z
-y,x,-z
1/2+y,1/2+x,1/2-z
1/2-y,1/2-x,1/2-z
1/2-x,1/2+y,1/2+z
1/2+x,1/2-y,1/2+z
loop_
_atom_site_type_symbol
_atom_site_label
_atom_site_fract_x
_atom_site_fract_y
_atom_site_fract_z
Si Si1 0.778958 0.430284 0.781558
Si Si2 0.638908 0.258506 0.984767
Si Si3 0.822061 0.979306 0.403114
Si Si4 0.043015 0.379818 0.088406
Si Si5 0.792529 0.638028 0.186963
Si Si6 0.238243 0.175997 0.910030
Si Si7 0.886306 0.071729 0.195371
Si Si8 0.593087 0.682459 0.826338
O O1 0.893558 0.393558 0.750000
O O2 0.781039 0.480947 0.852482
O O3 0.705875 0.318798 0.796141
O O4 0.710844 0.498987 0.728898
O O5 0.547337 0.306713 0.032606
O O6 0.750238 0.236814 0.026238
O O7 0.655507 0.353062 0.929558
O O8 0.596853 0.135597 0.964921
O O9 0.903784 0.060723 0.360966
O O10 0.121894 0.310865 0.136847
O O11 0.000000 0.500000 0.113193
O O12 0.936496 0.305428 0.073884
O O13 0.866233 0.633767 0.250000
O O14 0.752006 0.518665 0.162561
O O15 0.124879 0.146021 0.872171
O O16 0.307582 0.248641 0.858256
O O17 0.902810 0.165034 0.250559
O O18 0.000000 0.000000 0.191449
#
# Coordination Sequence:
#
# PCOD9558617 Si02
#       8
#     8   8   8   8   8   8   8   8
#     4  10  22  41  65  97 131 173 229 287 338 400
#     4  11  25  45  66 103 134 180 236 287 359 416
#     4  10  23  40  71  96 136 176 226 294 345 413
#     4  12  24  43  67  96 140 176 223 281 353 429
#     4  11  21  36  62  99 135 172 211 274 345 419
#     4  11  25  45  65  96 136 182 227 285 348 429
#     4  11  22  39  66  97 132 175 226 277 340 415
#     4  10  21  41  67  98 135 170 221 280 352 415
#
# _framework density 21.261799
#
# number of rings (size 3 to 8) (size 9 to 14) (size 15 to 20)
#    0.000    1.250    3.750    1.875    3.500    1.500 
#    6.750    0.000    0.000    6.750    0.000    0.000 
#    0.000    0.000    0.000    0.000    0.000    0.000 
#
# Total GULP energy -356635.896766 kJ/mol
# GULP energy per Si atom -5572.435887 kJ/mol
# Density = 2.121341 g / cm^3
# Si number density = 21.261799 Si / 1000 Ang^3
#
#
#
# Elastic Constant Matrix: (Units=GPa)
#
#
# Indices 1 2 3 4 5 6 
#
# 1 61.0393 4.5533 22.5335 0.0000 0.0000 0.0000
# 2 4.5533 61.0388 22.5339 0.0000 0.0000 0.0000
# 3 22.5335 22.5339 76.1094 0.0000 0.0000 0.0000
# 4 0.0000 0.0000 0.0000 9.4078 0.0000 0.0000
# 5 0.0000 0.0000 0.0000 0.0000 9.4077 0.0000
# 6 0.0000 0.0000 0.0000 0.0000 0.0000 21.6863
#
#
#
# Elastic Compliance Matrix: (Units=1/GPa)
#
#
# Indices 1 2 3 4 5 6 
#
# 1 0.018421 0.000718 -0.005666 0.000000 0.000000 0.000000
# 2 0.000718 0.018421 -0.005667 0.000000 0.000000 0.000000
# 3 -0.005666 -0.005667 0.016494 0.000000 0.000000 0.000000
# 4 0.000000 0.000000 0.000000 0.106295 0.000000 0.000000
# 5 0.000000 0.000000 0.000000 0.000000 0.106295 0.000000
# 6 0.000000 0.000000 0.000000 0.000000 0.000000 0.046112
#
#
# Mechanical properties :
#
#
# Convention : Reuss Voigt Hill
#
# Bulk Modulus (GPa) = 31.14642 33.04766 32.09704
# Shear Modulus (GPa) = 14.53609 18.00483 16.27046
#
# Velocity S-wave (km/s) = 2.61755 2.91317 2.76930
# Velocity P-wave (km/s) = 4.88019 5.18578 5.03530
#
# Compressibility (1/GPa) = 0.03210642
#
# Stress axis : x y z
#
# Youngs Moduli (GPa) = 54.28534 54.28461 60.62692
#
# Poissons Ratio (x) = -0.03896 0.34354
# Poissons Ratio (y) = -0.03896 0.34355
# Poissons Ratio (z) = 0.30760 0.30761
#
# Static dielectric constant tensor:
#      x y z
#    x 1.809560 0.000000 0.000000 
#    y 0.000000 1.809560 0.000000 
#    z 0.000000 0.000000 1.941390 
# 
# From -- ./inp_files/6252.got.cif
#   From: 2010.05.17/outbox.cif.g08.bks.cpg/sg118_4_cif.got.tgz:6252.got - 2010.05.20 11:17:24.
