data_PCOD9558594
_publ_section_title
;
Structure prediction by ZEFSAII (Michael W. Deem and Ramdas Pophale) SiO2 
 PCOD9558594
Probable space group: P -4 N 2
;
_chemical_formula_sum "Si O2"
_cell_formula_units_Z 56
_cell_length_a 15.020685
_cell_length_b 15.020685
_cell_length_c 11.936304
_cell_angle_alpha 90.000000
_cell_angle_beta 90.000000
_cell_angle_gamma 90.000000
_cell_volume 2693.080581
_symmetry_space_group_name_H-M "P -4 N 2"
_symmetry_group_IT_number 118
_symmetry_cell_setting 'tetragonal'
loop_
_space_group_symop_operation_xyz
x,y,z
y,-x,-z
-x,-y,z
-y,x,-z
1/2+y,1/2+x,1/2-z
1/2-y,1/2-x,1/2-z
1/2-x,1/2+y,1/2+z
1/2+x,1/2-y,1/2+z
loop_
_atom_site_type_symbol
_atom_site_label
_atom_site_fract_x
_atom_site_fract_y
_atom_site_fract_z
Si Si1 0.422140 0.445090 0.815976
Si Si2 0.095598 0.454283 0.367968
Si Si3 0.693234 0.616287 0.621463
Si Si4 0.248754 0.047365 0.968002
Si Si5 0.313808 0.523892 0.996182
Si Si6 0.705058 0.156837 0.492647
Si Si7 0.181324 0.701763 0.617478
O O1 0.500000 0.500000 0.751964
O O2 0.336901 0.425684 0.738562
O O3 0.449922 0.354606 0.882655
O O4 0.394864 0.517562 0.909313
O O5 0.095572 0.404429 0.250000
O O6 0.177927 0.521175 0.375972
O O7 0.111151 0.385180 0.466751
O O8 0.000000 0.500000 0.378746
O O9 0.607610 0.672856 0.585067
O O10 0.710957 0.539087 0.530488
O O11 0.780288 0.680134 0.613005
O O12 0.298127 0.108484 0.058707
O O13 0.273833 0.424311 0.989647
O O14 0.244327 0.594132 0.942714
O O15 0.741510 0.228092 0.582983
O O16 0.184412 0.684412 0.750000
#
# Coordination Sequence:
#
# PCOD9558594 Si02
#       7
#     8   8   8   8   8   8   8
#     4  12  23  41  63  98 133 177 228 284 352 410
#     4  10  21  39  62  92 129 174 228 280 340 411
#     4  10  25  41  66  94 140 176 229 279 351 410
#     4  10  23  43  60 101 131 176 229 280 340 422
#     4  12  22  42  65  97 133 172 233 287 338 420
#     4  10  22  42  63  95 136 179 224 292 337 421
#     4  11  22  41  68  95 133 181 228 281 353 415
#
# _framework density 20.794031
#
# number of rings (size 3 to 8) (size 9 to 14) (size 15 to 20)
#    0.000    1.286    2.857    2.143    4.000    0.571 
#    2.571    0.000    0.000    5.571    0.000    0.000 
#    0.000    0.000    0.000    0.000    0.000    0.000 
#
# Total GULP energy -312416.585876 kJ/mol
# GULP energy per Si atom -5578.867605 kJ/mol
# Density = 2.074670 g / cm^3
# Si number density = 20.794031 Si / 1000 Ang^3
#
#
#
# Elastic Constant Matrix: (Units=GPa)
#
#
# Indices 1 2 3 4 5 6 
#
# 1 86.6178 40.7952 18.3007 0.0000 0.0000 0.0000
# 2 40.7952 86.6184 18.3003 0.0000 0.0000 0.0000
# 3 18.3007 18.3003 78.8576 0.0000 0.0000 0.0000
# 4 0.0000 0.0000 0.0000 18.9509 0.0000 0.0000
# 5 0.0000 0.0000 0.0000 0.0000 18.9498 0.0000
# 6 0.0000 0.0000 0.0000 0.0000 0.0000 58.2313
#
#
#
# Elastic Compliance Matrix: (Units=1/GPa)
#
#
# Indices 1 2 3 4 5 6 
#
# 1 0.015116 -0.006707 -0.001952 0.000000 0.000000 0.000000
# 2 -0.006707 0.015116 -0.001951 0.000000 0.000000 0.000000
# 3 -0.001952 -0.001951 0.013587 0.000000 0.000000 0.000000
# 4 0.000000 0.000000 0.000000 0.052768 0.000000 0.000000
# 5 0.000000 0.000000 0.000000 0.000000 0.052771 0.000000
# 6 0.000000 0.000000 0.000000 0.000000 0.000000 0.017173
#
#
# Mechanical properties :
#
#
# Convention : Reuss Voigt Hill
#
# Bulk Modulus (GPa) = 44.24973 45.20957 44.72965
# Shear Modulus (GPa) = 25.60376 30.87292 28.23834
#
# Velocity S-wave (km/s) = 3.51280 3.85736 3.68911
# Velocity P-wave (km/s) = 6.14648 6.45196 6.30107
#
# Compressibility (1/GPa) = 0.02259901
#
# Stress axis : x y z
#
# Youngs Moduli (GPa) = 66.15425 66.15489 73.60061
#
# Poissons Ratio (x) = 0.44370 0.14364
# Poissons Ratio (y) = 0.44370 0.14363
# Poissons Ratio (z) = 0.12910 0.12910
#
# Static dielectric constant tensor:
#      x y z
#    x 1.781240 0.000000 0.000000 
#    y 0.000000 1.781240 0.000000 
#    z 0.000000 0.000000 1.759080 
# 
# From -- ./inp_files/3445.got.cif
#   From: 2010.05.17/outbox.cif.g08.bks.cpg/sg118_2_cif.got.tgz:3445.got - 2010.05.20 11:17:24.
