data_PCOD9558289
_publ_section_title
;
Structure prediction by ZEFSAII (Michael W. Deem and Ramdas Pophale) SiO2 
 PCOD9558289
Probable space group: P -4 B 2
;
_chemical_formula_sum "Si O2"
_cell_formula_units_Z 20
_cell_length_a 10.843219
_cell_length_b 10.843219
_cell_length_c 7.100940
_cell_angle_alpha 90.000000
_cell_angle_beta 90.000000
_cell_angle_gamma 90.000000
_cell_volume 834.895849
_symmetry_space_group_name_H-M "P -4 B 2"
_symmetry_group_IT_number 117
_symmetry_cell_setting 'tetragonal'
loop_
_space_group_symop_operation_xyz
x,y,z
y,-x,-z
-x,-y,z
-y,x,-z
1/2+y,1/2+x,-z
1/2-y,1/2-x,-z
1/2-x,1/2+y,z
1/2+x,1/2-y,z
loop_
_atom_site_type_symbol
_atom_site_label
_atom_site_fract_x
_atom_site_fract_y
_atom_site_fract_z
Si Si1 0.372276 0.737847 0.170516
Si Si2 0.000000 0.000000 0.000000
Si Si3 0.642490 0.876764 0.773073
Si Si4 0.000000 0.500000 0.500000
O O1 0.244946 0.716769 0.278859
O O2 0.495220 0.788131 0.265158
O O3 0.328283 0.828283 0.000000
O O4 0.413157 0.600438 0.103091
O O5 0.520327 0.888131 0.647910
O O6 0.624985 0.875016 0.000000
#
# Coordination Sequence:
#
# PCOD9558289 Si02
#       4
#     8   2   8   2
#     4  11  22  41  70 105 143 193 246 305 373 447
#     4  12  20  40  72 114 144 196 250 312 376 462
#     4  11  24  44  69 104 143 194 248 304 373 446
#     4  12  26  40  68 102 144 196 246 308 368 446
#
# _framework density 23.955085
#
# number of rings (size 3 to 8) (size 9 to 14) (size 15 to 20)
#    0.000    0.800    8.000    3.000    0.000    1.600 
#    0.000    0.000    0.000    0.000    0.000    0.000 
#    0.000    0.000    0.000    0.000    0.000    0.000 
#
# Total GULP energy -111471.156225 kJ/mol
# GULP energy per Si atom -5573.557811 kJ/mol
# Density = 2.390056 g / cm^3
# Si number density = 23.955085 Si / 1000 Ang^3
#
#
#
# Elastic Constant Matrix: (Units=GPa)
#
#
# Indices 1 2 3 4 5 6 
#
# 1 180.9061 59.0448 25.2103 0.0000 0.0000 0.0000
# 2 59.0448 180.9059 25.2103 0.0000 0.0000 0.0000
# 3 25.2103 25.2103 122.2770 0.0000 0.0000 0.0000
# 4 0.0000 0.0000 0.0000 11.8005 0.0000 0.0000
# 5 0.0000 0.0000 0.0000 0.0000 11.8005 0.0000
# 6 0.0000 0.0000 0.0000 0.0000 0.0000 77.1748
#
#
#
# Elastic Compliance Matrix: (Units=1/GPa)
#
#
# Indices 1 2 3 4 5 6 
#
# 1 0.006281 -0.001925 -0.000898 0.000000 0.000000 0.000000
# 2 -0.001925 0.006281 -0.000898 0.000000 0.000000 0.000000
# 3 -0.000898 -0.000898 0.008549 0.000000 0.000000 0.000000
# 4 0.000000 0.000000 0.000000 0.084742 0.000000 0.000000
# 5 0.000000 0.000000 0.000000 0.000000 0.084742 0.000000
# 6 0.000000 0.000000 0.000000 0.000000 0.000000 0.012958
#
#
# Mechanical properties :
#
#
# Convention : Reuss Voigt Hill
#
# Bulk Modulus (GPa) = 73.16136 78.11333 75.63734
# Shear Modulus (GPa) = 23.19634 45.13006 34.16320
#
# Velocity S-wave (km/s) = 3.11517 4.34515 3.78052
# Velocity P-wave (km/s) = 6.59897 7.60610 7.12037
#
# Compressibility (1/GPa) = 0.01366842
#
# Stress axis : x y z
#
# Youngs Moduli (GPa) = 159.20653 159.20632 116.97957
#
# Poissons Ratio (x) = 0.30646 0.10506
# Poissons Ratio (y) = 0.30646 0.10506
# Poissons Ratio (z) = 0.14299 0.14299
#
# Static dielectric constant tensor:
#      x y z
#    x 2.022240 0.000000 0.000000 
#    y 0.000000 2.022240 0.000000 
#    z 0.000000 0.000000 1.954550 
# 
# From -- ./inp_files/1170.got.cif
#   From: 2010.05.17/outbox.cif.g08.bks.cpg/sg117_1_cif.got.tgz:1170.got - 2010.05.20 11:15:09.
