data_PCOD9558083
_publ_section_title
;
Structure prediction by ZEFSAII (Michael W. Deem and Ramdas Pophale) SiO2 
 PCOD9558083
Probable space group: P -4 B 2
;
_chemical_formula_sum "Si O2"
_cell_formula_units_Z 40
_cell_length_a 18.493670
_cell_length_b 18.493670
_cell_length_c 5.120361
_cell_angle_alpha 90.000000
_cell_angle_beta 90.000000
_cell_angle_gamma 90.000000
_cell_volume 1751.244518
_symmetry_space_group_name_H-M "P -4 B 2"
_symmetry_group_IT_number 117
_symmetry_cell_setting 'tetragonal'
loop_
_space_group_symop_operation_xyz
x,y,z
y,-x,-z
-x,-y,z
-y,x,-z
1/2+y,1/2+x,-z
1/2-y,1/2-x,-z
1/2-x,1/2+y,z
1/2+x,1/2-y,z
loop_
_atom_site_type_symbol
_atom_site_label
_atom_site_fract_x
_atom_site_fract_y
_atom_site_fract_z
Si Si1 0.990457 0.184368 0.727801
Si Si2 0.894463 0.461111 0.740984
Si Si3 0.959208 0.735177 0.203970
Si Si4 0.354778 0.372404 0.994111
Si Si5 0.726878 0.838351 0.740110
O O1 0.011056 0.216645 0.447233
O O2 0.052796 0.132935 0.849240
O O3 0.913920 0.146601 0.775812
O O4 0.994696 0.250700 0.936858
O O5 0.946088 0.446088 0.500000
O O6 0.850324 0.536290 0.746596
O O7 0.825938 0.406603 0.698848
O O8 0.936683 0.436683 0.000000
O O9 0.884338 0.775177 0.130337
O O10 0.356466 0.309058 0.204093
O O11 0.714211 0.785790 0.500000
O O12 0.698905 0.801096 0.000000
#
# Coordination Sequence:
#
# PCOD9558083 Si02
#       5
#     8   8   8   8   8
#     4  10  23  34  55  72 109 147 190 228 270 328
#     4  10  19  33  52  77 104 135 182 226 279 335
#     4  10  22  34  55  75 107 145 184 232 275 328
#     4  10  23  38  55  74 115 142 197 226 288 325
#     4  10  21  31  54  77 101 139 178 226 282 339
#
# _framework density 22.840899
#
# number of rings (size 3 to 8) (size 9 to 14) (size 15 to 20)
#    1.200    0.800    2.000    1.200   11.200    0.400 
#    0.000    0.000    0.000    0.000    0.000    0.000 
#    0.000    0.800    2.400    0.000    0.000    0.000 
#
# Total GULP energy -223025.868510 kJ/mol
# GULP energy per Si atom -5575.646713 kJ/mol
# Density = 2.278891 g / cm^3
# Si number density = 22.840899 Si / 1000 Ang^3
#
#
#
# Elastic Constant Matrix: (Units=GPa)
#
#
# Indices 1 2 3 4 5 6 
#
# 1 31.2836 56.6570 15.9931 0.0000 0.0000 0.0000
# 2 56.6570 31.2831 15.9910 0.0000 0.0000 0.0000
# 3 15.9931 15.9910 119.3254 0.0000 0.0000 0.0000
# 4 0.0000 0.0000 0.0000 61.4944 0.0000 0.0000
# 5 0.0000 0.0000 0.0000 0.0000 61.4924 0.0000
# 6 0.0000 0.0000 0.0000 0.0000 0.0000 35.4524
#
#
#
# Elastic Compliance Matrix: (Units=1/GPa)
#
#
# Indices 1 2 3 4 5 6 
#
# 1 -0.013728 0.025682 -0.001602 0.000000 0.000000 0.000000
# 2 0.025682 -0.013728 -0.001602 0.000000 0.000000 0.000000
# 3 -0.001602 -0.001602 0.008810 0.000000 0.000000 0.000000
# 4 0.000000 0.000000 0.000000 0.016262 0.000000 0.000000
# 5 0.000000 0.000000 0.000000 0.000000 0.016262 0.000000
# 6 0.000000 0.000000 0.000000 0.000000 0.000000 0.028207
#
#
# Mechanical properties :
#
#
# Convention : Reuss Voigt Hill
#
# Bulk Modulus (GPa) = 38.00897 39.90826 38.95861
# Shear Modulus (GPa) = 847.90486 37.90457 442.90472
#
# Velocity S-wave (km/s) = 19.28803 4.07812 13.94021
# Velocity P-wave (km/s) = 22.64320 6.29960 16.61926
#
# Compressibility (1/GPa) = 0.02630958
#
# Stress axis : x y z
#
# Youngs Moduli (GPa) = -72.84131 -72.84168 113.50913
#
# Poissons Ratio (x) = 1.87075 0.18181
# Poissons Ratio (y) = 1.87074 0.18189
# Poissons Ratio (z) = -0.11667 -0.11672
#
# Static dielectric constant tensor:
#      x y z
#    x 1.888340 0.000000 0.000000 
#    y 0.000000 1.888340 0.000000 
#    z 0.000000 0.000000 1.832680 
# 
# From -- ./inp_files/575.got.cif
#   From: 2010.05.17/outbox.cif.g08.bks.cpg/sg117_1_cif.got.tgz:575.got - 2010.05.20 11:15:09.
