data_PCOD9558925
_publ_section_title
;
Structure prediction by ZEFSAII (Michael W. Deem and Ramdas Pophale) SiO2 
 PCOD9558925
Probable space group: P -4 N 2
;
_chemical_formula_sum "Si O2"
_cell_formula_units_Z 20
_cell_length_a 5.135014
_cell_length_b 5.135014
_cell_length_c 31.991750
_cell_angle_alpha 90.000000
_cell_angle_beta 90.000000
_cell_angle_gamma 90.000000
_cell_volume 843.570262
_symmetry_space_group_name_H-M "P -4 N 2"
_symmetry_group_IT_number 118
_symmetry_cell_setting 'tetragonal'
loop_
_space_group_symop_operation_xyz
x,y,z
y,-x,-z
-x,-y,z
-y,x,-z
1/2+y,1/2+x,1/2-z
1/2-y,1/2-x,1/2-z
1/2-x,1/2+y,1/2+z
1/2+x,1/2-y,1/2+z
loop_
_atom_site_type_symbol
_atom_site_label
_atom_site_fract_x
_atom_site_fract_y
_atom_site_fract_z
Si Si1 0.000000 0.000000 0.500000
Si Si2 0.000000 0.000000 0.888270
Si Si3 0.000000 0.500000 0.943810
Si Si4 0.000000 0.500000 0.750000
Si Si5 0.366773 0.743057 0.819733
O O1 0.932701 0.250063 0.528132
O O2 0.207874 0.886088 0.855821
O O3 0.925745 0.753607 0.916499
O O4 0.221873 0.574575 0.783797
O O5 0.500000 0.500000 0.842742
O O6 0.500000 0.000000 0.799482
#
# Coordination Sequence:
#
# PCOD9558925 Si02
#       5
#     2   4   4   2   8
#     4  12  28  52  80 130 156 212 256 318 420 480
#     4  12  28  51  78 119 154 216 270 331 404 475
#     4  12  27  50  86 117 168 206 260 333 392 506
#     4  12  28  48  70 118 156 218 286 336 406 466
#     4  12  28  49  78 112 159 218 272 346 404 474
#
# _framework density 23.708755
#
# number of rings (size 3 to 8) (size 9 to 14) (size 15 to 20)
#    0.000    0.000    0.000    9.000   16.800    0.000 
#    0.000    0.000    0.000    0.000    0.000    0.000 
#    0.000    0.000    0.000    0.000    0.000    0.000 
#
# Total GULP energy -111481.568886 kJ/mol
# GULP energy per Si atom -5574.078444 kJ/mol
# Density = 2.365479 g / cm^3
# Si number density = 23.708755 Si / 1000 Ang^3
#
#
#
# Elastic Constant Matrix: (Units=GPa)
#
#
# Indices 1 2 3 4 5 6 
#
# 1 159.6388 58.9420 39.4457 0.0000 0.0000 0.0000
# 2 58.9420 159.6388 39.4457 0.0000 0.0000 0.0000
# 3 39.4457 39.4457 102.6569 0.0000 0.0000 0.0000
# 4 0.0000 0.0000 0.0000 75.8581 0.0000 0.0000
# 5 0.0000 0.0000 0.0000 0.0000 75.8581 0.0000
# 6 0.0000 0.0000 0.0000 0.0000 0.0000 49.8227
#
#
#
# Elastic Compliance Matrix: (Units=1/GPa)
#
#
# Indices 1 2 3 4 5 6 
#
# 1 0.007621 -0.002310 -0.002041 0.000000 0.000000 0.000000
# 2 -0.002310 0.007621 -0.002041 0.000000 0.000000 0.000000
# 3 -0.002041 -0.002041 0.011310 0.000000 0.000000 0.000000
# 4 0.000000 0.000000 0.000000 0.013183 0.000000 0.000000
# 5 0.000000 0.000000 0.000000 0.000000 0.013183 0.000000
# 6 0.000000 0.000000 0.000000 0.000000 0.000000 0.020071
#
#
# Mechanical properties :
#
#
# Convention : Reuss Voigt Hill
#
# Bulk Modulus (GPa) = 72.62701 77.51126 75.06913
# Shear Modulus (GPa) = 55.33359 59.24785 57.29072
#
# Velocity S-wave (km/s) = 4.83627 5.00441 4.92106
# Velocity P-wave (km/s) = 7.86674 8.13365 8.00131
#
# Compressibility (1/GPa) = 0.01376898
#
# Stress axis : x y z
#
# Youngs Moduli (GPa) = 131.21286 131.21286 88.41992
#
# Poissons Ratio (x) = 0.30305 0.18046
# Poissons Ratio (y) = 0.30305 0.18046
# Poissons Ratio (z) = 0.26780 0.26780
#
# Static dielectric constant tensor:
#      x y z
#    x 1.830270 0.000000 0.000000 
#    y 0.000000 1.830270 0.000000 
#    z 0.000000 0.000000 1.914830 
# 
# From -- ./inp_files/6347.got.cif
#   From: 2010.05.17/outbox.cif.g08.bks.cpg/sg118_4_cif.got.tgz:6347.got - 2010.05.20 11:17:24.
