data_PCOD9558908
_publ_section_title
;
Structure prediction by ZEFSAII (Michael W. Deem and Ramdas Pophale) SiO2 
 PCOD9558908
Probable space group: P -4 N 2
;
_chemical_formula_sum "Si O2"
_cell_formula_units_Z 22
_cell_length_a 13.836502
_cell_length_b 13.836502
_cell_length_c 4.791261
_cell_angle_alpha 90.000000
_cell_angle_beta 90.000000
_cell_angle_gamma 90.000000
_cell_volume 917.281110
_symmetry_space_group_name_H-M "P -4 N 2"
_symmetry_group_IT_number 118
_symmetry_cell_setting 'tetragonal'
loop_
_space_group_symop_operation_xyz
x,y,z
y,-x,-z
-x,-y,z
-y,x,-z
1/2+y,1/2+x,1/2-z
1/2-y,1/2-x,1/2-z
1/2-x,1/2+y,1/2+z
1/2+x,1/2-y,1/2+z
loop_
_atom_site_type_symbol
_atom_site_label
_atom_site_fract_x
_atom_site_fract_y
_atom_site_fract_z
Si Si1 0.288747 0.972858 0.589104
Si Si2 0.778323 0.721678 0.750000
Si Si3 0.000000 0.500000 0.250000
Si Si4 0.242433 0.594256 0.618713
O O1 0.403329 0.995451 0.566861
O O2 0.220959 0.041351 0.397452
O O3 0.278670 0.865282 0.472908
O O4 0.272678 0.004567 0.907923
O O5 0.679096 0.713960 0.571884
O O6 0.151689 0.651689 0.750000
#
# Coordination Sequence:
#
# PCOD9558908 Si02
#       4
#     8   4   2   8
#     4  12  27  40  74 104 149 191 234 318 378 458
#     4  12  29  43  78 111 143 202 258 290 392 468
#     4  12  22  42  64 122 146 170 248 302 428 462
#     4  12  24  47  63 104 151 191 233 305 369 452
#
# _framework density 23.983923999999998
#
# number of rings (size 3 to 8) (size 9 to 14) (size 15 to 20)
#    0.000    0.000    7.273    2.182    7.636    1.455 
#    0.000    0.000    0.000    6.545    0.000    0.000 
#    0.000    0.000    0.000    0.000    0.000    0.000 
#
# Total GULP energy -122619.500093 kJ/mol
# GULP energy per Si atom -5573.613641 kJ/mol
# Density = 2.392934 g / cm^3
# Si number density = 23.983924 Si / 1000 Ang^3
#
#
#
# Elastic Constant Matrix: (Units=GPa)
#
#
# Indices 1 2 3 4 5 6 
#
# 1 181.3034 -53.3107 42.8450 0.0000 0.0000 0.0000
# 2 -53.3107 181.3069 42.8453 0.0000 0.0000 0.0000
# 3 42.8450 42.8453 166.6808 0.0000 0.0000 0.0000
# 4 0.0000 0.0000 0.0000 50.5773 0.0000 0.0000
# 5 0.0000 0.0000 0.0000 0.0000 50.5772 0.0000
# 6 0.0000 0.0000 0.0000 0.0000 0.0000 32.5477
#
#
#
# Elastic Compliance Matrix: (Units=1/GPa)
#
#
# Indices 1 2 3 4 5 6 
#
# 1 0.006850 0.002587 -0.002426 0.000000 0.000000 0.000000
# 2 0.002587 0.006849 -0.002426 0.000000 0.000000 0.000000
# 3 -0.002426 -0.002426 0.007247 0.000000 0.000000 0.000000
# 4 0.000000 0.000000 0.000000 0.019772 0.000000 0.000000
# 5 0.000000 0.000000 0.000000 0.000000 0.019772 0.000000
# 6 0.000000 0.000000 0.000000 0.000000 0.000000 0.030724
#
#
# Mechanical properties :
#
#
# Convention : Reuss Voigt Hill
#
# Bulk Modulus (GPa) = 60.91141 66.00562 63.45851
# Shear Modulus (GPa) = 49.40022 59.86785 54.63404
#
# Velocity S-wave (km/s) = 4.54334 5.00158 4.77796
# Velocity P-wave (km/s) = 7.27836 7.80609 7.54684
#
# Compressibility (1/GPa) = 0.01641729
#
# Stress axis : x y z
#
# Youngs Moduli (GPa) = 145.99348 145.99632 137.99664
#
# Poissons Ratio (x) = -0.37773 0.33474
# Poissons Ratio (y) = -0.37772 0.33474
# Poissons Ratio (z) = 0.35414 0.35415
#
# Static dielectric constant tensor:
#      x y z
#    x 2.005830 0.000000 0.000000 
#    y 0.000000 2.005840 0.000000 
#    z 0.000000 0.000000 1.929030 
# 
# From -- ./inp_files/242.got.cif
#   From: 2010.05.17/outbox.cif.g08.bks.cpg/sg118_1_cif.got.tgz:242.got - 2010.05.20 11:17:24.
