data_PCOD9558479
_publ_section_title
;
Structure prediction by ZEFSAII (Michael W. Deem and Ramdas Pophale) SiO2 
 PCOD9558479
Probable space group: P -4 N 2
;
_chemical_formula_sum "Si O2"
_cell_formula_units_Z 64
_cell_length_a 28.136776
_cell_length_b 28.136776
_cell_length_c 5.418818
_cell_angle_alpha 90.000000
_cell_angle_beta 90.000000
_cell_angle_gamma 90.000000
_cell_volume 4289.959884
_symmetry_space_group_name_H-M "P -4 N 2"
_symmetry_group_IT_number 118
_symmetry_cell_setting 'tetragonal'
loop_
_space_group_symop_operation_xyz
x,y,z
y,-x,-z
-x,-y,z
-y,x,-z
1/2+y,1/2+x,1/2-z
1/2-y,1/2-x,1/2-z
1/2-x,1/2+y,1/2+z
1/2+x,1/2-y,1/2+z
loop_
_atom_site_type_symbol
_atom_site_label
_atom_site_fract_x
_atom_site_fract_y
_atom_site_fract_z
Si Si1 0.192107 0.037635 0.962107
Si Si2 0.093983 0.899840 0.060912
Si Si3 0.333755 0.359995 0.950184
Si Si4 0.782334 0.753170 0.503450
Si Si5 0.482443 0.569829 0.061818
Si Si6 0.165702 0.701086 0.501771
Si Si7 0.717129 0.410446 0.948858
Si Si8 0.157881 0.954427 0.693022
O O1 0.137220 0.052965 0.997648
O O2 0.209433 0.063824 0.711825
O O3 0.190310 0.982677 0.883558
O O4 0.217561 0.054719 0.211915
O O5 0.136380 0.871113 0.201590
O O6 0.074829 0.942727 0.228634
O O7 0.118735 0.923770 0.833040
O O8 0.287106 0.327742 0.961704
O O9 0.373082 0.326754 0.091825
O O10 0.318730 0.412776 0.036026
O O11 0.776624 0.723377 0.250000
O O12 0.737642 0.789673 0.500862
O O13 0.777677 0.722324 0.750000
O O14 0.531813 0.543781 0.121317
O O15 0.489446 0.623886 0.966316
O O16 0.170611 0.670611 0.750000
O O17 0.120102 0.734992 0.523146
O O18 0.171060 0.671060 0.250000
#
# Coordination Sequence:
#
# PCOD9558479 Si02
#       8
#     8   8   8   8   8   8   8   8
#     4  11  22  34  46  61  84 112 145 179 225 264
#     4  10  21  31  45  58  80 107 146 183 231 276
#     4   9  20  32  46  63  84 109 137 173 222 273
#     4   9  18  29  47  67  88 103 126 161 211 273
#     4  10  21  33  43  57  76 101 145 200 247 275
#     4   9  16  28  48  70  87 104 127 157 209 274
#     4  10  20  34  48  65  88 109 134 176 221 270
#     4  11  22  31  46  58  80 115 147 185 221 285
#
# _framework density 14.918554
#
# number of rings (size 3 to 8) (size 9 to 14) (size 15 to 20)
#    0.000    2.125    2.500    0.750    7.000    3.000 
#    0.000    1.250    0.000    0.000    0.000    0.000 
#    0.000    0.000    0.000    0.000    0.000    0.000 
#
# Total GULP energy -356282.258307 kJ/mol
# GULP energy per Si atom -5566.910286 kJ/mol
# Density = 1.488460 g / cm^3
# Si number density = 14.918554 Si / 1000 Ang^3
#
#
#
# Elastic Constant Matrix: (Units=GPa)
#
#
# Indices 1 2 3 4 5 6 
#
# 1 33.3998 24.3355 18.0021 0.0000 0.0000 0.0000
# 2 24.3355 33.4008 18.0022 0.0000 0.0000 0.0000
# 3 18.0021 18.0022 70.2119 0.0000 0.0000 0.0000
# 4 0.0000 0.0000 0.0000 13.9339 0.0000 0.0000
# 5 0.0000 0.0000 0.0000 0.0000 13.9339 0.0000
# 6 0.0000 0.0000 0.0000 0.0000 0.0000 18.4261
#
#
#
# Elastic Compliance Matrix: (Units=1/GPa)
#
#
# Indices 1 2 3 4 5 6 
#
# 1 0.065468 -0.044850 -0.005286 0.000000 0.000000 0.000000
# 2 -0.044850 0.065466 -0.005286 0.000000 0.000000 0.000000
# 3 -0.005286 -0.005286 0.016953 0.000000 0.000000 0.000000
# 4 0.000000 0.000000 0.000000 0.071767 0.000000 0.000000
# 5 0.000000 0.000000 0.000000 0.000000 0.071767 0.000000
# 6 0.000000 0.000000 0.000000 0.000000 0.000000 0.054271
#
#
# Mechanical properties :
#
#
# Convention : Reuss Voigt Hill
#
# Bulk Modulus (GPa) = 26.99611 28.63246 27.81429
# Shear Modulus (GPa) = 10.66361 14.37030 12.51696
#
# Velocity S-wave (km/s) = 2.67645 3.10699 2.89973
# Velocity P-wave (km/s) = 5.26176 5.66616 5.46770
#
# Compressibility (1/GPa) = 0.03704237
#
# Stress axis : x y z
#
# Youngs Moduli (GPa) = 15.27466 15.27520 58.98566
#
# Poissons Ratio (x) = 0.68509 0.31182
# Poissons Ratio (y) = 0.68507 0.31179
# Poissons Ratio (z) = 0.08075 0.08074
#
# Static dielectric constant tensor:
#      x y z
#    x 1.520200 0.000000 0.000000 
#    y 0.000000 1.520200 0.000000 
#    z 0.000000 0.000000 1.581860 
# 
# From -- ./inp_files/1009.got.cif
#   From: 2010.05.17/outbox.cif.g08.bks.cpg/sg118_1_cif.got.tgz:1009.got - 2010.05.20 11:17:24.
