data_PCOD9558247
_publ_section_title
;
Structure prediction by ZEFSAII (Michael W. Deem and Ramdas Pophale) SiO2 
 PCOD9558247
Probable space group: P -4 B 2
;
_chemical_formula_sum "Si O2"
_cell_formula_units_Z 34
_cell_length_a 9.256952
_cell_length_b 9.256952
_cell_length_c 18.781804
_cell_angle_alpha 90.000000
_cell_angle_beta 90.000000
_cell_angle_gamma 90.000000
_cell_volume 1609.434578
_symmetry_space_group_name_H-M "P -4 B 2"
_symmetry_group_IT_number 117
_symmetry_cell_setting 'tetragonal'
loop_
_space_group_symop_operation_xyz
x,y,z
y,-x,-z
-x,-y,z
-y,x,-z
1/2+y,1/2+x,-z
1/2-y,1/2-x,-z
1/2-x,1/2+y,z
1/2+x,1/2-y,z
loop_
_atom_site_type_symbol
_atom_site_label
_atom_site_fract_x
_atom_site_fract_y
_atom_site_fract_z
Si Si1 0.086683 0.856173 0.837534
Si Si2 0.134182 0.391819 0.083461
Si Si3 0.805951 0.567978 0.627994
Si Si4 0.904212 0.284516 0.684302
Si Si5 0.000000 0.500000 0.500000
O O1 0.244769 0.880042 0.871374
O O2 0.098695 0.766040 0.765051
O O3 0.984345 0.771241 0.892279
O O4 0.000000 0.000000 0.819568
O O5 0.000000 0.500000 0.094779
O O6 0.143960 0.356041 0.000000
O O7 0.804107 0.426005 0.676460
O O8 0.662077 0.659891 0.634509
O O9 0.937917 0.666002 0.658197
O O10 0.861233 0.511683 0.551446
#
# Coordination Sequence:
#
# PCOD9558247 Si02
#       5
#     8   8   8   8   2
#     4  12  27  44  73  98 137 187 237 291 366 425
#     4  11  28  46  69 101 138 180 234 300 358 437
#     4  10  23  42  70  98 147 171 234 279 342 419
#     4  10  24  41  65 102 133 179 225 290 337 413
#     4   8  20  44  64 102 132 194 210 284 336 406
#
# _framework density 21.125429
#
# number of rings (size 3 to 8) (size 9 to 14) (size 15 to 20)
#    0.000    1.647    0.000    2.824   19.765    3.765 
#    0.000    0.000    0.000   11.294    0.000    0.000 
#    0.000    0.000    0.000    0.000    0.000    0.000 
#
# Total GULP energy -190126.494593 kJ/mol
# GULP energy per Si atom -5591.955723 kJ/mol
# Density = 2.107735 g / cm^3
# Si number density = 21.125429 Si / 1000 Ang^3
#
#
#
# Elastic Constant Matrix: (Units=GPa)
#
#
# Indices 1 2 3 4 5 6 
#
# 1 94.0126 32.9196 54.8384 0.0000 0.0000 0.0000
# 2 32.9196 94.0129 54.8383 0.0000 0.0000 0.0000
# 3 54.8384 54.8383 146.2866 0.0000 0.0000 0.0000
# 4 0.0000 0.0000 0.0000 22.3365 0.0000 0.0000
# 5 0.0000 0.0000 0.0000 0.0000 22.3356 0.0000
# 6 0.0000 0.0000 0.0000 0.0000 0.0000 50.5738
#
#
#
# Elastic Compliance Matrix: (Units=1/GPa)
#
#
# Indices 1 2 3 4 5 6 
#
# 1 0.014011 -0.002358 -0.004368 0.000000 0.000000 0.000000
# 2 -0.002358 0.014010 -0.004368 0.000000 0.000000 0.000000
# 3 -0.004368 -0.004368 0.010111 0.000000 0.000000 0.000000
# 4 0.000000 0.000000 0.000000 0.044770 0.000000 0.000000
# 5 0.000000 0.000000 0.000000 0.000000 0.044772 0.000000
# 6 0.000000 0.000000 0.000000 0.000000 0.000000 0.019773
#
#
# Mechanical properties :
#
#
# Convention : Reuss Voigt Hill
#
# Bulk Modulus (GPa) = 62.72237 68.83386 65.77811
# Shear Modulus (GPa) = 28.57971 31.83025 30.20498
#
# Velocity S-wave (km/s) = 3.68211 3.88587 3.78536
# Velocity P-wave (km/s) = 6.91608 7.26550 7.09294
#
# Compressibility (1/GPa) = 0.01594328
#
# Stress axis : x y z
#
# Youngs Moduli (GPa) = 71.37485 71.37516 98.90328
#
# Poissons Ratio (x) = 0.16830 0.43203
# Poissons Ratio (y) = 0.16830 0.43203
# Poissons Ratio (z) = 0.31178 0.31178
#
# Static dielectric constant tensor:
#      x y z
#    x 1.828310 0.000000 0.000000 
#    y 0.000000 1.828300 0.000000 
#    z 0.000000 0.000000 1.753240 
# 
# From -- ./inp_files/3422.got.cif
#   From: 2010.05.17/outbox.cif.g08.bks.cpg/sg117_2_cif.got.tgz:3422.got - 2010.05.20 11:15:09.
