data_PCOD9558382
_publ_section_title
;
Structure prediction by ZEFSAII (Michael W. Deem and Ramdas Pophale) SiO2 
 PCOD9558382
Probable space group: P -4 N 2
;
_chemical_formula_sum "Si O2"
_cell_formula_units_Z 56
_cell_length_a 19.954447
_cell_length_b 19.954447
_cell_length_c 7.447468
_cell_angle_alpha 90.000000
_cell_angle_beta 90.000000
_cell_angle_gamma 90.000000
_cell_volume 2965.432474
_symmetry_space_group_name_H-M "P -4 N 2"
_symmetry_group_IT_number 118
_symmetry_cell_setting 'tetragonal'
loop_
_space_group_symop_operation_xyz
x,y,z
y,-x,-z
-x,-y,z
-y,x,-z
1/2+y,1/2+x,1/2-z
1/2-y,1/2-x,1/2-z
1/2-x,1/2+y,1/2+z
1/2+x,1/2-y,1/2+z
loop_
_atom_site_type_symbol
_atom_site_label
_atom_site_fract_x
_atom_site_fract_y
_atom_site_fract_z
Si Si1 0.652824 0.738722 0.033785
Si Si2 0.652824 0.738722 0.466214
Si Si3 0.486865 0.202152 0.538520
Si Si4 0.944891 0.444891 0.030291
Si Si5 0.797848 0.486865 0.038520
Si Si6 0.631976 0.241947 0.531195
Si Si7 0.868024 0.741947 0.468805
O O1 0.654843 0.739146 0.250000
O O2 0.697800 0.802200 0.972000
O O3 0.691669 0.672053 0.972309
O O4 0.576455 0.749190 0.980743
O O5 0.576455 0.749190 0.519257
O O6 0.691669 0.672053 0.527691
O O7 0.465867 0.129070 0.466497
O O8 0.498501 0.191750 0.750000
O O9 0.556589 0.231004 0.466021
O O10 0.943008 0.443008 0.250000
O O11 0.870930 0.465867 0.966497
O O12 0.000000 0.500000 0.979921
O O13 0.768996 0.556589 0.966021
O O14 0.678664 0.178664 0.482665
O O15 0.631065 0.244472 0.750000
#
# Coordination Sequence:
#
# PCOD9558382 Si02
#       7
#     8   8   8   8   8   8   8
#     4   9  17  30  46  63  88 122 153 178 216 271
#     4   9  17  30  46  63  88 122 153 178 216 271
#     4  10  17  27  46  70  91 112 147 190 226 257
#     4   9  16  24  39  67  97 117 135 172 225 270
#     4  10  17  27  46  70  91 112 147 190 226 257
#     4   8  15  28  46  66  88 118 153 184 215 264
#     4   8  15  28  46  66  88 118 153 184 215 264
#
# _framework density 18.884260999999999
#
# number of rings (size 3 to 8) (size 9 to 14) (size 15 to 20)
#    0.000    3.000    1.429    2.571    0.000    3.429 
#    0.000    1.429    0.000    6.857    0.000    6.000 
#    0.000    0.000    0.000    0.000    0.000    0.000 
#
# Total GULP energy -312330.244514 kJ/mol
# GULP energy per Si atom -5577.325795 kJ/mol
# Density = 1.884128 g / cm^3
# Si number density = 18.884261 Si / 1000 Ang^3
#
#
#
# Elastic Constant Matrix: (Units=GPa)
#
#
# Indices 1 2 3 4 5 6 
#
# 1 157.2677 107.9927 -3.8748 0.0000 0.0000 0.0000
# 2 107.9927 157.2677 -3.8748 0.0000 0.0000 0.0000
# 3 -3.8748 -3.8748 51.6472 0.0000 0.0000 0.0000
# 4 0.0000 0.0000 0.0000 9.8252 0.0000 0.0000
# 5 0.0000 0.0000 0.0000 0.0000 9.8252 0.0000
# 6 0.0000 0.0000 0.0000 0.0000 0.0000 20.2717
#
#
#
# Elastic Compliance Matrix: (Units=1/GPa)
#
#
# Indices 1 2 3 4 5 6 
#
# 1 0.012036 -0.008258 0.000283 0.000000 0.000000 0.000000
# 2 -0.008258 0.012036 0.000283 0.000000 0.000000 0.000000
# 3 0.000283 0.000283 0.019405 0.000000 0.000000 0.000000
# 4 0.000000 0.000000 0.000000 0.101779 0.000000 0.000000
# 5 0.000000 0.000000 0.000000 0.000000 0.101779 0.000000
# 6 0.000000 0.000000 0.000000 0.000000 0.000000 0.049330
#
#
# Mechanical properties :
#
#
# Convention : Reuss Voigt Hill
#
# Bulk Modulus (GPa) = 35.59379 62.96320 49.27849
# Shear Modulus (GPa) = 15.57087 25.71372 20.64230
#
# Velocity S-wave (km/s) = 2.87460 3.69405 3.30979
# Velocity P-wave (km/s) = 5.46874 7.18392 6.38419
#
# Compressibility (1/GPa) = 0.02809479
#
# Stress axis : x y z
#
# Youngs Moduli (GPa) = 83.08255 83.08255 51.53403
#
# Poissons Ratio (x) = 0.68610 -0.01461
# Poissons Ratio (y) = 0.68610 -0.01461
# Poissons Ratio (z) = -0.02355 -0.02355
#
# Static dielectric constant tensor:
#      x y z
#    x 1.643840 0.000000 0.000000 
#    y 0.000000 1.643840 0.000000 
#    z 0.000000 0.000000 1.740930 
# 
# From -- ./inp_files/3476.got.cif
#   From: 2010.05.17/outbox.cif.g08.bks.cpg/sg118_2_cif.got.tgz:3476.got - 2010.05.20 11:17:24.
