data_PCOD9558481
_publ_section_title
;
Structure prediction by ZEFSAII (Michael W. Deem and Ramdas Pophale) SiO2 
 PCOD9558481
Probable space group: P -4 N 2
;
_chemical_formula_sum "Si O2"
_cell_formula_units_Z 48
_cell_length_a 11.555799
_cell_length_b 11.555799
_cell_length_c 21.006996
_cell_angle_alpha 90.000000
_cell_angle_beta 90.000000
_cell_angle_gamma 90.000000
_cell_volume 2805.200522
_symmetry_space_group_name_H-M "P -4 N 2"
_symmetry_group_IT_number 118
_symmetry_cell_setting 'tetragonal'
loop_
_space_group_symop_operation_xyz
x,y,z
y,-x,-z
-x,-y,z
-y,x,-z
1/2+y,1/2+x,1/2-z
1/2-y,1/2-x,1/2-z
1/2-x,1/2+y,1/2+z
1/2+x,1/2-y,1/2+z
loop_
_atom_site_type_symbol
_atom_site_label
_atom_site_fract_x
_atom_site_fract_y
_atom_site_fract_z
Si Si1 0.364471 0.994578 0.609942
Si Si2 0.811329 0.811047 0.807503
Si Si3 0.562728 0.623249 0.314282
Si Si4 0.767322 0.130468 0.931550
Si Si5 0.041964 0.263370 0.259607
Si Si6 0.264290 0.143662 0.945884
O O1 0.341987 0.864939 0.586554
O O2 0.284248 0.013105 0.671581
O O3 0.500000 0.000000 0.629690
O O4 0.348881 0.096200 0.558592
O O5 0.764640 0.735361 0.750000
O O6 0.778103 0.794713 0.880958
O O7 0.949860 0.801172 0.804203
O O8 0.754824 0.938123 0.790772
O O9 0.500000 0.500000 0.328162
O O10 0.646092 0.654847 0.372765
O O11 0.645094 0.612094 0.252593
O O12 0.770716 0.992134 0.943685
O O13 0.803581 0.203661 0.992723
O O14 0.128087 0.371914 0.250000
#
# Coordination Sequence:
#
# PCOD9558481 Si02
#       6
#     8   8   8   8   8   8
#     4  10  21  36  56  89 110 143 193 234 282 333
#     4  11  21  34  54  85 116 142 186 240 281 328
#     4  10  20  34  52  90 113 143 192 229 287 341
#     4  11  21  36  57  81 117 148 185 236 276 347
#     4  11  18  32  59  84 112 138 181 243 282 323
#     4  11  21  34  57  83 112 148 186 228 290 326
#
# _framework density 17.111076000000001
#
# number of rings (size 3 to 8) (size 9 to 14) (size 15 to 20)
#    0.000    1.333    6.667    2.000    0.000    0.000 
#    0.000    1.667    0.000    0.500    0.000    0.000 
#    0.000    0.000    0.000    0.000    0.000    0.000 
#
# Total GULP energy -267462.511853 kJ/mol
# GULP energy per Si atom -5572.135664 kJ/mol
# Density = 1.707213 g / cm^3
# Si number density = 17.111076 Si / 1000 Ang^3
#
#
#
# Elastic Constant Matrix: (Units=GPa)
#
#
# Indices 1 2 3 4 5 6 
#
# 1 92.1330 36.3348 51.1396 0.0000 0.0000 0.0000
# 2 36.3348 92.1306 51.1397 0.0000 0.0000 0.0000
# 3 51.1396 51.1397 107.9545 0.0000 0.0000 0.0000
# 4 0.0000 0.0000 0.0000 28.5713 0.0000 0.0000
# 5 0.0000 0.0000 0.0000 0.0000 28.5711 0.0000
# 6 0.0000 0.0000 0.0000 0.0000 0.0000 16.0158
#
#
#
# Elastic Compliance Matrix: (Units=1/GPa)
#
#
# Indices 1 2 3 4 5 6 
#
# 1 0.015210 -0.002712 -0.005920 0.000000 0.000000 0.000000
# 2 -0.002712 0.015210 -0.005920 0.000000 0.000000 0.000000
# 3 -0.005920 -0.005920 0.014872 0.000000 0.000000 0.000000
# 4 0.000000 0.000000 0.000000 0.035000 0.000000 0.000000
# 5 0.000000 0.000000 0.000000 0.000000 0.035000 0.000000
# 6 0.000000 0.000000 0.000000 0.000000 0.000000 0.062438
#
#
# Mechanical properties :
#
#
# Convention : Reuss Voigt Hill
#
# Bulk Modulus (GPa) = 61.78088 63.27180 62.52634
# Shear Modulus (GPa) = 23.55912 24.87190 24.21551
#
# Velocity S-wave (km/s) = 3.71460 3.81669 3.76599
# Velocity P-wave (km/s) = 7.38795 7.51533 7.45191
#
# Compressibility (1/GPa) = 0.01618624
#
# Stress axis : x y z
#
# Youngs Moduli (GPa) = 65.74800 65.74567 67.23938
#
# Poissons Ratio (x) = 0.17832 0.39807
# Poissons Ratio (y) = 0.17832 0.39809
# Poissons Ratio (z) = 0.38924 0.38924
#
# Static dielectric constant tensor:
#      x y z
#    x 1.613410 0.000000 0.000000 
#    y 0.000000 1.613410 0.000000 
#    z 0.000000 0.000000 1.575110 
# 
# From -- ./inp_files/5636.got.cif
#   From: 2010.05.17/outbox.cif.g08.bks.cpg/sg118_3_cif.got.tgz:5636.got - 2010.05.20 11:17:24.
