data_PCOD9558024
_publ_section_title
;
Structure prediction by ZEFSAII (Michael W. Deem and Ramdas Pophale) SiO2 
 PCOD9558024
Probable space group: P -4 C 2
;
_chemical_formula_sum "Si O2"
_cell_formula_units_Z 18
_cell_length_a 5.400389
_cell_length_b 5.400389
_cell_length_c 23.238551
_cell_angle_alpha 90.000000
_cell_angle_beta 90.000000
_cell_angle_gamma 90.000000
_cell_volume 677.733780
_symmetry_space_group_name_H-M "P -4 C 2"
_symmetry_group_IT_number 116
_symmetry_cell_setting 'tetragonal'
loop_
_space_group_symop_operation_xyz
x,y,z
y,-x,-z
-x,-y,z
-y,x,-z
y,x,1/2-z
-y,-x,1/2-z
-x,y,1/2+z
x,-y,1/2+z
loop_
_atom_site_type_symbol
_atom_site_label
_atom_site_fract_x
_atom_site_fract_y
_atom_site_fract_z
Si Si1 0.774666 0.636290 0.905496
Si Si2 0.000000 0.500000 0.174911
Si Si3 0.000000 0.000000 0.000000
Si Si4 0.000000 0.000000 0.750000
Si Si5 0.500000 0.500000 0.500000
O O1 0.574287 0.761871 0.863927
O O2 0.699945 0.426960 0.952618
O O3 0.000000 0.500000 0.873037
O O4 0.838668 0.847530 0.952530
O O5 0.981914 0.750485 0.211966
#
# Coordination Sequence:
#
# PCOD9558024 Si02
#       5
#     8   4   2   2   2
#     4  12  26  46  79 122 173 228 281 352 442 559
#     4  12  32  58  86 124 164 236 306 382 466 520
#     4  12  22  48  68 126 176 212 270 332 428 550
#     4  12  34  64  88 122 174 222 322 406 444 528
#     4  12  24  40  76 122 176 212 272 332 432 550
#
# _framework density 26.559100000000001
#
# number of rings (size 3 to 8) (size 9 to 14) (size 15 to 20)
#    0.000    0.000    4.444    4.000    9.333    0.889 
#    0.000    0.000    0.000    0.000    0.000    0.000 
#    0.000    0.000    0.000    0.000    0.000    0.000 
#
# Total GULP energy -100200.882775 kJ/mol
# GULP energy per Si atom -5566.715710 kJ/mol
# Density = 2.649865 g / cm^3
# Si number density = 26.559100 Si / 1000 Ang^3
#
#
#
# Elastic Constant Matrix: (Units=GPa)
#
#
# Indices 1 2 3 4 5 6 
#
# 1 164.4715 72.9262 103.6880 0.0000 0.0000 0.0000
# 2 72.9262 164.4715 103.6880 0.0000 0.0000 0.0000
# 3 103.6880 103.6880 161.2883 0.0000 0.0000 0.0000
# 4 0.0000 0.0000 0.0000 55.9535 0.0000 0.0000
# 5 0.0000 0.0000 0.0000 0.0000 55.9535 0.0000
# 6 0.0000 0.0000 0.0000 0.0000 0.0000 63.2323
#
#
#
# Elastic Compliance Matrix: (Units=1/GPa)
#
#
# Indices 1 2 3 4 5 6 
#
# 1 0.010266 -0.000658 -0.006177 0.000000 0.000000 0.000000
# 2 -0.000658 0.010266 -0.006177 0.000000 0.000000 0.000000
# 3 -0.006177 -0.006177 0.014142 0.000000 0.000000 0.000000
# 4 0.000000 0.000000 0.000000 0.017872 0.000000 0.000000
# 5 0.000000 0.000000 0.000000 0.000000 0.017872 0.000000
# 6 0.000000 0.000000 0.000000 0.000000 0.000000 0.015815
#
#
# Mechanical properties :
#
#
# Convention : Reuss Voigt Hill
#
# Bulk Modulus (GPa) = 115.59567 116.75952 116.17759
# Shear Modulus (GPa) = 43.42624 49.02314 46.22469
#
# Velocity S-wave (km/s) = 4.04800 4.30095 4.17639
# Velocity P-wave (km/s) = 8.09116 8.28987 8.19111
#
# Compressibility (1/GPa) = 0.00865084
#
# Stress axis : x y z
#
# Youngs Moduli (GPa) = 97.41153 97.41153 70.71278
#
# Poissons Ratio (x) = 0.06408 0.43677
# Poissons Ratio (y) = 0.06408 0.43677
# Poissons Ratio (z) = 0.60168 0.60168
#
# Static dielectric constant tensor:
#      x y z
#    x 2.736040 0.000000 0.000000 
#    y 0.000000 2.736040 0.000000 
#    z 0.000000 0.000000 1.971960 
# 
# From -- ./inp_files/4259.got.cif
#   From: 2010.05.17/outbox.cif.g08.bks.cpg/sg116_3_cif.got.tgz:4259.got - 2010.05.20 11:11:43.
