data_PCOD9558378
_publ_section_title
;
Structure prediction by ZEFSAII (Michael W. Deem and Ramdas Pophale) SiO2 
 PCOD9558378
Probable space group: P -4 N 2
;
_chemical_formula_sum "Si O2"
_cell_formula_units_Z 34
_cell_length_a 14.849509
_cell_length_b 14.849509
_cell_length_c 7.410901
_cell_angle_alpha 90.000000
_cell_angle_beta 90.000000
_cell_angle_gamma 90.000000
_cell_volume 1634.162347
_symmetry_space_group_name_H-M "P -4 N 2"
_symmetry_group_IT_number 118
_symmetry_cell_setting 'tetragonal'
loop_
_space_group_symop_operation_xyz
x,y,z
y,-x,-z
-x,-y,z
-y,x,-z
1/2+y,1/2+x,1/2-z
1/2-y,1/2-x,1/2-z
1/2-x,1/2+y,1/2+z
1/2+x,1/2-y,1/2+z
loop_
_atom_site_type_symbol
_atom_site_label
_atom_site_fract_x
_atom_site_fract_y
_atom_site_fract_z
Si Si1 0.610245 0.745752 0.716429
Si Si2 0.927887 0.818577 0.189236
Si Si3 0.500000 0.500000 0.500000
Si Si4 0.743069 0.101101 0.204674
Si Si5 0.750927 0.396310 0.716082
O O1 0.660360 0.839641 0.750000
O O2 0.509916 0.730662 0.789058
O O3 0.677248 0.665939 0.775435
O O4 0.601524 0.737143 0.500115
O O5 0.835329 0.841659 0.289556
O O6 0.904034 0.759749 0.011663
O O7 0.967194 0.915040 0.118402
O O8 0.650474 0.150474 0.250000
O O9 0.747737 0.999542 0.274719
O O10 0.841306 0.341306 0.750000
#
# Coordination Sequence:
#
# PCOD9558378 Si02
#       5
#     8   8   2   8   8
#     4   9  17  32  52  75 101 130 163 208 260 303
#     4  10  16  29  52  77 101 125 173 213 252 298
#     4  12  12  28  56  84  90 128 172 228 242 300
#     4   9  16  28  48  73  97 126 163 207 251 293
#     4  10  19  31  48  74 102 131 170 213 244 296
#
# _framework density 20.805766999999999
#
# number of rings (size 3 to 8) (size 9 to 14) (size 15 to 20)
#    0.000    2.353    7.059    0.000    0.000    0.471 
#    0.000    7.059    0.000    3.529    0.000    9.882 
#    0.000    0.000    0.000    0.000    0.000    0.000 
#
# Total GULP energy -189679.903237 kJ/mol
# GULP energy per Si atom -5578.820683 kJ/mol
# Density = 2.075841 g / cm^3
# Si number density = 20.805767 Si / 1000 Ang^3
#
#
#
# Elastic Constant Matrix: (Units=GPa)
#
#
# Indices 1 2 3 4 5 6 
#
# 1 113.2071 67.0999 19.4772 0.0000 0.0000 0.0000
# 2 67.0999 113.2030 19.4772 0.0000 0.0000 0.0000
# 3 19.4772 19.4772 52.0992 0.0000 0.0000 0.0000
# 4 0.0000 0.0000 0.0000 19.5320 0.0000 0.0000
# 5 0.0000 0.0000 0.0000 0.0000 19.5317 0.0000
# 6 0.0000 0.0000 0.0000 0.0000 0.0000 38.0624
#
#
#
# Elastic Compliance Matrix: (Units=1/GPa)
#
#
# Indices 1 2 3 4 5 6 
#
# 1 0.013861 -0.007828 -0.002256 0.000000 0.000000 0.000000
# 2 -0.007828 0.013862 -0.002256 0.000000 0.000000 0.000000
# 3 -0.002256 -0.002256 0.020881 0.000000 0.000000 0.000000
# 4 0.000000 0.000000 0.000000 0.051198 0.000000 0.000000
# 5 0.000000 0.000000 0.000000 0.000000 0.051199 0.000000
# 6 0.000000 0.000000 0.000000 0.000000 0.000000 0.026273
#
#
# Mechanical properties :
#
#
# Convention : Reuss Voigt Hill
#
# Bulk Modulus (GPa) = 41.79696 54.51310 48.15503
# Shear Modulus (GPa) = 23.81781 26.92219 25.37000
#
# Velocity S-wave (km/s) = 3.38711 3.60109 3.49574
# Velocity P-wave (km/s) = 5.95227 6.59912 6.28402
#
# Compressibility (1/GPa) = 0.02392519
#
# Stress axis : x y z
#
# Youngs Moduli (GPa) = 72.14357 72.14078 47.89117
#
# Poissons Ratio (x) = 0.56472 0.10802
# Poissons Ratio (y) = 0.56474 0.10803
# Poissons Ratio (z) = 0.16272 0.16273
#
# Static dielectric constant tensor:
#      x y z
#    x 1.760730 0.000000 0.000000 
#    y 0.000000 1.760730 0.000000 
#    z 0.000000 0.000000 1.803480 
# 
# From -- ./inp_files/1651.got.cif
#   From: 2010.05.17/outbox.cif.g08.bks.cpg/sg118_1_cif.got.tgz:1651.got - 2010.05.20 11:17:24.
