data_PCOD9558044
_publ_section_title
;
Structure prediction by ZEFSAII (Michael W. Deem and Ramdas Pophale) SiO2 
 PCOD9558044
Probable space group: P -4 C 2
;
_chemical_formula_sum "Si O2"
_cell_formula_units_Z 40
_cell_length_a 15.000000
_cell_length_b 15.000000
_cell_length_c 9.000000
_cell_angle_alpha 90.000000
_cell_angle_beta 90.000000
_cell_angle_gamma 90.000000
_cell_volume 2025.000000
_symmetry_space_group_name_H-M "P -4 C 2"
_symmetry_group_IT_number 116
_symmetry_cell_setting 'tetragonal'
loop_
_space_group_symop_operation_xyz
x,y,z
y,-x,-z
-x,-y,z
-y,x,-z
y,x,1/2-z
-y,-x,1/2-z
-x,y,1/2+z
x,-y,1/2+z
loop_
_atom_site_type_symbol
_atom_site_label
_atom_site_fract_x
_atom_site_fract_y
_atom_site_fract_z
Si Si1 0.213328 0.115925 0.026660
Si Si2 0.185271 0.590956 0.986077
Si Si3 0.912547 0.554186 0.185554
Si Si4 0.561121 0.613113 0.921096
Si Si5 0.938833 0.241006 0.630874
O O1 0.222726 0.079382 0.195502
O O2 0.139622 0.193447 0.036635
O O3 0.309505 0.152849 0.979563
O O4 0.197675 0.031422 0.921406
O O5 0.132526 0.513490 0.071307
O O6 0.287556 0.587262 0.034891
O O7 0.159560 0.574409 0.814151
O O8 0.938837 0.650737 0.116359
O O9 0.000000 0.500000 0.242923
O O10 0.586184 0.586184 0.750000
O O11 0.604335 0.543534 0.038358
#
# Coordination Sequence:
#
# PCOD9558044 Si02
#       5
#     8   8   8   8   8
#     4  10  23  44  64  94 129 168 217 273 330 401
#     4  11  24  40  65  98 130 173 226 274 333 398
#     4  11  22  40  66  96 134 173 217 281 338 397
#     4  11  24  44  65  93 135 179 226 274 334 403
#     4  10  23  42  66  93 131 170 213 271 338 391
#
# _framework density 19.753086
#
# number of rings (size 3 to 8) (size 9 to 14) (size 15 to 20)
#    0.000    1.400    2.000    3.000    5.600    1.200 
#    7.200    2.000    0.000    0.000    0.000    0.000 
#    0.000    0.000    0.000    0.000    0.000    0.000 
#
# Total GULP energy -223339.191173 kJ/mol
# GULP energy per Si atom -5583.479779 kJ/mol
# Density = 1.970813 g / cm^3
# Si number density = 19.753086 Si / 1000 Ang^3
#
#
#
# Elastic Constant Matrix: (Units=GPa)
#
#
# Indices 1 2 3 4 5 6 
#
# 1 122.0797 43.7609 34.4443 0.0000 0.0000 0.0000
# 2 43.7609 122.0797 34.4443 0.0000 0.0000 0.0000
# 3 34.4443 34.4443 59.3006 0.0000 0.0000 0.0000
# 4 0.0000 0.0000 0.0000 28.0630 0.0000 0.0000
# 5 0.0000 0.0000 0.0000 0.0000 28.0630 0.0000
# 6 0.0000 0.0000 0.0000 0.0000 0.0000 21.7457
#
#
#
# Elastic Compliance Matrix: (Units=1/GPa)
#
#
# Indices 1 2 3 4 5 6 
#
# 1 0.010358 -0.002410 -0.004616 0.000000 0.000000 0.000000
# 2 -0.002410 0.010358 -0.004616 0.000000 0.000000 0.000000
# 3 -0.004616 -0.004616 0.022226 0.000000 0.000000 0.000000
# 4 0.000000 0.000000 0.000000 0.035634 0.000000 0.000000
# 5 0.000000 0.000000 0.000000 0.000000 0.035634 0.000000
# 6 0.000000 0.000000 0.000000 0.000000 0.000000 0.045986
#
#
# Mechanical properties :
#
#
# Convention : Reuss Voigt Hill
#
# Bulk Modulus (GPa) = 50.87542 58.75100 54.81321
# Shear Modulus (GPa) = 26.31116 28.29505 27.30311
#
# Velocity S-wave (km/s) = 3.65362 3.78886 3.72186
# Velocity P-wave (km/s) = 6.60380 6.99628 6.80287
#
# Compressibility (1/GPa) = 0.01965586
#
# Stress axis : x y z
#
# Youngs Moduli (GPa) = 96.54501 96.54501 44.99275
#
# Poissons Ratio (x) = 0.23272 0.20769
# Poissons Ratio (y) = 0.23272 0.20769
# Poissons Ratio (z) = 0.44567 0.44567
#
# Static dielectric constant tensor:
#      x y z
#    x 1.696140 0.000000 0.000000 
#    y 0.000000 1.696140 0.000000 
#    z 0.000000 0.000000 1.695930 
# 
# From -- ./inp_files/795.got.cif
#   From: 2010.05.17/outbox.ucp.g08.bks.cvg/sg116_1_cif.got.tgz:795.got - 2010.06.11 11:33:53.
