data_PCOD9558731
_publ_section_title
;
Structure prediction by ZEFSAII (Michael W. Deem and Ramdas Pophale) SiO2 
 PCOD9558731
Probable space group: P -4 N 2
;
_chemical_formula_sum "Si O2"
_cell_formula_units_Z 36
_cell_length_a 9.587055
_cell_length_b 9.587055
_cell_length_c 18.937031
_cell_angle_alpha 90.000000
_cell_angle_beta 90.000000
_cell_angle_gamma 90.000000
_cell_volume 1740.533265
_symmetry_space_group_name_H-M "P -4 N 2"
_symmetry_group_IT_number 118
_symmetry_cell_setting 'tetragonal'
loop_
_space_group_symop_operation_xyz
x,y,z
y,-x,-z
-x,-y,z
-y,x,-z
1/2+y,1/2+x,1/2-z
1/2-y,1/2-x,1/2-z
1/2-x,1/2+y,1/2+z
1/2+x,1/2-y,1/2+z
loop_
_atom_site_type_symbol
_atom_site_label
_atom_site_fract_x
_atom_site_fract_y
_atom_site_fract_z
Si Si1 0.500000 0.500000 0.336678
Si Si2 0.890889 0.760469 0.407192
Si Si3 0.993431 0.269459 0.261611
Si Si4 0.500000 0.000000 0.501204
Si Si5 0.000000 0.500000 0.750000
Si Si6 0.789287 0.429861 0.623296
Si Si7 0.500000 0.500000 0.000000
O O1 0.636925 0.509863 0.288110
O O2 0.507251 0.358261 0.380609
O O3 0.995653 0.776826 0.342165
O O4 0.735318 0.758421 0.375942
O O5 0.937137 0.622867 0.450061
O O6 0.905879 0.895917 0.455101
O O7 0.115412 0.384589 0.250000
O O8 0.848909 0.348909 0.250000
O O9 0.453709 0.120438 0.446823
O O10 0.128924 0.517382 0.694155
#
# Coordination Sequence:
#
# PCOD9558731 Si02
#       7
#     4   8   8   4   2   8   2
#     4  12  25  44  73 105 139 184 230 306 360 419
#     4  12  24  47  70 106 141 185 241 291 350 436
#     4  11  24  44  71 102 139 181 231 294 353 416
#     4  11  26  45  75 100 149 192 236 296 355 426
#     4  10  24  48  76 102 144 184 242 312 358 422
#     4  11  25  45  71 108 143 184 242 300 360 426
#     4  12  26  44  80  96 130 196 236 282 356 426
#
# _framework density 20.683315
#
# number of rings (size 3 to 8) (size 9 to 14) (size 15 to 20)
#    0.000    0.667    4.444    3.333    1.556    3.556 
#    0.000    0.000    0.000    0.000    0.000    0.000 
#    0.000    0.000    0.000    0.000    0.000    0.000 
#
# Total GULP energy -201180.294739 kJ/mol
# GULP energy per Si atom -5588.341521 kJ/mol
# Density = 2.063624 g / cm^3
# Si number density = 20.683315 Si / 1000 Ang^3
#
#
#
# Elastic Constant Matrix: (Units=GPa)
#
#
# Indices 1 2 3 4 5 6 
#
# 1 105.3200 47.2648 32.5652 0.0000 0.0000 0.0000
# 2 47.2648 105.3201 32.5664 0.0000 0.0000 0.0000
# 3 32.5652 32.5664 71.3143 0.0000 0.0000 0.0000
# 4 0.0000 0.0000 0.0000 20.1792 0.0000 0.0000
# 5 0.0000 0.0000 0.0000 0.0000 20.1792 0.0000
# 6 0.0000 0.0000 0.0000 0.0000 0.0000 32.0122
#
#
#
# Elastic Compliance Matrix: (Units=1/GPa)
#
#
# Indices 1 2 3 4 5 6 
#
# 1 0.012683 -0.004542 -0.003717 0.000000 0.000000 0.000000
# 2 -0.004542 0.012683 -0.003718 0.000000 0.000000 0.000000
# 3 -0.003717 -0.003718 0.017418 0.000000 0.000000 0.000000
# 4 0.000000 0.000000 0.000000 0.049556 0.000000 0.000000
# 5 0.000000 0.000000 0.000000 0.000000 0.049556 0.000000
# 6 0.000000 0.000000 0.000000 0.000000 0.000000 0.031238
#
#
# Mechanical properties :
#
#
# Convention : Reuss Voigt Hill
#
# Bulk Modulus (GPa) = 53.10946 56.30525 54.70736
# Shear Modulus (GPa) = 24.58651 25.77796 25.18223
#
# Velocity S-wave (km/s) = 3.45151 3.53415 3.49308
# Velocity P-wave (km/s) = 6.45113 6.62837 6.54035
#
# Compressibility (1/GPa) = 0.01882904
#
# Stress axis : x y z
#
# Youngs Moduli (GPa) = 78.84765 78.84688 57.41343
#
# Poissons Ratio (x) = 0.35814 0.21342
# Poissons Ratio (y) = 0.35814 0.21344
# Poissons Ratio (z) = 0.29309 0.29312
#
# Static dielectric constant tensor:
#      x y z
#    x 1.777570 0.000000 0.000000 
#    y 0.000000 1.777570 0.000000 
#    z 0.000000 0.000000 1.740940 
# 
# From -- ./inp_files/5560.got.cif
#   From: 2010.05.17/outbox.cif.g08.bks.cpg/sg118_3_cif.got.tgz:5560.got - 2010.05.20 11:17:24.
