data_PCOD9558919
_publ_section_title
;
Structure prediction by ZEFSAII (Michael W. Deem and Ramdas Pophale) SiO2 
 PCOD9558919
Probable space group: P -4 N 2
;
_chemical_formula_sum "Si O2"
_cell_formula_units_Z 28
_cell_length_a 11.995537
_cell_length_b 11.995537
_cell_length_c 8.142554
_cell_angle_alpha 90.000000
_cell_angle_beta 90.000000
_cell_angle_gamma 90.000000
_cell_volume 1171.655773
_symmetry_space_group_name_H-M "P -4 N 2"
_symmetry_group_IT_number 118
_symmetry_cell_setting 'tetragonal'
loop_
_space_group_symop_operation_xyz
x,y,z
y,-x,-z
-x,-y,z
-y,x,-z
1/2+y,1/2+x,1/2-z
1/2-y,1/2-x,1/2-z
1/2-x,1/2+y,1/2+z
1/2+x,1/2-y,1/2+z
loop_
_atom_site_type_symbol
_atom_site_label
_atom_site_fract_x
_atom_site_fract_y
_atom_site_fract_z
Si Si1 0.268383 0.376564 0.472359
Si Si2 0.517899 0.136003 0.977300
Si Si3 0.072355 0.760548 0.778317
Si Si4 0.688172 0.811829 0.750000
O O1 0.143313 0.351771 0.421082
O O2 0.258745 0.493498 0.563880
O O3 0.355284 0.369900 0.321799
O O4 0.300365 0.285530 0.613806
O O5 0.506507 0.221185 0.130834
O O6 0.500000 0.000000 0.011443
O O7 0.426998 0.180858 0.850589
O O8 0.167972 0.667972 0.750000
#
# Coordination Sequence:
#
# PCOD9558919 Si02
#       4
#     8   8   8   4
#     4  12  26  46  78 111 158 202 264 316 395 472
#     4  12  25  49  79 109 152 206 267 323 371 468
#     4  12  25  46  77 111 150 208 250 321 399 450
#     4  12  25  42  73 124 146 200 270 312 391 458
#
# _framework density 23.897804000000001
#
# number of rings (size 3 to 8) (size 9 to 14) (size 15 to 20)
#    0.000    0.000    8.571    0.429    0.000    5.143 
#    0.000    0.000    0.000    0.857    0.000    0.000 
#    0.000    0.000    0.000    0.000    0.000    0.000 
#
# Total GULP energy -156171.572483 kJ/mol
# GULP energy per Si atom -5577.556160 kJ/mol
# Density = 2.384341 g / cm^3
# Si number density = 23.897804 Si / 1000 Ang^3
#
#
#
# Elastic Constant Matrix: (Units=GPa)
#
#
# Indices 1 2 3 4 5 6 
#
# 1 64.1354 77.3211 58.9177 0.0000 0.0000 0.0000
# 2 77.3211 64.1354 58.9173 0.0000 0.0000 0.0000
# 3 58.9177 58.9173 112.7438 0.0000 0.0000 0.0000
# 4 0.0000 0.0000 0.0000 47.6186 0.0000 0.0000
# 5 0.0000 0.0000 0.0000 0.0000 47.6164 0.0000
# 6 0.0000 0.0000 0.0000 0.0000 0.0000 29.2944
#
#
#
# Elastic Compliance Matrix: (Units=1/GPa)
#
#
# Indices 1 2 3 4 5 6 
#
# 1 -0.031660 0.044179 -0.006542 0.000000 0.000000 0.000000
# 2 0.044179 -0.031660 -0.006542 0.000000 0.000000 0.000000
# 3 -0.006542 -0.006542 0.015707 0.000000 0.000000 0.000000
# 4 0.000000 0.000000 0.000000 0.021000 0.000000 0.000000
# 5 0.000000 0.000000 0.000000 0.000000 0.021001 0.000000
# 6 0.000000 0.000000 0.000000 0.000000 0.000000 0.034136
#
#
# Mechanical properties :
#
#
# Convention : Reuss Voigt Hill
#
# Bulk Modulus (GPa) = 68.60303 70.14744 69.37523
# Shear Modulus (GPa) = -173.57073 27.96310 -72.80382
#
# Velocity S-wave (km/s) = -8.53159 3.42440 -5.52547
# Velocity P-wave (km/s) = 8.26327 6.71209 3.40804
#
# Compressibility (1/GPa) = 0.01457662
#
# Stress axis : x y z
#
# Youngs Moduli (GPa) = -31.58514 -31.58549 63.66480
#
# Poissons Ratio (x) = 1.39543 0.41649
# Poissons Ratio (y) = 1.39541 0.41652
# Poissons Ratio (z) = -0.20663 -0.20665
#
# Static dielectric constant tensor:
#      x y z
#    x 1.957240 0.000000 0.000000 
#    y 0.000000 1.957240 0.000000 
#    z 0.000000 0.000000 2.018950 
# 
# From -- ./inp_files/1403.got.cif
#   From: 2010.05.17/outbox.cif.g08.bks.cpg/sg118_1_cif.got.tgz:1403.got - 2010.05.20 11:17:24.
