data_PCOD9558632
_publ_section_title
;
Structure prediction by ZEFSAII (Michael W. Deem and Ramdas Pophale) SiO2 
 PCOD9558632
Probable space group: P -4 N 2
;
_chemical_formula_sum "Si O2"
_cell_formula_units_Z 48
_cell_length_a 11.335361
_cell_length_b 11.335361
_cell_length_c 17.279475
_cell_angle_alpha 90.000000
_cell_angle_beta 90.000000
_cell_angle_gamma 90.000000
_cell_volume 2220.246810
_symmetry_space_group_name_H-M "P -4 N 2"
_symmetry_group_IT_number 118
_symmetry_cell_setting 'tetragonal'
loop_
_space_group_symop_operation_xyz
x,y,z
y,-x,-z
-x,-y,z
-y,x,-z
1/2+y,1/2+x,1/2-z
1/2-y,1/2-x,1/2-z
1/2-x,1/2+y,1/2+z
1/2+x,1/2-y,1/2+z
loop_
_atom_site_type_symbol
_atom_site_label
_atom_site_fract_x
_atom_site_fract_y
_atom_site_fract_z
Si Si1 0.605301 0.914832 0.938930
Si Si2 0.813974 0.849438 0.199388
Si Si3 0.686785 0.496466 0.977402
Si Si4 0.961564 0.176878 0.970359
Si Si5 0.058286 0.717737 0.215139
Si Si6 0.056515 0.126751 0.687949
O O1 0.690124 0.976594 0.000916
O O2 0.697767 0.890085 0.870272
O O3 0.500000 0.000000 0.913239
O O4 0.545278 0.801092 0.976834
O O5 0.711307 0.788694 0.250000
O O6 0.834028 0.971371 0.243724
O O7 0.924740 0.760549 0.206667
O O8 0.811315 0.888267 0.109561
O O9 0.703296 0.543134 0.889826
O O10 0.599688 0.383162 0.977878
O O11 0.089357 0.113691 0.972964
O O12 0.091813 0.591813 0.250000
O O13 0.113139 0.815644 0.273140
O O14 0.000000 0.000000 0.664938
#
# Coordination Sequence:
#
# PCOD9558632 Si02
#       6
#     8   8   8   8   8   8
#     4  12  28  43  71 106 145 184 240 306 366 438
#     4  11  24  41  73  98 140 186 237 295 357 437
#     4  11  23  43  71 101 138 187 240 298 363 438
#     4  11  24  46  71 103 144 195 246 298 371 447
#     4  11  25  42  66 104 140 180 227 298 362 423
#     4  10  21  43  67  98 131 182 236 280 354 427
#
# _framework density 21.619218
#
# number of rings (size 3 to 8) (size 9 to 14) (size 15 to 20)
#    0.000    1.000    3.333    3.000   11.667    0.000 
#    3.000    0.000    0.000    0.000    0.000    0.000 
#    0.000    0.000    0.000    0.000    0.000    0.000 
#
# Total GULP energy -267594.641660 kJ/mol
# GULP energy per Si atom -5574.888368 kJ/mol
# Density = 2.157001 g / cm^3
# Si number density = 21.619218 Si / 1000 Ang^3
#
#
#
# Elastic Constant Matrix: (Units=GPa)
#
#
# Indices 1 2 3 4 5 6 
#
# 1 60.8369 59.9620 40.6346 0.0000 0.0000 0.0000
# 2 59.9620 60.8292 40.6314 0.0000 0.0000 0.0000
# 3 40.6346 40.6314 125.9098 0.0000 0.0000 0.0000
# 4 0.0000 0.0000 0.0000 3.7734 0.0000 0.0000
# 5 0.0000 0.0000 0.0000 0.0000 3.7639 0.0000
# 6 0.0000 0.0000 0.0000 0.0000 0.0000 -2.3786
#
#
#
# Elastic Compliance Matrix: (Units=1/GPa)
#
#
# Indices 1 2 3 4 5 6 
#
# 1 0.579264 -0.568724 -0.003416 0.000000 0.000000 0.000000
# 2 -0.568724 0.579333 -0.003409 0.000000 0.000000 0.000000
# 3 -0.003416 -0.003409 0.010145 0.000000 0.000000 0.000000
# 4 0.000000 0.000000 0.000000 0.265011 0.000000 0.000000
# 5 0.000000 0.000000 0.000000 0.000000 0.265678 0.000000
# 6 0.000000 0.000000 0.000000 0.000000 0.000000 -0.420418
#
#
# Mechanical properties :
#
#
# Convention : Reuss Voigt Hill
#
# Bulk Modulus (GPa) = 56.67863 58.89243 57.78553
# Shear Modulus (GPa) = 2.05255 8.12162 5.08709
#
# Velocity S-wave (km/s) = 0.97543 1.94032 1.53563
# Velocity P-wave (km/s) = 5.24808 5.68504 5.47092
#
# Compressibility (1/GPa) = 0.01764333
#
# Stress axis : x y z
#
# Youngs Moduli (GPa) = 1.72633 1.72612 98.57359
#
# Poissons Ratio (x) = 0.98169 0.33674
# Poissons Ratio (y) = 0.98180 0.33602
# Poissons Ratio (z) = 0.00590 0.00588
#
# Static dielectric constant tensor:
#      x y z
#    x 1.886100 0.000000 0.000000 
#    y 0.000000 1.886070 0.000000 
#    z 0.000000 0.000000 1.883130 
# 
# From -- ./inp_files/4948.got.cif
#   From: 2010.05.17/outbox.cif.g08.bks.cpg/sg118_3_cif.got.tgz:4948.got - 2010.05.20 11:17:24.
