data_PCOD9558896
_publ_section_title
;
Structure prediction by ZEFSAII (Michael W. Deem and Ramdas Pophale) SiO2 
 PCOD9558896
Probable space group: P -4 N 2
;
_chemical_formula_sum "Si O2"
_cell_formula_units_Z 10
_cell_length_a 5.269437
_cell_length_b 5.269437
_cell_length_c 14.202718
_cell_angle_alpha 90.000000
_cell_angle_beta 90.000000
_cell_angle_gamma 90.000000
_cell_volume 394.366392
_symmetry_space_group_name_H-M "P -4 N 2"
_symmetry_group_IT_number 118
_symmetry_cell_setting 'tetragonal'
loop_
_space_group_symop_operation_xyz
x,y,z
y,-x,-z
-x,-y,z
-y,x,-z
1/2+y,1/2+x,1/2-z
1/2-y,1/2-x,1/2-z
1/2-x,1/2+y,1/2+z
1/2+x,1/2-y,1/2+z
loop_
_atom_site_type_symbol
_atom_site_label
_atom_site_fract_x
_atom_site_fract_y
_atom_site_fract_z
Si Si1 0.169022 0.243676 0.356272
Si Si2 0.000000 0.000000 0.000000
O O1 0.274359 0.225642 0.250000
O O2 0.388273 0.286437 0.431731
O O3 0.000000 0.500000 0.359579
O O4 0.000000 0.000000 0.376339
#
# Coordination Sequence:
#
# PCOD9558896 Si02
#       2
#     8   2
#     4  11  27  52  81 121 171 224 290 357 426 511
#     4  12  28  48  88 120 178 224 292 352 440 506
#
# _framework density 25.357130000000002
#
# number of rings (size 3 to 8) (size 9 to 14) (size 15 to 20)
#    0.000    0.800    4.000    0.000   11.200    0.000 
#    0.000    0.000    0.000    0.000    0.000    0.000 
#    0.000    0.000    0.000    0.000    0.000    0.000 
#
# Total GULP energy -56219.858339 kJ/mol
# GULP energy per Si atom -5621.985834 kJ/mol
# Density = 2.529942 g / cm^3
# Si number density = 25.357130 Si / 1000 Ang^3
#
#
#
# Elastic Constant Matrix: (Units=GPa)
#
#
# Indices 1 2 3 4 5 6 
#
# 1 163.1656 76.8625 69.8138 0.0000 0.0000 0.0000
# 2 76.8625 163.1661 69.8139 0.0000 0.0000 0.0000
# 3 69.8138 69.8139 234.1778 0.0000 0.0000 0.0000
# 4 0.0000 0.0000 0.0000 -48.0965 0.0000 0.0000
# 5 0.0000 0.0000 0.0000 0.0000 -48.1016 0.0000
# 6 0.0000 0.0000 0.0000 0.0000 0.0000 73.6066
#
#
#
# Elastic Compliance Matrix: (Units=1/GPa)
#
#
# Indices 1 2 3 4 5 6 
#
# 1 0.008314 -0.003273 -0.001503 0.000000 0.000000 0.000000
# 2 -0.003273 0.008314 -0.001503 0.000000 0.000000 0.000000
# 3 -0.001503 -0.001503 0.005166 0.000000 0.000000 0.000000
# 4 0.000000 0.000000 0.000000 -0.020792 0.000000 0.000000
# 5 0.000000 0.000000 0.000000 0.000000 -0.020789 0.000000
# 6 0.000000 0.000000 0.000000 0.000000 0.000000 0.013586
#
#
# Mechanical properties :
#
#
# Convention : Reuss Voigt Hill
#
# Bulk Modulus (GPa) = 108.26910 110.38777 109.32844
# Shear Modulus (GPa) = 529.97824 18.41633 274.19729
#
# Velocity S-wave (km/s) = 14.47271 2.69788 10.41004
# Velocity P-wave (km/s) = 17.94630 7.30291 13.70040
#
# Compressibility (1/GPa) = 0.00923625
#
# Stress axis : x y z
#
# Youngs Moduli (GPa) = 120.28389 120.28431 193.56624
#
# Poissons Ratio (x) = 0.39374 0.29086
# Poissons Ratio (y) = 0.39374 0.29086
# Poissons Ratio (z) = 0.18074 0.18074
#
# Static dielectric constant tensor:
#      x y z
#    x 2.168740 0.000000 0.000000 
#    y 0.000000 2.168720 0.000000 
#    z 0.000000 0.000000 1.960530 
# 
# From -- ./inp_files/4327.got.cif
#   From: 2010.05.17/outbox.cif.g08.bks.cpg/sg118_3_cif.got.tgz:4327.got - 2010.05.20 11:17:24.
