data_PCOD9558832
_publ_section_title
;
Structure prediction by ZEFSAII (Michael W. Deem and Ramdas Pophale) SiO2 
 PCOD9558832
Probable space group: P -4 N 2
;
_chemical_formula_sum "Si O2"
_cell_formula_units_Z 40
_cell_length_a 9.377809
_cell_length_b 9.377809
_cell_length_c 22.311961
_cell_angle_alpha 90.000000
_cell_angle_beta 90.000000
_cell_angle_gamma 90.000000
_cell_volume 1962.187516
_symmetry_space_group_name_H-M "P -4 N 2"
_symmetry_group_IT_number 118
_symmetry_cell_setting 'tetragonal'
loop_
_space_group_symop_operation_xyz
x,y,z
y,-x,-z
-x,-y,z
-y,x,-z
1/2+y,1/2+x,1/2-z
1/2-y,1/2-x,1/2-z
1/2-x,1/2+y,1/2+z
1/2+x,1/2-y,1/2+z
loop_
_atom_site_type_symbol
_atom_site_label
_atom_site_fract_x
_atom_site_fract_y
_atom_site_fract_z
Si Si1 0.834900 0.001516 0.250499
Si Si2 0.812402 0.312402 0.250000
Si Si3 0.187496 0.678349 0.654080
Si Si4 0.000000 0.500000 0.937280
Si Si5 0.166964 0.487905 0.363260
Si Si6 0.496343 0.724231 0.514651
O O1 0.814957 0.156837 0.278719
O O2 0.784443 0.891105 0.300113
O O3 0.742576 0.959874 0.192028
O O4 0.000000 0.000000 0.233059
O O5 0.816530 0.435525 0.299332
O O6 0.328979 0.767937 0.637169
O O7 0.076351 0.619629 0.604711
O O8 0.953898 0.630984 0.980554
O O9 0.245491 0.558890 0.419484
O O10 0.000000 0.500000 0.376303
O O11 0.617550 0.636998 0.479781
#
# Coordination Sequence:
#
# PCOD9558832 Si02
#       6
#     8   4   8   4   8   8
#     4  11  23  42  64 103 139 181 229 284 355 429
#     4  12  25  39  72 102 138 188 230 294 368 426
#     4  11  25  43  68 102 146 183 239 293 362 437
#     4  12  24  47  72  97 140 188 234 310 360 430
#     4  12  25  44  70 103 143 188 244 299 359 442
#     4  11  26  46  73 103 136 185 246 298 365 439
#
# _framework density 20.385411999999999
#
# number of rings (size 3 to 8) (size 9 to 14) (size 15 to 20)
#    0.000    0.600    5.000    2.700    8.400    1.600 
#    0.000    0.000    0.000    0.000    0.000    0.000 
#    0.000    0.000    0.000    0.000    0.000    0.000 
#
# Total GULP energy -223097.219923 kJ/mol
# GULP energy per Si atom -5577.430498 kJ/mol
# Density = 2.033901 g / cm^3
# Si number density = 20.385412 Si / 1000 Ang^3
#
#
#
# Elastic Constant Matrix: (Units=GPa)
#
#
# Indices 1 2 3 4 5 6 
#
# 1 107.3610 37.8571 34.9359 0.0000 0.0000 0.0000
# 2 37.8571 107.3610 34.9359 0.0000 0.0000 0.0000
# 3 34.9359 34.9359 94.9419 0.0000 0.0000 0.0000
# 4 0.0000 0.0000 0.0000 24.5891 0.0000 0.0000
# 5 0.0000 0.0000 0.0000 0.0000 24.5891 0.0000
# 6 0.0000 0.0000 0.0000 0.0000 0.0000 30.9625
#
#
#
# Elastic Compliance Matrix: (Units=1/GPa)
#
#
# Indices 1 2 3 4 5 6 
#
# 1 0.011378 -0.003010 -0.003079 0.000000 0.000000 0.000000
# 2 -0.003010 0.011378 -0.003079 0.000000 0.000000 0.000000
# 3 -0.003079 -0.003079 0.012799 0.000000 0.000000 0.000000
# 4 0.000000 0.000000 0.000000 0.040669 0.000000 0.000000
# 5 0.000000 0.000000 0.000000 0.000000 0.040669 0.000000
# 6 0.000000 0.000000 0.000000 0.000000 0.000000 0.032297
#
#
# Mechanical properties :
#
#
# Convention : Reuss Voigt Hill
#
# Bulk Modulus (GPa) = 58.07915 58.34683 58.21299
# Shear Modulus (GPa) = 28.85772 29.49045 29.17409
#
# Velocity S-wave (km/s) = 3.76654 3.80760 3.78713
# Velocity P-wave (km/s) = 6.88971 6.92925 6.90951
#
# Compressibility (1/GPa) = 0.01721788
#
# Stress axis : x y z
#
# Youngs Moduli (GPa) = 87.89130 87.89130 78.13254
#
# Poissons Ratio (x) = 0.26455 0.24058
# Poissons Ratio (y) = 0.26455 0.24058
# Poissons Ratio (z) = 0.27062 0.27062
#
# Static dielectric constant tensor:
#      x y z
#    x 1.781180 0.000000 0.000000 
#    y 0.000000 1.781180 0.000000 
#    z 0.000000 0.000000 1.755270 
# 
# From -- ./inp_files/6093.got.cif
#   From: 2010.05.17/outbox.cif.g08.bks.cpg/sg118_4_cif.got.tgz:6093.got - 2010.05.20 11:17:24.
