data_PCOD9558270
_publ_section_title
;
Structure prediction by ZEFSAII (Michael W. Deem and Ramdas Pophale) SiO2 
 PCOD9558270
Probable space group: P -4 B 2
;
_chemical_formula_sum "Si O2"
_cell_formula_units_Z 38
_cell_length_a 17.876825
_cell_length_b 17.876825
_cell_length_c 4.983748
_cell_angle_alpha 90.000000
_cell_angle_beta 90.000000
_cell_angle_gamma 90.000000
_cell_volume 1592.710532
_symmetry_space_group_name_H-M "P -4 B 2"
_symmetry_group_IT_number 117
_symmetry_cell_setting 'tetragonal'
loop_
_space_group_symop_operation_xyz
x,y,z
y,-x,-z
-x,-y,z
-y,x,-z
1/2+y,1/2+x,-z
1/2-y,1/2-x,-z
1/2-x,1/2+y,z
1/2+x,1/2-y,z
loop_
_atom_site_type_symbol
_atom_site_label
_atom_site_fract_x
_atom_site_fract_y
_atom_site_fract_z
Si Si1 0.785375 0.929403 0.589481
Si Si2 0.000000 0.000000 0.000000
Si Si3 0.877722 0.885840 0.110945
Si Si4 0.442363 0.749249 0.784441
Si Si5 0.141864 0.533667 0.843571
Si Si6 0.386412 0.886412 0.500000
O O1 0.830308 0.920171 0.863739
O O2 0.697369 0.918969 0.651671
O O3 0.790574 0.012085 0.455225
O O4 0.824735 0.877716 0.367709
O O5 0.055750 0.054485 0.163539
O O6 0.908135 0.809152 0.989124
O O7 0.386326 0.810247 0.667609
O O8 0.501550 0.801414 0.936367
O O9 0.112819 0.461655 0.679336
O O10 0.079215 0.579215 0.000000
#
# Coordination Sequence:
#
# PCOD9558270 Si02
#       6
#     8   2   8   8   8   4
#     4  11  25  46  73 112 154 206 251 324 385 467
#     4  12  24  38  76 118 148 210 272 318 384 462
#     4  12  26  43  76 112 160 208 263 323 392 467
#     4  11  25  47  76 113 160 199 261 329 393 474
#     4  11  25  51  82 115 155 203 267 331 401 476
#     4  10  26  45  80 116 154 206 260 337 402 478
#
# _framework density 23.858699000000001
#
# number of rings (size 3 to 8) (size 9 to 14) (size 15 to 20)
#    0.000    0.842    4.211    0.632    8.842    6.737 
#    0.000    4.211    0.000    0.000    0.000    0.000 
#    0.000    0.000    0.000    0.000    0.000    0.000 
#
# Total GULP energy -212796.841852 kJ/mol
# GULP energy per Si atom -5599.916891 kJ/mol
# Density = 2.380440 g / cm^3
# Si number density = 23.858699 Si / 1000 Ang^3
#
#
#
# Elastic Constant Matrix: (Units=GPa)
#
#
# Indices 1 2 3 4 5 6 
#
# 1 97.4483 68.8477 35.4462 0.0000 0.0000 0.0000
# 2 68.8477 97.4483 35.4462 0.0000 0.0000 0.0000
# 3 35.4462 35.4462 108.8250 0.0000 0.0000 0.0000
# 4 0.0000 0.0000 0.0000 49.6575 0.0000 0.0000
# 5 0.0000 0.0000 0.0000 0.0000 49.6575 0.0000
# 6 0.0000 0.0000 0.0000 0.0000 0.0000 38.1164
#
#
#
# Elastic Compliance Matrix: (Units=1/GPa)
#
#
# Indices 1 2 3 4 5 6 
#
# 1 0.020974 -0.013991 -0.002274 0.000000 0.000000 0.000000
# 2 -0.013991 0.020974 -0.002274 0.000000 0.000000 0.000000
# 3 -0.002274 -0.002274 0.010671 0.000000 0.000000 0.000000
# 4 0.000000 0.000000 0.000000 0.020138 0.000000 0.000000
# 5 0.000000 0.000000 0.000000 0.000000 0.020138 0.000000
# 6 0.000000 0.000000 0.000000 0.000000 0.000000 0.026235
#
#
# Mechanical properties :
#
#
# Convention : Reuss Voigt Hill
#
# Bulk Modulus (GPa) = 64.35503 64.80018 64.57760
# Shear Modulus (GPa) = 30.98119 38.41837 34.69978
#
# Velocity S-wave (km/s) = 3.60742 4.01714 3.81778
# Velocity P-wave (km/s) = 6.66208 6.98108 6.82344
#
# Compressibility (1/GPa) = 0.01553880
#
# Stress axis : x y z
#
# Youngs Moduli (GPa) = 47.67885 47.67885 93.71421
#
# Poissons Ratio (x) = 0.66706 0.21315
# Poissons Ratio (y) = 0.66706 0.21315
# Poissons Ratio (z) = 0.10844 0.10844
#
# Static dielectric constant tensor:
#      x y z
#    x 1.922180 0.000000 0.000000 
#    y 0.000000 1.922180 0.000000 
#    z 0.000000 0.000000 1.976870 
# 
# From -- ./inp_files/624.got.cif
#   From: 2010.05.17/outbox.cif.g08.bks.cpg/sg117_1_cif.got.tgz:624.got - 2010.05.20 11:15:09.
