data_PCOD9558621
_publ_section_title
;
Structure prediction by ZEFSAII (Michael W. Deem and Ramdas Pophale) SiO2 
 PCOD9558621
Probable space group: P -4 N 2
;
_chemical_formula_sum "Si O2"
_cell_formula_units_Z 20
_cell_length_a 7.819677
_cell_length_b 7.819677
_cell_length_c 12.757391
_cell_angle_alpha 90.000000
_cell_angle_beta 90.000000
_cell_angle_gamma 90.000000
_cell_volume 780.080632
_symmetry_space_group_name_H-M "P -4 N 2"
_symmetry_group_IT_number 118
_symmetry_cell_setting 'tetragonal'
loop_
_space_group_symop_operation_xyz
x,y,z
y,-x,-z
-x,-y,z
-y,x,-z
1/2+y,1/2+x,1/2-z
1/2-y,1/2-x,1/2-z
1/2-x,1/2+y,1/2+z
1/2+x,1/2-y,1/2+z
loop_
_atom_site_type_symbol
_atom_site_label
_atom_site_fract_x
_atom_site_fract_y
_atom_site_fract_z
Si Si1 0.296304 0.203697 0.750000
Si Si2 0.754202 0.880878 0.528191
Si Si3 0.299355 0.055702 0.158232
O O1 0.309078 0.090530 0.646320
O O2 0.306264 0.394507 0.699176
O O3 0.632280 0.767126 0.455411
O O4 0.938565 0.789642 0.528167
O O5 0.301962 0.198039 0.250000
O O6 0.500000 0.000000 0.150721
#
# Coordination Sequence:
#
# PCOD9558621 Si02
#       3
#     4   8   8
#     4  10  21  42  61  82 116 164 193 236 306 349
#     4  11  21  37  63  89 118 152 202 246 282 349
#     4   9  17  39  61  75 116 166 181 230 306 343
#
# _framework density 25.638373999999999
#
# number of rings (size 3 to 8) (size 9 to 14) (size 15 to 20)
#    0.000    2.400    8.000    0.000    0.000    0.000 
#    7.200    1.000    0.000    0.000    0.000    0.000 
#    0.000    0.000    0.000    0.000    0.000    0.000 
#
# Total GULP energy -111671.682176 kJ/mol
# GULP energy per Si atom -5583.584109 kJ/mol
# Density = 2.558002 g / cm^3
# Si number density = 25.638374 Si / 1000 Ang^3
#
#
#
# Elastic Constant Matrix: (Units=GPa)
#
#
# Indices 1 2 3 4 5 6 
#
# 1 37.7068 16.8369 26.5343 0.0000 0.0000 0.0000
# 2 16.8369 37.7072 26.5338 0.0000 0.0000 0.0000
# 3 26.5343 26.5338 205.6188 0.0000 0.0000 0.0000
# 4 0.0000 0.0000 0.0000 36.2887 0.0000 0.0000
# 5 0.0000 0.0000 0.0000 0.0000 36.2891 0.0000
# 6 0.0000 0.0000 0.0000 0.0000 0.0000 13.8266
#
#
#
# Elastic Compliance Matrix: (Units=1/GPa)
#
#
# Indices 1 2 3 4 5 6 
#
# 1 0.034441 -0.013475 -0.002706 0.000000 0.000000 0.000000
# 2 -0.013475 0.034441 -0.002706 0.000000 0.000000 0.000000
# 3 -0.002706 -0.002706 0.005562 0.000000 0.000000 0.000000
# 4 0.000000 0.000000 0.000000 0.027557 0.000000 0.000000
# 5 0.000000 0.000000 0.000000 0.000000 0.027556 0.000000
# 6 0.000000 0.000000 0.000000 0.000000 0.000000 0.072325
#
#
# Mechanical properties :
#
#
# Convention : Reuss Voigt Hill
#
# Bulk Modulus (GPa) = 27.26890 46.76030 37.01460
# Shear Modulus (GPa) = 19.85100 31.35606 25.60353
#
# Velocity S-wave (km/s) = 2.78559 3.50095 3.16356
# Velocity P-wave (km/s) = 4.58313 5.88390 5.27377
#
# Compressibility (1/GPa) = 0.03667182
#
# Stress axis : x y z
#
# Youngs Moduli (GPa) = 29.03510 29.03554 179.80261
#
# Poissons Ratio (x) = 0.39124 0.48649
# Poissons Ratio (y) = 0.39124 0.48646
# Poissons Ratio (z) = 0.07856 0.07856
#
# Static dielectric constant tensor:
#      x y z
#    x 2.072660 0.000000 0.000000 
#    y 0.000000 2.072660 0.000000 
#    z 0.000000 0.000000 2.180410 
# 
# From -- ./inp_files/1185.got.cif
#   From: 2010.05.17/outbox.cif.g08.bks.cpg/sg118_1_cif.got.tgz:1185.got - 2010.05.20 11:17:24.
