data_PCOD9558872
_publ_section_title
;
Structure prediction by ZEFSAII (Michael W. Deem and Ramdas Pophale) SiO2 
 PCOD9558872
Probable space group: P -4 N 2
;
_chemical_formula_sum "Si O2"
_cell_formula_units_Z 34
_cell_length_a 8.317250
_cell_length_b 8.317250
_cell_length_c 20.661126
_cell_angle_alpha 90.000000
_cell_angle_beta 90.000000
_cell_angle_gamma 90.000000
_cell_volume 1429.267432
_symmetry_space_group_name_H-M "P -4 N 2"
_symmetry_group_IT_number 118
_symmetry_cell_setting 'tetragonal'
loop_
_space_group_symop_operation_xyz
x,y,z
y,-x,-z
-x,-y,z
-y,x,-z
1/2+y,1/2+x,1/2-z
1/2-y,1/2-x,1/2-z
1/2-x,1/2+y,1/2+z
1/2+x,1/2-y,1/2+z
loop_
_atom_site_type_symbol
_atom_site_label
_atom_site_fract_x
_atom_site_fract_y
_atom_site_fract_z
Si Si1 0.823398 0.671837 0.120279
Si Si2 0.655572 0.120163 0.478402
Si Si3 0.813929 0.298304 0.128114
Si Si4 0.311256 0.188745 0.250000
Si Si5 0.175844 0.324157 0.750000
Si Si6 0.500000 0.500000 0.000000
O O1 0.804928 0.481603 0.104135
O O2 0.717552 0.713294 0.183208
O O3 0.999924 0.721634 0.144672
O O4 0.826209 0.723932 0.044745
O O5 0.664305 0.246949 0.420135
O O6 0.500000 0.000000 0.478102
O O7 0.825290 0.023887 0.466349
O O8 0.710174 0.292816 0.191878
O O9 0.495181 0.204280 0.272298
#
# Coordination Sequence:
#
# PCOD9558872 Si02
#       6
#     8   8   8   4   4   2
#     4  11  24  49  73 111 143 203 248 314 382 474
#     4  12  25  45  76 117 150 199 263 319 394 479
#     4  11  25  46  74 104 153 189 251 319 386 464
#     4  11  28  45  74 102 156 191 260 313 384 472
#     4  11  28  45  66 114 146 205 247 324 384 460
#     4  12  24  44  76 112 148 212 248 318 404 464
#
# _framework density 23.788412000000001
#
# number of rings (size 3 to 8) (size 9 to 14) (size 15 to 20)
#    0.000    0.706    4.706    1.412    6.588    7.529 
#    0.000    0.000    0.000    0.706    0.000    0.000 
#    0.000    0.000    0.000    0.000    0.000    0.000 
#
# Total GULP energy -189458.143147 kJ/mol
# GULP energy per Si atom -5572.298328 kJ/mol
# Density = 2.373427 g / cm^3
# Si number density = 23.788412 Si / 1000 Ang^3
#
#
#
# Elastic Constant Matrix: (Units=GPa)
#
#
# Indices 1 2 3 4 5 6 
#
# 1 64.8733 50.5987 11.1099 0.0000 0.0000 0.0000
# 2 50.5987 64.8730 11.1089 0.0000 0.0000 0.0000
# 3 11.1099 11.1089 110.8308 0.0000 0.0000 0.0000
# 4 0.0000 0.0000 0.0000 -255.2981 0.0000 0.0000
# 5 0.0000 0.0000 0.0000 0.0000 -255.5038 0.0000
# 6 0.0000 0.0000 0.0000 0.0000 0.0000 35.8613
#
#
#
# Elastic Compliance Matrix: (Units=1/GPa)
#
#
# Indices 1 2 3 4 5 6 
#
# 1 0.039443 -0.030612 -0.000885 0.000000 0.000000 0.000000
# 2 -0.030612 0.039443 -0.000885 0.000000 0.000000 0.000000
# 3 -0.000885 -0.000885 0.009200 0.000000 0.000000 0.000000
# 4 0.000000 0.000000 0.000000 -0.003917 0.000000 0.000000
# 5 0.000000 0.000000 0.000000 0.000000 -0.003914 0.000000
# 6 0.000000 0.000000 0.000000 0.000000 0.000000 0.027885
#
#
# Mechanical properties :
#
#
# Convention : Reuss Voigt Hill
#
# Bulk Modulus (GPa) = 42.88066 42.91243 42.89654
# Shear Modulus (GPa) = 27.67336 -83.80415 -28.06539
#
# Velocity S-wave (km/s) = 3.41444 -5.94184 -3.43854
# Velocity P-wave (km/s) = 5.79737 5.38475 1.51887
#
# Compressibility (1/GPa) = 0.02332054
#
# Stress axis : x y z
#
# Youngs Moduli (GPa) = 25.35317 25.35312 108.69313
#
# Poissons Ratio (x) = 0.77612 0.09624
# Poissons Ratio (y) = 0.77612 0.09617
# Poissons Ratio (z) = 0.02245 0.02243
#
# Static dielectric constant tensor:
#      x y z
#    x 2.167530 0.000000 0.000000 
#    y 0.000000 2.167360 0.000000 
#    z 0.000000 0.000000 1.998840 
# 
# From -- ./inp_files/5534.got.cif
#   From: 2010.05.17/outbox.cif.g08.bks.cpg/sg118_3_cif.got.tgz:5534.got - 2010.05.20 11:17:24.
