data_PCOD9558151
_publ_section_title
;
Structure prediction by ZEFSAII (Michael W. Deem and Ramdas Pophale) SiO2 
 PCOD9558151
Probable space group: P -4 B 2
;
_chemical_formula_sum "Si O2"
_cell_formula_units_Z 20
_cell_length_a 12.532629
_cell_length_b 12.532629
_cell_length_c 4.959564
_cell_angle_alpha 90.000000
_cell_angle_beta 90.000000
_cell_angle_gamma 90.000000
_cell_volume 778.982796
_symmetry_space_group_name_H-M "P -4 B 2"
_symmetry_group_IT_number 117
_symmetry_cell_setting 'tetragonal'
loop_
_space_group_symop_operation_xyz
x,y,z
y,-x,-z
-x,-y,z
-y,x,-z
1/2+y,1/2+x,-z
1/2-y,1/2-x,-z
1/2-x,1/2+y,z
1/2+x,1/2-y,z
loop_
_atom_site_type_symbol
_atom_site_label
_atom_site_fract_x
_atom_site_fract_y
_atom_site_fract_z
Si Si1 0.000000 0.500000 0.000000
Si Si2 0.000000 0.000000 0.500000
Si Si3 0.824393 0.110926 0.217121
Si Si4 0.777964 0.514814 0.708866
O O1 0.996782 0.395650 0.185763
O O2 0.984985 0.903566 0.701067
O O3 0.780853 0.094964 0.919610
O O4 0.732148 0.076080 0.425454
O O5 0.899945 0.213961 0.271568
#
# Coordination Sequence:
#
# PCOD9558151 Si02
#       4
#     2   2   8   8
#     4  12  32  50  68 110 164 202 240 302 372 442
#     4   8  16  34  68 106 132 162 240 318 356 406
#     4  10  20  40  73 106 138 187 244 303 364 434
#     4  11  24  45  73 106 146 189 244 303 368 436
#
# _framework density 25.674510999999999
#
# number of rings (size 3 to 8) (size 9 to 14) (size 15 to 20)
#    0.000    1.600    0.000    7.200    0.000    8.000 
#    0.000    8.000    0.000    0.000    0.000    0.000 
#    0.000    0.000    0.000    0.000    0.000    0.000 
#
# Total GULP energy -111839.138839 kJ/mol
# GULP energy per Si atom -5591.956942 kJ/mol
# Density = 2.561607 g / cm^3
# Si number density = 25.674511 Si / 1000 Ang^3
#
#
#
# Elastic Constant Matrix: (Units=GPa)
#
#
# Indices 1 2 3 4 5 6 
#
# 1 147.7259 47.5623 5.3378 0.0000 0.0000 0.0000
# 2 47.5623 147.7259 5.3378 0.0000 0.0000 0.0000
# 3 5.3378 5.3378 62.3903 0.0000 0.0000 0.0000
# 4 0.0000 0.0000 0.0000 34.0837 0.0000 0.0000
# 5 0.0000 0.0000 0.0000 0.0000 34.0837 0.0000
# 6 0.0000 0.0000 0.0000 0.0000 0.0000 31.1461
#
#
#
# Elastic Compliance Matrix: (Units=1/GPa)
#
#
# Indices 1 2 3 4 5 6 
#
# 1 0.007564 -0.002419 -0.000440 0.000000 0.000000 0.000000
# 2 -0.002419 0.007564 -0.000440 0.000000 0.000000 0.000000
# 3 -0.000440 -0.000440 0.016103 0.000000 0.000000 0.000000
# 4 0.000000 0.000000 0.000000 0.029340 0.000000 0.000000
# 5 0.000000 0.000000 0.000000 0.000000 0.029340 0.000000
# 6 0.000000 0.000000 0.000000 0.000000 0.000000 0.032107
#
#
# Mechanical properties :
#
#
# Convention : Reuss Voigt Hill
#
# Bulk Modulus (GPa) = 40.59721 52.70196 46.64959
# Shear Modulus (GPa) = 36.54225 39.83633 38.18929
#
# Velocity S-wave (km/s) = 3.77674 3.94330 3.86092
# Velocity P-wave (km/s) = 5.90466 6.42684 6.17128
#
# Compressibility (1/GPa) = 0.02463224
#
# Stress axis : x y z
#
# Youngs Moduli (GPa) = 132.20203 132.20203 62.09853
#
# Poissons Ratio (x) = 0.31986 0.02733
# Poissons Ratio (y) = 0.31986 0.02733
# Poissons Ratio (z) = 0.05819 0.05819
#
# Static dielectric constant tensor:
#      x y z
#    x 2.081860 0.000000 0.000000 
#    y 0.000000 2.081860 0.000000 
#    z 0.000000 0.000000 2.746880 
# 
# From -- ./inp_files/1167.got.cif
#   From: 2010.05.17/outbox.cif.g08.bks.cpg/sg117_1_cif.got.tgz:1167.got - 2010.05.20 11:15:09.
