data_PCOD9558282
_publ_section_title
;
Structure prediction by ZEFSAII (Michael W. Deem and Ramdas Pophale) SiO2 
 PCOD9558282
Probable space group: P -4 B 2
;
_chemical_formula_sum "Si O2"
_cell_formula_units_Z 48
_cell_length_a 24.297550
_cell_length_b 24.297550
_cell_length_c 4.987173
_cell_angle_alpha 90.000000
_cell_angle_beta 90.000000
_cell_angle_gamma 90.000000
_cell_volume 2944.281992
_symmetry_space_group_name_H-M "P -4 B 2"
_symmetry_group_IT_number 117
_symmetry_cell_setting 'tetragonal'
loop_
_space_group_symop_operation_xyz
x,y,z
y,-x,-z
-x,-y,z
-y,x,-z
1/2+y,1/2+x,-z
1/2-y,1/2-x,-z
1/2-x,1/2+y,z
1/2+x,1/2-y,z
loop_
_atom_site_type_symbol
_atom_site_label
_atom_site_fract_x
_atom_site_fract_y
_atom_site_fract_z
Si Si1 0.464085 0.373704 0.735136
Si Si2 0.253978 0.840478 0.933743
Si Si3 0.387633 0.706026 0.569920
Si Si4 0.887633 0.206026 0.430080
Si Si5 0.626296 0.535915 0.735137
Si Si6 0.840478 0.253978 0.933743
O O1 0.439461 0.320635 0.579872
O O2 0.500000 0.401661 0.499999
O O3 0.413477 0.413477 0.814554
O O4 0.500000 0.362447 0.999999
O O5 0.234087 0.887730 0.139886
O O6 0.207481 0.792519 0.957911
O O7 0.311260 0.811260 0.000000
O O8 0.249920 0.861476 0.632710
O O9 0.345277 0.654723 0.591011
O O10 0.439461 0.679365 0.420127
O O11 0.887730 0.234087 0.139886
O O12 0.861476 0.249920 0.632710
O O13 0.811260 0.311260 0.000000
#
# Coordination Sequence:
#
# PCOD9558282 Si02
#       6
#     8   8   8   8   8   8
#     4  11  22  34  46  58  74 100 136 180 226 261
#     4   9  15  24  40  60  79  97 115 139 182 244
#     4   9  17  28  40  56  77  97 120 154 198 246
#     4   9  17  28  40  56  77  97 120 154 198 246
#     4  11  22  34  46  58  74 100 136 180 226 261
#     4   9  15  24  40  60  79  97 115 139 182 244
#
# _framework density 16.302785
#
# number of rings (size 3 to 8) (size 9 to 14) (size 15 to 20)
#    0.000    2.333    0.000    4.000    0.000   11.333 
#    0.000    0.000    0.000    0.000    0.000    0.000 
#    0.000    0.000    0.000    0.000    0.000    0.000 
#
# Total GULP energy -267359.641963 kJ/mol
# GULP energy per Si atom -5569.992541 kJ/mol
# Density = 1.626568 g / cm^3
# Si number density = 16.302785 Si / 1000 Ang^3
#
#
#
# Elastic Constant Matrix: (Units=GPa)
#
#
# Indices 1 2 3 4 5 6 
#
# 1 18.8894 14.5221 -0.8022 0.0000 0.0000 0.0000
# 2 14.5221 18.8894 -0.8022 0.0000 0.0000 0.0000
# 3 -0.8022 -0.8022 73.7331 0.0000 0.0000 0.0000
# 4 0.0000 0.0000 0.0000 14.7821 0.0000 0.0000
# 5 0.0000 0.0000 0.0000 0.0000 14.7821 0.0000
# 6 0.0000 0.0000 0.0000 0.0000 0.0000 13.8471
#
#
#
# Elastic Compliance Matrix: (Units=1/GPa)
#
#
# Indices 1 2 3 4 5 6 
#
# 1 0.129460 -0.099514 0.000326 0.000000 0.000000 0.000000
# 2 -0.099514 0.129460 0.000326 0.000000 0.000000 0.000000
# 3 0.000326 0.000326 0.013570 0.000000 0.000000 0.000000
# 4 0.000000 0.000000 0.000000 0.067649 0.000000 0.000000
# 5 0.000000 0.000000 0.000000 0.000000 0.067649 0.000000
# 6 0.000000 0.000000 0.000000 0.000000 0.000000 0.072217
#
#
# Mechanical properties :
#
#
# Convention : Reuss Voigt Hill
#
# Bulk Modulus (GPa) = 13.37547 15.26080 14.31813
# Shear Modulus (GPa) = 7.11591 15.25521 11.18556
#
# Velocity S-wave (km/s) = 2.09149 3.06231 2.62222
# Velocity P-wave (km/s) = 3.74895 4.67812 4.23907
#
# Compressibility (1/GPa) = 0.07476374
#
# Stress axis : x y z
#
# Youngs Moduli (GPa) = 7.72441 7.72441 73.69460
#
# Poissons Ratio (x) = 0.76869 -0.02401
# Poissons Ratio (y) = 0.76869 -0.02401
# Poissons Ratio (z) = -0.00252 -0.00252
#
# Static dielectric constant tensor:
#      x y z
#    x 1.580810 0.000000 0.000000 
#    y 0.000000 1.580810 0.000000 
#    z 0.000000 0.000000 1.590390 
# 
# From -- ./inp_files/808.got.cif
#   From: 2010.05.17/outbox.cif.g08.bks.cpg/sg117_1_cif.got.tgz:808.got - 2010.05.20 11:15:09.
