data_PCOD9558383
_publ_section_title
;
Structure prediction by ZEFSAII (Michael W. Deem and Ramdas Pophale) SiO2 
 PCOD9558383
Probable space group: P -4 N 2
;
_chemical_formula_sum "Si O2"
_cell_formula_units_Z 56
_cell_length_a 20.007749
_cell_length_b 20.007749
_cell_length_c 7.508232
_cell_angle_alpha 90.000000
_cell_angle_beta 90.000000
_cell_angle_gamma 90.000000
_cell_volume 3005.620502
_symmetry_space_group_name_H-M "P -4 N 2"
_symmetry_group_IT_number 118
_symmetry_cell_setting 'tetragonal'
loop_
_space_group_symop_operation_xyz
x,y,z
y,-x,-z
-x,-y,z
-y,x,-z
1/2+y,1/2+x,1/2-z
1/2-y,1/2-x,1/2-z
1/2-x,1/2+y,1/2+z
1/2+x,1/2-y,1/2+z
loop_
_atom_site_type_symbol
_atom_site_label
_atom_site_fract_x
_atom_site_fract_y
_atom_site_fract_z
Si Si1 0.764896 0.627618 0.964085
Si Si2 0.841968 0.231469 0.033677
Si Si3 0.445565 0.054435 0.531753
Si Si4 0.024656 0.704667 0.462081
Si Si5 0.231469 0.158032 0.533677
Si Si6 0.524656 0.795332 0.537918
Si Si7 0.372382 0.764896 0.464084
O O1 0.698294 0.666060 0.028215
O O2 0.764987 0.632081 0.750000
O O3 0.828774 0.671226 0.027366
O O4 0.770800 0.550279 0.008524
O O5 0.843790 0.227430 0.250000
O O6 0.794842 0.294842 0.990286
O O7 0.801706 0.166060 0.971786
O O8 0.916477 0.247066 0.969287
O O9 0.445772 0.054228 0.750000
O O10 0.464813 0.128952 0.471520
O O11 0.500000 0.000000 0.474816
O O12 0.371048 0.035187 0.471522
O O13 0.034453 0.700711 0.249999
O O14 0.083523 0.752933 0.530712
O O15 0.449721 0.770799 0.508523
#
# Coordination Sequence:
#
# PCOD9558383 Si02
#       7
#     8   8   8   8   8   8   8
#     4   9  18  31  46  65  93 124 151 181 225 277
#     4   8  14  28  48  66  85 118 159 189 217 266
#     4   9  16  24  39  67  97 117 137 176 225 268
#     4  10  17  28  48  70  90 115 153 193 226 261
#     4   8  14  28  48  66  85 118 159 189 217 266
#     4  10  17  28  48  70  90 115 153 193 226 261
#     4   9  18  31  46  65  93 124 151 181 225 277
#
# _framework density 18.631758000000001
#
# number of rings (size 3 to 8) (size 9 to 14) (size 15 to 20)
#    0.000    3.000    1.429    2.571    0.000    1.714 
#    0.000    2.143    0.000    5.143    0.000    6.000 
#    0.000    0.000    0.000    0.000    0.000    0.000 
#
# Total GULP energy -312230.246093 kJ/mol
# GULP energy per Si atom -5575.540109 kJ/mol
# Density = 1.858935 g / cm^3
# Si number density = 18.631758 Si / 1000 Ang^3
#
#
#
# Elastic Constant Matrix: (Units=GPa)
#
#
# Indices 1 2 3 4 5 6 
#
# 1 163.8403 126.2181 0.8332 0.0000 0.0000 0.0000
# 2 126.2181 163.8401 0.8331 0.0000 0.0000 0.0000
# 3 0.8332 0.8331 44.2363 0.0000 0.0000 0.0000
# 4 0.0000 0.0000 0.0000 13.3610 0.0000 0.0000
# 5 0.0000 0.0000 0.0000 0.0000 13.3610 0.0000
# 6 0.0000 0.0000 0.0000 0.0000 0.0000 23.9413
#
#
#
# Elastic Compliance Matrix: (Units=1/GPa)
#
#
# Indices 1 2 3 4 5 6 
#
# 1 0.015014 -0.011566 -0.000065 0.000000 0.000000 0.000000
# 2 -0.011566 0.015014 -0.000065 0.000000 0.000000 0.000000
# 3 -0.000065 -0.000065 0.022608 0.000000 0.000000 0.000000
# 4 0.000000 0.000000 0.000000 0.074845 0.000000 0.000000
# 5 0.000000 0.000000 0.000000 0.000000 0.074845 0.000000
# 6 0.000000 0.000000 0.000000 0.000000 0.000000 0.041769
#
#
# Mechanical properties :
#
#
# Convention : Reuss Voigt Hill
#
# Bulk Modulus (GPa) = 34.19452 69.74285 51.96869
# Shear Modulus (GPa) = 18.03526 26.40148 22.21837
#
# Velocity S-wave (km/s) = 3.11462 3.76841 3.45701
# Velocity P-wave (km/s) = 5.59707 7.51319 6.62477
#
# Compressibility (1/GPa) = 0.02924445
#
# Stress axis : x y z
#
# Youngs Moduli (GPa) = 66.60430 66.60424 44.23155
#
# Poissons Ratio (x) = 0.77035 0.00287
# Poissons Ratio (y) = 0.77035 0.00287
# Poissons Ratio (z) = 0.00433 0.00432
#
# Static dielectric constant tensor:
#      x y z
#    x 1.641570 0.000000 0.000000 
#    y 0.000000 1.641570 0.000000 
#    z 0.000000 0.000000 1.723680 
# 
# From -- ./inp_files/3487.got.cif
#   From: 2010.05.17/outbox.cif.g08.bks.cpg/sg118_2_cif.got.tgz:3487.got - 2010.05.20 11:17:24.
