data_PCOD9558914
_publ_section_title
;
Structure prediction by ZEFSAII (Michael W. Deem and Ramdas Pophale) SiO2 
 PCOD9558914
Probable space group: P -4 N 2
;
_chemical_formula_sum "Si O2"
_cell_formula_units_Z 18
_cell_length_a 7.723757
_cell_length_b 7.723757
_cell_length_c 11.539151
_cell_angle_alpha 90.000000
_cell_angle_beta 90.000000
_cell_angle_gamma 90.000000
_cell_volume 688.384464
_symmetry_space_group_name_H-M "P -4 N 2"
_symmetry_group_IT_number 118
_symmetry_cell_setting 'tetragonal'
loop_
_space_group_symop_operation_xyz
x,y,z
y,-x,-z
-x,-y,z
-y,x,-z
1/2+y,1/2+x,1/2-z
1/2-y,1/2-x,1/2-z
1/2-x,1/2+y,1/2+z
1/2+x,1/2-y,1/2+z
loop_
_atom_site_type_symbol
_atom_site_label
_atom_site_fract_x
_atom_site_fract_y
_atom_site_fract_z
Si Si1 0.500000 0.500000 0.500000
Si Si2 0.340134 0.872567 0.493020
Si Si3 0.941158 0.174871 0.307332
O O1 0.395507 0.678159 0.470033
O O2 0.183633 0.906820 0.405533
O O3 0.500000 0.000000 0.470876
O O4 0.275370 0.907582 0.623978
O O5 0.821122 0.321122 0.250000
O O6 0.000000 0.000000 0.237995
#
# Coordination Sequence:
#
# PCOD9558914 Si02
#       3
#     2   8   8
#     4  12  24  44  84 120 148 242 264 336 476 492
#     4  12  24  49  80 115 173 213 273 367 427 510
#     4  12  26  49  81 119 168 225 285 355 439 519
#
# _framework density 26.148178999999999
#
# number of rings (size 3 to 8) (size 9 to 14) (size 15 to 20)
#    0.000    0.000    8.889    0.000    3.111    1.778 
#    0.000    4.444    0.000    2.667    0.000    0.000 
#    0.000    0.000    0.000    0.000    0.000    0.000 
#
# Total GULP energy -100544.527343 kJ/mol
# GULP energy per Si atom -5585.807075 kJ/mol
# Density = 2.608866 g / cm^3
# Si number density = 26.148179 Si / 1000 Ang^3
#
#
#
# Elastic Constant Matrix: (Units=GPa)
#
#
# Indices 1 2 3 4 5 6 
#
# 1 151.7294 20.8364 50.1282 0.0000 0.0000 0.0000
# 2 20.8364 151.7294 50.1282 0.0000 0.0000 0.0000
# 3 50.1282 50.1282 72.2529 0.0000 0.0000 0.0000
# 4 0.0000 0.0000 0.0000 29.4473 0.0000 0.0000
# 5 0.0000 0.0000 0.0000 0.0000 29.4473 0.0000
# 6 0.0000 0.0000 0.0000 0.0000 0.0000 83.2693
#
#
#
# Elastic Compliance Matrix: (Units=1/GPa)
#
#
# Indices 1 2 3 4 5 6 
#
# 1 0.008674 0.001034 -0.006735 0.000000 0.000000 0.000000
# 2 0.001034 0.008674 -0.006735 0.000000 0.000000 0.000000
# 3 -0.006735 -0.006735 0.023186 0.000000 0.000000 0.000000
# 4 0.000000 0.000000 0.000000 0.033959 0.000000 0.000000
# 5 0.000000 0.000000 0.000000 0.000000 0.033959 0.000000
# 6 0.000000 0.000000 0.000000 0.000000 0.000000 0.012009
#
#
# Mechanical properties :
#
#
# Convention : Reuss Voigt Hill
#
# Bulk Modulus (GPa) = 63.85364 68.65524 66.25444
# Shear Modulus (GPa) = 33.21072 45.40739 39.30906
#
# Velocity S-wave (km/s) = 3.56771 4.17170 3.88147
# Velocity P-wave (km/s) = 6.43773 7.03686 6.74395
#
# Compressibility (1/GPa) = 0.01566081
#
# Stress axis : x y z
#
# Youngs Moduli (GPa) = 115.28903 115.28903 43.12967
#
# Poissons Ratio (x) = -0.11921 0.29049
# Poissons Ratio (y) = -0.11921 0.29049
# Poissons Ratio (z) = 0.77650 0.77650
#
# Static dielectric constant tensor:
#      x y z
#    x 2.016300 0.000000 0.000000 
#    y 0.000000 2.016300 0.000000 
#    z 0.000000 0.000000 2.238370 
# 
# From -- ./inp_files/2462.got.cif
#   From: 2010.05.17/outbox.cif.g08.bks.cpg/sg118_2_cif.got.tgz:2462.got - 2010.05.20 11:17:24.
