data_PCOD9558170
_publ_section_title
;
Structure prediction by ZEFSAII (Michael W. Deem and Ramdas Pophale) SiO2 
 PCOD9558170
Probable space group: P -4 B 2
;
_chemical_formula_sum "Si O2"
_cell_formula_units_Z 54
_cell_length_a 15.003254
_cell_length_b 15.003254
_cell_length_c 13.517356
_cell_angle_alpha 90.000000
_cell_angle_beta 90.000000
_cell_angle_gamma 90.000000
_cell_volume 3042.724807
_symmetry_space_group_name_H-M "P -4 B 2"
_symmetry_group_IT_number 117
_symmetry_cell_setting 'tetragonal'
loop_
_space_group_symop_operation_xyz
x,y,z
y,-x,-z
-x,-y,z
-y,x,-z
1/2+y,1/2+x,-z
1/2-y,1/2-x,-z
1/2-x,1/2+y,z
1/2+x,1/2-y,z
loop_
_atom_site_type_symbol
_atom_site_label
_atom_site_fract_x
_atom_site_fract_y
_atom_site_fract_z
Si Si1 0.684357 0.332023 0.786088
Si Si2 0.500000 0.000000 0.500000
Si Si3 0.446716 0.812659 0.475437
Si Si4 0.000000 0.000000 0.639545
Si Si5 0.659565 0.689855 0.807749
Si Si6 0.409551 0.381868 0.006707
Si Si7 0.983357 0.803971 0.289355
Si Si8 0.304265 0.492954 0.344785
O O1 0.762665 0.261127 0.796245
O O2 0.646612 0.361692 0.892497
O O3 0.729344 0.419997 0.739324
O O4 0.599178 0.303423 0.718557
O O5 0.505380 0.094541 0.443611
O O6 0.346654 0.846654 0.500000
O O7 0.452526 0.738967 0.391812
O O8 0.489581 0.773633 0.574893
O O9 0.089502 0.996385 0.703227
O O10 0.996651 0.899945 0.595596
O O11 0.707856 0.595584 0.786939
O O12 0.578641 0.700668 0.727873
O O13 0.617541 0.681985 0.916354
O O14 0.382929 0.483671 0.981458
#
# Coordination Sequence:
#
# PCOD9558170 Si02
#       8
#     8   2   8   4   8   8   8   8
#     4  11  22  36  61  88 117 152 197 242 299 346
#     4   8  24  40  60  72 116 170 208 232 264 336
#     4  10  22  39  57  79 119 156 204 231 278 339
#     4   8  20  33  56  81 116 138 184 237 304 333
#     4  11  22  36  61  88 117 152 197 242 299 346
#     4  11  21  38  64  84 119 155 188 248 304 363
#     4  10  21  38  57  89 117 154 193 243 293 352
#     4  10  21  38  57  89 117 154 193 243 293 352
#
# _framework density 17.747250000000001
#
# number of rings (size 3 to 8) (size 9 to 14) (size 15 to 20)
#    0.444    1.333    2.963    1.333    2.074    5.333 
#    0.000    1.481    0.000    0.000    0.000    2.074 
#    0.000    0.000    0.000    0.000    0.000    0.000 
#
# Total GULP energy -300624.963238 kJ/mol
# GULP energy per Si atom -5567.128949 kJ/mol
# Density = 1.770686 g / cm^3
# Si number density = 17.747250 Si / 1000 Ang^3
#
#
#
# Elastic Constant Matrix: (Units=GPa)
#
#
# Indices 1 2 3 4 5 6 
#
# 1 91.8335 51.3981 24.0192 0.0000 0.0000 0.0000
# 2 51.3981 91.8335 24.0192 0.0000 0.0000 0.0000
# 3 24.0192 24.0192 76.0598 0.0000 0.0000 0.0000
# 4 0.0000 0.0000 0.0000 4.8798 0.0000 0.0000
# 5 0.0000 0.0000 0.0000 0.0000 4.8798 0.0000
# 6 0.0000 0.0000 0.0000 0.0000 0.0000 34.6502
#
#
#
# Elastic Compliance Matrix: (Units=1/GPa)
#
#
# Indices 1 2 3 4 5 6 
#
# 1 0.016270 -0.008461 -0.002466 0.000000 0.000000 0.000000
# 2 -0.008461 0.016270 -0.002466 0.000000 0.000000 0.000000
# 3 -0.002466 -0.002466 0.014705 0.000000 0.000000 0.000000
# 4 0.000000 0.000000 0.000000 0.204925 0.000000 0.000000
# 5 0.000000 0.000000 0.000000 0.000000 0.204925 0.000000
# 6 0.000000 0.000000 0.000000 0.000000 0.000000 0.028860
#
#
# Mechanical properties :
#
#
# Convention : Reuss Voigt Hill
#
# Bulk Modulus (GPa) = 48.87892 50.95551 49.91721
# Shear Modulus (GPa) = 9.62352 19.56800 14.59576
#
# Velocity S-wave (km/s) = 2.33116 3.32413 2.87090
# Velocity P-wave (km/s) = 5.90315 6.59600 6.25917
#
# Compressibility (1/GPa) = 0.02045872
#
# Stress axis : x y z
#
# Youngs Moduli (GPa) = 61.46375 61.46375 68.00402
#
# Poissons Ratio (x) = 0.52004 0.16769
# Poissons Ratio (y) = 0.52004 0.16769
# Poissons Ratio (z) = 0.15157 0.15157
#
# Static dielectric constant tensor:
#      x y z
#    x 1.622400 0.000000 0.000000 
#    y 0.000000 1.622400 0.000000 
#    z 0.000000 0.000000 1.611460 
# 
# From -- ./inp_files/3250.got.cif
#   From: 2010.05.17/outbox.cif.g08.bks.cpg/sg117_2_cif.got.tgz:3250.got - 2010.05.20 11:15:09.
