data_PCOD9558844
_publ_section_title
;
Structure prediction by ZEFSAII (Michael W. Deem and Ramdas Pophale) SiO2 
 PCOD9558844
Probable space group: P -4 N 2
;
_chemical_formula_sum "Si O2"
_cell_formula_units_Z 24
_cell_length_a 10.841959
_cell_length_b 10.841959
_cell_length_c 8.761049
_cell_angle_alpha 90.000000
_cell_angle_beta 90.000000
_cell_angle_gamma 90.000000
_cell_volume 1029.844445
_symmetry_space_group_name_H-M "P -4 N 2"
_symmetry_group_IT_number 118
_symmetry_cell_setting 'tetragonal'
loop_
_space_group_symop_operation_xyz
x,y,z
y,-x,-z
-x,-y,z
-y,x,-z
1/2+y,1/2+x,1/2-z
1/2-y,1/2-x,1/2-z
1/2-x,1/2+y,1/2+z
1/2+x,1/2-y,1/2+z
loop_
_atom_site_type_symbol
_atom_site_label
_atom_site_fract_x
_atom_site_fract_y
_atom_site_fract_z
Si Si1 0.083818 0.752273 0.649290
Si Si2 0.942909 0.820266 0.929434
Si Si3 0.907602 0.674620 0.406528
O O1 0.144400 0.644400 0.750000
O O2 0.189794 0.853166 0.628564
O O3 0.976013 0.813225 0.751188
O O4 0.034477 0.694923 0.493454
O O5 0.888768 0.690765 0.981442
O O6 0.069857 0.851863 0.019922
O O7 0.900649 0.599351 0.250000
#
# Coordination Sequence:
#
# PCOD9558844 Si02
#       3
#     8   8   8
#     4  11  25  49  72 109 149 191 248 308 368 435
#     4  11  23  44  74 100 147 194 245 300 368 435
#     4  11  25  47  73 112 143 193 251 296 371 446
#
# _framework density 23.304490999999999
#
# number of rings (size 3 to 8) (size 9 to 14) (size 15 to 20)
#    0.000    1.000    6.667    1.000    4.667    3.333 
#    0.000    3.333    0.000    0.000    0.000    0.000 
#    0.000    0.000    0.000    0.000    0.000    0.000 
#
# Total GULP energy -134427.624036 kJ/mol
# GULP energy per Si atom -5601.151002 kJ/mol
# Density = 2.325145 g / cm^3
# Si number density = 23.304491 Si / 1000 Ang^3
#
#
#
# Elastic Constant Matrix: (Units=GPa)
#
#
# Indices 1 2 3 4 5 6 
#
# 1 46.1533 22.4506 30.5691 0.0000 0.0000 0.0000
# 2 22.4506 46.1543 30.5688 0.0000 0.0000 0.0000
# 3 30.5691 30.5688 125.8850 0.0000 0.0000 0.0000
# 4 0.0000 0.0000 0.0000 50.7456 0.0000 0.0000
# 5 0.0000 0.0000 0.0000 0.0000 50.7456 0.0000
# 6 0.0000 0.0000 0.0000 0.0000 0.0000 38.1217
#
#
#
# Elastic Compliance Matrix: (Units=1/GPa)
#
#
# Indices 1 2 3 4 5 6 
#
# 1 0.030395 -0.011793 -0.004517 0.000000 0.000000 0.000000
# 2 -0.011793 0.030395 -0.004517 0.000000 0.000000 0.000000
# 3 -0.004517 -0.004517 0.010138 0.000000 0.000000 0.000000
# 4 0.000000 0.000000 0.000000 0.019706 0.000000 0.000000
# 5 0.000000 0.000000 0.000000 0.000000 0.019706 0.000000
# 6 0.000000 0.000000 0.000000 0.000000 0.000000 0.026232
#
#
# Mechanical properties :
#
#
# Convention : Reuss Voigt Hill
#
# Bulk Modulus (GPa) = 34.16148 42.81883 38.49015
# Shear Modulus (GPa) = 26.59797 36.89618 31.74707
#
# Velocity S-wave (km/s) = 3.38201 3.98329 3.69490
# Velocity P-wave (km/s) = 5.47186 6.29039 5.89535
#
# Compressibility (1/GPa) = 0.02927274
#
# Stress axis : x y z
#
# Youngs Moduli (GPa) = 32.89962 32.90056 98.64299
#
# Poissons Ratio (x) = 0.38800 0.44560
# Poissons Ratio (y) = 0.38799 0.44557
# Poissons Ratio (z) = 0.14862 0.14861
#
# Static dielectric constant tensor:
#      x y z
#    x 1.871930 0.000000 0.000000 
#    y 0.000000 1.871930 0.000000 
#    z 0.000000 0.000000 1.896630 
# 
# From -- ./inp_files/1347.got.cif
#   From: 2010.05.17/outbox.cif.g08.bks.cpg/sg118_1_cif.got.tgz:1347.got - 2010.05.20 11:17:24.
