data_PCOD9558004
_publ_section_title
;
Structure prediction by ZEFSAII (Michael W. Deem and Ramdas Pophale) SiO2 
 PCOD9558004
Probable space group: P -4 C 2
;
_chemical_formula_sum "Si O2"
_cell_formula_units_Z 22
_cell_length_a 8.872402
_cell_length_b 8.872402
_cell_length_c 11.740137
_cell_angle_alpha 90.000000
_cell_angle_beta 90.000000
_cell_angle_gamma 90.000000
_cell_volume 924.177917
_symmetry_space_group_name_H-M "P -4 C 2"
_symmetry_group_IT_number 116
_symmetry_cell_setting 'tetragonal'
loop_
_space_group_symop_operation_xyz
x,y,z
y,-x,-z
-x,-y,z
-y,x,-z
y,x,1/2-z
-y,-x,1/2-z
-x,y,1/2+z
x,-y,1/2+z
loop_
_atom_site_type_symbol
_atom_site_label
_atom_site_fract_x
_atom_site_fract_y
_atom_site_fract_z
Si Si1 0.500000 0.000000 0.670527
Si Si2 0.261252 0.470709 0.002406
Si Si3 0.000000 0.000000 0.500000
Si Si4 0.937798 0.739070 0.164926
O O1 0.529485 0.142928 0.590707
O O2 0.639677 0.961293 0.751677
O O3 0.166066 0.377257 0.094660
O O4 0.355519 0.613676 0.046982
O O5 0.852317 0.017227 0.422201
O O6 0.838802 0.838802 0.250000
#
# Coordination Sequence:
#
# PCOD9558004 Si02
#       4
#     4   8   2   8
#     4  12  26  50  80 110 152 206 262 324 396 468
#     4  11  26  51  75 111 157 198 260 322 389 484
#     4  12  30  52  76 110 160 204 274 328 376 478
#     4  12  26  50  76 113 149 207 257 319 397 454
#
# _framework density 23.804940999999999
#
# number of rings (size 3 to 8) (size 9 to 14) (size 15 to 20)
#    0.000    0.364    3.636    3.818    5.091    1.455 
#    0.000    0.000    0.000    0.000    0.000    0.000 
#    0.000    0.000    0.000    0.000    0.000    0.000 
#
# Total GULP energy -123248.460906 kJ/mol
# GULP energy per Si atom -5602.202768 kJ/mol
# Density = 2.375076 g / cm^3
# Si number density = 23.804941 Si / 1000 Ang^3
#
#
#
# Elastic Constant Matrix: (Units=GPa)
#
#
# Indices 1 2 3 4 5 6 
#
# 1 84.5724 24.0147 30.8088 0.0000 0.0000 0.0000
# 2 24.0147 84.5724 30.8088 0.0000 0.0000 0.0000
# 3 30.8088 30.8088 89.2518 0.0000 0.0000 0.0000
# 4 0.0000 0.0000 0.0000 35.7026 0.0000 0.0000
# 5 0.0000 0.0000 0.0000 0.0000 35.7026 0.0000
# 6 0.0000 0.0000 0.0000 0.0000 0.0000 43.8859
#
#
#
# Elastic Compliance Matrix: (Units=1/GPa)
#
#
# Indices 1 2 3 4 5 6 
#
# 1 0.013983 -0.002530 -0.003953 0.000000 0.000000 0.000000
# 2 -0.002530 0.013983 -0.003953 0.000000 0.000000 0.000000
# 3 -0.003953 -0.003953 0.013934 0.000000 0.000000 0.000000
# 4 0.000000 0.000000 0.000000 0.028009 0.000000 0.000000
# 5 0.000000 0.000000 0.000000 0.000000 0.028009 0.000000
# 6 0.000000 0.000000 0.000000 0.000000 0.000000 0.022786
#
#
# Mechanical properties :
#
#
# Convention : Reuss Voigt Hill
#
# Bulk Modulus (GPa) = 47.56163 47.74016 47.65089
# Shear Modulus (GPa) = 33.65052 34.57585 34.11318
#
# Velocity S-wave (km/s) = 3.76386 3.81526 3.78964
# Velocity P-wave (km/s) = 6.23794 6.28542 6.26173
#
# Compressibility (1/GPa) = 0.02102535
#
# Stress axis : x y z
#
# Youngs Moduli (GPa) = 71.51630 71.51630 71.76933
#
# Poissons Ratio (x) = 0.18096 0.28372
# Poissons Ratio (y) = 0.18096 0.28372
# Poissons Ratio (z) = 0.28272 0.28272
#
# Static dielectric constant tensor:
#      x y z
#    x 1.905480 0.000000 0.000000 
#    y 0.000000 1.905480 0.000000 
#    z 0.000000 0.000000 1.859990 
# 
# From -- ./inp_files/1349.got.cif
#   From: 2010.05.17/outbox.cif.g08.bks.cpg/sg116_1_cif.got.tgz:1349.got - 2010.05.20 11:11:43.
