data_PCOD9558962
_publ_section_title
;
Structure prediction by ZEFSAII (Michael W. Deem and Ramdas Pophale) SiO2 
 PCOD9558962
Probable space group: I -4 M 2
;
_chemical_formula_sum "Si O2"
_cell_formula_units_Z 80
_cell_length_a 30.707842
_cell_length_b 30.707842
_cell_length_c 5.174129
_cell_angle_alpha 90.000000
_cell_angle_beta 90.000000
_cell_angle_gamma 90.000000
_cell_volume 4879.056496
_symmetry_space_group_name_H-M "I -4 M 2"
_symmetry_group_IT_number 119
_symmetry_cell_setting 'tetragonal'
loop_
_space_group_symop_operation_xyz
x,y,z
y,-x,-z
-x,-y,z
-y,x,-z
y,x,-z
-y,-x,-z
-x,y,z
x,-y,z
1/2+x,1/2+y,1/2+z
1/2+y,1/2-x,1/2-z
1/2-x,1/2-y,1/2+z
1/2-y,1/2+x,1/2-z
1/2+y,1/2+x,1/2-z
1/2-y,1/2-x,1/2-z
1/2-x,1/2+y,1/2+z
1/2+x,1/2-y,1/2+z
loop_
_atom_site_type_symbol
_atom_site_label
_atom_site_fract_x
_atom_site_fract_y
_atom_site_fract_z
Si Si1 0.594490 0.947644 0.998154
Si Si2 0.552305 0.806334 0.583962
Si Si3 0.091323 0.840588 0.456028
Si Si4 0.449141 0.618199 0.455633
Si Si5 0.052813 0.748130 0.587434
O O1 0.567409 0.932592 0.750000
O O2 0.644558 0.932483 0.963014
O O3 0.593785 0.000000 0.020949
O O4 0.573669 0.926332 0.250000
O O5 0.500000 0.808419 0.562974
O O6 0.565519 0.772358 0.362199
O O7 0.561505 0.787608 0.866430
O O8 0.139837 0.860164 0.500000
O O9 0.062796 0.867265 0.666335
O O10 0.080217 0.790926 0.519634
O O11 0.075785 0.851953 0.166463
O O12 0.429699 0.570302 0.500000
O O13 0.500000 0.621537 0.500190
O O14 0.000000 0.757756 0.586513
#
# Coordination Sequence:
#
# PCOD9558962 Si02
#       5
#    16  16  16  16  16
#     4  11  22  36  53  75 108 142 172 203 228 258
#     4   9  19  32  48  72  96 124 162 203 238 271
#     4  10  20  31  45  67  93 118 150 197 249 303
#     4  10  19  30  42  58  83 116 155 195 236 285
#     4  10  17  29  49  68  92 124 158 196 247 302
#
# _framework density 16.396612999999999
#
# number of rings (size 3 to 8) (size 9 to 14) (size 15 to 20)
#    0.000    2.000    0.000    4.800    0.000    6.200 
#    0.000    0.000    0.000    3.600    0.000    0.000 
#    0.000   16.000    0.000    0.000    0.000    0.000 
#
# Total GULP energy -223081.072082 kJ/mol
# GULP energy per Si atom -5577.026802 kJ/mol
# Density = 1.635929 g / cm^3
# Si number density = 16.396613 Si / 1000 Ang^3
#
#
#
# Elastic Constant Matrix: (Units=GPa)
#
#
# Indices 1 2 3 4 5 6 
#
# 1 55.1063 3.6316 -14.0083 0.0000 0.0000 0.0000
# 2 3.6316 55.1068 -14.0116 0.0000 0.0000 0.0000
# 3 -14.0083 -14.0116 47.6298 0.0000 0.0000 0.0000
# 4 0.0000 0.0000 0.0000 16.8509 0.0000 0.0000
# 5 0.0000 0.0000 0.0000 0.0000 16.8516 0.0000
# 6 0.0000 0.0000 0.0000 0.0000 0.0000 6.3181
#
#
#
# Elastic Compliance Matrix: (Units=1/GPa)
#
#
# Indices 1 2 3 4 5 6 
#
# 1 0.019615 0.000188 0.005824 0.000000 0.000000 0.000000
# 2 0.000188 0.019615 0.005826 0.000000 0.000000 0.000000
# 3 0.005824 0.005826 0.024422 0.000000 0.000000 0.000000
# 4 0.000000 0.000000 0.000000 0.059344 0.000000 0.000000
# 5 0.000000 0.000000 0.000000 0.000000 0.059342 0.000000
# 6 0.000000 0.000000 0.000000 0.000000 0.000000 0.158274
#
#
# Mechanical properties :
#
#
# Convention : Reuss Voigt Hill
#
# Bulk Modulus (GPa) = 11.45094 12.11848 11.78471
# Shear Modulus (GPa) = 14.44898 20.15288 17.30093
#
# Velocity S-wave (km/s) = 2.97175 3.50964 3.25184
# Velocity P-wave (km/s) = 4.33289 4.88163 4.61542
#
# Compressibility (1/GPa) = 0.08732906
#
# Stress axis : x y z
#
# Youngs Moduli (GPa) = 50.98166 50.98024 40.94658
#
# Poissons Ratio (x) = -0.00960 -0.23848
# Poissons Ratio (y) = -0.00960 -0.23855
# Poissons Ratio (z) = -0.29693 -0.29700
#
# Static dielectric constant tensor:
#      x y z
#    x 1.545420 0.000000 0.000000 
#    y 0.000000 1.545420 0.000000 
#    z 0.000000 0.000000 1.555640 
# 
# From -- ./inp_files/989.got.cif
#   From: 2010.05.17/outbox.cif.g08.bks.cpg/sg119_1_cif.got.tgz:989.got - 2010.05.20 11:21:29.
