data_PCOD9558998
_publ_section_title
;
Structure prediction by ZEFSAII (Michael W. Deem and Ramdas Pophale) SiO2 
 PCOD9558998
Probable space group: I -4 M 2
;
_chemical_formula_sum "Si O2"
_cell_formula_units_Z 112
_cell_length_a 14.458002
_cell_length_b 14.458002
_cell_length_c 24.635183
_cell_angle_alpha 90.000000
_cell_angle_beta 90.000000
_cell_angle_gamma 90.000000
_cell_volume 5149.586454
_symmetry_space_group_name_H-M "I -4 M 2"
_symmetry_group_IT_number 119
_symmetry_cell_setting 'tetragonal'
loop_
_space_group_symop_operation_xyz
x,y,z
y,-x,-z
-x,-y,z
-y,x,-z
y,x,-z
-y,-x,-z
-x,y,z
x,-y,z
1/2+x,1/2+y,1/2+z
1/2+y,1/2-x,1/2-z
1/2-x,1/2-y,1/2+z
1/2-y,1/2+x,1/2-z
1/2+y,1/2+x,1/2-z
1/2-y,1/2-x,1/2-z
1/2-x,1/2+y,1/2+z
1/2+x,1/2-y,1/2+z
loop_
_atom_site_type_symbol
_atom_site_label
_atom_site_fract_x
_atom_site_fract_y
_atom_site_fract_z
Si Si1 0.291443 0.206341 0.191576
Si Si2 0.108239 0.391419 0.909185
Si Si3 0.391013 0.392560 0.337689
Si Si4 0.395658 0.389120 0.172764
Si Si5 0.897237 0.843235 0.443911
Si Si6 0.193810 0.901190 0.955165
Si Si7 0.396710 0.138603 0.962920
O O1 0.329011 0.170990 0.250000
O O2 0.336056 0.161350 0.137570
O O3 0.184111 0.175708 0.188483
O O4 0.319827 0.314940 0.191915
O O5 0.113326 0.500000 0.895343
O O6 0.144551 0.383964 0.971238
O O7 0.000000 0.363297 0.910577
O O8 0.500000 0.371546 0.329475
O O9 0.375761 0.500000 0.320357
O O10 0.365984 0.387788 0.401504
O O11 0.500000 0.373794 0.195105
O O12 0.375235 0.500000 0.178083
O O13 0.398382 0.367160 0.108233
O O14 0.845414 0.845414 0.500000
O O15 0.900031 0.735331 0.431322
O O16 0.000000 0.875555 0.457465
O O17 0.167312 0.000000 0.980200
O O18 0.175380 0.824621 0.000000
O O19 0.302182 0.904482 0.941878
O O20 0.500000 0.098015 0.956487
#
# Coordination Sequence:
#
# PCOD9558998 Si02
#       7
#    16  16  16  16  16  16  16
#     4  12  25  41  64  88 111 150 207 263 314 369
#     4  10  21  36  54  82 124 168 207 252 310 371
#     4  10  23  43  65  92 126 160 198 251 314 371
#     4  10  22  40  62  92 130 165 198 245 307 370
#     4  10  18  29  50  79 113 152 190 227 270 332
#     4  11  21  34  57  86 118 158 202 247 297 359
#     4  10  20  34  55  84 120 162 201 238 288 352
#
# _framework density 21.749320999999998
#
# number of rings (size 3 to 8) (size 9 to 14) (size 15 to 20)
#    0.000    1.571    0.000    5.143    0.000    6.286 
#    0.000    2.143    0.000    1.286    0.000    1.000 
#    0.000    0.000    0.000    0.000    0.000    0.000 
#
# Total GULP energy -312203.776872 kJ/mol
# GULP energy per Si atom -5575.067444 kJ/mol
# Density = 2.169982 g / cm^3
# Si number density = 21.749321 Si / 1000 Ang^3
#
#
#
# Elastic Constant Matrix: (Units=GPa)
#
#
# Indices 1 2 3 4 5 6 
#
# 1 113.6570 66.5410 31.6475 0.0000 0.0000 0.0000
# 2 66.5410 113.6580 31.6484 0.0000 0.0000 0.0000
# 3 31.6475 31.6484 54.1151 0.0000 0.0000 0.0000
# 4 0.0000 0.0000 0.0000 -75.8742 0.0000 0.0000
# 5 0.0000 0.0000 0.0000 0.0000 -75.8603 0.0000
# 6 0.0000 0.0000 0.0000 0.0000 0.0000 26.9333
#
#
#
# Elastic Compliance Matrix: (Units=1/GPa)
#
#
# Indices 1 2 3 4 5 6 
#
# 1 0.014104 -0.007120 -0.004084 0.000000 0.000000 0.000000
# 2 -0.007120 0.014104 -0.004085 0.000000 0.000000 0.000000
# 3 -0.004084 -0.004085 0.023257 0.000000 0.000000 0.000000
# 4 0.000000 0.000000 0.000000 -0.013180 0.000000 0.000000
# 5 0.000000 0.000000 0.000000 0.000000 -0.013182 0.000000
# 6 0.000000 0.000000 0.000000 0.000000 0.000000 0.037129
#
#
# Mechanical properties :
#
#
# Convention : Reuss Voigt Hill
#
# Bulk Modulus (GPa) = 47.87704 60.12265 53.99984
# Shear Modulus (GPa) = 50.11433 -14.85403 17.63015
#
# Velocity S-wave (km/s) = 4.80539 -2.61620 2.85020
# Velocity P-wave (km/s) = 7.26980 4.31016 5.97610
#
# Compressibility (1/GPa) = 0.02088684
#
# Stress axis : x y z
#
# Youngs Moduli (GPa) = 70.90161 70.90154 42.99851
#
# Poissons Ratio (x) = 0.50481 0.17562
# Poissons Ratio (y) = 0.50481 0.17564
# Poissons Ratio (z) = 0.28959 0.28961
#
# Static dielectric constant tensor:
#      x y z
#    x 1.874980 0.000000 0.000000 
#    y 0.000000 1.874990 0.000000 
#    z 0.000000 0.000000 1.795980 
# 
# From -- ./inp_files/8822.got.cif
#   From: 2010.05.17/outbox.cif.g08.bks.cpg/sg119_5_cif.got.tgz:8822.got - 2010.05.20 11:21:29.
