data_PCOD9558011
_publ_section_title
;
Structure prediction by ZEFSAII (Michael W. Deem and Ramdas Pophale) SiO2 
 PCOD9558011
Probable space group: P -4 C 2
;
_chemical_formula_sum "Si O2"
_cell_formula_units_Z 18
_cell_length_a 5.187573
_cell_length_b 5.187573
_cell_length_c 28.825151
_cell_angle_alpha 90.000000
_cell_angle_beta 90.000000
_cell_angle_gamma 90.000000
_cell_volume 775.711149
_symmetry_space_group_name_H-M "P -4 C 2"
_symmetry_group_IT_number 116
_symmetry_cell_setting 'tetragonal'
loop_
_space_group_symop_operation_xyz
x,y,z
y,-x,-z
-x,-y,z
-y,x,-z
y,x,1/2-z
-y,-x,1/2-z
-x,y,1/2+z
x,-y,1/2+z
loop_
_atom_site_type_symbol
_atom_site_label
_atom_site_fract_x
_atom_site_fract_y
_atom_site_fract_z
Si Si1 0.000000 0.500000 0.937303
Si Si2 0.500000 0.500000 0.125325
Si Si3 0.000000 0.000000 0.500000
Si Si4 0.750219 0.174748 0.196319
O O1 0.253229 0.557047 0.906551
O O2 0.052650 0.249696 0.968509
O O3 0.723479 0.408021 0.160494
O O4 0.741621 0.258379 0.250000
O O5 0.500000 0.000000 0.188602
O O6 0.000000 0.000000 0.189133
#
# Coordination Sequence:
#
# PCOD9558011 Si02
#       4
#     4   4   2   8
#     4  12  28  48  84 104 154 186 254 310 398 452
#     4  12  27  49  78 118 144 204 252 321 357 470
#     4  12  28  56  72 116 142 196 236 324 400 476
#     4  11  28  47  73 109 160 206 250 305 368 436
#
# _framework density 23.204512999999999
#
# number of rings (size 3 to 8) (size 9 to 14) (size 15 to 20)
#    0.000    0.444    2.222    3.333   15.556    3.556 
#    0.000    0.000    0.000    0.000    0.000    0.000 
#    0.000    0.000    0.000    0.000    0.000    0.000 
#
# Total GULP energy -100911.212733 kJ/mol
# GULP energy per Si atom -5606.178485 kJ/mol
# Density = 2.315170 g / cm^3
# Si number density = 23.204513 Si / 1000 Ang^3
#
#
#
# Elastic Constant Matrix: (Units=GPa)
#
#
# Indices 1 2 3 4 5 6 
#
# 1 168.3708 42.8144 73.1055 0.0000 0.0000 0.0000
# 2 42.8144 168.3704 73.1055 0.0000 0.0000 0.0000
# 3 73.1055 73.1055 159.5149 0.0000 0.0000 0.0000
# 4 0.0000 0.0000 0.0000 20.7828 0.0000 0.0000
# 5 0.0000 0.0000 0.0000 0.0000 20.7828 0.0000
# 6 0.0000 0.0000 0.0000 0.0000 0.0000 29.5474
#
#
#
# Elastic Compliance Matrix: (Units=1/GPa)
#
#
# Indices 1 2 3 4 5 6 
#
# 1 0.007450 -0.000514 -0.003179 0.000000 0.000000 0.000000
# 2 -0.000514 0.007450 -0.003179 0.000000 0.000000 0.000000
# 3 -0.003179 -0.003179 0.009183 0.000000 0.000000 0.000000
# 4 0.000000 0.000000 0.000000 0.048117 0.000000 0.000000
# 5 0.000000 0.000000 0.000000 0.000000 0.048117 0.000000
# 6 0.000000 0.000000 0.000000 0.000000 0.000000 0.033844
#
#
# Mechanical properties :
#
#
# Convention : Reuss Voigt Hill
#
# Bulk Modulus (GPa) = 96.71582 97.14521 96.93051
# Shear Modulus (GPa) = 29.17994 34.70465 31.94230
#
# Velocity S-wave (km/s) = 3.54999 3.87149 3.71422
# Velocity P-wave (km/s) = 7.65333 7.87022 7.76253
#
# Compressibility (1/GPa) = 0.01033957
#
# Stress axis : x y z
#
# Youngs Moduli (GPa) = 134.22395 134.22359 108.90142
#
# Poissons Ratio (x) = 0.06903 0.34617
# Poissons Ratio (y) = 0.06903 0.34617
# Poissons Ratio (z) = 0.42666 0.42666
#
# Static dielectric constant tensor:
#      x y z
#    x 1.884290 0.000000 0.000000 
#    y 0.000000 1.884280 0.000000 
#    z 0.000000 0.000000 1.885920 
# 
# From -- ./inp_files/4224.got.cif
#   From: 2010.05.17/outbox.cif.g08.bks.cpg/sg116_3_cif.got.tgz:4224.got - 2010.05.20 11:11:43.
