data_PCOD9558692
_publ_section_title
;
Structure prediction by ZEFSAII (Michael W. Deem and Ramdas Pophale) SiO2 
 PCOD9558692
Probable space group: P -4 N 2
;
_chemical_formula_sum "Si O2"
_cell_formula_units_Z 64
_cell_length_a 11.146613
_cell_length_b 11.146613
_cell_length_c 24.969108
_cell_angle_alpha 90.000000
_cell_angle_beta 90.000000
_cell_angle_gamma 90.000000
_cell_volume 3102.336297
_symmetry_space_group_name_H-M "P -4 N 2"
_symmetry_group_IT_number 118
_symmetry_cell_setting 'tetragonal'
loop_
_space_group_symop_operation_xyz
x,y,z
y,-x,-z
-x,-y,z
-y,x,-z
1/2+y,1/2+x,1/2-z
1/2-y,1/2-x,1/2-z
1/2-x,1/2+y,1/2+z
1/2+x,1/2-y,1/2+z
loop_
_atom_site_type_symbol
_atom_site_label
_atom_site_fract_x
_atom_site_fract_y
_atom_site_fract_z
Si Si1 0.696227 0.381291 0.739929
Si Si2 0.903611 0.362600 0.451356
Si Si3 0.638845 0.503966 0.344147
Si Si4 0.119489 0.336316 0.076368
Si Si5 0.230981 0.251155 0.870202
Si Si6 0.860178 0.020917 0.344261
Si Si7 0.635330 0.983681 0.147177
Si Si8 0.732847 0.878674 0.435669
O O1 0.750879 0.250879 0.750000
O O2 0.566680 0.372927 0.713171
O O3 0.700224 0.450011 0.795592
O O4 0.778779 0.446719 0.695803
O O5 0.852943 0.498198 0.458842
O O6 0.797825 0.289009 0.423741
O O7 0.935013 0.306091 0.508205
O O8 0.020691 0.360203 0.412372
O O9 0.500000 0.500000 0.366363
O O10 0.736996 0.579429 0.379073
O O11 0.691934 0.370956 0.341042
O O12 0.246850 0.289871 0.055079
O O13 0.320017 0.341657 0.840617
O O14 0.108533 0.323038 0.878185
O O15 0.817934 0.964065 0.400585
O O16 0.000000 0.000000 0.339504
O O17 0.639263 0.882803 0.101912
O O18 0.500000 0.000000 0.166939
#
# Coordination Sequence:
#
# PCOD9558692 Si02
#       8
#     8   8   8   8   8   8   8   8
#     4  12  23  45  69 101 136 185 227 294 362 419
#     4  10  26  40  72  97 136 189 225 282 353 420
#     4  11  21  44  74 102 137 185 228 299 357 421
#     4  10  22  45  66  97 137 178 228 282 351 422
#     4  11  24  44  68 100 137 180 235 287 349 427
#     4  12  27  45  67 100 140 180 239 293 353 425
#     4  12  24  42  70 100 137 175 229 286 357 416
#     4  12  24  43  68  97 139 180 228 291 341 428
#
# _framework density 20.629614
#
# number of rings (size 3 to 8) (size 9 to 14) (size 15 to 20)
#    0.000    0.750    5.000    1.125    5.250    1.750 
#    0.000    0.000    0.000    0.750    0.000    0.000 
#    0.000    0.000    0.000    0.000    0.000    0.000 
#
# Total GULP energy -357295.646500 kJ/mol
# GULP energy per Si atom -5582.744477 kJ/mol
# Density = 2.058266 g / cm^3
# Si number density = 20.629614 Si / 1000 Ang^3
#
#
#
# Elastic Constant Matrix: (Units=GPa)
#
#
# Indices 1 2 3 4 5 6 
#
# 1 107.4449 41.8715 24.0470 0.0000 0.0000 0.0000
# 2 41.8715 107.4449 24.0470 0.0000 0.0000 0.0000
# 3 24.0470 24.0470 73.7219 0.0000 0.0000 0.0000
# 4 0.0000 0.0000 0.0000 8.0948 0.0000 0.0000
# 5 0.0000 0.0000 0.0000 0.0000 8.0948 0.0000
# 6 0.0000 0.0000 0.0000 0.0000 0.0000 43.7955
#
#
#
# Elastic Compliance Matrix: (Units=1/GPa)
#
#
# Indices 1 2 3 4 5 6 
#
# 1 0.011367 -0.003883 -0.002441 0.000000 0.000000 0.000000
# 2 -0.003883 0.011367 -0.002441 0.000000 0.000000 0.000000
# 3 -0.002441 -0.002441 0.015157 0.000000 0.000000 0.000000
# 4 0.000000 0.000000 0.000000 0.123536 0.000000 0.000000
# 5 0.000000 0.000000 0.000000 0.000000 0.123536 0.000000
# 6 0.000000 0.000000 0.000000 0.000000 0.000000 0.022833
#
#
# Mechanical properties :
#
#
# Convention : Reuss Voigt Hill
#
# Bulk Modulus (GPa) = 49.11634 52.06029 50.58832
# Shear Modulus (GPa) = 15.05512 25.24010 20.14761
#
# Velocity S-wave (km/s) = 2.70438 3.50163 3.12851
# Velocity P-wave (km/s) = 5.79758 6.45284 6.13396
#
# Compressibility (1/GPa) = 0.02035982
#
# Stress axis : x y z
#
# Youngs Moduli (GPa) = 87.97589 87.97589 65.97651
#
# Poissons Ratio (x) = 0.34164 0.16105
# Poissons Ratio (y) = 0.34164 0.16105
# Poissons Ratio (z) = 0.21475 0.21475
#
# Static dielectric constant tensor:
#      x y z
#    x 1.768390 0.000000 0.000000 
#    y 0.000000 1.768390 0.000000 
#    z 0.000000 0.000000 1.695500 
# 
# From -- ./inp_files/6270.got.cif
#   From: 2010.05.17/outbox.cif.g08.bks.cpg/sg118_4_cif.got.tgz:6270.got - 2010.05.20 11:17:24.
