data_PCOD9558726
_publ_section_title
;
Structure prediction by ZEFSAII (Michael W. Deem and Ramdas Pophale) SiO2 
 PCOD9558726
Probable space group: P -4 N 2
;
_chemical_formula_sum "Si O2"
_cell_formula_units_Z 40
_cell_length_a 14.264742
_cell_length_b 14.264742
_cell_length_c 9.541837
_cell_angle_alpha 90.000000
_cell_angle_beta 90.000000
_cell_angle_gamma 90.000000
_cell_volume 1941.600324
_symmetry_space_group_name_H-M "P -4 N 2"
_symmetry_group_IT_number 118
_symmetry_cell_setting 'tetragonal'
loop_
_space_group_symop_operation_xyz
x,y,z
y,-x,-z
-x,-y,z
-y,x,-z
1/2+y,1/2+x,1/2-z
1/2-y,1/2-x,1/2-z
1/2-x,1/2+y,1/2+z
1/2+x,1/2-y,1/2+z
loop_
_atom_site_type_symbol
_atom_site_label
_atom_site_fract_x
_atom_site_fract_y
_atom_site_fract_z
Si Si1 0.626462 0.717219 0.764731
Si Si2 0.280561 0.780561 0.750000
Si Si3 0.000000 0.500000 0.250000
Si Si4 0.000000 0.000000 0.500000
Si Si5 0.585201 0.689021 0.091134
Si Si6 0.219168 0.435978 0.721266
Si Si7 0.970410 0.693106 0.092427
O O1 0.691746 0.808255 0.750000
O O2 0.689568 0.630701 0.714404
O O3 0.533748 0.732408 0.674683
O O4 0.602100 0.706676 0.927452
O O5 0.295675 0.680907 0.824094
O O6 0.293175 0.861747 0.866292
O O7 0.002011 0.408445 0.152547
O O8 0.954347 0.082589 0.593452
O O9 0.508791 0.759255 0.155627
O O10 0.131048 0.368953 0.750000
O O11 0.203097 0.484808 0.572493
#
# Coordination Sequence:
#
# PCOD9558726 Si02
#       7
#     8   4   2   2   8   8   8
#     4  11  24  46  73  99 142 189 234 291 369 429
#     4  11  26  43  75 102 145 190 244 298 363 426
#     4  10  24  44  74 100 138 200 236 278 370 432
#     4  12  24  48  76 102 136 208 248 286 364 452
#     4  12  26  47  73 104 144 195 245 299 367 441
#     4  11  27  45  70 106 145 182 241 301 358 432
#     4  11  25  45  71 105 143 185 240 298 354 435
#
# _framework density 20.601564
#
# number of rings (size 3 to 8) (size 9 to 14) (size 15 to 20)
#    0.000    0.800    3.000    3.600   11.200    0.000 
#    0.000    0.000    0.000    0.000    0.000    0.000 
#    0.000    0.000    0.000    0.000    0.000    0.000 
#
# Total GULP energy -223871.148996 kJ/mol
# GULP energy per Si atom -5596.778725 kJ/mol
# Density = 2.055467 g / cm^3
# Si number density = 20.601564 Si / 1000 Ang^3
#
#
#
# Elastic Constant Matrix: (Units=GPa)
#
#
# Indices 1 2 3 4 5 6 
#
# 1 116.1430 45.2790 43.7269 0.0000 0.0000 0.0000
# 2 45.2790 116.1410 43.7254 0.0000 0.0000 0.0000
# 3 43.7269 43.7254 131.1493 0.0000 0.0000 0.0000
# 4 0.0000 0.0000 0.0000 34.2352 0.0000 0.0000
# 5 0.0000 0.0000 0.0000 0.0000 34.2375 0.0000
# 6 0.0000 0.0000 0.0000 0.0000 0.0000 31.1329
#
#
#
# Elastic Compliance Matrix: (Units=1/GPa)
#
#
# Indices 1 2 3 4 5 6 
#
# 1 0.010836 -0.003276 -0.002521 0.000000 0.000000 0.000000
# 2 -0.003276 0.010836 -0.002521 0.000000 0.000000 0.000000
# 3 -0.002521 -0.002521 0.009306 0.000000 0.000000 0.000000
# 4 0.000000 0.000000 0.000000 0.029210 0.000000 0.000000
# 5 0.000000 0.000000 0.000000 0.000000 0.029208 0.000000
# 6 0.000000 0.000000 0.000000 0.000000 0.000000 0.032120
#
#
# Mechanical properties :
#
#
# Convention : Reuss Voigt Hill
#
# Bulk Modulus (GPa) = 69.71565 69.87732 69.79649
# Shear Modulus (GPa) = 34.98177 35.30123 35.14150
#
# Velocity S-wave (km/s) = 4.12517 4.14396 4.13458
# Velocity P-wave (km/s) = 7.52348 7.54246 7.53298
#
# Compressibility (1/GPa) = 0.01434398
#
# Stress axis : x y z
#
# Youngs Moduli (GPa) = 92.28379 92.28285 107.45998
#
# Poissons Ratio (x) = 0.30228 0.27089
# Poissons Ratio (y) = 0.30228 0.27088
# Poissons Ratio (z) = 0.23263 0.23262
#
# Static dielectric constant tensor:
#      x y z
#    x 1.727380 0.000000 0.000000 
#    y 0.000000 1.727390 0.000000 
#    z 0.000000 0.000000 1.689220 
# 
# From -- ./inp_files/1961.got.cif
#   From: 2010.05.17/outbox.cif.g08.bks.cpg/sg118_1_cif.got.tgz:1961.got - 2010.05.20 11:17:24.
