data_PCOD9558782
_publ_section_title
;
Structure prediction by ZEFSAII (Michael W. Deem and Ramdas Pophale) SiO2 
 PCOD9558782
Probable space group: P -4 N 2
;
_chemical_formula_sum "Si O2"
_cell_formula_units_Z 40
_cell_length_a 15.136783
_cell_length_b 15.136783
_cell_length_c 7.589684
_cell_angle_alpha 90.000000
_cell_angle_beta 90.000000
_cell_angle_gamma 90.000000
_cell_volume 1738.965092
_symmetry_space_group_name_H-M "P -4 N 2"
_symmetry_group_IT_number 118
_symmetry_cell_setting 'tetragonal'
loop_
_space_group_symop_operation_xyz
x,y,z
y,-x,-z
-x,-y,z
-y,x,-z
1/2+y,1/2+x,1/2-z
1/2-y,1/2-x,1/2-z
1/2-x,1/2+y,1/2+z
1/2+x,1/2-y,1/2+z
loop_
_atom_site_type_symbol
_atom_site_label
_atom_site_fract_x
_atom_site_fract_y
_atom_site_fract_z
Si Si1 0.637387 0.926956 0.933913
Si Si2 0.866403 0.951426 0.539708
Si Si3 0.317147 0.992998 0.384848
Si Si4 0.831052 0.202035 0.139672
Si Si5 0.177431 0.399331 0.510041
O O1 0.621099 0.878902 0.750000
O O2 0.731084 0.884412 0.984332
O O3 0.556401 0.896319 0.053813
O O4 0.650173 0.027350 0.872801
O O5 0.774643 0.960247 0.432768
O O6 0.843945 0.896942 0.719157
O O7 0.947318 0.901222 0.441768
O O8 0.325685 0.897531 0.479095
O O9 0.328466 0.963911 0.182693
O O10 0.753735 0.253735 0.250000
O O11 0.775321 0.136607 0.016834
#
# Coordination Sequence:
#
# PCOD9558782 Si02
#       5
#     8   8   8   8   8
#     4  11  24  41  64  97 137 170 221 283 332 399
#     4  11  21  38  68  99 126 172 225 271 332 411
#     4  11  21  40  69  93 126 173 226 270 336 405
#     4  11  20  43  66  91 132 178 214 276 332 401
#     4  11  23  41  67  94 128 174 224 271 344 401
#
# _framework density 23.002185999999998
#
# number of rings (size 3 to 8) (size 9 to 14) (size 15 to 20)
#    0.000    1.000    8.000    1.200    0.000    3.200 
#    3.600    0.000    4.400    0.000    0.000    0.000 
#    0.000    0.000    0.000    0.000    0.000    0.000 
#
# Total GULP energy -223133.658768 kJ/mol
# GULP energy per Si atom -5578.341469 kJ/mol
# Density = 2.294983 g / cm^3
# Si number density = 23.002186 Si / 1000 Ang^3
#
#
#
# Elastic Constant Matrix: (Units=GPa)
#
#
# Indices 1 2 3 4 5 6 
#
# 1 116.0205 48.2305 15.3831 0.0000 0.0000 0.0000
# 2 48.2305 116.0210 15.3835 0.0000 0.0000 0.0000
# 3 15.3831 15.3835 25.1659 0.0000 0.0000 0.0000
# 4 0.0000 0.0000 0.0000 24.3898 0.0000 0.0000
# 5 0.0000 0.0000 0.0000 0.0000 24.3893 0.0000
# 6 0.0000 0.0000 0.0000 0.0000 0.0000 50.1698
#
#
#
# Elastic Compliance Matrix: (Units=1/GPa)
#
#
# Indices 1 2 3 4 5 6 
#
# 1 0.010813 -0.003938 -0.004203 0.000000 0.000000 0.000000
# 2 -0.003938 0.010813 -0.004203 0.000000 0.000000 0.000000
# 3 -0.004203 -0.004203 0.044875 0.000000 0.000000 0.000000
# 4 0.000000 0.000000 0.000000 0.041001 0.000000 0.000000
# 5 0.000000 0.000000 0.000000 0.000000 0.041002 0.000000
# 6 0.000000 0.000000 0.000000 0.000000 0.000000 0.019932
#
#
# Mechanical properties :
#
#
# Convention : Reuss Voigt Hill
#
# Bulk Modulus (GPa) = 23.91531 46.13353 35.02442
# Shear Modulus (GPa) = 24.14744 31.67048 27.90896
#
# Velocity S-wave (km/s) = 3.24356 3.71461 3.48705
# Velocity P-wave (km/s) = 4.94440 6.20464 5.61002
#
# Compressibility (1/GPa) = 0.04181421
#
# Stress axis : x y z
#
# Youngs Moduli (GPa) = 92.47753 92.47757 22.28433
#
# Poissons Ratio (x) = 0.36417 0.09365
# Poissons Ratio (y) = 0.36417 0.09366
# Poissons Ratio (z) = 0.38866 0.38868
#
# Static dielectric constant tensor:
#      x y z
#    x 2.084630 0.000000 0.000000 
#    y 0.000000 2.084640 0.000000 
#    z 0.000000 0.000000 2.119890 
# 
# From -- ./inp_files/1909.got.cif
#   From: 2010.05.17/outbox.cif.g08.bks.cpg/sg118_1_cif.got.tgz:1909.got - 2010.05.20 11:17:24.
