data_PCOD9558188
_publ_section_title
;
Structure prediction by ZEFSAII (Michael W. Deem and Ramdas Pophale) SiO2 
 PCOD9558188
Probable space group: P -4 B 2
;
_chemical_formula_sum "Si O2"
_cell_formula_units_Z 54
_cell_length_a 14.157392
_cell_length_b 14.157392
_cell_length_c 13.018741
_cell_angle_alpha 90.000000
_cell_angle_beta 90.000000
_cell_angle_gamma 90.000000
_cell_volume 2609.369019
_symmetry_space_group_name_H-M "P -4 B 2"
_symmetry_group_IT_number 117
_symmetry_cell_setting 'tetragonal'
loop_
_space_group_symop_operation_xyz
x,y,z
y,-x,-z
-x,-y,z
-y,x,-z
1/2+y,1/2+x,-z
1/2-y,1/2-x,-z
1/2-x,1/2+y,z
1/2+x,1/2-y,z
loop_
_atom_site_type_symbol
_atom_site_label
_atom_site_fract_x
_atom_site_fract_y
_atom_site_fract_z
Si Si1 0.743891 0.389203 0.042583
Si Si2 0.686199 0.902759 0.592451
Si Si3 0.003715 0.201431 0.571363
Si Si4 0.876299 0.675237 0.719859
Si Si5 0.500000 0.500000 0.500000
Si Si6 0.500000 0.000000 0.677072
Si Si7 0.392271 0.749775 0.944448
Si Si8 0.325474 0.269294 0.721268
O O1 0.754023 0.499311 0.026967
O O2 0.731462 0.361629 0.162167
O O3 0.834701 0.334701 0.000000
O O4 0.655686 0.346456 0.981190
O O5 0.671132 0.828869 0.500000
O O6 0.757289 0.976590 0.540961
O O7 0.584082 0.949705 0.614130
O O8 0.709288 0.836879 0.689439
O O9 0.913226 0.207074 0.647346
O O10 0.081834 0.268371 0.622916
O O11 0.031581 0.092612 0.562112
O O12 0.941684 0.582462 0.734480
O O13 0.884975 0.736306 0.822795
O O14 0.764079 0.661804 0.707004
O O15 0.331433 0.831433 0.000000
#
# Coordination Sequence:
#
# PCOD9558188 Si02
#       8
#     8   8   8   8   2   4   8   8
#     4  11  23  46  72  99 147 184 238 296 353 429
#     4  10  21  41  66 101 137 180 224 285 348 419
#     4  11  25  46  67  98 144 181 244 285 360 425
#     4  12  24  44  72 102 141 179 233 298 350 432
#     4  12  28  48  60 104 134 196 244 300 324 452
#     4  12  23  40  73 108 140 174 241 282 357 424
#     4  11  24  46  68 105 138 182 240 289 354 418
#     4  11  22  46  70  96 141 193 221 292 364 410
#
# _framework density 20.694659999999999
#
# number of rings (size 3 to 8) (size 9 to 14) (size 15 to 20)
#    0.000    0.889    7.407    1.111    2.074    2.963 
#    2.667    0.000    0.000    0.000    0.000    0.000 
#    0.000    0.000    0.000    0.000    0.000    0.000 
#
# Total GULP energy -301533.795978 kJ/mol
# GULP energy per Si atom -5583.959185 kJ/mol
# Density = 2.064756 g / cm^3
# Si number density = 20.694660 Si / 1000 Ang^3
#
#
#
# Elastic Constant Matrix: (Units=GPa)
#
#
# Indices 1 2 3 4 5 6 
#
# 1 99.7106 2.1682 7.5857 0.0000 0.0000 0.0000
# 2 2.1682 99.7111 7.5857 0.0000 0.0000 0.0000
# 3 7.5857 7.5857 61.1676 0.0000 0.0000 0.0000
# 4 0.0000 0.0000 0.0000 23.7968 0.0000 0.0000
# 5 0.0000 0.0000 0.0000 0.0000 23.7971 0.0000
# 6 0.0000 0.0000 0.0000 0.0000 0.0000 30.5141
#
#
#
# Elastic Compliance Matrix: (Units=1/GPa)
#
#
# Indices 1 2 3 4 5 6 
#
# 1 0.010126 -0.000126 -0.001240 0.000000 0.000000 0.000000
# 2 -0.000126 0.010126 -0.001240 0.000000 0.000000 0.000000
# 3 -0.001240 -0.001240 0.016656 0.000000 0.000000 0.000000
# 4 0.000000 0.000000 0.000000 0.042022 0.000000 0.000000
# 5 0.000000 0.000000 0.000000 0.000000 0.042022 0.000000
# 6 0.000000 0.000000 0.000000 0.000000 0.000000 0.032772
#
#
# Mechanical properties :
#
#
# Convention : Reuss Voigt Hill
#
# Bulk Modulus (GPa) = 31.54982 32.80761 32.17872
# Shear Modulus (GPa) = 29.49816 31.83825 30.66821
#
# Velocity S-wave (km/s) = 3.77954 3.92660 3.85377
# Velocity P-wave (km/s) = 5.85876 6.03698 5.94854
#
# Compressibility (1/GPa) = 0.03169590
#
# Stress axis : x y z
#
# Youngs Moduli (GPa) = 98.75465 98.75507 60.03792
#
# Poissons Ratio (x) = 0.01243 0.07446
# Poissons Ratio (y) = 0.01243 0.07446
# Poissons Ratio (z) = 0.12247 0.12247
#
# Static dielectric constant tensor:
#      x y z
#    x 1.762580 0.000000 0.000000 
#    y 0.000000 1.762580 0.000000 
#    z 0.000000 0.000000 1.731180 
# 
# From -- ./inp_files/2910.got.cif
#   From: 2010.05.17/outbox.cif.g08.bks.cpg/sg117_2_cif.got.tgz:2910.got - 2010.05.20 11:15:09.
