data_PCOD9558585
_publ_section_title
;
Structure prediction by ZEFSAII (Michael W. Deem and Ramdas Pophale) SiO2 
 PCOD9558585
Probable space group: P -4 N 2
;
_chemical_formula_sum "Si O2"
_cell_formula_units_Z 56
_cell_length_a 14.139673
_cell_length_b 14.139673
_cell_length_c 13.292006
_cell_angle_alpha 90.000000
_cell_angle_beta 90.000000
_cell_angle_gamma 90.000000
_cell_volume 2657.475446
_symmetry_space_group_name_H-M "P -4 N 2"
_symmetry_group_IT_number 118
_symmetry_cell_setting 'tetragonal'
loop_
_space_group_symop_operation_xyz
x,y,z
y,-x,-z
-x,-y,z
-y,x,-z
1/2+y,1/2+x,1/2-z
1/2-y,1/2-x,1/2-z
1/2-x,1/2+y,1/2+z
1/2+x,1/2-y,1/2+z
loop_
_atom_site_type_symbol
_atom_site_label
_atom_site_fract_x
_atom_site_fract_y
_atom_site_fract_z
Si Si1 0.997149 0.347020 0.777886
Si Si2 0.290354 0.153635 0.902542
Si Si3 0.816889 0.189464 0.549447
Si Si4 0.181937 0.967603 0.381170
Si Si5 0.908273 0.678321 0.341244
Si Si6 0.411774 0.304091 0.783093
Si Si7 0.984726 0.606435 0.997912
O O1 0.897276 0.397276 0.750000
O O2 0.077154 0.422847 0.750000
O O3 0.018882 0.258690 0.706729
O O4 0.009279 0.329939 0.897679
O O5 0.331880 0.239966 0.836797
O O6 0.206509 0.108491 0.836107
O O7 0.362584 0.068496 0.926547
O O8 0.282422 0.210192 0.006391
O O9 0.791977 0.104353 0.471458
O O10 0.756390 0.172608 0.648230
O O11 0.928370 0.175963 0.570065
O O12 0.095903 0.909739 0.327365
O O13 0.892220 0.607781 0.250000
O O14 0.899892 0.611471 0.439001
O O15 0.997969 0.743887 0.317812
O O16 0.000000 0.500000 0.959512
#
# Coordination Sequence:
#
# PCOD9558585 Si02
#       7
#     8   8   8   8   8   8   8
#     4  11  23  37  61  98 137 172 226 291 366 431
#     4  10  21  38  63  97 131 176 219 289 354 435
#     4  11  25  42  68  96 137 179 242 288 361 426
#     4  11  25  43  67  97 133 183 232 299 356 428
#     4  12  25  41  64 100 139 183 236 294 354 422
#     4  10  22  39  64  97 136 177 231 286 361 422
#     4  12  22  38  67  98 140 183 227 287 368 440
#
# _framework density 21.07263
#
# number of rings (size 3 to 8) (size 9 to 14) (size 15 to 20)
#    0.000    1.000    4.286    3.429    6.000    4.000 
#    0.000    0.000    0.000    0.000    0.000    0.000 
#    0.000    0.000    0.000    0.000    0.000    0.000 
#
# Total GULP energy -311921.667198 kJ/mol
# GULP energy per Si atom -5570.029771 kJ/mol
# Density = 2.102467 g / cm^3
# Si number density = 21.072630 Si / 1000 Ang^3
#
#
#
# Elastic Constant Matrix: (Units=GPa)
#
#
# Indices 1 2 3 4 5 6 
#
# 1 65.4043 23.8390 44.1732 0.0000 0.0000 0.0000
# 2 23.8390 65.4050 44.1734 0.0000 0.0000 0.0000
# 3 44.1732 44.1734 108.9946 0.0000 0.0000 0.0000
# 4 0.0000 0.0000 0.0000 18.8766 0.0000 0.0000
# 5 0.0000 0.0000 0.0000 0.0000 18.8760 0.0000
# 6 0.0000 0.0000 0.0000 0.0000 0.0000 22.6455
#
#
#
# Elastic Compliance Matrix: (Units=1/GPa)
#
#
# Indices 1 2 3 4 5 6 
#
# 1 0.021386 -0.002673 -0.007584 0.000000 0.000000 0.000000
# 2 -0.002673 0.021386 -0.007584 0.000000 0.000000 0.000000
# 3 -0.007584 -0.007584 0.015322 0.000000 0.000000 0.000000
# 4 0.000000 0.000000 0.000000 0.052976 0.000000 0.000000
# 5 0.000000 0.000000 0.000000 0.000000 0.052977 0.000000
# 6 0.000000 0.000000 0.000000 0.000000 0.000000 0.044159
#
#
# Mechanical properties :
#
#
# Convention : Reuss Voigt Hill
#
# Bulk Modulus (GPa) = 44.61873 51.57500 48.09687
# Shear Modulus (GPa) = 19.89201 20.58753 20.23977
#
# Velocity S-wave (km/s) = 3.07575 3.12906 3.10252
# Velocity P-wave (km/s) = 5.81665 6.13047 5.97562
#
# Compressibility (1/GPa) = 0.02241211
#
# Stress axis : x y z
#
# Youngs Moduli (GPa) = 46.76001 46.76049 65.26537
#
# Poissons Ratio (x) = 0.12497 0.49498
# Poissons Ratio (y) = 0.12497 0.49497
# Poissons Ratio (z) = 0.35463 0.35463
#
# Static dielectric constant tensor:
#      x y z
#    x 1.804010 0.000000 0.000000 
#    y 0.000000 1.804010 0.000000 
#    z 0.000000 0.000000 1.933190 
# 
# From -- ./inp_files/3402.got.cif
#   From: 2010.05.17/outbox.cif.g08.bks.cpg/sg118_2_cif.got.tgz:3402.got - 2010.05.20 11:17:24.
