data_PCOD9558650
_publ_section_title
;
Structure prediction by ZEFSAII (Michael W. Deem and Ramdas Pophale) SiO2 
 PCOD9558650
Probable space group: P -4 N 2
;
_chemical_formula_sum "Si O2"
_cell_formula_units_Z 36
_cell_length_a 9.659452
_cell_length_b 9.659452
_cell_length_c 18.014405
_cell_angle_alpha 90.000000
_cell_angle_beta 90.000000
_cell_angle_gamma 90.000000
_cell_volume 1680.834292
_symmetry_space_group_name_H-M "P -4 N 2"
_symmetry_group_IT_number 118
_symmetry_cell_setting 'tetragonal'
loop_
_space_group_symop_operation_xyz
x,y,z
y,-x,-z
-x,-y,z
-y,x,-z
1/2+y,1/2+x,1/2-z
1/2-y,1/2-x,1/2-z
1/2-x,1/2+y,1/2+z
1/2+x,1/2-y,1/2+z
loop_
_atom_site_type_symbol
_atom_site_label
_atom_site_fract_x
_atom_site_fract_y
_atom_site_fract_z
Si Si1 0.338020 0.838020 0.250000
Si Si2 0.648121 0.294101 0.606636
Si Si3 0.150363 0.668071 0.142712
Si Si4 0.000000 0.000000 0.000000
Si Si5 0.839967 0.339967 0.750000
Si Si6 0.500000 0.000000 0.750000
Si Si7 0.859379 0.162466 0.497454
O O1 0.241085 0.784835 0.183431
O O2 0.498530 0.819995 0.229178
O O3 0.501698 0.228035 0.628606
O O4 0.610629 0.427365 0.555059
O O5 0.737544 0.318467 0.680637
O O6 0.738430 0.196922 0.553781
O O7 0.128572 0.531661 0.194597
O O8 0.224732 0.634871 0.066648
O O9 0.009605 0.161819 0.535786
#
# Coordination Sequence:
#
# PCOD9558650 Si02
#       7
#     4   8   8   2   4   2   8
#     4  10  24  44  68 102 140 184 236 302 358 430
#     4  12  24  44  69 103 141 189 238 295 360 435
#     4  11  22  43  69 100 142 187 236 299 359 440
#     4  12  24  44  68 108 144 192 246 304 368 440
#     4  11  25  44  71 103 142 186 242 292 366 430
#     4  10  22  38  66 102 136 182 232 288 368 416
#     4  11  25  44  69 101 141 186 242 300 362 429
#
# _framework density 21.417933999999999
#
# number of rings (size 3 to 8) (size 9 to 14) (size 15 to 20)
#    0.000    0.889    2.222    4.667    0.000    1.778 
#    0.000    2.222    0.000    0.000    0.000    0.000 
#    0.000    0.000    0.000    0.000    0.000    0.000 
#
# Total GULP energy -201094.561577 kJ/mol
# GULP energy per Si atom -5585.960044 kJ/mol
# Density = 2.136919 g / cm^3
# Si number density = 21.417934 Si / 1000 Ang^3
#
#
#
# Elastic Constant Matrix: (Units=GPa)
#
#
# Indices 1 2 3 4 5 6 
#
# 1 148.8481 68.8424 64.6009 0.0000 0.0000 0.0000
# 2 68.8424 148.8481 64.6009 0.0000 0.0000 0.0000
# 3 64.6009 64.6009 122.5403 0.0000 0.0000 0.0000
# 4 0.0000 0.0000 0.0000 32.3678 0.0000 0.0000
# 5 0.0000 0.0000 0.0000 0.0000 32.3678 0.0000
# 6 0.0000 0.0000 0.0000 0.0000 0.0000 38.7252
#
#
#
# Elastic Compliance Matrix: (Units=1/GPa)
#
#
# Indices 1 2 3 4 5 6 
#
# 1 0.009592 -0.002907 -0.003524 0.000000 0.000000 0.000000
# 2 -0.002907 0.009592 -0.003524 0.000000 0.000000 0.000000
# 3 -0.003524 -0.003524 0.011877 0.000000 0.000000 0.000000
# 4 0.000000 0.000000 0.000000 0.030895 0.000000 0.000000
# 5 0.000000 0.000000 0.000000 0.000000 0.030895 0.000000
# 6 0.000000 0.000000 0.000000 0.000000 0.000000 0.025823
#
#
# Mechanical properties :
#
#
# Convention : Reuss Voigt Hill
#
# Bulk Modulus (GPa) = 89.68797 90.70276 90.19537
# Shear Modulus (GPa) = 35.13651 35.50496 35.32073
#
# Velocity S-wave (km/s) = 4.05472 4.07593 4.06534
# Velocity P-wave (km/s) = 7.99294 8.03691 8.01495
#
# Compressibility (1/GPa) = 0.01114977
#
# Stress axis : x y z
#
# Youngs Moduli (GPa) = 104.25027 104.25027 84.19889
#
# Poissons Ratio (x) = 0.30304 0.29676
# Poissons Ratio (y) = 0.30304 0.29676
# Poissons Ratio (z) = 0.36743 0.36743
#
# Static dielectric constant tensor:
#      x y z
#    x 1.785100 0.000000 0.000000 
#    y 0.000000 1.785100 0.000000 
#    z 0.000000 0.000000 1.778340 
# 
# From -- ./inp_files/5543.got.cif
#   From: 2010.05.17/outbox.cif.g08.bks.cpg/sg118_3_cif.got.tgz:5543.got - 2010.05.20 11:17:24.
