data_PCOD9558928
_publ_section_title
;
Structure prediction by ZEFSAII (Michael W. Deem and Ramdas Pophale) SiO2 
 PCOD9558928
Probable space group: P -4 N 2
;
_chemical_formula_sum "Si O2"
_cell_formula_units_Z 20
_cell_length_a 5.314615
_cell_length_b 5.314615
_cell_length_c 25.910045
_cell_angle_alpha 90.000000
_cell_angle_beta 90.000000
_cell_angle_gamma 90.000000
_cell_volume 731.832657
_symmetry_space_group_name_H-M "P -4 N 2"
_symmetry_group_IT_number 118
_symmetry_cell_setting 'tetragonal'
loop_
_space_group_symop_operation_xyz
x,y,z
y,-x,-z
-x,-y,z
-y,x,-z
1/2+y,1/2+x,1/2-z
1/2-y,1/2-x,1/2-z
1/2-x,1/2+y,1/2+z
1/2+x,1/2-y,1/2+z
loop_
_atom_site_type_symbol
_atom_site_label
_atom_site_fract_x
_atom_site_fract_y
_atom_site_fract_z
Si Si1 0.000000 0.500000 0.250000
Si Si2 0.741618 0.169615 0.587244
Si Si3 0.000000 0.000000 0.000000
Si Si4 0.500000 0.500000 0.761237
Si Si5 0.000000 0.500000 0.667125
O O1 0.264104 0.485700 0.276221
O O2 0.662795 0.307300 0.534451
O O3 0.793408 0.395674 0.627221
O O4 0.500000 0.000000 0.602648
O O5 0.000000 0.000000 0.584647
O O6 0.252267 0.470928 0.796926
#
# Coordination Sequence:
#
# PCOD9558928 Si02
#       5
#     2   8   2   4   4
#     4  12  28  52  80 130 154 210 252 316 416 478
#     4  12  30  52  79 118 159 220 274 346 403 476
#     4  12  32  44  82 108 172 212 296 332 418 456
#     4  12  28  50  87 115 170 198 264 325 395 502
#     4  12  28  55  82 121 158 216 268 331 404 473
#
# _framework density 27.328652999999999
#
# number of rings (size 3 to 8) (size 9 to 14) (size 15 to 20)
#    0.000    0.000    2.000    4.800   11.200    3.200 
#    0.000    0.000    0.000    0.000    0.000    0.000 
#    0.000    0.000    0.000    0.000    0.000    0.000 
#
# Total GULP energy -111532.442185 kJ/mol
# GULP energy per Si atom -5576.622109 kJ/mol
# Density = 2.726645 g / cm^3
# Si number density = 27.328653 Si / 1000 Ang^3
#
#
#
# Elastic Constant Matrix: (Units=GPa)
#
#
# Indices 1 2 3 4 5 6 
#
# 1 307.2177 63.1183 75.9174 0.0000 0.0000 0.0000
# 2 63.1183 307.2177 75.9174 0.0000 0.0000 0.0000
# 3 75.9174 75.9174 147.3775 0.0000 0.0000 0.0000
# 4 0.0000 0.0000 0.0000 63.4229 0.0000 0.0000
# 5 0.0000 0.0000 0.0000 0.0000 63.4229 0.0000
# 6 0.0000 0.0000 0.0000 0.0000 0.0000 51.9608
#
#
#
# Elastic Compliance Matrix: (Units=1/GPa)
#
#
# Indices 1 2 3 4 5 6 
#
# 1 0.003760 -0.000337 -0.001763 0.000000 0.000000 0.000000
# 2 -0.000337 0.003760 -0.001763 0.000000 0.000000 0.000000
# 3 -0.001763 -0.001763 0.008602 0.000000 0.000000 0.000000
# 4 0.000000 0.000000 0.000000 0.015767 0.000000 0.000000
# 5 0.000000 0.000000 0.000000 0.000000 0.015767 0.000000
# 6 0.000000 0.000000 0.000000 0.000000 0.000000 0.019245
#
#
# Mechanical properties :
#
#
# Convention : Reuss Voigt Hill
#
# Bulk Modulus (GPa) = 119.11941 132.41326 125.76633
# Shear Modulus (GPa) = 64.57708 72.21863 68.39785
#
# Velocity S-wave (km/s) = 4.86632 5.14620 5.00822
# Velocity P-wave (km/s) = 8.67509 9.15797 8.91980
#
# Compressibility (1/GPa) = 0.00839494
#
# Stress axis : x y z
#
# Youngs Moduli (GPa) = 265.96053 265.96053 116.25198
#
# Poissons Ratio (x) = 0.08956 0.20500
# Poissons Ratio (y) = 0.08956 0.20500
# Poissons Ratio (z) = 0.46899 0.46899
#
# Static dielectric constant tensor:
#      x y z
#    x 2.277690 0.000000 0.000000 
#    y 0.000000 2.277690 0.000000 
#    z 0.000000 0.000000 2.069820 
# 
# From -- ./inp_files/6341.got.cif
#   From: 2010.05.17/outbox.cif.g08.bks.cpg/sg118_4_cif.got.tgz:6341.got - 2010.05.20 11:17:24.
