data_PCOD9558104
_publ_section_title
;
Structure prediction by ZEFSAII (Michael W. Deem and Ramdas Pophale) SiO2 
 PCOD9558104
Probable space group: P -4 B 2
;
_chemical_formula_sum "Si O2"
_cell_formula_units_Z 34
_cell_length_a 11.067988
_cell_length_b 11.067988
_cell_length_c 13.436544
_cell_angle_alpha 90.000000
_cell_angle_beta 90.000000
_cell_angle_gamma 90.000000
_cell_volume 1645.981455
_symmetry_space_group_name_H-M "P -4 B 2"
_symmetry_group_IT_number 117
_symmetry_cell_setting 'tetragonal'
loop_
_space_group_symop_operation_xyz
x,y,z
y,-x,-z
-x,-y,z
-y,x,-z
1/2+y,1/2+x,-z
1/2-y,1/2-x,-z
1/2-x,1/2+y,z
1/2+x,1/2-y,z
loop_
_atom_site_type_symbol
_atom_site_label
_atom_site_fract_x
_atom_site_fract_y
_atom_site_fract_z
Si Si1 0.753296 0.384830 0.702396
Si Si2 0.131585 0.175760 0.355054
Si Si3 0.629842 0.506306 0.177599
Si Si4 0.000000 0.000000 0.500000
Si Si5 0.072215 0.625732 0.893250
O O1 0.774224 0.266695 0.634302
O O2 0.763966 0.515132 0.648880
O O3 0.618920 0.372771 0.747169
O O4 0.840501 0.382253 0.798138
O O5 0.133207 0.112925 0.246334
O O6 0.094715 0.073400 0.433302
O O7 0.500000 0.500000 0.123642
O O8 0.753987 0.508795 0.117585
O O9 0.000000 0.500000 0.893477
O O10 0.136623 0.636623 0.000000
#
# Coordination Sequence:
#
# PCOD9558104 Si02
#       5
#     8   8   8   2   8
#     4  10  19  39  60  86 119 168 194 250 316 369
#     4  10  21  36  63  86 119 157 203 250 311 364
#     4   9  18  39  57  83 118 156 202 243 313 365
#     4  12  20  40  60  88 118 152 212 264 304 384
#     4  10  21  37  57  89 122 157 206 258 297 364
#
# _framework density 20.656369999999999
#
# number of rings (size 3 to 8) (size 9 to 14) (size 15 to 20)
#    0.000    2.118    3.529    1.412    0.000    0.941 
#   16.941    0.000    0.000    0.000    6.118    0.000 
#    0.000    0.000    0.000    0.000    0.000    0.000 
#
# Total GULP energy -189461.143471 kJ/mol
# GULP energy per Si atom -5572.386573 kJ/mol
# Density = 2.060936 g / cm^3
# Si number density = 20.656370 Si / 1000 Ang^3
#
#
#
# Elastic Constant Matrix: (Units=GPa)
#
#
# Indices 1 2 3 4 5 6 
#
# 1 109.7739 44.9888 20.7399 0.0000 0.0000 0.0000
# 2 44.9888 109.7739 20.7399 0.0000 0.0000 0.0000
# 3 20.7399 20.7399 50.8617 0.0000 0.0000 0.0000
# 4 0.0000 0.0000 0.0000 50.5427 0.0000 0.0000
# 5 0.0000 0.0000 0.0000 0.0000 50.5427 0.0000
# 6 0.0000 0.0000 0.0000 0.0000 0.0000 33.1087
#
#
#
# Elastic Compliance Matrix: (Units=1/GPa)
#
#
# Indices 1 2 3 4 5 6 
#
# 1 0.011345 -0.004091 -0.002958 0.000000 0.000000 0.000000
# 2 -0.004091 0.011345 -0.002958 0.000000 0.000000 0.000000
# 3 -0.002958 -0.002958 0.022074 0.000000 0.000000 0.000000
# 4 0.000000 0.000000 0.000000 0.019785 0.000000 0.000000
# 5 0.000000 0.000000 0.000000 0.000000 0.019785 0.000000
# 6 0.000000 0.000000 0.000000 0.000000 0.000000 0.030204
#
#
# Mechanical properties :
#
#
# Convention : Reuss Voigt Hill
#
# Bulk Modulus (GPa) = 40.40423 49.26074 44.83248
# Shear Modulus (GPa) = 35.01368 39.10156 37.05762
#
# Velocity S-wave (km/s) = 4.12157 4.35553 4.24016
# Velocity P-wave (km/s) = 6.50019 7.01382 6.76188
#
# Compressibility (1/GPa) = 0.02474989
#
# Stress axis : x y z
#
# Youngs Moduli (GPa) = 88.14465 88.14465 45.30291
#
# Poissons Ratio (x) = 0.36057 0.13401
# Poissons Ratio (y) = 0.36057 0.13401
# Poissons Ratio (z) = 0.26074 0.26074
#
# Static dielectric constant tensor:
#      x y z
#    x 1.759340 0.000000 0.000000 
#    y 0.000000 1.759340 0.000000 
#    z 0.000000 0.000000 1.743770 
# 
# From -- ./inp_files/2432.got.cif
#   From: 2010.05.17/outbox.cif.g08.bks.cpg/sg117_2_cif.got.tgz:2432.got - 2010.05.20 11:15:09.
