data_PCOD9558852
_publ_section_title
;
Structure prediction by ZEFSAII (Michael W. Deem and Ramdas Pophale) SiO2 
 PCOD9558852
Probable space group: P -4 N 2
;
_chemical_formula_sum "Si O2"
_cell_formula_units_Z 48
_cell_length_a 9.022953
_cell_length_b 9.022953
_cell_length_c 30.242532
_cell_angle_alpha 90.000000
_cell_angle_beta 90.000000
_cell_angle_gamma 90.000000
_cell_volume 2462.155848
_symmetry_space_group_name_H-M "P -4 N 2"
_symmetry_group_IT_number 118
_symmetry_cell_setting 'tetragonal'
loop_
_space_group_symop_operation_xyz
x,y,z
y,-x,-z
-x,-y,z
-y,x,-z
1/2+y,1/2+x,1/2-z
1/2-y,1/2-x,1/2-z
1/2-x,1/2+y,1/2+z
1/2+x,1/2-y,1/2+z
loop_
_atom_site_type_symbol
_atom_site_label
_atom_site_fract_x
_atom_site_fract_y
_atom_site_fract_z
Si Si1 0.000000 0.500000 0.445788
Si Si2 0.985517 0.674475 0.894068
Si Si3 0.860806 0.713728 0.123363
Si Si4 0.988589 0.234966 0.991589
Si Si5 0.000000 0.000000 0.237784
Si Si6 0.542031 0.214979 0.788052
Si Si7 0.661544 0.715206 0.671572
O O1 0.088957 0.383799 0.414617
O O2 0.127371 0.561316 0.478474
O O3 0.141025 0.761264 0.885123
O O4 0.947647 0.717976 0.944374
O O5 0.000000 0.500000 0.892580
O O6 0.859486 0.715129 0.858707
O O7 0.805372 0.633041 0.167393
O O8 0.025933 0.763144 0.137383
O O9 0.118662 0.143824 0.015739
O O10 0.928550 0.876446 0.268441
O O11 0.110930 0.907271 0.207089
O O12 0.605479 0.105479 0.750000
O O13 0.369665 0.194147 0.802955
#
# Coordination Sequence:
#
# PCOD9558852 Si02
#       7
#     4   8   8   8   4   8   8
#     4  12  22  42  69 104 126 184 233 286 340 412
#     4  12  26  45  65 102 146 175 221 288 363 415
#     4  12  24  44  70  98 134 180 236 282 336 412
#     4  11  24  41  70  99 133 177 232 286 342 412
#     4  12  26  40  68  98 141 169 230 276 346 398
#     4  12  26  45  70 100 135 186 235 287 336 405
#     4  12  24  44  70 100 129 184 233 292 329 413
#
# _framework density 19.495107999999998
#
# number of rings (size 3 to 8) (size 9 to 14) (size 15 to 20)
#    0.000    0.167    7.500    1.500    7.000    0.000 
#    0.000    0.000    0.000    2.500    0.000    0.000 
#    0.000    0.000    0.000    0.000    0.000    0.000 
#
# Total GULP energy -268014.958665 kJ/mol
# GULP energy per Si atom -5583.644972 kJ/mol
# Density = 1.945074 g / cm^3
# Si number density = 19.495108 Si / 1000 Ang^3
#
#
#
# Elastic Constant Matrix: (Units=GPa)
#
#
# Indices 1 2 3 4 5 6 
#
# 1 78.9756 33.8210 17.5671 0.0000 0.0000 0.0000
# 2 33.8210 78.9756 17.5671 0.0000 0.0000 0.0000
# 3 17.5671 17.5671 86.4672 0.0000 0.0000 0.0000
# 4 0.0000 0.0000 0.0000 22.1983 0.0000 0.0000
# 5 0.0000 0.0000 0.0000 0.0000 22.1983 0.0000
# 6 0.0000 0.0000 0.0000 0.0000 0.0000 13.2638
#
#
#
# Elastic Compliance Matrix: (Units=1/GPa)
#
#
# Indices 1 2 3 4 5 6 
#
# 1 0.015805 -0.006341 -0.001923 0.000000 0.000000 0.000000
# 2 -0.006341 0.015805 -0.001923 0.000000 0.000000 0.000000
# 3 -0.001923 -0.001923 0.012346 0.000000 0.000000 0.000000
# 4 0.000000 0.000000 0.000000 0.045048 0.000000 0.000000
# 5 0.000000 0.000000 0.000000 0.000000 0.045048 0.000000
# 6 0.000000 0.000000 0.000000 0.000000 0.000000 0.075393
#
#
# Mechanical properties :
#
#
# Convention : Reuss Voigt Hill
#
# Bulk Modulus (GPa) = 42.40176 42.48095 42.44135
# Shear Modulus (GPa) = 21.03656 23.22964 22.13310
#
# Velocity S-wave (km/s) = 3.28848 3.45565 3.37310
# Velocity P-wave (km/s) = 6.01797 6.14491 6.08177
#
# Compressibility (1/GPa) = 0.02358393
#
# Stress axis : x y z
#
# Youngs Moduli (GPa) = 63.26998 63.26998 80.99535
#
# Poissons Ratio (x) = 0.40118 0.15574
# Poissons Ratio (y) = 0.40118 0.15574
# Poissons Ratio (z) = 0.12166 0.12166
#
# Static dielectric constant tensor:
#      x y z
#    x 1.633610 0.000000 0.000000 
#    y 0.000000 1.633610 0.000000 
#    z 0.000000 0.000000 1.740350 
# 
# From -- ./inp_files/6929.got.cif
#   From: 2010.05.17/outbox.cif.g08.bks.cpg/sg118_4_cif.got.tgz:6929.got - 2010.05.20 11:17:24.
