data_PCOD9558522
_publ_section_title
;
Structure prediction by ZEFSAII (Michael W. Deem and Ramdas Pophale) SiO2 
 PCOD9558522
Probable space group: P -4 N 2
;
_chemical_formula_sum "Si O2"
_cell_formula_units_Z 34
_cell_length_a 8.376232
_cell_length_b 8.376232
_cell_length_c 24.767015
_cell_angle_alpha 90.000000
_cell_angle_beta 90.000000
_cell_angle_gamma 90.000000
_cell_volume 1737.685041
_symmetry_space_group_name_H-M "P -4 N 2"
_symmetry_group_IT_number 118
_symmetry_cell_setting 'tetragonal'
loop_
_space_group_symop_operation_xyz
x,y,z
y,-x,-z
-x,-y,z
-y,x,-z
1/2+y,1/2+x,1/2-z
1/2-y,1/2-x,1/2-z
1/2-x,1/2+y,1/2+z
1/2+x,1/2-y,1/2+z
loop_
_atom_site_type_symbol
_atom_site_label
_atom_site_fract_x
_atom_site_fract_y
_atom_site_fract_z
Si Si1 0.048413 0.186009 0.821287
Si Si2 0.774124 0.877609 0.514460
Si Si3 0.854492 0.409372 0.376134
Si Si4 0.884695 0.145890 0.931598
Si Si5 0.500000 0.000000 0.250000
O O1 0.236101 0.172621 0.834178
O O2 0.004006 0.332352 0.782951
O O3 0.968503 0.223526 0.879540
O O4 0.000000 0.000000 0.806986
O O5 0.712685 0.894603 0.575508
O O6 0.656837 0.768342 0.478570
O O7 0.947687 0.794885 0.511528
O O8 0.767640 0.554507 0.407811
O O9 0.000000 0.500000 0.348686
O O10 0.000000 0.000000 0.946449
#
# Coordination Sequence:
#
# PCOD9558522 Si02
#       5
#     8   8   8   8   2
#     4   9  24  45  67 101 126 168 231 279 347 407
#     4  11  23  34  55  97 134 177 223 258 327 395
#     4  10  20  38  60  88 132 172 215 266 328 402
#     4   9  21  38  59  85 128 168 216 270 319 391
#     4  12  24  52  78  98 128 176 224 302 356 396
#
# _framework density 19.566261000000001
#
# number of rings (size 3 to 8) (size 9 to 14) (size 15 to 20)
#    0.000    2.588    2.353    0.000    9.882    0.941 
#    8.471    0.000    0.000    0.000    0.000    0.000 
#    0.000    0.000    0.000    0.000    0.000    0.000 
#
# Total GULP energy -189487.251831 kJ/mol
# GULP energy per Si atom -5573.154466 kJ/mol
# Density = 1.952173 g / cm^3
# Si number density = 19.566261 Si / 1000 Ang^3
#
#
#
# Elastic Constant Matrix: (Units=GPa)
#
#
# Indices 1 2 3 4 5 6 
#
# 1 97.1060 74.1184 52.6468 0.0000 0.0000 0.0000
# 2 74.1184 97.1060 52.6468 0.0000 0.0000 0.0000
# 3 52.6468 52.6468 81.3937 0.0000 0.0000 0.0000
# 4 0.0000 0.0000 0.0000 12.1927 0.0000 0.0000
# 5 0.0000 0.0000 0.0000 0.0000 12.1927 0.0000
# 6 0.0000 0.0000 0.0000 0.0000 0.0000 13.3189
#
#
#
# Elastic Compliance Matrix: (Units=1/GPa)
#
#
# Indices 1 2 3 4 5 6 
#
# 1 0.026600 -0.016902 -0.006273 0.000000 0.000000 0.000000
# 2 -0.016902 0.026600 -0.006273 0.000000 0.000000 0.000000
# 3 -0.006273 -0.006273 0.020400 0.000000 0.000000 0.000000
# 4 0.000000 0.000000 0.000000 0.082016 0.000000 0.000000
# 5 0.000000 0.000000 0.000000 0.000000 0.082016 0.000000
# 6 0.000000 0.000000 0.000000 0.000000 0.000000 0.075082
#
#
# Mechanical properties :
#
#
# Convention : Reuss Voigt Hill
#
# Bulk Modulus (GPa) = 68.00279 70.49219 69.24749
# Shear Modulus (GPa) = 13.27988 13.95377 13.61682
#
# Velocity S-wave (km/s) = 2.60804 2.67339 2.64092
# Velocity P-wave (km/s) = 6.62569 6.75537 6.69084
#
# Compressibility (1/GPa) = 0.01470528
#
# Stress axis : x y z
#
# Youngs Moduli (GPa) = 37.59446 37.59446 49.01878
#
# Poissons Ratio (x) = 0.63543 0.30747
# Poissons Ratio (y) = 0.63543 0.30747
# Poissons Ratio (z) = 0.23581 0.23581
#
# Static dielectric constant tensor:
#      x y z
#    x 1.805310 0.000000 0.000000 
#    y 0.000000 1.805310 0.000000 
#    z 0.000000 0.000000 1.689110 
# 
# From -- ./inp_files/6393.got.cif
#   From: 2010.05.17/outbox.cif.g08.bks.cpg/sg118_4_cif.got.tgz:6393.got - 2010.05.20 11:17:24.
