data_PCOD9558058
_publ_section_title
;
Structure prediction by ZEFSAII (Michael W. Deem and Ramdas Pophale) SiO2 
 PCOD9558058
Probable space group: P -4 B 2
;
_chemical_formula_sum "Si O2"
_cell_formula_units_Z 40
_cell_length_a 15.573714
_cell_length_b 15.573714
_cell_length_c 8.956608
_cell_angle_alpha 90.000000
_cell_angle_beta 90.000000
_cell_angle_gamma 90.000000
_cell_volume 2172.340789
_symmetry_space_group_name_H-M "P -4 B 2"
_symmetry_group_IT_number 117
_symmetry_cell_setting 'tetragonal'
loop_
_space_group_symop_operation_xyz
x,y,z
y,-x,-z
-x,-y,z
-y,x,-z
1/2+y,1/2+x,-z
1/2-y,1/2-x,-z
1/2-x,1/2+y,z
1/2+x,1/2-y,z
loop_
_atom_site_type_symbol
_atom_site_label
_atom_site_fract_x
_atom_site_fract_y
_atom_site_fract_z
Si Si1 0.279938 0.117607 0.372167
Si Si2 0.121753 0.229601 0.268736
Si Si3 0.637978 0.494057 0.536238
Si Si4 0.899309 0.497978 0.223178
Si Si5 0.113803 0.386198 0.500000
Si Si6 0.145137 0.354864 0.000000
O O1 0.333706 0.166295 0.500000
O O2 0.208511 0.179479 0.303585
O O3 0.220140 0.042496 0.446178
O O4 0.345986 0.088704 0.242268
O O5 0.114762 0.305312 0.391016
O O6 0.039514 0.170019 0.310558
O O7 0.132554 0.273289 0.107827
O O8 0.570116 0.415173 0.548580
O O9 0.890847 0.533737 0.390763
O O10 0.000000 0.500000 0.186728
O O11 0.856405 0.562917 0.108426
#
# Coordination Sequence:
#
# PCOD9558058 Si02
#       6
#     8   8   8   8   4   4
#     4  11  21  35  63  97 115 156 212 266 308 355
#     4  10  20  39  59  89 121 160 205 253 314 369
#     4   9  19  36  62  93 121 153 208 269 308 360
#     4  11  22  38  57  85 120 161 206 246 308 366
#     4  10  17  34  60  80 113 148 198 256 292 346
#     4  10  25  40  54  82 129 172 186 250 318 384
#
# _framework density 18.413318
#
# number of rings (size 3 to 8) (size 9 to 14) (size 15 to 20)
#    0.000    1.800    3.000    1.800    2.800    0.000 
#    3.600    2.000    0.000    0.000    0.000    0.000 
#    0.000    0.000    0.000    0.000    0.000    0.000 
#
# Total GULP energy -222800.367535 kJ/mol
# GULP energy per Si atom -5570.009188 kJ/mol
# Density = 1.837141 g / cm^3
# Si number density = 18.413318 Si / 1000 Ang^3
#
#
#
# Elastic Constant Matrix: (Units=GPa)
#
#
# Indices 1 2 3 4 5 6 
#
# 1 75.0346 34.9440 20.1012 0.0000 0.0000 0.0000
# 2 34.9440 75.0368 20.1018 0.0000 0.0000 0.0000
# 3 20.1012 20.1018 82.0337 0.0000 0.0000 0.0000
# 4 0.0000 0.0000 0.0000 10.2874 0.0000 0.0000
# 5 0.0000 0.0000 0.0000 0.0000 10.2882 0.0000
# 6 0.0000 0.0000 0.0000 0.0000 0.0000 31.2638
#
#
#
# Elastic Compliance Matrix: (Units=1/GPa)
#
#
# Indices 1 2 3 4 5 6 
#
# 1 0.017465 -0.007478 -0.002447 0.000000 0.000000 0.000000
# 2 -0.007478 0.017465 -0.002447 0.000000 0.000000 0.000000
# 3 -0.002447 -0.002447 0.013389 0.000000 0.000000 0.000000
# 4 0.000000 0.000000 0.000000 0.097207 0.000000 0.000000
# 5 0.000000 0.000000 0.000000 0.000000 0.097198 0.000000
# 6 0.000000 0.000000 0.000000 0.000000 0.000000 0.031986
#
#
# Mechanical properties :
#
#
# Convention : Reuss Voigt Hill
#
# Bulk Modulus (GPa) = 42.41818 42.48879 42.45348
# Shear Modulus (GPa) = 16.27004 20.83175 18.55090
#
# Velocity S-wave (km/s) = 2.97577 3.36719 3.17751
# Velocity P-wave (km/s) = 5.90708 6.18405 6.04715
#
# Compressibility (1/GPa) = 0.02357480
#
# Stress axis : x y z
#
# Youngs Moduli (GPa) = 57.25660 57.25814 74.68563
#
# Poissons Ratio (x) = 0.42817 0.18277
# Poissons Ratio (y) = 0.42815 0.18278
# Poissons Ratio (z) = 0.14012 0.14013
#
# Static dielectric constant tensor:
#      x y z
#    x 1.764990 0.000000 0.000000 
#    y 0.000000 1.764970 0.000000 
#    z 0.000000 0.000000 1.609750 
# 
# From -- ./inp_files/1774.got.cif
#   From: 2010.05.17/outbox.cif.g08.bks.cpg/sg117_1_cif.got.tgz:1774.got - 2010.05.20 11:15:09.
