data_PCOD9558463
_publ_section_title
;
Structure prediction by ZEFSAII (Michael W. Deem and Ramdas Pophale) SiO2 
 PCOD9558463
Probable space group: P -4 N 2
;
_chemical_formula_sum "Si O2"
_cell_formula_units_Z 26
_cell_length_a 13.726485
_cell_length_b 13.726485
_cell_length_c 5.588571
_cell_angle_alpha 90.000000
_cell_angle_beta 90.000000
_cell_angle_gamma 90.000000
_cell_volume 1052.978376
_symmetry_space_group_name_H-M "P -4 N 2"
_symmetry_group_IT_number 118
_symmetry_cell_setting 'tetragonal'
loop_
_space_group_symop_operation_xyz
x,y,z
y,-x,-z
-x,-y,z
-y,x,-z
1/2+y,1/2+x,1/2-z
1/2-y,1/2-x,1/2-z
1/2-x,1/2+y,1/2+z
1/2+x,1/2-y,1/2+z
loop_
_atom_site_type_symbol
_atom_site_label
_atom_site_fract_x
_atom_site_fract_y
_atom_site_fract_z
Si Si1 0.500000 0.500000 0.500000
Si Si2 0.447090 0.214940 0.755972
Si Si3 0.704901 0.483059 0.740307
Si Si4 0.812410 0.687591 0.750000
Si Si5 0.679077 0.179077 0.750000
O O1 0.593643 0.509688 0.675031
O O2 0.382462 0.117539 0.750000
O O3 0.426933 0.266492 0.502606
O O4 0.562992 0.194306 0.751024
O O5 0.434917 0.278561 0.999454
O O6 0.779478 0.574954 0.746568
O O7 0.779255 0.723034 0.492306
#
# Coordination Sequence:
#
# PCOD9558463 Si02
#       5
#     2   8   8   4   4
#     4  12  28  50  68 102 144 202 248 302 376 454
#     4  10  19  37  65 101 139 176 231 292 360 434
#     4  10  23  40  67  96 140 185 235 292 359 437
#     4   8  16  36  59  94 130 176 229 282 346 420
#     4   8  15  28  58  98 136 172 210 279 358 427
#
# _framework density 24.691865
#
# number of rings (size 3 to 8) (size 9 to 14) (size 15 to 20)
#    0.000    2.462    0.000    1.385    0.000    3.692 
#    2.769    9.231   20.308    0.000    0.000    0.000 
#    0.000    0.000    0.000    0.000    0.000    0.000 
#
# Total GULP energy -144898.064796 kJ/mol
# GULP energy per Si atom -5573.002492 kJ/mol
# Density = 2.463567 g / cm^3
# Si number density = 24.691865 Si / 1000 Ang^3
#
#
#
# Elastic Constant Matrix: (Units=GPa)
#
#
# Indices 1 2 3 4 5 6 
#
# 1 254.8263 -65.3019 48.1555 0.0000 0.0000 0.0000
# 2 -65.3019 254.8489 48.1631 0.0000 0.0000 0.0000
# 3 48.1555 48.1631 319.8389 0.0000 0.0000 0.0000
# 4 0.0000 0.0000 0.0000 20.0233 0.0000 0.0000
# 5 0.0000 0.0000 0.0000 0.0000 20.0194 0.0000
# 6 0.0000 0.0000 0.0000 0.0000 0.0000 32.7947
#
#
#
# Elastic Compliance Matrix: (Units=1/GPa)
#
#
# Indices 1 2 3 4 5 6 
#
# 1 0.004419 0.001295 -0.000860 0.000000 0.000000 0.000000
# 2 0.001295 0.004418 -0.000860 0.000000 0.000000 0.000000
# 3 -0.000860 -0.000860 0.003386 0.000000 0.000000 0.000000
# 4 0.000000 0.000000 0.000000 0.049942 0.000000 0.000000
# 5 0.000000 0.000000 0.000000 0.000000 0.049952 0.000000
# 6 0.000000 0.000000 0.000000 0.000000 0.000000 0.030493
#
#
# Mechanical properties :
#
#
# Convention : Reuss Voigt Hill
#
# Bulk Modulus (GPa) = 87.94272 99.06083 93.50178
# Shear Modulus (GPa) = 33.95574 67.80063 50.87819
#
# Velocity S-wave (km/s) = 3.71236 5.24579 4.54422
# Velocity P-wave (km/s) = 7.35316 8.76909 8.09215
#
# Compressibility (1/GPa) = 0.01137104
#
# Stress axis : x y z
#
# Youngs Moduli (GPa) = 226.31555 226.33406 295.36522
#
# Poissons Ratio (x) = -0.29306 0.25409
# Poissons Ratio (y) = -0.29303 0.25409
# Poissons Ratio (z) = 0.19469 0.19471
#
# Static dielectric constant tensor:
#      x y z
#    x 1.941190 0.000000 0.000000 
#    y 0.000000 1.941190 0.000000 
#    z 0.000000 0.000000 1.992470 
# 
# From -- ./inp_files/355.got.cif
#   From: 2010.05.17/outbox.cif.g08.bks.cpg/sg118_1_cif.got.tgz:355.got - 2010.05.20 11:17:24.
