data_PCOD9558781
_publ_section_title
;
Structure prediction by ZEFSAII (Michael W. Deem and Ramdas Pophale) SiO2 
 PCOD9558781
Probable space group: P -4 N 2
;
_chemical_formula_sum "Si O2"
_cell_formula_units_Z 56
_cell_length_a 14.273417
_cell_length_b 14.273417
_cell_length_c 11.833374
_cell_angle_alpha 90.000000
_cell_angle_beta 90.000000
_cell_angle_gamma 90.000000
_cell_volume 2410.818407
_symmetry_space_group_name_H-M "P -4 N 2"
_symmetry_group_IT_number 118
_symmetry_cell_setting 'tetragonal'
loop_
_space_group_symop_operation_xyz
x,y,z
y,-x,-z
-x,-y,z
-y,x,-z
1/2+y,1/2+x,1/2-z
1/2-y,1/2-x,1/2-z
1/2-x,1/2+y,1/2+z
1/2+x,1/2-y,1/2+z
loop_
_atom_site_type_symbol
_atom_site_label
_atom_site_fract_x
_atom_site_fract_y
_atom_site_fract_z
Si Si1 0.887111 0.911268 0.553494
Si Si2 0.573416 0.071516 0.056970
Si Si3 0.661662 0.686630 0.726812
Si Si4 0.738611 0.171800 0.573412
Si Si5 0.837911 0.831313 0.216810
Si Si6 0.101536 0.104353 0.001361
Si Si7 0.008084 0.293519 0.751850
O O1 0.853478 0.916400 0.683844
O O2 0.826143 0.823258 0.512921
O O3 0.994502 0.879198 0.522592
O O4 0.645264 0.011159 0.133602
O O5 0.515308 0.136651 0.145363
O O6 0.500000 0.000000 0.000603
O O7 0.631338 0.143802 0.978753
O O8 0.713498 0.786503 0.750000
O O9 0.633804 0.674857 0.594330
O O10 0.740080 0.606709 0.746008
O O11 0.776949 0.114555 0.680651
O O12 0.731611 0.269561 0.638877
O O13 0.779584 0.922619 0.253317
O O14 0.912892 0.843707 0.119197
O O15 0.999490 0.115380 0.949835
#
# Coordination Sequence:
#
# PCOD9558781 Si02
#       7
#     8   8   8   8   8   8   8
#     4  11  25  41  69 103 142 182 229 287 353 419
#     4  11  24  41  71 104 139 180 239 297 350 413
#     4  12  22  44  72  99 145 185 231 293 351 409
#     4  11  25  43  66 100 142 181 230 289 345 420
#     4  11  25  42  67  95 141 190 230 286 350 418
#     4  11  25  40  66 101 138 187 237 288 349 425
#     4  11  20  41  70 105 137 177 237 292 342 418
#
# _framework density 23.228625999999998
#
# number of rings (size 3 to 8) (size 9 to 14) (size 15 to 20)
#    0.000    0.857    4.286    3.429    6.000    1.143 
#    0.000    1.429    0.000    0.000    0.000    0.000 
#    0.000    0.000    0.000    0.000    0.000    0.000 
#
# Total GULP energy -311927.756767 kJ/mol
# GULP energy per Si atom -5570.138514 kJ/mol
# Density = 2.317576 g / cm^3
# Si number density = 23.228626 Si / 1000 Ang^3
#
#
#
# Elastic Constant Matrix: (Units=GPa)
#
#
# Indices 1 2 3 4 5 6 
#
# 1 52.5588 12.4543 13.5277 0.0000 0.0000 0.0000
# 2 12.4543 52.5571 13.5278 0.0000 0.0000 0.0000
# 3 13.5277 13.5278 125.5624 0.0000 0.0000 0.0000
# 4 0.0000 0.0000 0.0000 30.7112 0.0000 0.0000
# 5 0.0000 0.0000 0.0000 0.0000 30.7113 0.0000
# 6 0.0000 0.0000 0.0000 0.0000 0.0000 28.5317
#
#
#
# Elastic Compliance Matrix: (Units=1/GPa)
#
#
# Indices 1 2 3 4 5 6 
#
# 1 0.020519 -0.004416 -0.001735 0.000000 0.000000 0.000000
# 2 -0.004416 0.020520 -0.001735 0.000000 0.000000 0.000000
# 3 -0.001735 -0.001735 0.008338 0.000000 0.000000 0.000000
# 4 0.000000 0.000000 0.000000 0.032561 0.000000 0.000000
# 5 0.000000 0.000000 0.000000 0.000000 0.032561 0.000000
# 6 0.000000 0.000000 0.000000 0.000000 0.000000 0.035049
#
#
# Mechanical properties :
#
#
# Convention : Reuss Voigt Hill
#
# Bulk Modulus (GPa) = 29.75696 34.41090 32.08393
# Shear Modulus (GPa) = 28.32507 30.73539 29.53023
#
# Velocity S-wave (km/s) = 3.49578 3.64148 3.56938
# Velocity P-wave (km/s) = 5.39743 5.70322 5.55243
#
# Compressibility (1/GPa) = 0.03360558
#
# Stress axis : x y z
#
# Youngs Moduli (GPa) = 48.73476 48.73313 119.93267
#
# Poissons Ratio (x) = 0.21520 0.20807
# Poissons Ratio (y) = 0.21520 0.20809
# Poissons Ratio (z) = 0.08455 0.08455
#
# Static dielectric constant tensor:
#      x y z
#    x 2.328540 0.000000 0.000000 
#    y 0.000000 2.328540 0.000000 
#    z 0.000000 0.000000 2.161210 
# 
# From -- ./inp_files/3407.got.cif
#   From: 2010.05.17/outbox.cif.g08.bks.cpg/sg118_2_cif.got.tgz:3407.got - 2010.05.20 11:17:24.
