data_PCOD9558446
_publ_section_title
;
Structure prediction by ZEFSAII (Michael W. Deem and Ramdas Pophale) SiO2 
 PCOD9558446
Probable space group: P -4 N 2
;
_chemical_formula_sum "Si O2"
_cell_formula_units_Z 28
_cell_length_a 10.823216
_cell_length_b 10.823216
_cell_length_c 11.217115
_cell_angle_alpha 90.000000
_cell_angle_beta 90.000000
_cell_angle_gamma 90.000000
_cell_volume 1313.995337
_symmetry_space_group_name_H-M "P -4 N 2"
_symmetry_group_IT_number 118
_symmetry_cell_setting 'tetragonal'
loop_
_space_group_symop_operation_xyz
x,y,z
y,-x,-z
-x,-y,z
-y,x,-z
1/2+y,1/2+x,1/2-z
1/2-y,1/2-x,1/2-z
1/2-x,1/2+y,1/2+z
1/2+x,1/2-y,1/2+z
loop_
_atom_site_type_symbol
_atom_site_label
_atom_site_fract_x
_atom_site_fract_y
_atom_site_fract_z
Si Si1 0.245965 0.651732 0.870993
Si Si2 0.163220 0.663220 0.250000
Si Si3 0.852080 0.490860 0.472568
Si Si4 0.749666 0.130780 0.423865
O O1 0.225526 0.725526 0.750000
O O2 0.238413 0.503046 0.863737
O O3 0.127114 0.687996 0.951092
O O4 0.367504 0.684867 0.946801
O O5 0.174079 0.542620 0.334510
O O6 0.175236 0.779882 0.337348
O O7 0.813151 0.615491 0.540089
O O8 0.000000 0.500000 0.476577
#
# Coordination Sequence:
#
# PCOD9558446 Si02
#       4
#     8   4   8   8
#     4  10  21  36  57  82 111 148 184 232 289 338
#     4  10  19  34  59  82 108 146 188 236 285 330
#     4   9  19  35  56  81 106 142 193 236 272 330
#     4  10  21  36  56  83 113 144 189 234 280 345
#
# _framework density 21.309058
#
# number of rings (size 3 to 8) (size 9 to 14) (size 15 to 20)
#    0.000    2.286    0.000    2.143    0.000   11.429 
#    0.000    0.000    0.000   30.857    0.000    0.000 
#    0.000    0.000    0.000    0.000    0.000    0.000 
#
# Total GULP energy -155997.551975 kJ/mol
# GULP energy per Si atom -5571.341142 kJ/mol
# Density = 2.126056 g / cm^3
# Si number density = 21.309058 Si / 1000 Ang^3
#
#
#
# Elastic Constant Matrix: (Units=GPa)
#
#
# Indices 1 2 3 4 5 6 
#
# 1 23.3953 11.9190 -1.4861 0.0000 0.0000 0.0000
# 2 11.9190 23.3953 -1.4861 0.0000 0.0000 0.0000
# 3 -1.4861 -1.4861 98.7137 0.0000 0.0000 0.0000
# 4 0.0000 0.0000 0.0000 11.0962 0.0000 0.0000
# 5 0.0000 0.0000 0.0000 0.0000 11.0962 0.0000
# 6 0.0000 0.0000 0.0000 0.0000 0.0000 22.2015
#
#
#
# Elastic Compliance Matrix: (Units=1/GPa)
#
#
# Indices 1 2 3 4 5 6 
#
# 1 0.057744 -0.029391 0.000427 0.000000 0.000000 0.000000
# 2 -0.029391 0.057744 0.000427 0.000000 0.000000 0.000000
# 3 0.000427 0.000427 0.010143 0.000000 0.000000 0.000000
# 4 0.000000 0.000000 0.000000 0.090121 0.000000 0.000000
# 5 0.000000 0.000000 0.000000 0.000000 0.090121 0.000000
# 6 0.000000 0.000000 0.000000 0.000000 0.000000 0.045042
#
#
# Mechanical properties :
#
#
# Convention : Reuss Voigt Hill
#
# Bulk Modulus (GPa) = 14.58646 18.15532 16.37089
# Shear Modulus (GPa) = 11.60515 17.98263 14.79389
#
# Velocity S-wave (km/s) = 2.33622 2.90814 2.63773
# Velocity P-wave (km/s) = 3.75996 4.45139 4.12020
#
# Compressibility (1/GPa) = 0.06855671
#
# Stress axis : x y z
#
# Youngs Moduli (GPa) = 17.31771 17.31771 98.58861
#
# Poissons Ratio (x) = 0.50899 -0.04208
# Poissons Ratio (y) = 0.50899 -0.04208
# Poissons Ratio (z) = -0.00739 -0.00739
#
# Static dielectric constant tensor:
#      x y z
#    x 1.804430 0.000000 0.000000 
#    y 0.000000 1.804430 0.000000 
#    z 0.000000 0.000000 1.845820 
# 
# From -- ./inp_files/2654.got.cif
#   From: 2010.05.17/outbox.cif.g08.bks.cpg/sg118_2_cif.got.tgz:2654.got - 2010.05.20 11:17:24.
