data_PCOD9558051
_publ_section_title
;
Structure prediction by ZEFSAII (Michael W. Deem and Ramdas Pophale) SiO2 
 PCOD9558051
Probable space group: P -4 B 2
;
_chemical_formula_sum "Si O2"
_cell_formula_units_Z 64
_cell_length_a 22.216089
_cell_length_b 22.216089
_cell_length_c 8.623066
_cell_angle_alpha 90.000000
_cell_angle_beta 90.000000
_cell_angle_gamma 90.000000
_cell_volume 4255.953981
_symmetry_space_group_name_H-M "P -4 B 2"
_symmetry_group_IT_number 117
_symmetry_cell_setting 'tetragonal'
loop_
_space_group_symop_operation_xyz
x,y,z
y,-x,-z
-x,-y,z
-y,x,-z
1/2+y,1/2+x,-z
1/2-y,1/2-x,-z
1/2-x,1/2+y,z
1/2+x,1/2-y,z
loop_
_atom_site_type_symbol
_atom_site_label
_atom_site_fract_x
_atom_site_fract_y
_atom_site_fract_z
Si Si1 0.424459 0.336459 0.941610
Si Si2 0.056241 0.166868 0.077845
Si Si3 0.649198 0.236461 0.048934
Si Si4 0.339868 0.431847 0.551279
Si Si5 0.238520 0.650821 0.547543
Si Si6 0.169854 0.063625 0.426408
Si Si7 0.244898 0.171151 0.911201
Si Si8 0.331112 0.747794 0.415058
O O1 0.383547 0.395369 0.974304
O O2 0.425491 0.326920 0.757219
O O3 0.491313 0.343055 0.005782
O O4 0.390543 0.280328 0.019200
O O5 0.084000 0.232450 0.033688
O O6 0.054155 0.161040 0.264548
O O7 0.664492 0.244233 0.230974
O O8 0.669203 0.169203 0.000000
O O9 0.693019 0.279656 0.948534
O O10 0.395080 0.386292 0.516249
O O11 0.341999 0.494125 0.461585
O O12 0.279358 0.393262 0.521455
O O13 0.171262 0.671262 0.500000
O O14 0.268343 0.586930 0.505931
O O15 0.245860 0.664207 0.728960
O O16 0.282018 0.696010 0.450736
O O17 0.303111 0.196890 0.000000
O O18 0.306824 0.806824 0.500000
#
# Coordination Sequence:
#
# PCOD9558051 Si02
#       8
#     8   8   8   8   8   8   8   8
#     4  10  20  32  45  62  85 115 151 184 216 257
#     4   9  19  32  43  60  86 115 148 184 218 254
#     4   9  16  27  43  63  85 108 139 177 218 262
#     4   9  19  32  43  60  86 115 148 184 218 254
#     4  10  17  27  44  63  84 108 137 175 219 261
#     4  10  20  32  45  62  85 115 151 184 216 257
#     4  10  17  27  44  63  84 108 137 175 219 261
#     4   9  16  27  43  63  85 108 139 177 218 262
#
# _framework density 15.037756
#
# number of rings (size 3 to 8) (size 9 to 14) (size 15 to 20)
#    0.000    2.500    0.000    6.750    0.000    6.500 
#    0.000    2.500    0.000    0.000    0.000    0.000 
#    0.000    1.000    0.000   10.500    0.000    6.250 
#
# Total GULP energy -356366.055947 kJ/mol
# GULP energy per Si atom -5568.219624 kJ/mol
# Density = 1.500353 g / cm^3
# Si number density = 15.037756 Si / 1000 Ang^3
#
#
#
# Elastic Constant Matrix: (Units=GPa)
#
#
# Indices 1 2 3 4 5 6 
#
# 1 56.1456 57.9359 23.1272 0.0000 0.0000 0.0000
# 2 57.9359 56.1456 23.1268 0.0000 0.0000 0.0000
# 3 23.1272 23.1268 41.3066 0.0000 0.0000 0.0000
# 4 0.0000 0.0000 0.0000 23.6604 0.0000 0.0000
# 5 0.0000 0.0000 0.0000 0.0000 23.6603 0.0000
# 6 0.0000 0.0000 0.0000 0.0000 0.0000 17.0438
#
#
#
# Elastic Compliance Matrix: (Units=1/GPa)
#
#
# Indices 1 2 3 4 5 6 
#
# 1 -0.273623 0.284961 -0.006345 0.000000 0.000000 0.000000
# 2 0.284961 -0.273620 -0.006353 0.000000 0.000000 0.000000
# 3 -0.006345 -0.006353 0.031319 0.000000 0.000000 0.000000
# 4 0.000000 0.000000 0.000000 0.042265 0.000000 0.000000
# 5 0.000000 0.000000 0.000000 0.000000 0.042265 0.000000
# 6 0.000000 0.000000 0.000000 0.000000 0.000000 0.058673
#
#
# Mechanical properties :
#
#
# Convention : Reuss Voigt Hill
#
# Bulk Modulus (GPa) = 34.96226 40.21973 37.59100
# Shear Modulus (GPa) = -5.50835 16.16675 5.32920
#
# Velocity S-wave (km/s) = -1.91598 3.28239 1.88456
# Velocity P-wave (km/s) = 4.29016 6.41634 5.45779
#
# Compressibility (1/GPa) = 0.02860227
#
# Stress axis : x y z
#
# Youngs Moduli (GPa) = -3.65467 -3.65471 31.92976
#
# Poissons Ratio (x) = 1.04145 0.20261
# Poissons Ratio (y) = 1.04144 0.20284
# Poissons Ratio (z) = -0.02319 -0.02322
#
# Static dielectric constant tensor:
#      x y z
#    x 1.517880 0.000000 0.000000 
#    y 0.000000 1.517880 0.000000 
#    z 0.000000 0.000000 1.507130 
# 
# From -- ./inp_files/2172.got.cif
#   From: 2010.05.17/outbox.cif.g08.bks.cpg/sg117_2_cif.got.tgz:2172.got - 2010.05.20 11:15:09.
