data_PCOD9558271
_publ_section_title
;
Structure prediction by ZEFSAII (Michael W. Deem and Ramdas Pophale) SiO2 
 PCOD9558271
Probable space group: P -4 B 2
;
_chemical_formula_sum "Si O2"
_cell_formula_units_Z 36
_cell_length_a 13.648132
_cell_length_b 13.648132
_cell_length_c 9.525368
_cell_angle_alpha 90.000000
_cell_angle_beta 90.000000
_cell_angle_gamma 90.000000
_cell_volume 1774.304653
_symmetry_space_group_name_H-M "P -4 B 2"
_symmetry_group_IT_number 117
_symmetry_cell_setting 'tetragonal'
loop_
_space_group_symop_operation_xyz
x,y,z
y,-x,-z
-x,-y,z
-y,x,-z
1/2+y,1/2+x,-z
1/2-y,1/2-x,-z
1/2-x,1/2+y,z
1/2+x,1/2-y,z
loop_
_atom_site_type_symbol
_atom_site_label
_atom_site_fract_x
_atom_site_fract_y
_atom_site_fract_z
Si Si1 0.636718 0.575469 0.951052
Si Si2 0.059912 0.336764 0.711881
Si Si3 0.500000 0.500000 0.500000
Si Si4 0.000000 0.500000 0.500000
Si Si5 0.729442 0.229442 0.500000
Si Si6 0.854066 0.645935 0.000000
Si Si7 0.831134 0.917855 0.330272
O O1 0.631259 0.600720 0.786761
O O2 0.624274 0.459329 0.977269
O O3 0.738490 0.621730 0.001361
O O4 0.151856 0.292260 0.625240
O O5 0.006678 0.408112 0.602765
O O6 0.980977 0.252850 0.743657
O O7 0.097954 0.388816 0.853503
O O8 0.492388 0.401297 0.588355
O O9 0.836373 0.212585 0.566064
#
# Coordination Sequence:
#
# PCOD9558271 Si02
#       7
#     8   8   2   2   4   4   8
#     4  11  24  44  67  98 141 181 229 291 346 413
#     4  11  24  46  68  98 139 182 230 289 344 425
#     4  12  24  36  70 100 128 172 236 282 344 408
#     4  10  26  50  68 100 142 180 232 288 352 422
#     4  11  23  41  68  97 139 177 228 284 350 408
#     4  12  24  45  70 101 136 184 236 282 352 418
#     4  12  23  42  67 102 132 180 229 288 347 410
#
# _framework density 20.289638
#
# number of rings (size 3 to 8) (size 9 to 14) (size 15 to 20)
#    0.000    0.667    6.667    2.000    0.000    0.444 
#    4.000    0.000    0.000    0.000    0.000    0.000 
#    0.000    0.000    0.000    0.000    0.000    0.000 
#
# Total GULP energy -201067.983109 kJ/mol
# GULP energy per Si atom -5585.221753 kJ/mol
# Density = 2.024346 g / cm^3
# Si number density = 20.289638 Si / 1000 Ang^3
#
#
#
# Elastic Constant Matrix: (Units=GPa)
#
#
# Indices 1 2 3 4 5 6 
#
# 1 75.5262 53.2930 29.4105 0.0000 0.0000 0.0000
# 2 53.2930 75.5274 29.4104 0.0000 0.0000 0.0000
# 3 29.4105 29.4104 119.3453 0.0000 0.0000 0.0000
# 4 0.0000 0.0000 0.0000 15.5186 0.0000 0.0000
# 5 0.0000 0.0000 0.0000 0.0000 15.5176 0.0000
# 6 0.0000 0.0000 0.0000 0.0000 0.0000 28.9003
#
#
#
# Elastic Compliance Matrix: (Units=1/GPa)
#
#
# Indices 1 2 3 4 5 6 
#
# 1 0.026862 -0.018115 -0.002156 0.000000 0.000000 0.000000
# 2 -0.018115 0.026862 -0.002155 0.000000 0.000000 0.000000
# 3 -0.002156 -0.002155 0.009441 0.000000 0.000000 0.000000
# 4 0.000000 0.000000 0.000000 0.064439 0.000000 0.000000
# 5 0.000000 0.000000 0.000000 0.000000 0.064443 0.000000
# 6 0.000000 0.000000 0.000000 0.000000 0.000000 0.034602
#
#
# Mechanical properties :
#
#
# Convention : Reuss Voigt Hill
#
# Bulk Modulus (GPa) = 54.60505 54.95852 54.78179
# Shear Modulus (GPa) = 18.01122 22.53962 20.27542
#
# Velocity S-wave (km/s) = 2.98267 3.33662 3.16460
# Velocity P-wave (km/s) = 6.23161 6.47996 6.35700
#
# Compressibility (1/GPa) = 0.01831332
#
# Stress axis : x y z
#
# Youngs Moduli (GPa) = 37.22731 37.22800 105.91611
#
# Poissons Ratio (x) = 0.67437 0.22832
# Poissons Ratio (y) = 0.67436 0.22830
# Poissons Ratio (z) = 0.08025 0.08024
#
# Static dielectric constant tensor:
#      x y z
#    x 1.726030 0.000000 0.000000 
#    y 0.000000 1.726020 0.000000 
#    z 0.000000 0.000000 1.753840 
# 
# From -- ./inp_files/1660.got.cif
#   From: 2010.05.17/outbox.cif.g08.bks.cpg/sg117_1_cif.got.tgz:1660.got - 2010.05.20 11:15:09.
