data_PCOD9558299
_publ_section_title
;
Structure prediction by ZEFSAII (Michael W. Deem and Ramdas Pophale) SiO2 
 PCOD9558299
Probable space group: P -4 B 2
;
_chemical_formula_sum "Si O2"
_cell_formula_units_Z 64
_cell_length_a 11.224725
_cell_length_b 11.224725
_cell_length_c 22.177420
_cell_angle_alpha 90.000000
_cell_angle_beta 90.000000
_cell_angle_gamma 90.000000
_cell_volume 2794.231865
_symmetry_space_group_name_H-M "P -4 B 2"
_symmetry_group_IT_number 117
_symmetry_cell_setting 'tetragonal'
loop_
_space_group_symop_operation_xyz
x,y,z
y,-x,-z
-x,-y,z
-y,x,-z
1/2+y,1/2+x,-z
1/2-y,1/2-x,-z
1/2-x,1/2+y,z
1/2+x,1/2-y,z
loop_
_atom_site_type_symbol
_atom_site_label
_atom_site_fract_x
_atom_site_fract_y
_atom_site_fract_z
Si Si1 0.484335 0.699174 0.432224
Si Si2 0.010514 0.195371 0.574244
Si Si3 0.528676 0.327702 0.911234
Si Si4 0.608431 0.076064 0.875798
Si Si5 0.634499 0.491996 0.220660
Si Si6 0.698475 0.226879 0.234745
Si Si7 0.753902 0.925684 0.969199
Si Si8 0.912866 0.599748 0.346721
O O1 0.596372 0.614244 0.418379
O O2 0.369306 0.616750 0.417366
O O3 0.484155 0.728195 0.503391
O O4 0.481961 0.818829 0.394709
O O5 0.037783 0.302830 0.618703
O O6 0.538378 0.188421 0.900931
O O7 0.471580 0.377822 0.851408
O O8 0.661847 0.374284 0.917784
O O9 0.467598 0.336148 0.975520
O O10 0.698713 0.118205 0.824267
O O11 0.500000 0.000000 0.848802
O O12 0.672679 0.019372 0.933792
O O13 0.500000 0.500000 0.246920
O O14 0.709278 0.372303 0.239720
O O15 0.697469 0.622789 0.229281
O O16 0.631828 0.185612 0.294548
O O17 0.673756 0.826245 0.000000
O O18 0.000000 0.500000 0.321453
#
# Coordination Sequence:
#
# PCOD9558299 Si02
#       8
#     8   8   8   8   8   8   8   8
#     4   9  21  43  71 105 151 195 246 307 380 460
#     4   9  21  43  71 105 148 201 242 305 389 446
#     4  11  27  39  67 101 134 171 230 294 367 461
#     4  11  23  46  68  92 135 189 234 293 369 448
#     4  11  28  53  77 104 147 199 249 319 396 461
#     4  11  29  49  76 105 148 199 263 314 385 462
#     4  12  24  40  68 100 137 170 230 291 376 456
#     4  12  27  43  71 112 148 193 262 315 376 449
#
# _framework density 22.904326999999999
#
# number of rings (size 3 to 8) (size 9 to 14) (size 15 to 20)
#    0.000    1.250    1.250    3.375   10.500    5.000 
#    0.000    0.000    0.000    0.000    0.000    0.000 
#    0.000    0.000    0.000    0.000    0.000    0.000 
#
# Total GULP energy -357489.855900 kJ/mol
# GULP energy per Si atom -5585.778998 kJ/mol
# Density = 2.285220 g / cm^3
# Si number density = 22.904327 Si / 1000 Ang^3
#
#
#
# Elastic Constant Matrix: (Units=GPa)
#
#
# Indices 1 2 3 4 5 6 
#
# 1 80.9441 29.4325 14.1554 0.0000 0.0000 0.0000
# 2 29.4325 80.9430 14.1555 0.0000 0.0000 0.0000
# 3 14.1554 14.1555 55.8523 0.0000 0.0000 0.0000
# 4 0.0000 0.0000 0.0000 19.5334 0.0000 0.0000
# 5 0.0000 0.0000 0.0000 0.0000 19.5331 0.0000
# 6 0.0000 0.0000 0.0000 0.0000 0.0000 17.4273
#
#
#
# Elastic Compliance Matrix: (Units=1/GPa)
#
#
# Indices 1 2 3 4 5 6 
#
# 1 0.014551 -0.004862 -0.002456 0.000000 0.000000 0.000000
# 2 -0.004862 0.014552 -0.002456 0.000000 0.000000 0.000000
# 3 -0.002456 -0.002456 0.019149 0.000000 0.000000 0.000000
# 4 0.000000 0.000000 0.000000 0.051194 0.000000 0.000000
# 5 0.000000 0.000000 0.000000 0.000000 0.051195 0.000000
# 6 0.000000 0.000000 0.000000 0.000000 0.000000 0.057381
#
#
# Mechanical properties :
#
#
# Convention : Reuss Voigt Hill
#
# Bulk Modulus (GPa) = 34.83647 37.02513 35.93080
# Shear Modulus (GPa) = 21.08475 21.96518 21.52497
#
# Velocity S-wave (km/s) = 3.03736 3.10013 3.06890
# Velocity P-wave (km/s) = 5.24817 5.38652 5.31780
#
# Compressibility (1/GPa) = 0.02870555
#
# Stress axis : x y z
#
# Youngs Moduli (GPa) = 68.72159 68.72060 52.22149
#
# Poissons Ratio (x) = 0.33410 0.12825
# Poissons Ratio (y) = 0.33411 0.12825
# Poissons Ratio (z) = 0.16877 0.16877
#
# Static dielectric constant tensor:
#      x y z
#    x 1.895230 0.000000 0.000000 
#    y 0.000000 1.895220 0.000000 
#    z 0.000000 0.000000 1.832870 
# 
# From -- ./inp_files/3549.got.cif
#   From: 2010.05.17/outbox.cif.g08.bks.cpg/sg117_2_cif.got.tgz:3549.got - 2010.05.20 11:15:09.
