data_PCOD9558491
_publ_section_title
;
Structure prediction by ZEFSAII (Michael W. Deem and Ramdas Pophale) SiO2 
 PCOD9558491
Probable space group: P -4 N 2
;
_chemical_formula_sum "Si O2"
_cell_formula_units_Z 32
_cell_length_a 13.618819
_cell_length_b 13.618819
_cell_length_c 8.124284
_cell_angle_alpha 90.000000
_cell_angle_beta 90.000000
_cell_angle_gamma 90.000000
_cell_volume 1506.829078
_symmetry_space_group_name_H-M "P -4 N 2"
_symmetry_group_IT_number 118
_symmetry_cell_setting 'tetragonal'
loop_
_space_group_symop_operation_xyz
x,y,z
y,-x,-z
-x,-y,z
-y,x,-z
1/2+y,1/2+x,1/2-z
1/2-y,1/2-x,1/2-z
1/2-x,1/2+y,1/2+z
1/2+x,1/2-y,1/2+z
loop_
_atom_site_type_symbol
_atom_site_label
_atom_site_fract_x
_atom_site_fract_y
_atom_site_fract_z
Si Si1 0.173298 0.239479 0.918117
Si Si2 0.705793 0.086107 0.636034
Si Si3 0.751062 0.969935 0.932573
Si Si4 0.437596 0.099556 0.070704
O O1 0.223554 0.276447 0.750000
O O2 0.179644 0.123471 0.951787
O O3 0.225467 0.307240 0.058017
O O4 0.056271 0.260364 0.931837
O O5 0.609894 0.109894 0.750000
O O6 0.773745 0.029708 0.765302
O O7 0.681859 0.013090 0.487803
O O8 0.646261 0.915144 0.935850
O O9 0.389014 0.110987 0.250000
O O10 0.500000 0.000000 0.076306
#
# Coordination Sequence:
#
# PCOD9558491 Si02
#       4
#     8   8   8   8
#     4  11  23  42  65  96 131 173 221 272 337 403
#     4  10  20  35  59  89 127 161 213 268 325 382
#     4  11  24  39  66  95 134 175 221 276 335 403
#     4  11  19  31  56  91 123 160 207 272 332 374
#
# _framework density 21.236647999999999
#
# number of rings (size 3 to 8) (size 9 to 14) (size 15 to 20)
#    0.000    1.250    5.000    3.750    0.000    3.500 
#    0.000    7.500    0.000    0.000    0.000    0.000 
#    0.000    0.000    0.000    0.000    0.000    0.000 
#
# Total GULP energy -178196.125110 kJ/mol
# GULP energy per Si atom -5568.628910 kJ/mol
# Density = 2.118831 g / cm^3
# Si number density = 21.236648 Si / 1000 Ang^3
#
#
#
# Elastic Constant Matrix: (Units=GPa)
#
#
# Indices 1 2 3 4 5 6 
#
# 1 64.7280 16.8196 16.1308 0.0000 0.0000 0.0000
# 2 16.8196 64.7282 16.1309 0.0000 0.0000 0.0000
# 3 16.1308 16.1309 109.0939 0.0000 0.0000 0.0000
# 4 0.0000 0.0000 0.0000 18.5394 0.0000 0.0000
# 5 0.0000 0.0000 0.0000 0.0000 18.5398 0.0000
# 6 0.0000 0.0000 0.0000 0.0000 0.0000 27.1525
#
#
#
# Elastic Compliance Matrix: (Units=1/GPa)
#
#
# Indices 1 2 3 4 5 6 
#
# 1 0.016949 -0.003924 -0.001926 0.000000 0.000000 0.000000
# 2 -0.003924 0.016949 -0.001926 0.000000 0.000000 0.000000
# 3 -0.001926 -0.001926 0.009736 0.000000 0.000000 0.000000
# 4 0.000000 0.000000 0.000000 0.053939 0.000000 0.000000
# 5 0.000000 0.000000 0.000000 0.000000 0.053938 0.000000
# 6 0.000000 0.000000 0.000000 0.000000 0.000000 0.036829
#
#
# Mechanical properties :
#
#
# Convention : Reuss Voigt Hill
#
# Bulk Modulus (GPa) = 35.61018 37.41252 36.51135
# Shear Modulus (GPa) = 23.44639 25.47759 24.46199
#
# Velocity S-wave (km/s) = 3.32633 3.46743 3.39761
# Velocity P-wave (km/s) = 5.61759 5.80396 5.71153
#
# Compressibility (1/GPa) = 0.02808186
#
# Stress axis : x y z
#
# Youngs Moduli (GPa) = 59.00080 59.00096 102.71228
#
# Poissons Ratio (x) = 0.23153 0.19781
# Poissons Ratio (y) = 0.23153 0.19781
# Poissons Ratio (z) = 0.11363 0.11363
#
# Static dielectric constant tensor:
#      x y z
#    x 1.839170 0.000000 0.000000 
#    y 0.000000 1.839170 0.000000 
#    z 0.000000 0.000000 1.873240 
# 
# From -- ./inp_files/1591.got.cif
#   From: 2010.05.17/outbox.cif.g08.bks.cpg/sg118_1_cif.got.tgz:1591.got - 2010.05.20 11:17:24.
