data_PCOD9558854
_publ_section_title
;
Structure prediction by ZEFSAII (Michael W. Deem and Ramdas Pophale) SiO2 
 PCOD9558854
Probable space group: P -4 N 2
;
_chemical_formula_sum "Si O2"
_cell_formula_units_Z 36
_cell_length_a 9.092060
_cell_length_b 9.092060
_cell_length_c 18.924280
_cell_angle_alpha 90.000000
_cell_angle_beta 90.000000
_cell_angle_gamma 90.000000
_cell_volume 1564.386110
_symmetry_space_group_name_H-M "P -4 N 2"
_symmetry_group_IT_number 118
_symmetry_cell_setting 'tetragonal'
loop_
_space_group_symop_operation_xyz
x,y,z
y,-x,-z
-x,-y,z
-y,x,-z
1/2+y,1/2+x,1/2-z
1/2-y,1/2-x,1/2-z
1/2-x,1/2+y,1/2+z
1/2+x,1/2-y,1/2+z
loop_
_atom_site_type_symbol
_atom_site_label
_atom_site_fract_x
_atom_site_fract_y
_atom_site_fract_z
Si Si1 0.894821 0.207583 0.492170
Si Si2 0.639486 0.833627 0.368149
Si Si3 0.500000 0.500000 0.500000
Si Si4 0.324460 0.330793 0.613373
Si Si5 0.000000 0.500000 0.750000
Si Si6 0.848830 0.563487 0.327957
O O1 0.891183 0.331859 0.552566
O O2 0.796989 0.231674 0.423101
O O3 0.060860 0.171459 0.472555
O O4 0.478268 0.758862 0.365721
O O5 0.759147 0.704664 0.356292
O O6 0.630673 0.959411 0.307176
O O7 0.435620 0.376164 0.550216
O O8 0.426622 0.263018 0.673056
O O9 0.893078 0.606923 0.250000
O O10 0.000000 0.500000 0.364334
#
# Coordination Sequence:
#
# PCOD9558854 Si02
#       6
#     8   8   2   8   2   8
#     4  11  25  45  73 113 153 191 243 315 390 457
#     4  12  24  46  70 106 148 196 253 306 384 454
#     4  12  20  36  68 108 140 180 236 298 364 440
#     4  12  22  43  71 108 143 189 247 308 373 461
#     4  12  28  44  66  96 142 200 242 306 356 456
#     4  11  24  43  70 101 143 196 251 314 380 455
#
# _framework density 23.012222000000001
#
# number of rings (size 3 to 8) (size 9 to 14) (size 15 to 20)
#    0.000    0.444    5.556    2.667    0.000    1.778 
#    2.000    4.444    0.000    0.000    0.000    0.000 
#    0.000    0.000    0.000    0.000    0.000    0.000 
#
# Total GULP energy -200869.638736 kJ/mol
# GULP energy per Si atom -5579.712187 kJ/mol
# Density = 2.295985 g / cm^3
# Si number density = 23.012222 Si / 1000 Ang^3
#
#
#
# Elastic Constant Matrix: (Units=GPa)
#
#
# Indices 1 2 3 4 5 6 
#
# 1 100.2839 57.5580 31.8089 0.0000 0.0000 0.0000
# 2 57.5580 100.2845 31.8084 0.0000 0.0000 0.0000
# 3 31.8089 31.8084 74.4297 0.0000 0.0000 0.0000
# 4 0.0000 0.0000 0.0000 36.8518 0.0000 0.0000
# 5 0.0000 0.0000 0.0000 0.0000 36.8516 0.0000
# 6 0.0000 0.0000 0.0000 0.0000 0.0000 49.8084
#
#
#
# Elastic Compliance Matrix: (Units=1/GPa)
#
#
# Indices 1 2 3 4 5 6 
#
# 1 0.015529 -0.007876 -0.003271 0.000000 0.000000 0.000000
# 2 -0.007876 0.015529 -0.003271 0.000000 0.000000 0.000000
# 3 -0.003271 -0.003271 0.016231 0.000000 0.000000 0.000000
# 4 0.000000 0.000000 0.000000 0.027136 0.000000 0.000000
# 5 0.000000 0.000000 0.000000 0.000000 0.027136 0.000000
# 6 0.000000 0.000000 0.000000 0.000000 0.000000 0.020077
#
#
# Mechanical properties :
#
#
# Convention : Reuss Voigt Hill
#
# Bulk Modulus (GPa) = 54.18582 57.48318 55.83450
# Shear Modulus (GPa) = 31.92340 34.95722 33.44031
#
# Velocity S-wave (km/s) = 3.72860 3.90176 3.81616
# Velocity P-wave (km/s) = 6.49109 6.73290 6.61310
#
# Compressibility (1/GPa) = 0.01845501
#
# Stress axis : x y z
#
# Youngs Moduli (GPa) = 64.39401 64.39477 61.60949
#
# Poissons Ratio (x) = 0.50714 0.20153
# Poissons Ratio (y) = 0.50714 0.20151
# Poissons Ratio (z) = 0.21064 0.21062
#
# Static dielectric constant tensor:
#      x y z
#    x 1.908970 0.000000 0.000000 
#    y 0.000000 1.908970 0.000000 
#    z 0.000000 0.000000 1.876780 
# 
# From -- ./inp_files/5504.got.cif
#   From: 2010.05.17/outbox.cif.g08.bks.cpg/sg118_3_cif.got.tgz:5504.got - 2010.05.20 11:17:24.
