data_PCOD9558780
_publ_section_title
;
Structure prediction by ZEFSAII (Michael W. Deem and Ramdas Pophale) SiO2 
 PCOD9558780
Probable space group: P -4 N 2
;
_chemical_formula_sum "Si O2"
_cell_formula_units_Z 40
_cell_length_a 10.478899
_cell_length_b 10.478899
_cell_length_c 15.499190
_cell_angle_alpha 90.000000
_cell_angle_beta 90.000000
_cell_angle_gamma 90.000000
_cell_volume 1701.924582
_symmetry_space_group_name_H-M "P -4 N 2"
_symmetry_group_IT_number 118
_symmetry_cell_setting 'tetragonal'
loop_
_space_group_symop_operation_xyz
x,y,z
y,-x,-z
-x,-y,z
-y,x,-z
1/2+y,1/2+x,1/2-z
1/2-y,1/2-x,1/2-z
1/2-x,1/2+y,1/2+z
1/2+x,1/2-y,1/2+z
loop_
_atom_site_type_symbol
_atom_site_label
_atom_site_fract_x
_atom_site_fract_y
_atom_site_fract_z
Si Si1 0.381410 0.247651 0.406765
Si Si2 0.211010 0.501741 0.922044
Si Si3 0.483116 0.655063 0.710128
Si Si4 0.353503 0.452765 0.101994
Si Si5 0.322682 0.714009 0.408126
O O1 0.324982 0.344865 0.334614
O O2 0.525628 0.298324 0.416811
O O3 0.310060 0.268888 0.497170
O O4 0.406976 0.094563 0.404850
O O5 0.306707 0.608350 0.882177
O O6 0.211900 0.360281 0.882570
O O7 0.263140 0.482614 0.020655
O O8 0.500000 0.500000 0.716720
O O9 0.498042 0.702498 0.808018
O O10 0.597894 0.713563 0.654089
O O11 0.500000 0.500000 0.087776
#
# Coordination Sequence:
#
# PCOD9558780 Si02
#       5
#     8   8   8   8   8
#     4  11  21  39  65 101 135 183 231 286 353 418
#     4  12  22  39  67  98 138 183 237 284 352 421
#     4   9  22  39  67  93 131 180 231 285 352 420
#     4  11  20  41  64  92 130 185 232 280 348 427
#     4  11  21  40  68  98 138 182 229 289 352 425
#
# _framework density 23.502801999999999
#
# number of rings (size 3 to 8) (size 9 to 14) (size 15 to 20)
#    0.000    1.200    6.000    0.600    0.000    0.800 
#    0.000   16.000    0.000    7.200    5.200    0.000 
#    0.000    0.000    0.000    0.000    0.000    0.000 
#
# Total GULP energy -222715.006873 kJ/mol
# GULP energy per Si atom -5567.875172 kJ/mol
# Density = 2.344931 g / cm^3
# Si number density = 23.502802 Si / 1000 Ang^3
#
#
#
# Elastic Constant Matrix: (Units=GPa)
#
#
# Indices 1 2 3 4 5 6 
#
# 1 91.0501 19.4382 36.4286 0.0000 0.0000 0.0000
# 2 19.4382 91.0501 36.4286 0.0000 0.0000 0.0000
# 3 36.4286 36.4286 95.4715 0.0000 0.0000 0.0000
# 4 0.0000 0.0000 0.0000 35.7185 0.0000 0.0000
# 5 0.0000 0.0000 0.0000 0.0000 35.7185 0.0000
# 6 0.0000 0.0000 0.0000 0.0000 0.0000 34.5202
#
#
#
# Elastic Compliance Matrix: (Units=1/GPa)
#
#
# Indices 1 2 3 4 5 6 
#
# 1 0.013029 -0.000935 -0.004614 0.000000 0.000000 0.000000
# 2 -0.000935 0.013029 -0.004614 0.000000 0.000000 0.000000
# 3 -0.004614 -0.004614 0.013996 0.000000 0.000000 0.000000
# 4 0.000000 0.000000 0.000000 0.027997 0.000000 0.000000
# 5 0.000000 0.000000 0.000000 0.000000 0.027997 0.000000
# 6 0.000000 0.000000 0.000000 0.000000 0.000000 0.028969
#
#
# Mechanical properties :
#
#
# Convention : Reuss Voigt Hill
#
# Bulk Modulus (GPa) = 50.69713 51.35139 51.02426
# Shear Modulus (GPa) = 32.91227 33.54318 33.22772
#
# Velocity S-wave (km/s) = 3.74619 3.78193 3.76410
# Velocity P-wave (km/s) = 6.35055 6.40056 6.37560
#
# Compressibility (1/GPa) = 0.01972498
#
# Stress axis : x y z
#
# Youngs Moduli (GPa) = 76.75265 76.75265 71.45006
#
# Poissons Ratio (x) = 0.07179 0.32971
# Poissons Ratio (y) = 0.07179 0.32971
# Poissons Ratio (z) = 0.35417 0.35417
#
# Static dielectric constant tensor:
#      x y z
#    x 0.328570 0.000000 0.000000 
#    y 0.000000 0.328570 0.000000 
#    z 0.000000 0.000000 1.874860 
# 
# From -- ./inp_files/4058.got.cif
#   From: 2010.05.17/outbox.cif.g08.bks.cpg/sg118_3_cif.got.tgz:4058.got - 2010.05.20 11:17:24.
