data_PCOD9558913
_publ_section_title
;
Structure prediction by ZEFSAII (Michael W. Deem and Ramdas Pophale) SiO2 
 PCOD9558913
Probable space group: P -4 N 2
;
_chemical_formula_sum "Si O2"
_cell_formula_units_Z 20
_cell_length_a 7.943499
_cell_length_b 7.943499
_cell_length_c 12.624722
_cell_angle_alpha 90.000000
_cell_angle_beta 90.000000
_cell_angle_gamma 90.000000
_cell_volume 796.609560
_symmetry_space_group_name_H-M "P -4 N 2"
_symmetry_group_IT_number 118
_symmetry_cell_setting 'tetragonal'
loop_
_space_group_symop_operation_xyz
x,y,z
y,-x,-z
-x,-y,z
-y,x,-z
1/2+y,1/2+x,1/2-z
1/2-y,1/2-x,1/2-z
1/2-x,1/2+y,1/2+z
1/2+x,1/2-y,1/2+z
loop_
_atom_site_type_symbol
_atom_site_label
_atom_site_fract_x
_atom_site_fract_y
_atom_site_fract_z
Si Si1 0.199892 0.699892 0.750000
Si Si2 0.662141 0.117468 0.930551
Si Si3 0.696589 0.657799 0.651660
O O1 0.331330 0.736571 0.844224
O O2 0.235505 0.517511 0.700608
O O3 0.500000 0.000000 0.927860
O O4 0.812934 0.990063 0.895331
O O5 0.689884 0.186887 0.047852
O O6 0.716558 0.783443 0.750000
#
# Coordination Sequence:
#
# PCOD9558913 Si02
#       3
#     4   8   8
#     4  12  24  44  76 112 148 206 262 320 402 464
#     4  12  26  48  74 111 155 206 261 331 400 478
#     4  12  26  48  78 110 157 205 263 327 396 482
#
# _framework density 25.106401999999999
#
# number of rings (size 3 to 8) (size 9 to 14) (size 15 to 20)
#    0.000    0.000    4.000    7.200    0.000    0.000 
#    0.000    0.000    0.000    0.000    0.000    0.000 
#    0.000    0.000    0.000    0.000    0.000    0.000 
#
# Total GULP energy -111945.326670 kJ/mol
# GULP energy per Si atom -5597.266334 kJ/mol
# Density = 2.504926 g / cm^3
# Si number density = 25.106402 Si / 1000 Ang^3
#
#
#
# Elastic Constant Matrix: (Units=GPa)
#
#
# Indices 1 2 3 4 5 6 
#
# 1 75.8773 -16.3874 22.9198 0.0000 0.0000 0.0000
# 2 -16.3874 75.8776 22.9197 0.0000 0.0000 0.0000
# 3 22.9198 22.9197 231.0387 0.0000 0.0000 0.0000
# 4 0.0000 0.0000 0.0000 44.9942 0.0000 0.0000
# 5 0.0000 0.0000 0.0000 0.0000 44.9946 0.0000
# 6 0.0000 0.0000 0.0000 0.0000 0.0000 34.3566
#
#
#
# Elastic Compliance Matrix: (Units=1/GPa)
#
#
# Indices 1 2 3 4 5 6 
#
# 1 0.014520 0.003681 -0.001806 0.000000 0.000000 0.000000
# 2 0.003681 0.014520 -0.001806 0.000000 0.000000 0.000000
# 3 -0.001806 -0.001806 0.004687 0.000000 0.000000 0.000000
# 4 0.000000 0.000000 0.000000 0.022225 0.000000 0.000000
# 5 0.000000 0.000000 0.000000 0.000000 0.022225 0.000000
# 6 0.000000 0.000000 0.000000 0.000000 0.000000 0.029106
#
#
# Mechanical properties :
#
#
# Convention : Reuss Voigt Hill
#
# Bulk Modulus (GPa) = 29.52827 49.07751 39.30289
# Shear Modulus (GPa) = 42.21882 48.42519 45.32201
#
# Velocity S-wave (km/s) = 4.10518 4.39657 4.25337
# Velocity P-wave (km/s) = 5.85293 6.73523 6.30952
#
# Compressibility (1/GPa) = 0.03386585
#
# Stress axis : x y z
#
# Youngs Moduli (GPa) = 68.87230 68.87260 213.37809
#
# Poissons Ratio (x) = -0.25354 0.38527
# Poissons Ratio (y) = -0.25353 0.38527
# Poissons Ratio (z) = 0.12435 0.12435
#
# Static dielectric constant tensor:
#      x y z
#    x 2.109620 0.000000 0.000000 
#    y 0.000000 2.109620 0.000000 
#    z 0.000000 0.000000 1.946840 
# 
# From -- ./inp_files/2476.got.cif
#   From: 2010.05.17/outbox.cif.g08.bks.cpg/sg118_2_cif.got.tgz:2476.got - 2010.05.20 11:17:24.
