data_PCOD9558903
_publ_section_title
;
Structure prediction by ZEFSAII (Michael W. Deem and Ramdas Pophale) SiO2 
 PCOD9558903
Probable space group: P -4 N 2
;
_chemical_formula_sum "Si O2"
_cell_formula_units_Z 42
_cell_length_a 16.799649
_cell_length_b 16.799649
_cell_length_c 6.522140
_cell_angle_alpha 90.000000
_cell_angle_beta 90.000000
_cell_angle_gamma 90.000000
_cell_volume 1840.731875
_symmetry_space_group_name_H-M "P -4 N 2"
_symmetry_group_IT_number 118
_symmetry_cell_setting 'tetragonal'
loop_
_space_group_symop_operation_xyz
x,y,z
y,-x,-z
-x,-y,z
-y,x,-z
1/2+y,1/2+x,1/2-z
1/2-y,1/2-x,1/2-z
1/2-x,1/2+y,1/2+z
1/2+x,1/2-y,1/2+z
loop_
_atom_site_type_symbol
_atom_site_label
_atom_site_fract_x
_atom_site_fract_y
_atom_site_fract_z
Si Si1 0.647520 0.486300 0.225072
Si Si2 0.000000 0.000000 0.500000
Si Si3 0.662818 0.359829 0.581214
Si Si4 0.544549 0.767167 0.146354
Si Si5 0.133049 0.462850 0.119082
Si Si6 0.702746 0.093614 0.024443
O O1 0.562033 0.455939 0.144038
O O2 0.670706 0.426156 0.405612
O O3 0.632783 0.575988 0.309093
O O4 0.702932 0.479986 0.025019
O O5 0.733015 0.378215 0.742008
O O6 0.658894 0.271853 0.485604
O O7 0.475009 0.777450 0.314601
O O8 0.540356 0.849395 0.014308
O O9 0.054041 0.445960 0.250000
O O10 0.197565 0.448812 0.299257
O O11 0.133328 0.384740 0.972353
#
# Coordination Sequence:
#
# PCOD9558903 Si02
#       6
#     8   2   8   8   8   8
#     4  12  22  31  41  63 103 136 179 214 253 297
#     4  12  20  30  40  56  90 156 164 210 248 292
#     4  12  21  32  43  69 102 131 177 221 259 306
#     4  12  19  33  51  68  91 137 181 220 263 309
#     4   8  19  37  54  67  89 128 189 224 269 311
#     4   9  20  35  49  68  94 127 177 224 264 313
#
# _framework density 22.817011999999998
#
# number of rings (size 3 to 8) (size 9 to 14) (size 15 to 20)
#    1.143    0.000    5.714    2.857    0.000    0.000 
#    0.000    0.000    0.000    0.000    0.000    0.000 
#    0.000    0.000    0.000   13.714   56.381    0.000 
#
# Total GULP energy -233810.942735 kJ/mol
# GULP energy per Si atom -5566.927208 kJ/mol
# Density = 2.276508 g / cm^3
# Si number density = 22.817012 Si / 1000 Ang^3
#
#
#
# Elastic Constant Matrix: (Units=GPa)
#
#
# Indices 1 2 3 4 5 6 
#
# 1 -9.4159 82.9134 19.7131 0.0000 0.0000 0.0000
# 2 82.9134 -9.4196 19.7123 0.0000 0.0000 0.0000
# 3 19.7131 19.7123 98.0945 0.0000 0.0000 0.0000
# 4 0.0000 0.0000 0.0000 102.3092 0.0000 0.0000
# 5 0.0000 0.0000 0.0000 0.0000 102.3097 0.0000
# 6 0.0000 0.0000 0.0000 0.0000 0.0000 28.6514
#
#
#
# Elastic Compliance Matrix: (Units=1/GPa)
#
#
# Indices 1 2 3 4 5 6 
#
# 1 0.002210 0.013040 -0.003065 0.000000 0.000000 0.000000
# 2 0.013040 0.002210 -0.003065 0.000000 0.000000 0.000000
# 3 -0.003065 -0.003065 0.011426 0.000000 0.000000 0.000000
# 4 0.000000 0.000000 0.000000 0.009774 0.000000 0.000000
# 5 0.000000 0.000000 0.000000 0.000000 0.009774 0.000000
# 6 0.000000 0.000000 0.000000 0.000000 0.000000 0.034902
#
#
# Mechanical properties :
#
#
# Convention : Reuss Voigt Hill
#
# Bulk Modulus (GPa) = 33.70650 35.99297 34.84974
# Shear Modulus (GPa) = 75.34272 43.78207 59.56240
#
# Velocity S-wave (km/s) = 5.75257 4.38520 5.11479
# Velocity P-wave (km/s) = 7.67642 6.43808 7.08436
#
# Compressibility (1/GPa) = 0.02966787
#
# Stress axis : x y z
#
# Youngs Moduli (GPa) = 452.46998 452.58239 87.51992
#
# Poissons Ratio (x) = -5.90185 0.26822
# Poissons Ratio (y) = -5.90039 0.26822
# Poissons Ratio (z) = 1.38666 1.38699
#
# Static dielectric constant tensor:
#      x y z
#    x 1.845490 0.000000 0.000000 
#    y 0.000000 1.845490 0.000000 
#    z 0.000000 0.000000 1.911830 
# 
# From -- ./inp_files/764.got.cif
#   From: 2010.05.17/outbox.cif.g08.bks.cpg/sg118_1_cif.got.tgz:764.got - 2010.05.20 11:17:24.
