data_PCOD9558137
_publ_section_title
;
Structure prediction by ZEFSAII (Michael W. Deem and Ramdas Pophale) SiO2 
 PCOD9558137
Probable space group: P -4 B 2
;
_chemical_formula_sum "Si O2"
_cell_formula_units_Z 48
_cell_length_a 14.421304
_cell_length_b 14.421304
_cell_length_c 11.760785
_cell_angle_alpha 90.000000
_cell_angle_beta 90.000000
_cell_angle_gamma 90.000000
_cell_volume 2445.937606
_symmetry_space_group_name_H-M "P -4 B 2"
_symmetry_group_IT_number 117
_symmetry_cell_setting 'tetragonal'
loop_
_space_group_symop_operation_xyz
x,y,z
y,-x,-z
-x,-y,z
-y,x,-z
1/2+y,1/2+x,-z
1/2-y,1/2-x,-z
1/2-x,1/2+y,z
1/2+x,1/2-y,z
loop_
_atom_site_type_symbol
_atom_site_label
_atom_site_fract_x
_atom_site_fract_y
_atom_site_fract_z
Si Si1 0.190096 0.332442 0.752885
Si Si2 0.639847 0.798681 0.724379
Si Si3 0.600233 0.020444 0.381812
Si Si4 0.810748 0.481300 0.861603
Si Si5 0.068664 0.809062 0.928268
Si Si6 0.000000 0.000000 0.000000
Si Si7 0.500000 0.000000 0.000000
Si Si8 0.218384 0.281617 0.000000
O O1 0.273657 0.270463 0.702713
O O2 0.098357 0.338804 0.678686
O O3 0.218405 0.439494 0.773411
O O4 0.166414 0.300983 0.882039
O O5 0.576359 0.843406 0.625281
O O6 0.682400 0.883427 0.797864
O O7 0.569797 0.744697 0.809445
O O8 0.566500 0.066500 0.500000
O O9 0.500000 0.000000 0.322697
O O10 0.741538 0.482128 0.967937
O O11 0.909941 0.498660 0.920335
O O12 0.176021 0.801632 0.966149
O O13 0.031645 0.912897 0.924557
#
# Coordination Sequence:
#
# PCOD9558137 Si02
#       8
#     8   8   8   8   8   2   2   4
#     4  11  23  38  63 100 131 175 223 279 351 418
#     4  11  22  41  66  95 135 176 226 294 344 409
#     4  11  25  47  69  95 128 170 237 301 348 409
#     4  12  20  35  59  96 132 180 231 271 337 424
#     4  11  21  39  54  91 140 185 220 264 341 421
#     4  12  28  32  56  92 148 206 220 268 344 428
#     4  12  20  32  60  88 132 194 236 264 326 396
#     4  10  20  38  59  89 139 167 218 268 317 435
#
# _framework density 19.624375000000001
#
# number of rings (size 3 to 8) (size 9 to 14) (size 15 to 20)
#    0.000    0.833    6.667    3.500    4.667    0.000 
#    3.000    0.000    0.000    0.000    0.000    0.000 
#    0.000    0.000    0.000    0.000    0.000    0.000 
#
# Total GULP energy -267858.278673 kJ/mol
# GULP energy per Si atom -5580.380806 kJ/mol
# Density = 1.957971 g / cm^3
# Si number density = 19.624375 Si / 1000 Ang^3
#
#
#
# Elastic Constant Matrix: (Units=GPa)
#
#
# Indices 1 2 3 4 5 6 
#
# 1 129.6060 55.4435 32.0946 0.0000 0.0000 0.0000
# 2 55.4435 129.6056 32.0945 0.0000 0.0000 0.0000
# 3 32.0946 32.0945 73.0960 0.0000 0.0000 0.0000
# 4 0.0000 0.0000 0.0000 26.3463 0.0000 0.0000
# 5 0.0000 0.0000 0.0000 0.0000 26.3462 0.0000
# 6 0.0000 0.0000 0.0000 0.0000 0.0000 49.2247
#
#
#
# Elastic Compliance Matrix: (Units=1/GPa)
#
#
# Indices 1 2 3 4 5 6 
#
# 1 0.009929 -0.003555 -0.002799 0.000000 0.000000 0.000000
# 2 -0.003555 0.009929 -0.002799 0.000000 0.000000 0.000000
# 3 -0.002799 -0.002799 0.016139 0.000000 0.000000 0.000000
# 4 0.000000 0.000000 0.000000 0.037956 0.000000 0.000000
# 5 0.000000 0.000000 0.000000 0.000000 0.037956 0.000000
# 6 0.000000 0.000000 0.000000 0.000000 0.000000 0.020315
#
#
# Mechanical properties :
#
#
# Convention : Reuss Voigt Hill
#
# Bulk Modulus (GPa) = 56.52206 63.50809 60.01507
# Shear Modulus (GPa) = 31.96374 34.56177 33.26276
#
# Velocity S-wave (km/s) = 4.04019 4.20118 4.12147
# Velocity P-wave (km/s) = 7.11538 7.48099 7.30048
#
# Compressibility (1/GPa) = 0.01769221
#
# Stress axis : x y z
#
# Youngs Moduli (GPa) = 100.71096 100.71074 61.96313
#
# Poissons Ratio (x) = 0.35798 0.17344
# Poissons Ratio (y) = 0.35798 0.17344
# Poissons Ratio (z) = 0.28190 0.28189
#
# Static dielectric constant tensor:
#      x y z
#    x 1.740470 0.000000 0.000000 
#    y 0.000000 1.740470 0.000000 
#    z 0.000000 0.000000 1.739840 
# 
# From -- ./inp_files/2830.got.cif
#   From: 2010.05.17/outbox.cif.g08.bks.cpg/sg117_2_cif.got.tgz:2830.got - 2010.05.20 11:15:09.
