data_PCOD9558578
_publ_section_title
;
Structure prediction by ZEFSAII (Michael W. Deem and Ramdas Pophale) SiO2 
 PCOD9558578
Probable space group: P -4 N 2
;
_chemical_formula_sum "Si O2"
_cell_formula_units_Z 40
_cell_length_a 11.367078
_cell_length_b 11.367078
_cell_length_c 15.422819
_cell_angle_alpha 90.000000
_cell_angle_beta 90.000000
_cell_angle_gamma 90.000000
_cell_volume 1992.789572
_symmetry_space_group_name_H-M "P -4 N 2"
_symmetry_group_IT_number 118
_symmetry_cell_setting 'tetragonal'
loop_
_space_group_symop_operation_xyz
x,y,z
y,-x,-z
-x,-y,z
-y,x,-z
1/2+y,1/2+x,1/2-z
1/2-y,1/2-x,1/2-z
1/2-x,1/2+y,1/2+z
1/2+x,1/2-y,1/2+z
loop_
_atom_site_type_symbol
_atom_site_label
_atom_site_fract_x
_atom_site_fract_y
_atom_site_fract_z
Si Si1 0.772006 0.844439 0.330064
Si Si2 0.443795 0.127716 0.629869
Si Si3 0.232947 0.922451 0.224964
Si Si4 0.218819 0.025861 0.708437
Si Si5 0.540592 0.860471 0.433124
O O1 0.739866 0.760135 0.250000
O O2 0.676904 0.836886 0.406403
O O3 0.910715 0.823172 0.343328
O O4 0.744257 0.971461 0.290082
O O5 0.304827 0.107044 0.649329
O O6 0.500031 0.202568 0.706681
O O7 0.470209 0.172227 0.533829
O O8 0.500000 0.000000 0.635036
O O9 0.313295 0.813295 0.250000
O O10 0.100445 0.884922 0.246950
O O11 0.276730 0.965513 0.130816
O O12 0.500000 0.000000 0.422566
#
# Coordination Sequence:
#
# PCOD9558578 Si02
#       5
#     8   8   8   8   8
#     4  10  21  37  65  89 120 164 216 257 315 386
#     4  10  21  39  63  89 130 173 217 259 324 397
#     4  11  20  38  65  88 129 167 213 262 330 377
#     4  11  21  41  60  94 130 172 206 267 332 392
#     4  10  21  39  63  96 121 169 223 271 308 390
#
# _framework density 20.072362999999999
#
# number of rings (size 3 to 8) (size 9 to 14) (size 15 to 20)
#    0.000    1.600    4.000    3.000    0.000    0.000 
#   18.000    0.000    0.000    0.000    0.000    0.000 
#    0.000    0.000    0.000    0.000    0.000    0.000 
#
# Total GULP energy -222853.611283 kJ/mol
# GULP energy per Si atom -5571.340282 kJ/mol
# Density = 2.002668 g / cm^3
# Si number density = 20.072363 Si / 1000 Ang^3
#
#
#
# Elastic Constant Matrix: (Units=GPa)
#
#
# Indices 1 2 3 4 5 6 
#
# 1 59.9238 19.6592 12.4208 0.0000 0.0000 0.0000
# 2 19.6592 59.9251 12.4218 0.0000 0.0000 0.0000
# 3 12.4208 12.4218 83.9078 0.0000 0.0000 0.0000
# 4 0.0000 0.0000 0.0000 47.1554 0.0000 0.0000
# 5 0.0000 0.0000 0.0000 0.0000 47.1491 0.0000
# 6 0.0000 0.0000 0.0000 0.0000 0.0000 36.8532
#
#
#
# Elastic Compliance Matrix: (Units=1/GPa)
#
#
# Indices 1 2 3 4 5 6 
#
# 1 0.019005 -0.005831 -0.001950 0.000000 0.000000 0.000000
# 2 -0.005831 0.019005 -0.001950 0.000000 0.000000 0.000000
# 3 -0.001950 -0.001950 0.012495 0.000000 0.000000 0.000000
# 4 0.000000 0.000000 0.000000 0.021206 0.000000 0.000000
# 5 0.000000 0.000000 0.000000 0.000000 0.021209 0.000000
# 6 0.000000 0.000000 0.000000 0.000000 0.000000 0.027135
#
#
# Mechanical properties :
#
#
# Convention : Reuss Voigt Hill
#
# Bulk Modulus (GPa) = 32.21377 32.52894 32.37135
# Shear Modulus (GPa) = 33.36339 36.84854 35.10596
#
# Velocity S-wave (km/s) = 4.08138 4.28925 4.18661
# Velocity P-wave (km/s) = 6.18820 6.38524 6.28749
#
# Compressibility (1/GPa) = 0.03104263
#
# Stress axis : x y z
#
# Youngs Moduli (GPa) = 52.61799 52.61890 80.03043
#
# Poissons Ratio (x) = 0.30680 0.15607
# Poissons Ratio (y) = 0.30679 0.15609
# Poissons Ratio (z) = 0.10261 0.10263
#
# Static dielectric constant tensor:
#      x y z
#    x 1.445230 0.000000 0.000000 
#    y 0.000000 1.445160 0.000000 
#    z 0.000000 0.000000 1.673250 
# 
# From -- ./inp_files/4043.got.cif
#   From: 2010.05.17/outbox.cif.g08.bks.cpg/sg118_3_cif.got.tgz:4043.got - 2010.05.20 11:17:24.
