data_PCOD9558911
_publ_section_title
;
Structure prediction by ZEFSAII (Michael W. Deem and Ramdas Pophale) SiO2 
 PCOD9558911
Probable space group: P -4 N 2
;
_chemical_formula_sum "Si O2"
_cell_formula_units_Z 48
_cell_length_a 8.731369
_cell_length_b 8.731369
_cell_length_c 30.219102
_cell_angle_alpha 90.000000
_cell_angle_beta 90.000000
_cell_angle_gamma 90.000000
_cell_volume 2303.807775
_symmetry_space_group_name_H-M "P -4 N 2"
_symmetry_group_IT_number 118
_symmetry_cell_setting 'tetragonal'
loop_
_space_group_symop_operation_xyz
x,y,z
y,-x,-z
-x,-y,z
-y,x,-z
1/2+y,1/2+x,1/2-z
1/2-y,1/2-x,1/2-z
1/2-x,1/2+y,1/2+z
1/2+x,1/2-y,1/2+z
loop_
_atom_site_type_symbol
_atom_site_label
_atom_site_fract_x
_atom_site_fract_y
_atom_site_fract_z
Si Si1 0.606975 0.651289 0.942833
Si Si2 0.911998 0.238848 0.214297
Si Si3 0.244545 0.089764 0.211345
Si Si4 0.100017 0.745244 0.114856
Si Si5 0.400860 0.282769 0.390082
Si Si6 0.156169 0.555466 0.970117
O O1 0.500000 0.500000 0.933659
O O2 0.622004 0.800366 0.912067
O O3 0.775939 0.581551 0.941419
O O4 0.586953 0.720441 0.991957
O O5 0.859229 0.359229 0.250000
O O6 0.887457 0.302495 0.165522
O O7 0.086770 0.184208 0.218061
O O8 0.806647 0.086226 0.217053
O O9 0.359408 0.140592 0.250000
O O10 0.290341 0.117808 0.159482
O O11 0.921283 0.778032 0.105499
O O12 0.160981 0.922011 0.110329
O O13 0.373507 0.185255 0.434154
O O14 0.000000 0.500000 0.991860
#
# Coordination Sequence:
#
# PCOD9558911 Si02
#       6
#     8   8   8   8   8   8
#     4  12  25  44  60  91 135 165 203 263 329 386
#     4   9  19  38  60  87 126 159 204 259 310 369
#     4   9  19  38  60  89 123 159 206 260 310 366
#     4   9  20  40  64  92 120 167 219 265 308 377
#     4   9  20  39  66  91 121 163 222 268 305 375
#     4  12  24  42  64  90 126 165 205 262 326 378
#
# _framework density 20.835070000000002
#
# number of rings (size 3 to 8) (size 9 to 14) (size 15 to 20)
#    0.000    2.000    3.333    2.000    2.333    2.000 
#    6.000    1.667    3.667    0.000    0.000    0.000 
#    0.000    0.000    0.000    0.000    0.000    0.000 
#
# Total GULP energy -267352.100936 kJ/mol
# GULP energy per Si atom -5569.835436 kJ/mol
# Density = 2.078765 g / cm^3
# Si number density = 20.835070 Si / 1000 Ang^3
#
#
#
# Elastic Constant Matrix: (Units=GPa)
#
#
# Indices 1 2 3 4 5 6 
#
# 1 46.4268 29.4023 41.8059 0.0000 0.0000 0.0000
# 2 29.4023 46.4268 41.8059 0.0000 0.0000 0.0000
# 3 41.8059 41.8059 112.4627 0.0000 0.0000 0.0000
# 4 0.0000 0.0000 0.0000 -5.8934 0.0000 0.0000
# 5 0.0000 0.0000 0.0000 0.0000 -5.8934 0.0000
# 6 0.0000 0.0000 0.0000 0.0000 0.0000 35.9668
#
#
#
# Elastic Compliance Matrix: (Units=1/GPa)
#
#
# Indices 1 2 3 4 5 6 
#
# 1 0.040543 -0.018196 -0.008307 0.000000 0.000000 0.000000
# 2 -0.018196 0.040543 -0.008307 0.000000 0.000000 0.000000
# 3 -0.008307 -0.008307 0.015068 0.000000 0.000000 0.000000
# 4 0.000000 0.000000 0.000000 -0.169683 0.000000 0.000000
# 5 0.000000 0.000000 0.000000 0.000000 -0.169683 0.000000
# 6 0.000000 0.000000 0.000000 0.000000 0.000000 0.027803
#
#
# Mechanical properties :
#
#
# Convention : Reuss Voigt Hill
#
# Bulk Modulus (GPa) = 37.68774 47.92719 42.80746
# Shear Modulus (GPa) = -36.51167 10.98949 -12.76109
#
# Velocity S-wave (km/s) = -4.19073 2.29912 -2.47752
# Velocity P-wave (km/s) = 2.29964 5.48644 3.52226
#
# Compressibility (1/GPa) = 0.02653383
#
# Stress axis : x y z
#
# Youngs Moduli (GPa) = 24.66509 24.66509 66.36596
#
# Poissons Ratio (x) = 0.44880 0.55132
# Poissons Ratio (y) = 0.44880 0.55132
# Poissons Ratio (z) = 0.20490 0.20490
#
# Static dielectric constant tensor:
#      x y z
#    x 1.817400 0.000000 0.000000 
#    y 0.000000 1.817400 0.000000 
#    z 0.000000 0.000000 1.749360 
# 
# From -- ./inp_files/6836.got.cif
#   From: 2010.05.17/outbox.cif.g08.bks.cpg/sg118_4_cif.got.tgz:6836.got - 2010.05.20 11:17:24.
