data_PCOD9558360
_publ_section_title
;
Structure prediction by ZEFSAII (Michael W. Deem and Ramdas Pophale) SiO2 
 PCOD9558360
Probable space group: P -4 B 2
;
_chemical_formula_sum "Si O2"
_cell_formula_units_Z 26
_cell_length_a 14.829231
_cell_length_b 14.829231
_cell_length_c 4.930678
_cell_angle_alpha 90.000000
_cell_angle_beta 90.000000
_cell_angle_gamma 90.000000
_cell_volume 1084.286130
_symmetry_space_group_name_H-M "P -4 B 2"
_symmetry_group_IT_number 117
_symmetry_cell_setting 'tetragonal'
loop_
_space_group_symop_operation_xyz
x,y,z
y,-x,-z
-x,-y,z
-y,x,-z
1/2+y,1/2+x,-z
1/2-y,1/2-x,-z
1/2-x,1/2+y,z
1/2+x,1/2-y,z
loop_
_atom_site_type_symbol
_atom_site_label
_atom_site_fract_x
_atom_site_fract_y
_atom_site_fract_z
Si Si1 0.111946 0.611946 0.000000
Si Si2 0.195527 0.695527 0.500000
Si Si3 0.932020 0.701994 0.854367
Si Si4 0.500000 0.500000 0.500000
Si Si5 0.679576 0.598311 0.668133
O O1 0.128631 0.679600 0.249731
O O2 0.014375 0.633230 0.880096
O O3 0.293456 0.678538 0.369303
O O4 0.939789 0.788355 0.045526
O O5 0.847670 0.652331 0.000000
O O6 0.925920 0.742834 0.554537
O O7 0.580768 0.557850 0.631793
#
# Coordination Sequence:
#
# PCOD9558360 Si02
#       5
#     4   4   8   2   8
#     4  12  25  40  72 104 132 177 240 298 346 425
#     4  12  24  48  69 101 142 194 228 286 372 442
#     4  12  24  47  70 102 140 186 238 292 365 432
#     4  12  28  46  72 114 144 182 256 306 364 426
#     4  12  26  46  71 100 145 189 233 297 365 439
#
# _framework density 23.978912999999999
#
# number of rings (size 3 to 8) (size 9 to 14) (size 15 to 20)
#    0.000    0.000    3.077    7.846    0.000    3.692 
#    0.000    4.615    0.000    0.000    0.000    0.000 
#    0.000    0.000    0.000    0.000    0.000    0.000 
#
# Total GULP energy -145423.531214 kJ/mol
# GULP energy per Si atom -5593.212739 kJ/mol
# Density = 2.392434 g / cm^3
# Si number density = 23.978913 Si / 1000 Ang^3
#
#
#
# Elastic Constant Matrix: (Units=GPa)
#
#
# Indices 1 2 3 4 5 6 
#
# 1 33.7175 62.0175 -20.6799 0.0000 0.0000 0.0000
# 2 62.0175 33.7251 -20.6803 0.0000 0.0000 0.0000
# 3 -20.6799 -20.6803 62.4964 0.0000 0.0000 0.0000
# 4 0.0000 0.0000 0.0000 18.3393 0.0000 0.0000
# 5 0.0000 0.0000 0.0000 0.0000 18.3389 0.0000
# 6 0.0000 0.0000 0.0000 0.0000 0.0000 38.7816
#
#
#
# Elastic Compliance Matrix: (Units=1/GPa)
#
#
# Indices 1 2 3 4 5 6 
#
# 1 -0.011578 0.023764 0.004032 0.000000 0.000000 0.000000
# 2 0.023764 -0.011575 0.004033 0.000000 0.000000 0.000000
# 3 0.004032 0.004033 0.018670 0.000000 0.000000 0.000000
# 4 0.000000 0.000000 0.000000 0.054528 0.000000 0.000000
# 5 0.000000 0.000000 0.000000 0.000000 0.054529 0.000000
# 6 0.000000 0.000000 0.000000 0.000000 0.000000 0.025785
#
#
# Mechanical properties :
#
#
# Convention : Reuss Voigt Hill
#
# Bulk Modulus (GPa) = 16.89886 19.02815 17.96351
# Shear Modulus (GPa) = 57.85381 22.37743 40.11562
#
# Velocity S-wave (km/s) = 4.91725 3.05817 4.09461
# Velocity P-wave (km/s) = 6.26911 4.51912 5.46462
#
# Compressibility (1/GPa) = 0.05917560
#
# Stress axis : x y z
#
# Youngs Moduli (GPa) = -86.36950 -86.39324 53.56238
#
# Poissons Ratio (x) = 2.05304 -0.21598
# Poissons Ratio (y) = 2.05247 -0.21603
# Poissons Ratio (z) = 0.34827 0.34844
#
# Static dielectric constant tensor:
#      x y z
#    x 1.924460 0.000000 0.000000 
#    y 0.000000 1.924460 0.000000 
#    z 0.000000 0.000000 1.891130 
# 
# From -- ./inp_files/316.got.cif
#   From: 2010.05.17/outbox.cif.g08.bks.cpg/sg117_1_cif.got.tgz:316.got - 2010.05.20 11:15:09.
