data_PCOD9558315
_publ_section_title
;
Structure prediction by ZEFSAII (Michael W. Deem and Ramdas Pophale) SiO2 
 PCOD9558315
Probable space group: P -4 B 2
;
_chemical_formula_sum "Si O2"
_cell_formula_units_Z 52
_cell_length_a 20.043552
_cell_length_b 20.043552
_cell_length_c 5.180375
_cell_angle_alpha 90.000000
_cell_angle_beta 90.000000
_cell_angle_gamma 90.000000
_cell_volume 2081.184454
_symmetry_space_group_name_H-M "P -4 B 2"
_symmetry_group_IT_number 117
_symmetry_cell_setting 'tetragonal'
loop_
_space_group_symop_operation_xyz
x,y,z
y,-x,-z
-x,-y,z
-y,x,-z
1/2+y,1/2+x,-z
1/2-y,1/2-x,-z
1/2-x,1/2+y,z
1/2+x,1/2-y,z
loop_
_atom_site_type_symbol
_atom_site_label
_atom_site_fract_x
_atom_site_fract_y
_atom_site_fract_z
Si Si1 0.921754 0.578247 0.500000
Si Si2 0.050083 0.699688 0.131254
Si Si3 0.689612 0.682337 0.240771
Si Si4 0.181266 0.681266 0.000000
Si Si5 0.376930 0.374171 0.740940
Si Si6 0.300416 0.918101 0.173031
Si Si7 0.421581 0.078420 0.500000
Si Si8 0.309081 0.500720 0.515108
O O1 0.896979 0.627762 0.722464
O O2 0.915269 0.499728 0.431394
O O3 0.192204 0.738735 0.208161
O O4 0.079396 0.636936 0.290024
O O5 0.047482 0.766287 0.295824
O O6 0.974468 0.689193 0.044652
O O7 0.669678 0.663913 0.531499
O O8 0.758314 0.648577 0.147667
O O9 0.640506 0.646635 0.031345
O O10 0.200709 0.605745 0.091771
O O11 0.355809 0.450414 0.677116
O O12 0.452369 0.353029 0.669713
O O13 0.249709 0.959874 0.366006
#
# Coordination Sequence:
#
# PCOD9558315 Si02
#       8
#     4   8   8   4   8   8   4   8
#     4  11  24  46  67 102 144 193 258 312 370 469
#     4  12  24  47  71 107 148 203 246 328 392 456
#     4  11  26  44  71 112 147 197 249 319 378 469
#     4  12  26  40  72 111 144 191 266 314 386 460
#     4  11  25  46  75 109 153 193 253 310 386 467
#     4  11  25  48  75  98 155 204 251 318 406 456
#     4  11  26  42  67 104 138 191 262 306 374 463
#     4  11  24  47  76 106 154 196 254 315 393 464
#
# _framework density 24.985772000000001
#
# number of rings (size 3 to 8) (size 9 to 14) (size 15 to 20)
#    0.000    0.769    4.615    1.846    2.154    5.231 
#    0.000    1.538    0.000    1.846    0.000    0.000 
#    0.000    0.000    0.000    0.000    0.000    0.000 
#
# Total GULP energy -290222.162318 kJ/mol
# GULP energy per Si atom -5581.195429 kJ/mol
# Density = 2.492890 g / cm^3
# Si number density = 24.985772 Si / 1000 Ang^3
#
#
#
# Elastic Constant Matrix: (Units=GPa)
#
#
# Indices 1 2 3 4 5 6 
#
# 1 61.3972 86.4551 13.2945 0.0000 0.0000 0.0000
# 2 86.4551 61.4077 13.2926 0.0000 0.0000 0.0000
# 3 13.2945 13.2926 51.5715 0.0000 0.0000 0.0000
# 4 0.0000 0.0000 0.0000 63.2774 0.0000 0.0000
# 5 0.0000 0.0000 0.0000 0.0000 63.2820 0.0000
# 6 0.0000 0.0000 0.0000 0.0000 0.0000 46.2656
#
#
#
# Elastic Compliance Matrix: (Units=1/GPa)
#
#
# Indices 1 2 3 4 5 6 
#
# 1 -0.016414 0.023504 -0.001827 0.000000 0.000000 0.000000
# 2 0.023504 -0.016410 -0.001829 0.000000 0.000000 0.000000
# 3 -0.001827 -0.001829 0.020333 0.000000 0.000000 0.000000
# 4 0.000000 0.000000 0.000000 0.015803 0.000000 0.000000
# 5 0.000000 0.000000 0.000000 0.000000 0.015802 0.000000
# 6 0.000000 0.000000 0.000000 0.000000 0.000000 0.021614
#
#
# Mechanical properties :
#
#
# Convention : Reuss Voigt Hill
#
# Bulk Modulus (GPa) = 36.75848 44.49563 40.62706
# Shear Modulus (GPa) = 494.96521 38.65394 266.80958
#
# Velocity S-wave (km/s) = 14.09003 3.93751 10.34487
# Velocity P-wave (km/s) = 16.71672 6.20637 12.60888
#
# Compressibility (1/GPa) = 0.02720461
#
# Stress axis : x y z
#
# Youngs Moduli (GPa) = -60.92499 -60.93709 49.18107
#
# Poissons Ratio (x) = 1.43226 0.08985
# Poissons Ratio (y) = 1.43198 0.08997
# Poissons Ratio (z) = -0.11131 -0.11147
#
# Static dielectric constant tensor:
#      x y z
#    x 1.837140 0.000000 0.000000 
#    y 0.000000 1.837200 0.000000 
#    z 0.000000 0.000000 2.277310 
# 
# From -- ./inp_files/886.got.cif
#   From: 2010.05.17/outbox.cif.g08.bks.cpg/sg117_1_cif.got.tgz:886.got - 2010.05.20 11:15:09.
