data_PCOD9558364
_publ_section_title
;
Structure prediction by ZEFSAII (Michael W. Deem and Ramdas Pophale) SiO2 
 PCOD9558364
Probable space group: P -4 B 2
;
_chemical_formula_sum "Si O2"
_cell_formula_units_Z 20
_cell_length_a 9.770549
_cell_length_b 9.770549
_cell_length_c 8.876290
_cell_angle_alpha 90.000000
_cell_angle_beta 90.000000
_cell_angle_gamma 90.000000
_cell_volume 847.362844
_symmetry_space_group_name_H-M "P -4 B 2"
_symmetry_group_IT_number 117
_symmetry_cell_setting 'tetragonal'
loop_
_space_group_symop_operation_xyz
x,y,z
y,-x,-z
-x,-y,z
-y,x,-z
1/2+y,1/2+x,-z
1/2-y,1/2-x,-z
1/2-x,1/2+y,z
1/2+x,1/2-y,z
loop_
_atom_site_type_symbol
_atom_site_label
_atom_site_fract_x
_atom_site_fract_y
_atom_site_fract_z
Si Si1 0.500000 0.500000 0.500000
Si Si2 0.217241 0.585842 0.855324
Si Si3 0.000000 0.000000 0.000000
Si Si4 0.248848 0.849270 0.654064
O O1 0.421903 0.608862 0.396612
O O2 0.374221 0.564930 0.908508
O O3 0.216088 0.705244 0.731269
O O4 0.176355 0.444541 0.775719
O O5 0.130886 0.630886 0.000000
O O6 0.331053 0.831053 0.500000
#
# Coordination Sequence:
#
# PCOD9558364 Si02
#       4
#     2   8   2   8
#     4  12  26  52  82 112 182 208 278 356 422 484
#     4  12  27  49  84 122 163 223 277 347 427 504
#     4  12  26  52  82 112 182 208 278 356 422 484
#     4  12  27  49  84 122 163 223 277 347 427 504
#
# _framework density 23.602641999999999
#
# number of rings (size 3 to 8) (size 9 to 14) (size 15 to 20)
#    0.000    0.000    8.000    1.200    0.000    0.000 
#    0.000   20.000    0.000    0.000    0.000    0.000 
#    0.000    0.000    0.000    0.000    0.000    0.000 
#
# Total GULP energy -112191.663483 kJ/mol
# GULP energy per Si atom -5609.583174 kJ/mol
# Density = 2.354892 g / cm^3
# Si number density = 23.602642 Si / 1000 Ang^3
#
#
#
# Elastic Constant Matrix: (Units=GPa)
#
#
# Indices 1 2 3 4 5 6 
#
# 1 68.2078 13.6923 18.3542 0.0000 0.0000 0.0000
# 2 13.6923 68.2078 18.3542 0.0000 0.0000 0.0000
# 3 18.3542 18.3542 98.5199 0.0000 0.0000 0.0000
# 4 0.0000 0.0000 0.0000********** 0.0000 0.0000
# 5 0.0000 0.0000 0.0000 0.0000********** 0.0000
# 6 0.0000 0.0000 0.0000 0.0000 0.0000 46.0045
#
#
#
# Elastic Compliance Matrix: (Units=1/GPa)
#
#
# Indices 1 2 3 4 5 6 
#
# 1 0.015833 -0.002510 -0.002482 0.000000 0.000000 0.000000
# 2 -0.002510 0.015833 -0.002482 0.000000 0.000000 0.000000
# 3 -0.002482 -0.002482 0.011075 0.000000 0.000000 0.000000
# 4 0.000000 0.000000 0.000000 -0.000092 0.000000 0.000000
# 5 0.000000 0.000000 0.000000 0.000000 -0.000092 0.000000
# 6 0.000000 0.000000 0.000000 0.000000 0.000000 0.021737
#
#
# Mechanical properties :
#
#
# Convention : Reuss Voigt Hill
#
# Bulk Modulus (GPa) = 35.98152 37.30409 36.64281
# Shear Modulus (GPa) = 56.49244 -4343.25572 -2143.38164
#
# Velocity S-wave (km/s) = 4.89763 -42.94358 -30.16757
# Velocity P-wave (km/s) = 6.87460 49.42701 34.61047
#
# Compressibility (1/GPa) = 0.02779204
#
# Stress axis : x y z
#
# Youngs Moduli (GPa) = 63.15954 63.15954 90.29334
#
# Poissons Ratio (x) = 0.15856 0.22411
# Poissons Ratio (y) = 0.15856 0.22411
# Poissons Ratio (z) = 0.15676 0.15676
#
# Static dielectric constant tensor:
#      x y z
#    x 5.845710 0.000000 0.000000 
#    y 0.000000 5.845710 0.000000 
#    z 0.000000 0.000000 1.890300 
# 
# From -- ./inp_files/2257.got.cif
#   From: 2010.05.17/outbox.cif.g08.bks.cpg/sg117_2_cif.got.tgz:2257.got - 2010.05.20 11:15:09.
