data_PCOD9558217
_publ_section_title
;
Structure prediction by ZEFSAII (Michael W. Deem and Ramdas Pophale) SiO2 
 PCOD9558217
Probable space group: P -4 B 2
;
_chemical_formula_sum "Si O2"
_cell_formula_units_Z 40
_cell_length_a 18.479819
_cell_length_b 18.479819
_cell_length_c 5.058176
_cell_angle_alpha 90.000000
_cell_angle_beta 90.000000
_cell_angle_gamma 90.000000
_cell_volume 1727.385871
_symmetry_space_group_name_H-M "P -4 B 2"
_symmetry_group_IT_number 117
_symmetry_cell_setting 'tetragonal'
loop_
_space_group_symop_operation_xyz
x,y,z
y,-x,-z
-x,-y,z
-y,x,-z
1/2+y,1/2+x,-z
1/2-y,1/2-x,-z
1/2-x,1/2+y,z
1/2+x,1/2-y,z
loop_
_atom_site_type_symbol
_atom_site_label
_atom_site_fract_x
_atom_site_fract_y
_atom_site_fract_z
Si Si1 0.500000 0.000000 0.000000
Si Si2 0.500000 0.500000 0.000000
Si Si3 0.166441 0.333560 0.500000
Si Si4 0.731502 0.579845 0.786782
Si Si5 0.659548 0.016997 0.180551
Si Si6 0.207867 0.047137 0.416246
Si Si7 0.625877 0.401609 0.889212
O O1 0.424382 0.000448 0.156278
O O2 0.558963 0.455441 0.832664
O O3 0.236327 0.345390 0.677968
O O4 0.094170 0.334748 0.675104
O O5 0.695028 0.530796 0.560348
O O6 0.675194 0.596403 0.015831
O O7 0.798678 0.533151 0.904358
O O8 0.708142 0.958315 0.332871
O O9 0.164904 0.065157 0.149561
O O10 0.180490 0.100676 0.644656
#
# Coordination Sequence:
#
# PCOD9558217 Si02
#       7
#     2   2   4   8   8   8   8
#     4  12  24  46  88 112 142 192 254 324 402 448
#     4  12  24  38  64 118 144 190 272 290 360 426
#     4  10  22  41  74 104 142 186 250 307 376 448
#     4  11  23  44  74 101 152 191 254 306 364 449
#     4  11  23  47  72 116 143 184 244 324 373 453
#     4  11  25  44  66 106 150 196 235 310 372 427
#     4  12  26  40  72 103 154 206 244 306 367 436
#
# _framework density 23.156379999999999
#
# number of rings (size 3 to 8) (size 9 to 14) (size 15 to 20)
#    0.000    0.800    6.000    0.000    8.400    1.200 
#    0.000    0.000    8.800    0.000    0.000    0.000 
#    0.000    0.000    0.000    0.000    0.000    0.000 
#
# Total GULP energy -223671.694179 kJ/mol
# GULP energy per Si atom -5591.792354 kJ/mol
# Density = 2.310368 g / cm^3
# Si number density = 23.156380 Si / 1000 Ang^3
#
#
#
# Elastic Constant Matrix: (Units=GPa)
#
#
# Indices 1 2 3 4 5 6 
#
# 1 109.9762 38.7947 38.9327 0.0000 0.0000 0.0000
# 2 38.7947 109.9769 38.9326 0.0000 0.0000 0.0000
# 3 38.9327 38.9326 126.3019 0.0000 0.0000 0.0000
# 4 0.0000 0.0000 0.0000 32.6102 0.0000 0.0000
# 5 0.0000 0.0000 0.0000 0.0000 32.6102 0.0000
# 6 0.0000 0.0000 0.0000 0.0000 0.0000 36.2876
#
#
#
# Elastic Compliance Matrix: (Units=1/GPa)
#
#
# Indices 1 2 3 4 5 6 
#
# 1 0.011032 -0.003017 -0.002471 0.000000 0.000000 0.000000
# 2 -0.003017 0.011032 -0.002471 0.000000 0.000000 0.000000
# 3 -0.002471 -0.002471 0.009441 0.000000 0.000000 0.000000
# 4 0.000000 0.000000 0.000000 0.030665 0.000000 0.000000
# 5 0.000000 0.000000 0.000000 0.000000 0.030665 0.000000
# 6 0.000000 0.000000 0.000000 0.000000 0.000000 0.027558
#
#
# Mechanical properties :
#
#
# Convention : Reuss Voigt Hill
#
# Bulk Modulus (GPa) = 64.15202 64.39722 64.27462
# Shear Modulus (GPa) = 35.33466 35.60793 35.47129
#
# Velocity S-wave (km/s) = 3.91053 3.92563 3.91809
# Velocity P-wave (km/s) = 6.93928 6.95827 6.94878
#
# Compressibility (1/GPa) = 0.01558797
#
# Stress axis : x y z
#
# Youngs Moduli (GPa) = 90.64785 90.64857 105.92495
#
# Poissons Ratio (x) = 0.27347 0.26170
# Poissons Ratio (y) = 0.27347 0.26169
# Poissons Ratio (z) = 0.22395 0.22395
#
# Static dielectric constant tensor:
#      x y z
#    x 1.889480 0.000000 0.000000 
#    y 0.000000 1.889480 0.000000 
#    z 0.000000 0.000000 1.960230 
# 
# From -- ./inp_files/654.got.cif
#   From: 2010.05.17/outbox.cif.g08.bks.cpg/sg117_1_cif.got.tgz:654.got - 2010.05.20 11:15:09.
