data_PCOD9558496
_publ_section_title
;
Structure prediction by ZEFSAII (Michael W. Deem and Ramdas Pophale) SiO2 
 PCOD9558496
Probable space group: P -4 N 2
;
_chemical_formula_sum "Si O2"
_cell_formula_units_Z 40
_cell_length_a 8.637466
_cell_length_b 8.637466
_cell_length_c 26.224345
_cell_angle_alpha 90.000000
_cell_angle_beta 90.000000
_cell_angle_gamma 90.000000
_cell_volume 1956.488734
_symmetry_space_group_name_H-M "P -4 N 2"
_symmetry_group_IT_number 118
_symmetry_cell_setting 'tetragonal'
loop_
_space_group_symop_operation_xyz
x,y,z
y,-x,-z
-x,-y,z
-y,x,-z
1/2+y,1/2+x,1/2-z
1/2-y,1/2-x,1/2-z
1/2-x,1/2+y,1/2+z
1/2+x,1/2-y,1/2+z
loop_
_atom_site_type_symbol
_atom_site_label
_atom_site_fract_x
_atom_site_fract_y
_atom_site_fract_z
Si Si1 0.345404 0.806935 0.462233
Si Si2 0.886309 0.650299 0.807538
Si Si3 0.316632 0.511226 0.888547
Si Si4 0.009080 0.673014 0.069121
Si Si5 0.202082 0.103397 0.119371
O O1 0.270663 0.961882 0.440218
O O2 0.217705 0.676037 0.452269
O O3 0.395346 0.820615 0.520335
O O4 0.494005 0.758793 0.427593
O O5 0.830192 0.669809 0.750000
O O6 0.747788 0.608991 0.846078
O O7 0.000000 0.500000 0.808853
O O8 0.993617 0.783734 0.831436
O O9 0.500000 0.500000 0.892800
O O10 0.245999 0.677456 0.874643
O O11 0.956584 0.811483 0.106095
O O12 0.000000 0.500000 0.090832
#
# Coordination Sequence:
#
# PCOD9558496 Si02
#       5
#     8   8   8   8   8
#     4  11  22  37  54  76 114 157 202 238 292 365
#     4   8  16  34  61  86 110 148 200 253 310 374
#     4  10  20  37  56  83 117 149 194 253 306 359
#     4  12  23  36  53  81 113 157 204 248 297 360
#     4  10  20  36  58  81 113 156 199 248 295 361
#
# _framework density 20.444787000000002
#
# number of rings (size 3 to 8) (size 9 to 14) (size 15 to 20)
#    0.000    1.800    2.000    4.800    0.000    0.000 
#    0.000    4.000    0.000    0.000    0.000    9.800 
#    0.000    1.600    0.000    0.000    0.000    0.000 
#
# Total GULP energy -223435.358341 kJ/mol
# GULP energy per Si atom -5585.883959 kJ/mol
# Density = 2.039825 g / cm^3
# Si number density = 20.444787 Si / 1000 Ang^3
#
#
#
# Elastic Constant Matrix: (Units=GPa)
#
#
# Indices 1 2 3 4 5 6 
#
# 1 85.5305 14.3835 10.9906 0.0000 0.0000 0.0000
# 2 14.3835 85.5305 10.9906 0.0000 0.0000 0.0000
# 3 10.9906 10.9906 87.1610 0.0000 0.0000 0.0000
# 4 0.0000 0.0000 0.0000 16.7518 0.0000 0.0000
# 5 0.0000 0.0000 0.0000 0.0000 16.7518 0.0000
# 6 0.0000 0.0000 0.0000 0.0000 0.0000 28.8985
#
#
#
# Elastic Compliance Matrix: (Units=1/GPa)
#
#
# Indices 1 2 3 4 5 6 
#
# 1 0.012175 -0.001881 -0.001298 0.000000 0.000000 0.000000
# 2 -0.001881 0.012175 -0.001298 0.000000 0.000000 0.000000
# 3 -0.001298 -0.001298 0.011800 0.000000 0.000000 0.000000
# 4 0.000000 0.000000 0.000000 0.059695 0.000000 0.000000
# 5 0.000000 0.000000 0.000000 0.000000 0.059695 0.000000
# 6 0.000000 0.000000 0.000000 0.000000 0.000000 0.034604
#
#
# Mechanical properties :
#
#
# Convention : Reuss Voigt Hill
#
# Bulk Modulus (GPa) = 36.76935 36.77235 36.77085
# Shear Modulus (GPa) = 24.01965 27.27091 25.64528
#
# Velocity S-wave (km/s) = 3.43133 3.65620 3.54555
# Velocity P-wave (km/s) = 5.80711 5.98740 5.89794
#
# Compressibility (1/GPa) = 0.02719656
#
# Stress axis : x y z
#
# Youngs Moduli (GPa) = 82.13693 82.13690 84.74305
#
# Poissons Ratio (x) = 0.15447 0.11000
# Poissons Ratio (y) = 0.15447 0.11000
# Poissons Ratio (z) = 0.10662 0.10662
#
# Static dielectric constant tensor:
#      x y z
#    x 1.743920 0.000000 0.000000 
#    y 0.000000 1.743920 0.000000 
#    z 0.000000 0.000000 1.730250 
# 
# From -- ./inp_files/6446.got.cif
#   From: 2010.05.17/outbox.cif.g08.bks.cpg/sg118_4_cif.got.tgz:6446.got - 2010.05.20 11:17:24.
