data_PCOD9558350
_publ_section_title
;
Structure prediction by ZEFSAII (Michael W. Deem and Ramdas Pophale) SiO2 
 PCOD9558350
Probable space group: P -4 B 2
;
_chemical_formula_sum "Si O2"
_cell_formula_units_Z 40
_cell_length_a 13.930870
_cell_length_b 13.930870
_cell_length_c 9.331043
_cell_angle_alpha 90.000000
_cell_angle_beta 90.000000
_cell_angle_gamma 90.000000
_cell_volume 1810.867481
_symmetry_space_group_name_H-M "P -4 B 2"
_symmetry_group_IT_number 117
_symmetry_cell_setting 'tetragonal'
loop_
_space_group_symop_operation_xyz
x,y,z
y,-x,-z
-x,-y,z
-y,x,-z
1/2+y,1/2+x,-z
1/2-y,1/2-x,-z
1/2-x,1/2+y,z
1/2+x,1/2-y,z
loop_
_atom_site_type_symbol
_atom_site_label
_atom_site_fract_x
_atom_site_fract_y
_atom_site_fract_z
Si Si1 0.500000 0.500000 0.500000
Si Si2 0.795871 0.638033 0.749069
Si Si3 0.128690 0.829791 0.534887
Si Si4 0.212953 0.591324 0.764530
Si Si5 0.265511 0.234490 0.000000
Si Si6 0.000000 0.500000 0.500000
Si Si7 0.677811 0.988631 0.296725
O O1 0.439247 0.592383 0.448954
O O2 0.733139 0.667383 0.610286
O O3 0.798644 0.522802 0.756860
O O4 0.903847 0.681725 0.763019
O O5 0.740734 0.681886 0.883291
O O6 0.123839 0.774414 0.378746
O O7 0.053332 0.772751 0.634114
O O8 0.254637 0.637219 0.909020
O O9 0.104648 0.634514 0.781307
O O10 0.001267 0.401785 0.582635
#
# Coordination Sequence:
#
# PCOD9558350 Si02
#       7
#     2   8   8   8   4   2   8
#     4  12  28  44  72 118 148 208 244 314 384 460
#     4  12  28  49  79 111 150 199 252 316 377 452
#     4  12  26  48  79 112 151 192 254 319 375 454
#     4  12  26  52  73 111 149 197 258 309 378 443
#     4  12  32  46  70 108 158 206 240 304 374 462
#     4  12  20  40  72 126 136 180 230 336 396 412
#     4  12  24  44  78 113 147 186 250 320 383 440
#
# _framework density 22.08886
#
# number of rings (size 3 to 8) (size 9 to 14) (size 15 to 20)
#    0.000    0.000    8.000    0.000    5.600    1.600 
#    0.000    0.000    0.000    0.000    0.000    0.000 
#    0.000    0.000    0.000    0.000    0.000    0.000 
#
# Total GULP energy -222845.356678 kJ/mol
# GULP energy per Si atom -5571.133917 kJ/mol
# Density = 2.203858 g / cm^3
# Si number density = 22.088860 Si / 1000 Ang^3
#
#
#
# Elastic Constant Matrix: (Units=GPa)
#
#
# Indices 1 2 3 4 5 6 
#
# 1 137.1564 31.7974 47.6804 0.0000 0.0000 0.0000
# 2 31.7974 137.1555 47.6798 0.0000 0.0000 0.0000
# 3 47.6804 47.6798 107.8486 0.0000 0.0000 0.0000
# 4 0.0000 0.0000 0.0000 21.3089 0.0000 0.0000
# 5 0.0000 0.0000 0.0000 0.0000 21.3088 0.0000
# 6 0.0000 0.0000 0.0000 0.0000 0.0000 43.4575
#
#
#
# Elastic Compliance Matrix: (Units=1/GPa)
#
#
# Indices 1 2 3 4 5 6 
#
# 1 0.008689 -0.000802 -0.003487 0.000000 0.000000 0.000000
# 2 -0.000802 0.008689 -0.003487 0.000000 0.000000 0.000000
# 3 -0.003487 -0.003487 0.012355 0.000000 0.000000 0.000000
# 4 0.000000 0.000000 0.000000 0.046929 0.000000 0.000000
# 5 0.000000 0.000000 0.000000 0.000000 0.046929 0.000000
# 6 0.000000 0.000000 0.000000 0.000000 0.000000 0.023011
#
#
# Mechanical properties :
#
#
# Convention : Reuss Voigt Hill
#
# Bulk Modulus (GPa) = 70.51302 70.71953 70.61628
# Shear Modulus (GPa) = 29.96147 34.21523 32.08835
#
# Velocity S-wave (km/s) = 3.68694 3.93998 3.81556
# Velocity P-wave (km/s) = 7.07929 7.26522 7.17286
#
# Compressibility (1/GPa) = 0.01418178
#
# Stress axis : x y z
#
# Youngs Moduli (GPa) = 115.08704 115.08666 80.93717
#
# Poissons Ratio (x) = 0.09234 0.28221
# Poissons Ratio (y) = 0.09234 0.28221
# Poissons Ratio (z) = 0.40128 0.40128
#
# Static dielectric constant tensor:
#      x y z
#    x 1.947330 0.000000 0.000000 
#    y 0.000000 1.947330 0.000000 
#    z 0.000000 0.000000 1.840100 
# 
# From -- ./inp_files/1829.got.cif
#   From: 2010.05.17/outbox.cif.g08.bks.cpg/sg117_1_cif.got.tgz:1829.got - 2010.05.20 11:15:09.
