data_PCOD9558177
_publ_section_title
;
Structure prediction by ZEFSAII (Michael W. Deem and Ramdas Pophale) SiO2 
 PCOD9558177
Probable space group: P -4 B 2
;
_chemical_formula_sum "Si O2"
_cell_formula_units_Z 58
_cell_length_a 18.407227
_cell_length_b 18.407227
_cell_length_c 8.733302
_cell_angle_alpha 90.000000
_cell_angle_beta 90.000000
_cell_angle_gamma 90.000000
_cell_volume 2959.069834
_symmetry_space_group_name_H-M "P -4 B 2"
_symmetry_group_IT_number 117
_symmetry_cell_setting 'tetragonal'
loop_
_space_group_symop_operation_xyz
x,y,z
y,-x,-z
-x,-y,z
-y,x,-z
1/2+y,1/2+x,-z
1/2-y,1/2-x,-z
1/2-x,1/2+y,z
1/2+x,1/2-y,z
loop_
_atom_site_type_symbol
_atom_site_label
_atom_site_fract_x
_atom_site_fract_y
_atom_site_fract_z
Si Si1 0.919457 0.563381 0.763560
Si Si2 0.570986 0.411910 0.463344
Si Si3 0.139721 0.895845 0.853547
Si Si4 0.967814 0.359828 0.959776
Si Si5 0.718485 0.161832 0.705550
Si Si6 0.285267 0.371575 0.379902
Si Si7 0.000000 0.500000 0.500000
Si Si8 0.993357 0.801769 0.878265
O O1 0.856547 0.622629 0.746983
O O2 0.994447 0.603633 0.810367
O O3 0.933041 0.513830 0.615281
O O4 0.894025 0.513538 0.901917
O O5 0.495638 0.409506 0.554618
O O6 0.557182 0.375240 0.299584
O O7 0.631080 0.367541 0.557666
O O8 0.215035 0.853833 0.818815
O O9 0.068883 0.844635 0.855352
O O10 0.152199 0.943705 0.003780
O O11 0.982829 0.275002 0.950328
O O12 0.886857 0.386857 0.000000
O O13 0.697567 0.247069 0.698241
O O14 0.740907 0.127508 0.540629
O O15 0.283491 0.441498 0.268162
#
# Coordination Sequence:
#
# PCOD9558177 Si02
#       8
#     8   8   8   8   8   8   2   8
#     4  11  20  36  64  95 128 168 216 276 327 404
#     4  10  21  40  66  94 126 166 215 280 332 380
#     4  11  26  42  66  99 128 171 229 272 332 401
#     4  11  22  42  59  93 135 175 212 268 346 398
#     4  10  21  42  67  97 129 169 217 267 336 405
#     4  10  21  39  68  95 127 170 220 264 332 397
#     4  12  20  30  64 108 120 158 244 280 316 396
#     4  12  25  44  66  95 134 175 222 279 324 396
#
# _framework density 19.600752
#
# number of rings (size 3 to 8) (size 9 to 14) (size 15 to 20)
#    0.000    1.241    5.517    1.241    1.931    0.828 
#    2.483    0.000    0.000    3.310    0.000    0.000 
#    0.000    0.000    0.000    0.000    0.000    0.000 
#
# Total GULP energy -322947.007949 kJ/mol
# GULP energy per Si atom -5568.051861 kJ/mol
# Density = 1.955614 g / cm^3
# Si number density = 19.600752 Si / 1000 Ang^3
#
#
#
# Elastic Constant Matrix: (Units=GPa)
#
#
# Indices 1 2 3 4 5 6 
#
# 1 81.2583 39.8888 26.2958 0.0000 0.0000 0.0000
# 2 39.8888 81.2583 26.2958 0.0000 0.0000 0.0000
# 3 26.2958 26.2958 58.2191 0.0000 0.0000 0.0000
# 4 0.0000 0.0000 0.0000 23.8607 0.0000 0.0000
# 5 0.0000 0.0000 0.0000 0.0000 23.8607 0.0000
# 6 0.0000 0.0000 0.0000 0.0000 0.0000 20.6249
#
#
#
# Elastic Compliance Matrix: (Units=1/GPa)
#
#
# Indices 1 2 3 4 5 6 
#
# 1 0.017220 -0.006952 -0.004638 0.000000 0.000000 0.000000
# 2 -0.006952 0.017220 -0.004638 0.000000 0.000000 0.000000
# 3 -0.004638 -0.004638 0.021366 0.000000 0.000000 0.000000
# 4 0.000000 0.000000 0.000000 0.041910 0.000000 0.000000
# 5 0.000000 0.000000 0.000000 0.000000 0.041910 0.000000
# 6 0.000000 0.000000 0.000000 0.000000 0.000000 0.048485
#
#
# Mechanical properties :
#
#
# Convention : Reuss Voigt Hill
#
# Bulk Modulus (GPa) = 42.82514 45.07740 43.95127
# Shear Modulus (GPa) = 21.89625 22.21960 22.05793
#
# Velocity S-wave (km/s) = 3.34595 3.37056 3.35828
# Velocity P-wave (km/s) = 6.06822 6.18024 6.12449
#
# Compressibility (1/GPa) = 0.02335077
#
# Stress axis : x y z
#
# Youngs Moduli (GPa) = 58.07190 58.07190 46.80370
#
# Poissons Ratio (x) = 0.40374 0.21706
# Poissons Ratio (y) = 0.40374 0.21706
# Poissons Ratio (z) = 0.26931 0.26931
#
# Static dielectric constant tensor:
#      x y z
#    x 1.704590 0.000000 0.000000 
#    y 0.000000 1.704590 0.000000 
#    z 0.000000 0.000000 1.739180 
# 
# From -- ./inp_files/2088.got.cif
#   From: 2010.05.17/outbox.cif.g08.bks.cpg/sg117_2_cif.got.tgz:2088.got - 2010.05.20 11:15:09.
