data_PCOD9558131
_publ_section_title
;
Structure prediction by ZEFSAII (Michael W. Deem and Ramdas Pophale) SiO2 
 PCOD9558131
Probable space group: P -4 B 2
;
_chemical_formula_sum "Si O2"
_cell_formula_units_Z 40
_cell_length_a 16.363027
_cell_length_b 16.363027
_cell_length_c 7.369969
_cell_angle_alpha 90.000000
_cell_angle_beta 90.000000
_cell_angle_gamma 90.000000
_cell_volume 1973.299269
_symmetry_space_group_name_H-M "P -4 B 2"
_symmetry_group_IT_number 117
_symmetry_cell_setting 'tetragonal'
loop_
_space_group_symop_operation_xyz
x,y,z
y,-x,-z
-x,-y,z
-y,x,-z
1/2+y,1/2+x,-z
1/2-y,1/2-x,-z
1/2-x,1/2+y,z
1/2+x,1/2-y,z
loop_
_atom_site_type_symbol
_atom_site_label
_atom_site_fract_x
_atom_site_fract_y
_atom_site_fract_z
Si Si1 0.634466 0.000787 0.547261
Si Si2 0.274770 0.476445 0.265995
Si Si3 0.942690 0.317416 0.076044
Si Si4 0.304885 0.312896 0.094903
Si Si5 0.933130 0.086680 0.903164
O O1 0.579164 0.079164 0.500000
O O2 0.717458 0.000077 0.431752
O O3 0.578198 0.921803 0.500000
O O4 0.657156 0.998878 0.757989
O O5 0.284534 0.378977 0.247771
O O6 0.364308 0.518844 0.251643
O O7 0.228277 0.509982 0.085500
O O8 0.869386 0.258026 0.146154
O O9 0.897393 0.397393 0.000000
O O10 0.228046 0.271955 0.000000
O O11 0.351598 0.364616 0.941173
O O12 0.991303 0.089932 0.086167
#
# Coordination Sequence:
#
# PCOD9558131 Si02
#       5
#     8   8   8   8   8
#     4  11  24  39  57  89 121 161 211 243 309 384
#     4  10  20  37  60  87 123 157 205 260 302 369
#     4  10  20  40  61  81 119 165 200 254 312 361
#     4   9  19  33  57  90 120 159 204 246 316 370
#     4   8  15  32  59  87 114 157 210 253 302 368
#
# _framework density 20.270621999999999
#
# number of rings (size 3 to 8) (size 9 to 14) (size 15 to 20)
#    0.000    2.400    2.000    0.000    2.800    0.000 
#    0.000    9.000    0.000    0.000    0.000    8.400 
#    0.000    0.000    0.000    0.000    0.000    0.000 
#
# Total GULP energy -222912.768863 kJ/mol
# GULP energy per Si atom -5572.819222 kJ/mol
# Density = 2.022449 g / cm^3
# Si number density = 20.270622 Si / 1000 Ang^3
#
#
#
# Elastic Constant Matrix: (Units=GPa)
#
#
# Indices 1 2 3 4 5 6 
#
# 1 70.0650 30.4996 20.2422 0.0000 0.0000 0.0000
# 2 30.4996 70.0630 20.2429 0.0000 0.0000 0.0000
# 3 20.2422 20.2429 71.8862 0.0000 0.0000 0.0000
# 4 0.0000 0.0000 0.0000 20.1452 0.0000 0.0000
# 5 0.0000 0.0000 0.0000 0.0000 20.1447 0.0000
# 6 0.0000 0.0000 0.0000 0.0000 0.0000 42.5715
#
#
#
# Elastic Compliance Matrix: (Units=1/GPa)
#
#
# Indices 1 2 3 4 5 6 
#
# 1 0.018245 -0.007030 -0.003158 0.000000 0.000000 0.000000
# 2 -0.007030 0.018246 -0.003158 0.000000 0.000000 0.000000
# 3 -0.003158 -0.003158 0.015689 0.000000 0.000000 0.000000
# 4 0.000000 0.000000 0.000000 0.049640 0.000000 0.000000
# 5 0.000000 0.000000 0.000000 0.000000 0.049641 0.000000
# 6 0.000000 0.000000 0.000000 0.000000 0.000000 0.023490
#
#
# Mechanical properties :
#
#
# Convention : Reuss Voigt Hill
#
# Bulk Modulus (GPa) = 39.23474 39.33152 39.28313
# Shear Modulus (GPa) = 23.79381 25.97426 24.88404
#
# Velocity S-wave (km/s) = 3.42980 3.58351 3.50750
# Velocity P-wave (km/s) = 5.92303 6.04710 5.98538
#
# Compressibility (1/GPa) = 0.02548761
#
# Stress axis : x y z
#
# Youngs Moduli (GPa) = 54.80960 54.80764 63.73691
#
# Poissons Ratio (x) = 0.38529 0.20128
# Poissons Ratio (y) = 0.38531 0.20130
# Poissons Ratio (z) = 0.17309 0.17310
#
# Static dielectric constant tensor:
#      x y z
#    x 1.765850 0.000000 0.000000 
#    y 0.000000 1.765850 0.000000 
#    z 0.000000 0.000000 1.681670 
# 
# From -- ./inp_files/577.got.cif
#   From: 2010.05.17/outbox.cif.g08.bks.cpg/sg117_1_cif.got.tgz:577.got - 2010.05.20 11:15:09.
