data_PCOD9558154
_publ_section_title
;
Structure prediction by ZEFSAII (Michael W. Deem and Ramdas Pophale) SiO2 
 PCOD9558154
Probable space group: P -4 B 2
;
_chemical_formula_sum "Si O2"
_cell_formula_units_Z 22
_cell_length_a 10.686610
_cell_length_b 10.686610
_cell_length_c 7.780218
_cell_angle_alpha 90.000000
_cell_angle_beta 90.000000
_cell_angle_gamma 90.000000
_cell_volume 888.529163
_symmetry_space_group_name_H-M "P -4 B 2"
_symmetry_group_IT_number 117
_symmetry_cell_setting 'tetragonal'
loop_
_space_group_symop_operation_xyz
x,y,z
y,-x,-z
-x,-y,z
-y,x,-z
1/2+y,1/2+x,-z
1/2-y,1/2-x,-z
1/2-x,1/2+y,z
1/2+x,1/2-y,z
loop_
_atom_site_type_symbol
_atom_site_label
_atom_site_fract_x
_atom_site_fract_y
_atom_site_fract_z
Si Si1 0.630373 0.681188 0.748646
Si Si2 0.500000 0.000000 0.000000
Si Si3 0.638070 0.100984 0.298587
Si Si4 0.000000 0.000000 0.500000
Si Si5 0.500000 0.500000 0.000000
O O1 0.774009 0.719762 0.733187
O O2 0.527099 0.788083 0.733780
O O3 0.602104 0.579699 0.600762
O O4 0.592411 0.597744 0.909414
O O5 0.532909 0.105621 0.146378
O O6 0.599983 0.099983 0.500000
#
# Coordination Sequence:
#
# PCOD9558154 Si02
#       5
#     8   2   8   2   2
#     4  11  24  47  76 117 161 227 279 357 428 517
#     4  12  30  48  72 122 164 228 282 360 416 530
#     4  12  27  49  81 118 171 223 292 352 437 523
#     4  10  20  42  72 106 156 210 276 334 424 494
#     4  10  24  42  76 110 168 222 292 350 430 512
#
# _framework density 24.760017999999999
#
# number of rings (size 3 to 8) (size 9 to 14) (size 15 to 20)
#    0.000    0.727    3.636    2.727    0.000   13.091 
#    0.000    0.000    0.000    0.000    0.000    0.000 
#    0.000    0.000    0.000    0.000    0.000    0.000 
#
# Total GULP energy -122585.384932 kJ/mol
# GULP energy per Si atom -5572.062951 kJ/mol
# Density = 2.470366 g / cm^3
# Si number density = 24.760018 Si / 1000 Ang^3
#
#
#
# Elastic Constant Matrix: (Units=GPa)
#
#
# Indices 1 2 3 4 5 6 
#
# 1 138.6548 56.1249 40.9389 0.0000 0.0000 0.0000
# 2 56.1249 138.6548 40.9389 0.0000 0.0000 0.0000
# 3 40.9389 40.9389 150.2744 0.0000 0.0000 0.0000
# 4 0.0000 0.0000 0.0000 24.8155 0.0000 0.0000
# 5 0.0000 0.0000 0.0000 0.0000 24.8155 0.0000
# 6 0.0000 0.0000 0.0000 0.0000 0.0000 56.7856
#
#
#
# Elastic Compliance Matrix: (Units=1/GPa)
#
#
# Indices 1 2 3 4 5 6 
#
# 1 0.008957 -0.003159 -0.001580 0.000000 0.000000 0.000000
# 2 -0.003159 0.008957 -0.001580 0.000000 0.000000 0.000000
# 3 -0.001580 -0.001580 0.007515 0.000000 0.000000 0.000000
# 4 0.000000 0.000000 0.000000 0.040297 0.000000 0.000000
# 5 0.000000 0.000000 0.000000 0.000000 0.040297 0.000000
# 6 0.000000 0.000000 0.000000 0.000000 0.000000 0.017610
#
#
# Mechanical properties :
#
#
# Convention : Reuss Voigt Hill
#
# Bulk Modulus (GPa) = 78.16806 78.17658 78.17232
# Shear Modulus (GPa) = 35.57808 40.58875 38.08342
#
# Velocity S-wave (km/s) = 3.79478 4.05320 3.92612
# Velocity P-wave (km/s) = 7.13017 7.31757 7.22448
#
# Compressibility (1/GPa) = 0.01279295
#
# Stress axis : x y z
#
# Youngs Moduli (GPa) = 111.63955 111.63955 133.06532
#
# Poissons Ratio (x) = 0.35272 0.21018
# Poissons Ratio (y) = 0.35272 0.21018
# Poissons Ratio (z) = 0.17634 0.17634
#
# Static dielectric constant tensor:
#      x y z
#    x 1.965190 0.000000 0.000000 
#    y 0.000000 1.965190 0.000000 
#    z 0.000000 0.000000 2.073150 
# 
# From -- ./inp_files/1129.got.cif
#   From: 2010.05.17/outbox.cif.g08.bks.cpg/sg117_1_cif.got.tgz:1129.got - 2010.05.20 11:15:09.
