data_PCOD9558535
_publ_section_title
;
Structure prediction by ZEFSAII (Michael W. Deem and Ramdas Pophale) SiO2 
 PCOD9558535
Probable space group: P -4 N 2
;
_chemical_formula_sum "Si O2"
_cell_formula_units_Z 28
_cell_length_a 15.619520
_cell_length_b 15.619520
_cell_length_c 5.052580
_cell_angle_alpha 90.000000
_cell_angle_beta 90.000000
_cell_angle_gamma 90.000000
_cell_volume 1232.674936
_symmetry_space_group_name_H-M "P -4 N 2"
_symmetry_group_IT_number 118
_symmetry_cell_setting 'tetragonal'
loop_
_space_group_symop_operation_xyz
x,y,z
y,-x,-z
-x,-y,z
-y,x,-z
1/2+y,1/2+x,1/2-z
1/2-y,1/2-x,1/2-z
1/2-x,1/2+y,1/2+z
1/2+x,1/2-y,1/2+z
loop_
_atom_site_type_symbol
_atom_site_label
_atom_site_fract_x
_atom_site_fract_y
_atom_site_fract_z
Si Si1 0.005617 0.635274 0.157433
Si Si2 0.406410 0.720793 0.904686
Si Si3 0.079377 0.114170 0.935751
Si Si4 0.128954 0.371047 0.750000
O O1 0.935976 0.564025 0.250000
O O2 0.988123 0.725357 0.295778
O O3 0.094869 0.594869 0.250000
O O4 0.968650 0.642279 0.856850
O O5 0.420977 0.654763 0.144565
O O6 0.354081 0.799309 0.030855
O O7 0.370715 0.671709 0.649814
O O8 0.982676 0.110852 0.048955
#
# Coordination Sequence:
#
# PCOD9558535 Si02
#       4
#     8   8   8   4
#     4   9  19  34  60  93 127 168 204 249 292 382
#     4  11  21  39  66  92 128 159 208 265 319 376
#     4  11  24  43  68  91 116 164 228 278 312 360
#     4  10  20  39  62 100 130 172 204 249 314 398
#
# _framework density 22.714827
#
# number of rings (size 3 to 8) (size 9 to 14) (size 15 to 20)
#    0.000    1.714    2.857    1.714    0.000   11.429 
#    0.000    0.000   18.857    0.000    0.000    0.000 
#    0.000    0.000    0.000    0.000    0.000    0.000 
#
# Total GULP energy -155934.430758 kJ/mol
# GULP energy per Si atom -5569.086813 kJ/mol
# Density = 2.266313 g / cm^3
# Si number density = 22.714827 Si / 1000 Ang^3
#
#
#
# Elastic Constant Matrix: (Units=GPa)
#
#
# Indices 1 2 3 4 5 6 
#
# 1 73.9506 -13.2496 20.2235 0.0000 0.0000 0.0000
# 2 -13.2496 73.9516 20.2240 0.0000 0.0000 0.0000
# 3 20.2235 20.2240 135.8739 0.0000 0.0000 0.0000
# 4 0.0000 0.0000 0.0000 19.3565 0.0000 0.0000
# 5 0.0000 0.0000 0.0000 0.0000 19.3563 0.0000
# 6 0.0000 0.0000 0.0000 0.0000 0.0000 8.1127
#
#
#
# Elastic Compliance Matrix: (Units=1/GPa)
#
#
# Indices 1 2 3 4 5 6 
#
# 1 0.014878 0.003410 -0.002722 0.000000 0.000000 0.000000
# 2 0.003410 0.014878 -0.002722 0.000000 0.000000 0.000000
# 3 -0.002722 -0.002722 0.008170 0.000000 0.000000 0.000000
# 4 0.000000 0.000000 0.000000 0.051662 0.000000 0.000000
# 5 0.000000 0.000000 0.000000 0.000000 0.051663 0.000000
# 6 0.000000 0.000000 0.000000 0.000000 0.000000 0.123264
#
#
# Mechanical properties :
#
#
# Convention : Reuss Voigt Hill
#
# Bulk Modulus (GPa) = 29.53535 37.57464 33.55499
# Shear Modulus (GPa) = 17.86551 26.47030 22.16790
#
# Velocity S-wave (km/s) = 2.80753 3.41740 3.12736
# Velocity P-wave (km/s) = 4.85186 5.67003 5.27683
#
# Compressibility (1/GPa) = 0.03385774
#
# Stress axis : x y z
#
# Youngs Moduli (GPa) = 67.21375 67.21458 122.39811
#
# Poissons Ratio (x) = -0.22920 0.33317
# Poissons Ratio (y) = -0.22920 0.33317
# Poissons Ratio (z) = 0.18296 0.18296
#
# Static dielectric constant tensor:
#      x y z
#    x 1.901950 0.000000 0.000000 
#    y 0.000000 1.901950 0.000000 
#    z 0.000000 0.000000 2.064350 
# 
# From -- ./inp_files/436.got.cif
#   From: 2010.05.17/outbox.cif.g08.bks.cpg/sg118_1_cif.got.tgz:436.got - 2010.05.20 11:17:24.
