data_PCOD9558683
_publ_section_title
;
Structure prediction by ZEFSAII (Michael W. Deem and Ramdas Pophale) SiO2 
 PCOD9558683
Probable space group: P -4 N 2
;
_chemical_formula_sum "Si O2"
_cell_formula_units_Z 24
_cell_length_a 11.135243
_cell_length_b 11.135243
_cell_length_c 7.049938
_cell_angle_alpha 90.000000
_cell_angle_beta 90.000000
_cell_angle_gamma 90.000000
_cell_volume 874.147451
_symmetry_space_group_name_H-M "P -4 N 2"
_symmetry_group_IT_number 118
_symmetry_cell_setting 'tetragonal'
loop_
_space_group_symop_operation_xyz
x,y,z
y,-x,-z
-x,-y,z
-y,x,-z
1/2+y,1/2+x,1/2-z
1/2-y,1/2-x,1/2-z
1/2-x,1/2+y,1/2+z
1/2+x,1/2-y,1/2+z
loop_
_atom_site_type_symbol
_atom_site_label
_atom_site_fract_x
_atom_site_fract_y
_atom_site_fract_z
Si Si1 0.037165 0.363199 0.438459
Si Si2 0.203905 0.170122 0.506664
Si Si3 0.354580 0.598228 0.601904
O O1 0.114253 0.385748 0.250000
O O2 0.115925 0.276796 0.573553
O O3 0.000000 0.500000 0.499910
O O4 0.931301 0.271844 0.375192
O O5 0.322006 0.239801 0.436586
O O6 0.135894 0.104539 0.330315
O O7 0.466033 0.653357 0.485429
#
# Coordination Sequence:
#
# PCOD9558683 Si02
#       3
#     8   8   8
#     4  11  25  49  82 116 166 214 275 340 421 499
#     4  11  24  46  74 117 158 211 282 333 410 509
#     4  10  22  43  71 107 158 212 272 341 411 481
#
# _framework density 27.455324999999998
#
# number of rings (size 3 to 8) (size 9 to 14) (size 15 to 20)
#    0.000    1.333    3.333    2.000    4.667    6.000 
#    0.000   10.000    0.000    0.000    0.000    0.000 
#    0.000    0.000    0.000    0.000    0.000    0.000 
#
# Total GULP energy -133963.419442 kJ/mol
# GULP energy per Si atom -5581.809143 kJ/mol
# Density = 2.739284 g / cm^3
# Si number density = 27.455325 Si / 1000 Ang^3
#
#
#
# Elastic Constant Matrix: (Units=GPa)
#
#
# Indices 1 2 3 4 5 6 
#
# 1 152.0870 72.8382 48.5464 0.0000 0.0000 0.0000
# 2 72.8382 152.0875 48.5465 0.0000 0.0000 0.0000
# 3 48.5464 48.5465 117.6721 0.0000 0.0000 0.0000
# 4 0.0000 0.0000 0.0000 38.1251 0.0000 0.0000
# 5 0.0000 0.0000 0.0000 0.0000 38.1250 0.0000
# 6 0.0000 0.0000 0.0000 0.0000 0.0000 101.4627
#
#
#
# Elastic Compliance Matrix: (Units=1/GPa)
#
#
# Indices 1 2 3 4 5 6 
#
# 1 0.009014 -0.003605 -0.002232 0.000000 0.000000 0.000000
# 2 -0.003605 0.009014 -0.002232 0.000000 0.000000 0.000000
# 3 -0.002232 -0.002232 0.010340 0.000000 0.000000 0.000000
# 4 0.000000 0.000000 0.000000 0.026229 0.000000 0.000000
# 5 0.000000 0.000000 0.000000 0.000000 0.026230 0.000000
# 6 0.000000 0.000000 0.000000 0.000000 0.000000 0.009856
#
#
# Mechanical properties :
#
#
# Convention : Reuss Voigt Hill
#
# Bulk Modulus (GPa) = 81.75592 84.63430 83.19511
# Shear Modulus (GPa) = 45.08775 52.33692 48.71233
#
# Velocity S-wave (km/s) = 4.05683 4.37081 4.21674
# Velocity P-wave (km/s) = 7.19627 7.50767 7.35362
#
# Compressibility (1/GPa) = 0.01223153
#
# Stress axis : x y z
#
# Youngs Moduli (GPa) = 110.94037 110.94072 96.71618
#
# Poissons Ratio (x) = 0.39990 0.21583
# Poissons Ratio (y) = 0.39990 0.21583
# Poissons Ratio (z) = 0.24758 0.24758
#
# Static dielectric constant tensor:
#      x y z
#    x 2.180080 0.000000 0.000000 
#    y 0.000000 2.180080 0.000000 
#    z 0.000000 0.000000 2.197840 
# 
# From -- ./inp_files/1349.got.cif
#   From: 2010.05.17/outbox.cif.g08.bks.cpg/sg118_1_cif.got.tgz:1349.got - 2010.05.20 11:17:24.
