data_PCOD9558828
_publ_section_title
;
Structure prediction by ZEFSAII (Michael W. Deem and Ramdas Pophale) SiO2 
 PCOD9558828
Probable space group: P -4 N 2
;
_chemical_formula_sum "Si O2"
_cell_formula_units_Z 48
_cell_length_a 8.766802
_cell_length_b 8.766802
_cell_length_c 29.292706
_cell_angle_alpha 90.000000
_cell_angle_beta 90.000000
_cell_angle_gamma 90.000000
_cell_volume 2251.344153
_symmetry_space_group_name_H-M "P -4 N 2"
_symmetry_group_IT_number 118
_symmetry_cell_setting 'tetragonal'
loop_
_space_group_symop_operation_xyz
x,y,z
y,-x,-z
-x,-y,z
-y,x,-z
1/2+y,1/2+x,1/2-z
1/2-y,1/2-x,1/2-z
1/2-x,1/2+y,1/2+z
1/2+x,1/2-y,1/2+z
loop_
_atom_site_type_symbol
_atom_site_label
_atom_site_fract_x
_atom_site_fract_y
_atom_site_fract_z
Si Si1 0.880460 0.872510 0.140381
Si Si2 0.129148 0.213383 0.988480
Si Si3 0.090031 0.338963 0.428774
Si Si4 0.084019 0.661890 0.200123
Si Si5 0.367509 0.602452 0.135266
Si Si6 0.638837 0.084346 0.103532
O O1 0.859485 0.736551 0.104385
O O2 0.962053 0.792255 0.184615
O O3 0.724688 0.972885 0.139340
O O4 0.000000 0.000000 0.124440
O O5 0.141362 0.246396 0.935194
O O6 0.194152 0.344543 0.021082
O O7 0.949105 0.201144 0.999587
O O8 0.000000 0.500000 0.428390
O O9 0.989503 0.203442 0.407448
O O10 0.161723 0.661723 0.250000
O O11 0.221073 0.649010 0.164712
O O12 0.000000 0.500000 0.197285
O O13 0.500000 0.500000 0.157067
O O14 0.436066 0.765698 0.124099
O O15 0.500000 0.000000 0.079202
#
# Coordination Sequence:
#
# PCOD9558828 Si02
#       6
#     8   8   8   8   8   8
#     4  12  20  41  71  95 130 177 224 275 340 416
#     4  11  23  37  64  99 132 175 238 288 328 399
#     4  12  21  40  65  93 131 183 228 277 339 405
#     4  11  24  44  74 105 129 171 229 283 344 427
#     4  12  25  45  67  95 141 179 222 283 358 417
#     4  12  26  42  66 100 135 181 231 287 346 413
#
# _framework density 21.320595999999998
#
# number of rings (size 3 to 8) (size 9 to 14) (size 15 to 20)
#    0.000    0.333    6.667    3.500    0.000    0.667 
#    0.000    0.000    0.000    0.500    0.000    0.000 
#    0.000    0.000    0.000    0.000    0.000    0.000 
#
# Total GULP energy -267935.018993 kJ/mol
# GULP energy per Si atom -5581.979562 kJ/mol
# Density = 2.127207 g / cm^3
# Si number density = 21.320596 Si / 1000 Ang^3
#
#
#
# Elastic Constant Matrix: (Units=GPa)
#
#
# Indices 1 2 3 4 5 6 
#
# 1 81.6310 15.8057 8.8026 0.0000 0.0000 0.0000
# 2 15.8057 81.6310 8.8026 0.0000 0.0000 0.0000
# 3 8.8026 8.8026 73.3393 0.0000 0.0000 0.0000
# 4 0.0000 0.0000 0.0000 0.7081 0.0000 0.0000
# 5 0.0000 0.0000 0.0000 0.0000 0.7081 0.0000
# 6 0.0000 0.0000 0.0000 0.0000 0.0000 42.1930
#
#
#
# Elastic Compliance Matrix: (Units=1/GPa)
#
#
# Indices 1 2 3 4 5 6 
#
# 1 0.012841 -0.002351 -0.001259 0.000000 0.000000 0.000000
# 2 -0.002351 0.012841 -0.001259 0.000000 0.000000 0.000000
# 3 -0.001259 -0.001259 0.013938 0.000000 0.000000 0.000000
# 4 0.000000 0.000000 0.000000 1.412323 0.000000 0.000000
# 5 0.000000 0.000000 0.000000 0.000000 1.412323 0.000000
# 6 0.000000 0.000000 0.000000 0.000000 0.000000 0.023701
#
#
# Mechanical properties :
#
#
# Convention : Reuss Voigt Hill
#
# Bulk Modulus (GPa) = 33.46483 33.71367 33.58925
# Shear Modulus (GPa) = 1.71959 22.26785 11.99372
#
# Velocity S-wave (km/s) = 0.89905 3.23527 2.37437
# Velocity P-wave (km/s) = 4.09973 5.45921 4.82757
#
# Compressibility (1/GPa) = 0.02988212
#
# Stress axis : x y z
#
# Youngs Moduli (GPa) = 77.87465 77.87465 71.74883
#
# Poissons Ratio (x) = 0.18305 0.09034
# Poissons Ratio (y) = 0.18305 0.09034
# Poissons Ratio (z) = 0.09805 0.09805
#
# Static dielectric constant tensor:
#      x y z
#    x 1.875050 0.000000 0.000000 
#    y 0.000000 1.875050 0.000000 
#    z 0.000000 0.000000 1.787060 
# 
# From -- ./inp_files/6850.got.cif
#   From: 2010.05.17/outbox.cif.g08.bks.cpg/sg118_4_cif.got.tgz:6850.got - 2010.05.20 11:17:24.
