data_PCOD9558054
_publ_section_title
;
Structure prediction by ZEFSAII (Michael W. Deem and Ramdas Pophale) SiO2 
 PCOD9558054
Probable space group: P -4 B 2
;
_chemical_formula_sum "Si O2"
_cell_formula_units_Z 48
_cell_length_a 13.320412
_cell_length_b 13.320412
_cell_length_c 10.807449
_cell_angle_alpha 90.000000
_cell_angle_beta 90.000000
_cell_angle_gamma 90.000000
_cell_volume 1917.602160
_symmetry_space_group_name_H-M "P -4 B 2"
_symmetry_group_IT_number 117
_symmetry_cell_setting 'tetragonal'
loop_
_space_group_symop_operation_xyz
x,y,z
y,-x,-z
-x,-y,z
-y,x,-z
1/2+y,1/2+x,-z
1/2-y,1/2-x,-z
1/2-x,1/2+y,z
1/2+x,1/2-y,z
loop_
_atom_site_type_symbol
_atom_site_label
_atom_site_fract_x
_atom_site_fract_y
_atom_site_fract_z
Si Si1 0.998341 0.302023 0.098263
Si Si2 0.282213 0.721954 0.139476
Si Si3 0.037978 0.895708 0.219231
Si Si4 0.459785 0.154126 0.824955
Si Si5 0.653836 0.321977 0.381931
Si Si6 0.041938 0.231324 0.619541
O O1 0.941255 0.195564 0.124718
O O2 0.938690 0.382721 0.181504
O O3 0.110551 0.271077 0.124157
O O4 0.003535 0.347291 0.961396
O O5 0.256994 0.604863 0.159237
O O6 0.272857 0.741897 0.290235
O O7 0.237565 0.737565 0.000000
O O8 0.947175 0.858106 0.307469
O O9 0.136259 0.922224 0.297724
O O10 0.000000 0.000000 0.159569
O O11 0.531326 0.172925 0.710395
O O12 0.707635 0.425974 0.421259
O O13 0.609543 0.264859 0.498881
#
# Coordination Sequence:
#
# PCOD9558054 Si02
#       6
#     8   8   8   8   8   8
#     4  10  21  39  55  84 121 162 213 259 331 396
#     4  10  20  38  59  81 119 169 206 266 322 387
#     4   9  18  31  53  86 118 154 202 259 326 404
#     4  10  22  37  57  82 125 165 204 272 327 395
#     4   9  17  30  54  85 124 169 206 258 333 413
#     4  10  17  30  55  84 124 171 201 267 337 403
#
# _framework density 25.03126
#
# number of rings (size 3 to 8) (size 9 to 14) (size 15 to 20)
#    0.000    2.333    3.333    1.000    2.333    0.000 
#    0.000    5.000    0.000    3.000    0.000    0.000 
#    0.000   21.333    0.000    0.000    0.000    0.000 
#
# Total GULP energy -267224.803009 kJ/mol
# GULP energy per Si atom -5567.183396 kJ/mol
# Density = 2.497429 g / cm^3
# Si number density = 25.031260 Si / 1000 Ang^3
#
#
#
# Elastic Constant Matrix: (Units=GPa)
#
#
# Indices 1 2 3 4 5 6 
#
# 1 80.4738 29.1123 38.2144 0.0000 0.0000 0.0000
# 2 29.1123 80.4738 38.2144 0.0000 0.0000 0.0000
# 3 38.2144 38.2144 165.9497 0.0000 0.0000 0.0000
# 4 0.0000 0.0000 0.0000 37.5399 0.0000 0.0000
# 5 0.0000 0.0000 0.0000 0.0000 37.5399 0.0000
# 6 0.0000 0.0000 0.0000 0.0000 0.0000 54.1806
#
#
#
# Elastic Compliance Matrix: (Units=1/GPa)
#
#
# Indices 1 2 3 4 5 6 
#
# 1 0.015171 -0.004299 -0.002503 0.000000 0.000000 0.000000
# 2 -0.004299 0.015171 -0.002503 0.000000 0.000000 0.000000
# 3 -0.002503 -0.002503 0.007179 0.000000 0.000000 0.000000
# 4 0.000000 0.000000 0.000000 0.026638 0.000000 0.000000
# 5 0.000000 0.000000 0.000000 0.000000 0.026638 0.000000
# 6 0.000000 0.000000 0.000000 0.000000 0.000000 0.018457
#
#
# Mechanical properties :
#
#
# Convention : Reuss Voigt Hill
#
# Bulk Modulus (GPa) = 52.88853 59.77553 56.33203
# Shear Modulus (GPa) = 37.26668 40.60916 38.93792
#
# Velocity S-wave (km/s) = 3.86269 4.03219 3.94835
# Velocity P-wave (km/s) = 6.40849 6.75354 6.58328
#
# Compressibility (1/GPa) = 0.01890769
#
# Stress axis : x y z
#
# Youngs Moduli (GPa) = 65.91734 65.91734 139.29776
#
# Poissons Ratio (x) = 0.28340 0.34872
# Poissons Ratio (y) = 0.28340 0.34872
# Poissons Ratio (z) = 0.16502 0.16502
#
# Static dielectric constant tensor:
#      x y z
#    x 2.063660 0.000000 0.000000 
#    y 0.000000 2.063660 0.000000 
#    z 0.000000 0.000000 2.080790 
# 
# From -- ./inp_files/2796.got.cif
#   From: 2010.05.17/outbox.cif.g08.bks.cpg/sg117_2_cif.got.tgz:2796.got - 2010.05.20 11:15:09.
