data_PCOD9558597
_publ_section_title
;
Structure prediction by ZEFSAII (Michael W. Deem and Ramdas Pophale) SiO2 
 PCOD9558597
Probable space group: P -4 N 2
;
_chemical_formula_sum "Si O2"
_cell_formula_units_Z 42
_cell_length_a 14.512293
_cell_length_b 14.512293
_cell_length_c 8.301832
_cell_angle_alpha 90.000000
_cell_angle_beta 90.000000
_cell_angle_gamma 90.000000
_cell_volume 1748.421011
_symmetry_space_group_name_H-M "P -4 N 2"
_symmetry_group_IT_number 118
_symmetry_cell_setting 'tetragonal'
loop_
_space_group_symop_operation_xyz
x,y,z
y,-x,-z
-x,-y,z
-y,x,-z
1/2+y,1/2+x,1/2-z
1/2-y,1/2-x,1/2-z
1/2-x,1/2+y,1/2+z
1/2+x,1/2-y,1/2+z
loop_
_atom_site_type_symbol
_atom_site_label
_atom_site_fract_x
_atom_site_fract_y
_atom_site_fract_z
Si Si1 0.736166 0.068263 0.046393
Si Si2 0.042775 0.405315 0.434399
Si Si3 0.500000 0.500000 0.500000
Si Si4 0.873706 0.909835 0.510398
Si Si5 0.569403 0.790527 0.165876
Si Si6 0.908478 0.172868 0.138051
O O1 0.817324 0.143933 0.039223
O O2 0.732204 0.016133 0.217295
O O3 0.639726 0.115587 0.015350
O O4 0.750503 0.979474 0.926124
O O5 0.070273 0.429728 0.250000
O O6 0.000000 0.500000 0.502015
O O7 0.970006 0.330158 0.496277
O O8 0.581646 0.470206 0.385520
O O9 0.805893 0.880051 0.368138
O O10 0.826428 0.880664 0.677195
O O11 0.978249 0.876978 0.495188
O O12 0.635398 0.864602 0.250000
#
# Coordination Sequence:
#
# PCOD9558597 Si02
#       6
#     8   8   2   8   8   8
#     4  11  23  43  70 102 137 181 222 291 350 420
#     4  11  24  46  74  95 129 181 235 278 343 424
#     4   8  16  32  66  92 132 184 214 268 344 428
#     4  11  23  42  70 101 141 185 236 289 356 421
#     4  12  25  46  69 104 139 185 236 288 352 421
#     4  10  21  39  65 102 138 171 231 279 352 416
#
# _framework density 24.021673
#
# number of rings (size 3 to 8) (size 9 to 14) (size 15 to 20)
#    0.000    1.143    3.810    2.857    5.333    0.000 
#    3.429    0.000    0.000    0.000    0.000    0.000 
#    0.000    0.000    0.000    0.000    0.000    0.000 
#
# Total GULP energy -234607.019644 kJ/mol
# GULP energy per Si atom -5585.881420 kJ/mol
# Density = 2.396700 g / cm^3
# Si number density = 24.021673 Si / 1000 Ang^3
#
#
#
# Elastic Constant Matrix: (Units=GPa)
#
#
# Indices 1 2 3 4 5 6 
#
# 1 73.0910 17.9872 3.9362 0.0000 0.0000 0.0000
# 2 17.9872 73.0891 3.9364 0.0000 0.0000 0.0000
# 3 3.9362 3.9364 75.0653 0.0000 0.0000 0.0000
# 4 0.0000 0.0000 0.0000 24.2156 0.0000 0.0000
# 5 0.0000 0.0000 0.0000 0.0000 24.2155 0.0000
# 6 0.0000 0.0000 0.0000 0.0000 0.0000 21.4979
#
#
#
# Elastic Compliance Matrix: (Units=1/GPa)
#
#
# Indices 1 2 3 4 5 6 
#
# 1 0.014589 -0.003559 -0.000578 0.000000 0.000000 0.000000
# 2 -0.003559 0.014589 -0.000578 0.000000 0.000000 0.000000
# 3 -0.000578 -0.000578 0.013382 0.000000 0.000000 0.000000
# 4 0.000000 0.000000 0.000000 0.041296 0.000000 0.000000
# 5 0.000000 0.000000 0.000000 0.000000 0.041296 0.000000
# 6 0.000000 0.000000 0.000000 0.000000 0.000000 0.046516
#
#
# Mechanical properties :
#
#
# Convention : Reuss Voigt Hill
#
# Bulk Modulus (GPa) = 30.18570 30.32943 30.25756
# Shear Modulus (GPa) = 26.02243 27.01153 26.51698
#
# Velocity S-wave (km/s) = 3.29491 3.35694 3.32607
# Velocity P-wave (km/s) = 5.20274 5.26105 5.23198
#
# Compressibility (1/GPa) = 0.03312827
#
# Stress axis : x y z
#
# Youngs Moduli (GPa) = 68.54674 68.54494 74.72501
#
# Poissons Ratio (x) = 0.24396 0.04322
# Poissons Ratio (y) = 0.24396 0.04322
# Poissons Ratio (z) = 0.03964 0.03965
#
# Static dielectric constant tensor:
#      x y z
#    x 1.901050 0.000000 0.000000 
#    y 0.000000 1.901050 0.000000 
#    z 0.000000 0.000000 2.045470 
# 
# From -- ./inp_files/1919.got.cif
#   From: 2010.05.17/outbox.cif.g08.bks.cpg/sg118_1_cif.got.tgz:1919.got - 2010.05.20 11:17:24.
