data_PCOD9558676
_publ_section_title
;
Structure prediction by ZEFSAII (Michael W. Deem and Ramdas Pophale) SiO2 
 PCOD9558676
Probable space group: P -4 N 2
;
_chemical_formula_sum "Si O2"
_cell_formula_units_Z 30
_cell_length_a 10.427451
_cell_length_b 10.427451
_cell_length_c 10.965706
_cell_angle_alpha 90.000000
_cell_angle_beta 90.000000
_cell_angle_gamma 90.000000
_cell_volume 1192.320232
_symmetry_space_group_name_H-M "P -4 N 2"
_symmetry_group_IT_number 118
_symmetry_cell_setting 'tetragonal'
loop_
_space_group_symop_operation_xyz
x,y,z
y,-x,-z
-x,-y,z
-y,x,-z
1/2+y,1/2+x,1/2-z
1/2-y,1/2-x,1/2-z
1/2-x,1/2+y,1/2+z
1/2+x,1/2-y,1/2+z
loop_
_atom_site_type_symbol
_atom_site_label
_atom_site_fract_x
_atom_site_fract_y
_atom_site_fract_z
Si Si1 0.786720 0.503090 0.525343
Si Si2 0.500000 0.500000 0.500000
Si Si3 0.655848 0.257674 0.866809
Si Si4 0.360406 0.860406 0.250000
Si Si5 0.262008 0.628927 0.092979
O O1 0.637513 0.496098 0.564489
O O2 0.813074 0.629466 0.444918
O O3 0.859420 0.526636 0.651688
O O4 0.823337 0.381613 0.442543
O O5 0.745197 0.245197 0.750000
O O6 0.505555 0.255479 0.838853
O O7 0.679855 0.376072 0.956704
O O8 0.344024 0.729889 0.170284
#
# Coordination Sequence:
#
# PCOD9558676 Si02
#       5
#     8   2   8   4   8
#     4  11  23  43  70 100 132 180 239 293 356 433
#     4  12  20  44  76 100 130 180 248 292 352 426
#     4  11  25  43  68  99 137 186 232 293 366 436
#     4  10  22  42  70  96 132 180 234 296 347 429
#     4  11  24  44  66 102 138 181 239 291 358 444
#
# _framework density 25.161027000000001
#
# number of rings (size 3 to 8) (size 9 to 14) (size 15 to 20)
#    0.000    1.067    5.333    2.400    0.000    5.867 
#    0.000    5.333    0.000    0.000    0.000    0.000 
#    0.000    0.000    0.000    0.000    0.000    0.000 
#
# Total GULP energy -167700.045453 kJ/mol
# GULP energy per Si atom -5590.001515 kJ/mol
# Density = 2.510376 g / cm^3
# Si number density = 25.161027 Si / 1000 Ang^3
#
#
#
# Elastic Constant Matrix: (Units=GPa)
#
#
# Indices 1 2 3 4 5 6 
#
# 1 86.8478 6.7577 -1.6291 0.0000 0.0000 0.0000
# 2 6.7577 86.8478 -1.6291 0.0000 0.0000 0.0000
# 3 -1.6291 -1.6291 103.1888 0.0000 0.0000 0.0000
# 4 0.0000 0.0000 0.0000 14.9524 0.0000 0.0000
# 5 0.0000 0.0000 0.0000 0.0000 14.9524 0.0000
# 6 0.0000 0.0000 0.0000 0.0000 0.0000 25.5361
#
#
#
# Elastic Compliance Matrix: (Units=1/GPa)
#
#
# Indices 1 2 3 4 5 6 
#
# 1 0.011587 -0.000898 0.000169 0.000000 0.000000 0.000000
# 2 -0.000898 0.011587 0.000169 0.000000 0.000000 0.000000
# 3 0.000169 0.000169 0.009696 0.000000 0.000000 0.000000
# 4 0.000000 0.000000 0.000000 0.066879 0.000000 0.000000
# 5 0.000000 0.000000 0.000000 0.000000 0.066879 0.000000
# 6 0.000000 0.000000 0.000000 0.000000 0.000000 0.039160
#
#
# Mechanical properties :
#
#
# Convention : Reuss Voigt Hill
#
# Bulk Modulus (GPa) = 31.49675 31.54262 31.51968
# Shear Modulus (GPa) = 22.98906 29.31381 26.15143
#
# Velocity S-wave (km/s) = 3.02599 3.41698 3.22741
# Velocity P-wave (km/s) = 4.97534 5.30389 5.14224
#
# Compressibility (1/GPa) = 0.03174931
#
# Stress axis : x y z
#
# Youngs Moduli (GPa) = 86.30012 86.30012 103.13207
#
# Poissons Ratio (x) = 0.07754 -0.01740
# Poissons Ratio (y) = 0.07754 -0.01740
# Poissons Ratio (z) = -0.01456 -0.01456
#
# Static dielectric constant tensor:
#      x y z
#    x 2.009770 0.000000 0.000000 
#    y 0.000000 2.009770 0.000000 
#    z 0.000000 0.000000 2.007330 
# 
# From -- ./inp_files/2813.got.cif
#   From: 2010.05.17/outbox.cif.g08.bks.cpg/sg118_2_cif.got.tgz:2813.got - 2010.05.20 11:17:24.
