data_PCOD9558296
_publ_section_title
;
Structure prediction by ZEFSAII (Michael W. Deem and Ramdas Pophale) SiO2 
 PCOD9558296
Probable space group: P -4 B 2
;
_chemical_formula_sum "Si O2"
_cell_formula_units_Z 40
_cell_length_a 14.322986
_cell_length_b 14.322986
_cell_length_c 8.751719
_cell_angle_alpha 90.000000
_cell_angle_beta 90.000000
_cell_angle_gamma 90.000000
_cell_volume 1795.397019
_symmetry_space_group_name_H-M "P -4 B 2"
_symmetry_group_IT_number 117
_symmetry_cell_setting 'tetragonal'
loop_
_space_group_symop_operation_xyz
x,y,z
y,-x,-z
-x,-y,z
-y,x,-z
1/2+y,1/2+x,-z
1/2-y,1/2-x,-z
1/2-x,1/2+y,z
1/2+x,1/2-y,z
loop_
_atom_site_type_symbol
_atom_site_label
_atom_site_fract_x
_atom_site_fract_y
_atom_site_fract_z
Si Si1 0.134726 0.234729 0.897739
Si Si2 0.831379 0.548814 0.389782
Si Si3 0.359245 0.470034 0.563058
Si Si4 0.475173 0.288110 0.138184
Si Si5 0.914048 0.427421 0.822963
O O1 0.117147 0.297571 0.747511
O O2 0.174839 0.130617 0.875145
O O3 0.206172 0.293829 0.000000
O O4 0.035491 0.223099 0.984916
O O5 0.913470 0.586531 0.500000
O O6 0.741327 0.543555 0.494003
O O7 0.855679 0.451978 0.302960
O O8 0.396060 0.569926 0.506496
O O9 0.355522 0.470047 0.745748
O O10 0.469682 0.185785 0.215387
O O11 0.000000 0.500000 0.827922
O O12 0.897687 0.397687 0.000000
#
# Coordination Sequence:
#
# PCOD9558296 Si02
#       5
#     8   8   8   8   8
#     4  12  27  48  76 116 154 201 259 323 385 465
#     4  12  26  47  75 112 150 197 251 323 385 463
#     4  11  26  47  69 101 150 197 246 309 382 460
#     4  12  27  47  77 112 152 206 257 322 387 469
#     4  11  23  43  72 106 145 192 247 311 380 448
#
# _framework density 22.279195999999999
#
# number of rings (size 3 to 8) (size 9 to 14) (size 15 to 20)
#    0.000    0.400    4.000    4.200    2.800    4.800 
#    0.000    0.000    0.000    0.000    0.000    0.000 
#    0.000    0.000    0.000    0.000    0.000    0.000 
#
# Total GULP energy -223634.555167 kJ/mol
# GULP energy per Si atom -5590.863879 kJ/mol
# Density = 2.222849 g / cm^3
# Si number density = 22.279196 Si / 1000 Ang^3
#
#
#
# Elastic Constant Matrix: (Units=GPa)
#
#
# Indices 1 2 3 4 5 6 
#
# 1 87.6751 -1.5903 18.2083 0.0000 0.0000 0.0000
# 2 -1.5903 87.6831 18.2110 0.0000 0.0000 0.0000
# 3 18.2083 18.2110 121.9375 0.0000 0.0000 0.0000
# 4 0.0000 0.0000 0.0000 22.9122 0.0000 0.0000
# 5 0.0000 0.0000 0.0000 0.0000 22.9130 0.0000
# 6 0.0000 0.0000 0.0000 0.0000 0.0000 50.1770
#
#
#
# Elastic Compliance Matrix: (Units=1/GPa)
#
#
# Indices 1 2 3 4 5 6 
#
# 1 0.011801 0.000599 -0.001852 0.000000 0.000000 0.000000
# 2 0.000599 0.011800 -0.001852 0.000000 0.000000 0.000000
# 3 -0.001852 -0.001852 0.008754 0.000000 0.000000 0.000000
# 4 0.000000 0.000000 0.000000 0.043645 0.000000 0.000000
# 5 0.000000 0.000000 0.000000 0.000000 0.043643 0.000000
# 6 0.000000 0.000000 0.000000 0.000000 0.000000 0.019929
#
#
# Mechanical properties :
#
#
# Convention : Reuss Voigt Hill
#
# Bulk Modulus (GPa) = 38.24703 40.77265 39.50984
# Shear Modulus (GPa) = 32.36296 36.69822 34.53059
#
# Velocity S-wave (km/s) = 3.81545 4.06297 3.94115
# Velocity P-wave (km/s) = 6.05100 6.35223 6.20344
#
# Compressibility (1/GPa) = 0.02614582
#
# Stress axis : x y z
#
# Youngs Moduli (GPa) = 84.73759 84.74474 114.23407
#
# Poissons Ratio (x) = -0.05073 0.21152
# Poissons Ratio (y) = -0.05072 0.21153
# Poissons Ratio (z) = 0.15690 0.15692
#
# Static dielectric constant tensor:
#      x y z
#    x 1.829150 0.000000 0.000000 
#    y 0.000000 1.829160 0.000000 
#    z 0.000000 0.000000 1.824340 
# 
# From -- ./inp_files/1702.got.cif
#   From: 2010.05.17/outbox.cif.g08.bks.cpg/sg117_1_cif.got.tgz:1702.got - 2010.05.20 11:15:09.
