data_PCOD9558819
_publ_section_title
;
Structure prediction by ZEFSAII (Michael W. Deem and Ramdas Pophale) SiO2 
 PCOD9558819
Probable space group: P -4 N 2
;
_chemical_formula_sum "Si O2"
_cell_formula_units_Z 54
_cell_length_a 14.202180
_cell_length_b 14.202180
_cell_length_c 11.502770
_cell_angle_alpha 90.000000
_cell_angle_beta 90.000000
_cell_angle_gamma 90.000000
_cell_volume 2320.130757
_symmetry_space_group_name_H-M "P -4 N 2"
_symmetry_group_IT_number 118
_symmetry_cell_setting 'tetragonal'
loop_
_space_group_symop_operation_xyz
x,y,z
y,-x,-z
-x,-y,z
-y,x,-z
1/2+y,1/2+x,1/2-z
1/2-y,1/2-x,1/2-z
1/2-x,1/2+y,1/2+z
1/2+x,1/2-y,1/2+z
loop_
_atom_site_type_symbol
_atom_site_label
_atom_site_fract_x
_atom_site_fract_y
_atom_site_fract_z
Si Si1 0.686375 0.038096 0.296255
Si Si2 0.747310 0.186688 0.919578
Si Si3 0.558741 0.387476 0.684585
Si Si4 0.673155 0.826846 0.250000
Si Si5 0.349994 0.415159 0.636763
Si Si6 0.624354 0.488098 0.069516
Si Si7 0.330425 0.975731 0.569040
Si Si8 0.500000 0.000000 0.750000
O O1 0.604014 0.104014 0.250000
O O2 0.784153 0.085905 0.251589
O O3 0.660173 0.014691 0.429496
O O4 0.690267 0.936962 0.235510
O O5 0.793665 0.118331 0.824183
O O6 0.779239 0.287327 0.868481
O O7 0.636356 0.183090 0.920491
O O8 0.790985 0.139077 0.036642
O O9 0.452937 0.368546 0.641631
O O10 0.614180 0.474688 0.624153
O O11 0.541859 0.412327 0.817303
O O12 0.732940 0.470410 0.092541
O O13 0.565033 0.397778 0.030649
O O14 0.411344 0.002268 0.660660
#
# Coordination Sequence:
#
# PCOD9558819 Si02
#       8
#     8   8   8   4   8   8   8   2
#     4  12  26  50  76 111 155 200 266 319 381 461
#     4  12  25  46  73 109 155 193 257 313 388 469
#     4  11  22  42  72 108 149 190 248 310 402 454
#     4  12  28  46  74 108 148 218 252 306 392 464
#     4  11  23  44  73 114 146 191 245 326 385 454
#     4  11  23  45  76 107 149 199 248 317 391 466
#     4  12  28  49  76 108 155 202 258 323 383 474
#     4  12  30  56  74 110 156 216 266 316 396 466
#
# _framework density 23.274552
#
# number of rings (size 3 to 8) (size 9 to 14) (size 15 to 20)
#    0.000    0.444    2.963    6.889    4.148    1.185 
#    2.667    0.000    1.630    0.000    0.000    0.000 
#    0.000    0.000    0.000    0.000    0.000    0.000 
#
# Total GULP energy -301344.679893 kJ/mol
# GULP energy per Si atom -5580.457035 kJ/mol
# Density = 2.322158 g / cm^3
# Si number density = 23.274552 Si / 1000 Ang^3
#
#
#
# Elastic Constant Matrix: (Units=GPa)
#
#
# Indices 1 2 3 4 5 6 
#
# 1 72.6218 17.6562 27.4651 0.0000 0.0000 0.0000
# 2 17.6562 72.6216 27.4647 0.0000 0.0000 0.0000
# 3 27.4651 27.4647 149.4212 0.0000 0.0000 0.0000
# 4 0.0000 0.0000 0.0000 20.2884 0.0000 0.0000
# 5 0.0000 0.0000 0.0000 0.0000 20.2886 0.0000
# 6 0.0000 0.0000 0.0000 0.0000 0.0000 33.5962
#
#
#
# Elastic Compliance Matrix: (Units=1/GPa)
#
#
# Indices 1 2 3 4 5 6 
#
# 1 0.015332 -0.002861 -0.002292 0.000000 0.000000 0.000000
# 2 -0.002861 0.015332 -0.002292 0.000000 0.000000 0.000000
# 3 -0.002292 -0.002292 0.007535 0.000000 0.000000 0.000000
# 4 0.000000 0.000000 0.000000 0.049289 0.000000 0.000000
# 5 0.000000 0.000000 0.000000 0.000000 0.049289 0.000000
# 6 0.000000 0.000000 0.000000 0.000000 0.000000 0.029765
#
#
# Mechanical properties :
#
#
# Convention : Reuss Voigt Hill
#
# Bulk Modulus (GPa) = 42.90184 48.87075 45.88630
# Shear Modulus (GPa) = 26.42645 29.63987 28.03316
#
# Velocity S-wave (km/s) = 3.37326 3.57247 3.47429
# Velocity P-wave (km/s) = 5.80041 6.16926 5.98768
#
# Compressibility (1/GPa) = 0.02330902
#
# Stress axis : x y z
#
# Youngs Moduli (GPa) = 65.22103 65.22103 132.71007
#
# Poissons Ratio (x) = 0.18658 0.30423
# Poissons Ratio (y) = 0.18658 0.30422
# Poissons Ratio (z) = 0.14952 0.14951
#
# Static dielectric constant tensor:
#      x y z
#    x 1.888170 0.000000 0.000000 
#    y 0.000000 1.888160 0.000000 
#    z 0.000000 0.000000 1.994140 
# 
# From -- ./inp_files/3454.got.cif
#   From: 2010.05.17/outbox.cif.g08.bks.cpg/sg118_2_cif.got.tgz:3454.got - 2010.05.20 11:17:24.
