data_PCOD9558697
_publ_section_title
;
Structure prediction by ZEFSAII (Michael W. Deem and Ramdas Pophale) SiO2 
 PCOD9558697
Probable space group: P -4 N 2
;
_chemical_formula_sum "Si O2"
_cell_formula_units_Z 34
_cell_length_a 7.495961
_cell_length_b 7.495961
_cell_length_c 25.865385
_cell_angle_alpha 90.000000
_cell_angle_beta 90.000000
_cell_angle_gamma 90.000000
_cell_volume 1453.361274
_symmetry_space_group_name_H-M "P -4 N 2"
_symmetry_group_IT_number 118
_symmetry_cell_setting 'tetragonal'
loop_
_space_group_symop_operation_xyz
x,y,z
y,-x,-z
-x,-y,z
-y,x,-z
1/2+y,1/2+x,1/2-z
1/2-y,1/2-x,1/2-z
1/2-x,1/2+y,1/2+z
1/2+x,1/2-y,1/2+z
loop_
_atom_site_type_symbol
_atom_site_label
_atom_site_fract_x
_atom_site_fract_y
_atom_site_fract_z
Si Si1 0.000000 0.500000 0.250000
Si Si2 0.197149 0.946922 0.373463
Si Si3 0.178933 0.803408 0.918708
Si Si4 0.339769 0.856863 0.027482
Si Si5 0.070930 0.800748 0.168390
O O1 0.007956 0.671039 0.213339
O O2 0.198228 0.878535 0.432954
O O3 0.277262 0.783726 0.340440
O O4 0.307624 0.130021 0.381231
O O5 0.000000 0.000000 0.355788
O O6 0.979149 0.806268 0.942540
O O7 0.248184 0.964823 0.884036
O O8 0.291882 0.792556 0.971020
O O9 0.500000 0.000000 0.023464
O O10 0.000000 0.000000 0.178710
#
# Coordination Sequence:
#
# PCOD9558697 Si02
#       5
#     2   8   8   8   8
#     4  12  32  52  80 120 132 192 276 354 404 464
#     4  11  25  42  69 109 153 204 256 312 383 468
#     4  11  24  42  70 106 159 205 256 301 381 474
#     4  10  23  38  65 113 156 209 251 301 379 478
#     4  12  27  53  80 104 148 199 256 332 403 467
#
# _framework density 23.394043
#
# number of rings (size 3 to 8) (size 9 to 14) (size 15 to 20)
#    0.000    0.941    2.353    2.824   11.529    2.824 
#    0.000    0.000    0.000    1.412    0.000    0.000 
#    0.000    0.000    0.000    0.000    0.000    0.000 
#
# Total GULP energy -190016.518830 kJ/mol
# GULP energy per Si atom -5588.721142 kJ/mol
# Density = 2.334080 g / cm^3
# Si number density = 23.394043 Si / 1000 Ang^3
#
#
#
# Elastic Constant Matrix: (Units=GPa)
#
#
# Indices 1 2 3 4 5 6 
#
# 1 136.8095 45.3755 40.0829 0.0000 0.0000 0.0000
# 2 45.3755 136.8095 40.0829 0.0000 0.0000 0.0000
# 3 40.0829 40.0829 85.7051 0.0000 0.0000 0.0000
# 4 0.0000 0.0000 0.0000 27.6099 0.0000 0.0000
# 5 0.0000 0.0000 0.0000 0.0000 27.6099 0.0000
# 6 0.0000 0.0000 0.0000 0.0000 0.0000 35.7816
#
#
#
# Elastic Compliance Matrix: (Units=1/GPa)
#
#
# Indices 1 2 3 4 5 6 
#
# 1 0.008924 -0.002013 -0.003232 0.000000 0.000000 0.000000
# 2 -0.002013 0.008924 -0.003232 0.000000 0.000000 0.000000
# 3 -0.003232 -0.003232 0.014691 0.000000 0.000000 0.000000
# 4 0.000000 0.000000 0.000000 0.036219 0.000000 0.000000
# 5 0.000000 0.000000 0.000000 0.000000 0.036219 0.000000
# 6 0.000000 0.000000 0.000000 0.000000 0.000000 0.027947
#
#
# Mechanical properties :
#
#
# Convention : Reuss Voigt Hill
#
# Bulk Modulus (GPa) = 64.16575 67.82296 65.99435
# Shear Modulus (GPa) = 32.24264 33.78577 33.01421
#
# Velocity S-wave (km/s) = 3.71650 3.80439 3.76070
# Velocity P-wave (km/s) = 6.77527 6.95359 6.86500
#
# Compressibility (1/GPa) = 0.01558464
#
# Stress axis : x y z
#
# Youngs Moduli (GPa) = 112.05707 112.05707 68.06765
#
# Poissons Ratio (x) = 0.22555 0.22001
# Poissons Ratio (y) = 0.22555 0.22001
# Poissons Ratio (z) = 0.36220 0.36220
#
# Static dielectric constant tensor:
#      x y z
#    x 1.993320 0.000000 0.000000 
#    y 0.000000 1.993320 0.000000 
#    z 0.000000 0.000000 1.831950 
# 
# From -- ./inp_files/5933.got.cif
#   From: 2010.05.17/outbox.cif.g08.bks.cpg/sg118_3_cif.got.tgz:5933.got - 2010.05.20 11:17:24.
