data_PCOD9558414
_publ_section_title
;
Structure prediction by ZEFSAII (Michael W. Deem and Ramdas Pophale) SiO2 
 PCOD9558414
Probable space group: P -4 N 2
;
_chemical_formula_sum "Si O2"
_cell_formula_units_Z 34
_cell_length_a 8.950457
_cell_length_b 8.950457
_cell_length_c 19.736474
_cell_angle_alpha 90.000000
_cell_angle_beta 90.000000
_cell_angle_gamma 90.000000
_cell_volume 1581.102363
_symmetry_space_group_name_H-M "P -4 N 2"
_symmetry_group_IT_number 118
_symmetry_cell_setting 'tetragonal'
loop_
_space_group_symop_operation_xyz
x,y,z
y,-x,-z
-x,-y,z
-y,x,-z
1/2+y,1/2+x,1/2-z
1/2-y,1/2-x,1/2-z
1/2-x,1/2+y,1/2+z
1/2+x,1/2-y,1/2+z
loop_
_atom_site_type_symbol
_atom_site_label
_atom_site_fract_x
_atom_site_fract_y
_atom_site_fract_z
Si Si1 0.676679 0.212753 0.827740
Si Si2 0.000000 0.000000 0.709566
Si Si3 0.704106 0.534680 0.670702
Si Si4 0.500000 0.000000 0.250000
Si Si5 0.500000 0.000000 0.571803
Si Si6 0.919114 0.194964 0.036099
O O1 0.659591 0.159591 0.750000
O O2 0.604510 0.380296 0.829061
O O3 0.854464 0.194479 0.839631
O O4 0.588361 0.111795 0.879673
O O5 0.082051 0.108638 0.763274
O O6 0.871992 0.540757 0.695602
O O7 0.646008 0.630122 0.606916
O O8 0.409177 0.127002 0.531410
O O9 0.093250 0.160522 0.020275
#
# Coordination Sequence:
#
# PCOD9558414 Si02
#       6
#     8   4   8   2   4   8
#     4  10  20  37  57  98 137 177 220 282 350 431
#     4  10  18  36  57  92 145 176 212 280 344 422
#     4  11  23  42  68  99 151 188 236 290 364 440
#     4  12  24  42  72 116 142 200 236 290 372 448
#     4  12  25  39  70  98 125 179 242 292 354 430
#     4  11  24  46  70  96 135 190 243 298 361 429
#
# _framework density 21.503981
#
# number of rings (size 3 to 8) (size 9 to 14) (size 15 to 20)
#    0.000    1.176    3.529    7.412    3.294    0.941 
#    0.000    2.353    0.000    0.000    0.000    0.000 
#    0.000    0.000    0.000    0.000    0.000    0.000 
#
# Total GULP energy -189294.976588 kJ/mol
# GULP energy per Si atom -5567.499311 kJ/mol
# Density = 2.145504 g / cm^3
# Si number density = 21.503981 Si / 1000 Ang^3
#
#
#
# Elastic Constant Matrix: (Units=GPa)
#
#
# Indices 1 2 3 4 5 6 
#
# 1 121.4593 4.2945 24.9325 0.0000 0.0000 0.0000
# 2 4.2945 121.4593 24.9325 0.0000 0.0000 0.0000
# 3 24.9325 24.9325 73.6526 0.0000 0.0000 0.0000
# 4 0.0000 0.0000 0.0000 6.0903 0.0000 0.0000
# 5 0.0000 0.0000 0.0000 0.0000 6.0903 0.0000
# 6 0.0000 0.0000 0.0000 0.0000 0.0000 21.1027
#
#
#
# Elastic Compliance Matrix: (Units=1/GPa)
#
#
# Indices 1 2 3 4 5 6 
#
# 1 0.008860 0.000325 -0.003109 0.000000 0.000000 0.000000
# 2 0.000325 0.008860 -0.003109 0.000000 0.000000 0.000000
# 3 -0.003109 -0.003109 0.015682 0.000000 0.000000 0.000000
# 4 0.000000 0.000000 0.000000 0.164196 0.000000 0.000000
# 5 0.000000 0.000000 0.000000 0.000000 0.164196 0.000000
# 6 0.000000 0.000000 0.000000 0.000000 0.000000 0.047387
#
#
# Mechanical properties :
#
#
# Convention : Reuss Voigt Hill
#
# Bulk Modulus (GPa) = 46.26365 47.21000 46.73683
# Shear Modulus (GPa) = 11.67750 24.15077 17.91413
#
# Velocity S-wave (km/s) = 2.33285 3.35488 2.88941
# Velocity P-wave (km/s) = 5.36814 6.08348 5.73697
#
# Compressibility (1/GPa) = 0.02161524
#
# Stress axis : x y z
#
# Youngs Moduli (GPa) = 112.86720 112.86720 63.76617
#
# Poissons Ratio (x) = -0.03668 0.19826
# Poissons Ratio (y) = -0.03668 0.19826
# Poissons Ratio (z) = 0.35093 0.35093
#
# Static dielectric constant tensor:
#      x y z
#    x 1.916510 0.000000 0.000000 
#    y 0.000000 1.916510 0.000000 
#    z 0.000000 0.000000 1.868830 
# 
# From -- ./inp_files/5499.got.cif
#   From: 2010.05.17/outbox.cif.g08.bks.cpg/sg118_3_cif.got.tgz:5499.got - 2010.05.20 11:17:24.
