data_PCOD9558485
_publ_section_title
;
Structure prediction by ZEFSAII (Michael W. Deem and Ramdas Pophale) SiO2 
 PCOD9558485
Probable space group: P -4 N 2
;
_chemical_formula_sum "Si O2"
_cell_formula_units_Z 60
_cell_length_a 11.807793
_cell_length_b 11.807793
_cell_length_c 21.337242
_cell_angle_alpha 90.000000
_cell_angle_beta 90.000000
_cell_angle_gamma 90.000000
_cell_volume 2974.923107
_symmetry_space_group_name_H-M "P -4 N 2"
_symmetry_group_IT_number 118
_symmetry_cell_setting 'tetragonal'
loop_
_space_group_symop_operation_xyz
x,y,z
y,-x,-z
-x,-y,z
-y,x,-z
1/2+y,1/2+x,1/2-z
1/2-y,1/2-x,1/2-z
1/2-x,1/2+y,1/2+z
1/2+x,1/2-y,1/2+z
loop_
_atom_site_type_symbol
_atom_site_label
_atom_site_fract_x
_atom_site_fract_y
_atom_site_fract_z
Si Si1 0.795782 0.209284 0.035652
Si Si2 0.862050 0.118133 0.306014
Si Si3 0.304458 0.687698 0.325809
Si Si4 0.008115 0.362298 0.017221
Si Si5 0.869637 0.501497 0.332925
Si Si6 0.612915 0.363117 0.846548
Si Si7 0.870846 0.868678 0.489641
Si Si8 0.294605 0.794605 0.750000
O O1 0.833705 0.159793 0.102653
O O2 0.711920 0.115886 0.005366
O O3 0.901209 0.276504 0.002861
O O4 0.710497 0.314719 0.040657
O O5 0.747084 0.186136 0.321875
O O6 0.851232 0.112851 0.229839
O O7 0.983809 0.171380 0.326938
O O8 0.871358 0.997087 0.338899
O O9 0.192107 0.613590 0.316043
O O10 0.000000 0.500000 0.997955
O O11 0.015212 0.365618 0.092372
O O12 0.804647 0.599732 0.296961
O O13 0.000000 0.500000 0.315611
O O14 0.639352 0.327313 0.917790
O O15 0.695559 0.310560 0.795408
O O16 0.998464 0.848981 0.510228
#
# Coordination Sequence:
#
# PCOD9558485 Si02
#       8
#     8   8   8   8   8   8   8   4
#     4  11  22  40  61  89 123 171 211 267 323 385
#     4  10  20  37  56  84 118 156 199 244 304 379
#     4  10  20  37  59  81 116 160 205 246 304 375
#     4  10  23  42  62  91 127 165 221 271 325 394
#     4  10  20  34  58  92 121 150 194 261 323 377
#     4  11  22  36  57  90 124 157 193 258 315 380
#     4  11  21  37  64  95 121 157 208 274 341 388
#     4  12  21  34  56  91 124 156 192 246 329 376
#
# _framework density 20.168589000000001
#
# number of rings (size 3 to 8) (size 9 to 14) (size 15 to 20)
#    0.000    1.467    1.333    5.800    1.867    2.400 
#    4.800    0.000    0.000    0.800    0.000    0.000 
#    0.000    0.000    0.000    0.000    0.000    0.000 
#
# Total GULP energy -334092.634266 kJ/mol
# GULP energy per Si atom -5568.210571 kJ/mol
# Density = 2.012268 g / cm^3
# Si number density = 20.168589 Si / 1000 Ang^3
#
#
#
# Elastic Constant Matrix: (Units=GPa)
#
#
# Indices 1 2 3 4 5 6 
#
# 1 77.3365 -4.6891 4.1617 0.0000 0.0000 0.0000
# 2 -4.6891 77.3365 4.1617 0.0000 0.0000 0.0000
# 3 4.1617 4.1617 78.3782 0.0000 0.0000 0.0000
# 4 0.0000 0.0000 0.0000 22.0661 0.0000 0.0000
# 5 0.0000 0.0000 0.0000 0.0000 22.0661 0.0000
# 6 0.0000 0.0000 0.0000 0.0000 0.0000 32.5539
#
#
#
# Elastic Compliance Matrix: (Units=1/GPa)
#
#
# Indices 1 2 3 4 5 6 
#
# 1 0.013020 0.000829 -0.000735 0.000000 0.000000 0.000000
# 2 0.000829 0.013020 -0.000735 0.000000 0.000000 0.000000
# 3 -0.000735 -0.000735 0.012837 0.000000 0.000000 0.000000
# 4 0.000000 0.000000 0.000000 0.045318 0.000000 0.000000
# 5 0.000000 0.000000 0.000000 0.000000 0.045318 0.000000
# 6 0.000000 0.000000 0.000000 0.000000 0.000000 0.030718
#
#
# Mechanical properties :
#
#
# Convention : Reuss Voigt Hill
#
# Bulk Modulus (GPa) = 26.59999 26.70221 26.65110
# Shear Modulus (GPa) = 28.72785 30.63169 29.67977
#
# Velocity S-wave (km/s) = 3.77820 3.90138 3.84028
# Velocity P-wave (km/s) = 5.67895 5.79333 5.73642
#
# Compressibility (1/GPa) = 0.03759400
#
# Stress axis : x y z
#
# Youngs Moduli (GPa) = 76.80284 76.80284 77.90138
#
# Poissons Ratio (x) = -0.06367 0.05729
# Poissons Ratio (y) = -0.06367 0.05729
# Poissons Ratio (z) = 0.05648 0.05648
#
# Static dielectric constant tensor:
#      x y z
#    x 1.813890 0.000000 0.000000 
#    y 0.000000 1.813890 0.000000 
#    z 0.000000 0.000000 1.740280 
# 
# From -- ./inp_files/5769.got.cif
#   From: 2010.05.17/outbox.cif.g08.bks.cpg/sg118_3_cif.got.tgz:5769.got - 2010.05.20 11:17:24.
