data_PCOD9558229
_publ_section_title
;
Structure prediction by ZEFSAII (Michael W. Deem and Ramdas Pophale) SiO2 
 PCOD9558229
Probable space group: P -4 B 2
;
_chemical_formula_sum "Si O2"
_cell_formula_units_Z 40
_cell_length_a 10.832297
_cell_length_b 10.832297
_cell_length_c 16.023026
_cell_angle_alpha 90.000000
_cell_angle_beta 90.000000
_cell_angle_gamma 90.000000
_cell_volume 1880.120373
_symmetry_space_group_name_H-M "P -4 B 2"
_symmetry_group_IT_number 117
_symmetry_cell_setting 'tetragonal'
loop_
_space_group_symop_operation_xyz
x,y,z
y,-x,-z
-x,-y,z
-y,x,-z
1/2+y,1/2+x,-z
1/2-y,1/2-x,-z
1/2-x,1/2+y,z
1/2+x,1/2-y,z
loop_
_atom_site_type_symbol
_atom_site_label
_atom_site_fract_x
_atom_site_fract_y
_atom_site_fract_z
Si Si1 0.465680 0.298615 0.009008
Si Si2 0.595226 0.885496 0.317317
Si Si3 0.470239 0.783847 0.543500
Si Si4 0.557783 0.634390 0.384202
Si Si5 0.403196 0.111314 0.865385
O O1 0.456545 0.206007 0.931902
O O2 0.363542 0.402665 0.992812
O O3 0.437663 0.223707 0.093565
O O4 0.534635 0.750160 0.323613
O O5 0.662616 0.889340 0.228265
O O6 0.500000 0.000000 0.318432
O O7 0.672261 0.913515 0.401466
O O8 0.394604 0.894604 0.500000
O O9 0.508546 0.687928 0.472012
O O10 0.385354 0.704942 0.606256
O O11 0.500000 0.500000 0.365102
O O12 0.500000 0.000000 0.860941
#
# Coordination Sequence:
#
# PCOD9558229 Si02
#       5
#     8   8   8   8   8
#     4  10  22  43  72 100 131 177 220 269 341 427
#     4  11  25  44  68 102 134 185 236 296 362 428
#     4  12  22  42  71  93 134 186 244 287 354 425
#     4  12  25  44  64  99 137 181 238 303 353 417
#     4  10  24  43  69  99 138 174 225 282 348 420
#
# _framework density 21.275234000000001
#
# number of rings (size 3 to 8) (size 9 to 14) (size 15 to 20)
#    0.000    1.000    4.000    3.000    5.600    1.600 
#   10.800    0.000    4.400    0.000    0.000    0.000 
#    0.000    0.000    0.000    0.000    0.000    0.000 
#
# Total GULP energy -223399.276563 kJ/mol
# GULP energy per Si atom -5584.981914 kJ/mol
# Density = 2.122681 g / cm^3
# Si number density = 21.275234 Si / 1000 Ang^3
#
#
#
# Elastic Constant Matrix: (Units=GPa)
#
#
# Indices 1 2 3 4 5 6 
#
# 1 104.5135 17.7513 16.7514 0.0000 0.0000 0.0000
# 2 17.7513 104.5135 16.7514 0.0000 0.0000 0.0000
# 3 16.7514 16.7514 86.1761 0.0000 0.0000 0.0000
# 4 0.0000 0.0000 0.0000 8.3011 0.0000 0.0000
# 5 0.0000 0.0000 0.0000 0.0000 8.3011 0.0000
# 6 0.0000 0.0000 0.0000 0.0000 0.0000 6.0035
#
#
#
# Elastic Compliance Matrix: (Units=1/GPa)
#
#
# Indices 1 2 3 4 5 6 
#
# 1 0.010082 -0.001443 -0.001679 0.000000 0.000000 0.000000
# 2 -0.001443 0.010082 -0.001679 0.000000 0.000000 0.000000
# 3 -0.001679 -0.001679 0.012257 0.000000 0.000000 0.000000
# 4 0.000000 0.000000 0.000000 0.120466 0.000000 0.000000
# 5 0.000000 0.000000 0.000000 0.000000 0.120466 0.000000
# 6 0.000000 0.000000 0.000000 0.000000 0.000000 0.166571
#
#
# Mechanical properties :
#
#
# Convention : Reuss Voigt Hill
#
# Bulk Modulus (GPa) = 43.82504 44.19012 44.00758
# Shear Modulus (GPa) = 10.93770 20.78439 15.86105
#
# Velocity S-wave (km/s) = 2.26985 3.12898 2.73338
# Velocity P-wave (km/s) = 5.24532 5.81977 5.54000
#
# Compressibility (1/GPa) = 0.02281800
#
# Stress axis : x y z
#
# Youngs Moduli (GPa) = 99.18225 99.18225 81.58586
#
# Poissons Ratio (x) = 0.14315 0.13701
# Poissons Ratio (y) = 0.14315 0.13701
# Poissons Ratio (z) = 0.16656 0.16656
#
# Static dielectric constant tensor:
#      x y z
#    x 1.811700 0.000000 0.000000 
#    y 0.000000 1.811700 0.000000 
#    z 0.000000 0.000000 1.752600 
# 
# From -- ./inp_files/3121.got.cif
#   From: 2010.05.17/outbox.cif.g08.bks.cpg/sg117_2_cif.got.tgz:3121.got - 2010.05.20 11:15:09.
