data_PCOD9558429
_publ_section_title
;
Structure prediction by ZEFSAII (Michael W. Deem and Ramdas Pophale) SiO2 
 PCOD9558429
Probable space group: P -4 N 2
;
_chemical_formula_sum "Si O2"
_cell_formula_units_Z 48
_cell_length_a 8.767637
_cell_length_b 8.767637
_cell_length_c 29.319803
_cell_angle_alpha 90.000000
_cell_angle_beta 90.000000
_cell_angle_gamma 90.000000
_cell_volume 2253.856021
_symmetry_space_group_name_H-M "P -4 N 2"
_symmetry_group_IT_number 118
_symmetry_cell_setting 'tetragonal'
loop_
_space_group_symop_operation_xyz
x,y,z
y,-x,-z
-x,-y,z
-y,x,-z
1/2+y,1/2+x,1/2-z
1/2-y,1/2-x,1/2-z
1/2-x,1/2+y,1/2+z
1/2+x,1/2-y,1/2+z
loop_
_atom_site_type_symbol
_atom_site_label
_atom_site_fract_x
_atom_site_fract_y
_atom_site_fract_z
Si Si1 0.146855 0.288293 0.647327
Si Si2 0.296476 0.679502 0.953907
Si Si3 0.273833 0.411917 0.278666
Si Si4 0.586440 0.305863 0.240515
Si Si5 0.713459 0.862052 0.137996
Si Si6 0.149151 0.810872 0.446888
O O1 0.147905 0.170469 0.689499
O O2 0.215292 0.458756 0.650277
O O3 0.221302 0.220640 0.601931
O O4 0.963008 0.312560 0.644261
O O5 0.183951 0.738811 0.914767
O O6 0.319917 0.494352 0.952097
O O7 0.470492 0.731204 0.945274
O O8 0.245950 0.714504 0.005667
O O9 0.124910 0.375091 0.250000
O O10 0.411034 0.336832 0.248494
O O11 0.321879 0.587022 0.275527
O O12 0.281516 0.332052 0.327719
O O13 0.632144 0.132144 0.250000
#
# Coordination Sequence:
#
# PCOD9558429 Si02
#       6
#     8   8   8   8   8   8
#     4  10  19  31  55  82 110 145 187 239 283 334
#     4   8  15  28  51  78 110 139 183 235 280 338
#     4  11  23  36  57  83 111 148 190 236 286 344
#     4  11  23  38  56  80 114 149 187 237 286 344
#     4  10  19  32  53  83 111 142 188 240 285 333
#     4   8  15  28  49  81 109 141 180 229 288 341
#
# _framework density 21.296835000000002
#
# number of rings (size 3 to 8) (size 9 to 14) (size 15 to 20)
#    0.000    2.333    3.333    1.000    2.333    2.000 
#    0.000    0.000    3.667    0.000    0.000    0.000 
#    0.000    0.000    0.000    0.000    0.000    0.000 
#
# Total GULP energy -267281.624657 kJ/mol
# GULP energy per Si atom -5568.367180 kJ/mol
# Density = 2.124836 g / cm^3
# Si number density = 21.296835 Si / 1000 Ang^3
#
#
#
# Elastic Constant Matrix: (Units=GPa)
#
#
# Indices 1 2 3 4 5 6 
#
# 1 34.8225 22.0054 22.6107 0.0000 0.0000 0.0000
# 2 22.0054 34.8215 22.6106 0.0000 0.0000 0.0000
# 3 22.6107 22.6106 156.0441 0.0000 0.0000 0.0000
# 4 0.0000 0.0000 0.0000 23.9595 0.0000 0.0000
# 5 0.0000 0.0000 0.0000 0.0000 23.9598 0.0000
# 6 0.0000 0.0000 0.0000 0.0000 0.0000 22.8317
#
#
#
# Elastic Compliance Matrix: (Units=1/GPa)
#
#
# Indices 1 2 3 4 5 6 
#
# 1 0.048957 -0.029067 -0.002882 0.000000 0.000000 0.000000
# 2 -0.029067 0.048958 -0.002882 0.000000 0.000000 0.000000
# 3 -0.002882 -0.002882 0.007244 0.000000 0.000000 0.000000
# 4 0.000000 0.000000 0.000000 0.041737 0.000000 0.000000
# 5 0.000000 0.000000 0.000000 0.000000 0.041737 0.000000
# 6 0.000000 0.000000 0.000000 0.000000 0.000000 0.043799
#
#
# Mechanical properties :
#
#
# Convention : Reuss Voigt Hill
#
# Bulk Modulus (GPa) = 28.17184 40.01573 34.09379
# Shear Modulus (GPa) = 15.92736 24.71429 20.32082
#
# Velocity S-wave (km/s) = 2.73770 3.41026 3.09232
# Velocity P-wave (km/s) = 4.82185 5.85976 5.36596
#
# Compressibility (1/GPa) = 0.03549643
#
# Stress axis : x y z
#
# Youngs Moduli (GPa) = 20.42621 20.42560 138.05132
#
# Poissons Ratio (x) = 0.59371 0.39787
# Poissons Ratio (y) = 0.59372 0.39789
# Poissons Ratio (z) = 0.05887 0.05887
#
# Static dielectric constant tensor:
#      x y z
#    x 1.768160 0.000000 0.000000 
#    y 0.000000 1.768160 0.000000 
#    z 0.000000 0.000000 1.855140 
# 
# From -- ./inp_files/6853.got.cif
#   From: 2010.05.17/outbox.cif.g08.bks.cpg/sg118_4_cif.got.tgz:6853.got - 2010.05.20 11:17:24.
