data_PCOD9558773
_publ_section_title
;
Structure prediction by ZEFSAII (Michael W. Deem and Ramdas Pophale) SiO2 
 PCOD9558773
Probable space group: P -4 N 2
;
_chemical_formula_sum "Si O2"
_cell_formula_units_Z 48
_cell_length_a 16.401540
_cell_length_b 16.401540
_cell_length_c 8.688522
_cell_angle_alpha 90.000000
_cell_angle_beta 90.000000
_cell_angle_gamma 90.000000
_cell_volume 2337.303772
_symmetry_space_group_name_H-M "P -4 N 2"
_symmetry_group_IT_number 118
_symmetry_cell_setting 'tetragonal'
loop_
_space_group_symop_operation_xyz
x,y,z
y,-x,-z
-x,-y,z
-y,x,-z
1/2+y,1/2+x,1/2-z
1/2-y,1/2-x,1/2-z
1/2-x,1/2+y,1/2+z
1/2+x,1/2-y,1/2+z
loop_
_atom_site_type_symbol
_atom_site_label
_atom_site_fract_x
_atom_site_fract_y
_atom_site_fract_z
Si Si1 0.539948 0.306448 0.853486
Si Si2 0.567563 0.648843 0.305196
Si Si3 0.198130 0.623942 0.891541
Si Si4 0.635861 0.608069 0.823833
Si Si5 0.846891 0.461606 0.198632
Si Si6 0.851966 0.232308 0.084042
O O1 0.581621 0.364851 0.729689
O O2 0.447817 0.343738 0.864530
O O3 0.540622 0.211863 0.800436
O O4 0.583562 0.320322 0.017633
O O5 0.588979 0.721368 0.185715
O O6 0.476661 0.619690 0.266382
O O7 0.585431 0.684606 0.473249
O O8 0.137172 0.637172 0.750000
O O9 0.164228 0.565237 0.021961
O O10 0.206205 0.712455 0.976113
O O11 0.683155 0.668176 0.706622
O O12 0.938515 0.438515 0.250000
O O13 0.796128 0.403827 0.316032
#
# Coordination Sequence:
#
# PCOD9558773 Si02
#       6
#     8   8   8   8   8   8
#     4  11  20  32  46  69 101 143 174 212 252 317
#     4  11  20  31  48  69 101 136 173 210 262 317
#     4   9  17  34  52  67  89 133 175 213 255 303
#     4  11  20  31  44  68 100 138 177 209 259 308
#     4   9  17  33  49  66  93 132 173 216 257 295
#     4   9  21  31  47  69  95 131 175 220 252 296
#
# _framework density 20.536484000000002
#
# number of rings (size 3 to 8) (size 9 to 14) (size 15 to 20)
#    0.000    2.000    3.333    1.500    4.667    0.000 
#    0.000    0.000    0.000    0.000    0.000    0.000 
#    0.000    6.000    0.000   12.000    0.000    0.000 
#
# Total GULP energy -267225.056282 kJ/mol
# GULP energy per Si atom -5567.188673 kJ/mol
# Density = 2.048974 g / cm^3
# Si number density = 20.536484 Si / 1000 Ang^3
#
#
#
# Elastic Constant Matrix: (Units=GPa)
#
#
# Indices 1 2 3 4 5 6 
#
# 1 9.4965 53.0962 19.8703 0.0000 0.0000 0.0000
# 2 53.0962 9.4965 19.8703 0.0000 0.0000 0.0000
# 3 19.8703 19.8703 107.4243 0.0000 0.0000 0.0000
# 4 0.0000 0.0000 0.0000 29.0509 0.0000 0.0000
# 5 0.0000 0.0000 0.0000 0.0000 29.0509 0.0000
# 6 0.0000 0.0000 0.0000 0.0000 0.0000 18.1779
#
#
#
# Elastic Compliance Matrix: (Units=1/GPa)
#
#
# Indices 1 2 3 4 5 6 
#
# 1 -0.002417 0.020519 -0.003348 0.000000 0.000000 0.000000
# 2 0.020519 -0.002417 -0.003348 0.000000 0.000000 0.000000
# 3 -0.003348 -0.003348 0.010548 0.000000 0.000000 0.000000
# 4 0.000000 0.000000 0.000000 0.034422 0.000000 0.000000
# 5 0.000000 0.000000 0.000000 0.000000 0.034422 0.000000
# 6 0.000000 0.000000 0.000000 0.000000 0.000000 0.055012
#
#
# Mechanical properties :
#
#
# Convention : Reuss Voigt Hill
#
# Bulk Modulus (GPa) = 29.97739 34.67679 32.32709
# Shear Modulus (GPa) = 44.23010 17.49464 30.86237
#
# Velocity S-wave (km/s) = 4.64587 2.92187 3.88081
# Velocity P-wave (km/s) = 6.58845 5.32026 5.98802
#
# Compressibility (1/GPa) = 0.03335847
#
# Stress axis : x y z
#
# Youngs Moduli (GPa) = -413.75706 -413.75706 94.80849
#
# Poissons Ratio (x) = 8.48991 0.31745
# Poissons Ratio (y) = 8.48991 0.31745
# Poissons Ratio (z) = -1.38541 -1.38541
#
# Static dielectric constant tensor:
#      x y z
#    x 1.792890 0.000000 0.000000 
#    y 0.000000 1.792890 0.000000 
#    z 0.000000 0.000000 1.761260 
# 
# From -- ./inp_files/2081.got.cif
#   From: 2010.05.17/outbox.cif.g08.bks.cpg/sg118_2_cif.got.tgz:2081.got - 2010.05.20 11:17:24.
