data_PCOD9558724
_publ_section_title
;
Structure prediction by ZEFSAII (Michael W. Deem and Ramdas Pophale) SiO2 
 PCOD9558724
Probable space group: P -4 N 2
;
_chemical_formula_sum "Si O2"
_cell_formula_units_Z 40
_cell_length_a 8.456377
_cell_length_b 8.456377
_cell_length_c 22.986365
_cell_angle_alpha 90.000000
_cell_angle_beta 90.000000
_cell_angle_gamma 90.000000
_cell_volume 1643.762132
_symmetry_space_group_name_H-M "P -4 N 2"
_symmetry_group_IT_number 118
_symmetry_cell_setting 'tetragonal'
loop_
_space_group_symop_operation_xyz
x,y,z
y,-x,-z
-x,-y,z
-y,x,-z
1/2+y,1/2+x,1/2-z
1/2-y,1/2-x,1/2-z
1/2-x,1/2+y,1/2+z
1/2+x,1/2-y,1/2+z
loop_
_atom_site_type_symbol
_atom_site_label
_atom_site_fract_x
_atom_site_fract_y
_atom_site_fract_z
Si Si1 0.106506 0.788758 0.816695
Si Si2 0.323498 0.995044 0.073571
Si Si3 0.061064 0.170711 0.298994
Si Si4 0.802757 0.343015 0.043007
Si Si5 0.500000 0.500000 0.000000
Si Si6 0.500000 0.000000 0.639753
Si Si7 0.000000 0.500000 0.750000
O O1 0.044841 0.811166 0.880719
O O2 0.156869 0.925819 0.771785
O O3 0.262352 0.682652 0.823047
O O4 0.993222 0.666996 0.783677
O O5 0.500000 0.000000 0.100528
O O6 0.285689 0.819035 0.055027
O O7 0.332337 0.108593 0.018313
O O8 0.000901 0.341861 0.320044
O O9 0.000000 0.000000 0.318989
O O10 0.660988 0.472987 0.037635
O O11 0.936392 0.371692 0.092297
#
# Coordination Sequence:
#
# PCOD9558724 Si02
#       7
#     8   8   8   8   2   4   2
#     4  10  24  44  72 109 156 211 281 328 426 511
#     4  12  26  48  77 115 158 217 278 350 430 521
#     4  10  26  49  79 111 159 218 280 351 432 513
#     4  12  28  48  80 122 167 213 291 352 445 530
#     4  12  24  48  84 112 168 232 272 356 436 558
#     4  12  28  48  80 124 159 217 286 362 428 536
#     4   8  16  38  64  98 126 190 252 308 366 478
#
# _framework density 24.334419
#
# number of rings (size 3 to 8) (size 9 to 14) (size 15 to 20)
#    0.000    1.200    4.000    0.000    9.800    5.200 
#    0.000    8.000    2.200    0.000    0.000    0.000 
#    0.000    0.000    0.000    0.000    0.000    0.000 
#
# Total GULP energy -223035.493599 kJ/mol
# GULP energy per Si atom -5575.887340 kJ/mol
# Density = 2.427903 g / cm^3
# Si number density = 24.334419 Si / 1000 Ang^3
#
#
#
# Elastic Constant Matrix: (Units=GPa)
#
#
# Indices 1 2 3 4 5 6 
#
# 1 111.3053 30.5884 34.6262 0.0000 0.0000 0.0000
# 2 30.5884 111.3053 34.6262 0.0000 0.0000 0.0000
# 3 34.6262 34.6262 141.9290 0.0000 0.0000 0.0000
# 4 0.0000 0.0000 0.0000 -6.4390 0.0000 0.0000
# 5 0.0000 0.0000 0.0000 0.0000 -6.4390 0.0000
# 6 0.0000 0.0000 0.0000 0.0000 0.0000 37.9145
#
#
#
# Elastic Compliance Matrix: (Units=1/GPa)
#
#
# Indices 1 2 3 4 5 6 
#
# 1 0.010195 -0.002194 -0.001952 0.000000 0.000000 0.000000
# 2 -0.002194 0.010195 -0.001952 0.000000 0.000000 0.000000
# 3 -0.001952 -0.001952 0.007998 0.000000 0.000000 0.000000
# 4 0.000000 0.000000 0.000000 -0.155304 0.000000 0.000000
# 5 0.000000 0.000000 0.000000 0.000000 -0.155304 0.000000
# 6 0.000000 0.000000 0.000000 0.000000 0.000000 0.026375
#
#
# Mechanical properties :
#
#
# Convention : Reuss Voigt Hill
#
# Bulk Modulus (GPa) = 61.76178 62.69124 62.22651
# Shear Modulus (GPa) = -20.98608 22.65390 0.83391
#
# Velocity S-wave (km/s) = -2.93986 3.05444 0.58603
# Velocity P-wave (km/s) = 3.72986 6.18529 5.10733
#
# Compressibility (1/GPa) = 0.01619124
#
# Stress axis : x y z
#
# Youngs Moduli (GPa) = 98.09170 98.09170 125.02935
#
# Poissons Ratio (x) = 0.21526 0.24403
# Poissons Ratio (y) = 0.21526 0.24403
# Poissons Ratio (z) = 0.19145 0.19145
#
# Static dielectric constant tensor:
#      x y z
#    x 1.970960 0.000000 0.000000 
#    y 0.000000 1.970960 0.000000 
#    z 0.000000 0.000000 2.050670 
# 
# From -- ./inp_files/6133.got.cif
#   From: 2010.05.17/outbox.cif.g08.bks.cpg/sg118_4_cif.got.tgz:6133.got - 2010.05.20 11:17:24.
