data_PCOD9558096
_publ_section_title
;
Structure prediction by ZEFSAII (Michael W. Deem and Ramdas Pophale) SiO2 
 PCOD9558096
Probable space group: P -4 B 2
;
_chemical_formula_sum "Si O2"
_cell_formula_units_Z 48
_cell_length_a 17.492733
_cell_length_b 17.492733
_cell_length_c 8.842437
_cell_angle_alpha 90.000000
_cell_angle_beta 90.000000
_cell_angle_gamma 90.000000
_cell_volume 2705.747769
_symmetry_space_group_name_H-M "P -4 B 2"
_symmetry_group_IT_number 117
_symmetry_cell_setting 'tetragonal'
loop_
_space_group_symop_operation_xyz
x,y,z
y,-x,-z
-x,-y,z
-y,x,-z
1/2+y,1/2+x,-z
1/2-y,1/2-x,-z
1/2-x,1/2+y,z
1/2+x,1/2-y,z
loop_
_atom_site_type_symbol
_atom_site_label
_atom_site_fract_x
_atom_site_fract_y
_atom_site_fract_z
Si Si1 0.346383 0.721036 0.835349
Si Si2 0.839265 0.453604 0.911788
Si Si3 0.827981 0.307213 0.322541
Si Si4 0.115908 0.980708 0.237632
Si Si5 0.125719 0.374282 0.000000
Si Si6 0.387208 0.293102 0.896296
Si Si7 0.000000 0.000000 0.500000
Si Si8 0.500000 0.500000 0.000000
O O1 0.279141 0.696395 0.721360
O O2 0.424122 0.686277 0.770562
O O3 0.358860 0.809492 0.873372
O O4 0.324174 0.679772 0.995011
O O5 0.827129 0.410859 0.750866
O O6 0.863248 0.541650 0.927183
O O7 0.901912 0.401912 0.000000
O O8 0.758303 0.441730 0.997049
O O9 0.823131 0.323131 0.500000
O O10 0.765282 0.355369 0.228540
O O11 0.141796 0.064569 0.185646
O O12 0.072102 0.983016 0.394302
O O13 0.054950 0.953690 0.111176
#
# Coordination Sequence:
#
# PCOD9558096 Si02
#       8
#     8   8   8   8   4   8   2   2
#     4  11  21  36  62  90 119 154 208 257 299 354
#     4   9  20  37  62  88 117 153 204 253 303 352
#     4  10  22  40  59  86 122 164 195 243 313 378
#     4  11  21  38  56  88 118 160 193 248 297 369
#     4  12  19  36  64 100 112 147 212 272 296 340
#     4  10  19  37  60  83 112 156 204 245 296 359
#     4  10  28  38  52  90 132 158 196 234 320 378
#     4  10  20  34  60  78 116 154 196 230 292 350
#
# _framework density 17.740013000000001
#
# number of rings (size 3 to 8) (size 9 to 14) (size 15 to 20)
#    0.000    1.667    5.000    1.250    2.333    0.000 
#    0.000    1.667    0.000    4.000    0.000    0.000 
#    0.000    0.000    0.000    0.000    0.000    0.000 
#
# Total GULP energy -267671.687953 kJ/mol
# GULP energy per Si atom -5576.493499 kJ/mol
# Density = 1.769964 g / cm^3
# Si number density = 17.740013 Si / 1000 Ang^3
#
#
#
# Elastic Constant Matrix: (Units=GPa)
#
#
# Indices 1 2 3 4 5 6 
#
# 1 85.5861 16.0422 33.5299 0.0000 0.0000 0.0000
# 2 16.0422 85.5876 33.5306 0.0000 0.0000 0.0000
# 3 33.5299 33.5306 115.1332 0.0000 0.0000 0.0000
# 4 0.0000 0.0000 0.0000 21.3432 0.0000 0.0000
# 5 0.0000 0.0000 0.0000 0.0000 21.3432 0.0000
# 6 0.0000 0.0000 0.0000 0.0000 0.0000 27.3795
#
#
#
# Elastic Compliance Matrix: (Units=1/GPa)
#
#
# Indices 1 2 3 4 5 6 
#
# 1 0.013280 -0.001099 -0.003547 0.000000 0.000000 0.000000
# 2 -0.001099 0.013280 -0.003547 0.000000 0.000000 0.000000
# 3 -0.003547 -0.003547 0.010752 0.000000 0.000000 0.000000
# 4 0.000000 0.000000 0.000000 0.046853 0.000000 0.000000
# 5 0.000000 0.000000 0.000000 0.000000 0.046853 0.000000
# 6 0.000000 0.000000 0.000000 0.000000 0.000000 0.036524
#
#
# Mechanical properties :
#
#
# Convention : Reuss Voigt Hill
#
# Bulk Modulus (GPa) = 47.79342 50.27913 49.03628
# Shear Modulus (GPa) = 26.19113 27.56012 26.87562
#
# Velocity S-wave (km/s) = 3.84655 3.94579 3.89649
# Velocity P-wave (km/s) = 6.83575 7.01162 6.92424
#
# Compressibility (1/GPa) = 0.02092338
#
# Stress axis : x y z
#
# Youngs Moduli (GPa) = 75.30160 75.30272 93.00815
#
# Poissons Ratio (x) = 0.08279 0.32993
# Poissons Ratio (y) = 0.08279 0.32993
# Poissons Ratio (z) = 0.26712 0.26712
#
# Static dielectric constant tensor:
#      x y z
#    x 1.636620 0.000000 0.000000 
#    y 0.000000 1.636620 0.000000 
#    z 0.000000 0.000000 1.578590 
# 
# From -- ./inp_files/1989.got.cif
#   From: 2010.05.17/outbox.cif.g08.bks.cpg/sg117_1_cif.got.tgz:1989.got - 2010.05.20 11:15:09.
