data_PCOD9558587
_publ_section_title
;
Structure prediction by ZEFSAII (Michael W. Deem and Ramdas Pophale) SiO2 
 PCOD9558587
Probable space group: P -4 N 2
;
_chemical_formula_sum "Si O2"
_cell_formula_units_Z 48
_cell_length_a 14.321521
_cell_length_b 14.321521
_cell_length_c 12.370697
_cell_angle_alpha 90.000000
_cell_angle_beta 90.000000
_cell_angle_gamma 90.000000
_cell_volume 2537.303730
_symmetry_space_group_name_H-M "P -4 N 2"
_symmetry_group_IT_number 118
_symmetry_cell_setting 'tetragonal'
loop_
_space_group_symop_operation_xyz
x,y,z
y,-x,-z
-x,-y,z
-y,x,-z
1/2+y,1/2+x,1/2-z
1/2-y,1/2-x,1/2-z
1/2-x,1/2+y,1/2+z
1/2+x,1/2-y,1/2+z
loop_
_atom_site_type_symbol
_atom_site_label
_atom_site_fract_x
_atom_site_fract_y
_atom_site_fract_z
Si Si1 0.680366 0.970254 0.284546
Si Si2 0.586394 0.937512 0.623072
Si Si3 0.613612 0.732649 0.524588
Si Si4 0.688558 0.086708 0.505913
Si Si5 0.743515 0.573605 0.574646
Si Si6 0.227954 0.217121 0.358133
O O1 0.584133 0.915868 0.250000
O O2 0.750719 0.886432 0.315935
O O3 0.680969 0.037025 0.389360
O O4 0.714543 0.030493 0.183490
O O5 0.573325 0.926676 0.750000
O O6 0.599279 0.835117 0.574698
O O7 0.500000 0.000000 0.579042
O O8 0.671085 0.004115 0.590526
O O9 0.671656 0.658037 0.593829
O O10 0.512053 0.697458 0.489656
O O11 0.678743 0.749947 0.420269
O O12 0.613181 0.170625 0.496716
O O13 0.775355 0.144801 0.555206
O O14 0.219067 0.280934 0.250000
#
# Coordination Sequence:
#
# PCOD9558587 Si02
#       6
#     8   8   8   8   8   8
#     4  11  21  42  68  98 127 172 223 278 336 398
#     4  11  23  37  59  92 123 166 211 265 327 385
#     4  11  22  40  62  94 133 162 217 272 325 401
#     4  11  23  37  65  96 127 163 220 279 327 383
#     4  11  23  39  64  97 128 170 216 270 335 389
#     4  10  21  38  65  90 126 174 215 263 331 404
#
# _framework density 18.917719000000002
#
# number of rings (size 3 to 8) (size 9 to 14) (size 15 to 20)
#    0.000    1.167    6.667    0.500    2.333    3.667 
#    0.000    0.000    0.000    0.500    0.000    0.000 
#    0.000    0.000    0.000    0.000    0.000    0.000 
#
# Total GULP energy -267408.528085 kJ/mol
# GULP energy per Si atom -5571.011002 kJ/mol
# Density = 1.887466 g / cm^3
# Si number density = 18.917719 Si / 1000 Ang^3
#
#
#
# Elastic Constant Matrix: (Units=GPa)
#
#
# Indices 1 2 3 4 5 6 
#
# 1 105.0688 48.9316 35.9284 0.0000 0.0000 0.0000
# 2 48.9316 105.0681 35.9282 0.0000 0.0000 0.0000
# 3 35.9284 35.9282 83.8442 0.0000 0.0000 0.0000
# 4 0.0000 0.0000 0.0000 33.7933 0.0000 0.0000
# 5 0.0000 0.0000 0.0000 0.0000 33.7933 0.0000
# 6 0.0000 0.0000 0.0000 0.0000 0.0000 35.7611
#
#
#
# Elastic Compliance Matrix: (Units=1/GPa)
#
#
# Indices 1 2 3 4 5 6 
#
# 1 0.012965 -0.004849 -0.003478 0.000000 0.000000 0.000000
# 2 -0.004849 0.012965 -0.003478 0.000000 0.000000 0.000000
# 3 -0.003478 -0.003478 0.014908 0.000000 0.000000 0.000000
# 4 0.000000 0.000000 0.000000 0.029592 0.000000 0.000000
# 5 0.000000 0.000000 0.000000 0.000000 0.029592 0.000000
# 6 0.000000 0.000000 0.000000 0.000000 0.000000 0.027963
#
#
# Mechanical properties :
#
#
# Convention : Reuss Voigt Hill
#
# Bulk Modulus (GPa) = 58.04362 59.50639 58.77501
# Shear Modulus (GPa) = 31.77913 32.21576 31.99744
#
# Velocity S-wave (km/s) = 4.10306 4.13115 4.11713
# Velocity P-wave (km/s) = 7.29353 7.36742 7.33056
#
# Compressibility (1/GPa) = 0.01722842
#
# Stress axis : x y z
#
# Youngs Moduli (GPa) = 77.13123 77.13073 67.08003
#
# Poissons Ratio (x) = 0.37398 0.23330
# Poissons Ratio (y) = 0.37398 0.23330
# Poissons Ratio (z) = 0.26826 0.26826
#
# Static dielectric constant tensor:
#      x y z
#    x 1.690730 0.000000 0.000000 
#    y 0.000000 1.690730 0.000000 
#    z 0.000000 0.000000 1.682310 
# 
# From -- ./inp_files/3354.got.cif
#   From: 2010.05.17/outbox.cif.g08.bks.cpg/sg118_2_cif.got.tgz:3354.got - 2010.05.20 11:17:24.
