data_PCOD9558241
_publ_section_title
;
Structure prediction by ZEFSAII (Michael W. Deem and Ramdas Pophale) SiO2 
 PCOD9558241
Probable space group: P -4 B 2
;
_chemical_formula_sum "Si O2"
_cell_formula_units_Z 36
_cell_length_a 14.001659
_cell_length_b 14.001659
_cell_length_c 8.323650
_cell_angle_alpha 90.000000
_cell_angle_beta 90.000000
_cell_angle_gamma 90.000000
_cell_volume 1631.822073
_symmetry_space_group_name_H-M "P -4 B 2"
_symmetry_group_IT_number 117
_symmetry_cell_setting 'tetragonal'
loop_
_space_group_symop_operation_xyz
x,y,z
y,-x,-z
-x,-y,z
-y,x,-z
1/2+y,1/2+x,-z
1/2-y,1/2-x,-z
1/2-x,1/2+y,z
1/2+x,1/2-y,z
loop_
_atom_site_type_symbol
_atom_site_label
_atom_site_fract_x
_atom_site_fract_y
_atom_site_fract_z
Si Si1 0.217262 0.476279 0.555500
Si Si2 0.391533 0.257984 0.022693
Si Si3 0.848678 0.860120 0.627980
Si Si4 0.500000 0.000000 0.500000
Si Si5 0.500000 0.500000 0.500000
Si Si6 0.754106 0.602767 0.911338
O O1 0.260693 0.395332 0.434171
O O2 0.270449 0.578248 0.526152
O O3 0.236954 0.433303 0.730423
O O4 0.105692 0.497542 0.571954
O O5 0.359696 0.300967 0.196705
O O6 0.503649 0.261075 0.995606
O O7 0.347021 0.152980 0.000000
O O8 0.335947 0.327860 0.905859
O O9 0.937930 0.932044 0.613406
O O10 0.838546 0.661455 0.000000
#
# Coordination Sequence:
#
# PCOD9558241 Si02
#       6
#     8   8   8   2   2   8
#     4  10  24  45  68 100 132 177 229 280 336 394
#     4  10  23  41  65  98 131 181 225 265 353 403
#     4   9  20  43  69  96 132 170 225 287 327 398
#     4  12  28  40  62 104 128 180 230 256 348 392
#     4   8  16  36  72 106 116 168 228 290 352 360
#     4  10  24  45  65  99 138 174 224 281 335 411
#
# _framework density 22.061229999999998
#
# number of rings (size 3 to 8) (size 9 to 14) (size 15 to 20)
#    0.000    2.222    0.000    0.000    6.222   12.444 
#    8.000    0.000    0.000    0.000    0.000    0.000 
#    0.000    0.000    0.000    0.000    0.000    0.000 
#
# Total GULP energy -200475.828477 kJ/mol
# GULP energy per Si atom -5568.773013 kJ/mol
# Density = 2.201102 g / cm^3
# Si number density = 22.061230 Si / 1000 Ang^3
#
#
#
# Elastic Constant Matrix: (Units=GPa)
#
#
# Indices 1 2 3 4 5 6 
#
# 1 108.3015 29.3420 3.5669 0.0000 0.0000 0.0000
# 2 29.3420 108.3026 3.5670 0.0000 0.0000 0.0000
# 3 3.5669 3.5670 37.3227 0.0000 0.0000 0.0000
# 4 0.0000 0.0000 0.0000 20.3262 0.0000 0.0000
# 5 0.0000 0.0000 0.0000 0.0000 20.3274 0.0000
# 6 0.0000 0.0000 0.0000 0.0000 0.0000 10.6583
#
#
#
# Elastic Compliance Matrix: (Units=1/GPa)
#
#
# Indices 1 2 3 4 5 6 
#
# 1 0.009983 -0.002682 -0.000698 0.000000 0.000000 0.000000
# 2 -0.002682 0.009983 -0.000698 0.000000 0.000000 0.000000
# 3 -0.000698 -0.000698 0.026927 0.000000 0.000000 0.000000
# 4 0.000000 0.000000 0.000000 0.049198 0.000000 0.000000
# 5 0.000000 0.000000 0.000000 0.000000 0.049195 0.000000
# 6 0.000000 0.000000 0.000000 0.000000 0.000000 0.093824
#
#
# Mechanical properties :
#
#
# Convention : Reuss Voigt Hill
#
# Bulk Modulus (GPa) = 25.81436 36.31983 31.06710
# Shear Modulus (GPa) = 19.21777 24.75911 21.98844
#
# Velocity S-wave (km/s) = 2.95466 3.35369 3.16048
# Velocity P-wave (km/s) = 4.83391 5.61207 5.23746
#
# Compressibility (1/GPa) = 0.03873813
#
# Stress axis : x y z
#
# Youngs Moduli (GPa) = 100.17021 100.17125 37.13786
#
# Poissons Ratio (x) = 0.26863 0.02591
# Poissons Ratio (y) = 0.26862 0.02591
# Poissons Ratio (z) = 0.06990 0.06990
#
# Static dielectric constant tensor:
#      x y z
#    x 1.866050 0.000000 0.000000 
#    y 0.000000 1.866050 0.000000 
#    z 0.000000 0.000000 1.853860 
# 
# From -- ./inp_files/1616.got.cif
#   From: 2010.05.17/outbox.cif.g08.bks.cpg/sg117_1_cif.got.tgz:1616.got - 2010.05.20 11:15:09.
