data_PCOD9558778
_publ_section_title
;
Structure prediction by ZEFSAII (Michael W. Deem and Ramdas Pophale) SiO2 
 PCOD9558778
Probable space group: P -4 N 2
;
_chemical_formula_sum "Si O2"
_cell_formula_units_Z 56
_cell_length_a 14.573419
_cell_length_b 14.573419
_cell_length_c 11.988482
_cell_angle_alpha 90.000000
_cell_angle_beta 90.000000
_cell_angle_gamma 90.000000
_cell_volume 2546.168251
_symmetry_space_group_name_H-M "P -4 N 2"
_symmetry_group_IT_number 118
_symmetry_cell_setting 'tetragonal'
loop_
_space_group_symop_operation_xyz
x,y,z
y,-x,-z
-x,-y,z
-y,x,-z
1/2+y,1/2+x,1/2-z
1/2-y,1/2-x,1/2-z
1/2-x,1/2+y,1/2+z
1/2+x,1/2-y,1/2+z
loop_
_atom_site_type_symbol
_atom_site_label
_atom_site_fract_x
_atom_site_fract_y
_atom_site_fract_z
Si Si1 0.080387 0.427112 0.380730
Si Si2 0.052636 0.128838 0.956697
Si Si3 0.013619 0.854491 0.334889
Si Si4 0.976392 0.147413 0.717739
Si Si5 0.547282 0.245756 0.036149
Si Si6 0.191556 0.575155 0.327587
Si Si7 0.720997 0.246613 0.384430
O O1 0.098006 0.401995 0.250000
O O2 0.052407 0.345844 0.461832
O O3 0.169841 0.488927 0.404904
O O4 0.000000 0.500000 0.391602
O O5 0.990894 0.149596 0.848825
O O6 0.129561 0.209182 0.941557
O O7 0.970619 0.107242 0.046999
O O8 0.004051 0.819328 0.459837
O O9 0.081825 0.939933 0.323780
O O10 0.051193 0.774460 0.255330
O O11 0.910294 0.885005 0.304005
O O12 0.993860 0.242721 0.653436
O O13 0.655370 0.258546 0.059169
O O14 0.105448 0.605448 0.250000
O O15 0.211373 0.667609 0.393068
O O16 0.720357 0.220357 0.250000
#
# Coordination Sequence:
#
# PCOD9558778 Si02
#       7
#     8   8   8   8   8   8   8
#     4  11  22  41  66 101 134 183 241 294 336 415
#     4  11  23  41  68  97 130 177 228 288 350 421
#     4  11  21  37  66  96 133 178 221 281 350 423
#     4  11  23  41  62  99 139 174 225 286 363 434
#     4  12  24  39  65  98 140 184 226 290 361 427
#     4  11  20  39  66  96 139 174 233 293 344 411
#     4  11  24  42  65  97 136 176 222 286 365 420
#
# _framework density 21.993834
#
# number of rings (size 3 to 8) (size 9 to 14) (size 15 to 20)
#    0.000    0.857    5.714    3.429    2.000    2.286 
#    0.000    0.000    0.000    0.429    0.000    0.000 
#    0.000    0.000    0.000    0.000    0.000    0.000 
#
# Total GULP energy -312041.828780 kJ/mol
# GULP energy per Si atom -5572.175514 kJ/mol
# Density = 2.194378 g / cm^3
# Si number density = 21.993834 Si / 1000 Ang^3
#
#
#
# Elastic Constant Matrix: (Units=GPa)
#
#
# Indices 1 2 3 4 5 6 
#
# 1 60.7879 15.5384 10.9798 0.0000 0.0000 0.0000
# 2 15.5384 60.7880 10.9799 0.0000 0.0000 0.0000
# 3 10.9798 10.9799 61.9403 0.0000 0.0000 0.0000
# 4 0.0000 0.0000 0.0000 16.0759 0.0000 0.0000
# 5 0.0000 0.0000 0.0000 0.0000 16.0757 0.0000
# 6 0.0000 0.0000 0.0000 0.0000 0.0000 42.3055
#
#
#
# Elastic Compliance Matrix: (Units=1/GPa)
#
#
# Indices 1 2 3 4 5 6 
#
# 1 0.017953 -0.004147 -0.002447 0.000000 0.000000 0.000000
# 2 -0.004147 0.017953 -0.002447 0.000000 0.000000 0.000000
# 3 -0.002447 -0.002447 0.017012 0.000000 0.000000 0.000000
# 4 0.000000 0.000000 0.000000 0.062205 0.000000 0.000000
# 5 0.000000 0.000000 0.000000 0.000000 0.062206 0.000000
# 6 0.000000 0.000000 0.000000 0.000000 0.000000 0.023638
#
#
# Mechanical properties :
#
#
# Convention : Reuss Voigt Hill
#
# Bulk Modulus (GPa) = 28.70710 28.72359 28.71535
# Shear Modulus (GPa) = 21.67690 24.62598 23.15144
#
# Velocity S-wave (km/s) = 3.14282 3.34979 3.24795
# Velocity P-wave (km/s) = 5.12351 5.29619 5.21057
#
# Compressibility (1/GPa) = 0.03483459
#
# Stress axis : x y z
#
# Youngs Moduli (GPa) = 55.70194 55.70201 58.78134
#
# Poissons Ratio (x) = 0.23099 0.14385
# Poissons Ratio (y) = 0.23099 0.14385
# Poissons Ratio (z) = 0.13632 0.13632
#
# Static dielectric constant tensor:
#      x y z
#    x 1.898540 0.000000 0.000000 
#    y 0.000000 1.898540 0.000000 
#    z 0.000000 0.000000 1.879810 
# 
# From -- ./inp_files/3416.got.cif
#   From: 2010.05.17/outbox.cif.g08.bks.cpg/sg118_2_cif.got.tgz:3416.got - 2010.05.20 11:17:24.
