data_PCOD9558298
_publ_section_title
;
Structure prediction by ZEFSAII (Michael W. Deem and Ramdas Pophale) SiO2 
 PCOD9558298
Probable space group: P -4 B 2
;
_chemical_formula_sum "Si O2"
_cell_formula_units_Z 40
_cell_length_a 13.934338
_cell_length_b 13.934338
_cell_length_c 8.688580
_cell_angle_alpha 90.000000
_cell_angle_beta 90.000000
_cell_angle_gamma 90.000000
_cell_volume 1687.024874
_symmetry_space_group_name_H-M "P -4 B 2"
_symmetry_group_IT_number 117
_symmetry_cell_setting 'tetragonal'
loop_
_space_group_symop_operation_xyz
x,y,z
y,-x,-z
-x,-y,z
-y,x,-z
1/2+y,1/2+x,-z
1/2-y,1/2-x,-z
1/2-x,1/2+y,z
1/2+x,1/2-y,z
loop_
_atom_site_type_symbol
_atom_site_label
_atom_site_fract_x
_atom_site_fract_y
_atom_site_fract_z
Si Si1 0.903574 0.833010 0.322792
Si Si2 0.000732 0.785787 0.830805
Si Si3 0.324153 0.634181 0.659797
Si Si4 0.612639 0.897094 0.323646
Si Si5 0.825730 0.550384 0.885192
O O1 0.857344 0.833294 0.490760
O O2 0.885677 0.734278 0.233183
O O3 0.018603 0.837078 0.341404
O O4 0.864464 0.921780 0.222652
O O5 0.895620 0.821778 0.784841
O O6 0.028844 0.691916 0.732028
O O7 0.004692 0.752345 0.007592
O O8 0.211846 0.654326 0.683722
O O9 0.585150 0.914851 0.500000
O O10 0.523195 0.890376 0.209589
O O11 0.887552 0.612449 0.000000
#
# Coordination Sequence:
#
# PCOD9558298 Si02
#       5
#     8   8   8   8   8
#     4  11  23  44  73 106 149 192 251 314 387 462
#     4  12  25  42  75 107 151 195 248 320 386 458
#     4  11  23  45  73 112 148 198 253 322 381 459
#     4  11  24  49  77 105 147 201 260 312 383 459
#     4  11  29  48  71 108 155 202 254 324 394 466
#
# _framework density 23.710377999999999
#
# number of rings (size 3 to 8) (size 9 to 14) (size 15 to 20)
#    0.000    0.800    4.000    2.400    8.400    1.600 
#    0.000    4.000    0.000    0.000    0.000    0.000 
#    0.000    0.000    0.000    0.000    0.000    0.000 
#
# Total GULP energy -224338.016432 kJ/mol
# GULP energy per Si atom -5608.450411 kJ/mol
# Density = 2.365641 g / cm^3
# Si number density = 23.710378 Si / 1000 Ang^3
#
#
#
# Elastic Constant Matrix: (Units=GPa)
#
#
# Indices 1 2 3 4 5 6 
#
# 1 87.8684 25.1135 31.8205 0.0000 0.0000 0.0000
# 2 25.1135 87.8683 31.8199 0.0000 0.0000 0.0000
# 3 31.8205 31.8199 121.3278 0.0000 0.0000 0.0000
# 4 0.0000 0.0000 0.0000 50.9536 0.0000 0.0000
# 5 0.0000 0.0000 0.0000 0.0000 50.9542 0.0000
# 6 0.0000 0.0000 0.0000 0.0000 0.0000 44.8113
#
#
#
# Elastic Compliance Matrix: (Units=1/GPa)
#
#
# Indices 1 2 3 4 5 6 
#
# 1 0.013160 -0.002775 -0.002724 0.000000 0.000000 0.000000
# 2 -0.002775 0.013160 -0.002724 0.000000 0.000000 0.000000
# 3 -0.002724 -0.002724 0.009671 0.000000 0.000000 0.000000
# 4 0.000000 0.000000 0.000000 0.019626 0.000000 0.000000
# 5 0.000000 0.000000 0.000000 0.000000 0.019625 0.000000
# 6 0.000000 0.000000 0.000000 0.000000 0.000000 0.022316
#
#
# Mechanical properties :
#
#
# Convention : Reuss Voigt Hill
#
# Bulk Modulus (GPa) = 51.16025 52.73023 51.94524
# Shear Modulus (GPa) = 41.48757 43.23119 42.35938
#
# Velocity S-wave (km/s) = 4.18756 4.27465 4.23133
# Velocity P-wave (km/s) = 6.70856 6.83016 6.76963
#
# Compressibility (1/GPa) = 0.01954642
#
# Stress axis : x y z
#
# Youngs Moduli (GPa) = 75.98718 75.98735 103.40412
#
# Poissons Ratio (x) = 0.21086 0.28164
# Poissons Ratio (y) = 0.21086 0.28164
# Poissons Ratio (z) = 0.20697 0.20696
#
# Static dielectric constant tensor:
#      x y z
#    x 1.917480 0.000000 0.000000 
#    y 0.000000 1.917490 0.000000 
#    z 0.000000 0.000000 1.866570 
# 
# From -- ./inp_files/1724.got.cif
#   From: 2010.05.17/outbox.cif.g08.bks.cpg/sg117_1_cif.got.tgz:1724.got - 2010.05.20 11:15:09.
