data_PCOD9558123
_publ_section_title
;
Structure prediction by ZEFSAII (Michael W. Deem and Ramdas Pophale) SiO2 
 PCOD9558123
Probable space group: P -4 B 2
;
_chemical_formula_sum "Si O2"
_cell_formula_units_Z 48
_cell_length_a 16.827807
_cell_length_b 16.827807
_cell_length_c 9.613684
_cell_angle_alpha 90.000000
_cell_angle_beta 90.000000
_cell_angle_gamma 90.000000
_cell_volume 2722.355817
_symmetry_space_group_name_H-M "P -4 B 2"
_symmetry_group_IT_number 117
_symmetry_cell_setting 'tetragonal'
loop_
_space_group_symop_operation_xyz
x,y,z
y,-x,-z
-x,-y,z
-y,x,-z
1/2+y,1/2+x,-z
1/2-y,1/2-x,-z
1/2-x,1/2+y,z
1/2+x,1/2-y,z
loop_
_atom_site_type_symbol
_atom_site_label
_atom_site_fract_x
_atom_site_fract_y
_atom_site_fract_z
Si Si1 0.255125 0.970984 0.759882
Si Si2 0.774448 0.399153 0.999367
Si Si3 0.433671 0.935833 0.333394
Si Si4 0.017139 0.255217 0.757914
Si Si5 0.858074 0.767575 0.997832
Si Si6 0.006178 0.135442 0.498065
O O1 0.194074 0.990228 0.635694
O O2 0.344814 0.951168 0.710698
O O3 0.220865 0.899526 0.853722
O O4 0.264135 0.040723 0.872619
O O5 0.759374 0.438568 0.148390
O O6 0.710720 0.330527 0.977549
O O7 0.861371 0.361371 0.000000
O O8 0.437090 0.937090 0.500000
O O9 0.344700 0.960833 0.288917
O O10 0.500000 0.000000 0.282013
O O11 0.010083 0.193866 0.631213
O O12 0.082769 0.226681 0.868844
O O13 0.819915 0.680086 0.000000
O O14 0.080449 0.073287 0.499680
#
# Coordination Sequence:
#
# PCOD9558123 Si02
#       6
#     8   8   8   8   8   8
#     4  11  21  39  61  86 118 159 193 245 296 354
#     4  10  22  37  57  88 121 149 198 242 285 346
#     4  11  22  37  61  89 123 155 197 242 301 356
#     4  11  21  39  61  86 118 159 193 245 296 354
#     4  10  20  36  58  85 116 157 192 236 290 347
#     4  11  24  41  62  87 117 156 203 249 295 352
#
# _framework density 17.631786999999999
#
# number of rings (size 3 to 8) (size 9 to 14) (size 15 to 20)
#    0.000    1.333    3.333    3.000    0.000    0.000 
#    0.000    2.500    3.667    8.000    0.000    0.000 
#    0.000    0.000    0.000    0.000    0.000    0.000 
#
# Total GULP energy -267735.949242 kJ/mol
# GULP energy per Si atom -5577.832276 kJ/mol
# Density = 1.759166 g / cm^3
# Si number density = 17.631787 Si / 1000 Ang^3
#
#
#
# Elastic Constant Matrix: (Units=GPa)
#
#
# Indices 1 2 3 4 5 6 
#
# 1 86.3119 30.0969 35.7807 0.0000 0.0000 0.0000
# 2 30.0969 86.3130 35.7809 0.0000 0.0000 0.0000
# 3 35.7807 35.7809 117.8060 0.0000 0.0000 0.0000
# 4 0.0000 0.0000 0.0000 16.6639 0.0000 0.0000
# 5 0.0000 0.0000 0.0000 0.0000 16.6632 0.0000
# 6 0.0000 0.0000 0.0000 0.0000 0.0000 30.4898
#
#
#
# Elastic Compliance Matrix: (Units=1/GPa)
#
#
# Indices 1 2 3 4 5 6 
#
# 1 0.014176 -0.003613 -0.003208 0.000000 0.000000 0.000000
# 2 -0.003613 0.014176 -0.003208 0.000000 0.000000 0.000000
# 3 -0.003208 -0.003208 0.010437 0.000000 0.000000 0.000000
# 4 0.000000 0.000000 0.000000 0.060010 0.000000 0.000000
# 5 0.000000 0.000000 0.000000 0.000000 0.060013 0.000000
# 6 0.000000 0.000000 0.000000 0.000000 0.000000 0.032798
#
#
# Mechanical properties :
#
#
# Convention : Reuss Voigt Hill
#
# Bulk Modulus (GPa) = 53.39055 54.86088 54.12572
# Shear Modulus (GPa) = 22.94516 25.34820 24.14668
#
# Velocity S-wave (km/s) = 3.61134 3.79574 3.70469
# Velocity P-wave (km/s) = 6.90910 7.09877 7.00457
#
# Compressibility (1/GPa) = 0.01872990
#
# Stress axis : x y z
#
# Youngs Moduli (GPa) = 70.54319 70.54418 95.81012
#
# Poissons Ratio (x) = 0.25488 0.30737
# Poissons Ratio (y) = 0.25488 0.30737
# Poissons Ratio (z) = 0.22631 0.22631
#
# Static dielectric constant tensor:
#      x y z
#    x 1.601840 0.000000 0.000000 
#    y 0.000000 1.601830 0.000000 
#    z 0.000000 0.000000 1.569920 
# 
# From -- ./inp_files/1934.got.cif
#   From: 2010.05.17/outbox.cif.g08.bks.cpg/sg117_1_cif.got.tgz:1934.got - 2010.05.20 11:15:09.
