data_PCOD9558768
_publ_section_title
;
Structure prediction by ZEFSAII (Michael W. Deem and Ramdas Pophale) SiO2 
 PCOD9558768
Probable space group: P -4 N 2
;
_chemical_formula_sum "Si O2"
_cell_formula_units_Z 50
_cell_length_a 14.831061
_cell_length_b 14.831061
_cell_length_c 11.381871
_cell_angle_alpha 90.000000
_cell_angle_beta 90.000000
_cell_angle_gamma 90.000000
_cell_volume 2503.560561
_symmetry_space_group_name_H-M "P -4 N 2"
_symmetry_group_IT_number 118
_symmetry_cell_setting 'tetragonal'
loop_
_space_group_symop_operation_xyz
x,y,z
y,-x,-z
-x,-y,z
-y,x,-z
1/2+y,1/2+x,1/2-z
1/2-y,1/2-x,1/2-z
1/2-x,1/2+y,1/2+z
1/2+x,1/2-y,1/2+z
loop_
_atom_site_type_symbol
_atom_site_label
_atom_site_fract_x
_atom_site_fract_y
_atom_site_fract_z
Si Si1 0.500000 0.000000 0.750000
Si Si2 0.111617 0.897998 0.970993
Si Si3 0.640456 0.282121 0.770861
Si Si4 0.034418 0.690476 0.336074
Si Si5 0.446159 0.594959 0.146635
Si Si6 0.707818 0.337297 0.314273
Si Si7 0.408909 0.293182 0.047945
O O1 0.589384 0.998253 0.671932
O O2 0.165882 0.826986 0.053499
O O3 0.153935 0.882720 0.840691
O O4 0.003639 0.878013 0.988231
O O5 0.685539 0.185539 0.750000
O O6 0.547485 0.261073 0.836788
O O7 0.708314 0.327786 0.862253
O O8 0.089083 0.715375 0.217282
O O9 0.088778 0.713396 0.454179
O O10 0.500000 0.500000 0.163745
O O11 0.378369 0.618557 0.250388
O O12 0.506884 0.683629 0.130176
O O13 0.383548 0.591228 0.031716
O O14 0.747358 0.247358 0.250000
#
# Coordination Sequence:
#
# PCOD9558768 Si02
#       7
#     2   8   8   8   8   8   8
#     4  12  24  44  64  92 130 180 228 264 318 388
#     4  11  25  42  65  97 137 172 210 278 351 409
#     4  12  25  41  62  97 132 172 218 270 335 399
#     4  11  23  40  64  91 127 171 224 269 315 388
#     4  11  19  34  64  94 126 155 209 271 333 384
#     4  11  24  39  63  92 130 173 214 263 334 404
#     4  11  20  37  63  97 123 160 208 279 331 380
#
# _framework density 19.971558000000002
#
# number of rings (size 3 to 8) (size 9 to 14) (size 15 to 20)
#    0.000    0.800    6.400    1.920    6.720    0.000 
#    2.880    0.000    0.000    0.000    0.000    1.120 
#    0.000    0.000    0.000    0.000    0.000    0.000 
#
# Total GULP energy -278674.911787 kJ/mol
# GULP energy per Si atom -5573.498236 kJ/mol
# Density = 1.992610 g / cm^3
# Si number density = 19.971558 Si / 1000 Ang^3
#
#
#
# Elastic Constant Matrix: (Units=GPa)
#
#
# Indices 1 2 3 4 5 6 
#
# 1 74.6397 12.5217 32.3079 0.0000 0.0000 0.0000
# 2 12.5217 74.6397 32.3079 0.0000 0.0000 0.0000
# 3 32.3079 32.3079 93.0277 0.0000 0.0000 0.0000
# 4 0.0000 0.0000 0.0000 23.1038 0.0000 0.0000
# 5 0.0000 0.0000 0.0000 0.0000 23.1038 0.0000
# 6 0.0000 0.0000 0.0000 0.0000 0.0000 30.9542
#
#
#
# Elastic Compliance Matrix: (Units=1/GPa)
#
#
# Indices 1 2 3 4 5 6 
#
# 1 0.015775 -0.000324 -0.005366 0.000000 0.000000 0.000000
# 2 -0.000324 0.015775 -0.005366 0.000000 0.000000 0.000000
# 3 -0.005366 -0.005366 0.014477 0.000000 0.000000 0.000000
# 4 0.000000 0.000000 0.000000 0.043283 0.000000 0.000000
# 5 0.000000 0.000000 0.000000 0.000000 0.043283 0.000000
# 6 0.000000 0.000000 0.000000 0.000000 0.000000 0.032306
#
#
# Mechanical properties :
#
#
# Convention : Reuss Voigt Hill
#
# Bulk Modulus (GPa) = 41.81556 44.06465 42.94010
# Shear Modulus (GPa) = 25.64357 26.44367 26.04362
#
# Velocity S-wave (km/s) = 3.58719 3.64272 3.61506
# Velocity P-wave (km/s) = 6.17578 6.30905 6.24277
#
# Compressibility (1/GPa) = 0.02391455
#
# Stress axis : x y z
#
# Youngs Moduli (GPa) = 63.39271 63.39271 69.07674
#
# Poissons Ratio (x) = 0.02052 0.37067
# Poissons Ratio (y) = 0.02052 0.37067
# Poissons Ratio (z) = 0.34017 0.34017
#
# Static dielectric constant tensor:
#      x y z
#    x 1.763200 0.000000 0.000000 
#    y 0.000000 1.763200 0.000000 
#    z 0.000000 0.000000 1.809120 
# 
# From -- ./inp_files/3359.got.cif
#   From: 2010.05.17/outbox.cif.g08.bks.cpg/sg118_2_cif.got.tgz:3359.got - 2010.05.20 11:17:24.
