data_PCOD9558757
_publ_section_title
;
Structure prediction by ZEFSAII (Michael W. Deem and Ramdas Pophale) SiO2 
 PCOD9558757
Probable space group: P -4 N 2
;
_chemical_formula_sum "Si O2"
_cell_formula_units_Z 40
_cell_length_a 18.328261
_cell_length_b 18.328261
_cell_length_c 4.838888
_cell_angle_alpha 90.000000
_cell_angle_beta 90.000000
_cell_angle_gamma 90.000000
_cell_volume 1625.504183
_symmetry_space_group_name_H-M "P -4 N 2"
_symmetry_group_IT_number 118
_symmetry_cell_setting 'tetragonal'
loop_
_space_group_symop_operation_xyz
x,y,z
y,-x,-z
-x,-y,z
-y,x,-z
1/2+y,1/2+x,1/2-z
1/2-y,1/2-x,1/2-z
1/2-x,1/2+y,1/2+z
1/2+x,1/2-y,1/2+z
loop_
_atom_site_type_symbol
_atom_site_label
_atom_site_fract_x
_atom_site_fract_y
_atom_site_fract_z
Si Si1 0.576935 0.365762 0.214759
Si Si2 0.735847 0.969066 0.466877
Si Si3 0.673187 0.345188 0.744384
Si Si4 0.500000 0.000000 0.750000
Si Si5 0.522765 0.156387 0.507472
Si Si6 0.000000 0.000000 0.000000
Si Si7 0.821757 0.678244 0.250000
O O1 0.522283 0.299368 0.150597
O O2 0.643629 0.347467 0.429741
O O3 0.536565 0.435498 0.328442
O O4 0.610822 0.384171 0.920745
O O5 0.755849 0.889206 0.348040
O O6 0.715931 0.982288 0.788144
O O7 0.666632 0.999073 0.305117
O O8 0.673947 0.261763 0.849586
O O9 0.498284 0.924421 0.587550
O O10 0.609171 0.169428 0.548322
#
# Coordination Sequence:
#
# PCOD9558757 Si02
#       7
#     8   8   8   2   8   2   4
#     4  12  25  43  67 106 143 191 242 286 349 430
#     4  12  24  46  71 104 148 181 234 306 348 423
#     4  12  27  42  72 104 144 188 244 292 361 430
#     4  10  28  50  80 110 132 190 248 292 388 438
#     4  11  26  47  76 103 145 183 242 304 360 438
#     4  12  28  42  76 102 156 202 240 298 360 434
#     4  11  24  47  70 104 136 193 232 295 362 426
#
# _framework density 24.607747
#
# number of rings (size 3 to 8) (size 9 to 14) (size 15 to 20)
#    0.000    0.400    6.000    1.200    2.800    9.600 
#    0.000    0.000    0.000    0.000    0.000    0.000 
#    0.000    0.000    0.000    0.000    0.000    0.000 
#
# Total GULP energy -223814.809575 kJ/mol
# GULP energy per Si atom -5595.370239 kJ/mol
# Density = 2.455174 g / cm^3
# Si number density = 24.607747 Si / 1000 Ang^3
#
#
#
# Elastic Constant Matrix: (Units=GPa)
#
#
# Indices 1 2 3 4 5 6 
#
# 1 104.4687 30.1570 3.6004 0.0000 0.0000 0.0000
# 2 30.1570 104.4681 3.6011 0.0000 0.0000 0.0000
# 3 3.6004 3.6011 88.8271 0.0000 0.0000 0.0000
# 4 0.0000 0.0000 0.0000 19.6385 0.0000 0.0000
# 5 0.0000 0.0000 0.0000 0.0000 19.6389 0.0000
# 6 0.0000 0.0000 0.0000 0.0000 0.0000 42.8101
#
#
#
# Elastic Compliance Matrix: (Units=1/GPa)
#
#
# Indices 1 2 3 4 5 6 
#
# 1 0.010450 -0.003006 -0.000302 0.000000 0.000000 0.000000
# 2 -0.003006 0.010451 -0.000302 0.000000 0.000000 0.000000
# 3 -0.000302 -0.000302 0.011282 0.000000 0.000000 0.000000
# 4 0.000000 0.000000 0.000000 0.050920 0.000000 0.000000
# 5 0.000000 0.000000 0.000000 0.000000 0.050919 0.000000
# 6 0.000000 0.000000 0.000000 0.000000 0.000000 0.023359
#
#
# Mechanical properties :
#
#
# Convention : Reuss Voigt Hill
#
# Bulk Modulus (GPa) = 40.05839 41.38678 40.72258
# Shear Modulus (GPa) = 28.91462 33.77787 31.34625
#
# Velocity S-wave (km/s) = 3.43158 3.70895 3.57296
# Velocity P-wave (km/s) = 5.65819 5.93269 5.79707
#
# Compressibility (1/GPa) = 0.02496356
#
# Stress axis : x y z
#
# Youngs Moduli (GPa) = 95.68922 95.68868 88.63450
#
# Poissons Ratio (x) = 0.28768 0.02674
# Poissons Ratio (y) = 0.28768 0.02675
# Poissons Ratio (z) = 0.02887 0.02888
#
# Static dielectric constant tensor:
#      x y z
#    x 2.034950 0.000000 0.000000 
#    y 0.000000 2.034950 0.000000 
#    z 0.000000 0.000000 1.908420 
# 
# From -- ./inp_files/673.got.cif
#   From: 2010.05.17/outbox.cif.g08.bks.cpg/sg118_1_cif.got.tgz:673.got - 2010.05.20 11:17:24.
