data_PCOD9558861
_publ_section_title
;
Structure prediction by ZEFSAII (Michael W. Deem and Ramdas Pophale) SiO2 
 PCOD9558861
Probable space group: P -4 N 2
;
_chemical_formula_sum "Si O2"
_cell_formula_units_Z 22
_cell_length_a 5.360565
_cell_length_b 5.360565
_cell_length_c 29.129970
_cell_angle_alpha 90.000000
_cell_angle_beta 90.000000
_cell_angle_gamma 90.000000
_cell_volume 837.068830
_symmetry_space_group_name_H-M "P -4 N 2"
_symmetry_group_IT_number 118
_symmetry_cell_setting 'tetragonal'
loop_
_space_group_symop_operation_xyz
x,y,z
y,-x,-z
-x,-y,z
-y,x,-z
1/2+y,1/2+x,1/2-z
1/2-y,1/2-x,1/2-z
1/2-x,1/2+y,1/2+z
1/2+x,1/2-y,1/2+z
loop_
_atom_site_type_symbol
_atom_site_label
_atom_site_fract_x
_atom_site_fract_y
_atom_site_fract_z
Si Si1 0.500000 0.000000 0.959020
Si Si2 0.337577 0.253719 0.801146
Si Si3 0.366333 0.748479 0.398479
Si Si4 0.500000 0.500000 0.000000
O O1 0.398840 0.207956 0.921590
O O2 0.623638 0.216967 0.990329
O O3 0.500000 0.500000 0.809071
O O4 0.227530 0.272471 0.750000
O O5 0.149553 0.241587 0.843363
O O6 0.500000 0.000000 0.802680
O O7 0.500000 0.500000 0.415149
O O8 0.500000 0.000000 0.411500
#
# Coordination Sequence:
#
# PCOD9558861 Si02
#       4
#     4   8   8   2
#     4  12  30  54  77 120 154 208 261 348 404 512
#     4  11  24  45  73 111 161 208 262 320 384 461
#     4  12  26  46  81 113 158 209 264 327 396 476
#     4  12  32  52  88 112 168 200 272 336 432 484
#
# _framework density 26.282184000000001
#
# number of rings (size 3 to 8) (size 9 to 14) (size 15 to 20)
#    0.000    0.364    1.818    5.455   10.182    3.636 
#    0.000    0.000    0.000    0.000    0.000    0.000 
#    0.000    0.000    0.000    0.000    0.000    0.000 
#
# Total GULP energy -122582.843459 kJ/mol
# GULP energy per Si atom -5571.947430 kJ/mol
# Density = 2.622236 g / cm^3
# Si number density = 26.282184 Si / 1000 Ang^3
#
#
#
# Elastic Constant Matrix: (Units=GPa)
#
#
# Indices 1 2 3 4 5 6 
#
# 1 171.9542 43.7555 10.6807 0.0000 0.0000 0.0000
# 2 43.7555 171.9541 10.6807 0.0000 0.0000 0.0000
# 3 10.6807 10.6807 105.3274 0.0000 0.0000 0.0000
# 4 0.0000 0.0000 0.0000 36.8723 0.0000 0.0000
# 5 0.0000 0.0000 0.0000 0.0000 36.8721 0.0000
# 6 0.0000 0.0000 0.0000 0.0000 0.0000 55.4883
#
#
#
# Elastic Compliance Matrix: (Units=1/GPa)
#
#
# Indices 1 2 3 4 5 6 
#
# 1 0.006242 -0.001559 -0.000475 0.000000 0.000000 0.000000
# 2 -0.001559 0.006242 -0.000475 0.000000 0.000000 0.000000
# 3 -0.000475 -0.000475 0.009591 0.000000 0.000000 0.000000
# 4 0.000000 0.000000 0.000000 0.027121 0.000000 0.000000
# 5 0.000000 0.000000 0.000000 0.000000 0.027121 0.000000
# 6 0.000000 0.000000 0.000000 0.000000 0.000000 0.018022
#
#
# Mechanical properties :
#
#
# Convention : Reuss Voigt Hill
#
# Bulk Modulus (GPa) = 58.62757 64.38548 61.50653
# Shear Modulus (GPa) = 47.60111 51.45446 49.52778
#
# Velocity S-wave (km/s) = 4.26038 4.42947 4.34575
# Velocity P-wave (km/s) = 6.82324 7.12118 6.97380
#
# Compressibility (1/GPa) = 0.01705682
#
# Stress axis : x y z
#
# Youngs Moduli (GPa) = 160.21431 160.21422 104.26968
#
# Poissons Ratio (x) = 0.24973 0.04951
# Poissons Ratio (y) = 0.24973 0.04951
# Poissons Ratio (z) = 0.07608 0.07608
#
# Static dielectric constant tensor:
#      x y z
#    x 1.750650 0.000000 0.000000 
#    y 0.000000 1.750660 0.000000 
#    z 0.000000 0.000000 2.175230 
# 
# From -- ./inp_files/6636.got.cif
#   From: 2010.05.17/outbox.cif.g08.bks.cpg/sg118_4_cif.got.tgz:6636.got - 2010.05.20 11:17:24.
