data_PCOD9558504
_publ_section_title
;
Structure prediction by ZEFSAII (Michael W. Deem and Ramdas Pophale) SiO2 
 PCOD9558504
Probable space group: P -4 N 2
;
_chemical_formula_sum "Si O2"
_cell_formula_units_Z 42
_cell_length_a 19.070994
_cell_length_b 19.070994
_cell_length_c 6.455757
_cell_angle_alpha 90.000000
_cell_angle_beta 90.000000
_cell_angle_gamma 90.000000
_cell_volume 2347.976975
_symmetry_space_group_name_H-M "P -4 N 2"
_symmetry_group_IT_number 118
_symmetry_cell_setting 'tetragonal'
loop_
_space_group_symop_operation_xyz
x,y,z
y,-x,-z
-x,-y,z
-y,x,-z
1/2+y,1/2+x,1/2-z
1/2-y,1/2-x,1/2-z
1/2-x,1/2+y,1/2+z
1/2+x,1/2-y,1/2+z
loop_
_atom_site_type_symbol
_atom_site_label
_atom_site_fract_x
_atom_site_fract_y
_atom_site_fract_z
Si Si1 0.549019 0.636740 0.246055
Si Si2 0.000000 0.000000 0.000000
Si Si3 0.815654 0.574560 0.834622
Si Si4 0.996041 0.246740 0.045122
Si Si5 0.681252 0.572582 0.074511
Si Si6 0.885537 0.501484 0.195555
O O1 0.527891 0.564039 0.358488
O O2 0.557673 0.696948 0.421066
O O3 0.619117 0.626531 0.113438
O O4 0.486410 0.656768 0.089153
O O5 0.867650 0.632350 0.750000
O O6 0.776439 0.544325 0.636667
O O7 0.755241 0.601469 0.990166
O O8 0.858826 0.514867 0.961130
O O9 0.036311 0.197314 0.206157
O O10 0.979112 0.316529 0.175877
O O11 0.923938 0.576063 0.250000
O O12 0.943499 0.443499 0.250000
#
# Coordination Sequence:
#
# PCOD9558504 Si02
#       6
#     8   2   8   8   8   8
#     4  11  21  36  56  89 120 152 202 253 301 354
#     4  12  20  34  60  92 110 152 208 258 304 368
#     4  10  20  37  60  86 119 157 202 250 297 361
#     4  10  21  37  57  86 120 153 194 248 302 357
#     4  10  22  35  59  84 119 157 196 252 300 352
#     4  10  20  36  61  93 120 149 194 249 304 361
#
# _framework density 17.887740999999998
#
# number of rings (size 3 to 8) (size 9 to 14) (size 15 to 20)
#    0.000    1.714    3.810    1.143    0.000    0.762 
#    0.000    0.000    0.000   27.429    0.000    0.000 
#    0.000    0.000    0.000    0.000    0.000    0.000 
#
# Total GULP energy -233903.857281 kJ/mol
# GULP energy per Si atom -5569.139459 kJ/mol
# Density = 1.784703 g / cm^3
# Si number density = 17.887741 Si / 1000 Ang^3
#
#
#
# Elastic Constant Matrix: (Units=GPa)
#
#
# Indices 1 2 3 4 5 6 
#
# 1 86.1676 40.4597 32.8789 0.0000 0.0000 0.0000
# 2 40.4597 86.1658 32.8786 0.0000 0.0000 0.0000
# 3 32.8789 32.8786 99.0021 0.0000 0.0000 0.0000
# 4 0.0000 0.0000 0.0000 21.4145 0.0000 0.0000
# 5 0.0000 0.0000 0.0000 0.0000 21.4149 0.0000
# 6 0.0000 0.0000 0.0000 0.0000 0.0000 12.6941
#
#
#
# Elastic Compliance Matrix: (Units=1/GPa)
#
#
# Indices 1 2 3 4 5 6 
#
# 1 0.015711 -0.006168 -0.003169 0.000000 0.000000 0.000000
# 2 -0.006168 0.015711 -0.003169 0.000000 0.000000 0.000000
# 3 -0.003169 -0.003169 0.012206 0.000000 0.000000 0.000000
# 4 0.000000 0.000000 0.000000 0.046697 0.000000 0.000000
# 5 0.000000 0.000000 0.000000 0.000000 0.046696 0.000000
# 6 0.000000 0.000000 0.000000 0.000000 0.000000 0.078777
#
#
# Mechanical properties :
#
#
# Convention : Reuss Voigt Hill
#
# Bulk Modulus (GPa) = 53.72044 53.75221 53.73633
# Shear Modulus (GPa) = 20.24166 22.11259 21.17713
#
# Velocity S-wave (km/s) = 3.36757 3.51976 3.44450
# Velocity P-wave (km/s) = 6.72442 6.82885 6.77684
#
# Compressibility (1/GPa) = 0.01861489
#
# Stress axis : x y z
#
# Youngs Moduli (GPa) = 63.65127 63.64992 81.92808
#
# Poissons Ratio (x) = 0.39258 0.25965
# Poissons Ratio (y) = 0.39258 0.25965
# Poissons Ratio (z) = 0.20173 0.20172
#
# Static dielectric constant tensor:
#      x y z
#    x 1.623720 0.000000 0.000000 
#    y 0.000000 1.623720 0.000000 
#    z 0.000000 0.000000 1.631220 
# 
# From -- ./inp_files/776.got.cif
#   From: 2010.05.17/outbox.cif.g08.bks.cpg/sg118_1_cif.got.tgz:776.got - 2010.05.20 11:17:24.
