data_PCOD9558471
_publ_section_title
;
Structure prediction by ZEFSAII (Michael W. Deem and Ramdas Pophale) SiO2 
 PCOD9558471
Probable space group: P -4 N 2
;
_chemical_formula_sum "Si O2"
_cell_formula_units_Z 22
_cell_length_a 8.165207
_cell_length_b 8.165207
_cell_length_c 12.049460
_cell_angle_alpha 90.000000
_cell_angle_beta 90.000000
_cell_angle_gamma 90.000000
_cell_volume 803.344792
_symmetry_space_group_name_H-M "P -4 N 2"
_symmetry_group_IT_number 118
_symmetry_cell_setting 'tetragonal'
loop_
_space_group_symop_operation_xyz
x,y,z
y,-x,-z
-x,-y,z
-y,x,-z
1/2+y,1/2+x,1/2-z
1/2-y,1/2-x,1/2-z
1/2-x,1/2+y,1/2+z
1/2+x,1/2-y,1/2+z
loop_
_atom_site_type_symbol
_atom_site_label
_atom_site_fract_x
_atom_site_fract_y
_atom_site_fract_z
Si Si1 0.000000 0.000000 0.652242
Si Si2 0.689989 0.532691 0.360159
Si Si3 0.500000 0.000000 0.250000
Si Si4 0.811033 0.697671 0.576203
O O1 0.053757 0.163707 0.590006
O O2 0.848069 0.061164 0.731128
O O3 0.500000 0.500000 0.394152
O O4 0.775669 0.645411 0.450751
O O5 0.771515 0.356346 0.376212
O O6 0.545271 0.141129 0.341385
#
# Coordination Sequence:
#
# PCOD9558471 Si02
#       4
#     4   8   2   8
#     4  10  22  41  80 129 160 218 289 351 420 516
#     4  10  19  41  79 117 166 219 266 346 433 494
#     4  12  24  40  72 112 172 230 280 356 428 504
#     4  12  21  42  77 120 165 225 281 353 431 506
#
# _framework density 27.385501000000001
#
# number of rings (size 3 to 8) (size 9 to 14) (size 15 to 20)
#    1.091    0.000    7.273    0.000    0.000    0.000 
#    0.000    3.636    0.000    0.000    0.000   10.182 
#    0.000    0.000    0.000    0.000    0.000    0.000 
#
# Total GULP energy -122743.352776 kJ/mol
# GULP energy per Si atom -5579.243308 kJ/mol
# Density = 2.732317 g / cm^3
# Si number density = 27.385501 Si / 1000 Ang^3
#
#
#
# Elastic Constant Matrix: (Units=GPa)
#
#
# Indices 1 2 3 4 5 6 
#
# 1 114.4781 67.4213 92.9789 0.0000 0.0000 0.0000
# 2 67.4213 114.4781 92.9789 0.0000 0.0000 0.0000
# 3 92.9789 92.9789 196.9250 0.0000 0.0000 0.0000
# 4 0.0000 0.0000 0.0000 57.1395 0.0000 0.0000
# 5 0.0000 0.0000 0.0000 0.0000 57.1395 0.0000
# 6 0.0000 0.0000 0.0000 0.0000 0.0000 59.2938
#
#
#
# Elastic Compliance Matrix: (Units=1/GPa)
#
#
# Indices 1 2 3 4 5 6 
#
# 1 0.015939 -0.005312 -0.005018 0.000000 0.000000 0.000000
# 2 -0.005312 0.015939 -0.005018 0.000000 0.000000 0.000000
# 3 -0.005018 -0.005018 0.009816 0.000000 0.000000 0.000000
# 4 0.000000 0.000000 0.000000 0.017501 0.000000 0.000000
# 5 0.000000 0.000000 0.000000 0.000000 0.017501 0.000000
# 6 0.000000 0.000000 0.000000 0.000000 0.000000 0.016865
#
#
# Mechanical properties :
#
#
# Convention : Reuss Voigt Hill
#
# Bulk Modulus (GPa) = 90.90927 103.62659 97.26793
# Shear Modulus (GPa) = 39.08615 46.21472 42.65043
#
# Velocity S-wave (km/s) = 3.78200 4.11245 3.95068
# Velocity P-wave (km/s) = 7.23461 7.77636 7.51037
#
# Compressibility (1/GPa) = 0.01099998
#
# Stress axis : x y z
#
# Youngs Moduli (GPa) = 62.73908 62.73908 101.87152
#
# Poissons Ratio (x) = 0.33326 0.51116
# Poissons Ratio (y) = 0.33326 0.51116
# Poissons Ratio (z) = 0.31480 0.31480
#
# Static dielectric constant tensor:
#      x y z
#    x 2.375270 0.000000 0.000000 
#    y 0.000000 2.375270 0.000000 
#    z 0.000000 0.000000 2.248090 
# 
# From -- ./inp_files/3590.got.cif
#   From: 2010.05.17/outbox.cif.g08.bks.cpg/sg118_2_cif.got.tgz:3590.got - 2010.05.20 11:17:24.
