data_PCOD9558518
_publ_section_title
;
Structure prediction by ZEFSAII (Michael W. Deem and Ramdas Pophale) SiO2 
 PCOD9558518
Probable space group: P -4 N 2
;
_chemical_formula_sum "Si O2"
_cell_formula_units_Z 48
_cell_length_a 8.900594
_cell_length_b 8.900594
_cell_length_c 29.057419
_cell_angle_alpha 90.000000
_cell_angle_beta 90.000000
_cell_angle_gamma 90.000000
_cell_volume 2301.945399
_symmetry_space_group_name_H-M "P -4 N 2"
_symmetry_group_IT_number 118
_symmetry_cell_setting 'tetragonal'
loop_
_space_group_symop_operation_xyz
x,y,z
y,-x,-z
-x,-y,z
-y,x,-z
1/2+y,1/2+x,1/2-z
1/2-y,1/2-x,1/2-z
1/2-x,1/2+y,1/2+z
1/2+x,1/2-y,1/2+z
loop_
_atom_site_type_symbol
_atom_site_label
_atom_site_fract_x
_atom_site_fract_y
_atom_site_fract_z
Si Si1 0.821019 0.186927 0.704417
Si Si2 0.821568 0.830538 0.705816
Si Si3 0.787020 0.647063 0.892582
Si Si4 0.290438 0.590528 0.018925
Si Si5 0.300830 0.145977 0.111940
Si Si6 0.300634 0.593403 0.520262
O O1 0.740843 0.240843 0.750000
O O2 0.760810 0.286023 0.661497
O O3 0.000770 0.207690 0.710787
O O4 0.800029 0.008643 0.699754
O O5 0.733995 0.766006 0.750000
O O6 0.784200 0.760299 0.656400
O O7 0.668316 0.698214 0.931412
O O8 0.779404 0.464865 0.895273
O O9 0.965902 0.678399 0.893293
O O10 0.417023 0.670927 0.986651
O O11 0.132812 0.635134 0.996744
O O12 0.183359 0.167678 0.070373
O O13 0.418381 0.665567 0.484474
#
# Coordination Sequence:
#
# PCOD9558518 Si02
#       6
#     8   8   8   8   8   8
#     4  10  22  40  65  94 124 162 205 259 319 377
#     4  10  22  40  65  93 126 159 207 261 314 380
#     4  10  20  37  63  92 121 164 211 259 310 370
#     4  11  23  36  62  91 126 166 210 259 309 366
#     4  10  20  38  63  88 124 165 211 259 307 375
#     4  11  23  40  59  87 126 168 211 258 308 367
#
# _framework density 20.851929999999999
#
# number of rings (size 3 to 8) (size 9 to 14) (size 15 to 20)
#    0.000    1.667    3.333    1.000    2.333    4.000 
#    3.000    1.667    0.000    0.000    0.000    0.000 
#    0.000    0.000    0.000    0.000    0.000    0.000 
#
# Total GULP energy -267486.933721 kJ/mol
# GULP energy per Si atom -5572.644453 kJ/mol
# Density = 2.080447 g / cm^3
# Si number density = 20.851930 Si / 1000 Ang^3
#
#
#
# Elastic Constant Matrix: (Units=GPa)
#
#
# Indices 1 2 3 4 5 6 
#
# 1 26.6772 26.3373 28.2972 0.0000 0.0000 0.0000
# 2 26.3373 26.6766 28.2961 0.0000 0.0000 0.0000
# 3 28.2972 28.2961 157.7452 0.0000 0.0000 0.0000
# 4 0.0000 0.0000 0.0000 27.8104 0.0000 0.0000
# 5 0.0000 0.0000 0.0000 0.0000 27.8104 0.0000
# 6 0.0000 0.0000 0.0000 0.0000 0.0000 29.9420
#
#
#
# Elastic Compliance Matrix: (Units=1/GPa)
#
#
# Indices 1 2 3 4 5 6 
#
# 1 1.484238 -1.460914 -0.004194 0.000000 0.000000 0.000000
# 2 -1.460914 1.484251 -0.004176 0.000000 0.000000 0.000000
# 3 -0.004194 -0.004176 0.007841 0.000000 0.000000 0.000000
# 4 0.000000 0.000000 0.000000 0.035958 0.000000 0.000000
# 5 0.000000 0.000000 0.000000 0.000000 0.035958 0.000000
# 6 0.000000 0.000000 0.000000 0.000000 0.000000 0.033398
#
#
# Mechanical properties :
#
#
# Convention : Reuss Voigt Hill
#
# Bulk Modulus (GPa) = 26.48202 41.88447 34.18324
# Shear Modulus (GPa) = 0.82880 25.65711 13.24296
#
# Velocity S-wave (km/s) = 0.63114 3.51157 2.52284
# Velocity P-wave (km/s) = 3.64125 6.04746 4.99152
#
# Compressibility (1/GPa) = 0.03776147
#
# Stress axis : x y z
#
# Youngs Moduli (GPa) = 0.67375 0.67374 127.53827
#
# Poissons Ratio (x) = 0.98428 0.53495
# Poissons Ratio (y) = 0.98429 0.53256
# Poissons Ratio (z) = 0.00283 0.00281
#
# Static dielectric constant tensor:
#      x y z
#    x 1.756220 0.000000 0.000000 
#    y 0.000000 1.756220 0.000000 
#    z 0.000000 0.000000 1.780580 
# 
# From -- ./inp_files/6847.got.cif
#   From: 2010.05.17/outbox.cif.g08.bks.cpg/sg118_4_cif.got.tgz:6847.got - 2010.05.20 11:17:24.
