data_PCOD9558368
_publ_section_title
;
Structure prediction by ZEFSAII (Michael W. Deem and Ramdas Pophale) SiO2 
 PCOD9558368
Probable space group: P -4 B 2
;
_chemical_formula_sum "Si O2"
_cell_formula_units_Z 42
_cell_length_a 15.000000
_cell_length_b 15.000000
_cell_length_c 9.000000
_cell_angle_alpha 90.000000
_cell_angle_beta 90.000000
_cell_angle_gamma 90.000000
_cell_volume 2025.000000
_symmetry_space_group_name_H-M "P -4 B 2"
_symmetry_group_IT_number 117
_symmetry_cell_setting 'tetragonal'
loop_
_space_group_symop_operation_xyz
x,y,z
y,-x,-z
-x,-y,z
-y,x,-z
1/2+y,1/2+x,-z
1/2-y,1/2-x,-z
1/2-x,1/2+y,z
1/2+x,1/2-y,z
loop_
_atom_site_type_symbol
_atom_site_label
_atom_site_fract_x
_atom_site_fract_y
_atom_site_fract_z
Si Si1 0.264260 0.082420 0.837632
Si Si2 0.852888 0.113338 0.353645
Si Si3 0.245602 0.254399 0.000000
Si Si4 0.735565 0.051438 0.077172
Si Si5 0.500000 0.500000 0.500000
Si Si6 0.824494 0.675507 0.500000
Si Si7 0.084127 0.443922 0.750686
O O1 0.190844 0.082311 0.709369
O O2 0.274725 0.187932 0.868851
O O3 0.350087 0.022118 0.806422
O O4 0.233551 0.036483 0.991505
O O5 0.794943 0.072694 0.219513
O O6 0.914423 0.035283 0.412787
O O7 0.778800 0.155083 0.463901
O O8 0.139310 0.247243 0.025337
O O9 0.632012 0.049786 0.132387
O O10 0.859453 0.614507 0.635182
O O11 0.000000 0.500000 0.691218
#
# Coordination Sequence:
#
# PCOD9558368 Si02
#       7
#     8   8   4   8   2   4   8
#     4  11  21  38  65  96 123 172 212 264 343 404
#     4  10  25  43  66  90 128 177 221 271 334 394
#     4  10  20  36  58  90 134 166 202 254 344 396
#     4  10  21  41  62  96 137 162 204 285 338 392
#     4  12  24  48  62  92 124 172 228 278 316 412
#     4  10  23  48  60  90 131 176 220 276 334 392
#     4  11  21  38  66  95 130 166 215 277 328 396
#
# _framework density 20.740741
#
# number of rings (size 3 to 8) (size 9 to 14) (size 15 to 20)
#    0.000    1.524    1.905    2.571    0.000    3.810 
#   20.571    0.000    0.000    0.000    0.000    0.000 
#    0.000    0.000    0.000    0.000    0.000    0.000 
#
# Total GULP energy -234137.752975 kJ/mol
# GULP energy per Si atom -5574.708404 kJ/mol
# Density = 2.069353 g / cm^3
# Si number density = 20.740741 Si / 1000 Ang^3
#
#
#
# Elastic Constant Matrix: (Units=GPa)
#
#
# Indices 1 2 3 4 5 6 
#
# 1 99.9716 53.7139 32.1525 0.0000 0.0000 0.0000
# 2 53.7139 99.9738 32.1529 0.0000 0.0000 0.0000
# 3 32.1525 32.1529 57.7402 0.0000 0.0000 0.0000
# 4 0.0000 0.0000 0.0000 31.6289 0.0000 0.0000
# 5 0.0000 0.0000 0.0000 0.0000 31.6287 0.0000
# 6 0.0000 0.0000 0.0000 0.0000 0.0000 40.2425
#
#
#
# Elastic Compliance Matrix: (Units=1/GPa)
#
#
# Indices 1 2 3 4 5 6 
#
# 1 0.015051 -0.006567 -0.004724 0.000000 0.000000 0.000000
# 2 -0.006567 0.015050 -0.004724 0.000000 0.000000 0.000000
# 3 -0.004724 -0.004724 0.022580 0.000000 0.000000 0.000000
# 4 0.000000 0.000000 0.000000 0.031617 0.000000 0.000000
# 5 0.000000 0.000000 0.000000 0.000000 0.031617 0.000000
# 6 0.000000 0.000000 0.000000 0.000000 0.000000 0.024849
#
#
# Mechanical properties :
#
#
# Convention : Reuss Voigt Hill
#
# Bulk Modulus (GPa) = 48.42408 54.85826 51.64117
# Shear Modulus (GPa) = 27.82764 30.01110 28.91937
#
# Velocity S-wave (km/s) = 3.66688 3.80802 3.73812
# Velocity P-wave (km/s) = 6.42853 6.77065 6.60181
#
# Compressibility (1/GPa) = 0.02065088
#
# Stress axis : x y z
#
# Youngs Moduli (GPa) = 66.44265 66.44406 44.28684
#
# Poissons Ratio (x) = 0.43634 0.20921
# Poissons Ratio (y) = 0.43633 0.20921
# Poissons Ratio (z) = 0.31387 0.31388
#
# Static dielectric constant tensor:
#      x y z
#    x 1.764010 0.000000 0.000000 
#    y 0.000000 1.764000 0.000000 
#    z 0.000000 0.000000 1.845620 
# 
# From -- ./inp_files/1810.got.cif
#   From: 2010.05.17/outbox.ucp.g08.bks.cvg/sg117_1_cif.got.tgz:1810.got - 2010.06.11 11:34:02.
