data_PCOD9558875
_publ_section_title
;
Structure prediction by ZEFSAII (Michael W. Deem and Ramdas Pophale) SiO2 
 PCOD9558875
Probable space group: P -4 N 2
;
_chemical_formula_sum "Si O2"
_cell_formula_units_Z 34
_cell_length_a 8.345427
_cell_length_b 8.345427
_cell_length_c 21.955001
_cell_angle_alpha 90.000000
_cell_angle_beta 90.000000
_cell_angle_gamma 90.000000
_cell_volume 1529.081333
_symmetry_space_group_name_H-M "P -4 N 2"
_symmetry_group_IT_number 118
_symmetry_cell_setting 'tetragonal'
loop_
_space_group_symop_operation_xyz
x,y,z
y,-x,-z
-x,-y,z
-y,x,-z
1/2+y,1/2+x,1/2-z
1/2-y,1/2-x,1/2-z
1/2-x,1/2+y,1/2+z
1/2+x,1/2-y,1/2+z
loop_
_atom_site_type_symbol
_atom_site_label
_atom_site_fract_x
_atom_site_fract_y
_atom_site_fract_z
Si Si1 0.242772 0.595511 0.062839
Si Si2 0.000000 0.500000 0.250000
Si Si3 0.259933 0.599804 0.925244
Si Si4 0.572900 0.710113 0.665318
Si Si5 0.923304 0.274675 0.813340
O O1 0.421342 0.667287 0.071485
O O2 0.273489 0.408488 0.079526
O O3 0.127506 0.695185 0.105759
O O4 0.189314 0.618835 0.993002
O O5 0.842705 0.486582 0.288362
O O6 0.141605 0.616612 0.868454
O O7 0.728874 0.611830 0.690405
O O8 0.402346 0.622271 0.661063
O O9 0.844010 0.344010 0.750000
#
# Coordination Sequence:
#
# PCOD9558875 Si02
#       5
#     8   2   8   8   8
#     4   9  20  40  69  98 126 188 222 276 346 406
#     4  12  24  44  62  96 124 174 222 270 336 432
#     4   9  20  41  66  97 141 168 230 283 335 410
#     4  11  25  41  66  93 129 179 227 274 346 407
#     4  11  25  43  61  97 136 175 222 291 345 403
#
# _framework density 22.235574
#
# number of rings (size 3 to 8) (size 9 to 14) (size 15 to 20)
#    0.000    1.882    1.176    2.824    3.294    4.706 
#    0.000    7.059    0.000    0.000    0.000    0.000 
#    0.000    0.000    0.000    0.000    0.000    0.000 
#
# Total GULP energy -189331.460423 kJ/mol
# GULP energy per Si atom -5568.572365 kJ/mol
# Density = 2.218496 g / cm^3
# Si number density = 22.235574 Si / 1000 Ang^3
#
#
#
# Elastic Constant Matrix: (Units=GPa)
#
#
# Indices 1 2 3 4 5 6 
#
# 1 86.9108 12.6392 64.1239 0.0000 0.0000 0.0000
# 2 12.6392 86.9108 64.1239 0.0000 0.0000 0.0000
# 3 64.1239 64.1239 168.5712 0.0000 0.0000 0.0000
# 4 0.0000 0.0000 0.0000 29.2114 0.0000 0.0000
# 5 0.0000 0.0000 0.0000 0.0000 29.2114 0.0000
# 6 0.0000 0.0000 0.0000 0.0000 0.0000 42.3241
#
#
#
# Elastic Compliance Matrix: (Units=1/GPa)
#
#
# Indices 1 2 3 4 5 6 
#
# 1 0.016581 0.003117 -0.007493 0.000000 0.000000 0.000000
# 2 0.003117 0.016581 -0.007493 0.000000 0.000000 0.000000
# 3 -0.007493 -0.007493 0.011633 0.000000 0.000000 0.000000
# 4 0.000000 0.000000 0.000000 0.034233 0.000000 0.000000
# 5 0.000000 0.000000 0.000000 0.000000 0.034233 0.000000
# 6 0.000000 0.000000 0.000000 0.000000 0.000000 0.023627
#
#
# Mechanical properties :
#
#
# Convention : Reuss Voigt Hill
#
# Bulk Modulus (GPa) = 47.48987 69.35187 58.42087
# Shear Modulus (GPa) = 29.82457 33.58309 31.70383
#
# Velocity S-wave (km/s) = 3.66635 3.89051 3.78009
# Velocity P-wave (km/s) = 6.27111 7.17208 6.73668
#
# Compressibility (1/GPa) = 0.02105712
#
# Stress axis : x y z
#
# Youngs Moduli (GPa) = 60.30875 60.30875 85.96208
#
# Poissons Ratio (x) = -0.18800 0.64414
# Poissons Ratio (y) = -0.18800 0.64414
# Poissons Ratio (z) = 0.45191 0.45191
#
# Static dielectric constant tensor:
#      x y z
#    x 1.879080 0.000000 0.000000 
#    y 0.000000 1.879080 0.000000 
#    z 0.000000 0.000000 1.788110 
# 
# From -- ./inp_files/5450.got.cif
#   From: 2010.05.17/outbox.cif.g08.bks.cpg/sg118_3_cif.got.tgz:5450.got - 2010.05.20 11:17:24.
