data_PCOD9558027
_publ_section_title
;
Structure prediction by ZEFSAII (Michael W. Deem and Ramdas Pophale) SiO2 
 PCOD9558027
Probable space group: P -4 C 2
;
_chemical_formula_sum "Si O2"
_cell_formula_units_Z 20
_cell_length_a 7.705716
_cell_length_b 7.705716
_cell_length_c 13.713393
_cell_angle_alpha 90.000000
_cell_angle_beta 90.000000
_cell_angle_gamma 90.000000
_cell_volume 814.274660
_symmetry_space_group_name_H-M "P -4 C 2"
_symmetry_group_IT_number 116
_symmetry_cell_setting 'tetragonal'
loop_
_space_group_symop_operation_xyz
x,y,z
y,-x,-z
-x,-y,z
-y,x,-z
y,x,1/2-z
-y,-x,1/2-z
-x,y,1/2+z
x,-y,1/2+z
loop_
_atom_site_type_symbol
_atom_site_label
_atom_site_fract_x
_atom_site_fract_y
_atom_site_fract_z
Si Si1 0.303054 0.958381 0.127743
Si Si2 0.000000 0.000000 0.000000
Si Si3 0.608106 0.150456 0.343057
Si Si4 0.500000 0.500000 0.750000
O O1 0.313351 0.947033 0.246221
O O2 0.240628 0.764395 0.101040
O O3 0.500000 0.000000 0.100901
O O4 0.151374 0.063969 0.074616
O O5 0.500551 0.318045 0.307532
O O6 0.500000 0.000000 0.393160
#
# Coordination Sequence:
#
# PCOD9558027 Si02
#       4
#     8   2   8   2
#     4   9  21  39  57  88 121 155 207 255 304 370
#     4  12  24  38  60  84 132 178 196 240 316 390
#     4   9  19  37  64  89 113 152 211 266 313 366
#     4   8  16  32  56  88 118 140 184 260 320 358
#
# _framework density 24.561737999999998
#
# number of rings (size 3 to 8) (size 9 to 14) (size 15 to 20)
#    0.000    3.200    0.000    0.000    0.000   14.400 
#    0.000   12.000    0.000    0.000    0.000    0.000 
#    0.000    0.000    0.000    0.000    0.000    0.000 
#
# Total GULP energy -111385.297048 kJ/mol
# GULP energy per Si atom -5569.264852 kJ/mol
# Density = 2.450583 g / cm^3
# Si number density = 24.561738 Si / 1000 Ang^3
#
#
#
# Elastic Constant Matrix: (Units=GPa)
#
#
# Indices 1 2 3 4 5 6 
#
# 1 138.1071 56.4562 34.7740 0.0000 0.0000 0.0000
# 2 56.4562 138.1071 34.7740 0.0000 0.0000 0.0000
# 3 34.7740 34.7740 107.7399 0.0000 0.0000 0.0000
# 4 0.0000 0.0000 0.0000 -20.4795 0.0000 0.0000
# 5 0.0000 0.0000 0.0000 0.0000 -20.4795 0.0000
# 6 0.0000 0.0000 0.0000 0.0000 0.0000 60.2062
#
#
#
# Elastic Compliance Matrix: (Units=1/GPa)
#
#
# Indices 1 2 3 4 5 6 
#
# 1 0.009029 -0.003219 -0.001875 0.000000 0.000000 0.000000
# 2 -0.003219 0.009029 -0.001875 0.000000 0.000000 0.000000
# 3 -0.001875 -0.001875 0.010492 0.000000 0.000000 0.000000
# 4 0.000000 0.000000 0.000000 -0.048829 0.000000 0.000000
# 5 0.000000 0.000000 0.000000 0.000000 -0.048829 0.000000
# 6 0.000000 0.000000 0.000000 0.000000 0.000000 0.016610
#
#
# Mechanical properties :
#
#
# Convention : Reuss Voigt Hill
#
# Bulk Modulus (GPa) = 68.44057 70.66252 69.55155
# Shear Modulus (GPa) = -148.40708 21.04610 -63.68049
#
# Velocity S-wave (km/s) = -7.78160 2.93040 -5.09735
# Velocity P-wave (km/s) = 7.26722 6.34677 2.50309
#
# Compressibility (1/GPa) = 0.01461122
#
# Stress axis : x y z
#
# Youngs Moduli (GPa) = 110.75861 110.75861 95.30969
#
# Poissons Ratio (x) = 0.35649 0.17873
# Poissons Ratio (y) = 0.35649 0.17873
# Poissons Ratio (z) = 0.20770 0.20770
#
# Static dielectric constant tensor:
#      x y z
#    x 2.086790 0.000000 0.000000 
#    y 0.000000 2.086790 0.000000 
#    z 0.000000 0.000000 2.033130 
# 
# From -- ./inp_files/2153.got.cif
#   From: 2010.05.17/outbox.cif.g08.bks.cpg/sg116_2_cif.got.tgz:2153.got - 2010.05.20 11:11:43.
