data_PCOD9558931
_publ_section_title
;
Structure prediction by ZEFSAII (Michael W. Deem and Ramdas Pophale) SiO2 
 PCOD9558931
Probable space group: P -4 N 2
;
_chemical_formula_sum "Si O2"
_cell_formula_units_Z 18
_cell_length_a 7.927279
_cell_length_b 7.927279
_cell_length_c 10.528246
_cell_angle_alpha 90.000000
_cell_angle_beta 90.000000
_cell_angle_gamma 90.000000
_cell_volume 661.613428
_symmetry_space_group_name_H-M "P -4 N 2"
_symmetry_group_IT_number 118
_symmetry_cell_setting 'tetragonal'
loop_
_space_group_symop_operation_xyz
x,y,z
y,-x,-z
-x,-y,z
-y,x,-z
1/2+y,1/2+x,1/2-z
1/2-y,1/2-x,1/2-z
1/2-x,1/2+y,1/2+z
1/2+x,1/2-y,1/2+z
loop_
_atom_site_type_symbol
_atom_site_label
_atom_site_fract_x
_atom_site_fract_y
_atom_site_fract_z
Si Si1 0.619421 0.673515 0.346822
Si Si2 0.293493 0.780946 0.120333
Si Si3 0.000000 0.000000 0.500000
O O1 0.500000 0.500000 0.334710
O O2 0.770112 0.729889 0.250000
O O3 0.473591 0.811638 0.340855
O O4 0.694339 0.696524 0.487890
O O5 0.206531 0.706531 0.250000
O O6 0.445595 0.659030 0.083658
#
# Coordination Sequence:
#
# PCOD9558931 Si02
#       3
#     8   8   2
#     4  12  28  58  91 131 189 249 316 404 482 568
#     4  12  28  53  89 128 184 243 309 396 474 571
#     4  12  32  48  88 142 176 240 324 374 508 576
#
# _framework density 27.206219000000001
#
# number of rings (size 3 to 8) (size 9 to 14) (size 15 to 20)
#    0.000    0.000    4.444    2.667   15.556    6.222 
#    0.000    2.222    0.000    0.000    0.000    0.000 
#    0.000    0.000    0.000    0.000    0.000    0.000 
#
# Total GULP energy -100221.799337 kJ/mol
# GULP energy per Si atom -5567.877741 kJ/mol
# Density = 2.714430 g / cm^3
# Si number density = 27.206219 Si / 1000 Ang^3
#
#
#
# Elastic Constant Matrix: (Units=GPa)
#
#
# Indices 1 2 3 4 5 6 
#
# 1 139.8647 67.1802 63.1537 0.0000 0.0000 0.0000
# 2 67.1802 139.8658 63.1544 0.0000 0.0000 0.0000
# 3 63.1537 63.1544 268.9792 0.0000 0.0000 0.0000
# 4 0.0000 0.0000 0.0000 40.7548 0.0000 0.0000
# 5 0.0000 0.0000 0.0000 0.0000 40.7543 0.0000
# 6 0.0000 0.0000 0.0000 0.0000 0.0000 70.7598
#
#
#
# Elastic Compliance Matrix: (Units=1/GPa)
#
#
# Indices 1 2 3 4 5 6 
#
# 1 0.009698 -0.004060 -0.001324 0.000000 0.000000 0.000000
# 2 -0.004060 0.009698 -0.001324 0.000000 0.000000 0.000000
# 3 -0.001324 -0.001324 0.004339 0.000000 0.000000 0.000000
# 4 0.000000 0.000000 0.000000 0.024537 0.000000 0.000000
# 5 0.000000 0.000000 0.000000 0.000000 0.024537 0.000000
# 6 0.000000 0.000000 0.000000 0.000000 0.000000 0.014132
#
#
# Mechanical properties :
#
#
# Convention : Reuss Voigt Hill
#
# Bulk Modulus (GPa) = 96.90342 103.96514 100.43428
# Shear Modulus (GPa) = 48.17136 54.13520 51.15328
#
# Velocity S-wave (km/s) = 4.21242 4.46557 4.34084
# Velocity P-wave (km/s) = 7.70420 8.05513 7.88162
#
# Compressibility (1/GPa) = 0.01031955
#
# Stress axis : x y z
#
# Youngs Moduli (GPa) = 103.11745 103.11810 230.45208
#
# Poissons Ratio (x) = 0.41869 0.30502
# Poissons Ratio (y) = 0.41869 0.30503
# Poissons Ratio (z) = 0.13648 0.13649
#
# Static dielectric constant tensor:
#      x y z
#    x 2.235250 0.000000 0.000000 
#    y 0.000000 2.235250 0.000000 
#    z 0.000000 0.000000 2.521900 
# 
# From -- ./inp_files/2473.got.cif
#   From: 2010.05.17/outbox.cif.g08.bks.cpg/sg118_2_cif.got.tgz:2473.got - 2010.05.20 11:17:24.
