data_PCOD9558073
_publ_section_title
;
Structure prediction by ZEFSAII (Michael W. Deem and Ramdas Pophale) SiO2 
 PCOD9558073
Probable space group: P -4 B 2
;
_chemical_formula_sum "Si O2"
_cell_formula_units_Z 50
_cell_length_a 22.208980
_cell_length_b 22.208980
_cell_length_c 5.879345
_cell_angle_alpha 90.000000
_cell_angle_beta 90.000000
_cell_angle_gamma 90.000000
_cell_volume 2899.921029
_symmetry_space_group_name_H-M "P -4 B 2"
_symmetry_group_IT_number 117
_symmetry_cell_setting 'tetragonal'
loop_
_space_group_symop_operation_xyz
x,y,z
y,-x,-z
-x,-y,z
-y,x,-z
1/2+y,1/2+x,-z
1/2-y,1/2-x,-z
1/2-x,1/2+y,z
1/2+x,1/2-y,z
loop_
_atom_site_type_symbol
_atom_site_label
_atom_site_fract_x
_atom_site_fract_y
_atom_site_fract_z
Si Si1 0.176524 0.756027 0.864293
Si Si2 0.565624 0.701990 0.603171
Si Si3 0.789726 0.669045 0.744660
Si Si4 0.149398 0.857857 0.229342
Si Si5 0.000000 0.000000 0.000000
Si Si6 0.094090 0.919323 0.835618
Si Si7 0.717243 0.566768 0.561513
O O1 0.114376 0.754067 0.724467
O O2 0.233686 0.783199 0.728253
O O3 0.196955 0.696955 0.000000
O O4 0.168498 0.808676 0.048029
O O5 0.602306 0.675068 0.391333
O O6 0.560821 0.642520 0.763062
O O7 0.500968 0.727615 0.527843
O O8 0.824126 0.675875 0.500000
O O9 0.763105 0.600792 0.729649
O O10 0.818357 0.681644 0.000000
O O11 0.206247 0.886719 0.354566
O O12 0.116705 0.910269 0.091924
O O13 0.948650 0.024507 0.837362
O O14 0.152053 0.931094 0.682251
#
# Coordination Sequence:
#
# PCOD9558073 Si02
#       7
#     8   8   8   8   2   8   8
#     4  10  20  34  54  77 100 138 191 235 284 345
#     4  10  21  32  49  73  99 141 182 236 298 332
#     4  11  22  37  60  82 103 144 192 242 290 342
#     4  10  18  36  49  72 102 141 191 235 289 324
#     4  12  20  32  46  60 100 154 200 240 262 320
#     4  10  21  33  43  68  94 144 194 241 282 325
#     4  11  20  34  51  72 106 135 189 243 288 350
#
# _framework density 17.241848999999998
#
# number of rings (size 3 to 8) (size 9 to 14) (size 15 to 20)
#    0.000    1.600    4.800    3.840    0.000    2.560 
#    0.000    3.200    0.000    0.000    0.000    0.000 
#    0.000    0.000    0.000    4.320    1.600    0.320 
#
# Total GULP energy -278496.465476 kJ/mol
# GULP energy per Si atom -5569.929310 kJ/mol
# Density = 1.720261 g / cm^3
# Si number density = 17.241849 Si / 1000 Ang^3
#
#
#
# Elastic Constant Matrix: (Units=GPa)
#
#
# Indices 1 2 3 4 5 6 
#
# 1 64.9911 30.7391 28.4505 0.0000 0.0000 0.0000
# 2 30.7391 64.9924 28.4511 0.0000 0.0000 0.0000
# 3 28.4505 28.4511 81.9486 0.0000 0.0000 0.0000
# 4 0.0000 0.0000 0.0000 21.7634 0.0000 0.0000
# 5 0.0000 0.0000 0.0000 0.0000 21.7634 0.0000
# 6 0.0000 0.0000 0.0000 0.0000 0.0000 28.8361
#
#
#
# Elastic Compliance Matrix: (Units=1/GPa)
#
#
# Indices 1 2 3 4 5 6 
#
# 1 0.021179 -0.008016 -0.004570 0.000000 0.000000 0.000000
# 2 -0.008016 0.021178 -0.004570 0.000000 0.000000 0.000000
# 3 -0.004570 -0.004570 0.015376 0.000000 0.000000 0.000000
# 4 0.000000 0.000000 0.000000 0.045949 0.000000 0.000000
# 5 0.000000 0.000000 0.000000 0.000000 0.045949 0.000000
# 6 0.000000 0.000000 0.000000 0.000000 0.000000 0.034679
#
#
# Mechanical properties :
#
#
# Convention : Reuss Voigt Hill
#
# Bulk Modulus (GPa) = 42.69582 43.02371 42.85976
# Shear Modulus (GPa) = 22.08219 22.75869 22.42044
#
# Velocity S-wave (km/s) = 3.58261 3.63708 3.60995
# Velocity P-wave (km/s) = 6.47535 6.53032 6.50289
#
# Compressibility (1/GPa) = 0.02342150
#
# Stress axis : x y z
#
# Youngs Moduli (GPa) = 47.21749 47.21828 65.03774
#
# Poissons Ratio (x) = 0.37852 0.29719
# Poissons Ratio (y) = 0.37851 0.29720
# Poissons Ratio (z) = 0.21576 0.21577
#
# Static dielectric constant tensor:
#      x y z
#    x 1.624820 0.000000 0.000000 
#    y 0.000000 1.624820 0.000000 
#    z 0.000000 0.000000 1.699190 
# 
# From -- ./inp_files/942.got.cif
#   From: 2010.05.17/outbox.cif.g08.bks.cpg/sg117_1_cif.got.tgz:942.got - 2010.05.20 11:15:09.
