data_PCOD9558975
_publ_section_title
;
Structure prediction by ZEFSAII (Michael W. Deem and Ramdas Pophale) SiO2 
 PCOD9558975
Probable space group: I -4 M 2
;
_chemical_formula_sum "Si O2"
_cell_formula_units_Z 112
_cell_length_a 15.484223
_cell_length_b 15.484223
_cell_length_c 24.831583
_cell_angle_alpha 90.000000
_cell_angle_beta 90.000000
_cell_angle_gamma 90.000000
_cell_volume 5953.649192
_symmetry_space_group_name_H-M "I -4 M 2"
_symmetry_group_IT_number 119
_symmetry_cell_setting 'tetragonal'
loop_
_space_group_symop_operation_xyz
x,y,z
y,-x,-z
-x,-y,z
-y,x,-z
y,x,-z
-y,-x,-z
-x,y,z
x,-y,z
1/2+x,1/2+y,1/2+z
1/2+y,1/2-x,1/2-z
1/2-x,1/2-y,1/2+z
1/2-y,1/2+x,1/2-z
1/2+y,1/2+x,1/2-z
1/2-y,1/2-x,1/2-z
1/2-x,1/2+y,1/2+z
1/2+x,1/2-y,1/2+z
loop_
_atom_site_type_symbol
_atom_site_label
_atom_site_fract_x
_atom_site_fract_y
_atom_site_fract_z
Si Si1 0.202559 0.203291 0.143408
Si Si2 0.272408 0.603506 0.465644
Si Si3 0.344784 0.320711 0.088825
Si Si4 0.877279 0.901921 0.695155
Si Si5 0.597325 0.791033 0.989309
Si Si6 0.764336 0.594558 0.730827
Si Si7 0.906795 0.715901 0.237504
O O1 0.133101 0.206930 0.095617
O O2 0.284795 0.254089 0.121408
O O3 0.234802 0.114120 0.169484
O O4 0.162314 0.249574 0.195401
O O5 0.343823 0.656178 0.500000
O O6 0.275407 0.500000 0.471935
O O7 0.177746 0.642091 0.482844
O O8 0.394475 0.374758 0.133974
O O9 0.394109 0.262656 0.045055
O O10 0.280573 0.383846 0.056462
O O11 0.906427 0.823449 0.733393
O O12 0.774898 0.905077 0.709285
O O13 0.906993 0.000000 0.706961
O O14 0.500000 0.826526 0.984394
O O15 0.804827 0.500000 0.735599
O O16 0.830258 0.669743 0.750000
O O17 0.881147 0.618854 0.250000
O O18 0.000000 0.725221 0.212454
#
# Coordination Sequence:
#
# PCOD9558975 Si02
#       7
#    16  16  16  16  16  16  16
#     4  10  18  39  59  83 112 156 197 243 300 350
#     4  11  23  41  64  90 121 160 208 256 308 367
#     4  10  17  36  61  86 114 160 196 243 298 359
#     4  10  19  34  59  86 113 150 197 242 291 353
#     4  10  21  37  61  91 121 156 199 249 310 370
#     4  11  23  40  63  89 124 162 200 249 303 357
#     4  10  18  29  49  77 113 150 188 234 288 347
#
# _framework density 18.811990999999999
#
# number of rings (size 3 to 8) (size 9 to 14) (size 15 to 20)
#    0.000    1.714    5.714    1.714    0.000    2.714 
#    0.000    0.000    0.000    8.571    0.000    0.000 
#    0.000    0.000    0.000    0.000    0.000    0.000 
#
# Total GULP energy -311792.593754 kJ/mol
# GULP energy per Si atom -5567.724888 kJ/mol
# Density = 1.876917 g / cm^3
# Si number density = 18.811991 Si / 1000 Ang^3
#
#
#
# Elastic Constant Matrix: (Units=GPa)
#
#
# Indices 1 2 3 4 5 6 
#
# 1 119.2440 52.7922 33.3495 0.0000 0.0000 0.0000
# 2 52.7922 119.2451 33.3499 0.0000 0.0000 0.0000
# 3 33.3495 33.3499 101.3878 0.0000 0.0000 0.0000
# 4 0.0000 0.0000 0.0000 12.3579 0.0000 0.0000
# 5 0.0000 0.0000 0.0000 0.0000 12.3577 0.0000
# 6 0.0000 0.0000 0.0000 0.0000 0.0000 1.9163
#
#
#
# Elastic Compliance Matrix: (Units=1/GPa)
#
#
# Indices 1 2 3 4 5 6 
#
# 1 0.010855 -0.004193 -0.002191 0.000000 0.000000 0.000000
# 2 -0.004193 0.010855 -0.002191 0.000000 0.000000 0.000000
# 3 -0.002191 -0.002191 0.011305 0.000000 0.000000 0.000000
# 4 0.000000 0.000000 0.000000 0.080920 0.000000 0.000000
# 5 0.000000 0.000000 0.000000 0.000000 0.080921 0.000000
# 6 0.000000 0.000000 0.000000 0.000000 0.000000 0.521829
#
#
# Mechanical properties :
#
#
# Convention : Reuss Voigt Hill
#
# Bulk Modulus (GPa) = 63.03715 64.31778 63.67747
# Shear Modulus (GPa) = 6.76475 20.01873 13.39174
#
# Velocity S-wave (km/s) = 1.89836 3.26567 2.67099
# Velocity P-wave (km/s) = 6.19571 6.96300 6.59053
#
# Compressibility (1/GPa) = 0.01586366
#
# Stress axis : x y z
#
# Youngs Moduli (GPa) = 92.11998 92.12066 88.45800
#
# Poissons Ratio (x) = 0.38626 0.19385
# Poissons Ratio (y) = 0.38626 0.19385
# Poissons Ratio (z) = 0.20188 0.20188
#
# Static dielectric constant tensor:
#      x y z
#    x 1.668050 0.000000 0.000000 
#    y 0.000000 1.668040 0.000000 
#    z 0.000000 0.000000 1.667440 
# 
# From -- ./inp_files/8835.got.cif
#   From: 2010.05.17/outbox.cif.g08.bks.cpg/sg119_5_cif.got.tgz:8835.got - 2010.05.20 11:21:29.
