data_PCOD9558274
_publ_section_title
;
Structure prediction by ZEFSAII (Michael W. Deem and Ramdas Pophale) SiO2 
 PCOD9558274
Probable space group: P -4 B 2
;
_chemical_formula_sum "Si O2"
_cell_formula_units_Z 48
_cell_length_a 14.605974
_cell_length_b 14.605974
_cell_length_c 9.952206
_cell_angle_alpha 90.000000
_cell_angle_beta 90.000000
_cell_angle_gamma 90.000000
_cell_volume 2123.148657
_symmetry_space_group_name_H-M "P -4 B 2"
_symmetry_group_IT_number 117
_symmetry_cell_setting 'tetragonal'
loop_
_space_group_symop_operation_xyz
x,y,z
y,-x,-z
-x,-y,z
-y,x,-z
1/2+y,1/2+x,-z
1/2-y,1/2-x,-z
1/2-x,1/2+y,z
1/2+x,1/2-y,z
loop_
_atom_site_type_symbol
_atom_site_label
_atom_site_fract_x
_atom_site_fract_y
_atom_site_fract_z
Si Si1 0.637631 0.532016 0.549481
Si Si2 0.538855 0.765177 0.082312
Si Si3 0.436455 0.758792 0.677321
Si Si4 0.687966 0.887193 0.202352
Si Si5 0.415948 0.564777 0.816470
Si Si6 0.673997 0.232251 0.148367
O O1 0.603475 0.445752 0.458852
O O2 0.725114 0.574411 0.476562
O O3 0.638218 0.487082 0.695154
O O4 0.601995 0.818921 0.189486
O O5 0.572500 0.660226 0.070317
O O6 0.433153 0.764989 0.118824
O O7 0.557613 0.809437 0.938258
O O8 0.532415 0.811794 0.689319
O O9 0.443826 0.664120 0.763943
O O10 0.351353 0.807298 0.749102
O O11 0.777325 0.822102 0.209498
O O12 0.500000 0.500000 0.848712
O O13 0.718492 0.218492 0.000000
#
# Coordination Sequence:
#
# PCOD9558274 Si02
#       6
#     8   8   8   8   8   8
#     4   9  17  34  60  92 122 157 207 261 317 383
#     4  11  24  39  61  88 132 168 208 271 325 391
#     4  11  21  38  64  88 126 168 209 264 317 388
#     4  11  23  42  59  93 130 163 217 265 326 400
#     4  11  19  39  64  93 125 162 210 269 334 380
#     4  12  22  40  60  91 129 163 214 264 322 400
#
# _framework density 22.607932000000002
#
# number of rings (size 3 to 8) (size 9 to 14) (size 15 to 20)
#    0.000    1.167    8.333    1.000    0.000    0.667 
#    0.000    1.667    0.000    0.000    0.000    2.333 
#    0.000    0.000    0.000    0.000    0.000    0.000 
#
# Total GULP energy -268330.951882 kJ/mol
# GULP energy per Si atom -5590.228164 kJ/mol
# Density = 2.255648 g / cm^3
# Si number density = 22.607932 Si / 1000 Ang^3
#
#
#
# Elastic Constant Matrix: (Units=GPa)
#
#
# Indices 1 2 3 4 5 6 
#
# 1 94.9294 15.3600 11.2692 0.0000 0.0000 0.0000
# 2 15.3600 94.9294 11.2692 0.0000 0.0000 0.0000
# 3 11.2692 11.2692 38.3015 0.0000 0.0000 0.0000
# 4 0.0000 0.0000 0.0000 17.4606 0.0000 0.0000
# 5 0.0000 0.0000 0.0000 0.0000 17.4606 0.0000
# 6 0.0000 0.0000 0.0000 0.0000 0.0000 37.6272
#
#
#
# Elastic Compliance Matrix: (Units=1/GPa)
#
#
# Indices 1 2 3 4 5 6 
#
# 1 0.011107 -0.001460 -0.002838 0.000000 0.000000 0.000000
# 2 -0.001460 0.011107 -0.002838 0.000000 0.000000 0.000000
# 3 -0.002838 -0.002838 0.027779 0.000000 0.000000 0.000000
# 4 0.000000 0.000000 0.000000 0.057272 0.000000 0.000000
# 5 0.000000 0.000000 0.000000 0.000000 0.057272 0.000000
# 6 0.000000 0.000000 0.000000 0.000000 0.000000 0.026577
#
#
# Mechanical properties :
#
#
# Convention : Reuss Voigt Hill
#
# Bulk Modulus (GPa) = 27.99594 33.77301 30.88448
# Shear Modulus (GPa) = 23.01028 27.19381 25.10204
#
# Velocity S-wave (km/s) = 3.19375 3.47197 3.33576
# Velocity P-wave (km/s) = 5.10002 5.57169 5.34106
#
# Compressibility (1/GPa) = 0.03571946
#
# Stress axis : x y z
#
# Youngs Moduli (GPa) = 90.03023 90.03023 35.99855
#
# Poissons Ratio (x) = 0.13147 0.10218
# Poissons Ratio (y) = 0.13147 0.10218
# Poissons Ratio (z) = 0.25554 0.25554
#
# Static dielectric constant tensor:
#      x y z
#    x 1.866870 0.000000 0.000000 
#    y 0.000000 1.866870 0.000000 
#    z 0.000000 0.000000 1.923120 
# 
# From -- ./inp_files/2792.got.cif
#   From: 2010.05.17/outbox.cif.g08.bks.cpg/sg117_2_cif.got.tgz:2792.got - 2010.05.20 11:15:09.
