data_PCOD9558320
_publ_section_title
;
Structure prediction by ZEFSAII (Michael W. Deem and Ramdas Pophale) SiO2 
 PCOD9558320
Probable space group: P -4 B 2
;
_chemical_formula_sum "Si O2"
_cell_formula_units_Z 24
_cell_length_a 8.911151
_cell_length_b 8.911151
_cell_length_c 12.593527
_cell_angle_alpha 90.000000
_cell_angle_beta 90.000000
_cell_angle_gamma 90.000000
_cell_volume 1000.034501
_symmetry_space_group_name_H-M "P -4 B 2"
_symmetry_group_IT_number 117
_symmetry_cell_setting 'tetragonal'
loop_
_space_group_symop_operation_xyz
x,y,z
y,-x,-z
-x,-y,z
-y,x,-z
1/2+y,1/2+x,-z
1/2-y,1/2-x,-z
1/2-x,1/2+y,z
1/2+x,1/2-y,z
loop_
_atom_site_type_symbol
_atom_site_label
_atom_site_fract_x
_atom_site_fract_y
_atom_site_fract_z
Si Si1 0.848736 0.086369 0.254524
Si Si2 0.357312 0.109516 0.379479
Si Si3 0.465699 0.270642 0.962200
O O1 0.866308 0.256477 0.293406
O O2 0.780169 0.996005 0.351702
O O3 0.750481 0.050753 0.149953
O O4 0.000000 0.000000 0.229514
O O5 0.337099 0.162902 0.500000
O O6 0.500000 0.000000 0.373331
O O7 0.339569 0.404149 0.962075
O O8 0.376416 0.123585 0.000000
#
# Coordination Sequence:
#
# PCOD9558320 Si02
#       3
#     8   8   8
#     4  12  25  46  77 108 153 207 260 330 397 478
#     4  11  28  48  75 114 153 205 265 326 409 476
#     4  11  24  48  73 106 150 199 256 317 390 464
#
# _framework density 23.999174
#
# number of rings (size 3 to 8) (size 9 to 14) (size 15 to 20)
#    0.000    0.667    3.333    4.000    9.333    0.667 
#    0.000    0.000    0.000    0.000    0.000    0.000 
#    0.000    0.000    0.000    0.000    0.000    0.000 
#
# Total GULP energy -134222.466515 kJ/mol
# GULP energy per Si atom -5592.602771 kJ/mol
# Density = 2.394455 g / cm^3
# Si number density = 23.999174 Si / 1000 Ang^3
#
#
#
# Elastic Constant Matrix: (Units=GPa)
#
#
# Indices 1 2 3 4 5 6 
#
# 1 105.0481 48.7657 47.7155 0.0000 0.0000 0.0000
# 2 48.7657 105.0495 47.7151 0.0000 0.0000 0.0000
# 3 47.7155 47.7151 149.5872 0.0000 0.0000 0.0000
# 4 0.0000 0.0000 0.0000 56.4326 0.0000 0.0000
# 5 0.0000 0.0000 0.0000 0.0000 56.4332 0.0000
# 6 0.0000 0.0000 0.0000 0.0000 0.0000 51.6590
#
#
#
# Elastic Compliance Matrix: (Units=1/GPa)
#
#
# Indices 1 2 3 4 5 6 
#
# 1 0.012936 -0.004831 -0.002586 0.000000 0.000000 0.000000
# 2 -0.004831 0.012936 -0.002585 0.000000 0.000000 0.000000
# 3 -0.002586 -0.002585 0.008334 0.000000 0.000000 0.000000
# 4 0.000000 0.000000 0.000000 0.017720 0.000000 0.000000
# 5 0.000000 0.000000 0.000000 0.000000 0.017720 0.000000
# 6 0.000000 0.000000 0.000000 0.000000 0.000000 0.019358
#
#
# Mechanical properties :
#
#
# Convention : Reuss Voigt Hill
#
# Bulk Modulus (GPa) = 70.40529 72.00858 71.20694
# Shear Modulus (GPa) = 43.95854 47.27087 45.61471
#
# Velocity S-wave (km/s) = 4.28444 4.44293 4.36441
# Velocity P-wave (km/s) = 7.33999 7.50928 7.42512
#
# Compressibility (1/GPa) = 0.01420348
#
# Stress axis : x y z
#
# Youngs Moduli (GPa) = 77.30066 77.30208 119.98344
#
# Poissons Ratio (x) = 0.37344 0.31022
# Poissons Ratio (y) = 0.37344 0.31021
# Poissons Ratio (z) = 0.19986 0.19986
#
# Static dielectric constant tensor:
#      x y z
#    x 1.829370 0.000000 0.000000 
#    y 0.000000 1.829370 0.000000 
#    z 0.000000 0.000000 1.967110 
# 
# From -- ./inp_files/2999.got.cif
#   From: 2010.05.17/outbox.cif.g08.bks.cpg/sg117_2_cif.got.tgz:2999.got - 2010.05.20 11:15:09.
