data_PCOD9558982
_publ_section_title
;
Structure prediction by ZEFSAII (Michael W. Deem and Ramdas Pophale) SiO2 
 PCOD9558982
Probable space group: I -4 M 2
;
_chemical_formula_sum "Si O2"
_cell_formula_units_Z 48
_cell_length_a 14.583705
_cell_length_b 14.583705
_cell_length_c 10.556195
_cell_angle_alpha 90.000000
_cell_angle_beta 90.000000
_cell_angle_gamma 90.000000
_cell_volume 2245.138544
_symmetry_space_group_name_H-M "I -4 M 2"
_symmetry_group_IT_number 119
_symmetry_cell_setting 'tetragonal'
loop_
_space_group_symop_operation_xyz
x,y,z
y,-x,-z
-x,-y,z
-y,x,-z
y,x,-z
-y,-x,-z
-x,y,z
x,-y,z
1/2+x,1/2+y,1/2+z
1/2+y,1/2-x,1/2-z
1/2-x,1/2-y,1/2+z
1/2-y,1/2+x,1/2-z
1/2+y,1/2+x,1/2-z
1/2-y,1/2-x,1/2-z
1/2-x,1/2+y,1/2+z
1/2+x,1/2-y,1/2+z
loop_
_atom_site_type_symbol
_atom_site_label
_atom_site_fract_x
_atom_site_fract_y
_atom_site_fract_z
Si Si1 0.105950 0.111784 0.858232
Si Si2 0.205511 0.890273 0.607411
Si Si3 0.894091 0.402394 0.403333
O O1 0.170254 0.143664 0.743649
O O2 0.000000 0.140810 0.837439
O O3 0.105125 0.000000 0.855968
O O4 0.136285 0.136285 0.000000
O O5 0.133017 0.866984 0.500000
O O6 0.304478 0.853517 0.562598
O O7 0.215629 0.000000 0.619422
O O8 0.849397 0.500000 0.438457
O O9 0.899129 0.399129 0.250000
O O10 0.000000 0.405319 0.448596
#
# Coordination Sequence:
#
# PCOD9558982 Si02
#       3
#    16  16  16
#     4   8  14  25  40  61  98 147 184 205 242 315
#     4  10  18  27  45  77 111 139 171 216 270 321
#     4   8  15  30  50  69  92 129 180 229 263 298
#
# _framework density 21.379525999999998
#
# number of rings (size 3 to 8) (size 9 to 14) (size 15 to 20)
#    0.000    3.333    0.000    3.000    0.000    1.667 
#    0.000    1.667    0.000    0.000    0.000    4.667 
#    0.000   16.667    0.000    0.000    0.000    0.000 
#
# Total GULP energy -133731.171701 kJ/mol
# GULP energy per Si atom -5572.132154 kJ/mol
# Density = 2.133087 g / cm^3
# Si number density = 21.379526 Si / 1000 Ang^3
#
#
#
# Elastic Constant Matrix: (Units=GPa)
#
#
# Indices 1 2 3 4 5 6 
#
# 1 61.8386 38.3399 24.2609 0.0000 0.0000 0.0000
# 2 38.3399 61.8316 24.2609 0.0000 0.0000 0.0000
# 3 24.2609 24.2609 88.3096 0.0000 0.0000 0.0000
# 4 0.0000 0.0000 0.0000 7.2470 0.0000 0.0000
# 5 0.0000 0.0000 0.0000 0.0000 7.2472 0.0000
# 6 0.0000 0.0000 0.0000 0.0000 0.0000 8.1538
#
#
#
# Elastic Compliance Matrix: (Units=1/GPa)
#
#
# Indices 1 2 3 4 5 6 
#
# 1 0.027037 -0.015524 -0.003163 0.000000 0.000000 0.000000
# 2 -0.015524 0.027040 -0.003164 0.000000 0.000000 0.000000
# 3 -0.003163 -0.003164 0.013062 0.000000 0.000000 0.000000
# 4 0.000000 0.000000 0.000000 0.137989 0.000000 0.000000
# 5 0.000000 0.000000 0.000000 0.000000 0.137985 0.000000
# 6 0.000000 0.000000 0.000000 0.000000 0.000000 0.122643
#
#
# Mechanical properties :
#
#
# Convention : Reuss Voigt Hill
#
# Bulk Modulus (GPa) = 42.66597 42.85592 42.76095
# Shear Modulus (GPa) = 9.66616 12.87078 11.26847
#
# Velocity S-wave (km/s) = 2.12862 2.45626 2.29829
# Velocity P-wave (km/s) = 5.10306 5.30407 5.20453
#
# Compressibility (1/GPa) = 0.02343788
#
# Stress axis : x y z
#
# Youngs Moduli (GPa) = 36.98682 36.98211 76.55834
#
# Poissons Ratio (x) = 0.57410 0.24215
# Poissons Ratio (y) = 0.57417 0.24222
# Poissons Ratio (z) = 0.11699 0.11701
#
# Static dielectric constant tensor:
#      x y z
#    x 1.812860 0.000000 0.000000 
#    y 0.000000 1.812860 0.000000 
#    z 0.000000 0.000000 1.722090 
# 
# From -- ./inp_files/1773.got.cif
#   From: 2010.05.17/outbox.cif.g08.bks.cpg/sg119_1_cif.got.tgz:1773.got - 2010.05.20 11:21:29.
