data_PCOD9558579
_publ_section_title
;
Structure prediction by ZEFSAII (Michael W. Deem and Ramdas Pophale) SiO2 
 PCOD9558579
Probable space group: P -4 N 2
;
_chemical_formula_sum "Si O2"
_cell_formula_units_Z 56
_cell_length_a 15.160476
_cell_length_b 15.160476
_cell_length_c 12.031358
_cell_angle_alpha 90.000000
_cell_angle_beta 90.000000
_cell_angle_gamma 90.000000
_cell_volume 2765.287714
_symmetry_space_group_name_H-M "P -4 N 2"
_symmetry_group_IT_number 118
_symmetry_cell_setting 'tetragonal'
loop_
_space_group_symop_operation_xyz
x,y,z
y,-x,-z
-x,-y,z
-y,x,-z
1/2+y,1/2+x,1/2-z
1/2-y,1/2-x,1/2-z
1/2-x,1/2+y,1/2+z
1/2+x,1/2-y,1/2+z
loop_
_atom_site_type_symbol
_atom_site_label
_atom_site_fract_x
_atom_site_fract_y
_atom_site_fract_z
Si Si1 0.068193 0.302883 0.980194
Si Si2 0.675428 0.415186 0.242130
Si Si3 0.074096 0.110185 0.971942
Si Si4 0.495215 0.147661 0.255167
Si Si5 0.249380 0.885663 0.404436
Si Si6 0.883389 0.040410 0.557364
Si Si7 0.864004 0.505259 0.293199
O O1 0.082533 0.205147 0.026271
O O2 0.006292 0.303990 0.872438
O O3 0.162614 0.333100 0.934184
O O4 0.021892 0.360471 0.074619
O O5 0.632222 0.397021 0.361485
O O6 0.666041 0.323440 0.171128
O O7 0.622381 0.488027 0.170999
O O8 0.771682 0.459904 0.256468
O O9 0.970266 0.098319 0.947865
O O10 0.568799 0.068799 0.250000
O O11 0.527583 0.215427 0.160821
O O12 0.401606 0.098395 0.250000
O O13 0.203577 0.909555 0.520612
O O14 0.967047 0.102434 0.540069
O O15 0.899194 0.600807 0.250000
O O16 0.935805 0.435805 0.250000
#
# Coordination Sequence:
#
# PCOD9558579 Si02
#       7
#     8   8   8   8   8   8   8
#     4  11  22  42  63  95 132 172 233 282 345 425
#     4  11  22  41  67  95 130 179 232 281 356 428
#     4  11  24  40  64 100 126 177 225 293 349 418
#     4   9  19  34  59  89 121 166 213 277 335 410
#     4  10  21  37  68  93 130 171 228 282 351 422
#     4   9  20  38  59  88 118 161 211 275 330 412
#     4  11  26  43  65  99 141 189 228 287 355 435
#
# _framework density 20.251056999999999
#
# number of rings (size 3 to 8) (size 9 to 14) (size 15 to 20)
#    0.000    1.714    2.857    0.857    2.000   10.286 
#    0.000    1.429    0.000    1.714    0.000    0.000 
#    0.000    0.000    0.000    0.000    0.000    0.000 
#
# Total GULP energy -311996.991725 kJ/mol
# GULP energy per Si atom -5571.374852 kJ/mol
# Density = 2.020497 g / cm^3
# Si number density = 20.251057 Si / 1000 Ang^3
#
#
#
# Elastic Constant Matrix: (Units=GPa)
#
#
# Indices 1 2 3 4 5 6 
#
# 1 92.9529 28.7388 14.0407 0.0000 0.0000 0.0000
# 2 28.7388 92.9514 14.0413 0.0000 0.0000 0.0000
# 3 14.0407 14.0413 42.9038 0.0000 0.0000 0.0000
# 4 0.0000 0.0000 0.0000 23.1934 0.0000 0.0000
# 5 0.0000 0.0000 0.0000 0.0000 23.1936 0.0000
# 6 0.0000 0.0000 0.0000 0.0000 0.0000 27.2628
#
#
#
# Elastic Compliance Matrix: (Units=1/GPa)
#
#
# Indices 1 2 3 4 5 6 
#
# 1 0.012231 -0.003342 -0.002909 0.000000 0.000000 0.000000
# 2 -0.003342 0.012231 -0.002909 0.000000 0.000000 0.000000
# 3 -0.002909 -0.002909 0.025212 0.000000 0.000000 0.000000
# 4 0.000000 0.000000 0.000000 0.043116 0.000000 0.000000
# 5 0.000000 0.000000 0.000000 0.000000 0.043115 0.000000
# 6 0.000000 0.000000 0.000000 0.000000 0.000000 0.036680
#
#
# Mechanical properties :
#
#
# Convention : Reuss Voigt Hill
#
# Bulk Modulus (GPa) = 31.89426 38.04997 34.97211
# Shear Modulus (GPa) = 24.83155 26.19576 25.51366
#
# Velocity S-wave (km/s) = 3.50549 3.60050 3.55331
# Velocity P-wave (km/s) = 5.67171 6.00955 5.84307
#
# Compressibility (1/GPa) = 0.03135360
#
# Stress axis : x y z
#
# Youngs Moduli (GPa) = 81.76061 81.75887 39.66358
#
# Poissons Ratio (x) = 0.27325 0.11538
# Poissons Ratio (y) = 0.27325 0.11539
# Poissons Ratio (z) = 0.23783 0.23785
#
# Static dielectric constant tensor:
#      x y z
#    x 1.757690 0.000000 0.000000 
#    y 0.000000 1.757700 0.000000 
#    z 0.000000 0.000000 1.709290 
# 
# From -- ./inp_files/3421.got.cif
#   From: 2010.05.17/outbox.cif.g08.bks.cpg/sg118_2_cif.got.tgz:3421.got - 2010.05.20 11:17:24.
