data_PCOD9558008
_publ_section_title
;
Structure prediction by ZEFSAII (Michael W. Deem and Ramdas Pophale) SiO2 
 PCOD9558008
Probable space group: P -4 C 2
;
_chemical_formula_sum "Si O2"
_cell_formula_units_Z 26
_cell_length_a 10.556571
_cell_length_b 10.556571
_cell_length_c 10.913642
_cell_angle_alpha 90.000000
_cell_angle_beta 90.000000
_cell_angle_gamma 90.000000
_cell_volume 1216.229266
_symmetry_space_group_name_H-M "P -4 C 2"
_symmetry_group_IT_number 116
_symmetry_cell_setting 'tetragonal'
loop_
_space_group_symop_operation_xyz
x,y,z
y,-x,-z
-x,-y,z
-y,x,-z
y,x,1/2-z
-y,-x,1/2-z
-x,y,1/2+z
x,-y,1/2+z
loop_
_atom_site_type_symbol
_atom_site_label
_atom_site_fract_x
_atom_site_fract_y
_atom_site_fract_z
Si Si1 0.500000 0.500000 0.750000
Si Si2 0.997377 0.211313 0.739177
Si Si3 0.044434 0.356334 0.485157
Si Si4 0.570247 0.326172 0.553677
O O1 0.009644 0.300886 0.858008
O O2 0.107913 0.107913 0.750000
O O3 0.134743 0.865258 0.750000
O O4 0.008136 0.279189 0.607369
O O5 0.196082 0.360704 0.465381
O O6 0.000000 0.500000 0.500804
O O7 0.659609 0.448915 0.535198
O O8 0.504485 0.365293 0.680335
#
# Coordination Sequence:
#
# PCOD9558008 Si02
#       4
#     2   8   8   8
#     4   8  18  40  68  98 134 192 220 272 390 440
#     4  11  27  50  74 100 145 200 245 301 371 440
#     4  12  27  44  73 112 138 186 248 310 367 435
#     4   9  22  41  66 101 141 181 227 293 378 437
#
# _framework density 21.377549999999999
#
# number of rings (size 3 to 8) (size 9 to 14) (size 15 to 20)
#    0.000    1.846    0.000    2.769   10.769    9.846 
#    2.769    0.000    0.000    0.000    0.000    0.000 
#    0.000    0.000    0.000    0.000    0.000    0.000 
#
# Total GULP energy -145043.987195 kJ/mol
# GULP energy per Si atom -5578.614892 kJ/mol
# Density = 2.132889 g / cm^3
# Si number density = 21.377550 Si / 1000 Ang^3
#
#
#
# Elastic Constant Matrix: (Units=GPa)
#
#
# Indices 1 2 3 4 5 6 
#
# 1 84.2443 36.6524 49.5611 0.0000 0.0000 0.0000
# 2 36.6524 84.2457 49.5613 0.0000 0.0000 0.0000
# 3 49.5611 49.5613 173.3529 0.0000 0.0000 0.0000
# 4 0.0000 0.0000 0.0000 46.3764 0.0000 0.0000
# 5 0.0000 0.0000 0.0000 0.0000 46.3747 0.0000
# 6 0.0000 0.0000 0.0000 0.0000 0.0000 30.2068
#
#
#
# Elastic Compliance Matrix: (Units=1/GPa)
#
#
# Indices 1 2 3 4 5 6 
#
# 1 0.015908 -0.005104 -0.003089 0.000000 0.000000 0.000000
# 2 -0.005104 0.015908 -0.003089 0.000000 0.000000 0.000000
# 3 -0.003089 -0.003089 0.007535 0.000000 0.000000 0.000000
# 4 0.000000 0.000000 0.000000 0.021563 0.000000 0.000000
# 5 0.000000 0.000000 0.000000 0.000000 0.021563 0.000000
# 6 0.000000 0.000000 0.000000 0.000000 0.000000 0.033105
#
#
# Mechanical properties :
#
#
# Convention : Reuss Voigt Hill
#
# Bulk Modulus (GPa) = 59.56855 68.15472 63.86163
# Shear Modulus (GPa) = 34.78489 38.32944 36.55716
#
# Velocity S-wave (km/s) = 4.03819 4.23895 4.13979
# Velocity P-wave (km/s) = 7.04757 7.47723 7.26557
#
# Compressibility (1/GPa) = 0.01678738
#
# Stress axis : x y z
#
# Youngs Moduli (GPa) = 62.86153 62.86272 132.71823
#
# Poissons Ratio (x) = 0.32084 0.40995
# Poissons Ratio (y) = 0.32084 0.40994
# Poissons Ratio (z) = 0.19417 0.19417
#
# Static dielectric constant tensor:
#      x y z
#    x 1.682550 0.000000 0.000000 
#    y 0.000000 1.682560 0.000000 
#    z 0.000000 0.000000 1.939390 
# 
# From -- ./inp_files/2967.got.cif
#   From: 2010.05.17/outbox.cif.g08.bks.cpg/sg116_2_cif.got.tgz:2967.got - 2010.05.20 11:11:43.
