data_PCOD9558999
_publ_section_title
;
Structure prediction by ZEFSAII (Michael W. Deem and Ramdas Pophale) SiO2 
 PCOD9558999
Probable space group: I -4 M 2
;
_chemical_formula_sum "Si O2"
_cell_formula_units_Z 88
_cell_length_a 15.311389
_cell_length_b 15.311389
_cell_length_c 17.336607
_cell_angle_alpha 90.000000
_cell_angle_beta 90.000000
_cell_angle_gamma 90.000000
_cell_volume 4064.370448
_symmetry_space_group_name_H-M "I -4 M 2"
_symmetry_group_IT_number 119
_symmetry_cell_setting 'tetragonal'
loop_
_space_group_symop_operation_xyz
x,y,z
y,-x,-z
-x,-y,z
-y,x,-z
y,x,-z
-y,-x,-z
-x,y,z
x,-y,z
1/2+x,1/2+y,1/2+z
1/2+y,1/2-x,1/2-z
1/2-x,1/2-y,1/2+z
1/2-y,1/2+x,1/2-z
1/2+y,1/2+x,1/2-z
1/2-y,1/2-x,1/2-z
1/2-x,1/2+y,1/2+z
1/2+x,1/2-y,1/2+z
loop_
_atom_site_type_symbol
_atom_site_label
_atom_site_fract_x
_atom_site_fract_y
_atom_site_fract_z
Si Si1 0.179211 0.320790 0.250000
Si Si2 0.397983 0.363358 0.787028
Si Si3 0.206686 0.900991 0.437063
Si Si4 0.402904 0.895505 0.441467
Si Si5 0.783153 0.400021 0.404329
Si Si6 0.091529 0.897096 0.888568
O O1 0.277265 0.342923 0.229230
O O2 0.162762 0.368811 0.330397
O O3 0.500000 0.344430 0.800831
O O4 0.356452 0.403344 0.863233
O O5 0.393286 0.410333 0.704418
O O6 0.167074 0.832927 0.500000
O O7 0.305518 0.879451 0.407368
O O8 0.208830 0.000000 0.470834
O O9 0.500000 0.873601 0.406234
O O10 0.396371 0.841331 0.520346
O O11 0.405887 0.000000 0.454300
O O12 0.762629 0.500000 0.386079
O O13 0.685865 0.358585 0.412329
O O14 0.000000 0.856487 0.918048
O O15 0.088944 0.000000 0.910040
#
# Coordination Sequence:
#
# PCOD9558999 Si02
#       6
#     8  16  16  16  16  16
#     4  10  18  30  48  71 104 139 174 212 258 318
#     4  10  20  33  51  77 110 144 176 217 270 326
#     4  11  22  34  53  81 112 148 188 230 281 342
#     4   9  19  36  55  75 103 142 187 231 273 321
#     4   9  17  28  45  70  98 130 169 214 263 312
#     4   8  14  26  45  70 101 133 162 199 254 318
#
# _framework density 21.65157
#
# number of rings (size 3 to 8) (size 9 to 14) (size 15 to 20)
#    0.000    2.545    0.000    3.818    0.000    4.909 
#    0.000    0.000    0.000   13.364    0.000    0.000 
#    0.000    0.000    0.000    0.000    0.000    0.000 
#
# Total GULP energy -244940.241280 kJ/mol
# GULP energy per Si atom -5566.823665 kJ/mol
# Density = 2.160229 g / cm^3
# Si number density = 21.651570 Si / 1000 Ang^3
#
#
#
# Elastic Constant Matrix: (Units=GPa)
#
#
# Indices 1 2 3 4 5 6 
#
# 1 38.5346 91.1947 16.1500 0.0000 0.0000 0.0000
# 2 91.1947 38.5266 16.1502 0.0000 0.0000 0.0000
# 3 16.1500 16.1502 64.1641 0.0000 0.0000 0.0000
# 4 0.0000 0.0000 0.0000 -4.7948 0.0000 0.0000
# 5 0.0000 0.0000 0.0000 0.0000 -4.7915 0.0000
# 6 0.0000 0.0000 0.0000 0.0000 0.0000 16.5536
#
#
#
# Elastic Compliance Matrix: (Units=1/GPa)
#
#
# Indices 1 2 3 4 5 6 
#
# 1 -0.005382 0.013606 -0.002070 0.000000 0.000000 0.000000
# 2 0.013606 -0.005383 -0.002070 0.000000 0.000000 0.000000
# 3 -0.002070 -0.002070 0.016627 0.000000 0.000000 0.000000
# 4 0.000000 0.000000 0.000000 -0.208558 0.000000 0.000000
# 5 0.000000 0.000000 0.000000 0.000000 -0.208705 0.000000
# 6 0.000000 0.000000 0.000000 0.000000 0.000000 0.060410
#
#
# Mechanical properties :
#
#
# Convention : Reuss Voigt Hill
#
# Bulk Modulus (GPa) = 40.33047 43.13500 41.73274
# Shear Modulus (GPa) = -13.82525 2.57549 -5.62488
#
# Velocity S-wave (km/s) = -2.52966 1.09183 -1.61355
# Velocity P-wave (km/s) = 3.18359 4.64274 3.98060
#
# Compressibility (1/GPa) = 0.02479515
#
# Stress axis : x y z
#
# Youngs Moduli (GPa) = -185.82168 -185.77816 60.14290
#
# Poissons Ratio (x) = 2.52772 0.12451
# Poissons Ratio (y) = 2.52832 0.12448
# Poissons Ratio (z) = -0.38468 -0.38452
#
# Static dielectric constant tensor:
#      x y z
#    x 1.918130 0.000000 0.000000 
#    y 0.000000 1.918130 0.000000 
#    z 0.000000 0.000000 1.792700 
# 
# From -- ./inp_files/7718.got.cif
#   From: 2010.05.17/outbox.cif.g08.bks.cpg/sg119_4_cif.got.tgz:7718.got - 2010.05.20 11:21:29.
