data_PCOD9558793
_publ_section_title
;
Structure prediction by ZEFSAII (Michael W. Deem and Ramdas Pophale) SiO2 
 PCOD9558793
Probable space group: P -4 N 2
;
_chemical_formula_sum "Si O2"
_cell_formula_units_Z 48
_cell_length_a 8.517617
_cell_length_b 8.517617
_cell_length_c 28.669152
_cell_angle_alpha 90.000000
_cell_angle_beta 90.000000
_cell_angle_gamma 90.000000
_cell_volume 2079.941225
_symmetry_space_group_name_H-M "P -4 N 2"
_symmetry_group_IT_number 118
_symmetry_cell_setting 'tetragonal'
loop_
_space_group_symop_operation_xyz
x,y,z
y,-x,-z
-x,-y,z
-y,x,-z
1/2+y,1/2+x,1/2-z
1/2-y,1/2-x,1/2-z
1/2-x,1/2+y,1/2+z
1/2+x,1/2-y,1/2+z
loop_
_atom_site_type_symbol
_atom_site_label
_atom_site_fract_x
_atom_site_fract_y
_atom_site_fract_z
Si Si1 0.672236 0.160690 0.414527
Si Si2 0.252268 0.417372 0.009681
Si Si3 0.927540 0.820772 0.744252
Si Si4 0.451741 0.318394 0.343668
Si Si5 0.309774 0.601644 0.850722
Si Si6 0.021350 0.673733 0.389848
O O1 0.637069 0.138880 0.468872
O O2 0.529960 0.212481 0.383014
O O3 0.800590 0.296873 0.405938
O O4 0.749907 0.001847 0.393917
O O5 0.189716 0.421481 0.062164
O O6 0.311383 0.592541 0.996813
O O7 0.745990 0.754011 0.750000
O O8 0.996776 0.758978 0.792759
O O9 0.004309 0.768266 0.695618
O O10 0.000000 0.000000 0.745538
O O11 0.500000 0.500000 0.348877
O O12 0.271698 0.273260 0.347614
O O13 0.484234 0.671842 0.858227
O O14 0.000000 0.500000 0.369708
#
# Coordination Sequence:
#
# PCOD9558793 Si02
#       6
#     8   8   8   8   8   8
#     4  11  21  39  66  92 125 175 228 280 339 415
#     4   9  18  36  60  90 123 166 227 280 331 410
#     4  11  24  43  71 104 138 178 229 287 347 416
#     4  11  25  42  64  95 136 173 222 285 346 411
#     4  12  23  41  68  97 129 178 231 276 343 416
#     4  11  23  39  63  94 134 174 222 287 355 413
#
# _framework density 23.077577000000002
#
# number of rings (size 3 to 8) (size 9 to 14) (size 15 to 20)
#    0.000    1.167    3.333    3.500    0.000    2.000 
#    0.000    0.000    0.000    0.000    0.000    0.000 
#    0.000    0.000    0.000    0.000    0.000    0.000 
#
# Total GULP energy -267480.855035 kJ/mol
# GULP energy per Si atom -5572.517813 kJ/mol
# Density = 2.302505 g / cm^3
# Si number density = 23.077577 Si / 1000 Ang^3
#
#
#
# Elastic Constant Matrix: (Units=GPa)
#
#
# Indices 1 2 3 4 5 6 
#
# 1 77.4283 18.6318 15.3844 0.0000 0.0000 0.0000
# 2 18.6318 77.4276 15.3842 0.0000 0.0000 0.0000
# 3 15.3844 15.3842 110.7467 0.0000 0.0000 0.0000
# 4 0.0000 0.0000 0.0000 6.0698 0.0000 0.0000
# 5 0.0000 0.0000 0.0000 0.0000 6.0711 0.0000
# 6 0.0000 0.0000 0.0000 0.0000 0.0000 35.9915
#
#
#
# Elastic Compliance Matrix: (Units=1/GPa)
#
#
# Indices 1 2 3 4 5 6 
#
# 1 0.013951 -0.003056 -0.001513 0.000000 0.000000 0.000000
# 2 -0.003056 0.013952 -0.001513 0.000000 0.000000 0.000000
# 3 -0.001513 -0.001513 0.009450 0.000000 0.000000 0.000000
# 4 0.000000 0.000000 0.000000 0.164750 0.000000 0.000000
# 5 0.000000 0.000000 0.000000 0.000000 0.164715 0.000000
# 6 0.000000 0.000000 0.000000 0.000000 0.000000 0.027784
#
#
# Mechanical properties :
#
#
# Convention : Reuss Voigt Hill
#
# Bulk Modulus (GPa) = 39.70435 40.48926 40.09680
# Shear Modulus (GPa) = 12.04344 24.03996 18.04170
#
# Velocity S-wave (km/s) = 2.28692 3.23104 2.79907
# Velocity P-wave (km/s) = 4.92092 5.61270 5.27816
#
# Compressibility (1/GPa) = 0.02518616
#
# Stress axis : x y z
#
# Youngs Moduli (GPa) = 71.67749 71.67683 105.81895
#
# Poissons Ratio (x) = 0.21908 0.16015
# Poissons Ratio (y) = 0.21908 0.16015
# Poissons Ratio (z) = 0.10848 0.10848
#
# Static dielectric constant tensor:
#      x y z
#    x 1.939800 0.000000 0.000000 
#    y 0.000000 1.939800 0.000000 
#    z 0.000000 0.000000 1.852730 
# 
# From -- ./inp_files/6826.got.cif
#   From: 2010.05.17/outbox.cif.g08.bks.cpg/sg118_4_cif.got.tgz:6826.got - 2010.05.20 11:17:24.
