data_PCOD9558002
_publ_section_title
;
Structure prediction by ZEFSAII (Michael W. Deem and Ramdas Pophale) SiO2 
 PCOD9558002
Probable space group: P -4 C 2
;
_chemical_formula_sum "Si O2"
_cell_formula_units_Z 20
_cell_length_a 5.185353
_cell_length_b 5.185353
_cell_length_c 28.503031
_cell_angle_alpha 90.000000
_cell_angle_beta 90.000000
_cell_angle_gamma 90.000000
_cell_volume 766.386241
_symmetry_space_group_name_H-M "P -4 C 2"
_symmetry_group_IT_number 116
_symmetry_cell_setting 'tetragonal'
loop_
_space_group_symop_operation_xyz
x,y,z
y,-x,-z
-x,-y,z
-y,x,-z
y,x,1/2-z
-y,-x,1/2-z
-x,y,1/2+z
x,-y,1/2+z
loop_
_atom_site_type_symbol
_atom_site_label
_atom_site_fract_x
_atom_site_fract_y
_atom_site_fract_z
Si Si1 0.260217 0.323397 0.180230
Si Si2 0.754668 0.823567 0.426694
Si Si3 0.000000 0.000000 0.250000
Si Si4 0.500000 0.500000 0.000000
O O1 0.500000 0.500000 0.193735
O O2 0.286211 0.240999 0.126079
O O3 0.000000 0.500000 0.184606
O O4 0.221593 0.072503 0.212487
O O5 0.718083 0.606799 0.465558
O O6 0.500000 0.000000 0.429379
O O7 0.000000 0.000000 0.434626
#
# Coordination Sequence:
#
# PCOD9558002 Si02
#       4
#     8   8   2   2
#     4  11  26  50  76 116 164 214 276 343 417 502
#     4  11  27  51  78 116 163 210 275 349 420 504
#     4  12  26  44  82 114 170 216 278 342 424 496
#     4  12  28  48  84 110 160 216 284 344 440 510
#
# _framework density 26.096502999999998
#
# number of rings (size 3 to 8) (size 9 to 14) (size 15 to 20)
#    0.000    0.800    4.000    0.600   11.200    0.000 
#    0.000    0.000    0.000    0.000    0.000    0.000 
#    0.000    0.000    0.000    0.000    0.000    0.000 
#
# Total GULP energy -112170.939439 kJ/mol
# GULP energy per Si atom -5608.546972 kJ/mol
# Density = 2.603711 g / cm^3
# Si number density = 26.096503 Si / 1000 Ang^3
#
#
#
# Elastic Constant Matrix: (Units=GPa)
#
#
# Indices 1 2 3 4 5 6 
#
# 1 178.3526 84.1460 62.4178 0.0000 0.0000 0.0000
# 2 84.1460 178.3526 62.4178 0.0000 0.0000 0.0000
# 3 62.4178 62.4178 243.9497 0.0000 0.0000 0.0000
# 4 0.0000 0.0000 0.0000 -27.9170 0.0000 0.0000
# 5 0.0000 0.0000 0.0000 0.0000 -27.9170 0.0000
# 6 0.0000 0.0000 0.0000 0.0000 0.0000 76.0230
#
#
#
# Elastic Compliance Matrix: (Units=1/GPa)
#
#
# Indices 1 2 3 4 5 6 
#
# 1 0.007476 -0.003139 -0.001110 0.000000 0.000000 0.000000
# 2 -0.003139 0.007476 -0.001110 0.000000 0.000000 0.000000
# 3 -0.001110 -0.001110 0.004667 0.000000 0.000000 0.000000
# 4 0.000000 0.000000 0.000000 -0.035820 0.000000 0.000000
# 5 0.000000 0.000000 0.000000 0.000000 -0.035820 0.000000
# 6 0.000000 0.000000 0.000000 0.000000 0.000000 0.013154
#
#
# Mechanical properties :
#
#
# Convention : Reuss Voigt Hill
#
# Bulk Modulus (GPa) = 112.32573 113.17982 112.75277
# Shear Modulus (GPa) = -198.54429 30.14934 -84.19747
#
# Velocity S-wave (km/s) = -8.73189 3.40266 -5.68629
# Velocity P-wave (km/s) = 7.65019 7.67472 0.43356
#
# Compressibility (1/GPa) = 0.00890268
#
# Stress axis : x y z
#
# Youngs Moduli (GPa) = 133.75896 133.75896 214.26585
#
# Poissons Ratio (x) = 0.41985 0.23778
# Poissons Ratio (y) = 0.41985 0.23778
# Poissons Ratio (z) = 0.14844 0.14844
#
# Static dielectric constant tensor:
#      x y z
#    x 1.928290 0.000000 0.000000 
#    y 0.000000 1.928290 0.000000 
#    z 0.000000 0.000000 2.006060 
# 
# From -- ./inp_files/4713.got.cif
#   From: 2010.05.17/outbox.cif.g08.bks.cpg/sg116_3_cif.got.tgz:4713.got - 2010.05.20 11:11:43.
