data_PCOD9558777
_publ_section_title
;
Structure prediction by ZEFSAII (Michael W. Deem and Ramdas Pophale) SiO2 
 PCOD9558777
Probable space group: P -4 N 2
;
_chemical_formula_sum "Si O2"
_cell_formula_units_Z 40
_cell_length_a 8.393494
_cell_length_b 8.393494
_cell_length_c 24.556471
_cell_angle_alpha 90.000000
_cell_angle_beta 90.000000
_cell_angle_gamma 90.000000
_cell_volume 1730.021591
_symmetry_space_group_name_H-M "P -4 N 2"
_symmetry_group_IT_number 118
_symmetry_cell_setting 'tetragonal'
loop_
_space_group_symop_operation_xyz
x,y,z
y,-x,-z
-x,-y,z
-y,x,-z
1/2+y,1/2+x,1/2-z
1/2-y,1/2-x,1/2-z
1/2-x,1/2+y,1/2+z
1/2+x,1/2-y,1/2+z
loop_
_atom_site_type_symbol
_atom_site_label
_atom_site_fract_x
_atom_site_fract_y
_atom_site_fract_z
Si Si1 0.809319 0.803947 0.308870
Si Si2 0.309273 0.513972 0.368527
Si Si3 0.474918 0.744431 0.512866
Si Si4 0.294240 0.424082 0.968332
Si Si5 0.326218 0.346079 0.842755
O O1 0.749155 0.750846 0.250000
O O2 0.754368 0.654871 0.346182
O O3 0.000877 0.817608 0.315880
O O4 0.753353 0.986082 0.321312
O O5 0.500000 0.500000 0.372483
O O6 0.223344 0.538594 0.427233
O O7 0.268523 0.678902 0.336742
O O8 0.607325 0.657192 0.477900
O O9 0.385473 0.877173 0.479481
O O10 0.344644 0.383380 0.907444
O O11 0.329594 0.602089 0.986683
#
# Coordination Sequence:
#
# PCOD9558777 Si02
#       5
#     8   8   8   8   8
#     4  11  27  49  74 104 137 189 260 324 383 452
#     4  12  24  43  73 106 149 194 240 304 371 450
#     4  11  20  39  60  96 144 185 229 272 350 443
#     4  11  21  36  63 100 139 184 229 292 361 448
#     4  11  24  48  72 106 148 188 251 314 381 456
#
# _framework density 23.121096999999999
#
# number of rings (size 3 to 8) (size 9 to 14) (size 15 to 20)
#    0.000    0.800    4.000    5.400    2.800    3.200 
#    0.000    5.000    0.000    0.000    0.000    0.000 
#    0.000    0.000    0.000    0.000    0.000    0.000 
#
# Total GULP energy -223335.999466 kJ/mol
# GULP energy per Si atom -5583.399987 kJ/mol
# Density = 2.306847 g / cm^3
# Si number density = 23.121097 Si / 1000 Ang^3
#
#
#
# Elastic Constant Matrix: (Units=GPa)
#
#
# Indices 1 2 3 4 5 6 
#
# 1 86.9416 108.7177 38.0983 0.0000 0.0000 0.0000
# 2 108.7177 86.9407 38.0984 0.0000 0.0000 0.0000
# 3 38.0983 38.0984 103.6276 0.0000 0.0000 0.0000
# 4 0.0000 0.0000 0.0000 26.3342 0.0000 0.0000
# 5 0.0000 0.0000 0.0000 0.0000 26.3350 0.0000
# 6 0.0000 0.0000 0.0000 0.0000 0.0000 52.1192
#
#
#
# Elastic Compliance Matrix: (Units=1/GPa)
#
#
# Indices 1 2 3 4 5 6 
#
# 1 -0.019978 0.025943 -0.002193 0.000000 0.000000 0.000000
# 2 0.025943 -0.019978 -0.002193 0.000000 0.000000 0.000000
# 3 -0.002193 -0.002193 0.011262 0.000000 0.000000 0.000000
# 4 0.000000 0.000000 0.000000 0.037973 0.000000 0.000000
# 5 0.000000 0.000000 0.000000 0.000000 0.037972 0.000000
# 6 0.000000 0.000000 0.000000 0.000000 0.000000 0.019187
#
#
# Mechanical properties :
#
#
# Convention : Reuss Voigt Hill
#
# Bulk Modulus (GPa) = 69.34633 71.92651 70.63642
# Shear Modulus (GPa) = 177.73450 27.13070 102.43260
#
# Velocity S-wave (km/s) = 8.77713 3.42923 6.66324
# Velocity P-wave (km/s) = 11.52281 6.84512 9.47710
#
# Compressibility (1/GPa) = 0.01442037
#
# Stress axis : x y z
#
# Youngs Moduli (GPa) = -50.05539 -50.05471 88.79070
#
# Poissons Ratio (x) = 1.29857 0.19472
# Poissons Ratio (y) = 1.29859 0.19471
# Poissons Ratio (z) = -0.10978 -0.10977
#
# Static dielectric constant tensor:
#      x y z
#    x 1.831830 0.000000 0.000000 
#    y 0.000000 1.831840 0.000000 
#    z 0.000000 0.000000 1.977040 
# 
# From -- ./inp_files/6480.got.cif
#   From: 2010.05.17/outbox.cif.g08.bks.cpg/sg118_4_cif.got.tgz:6480.got - 2010.05.20 11:17:24.
