data_PCOD9558506
_publ_section_title
;
Structure prediction by ZEFSAII (Michael W. Deem and Ramdas Pophale) SiO2 
 PCOD9558506
Probable space group: P -4 N 2
;
_chemical_formula_sum "Si O2"
_cell_formula_units_Z 52
_cell_length_a 21.171285
_cell_length_b 21.171285
_cell_length_c 5.096966
_cell_angle_alpha 90.000000
_cell_angle_beta 90.000000
_cell_angle_gamma 90.000000
_cell_volume 2284.578964
_symmetry_space_group_name_H-M "P -4 N 2"
_symmetry_group_IT_number 118
_symmetry_cell_setting 'tetragonal'
loop_
_space_group_symop_operation_xyz
x,y,z
y,-x,-z
-x,-y,z
-y,x,-z
1/2+y,1/2+x,1/2-z
1/2-y,1/2-x,1/2-z
1/2-x,1/2+y,1/2+z
1/2+x,1/2-y,1/2+z
loop_
_atom_site_type_symbol
_atom_site_label
_atom_site_fract_x
_atom_site_fract_y
_atom_site_fract_z
Si Si1 0.577174 0.922827 0.750000
Si Si2 0.915808 0.876501 0.232732
Si Si3 0.746575 0.569491 0.959931
Si Si4 0.358818 0.141183 0.250000
Si Si5 0.139677 0.060705 0.735372
Si Si6 0.650622 0.150622 0.250000
Si Si7 0.452097 0.245629 0.378132
Si Si8 0.460693 0.853912 0.639954
O O1 0.616692 0.896190 0.504241
O O2 0.503958 0.910573 0.722251
O O3 0.909055 0.804781 0.328795
O O4 0.872952 0.913890 0.443516
O O5 0.895226 0.892571 0.939460
O O6 0.057657 0.790308 0.132884
O O7 0.805828 0.545560 0.123176
O O8 0.776913 0.629614 0.806576
O O9 0.721522 0.507292 0.803449
O O10 0.384988 0.214494 0.283841
O O11 0.009448 0.110317 0.252538
O O12 0.603704 0.133520 0.488408
O O13 0.493441 0.184148 0.443497
#
# Coordination Sequence:
#
# PCOD9558506 Si02
#       8
#     4   8   8   4   8   4   8   8
#     4  10  20  36  63 101 138 185 243 300 347 402
#     4  12  27  45  75 101 139 171 228 283 359 428
#     4  11  21  44  66  99 137 199 233 293 348 437
#     4  10  20  36  66 103 130 186 242 296 334 413
#     4  12  26  46  71 109 135 178 220 288 355 443
#     4  10  24  38  67  99 142 191 249 288 357 423
#     4  10  21  40  70  98 141 186 243 284 358 416
#     4  10  20  39  68  95 139 192 242 295 350 424
#
# _framework density 22.761306999999999
#
# number of rings (size 3 to 8) (size 9 to 14) (size 15 to 20)
#    0.000    1.231    3.077    3.231    2.154    1.846 
#    0.000    3.846    0.000    0.000    0.000    0.000 
#    0.000    0.000    0.000    0.000    0.000    0.000 
#
# Total GULP energy -289922.081668 kJ/mol
# GULP energy per Si atom -5575.424647 kJ/mol
# Density = 2.270950 g / cm^3
# Si number density = 22.761307 Si / 1000 Ang^3
#
#
#
# Elastic Constant Matrix: (Units=GPa)
#
#
# Indices 1 2 3 4 5 6 
#
# 1 81.9017 32.4644 3.5093 0.0000 0.0000 0.0000
# 2 32.4644 81.9075 3.5092 0.0000 0.0000 0.0000
# 3 3.5093 3.5092 80.1013 0.0000 0.0000 0.0000
# 4 0.0000 0.0000 0.0000 25.3819 0.0000 0.0000
# 5 0.0000 0.0000 0.0000 0.0000 25.3769 0.0000
# 6 0.0000 0.0000 0.0000 0.0000 0.0000 41.0918
#
#
#
# Elastic Compliance Matrix: (Units=1/GPa)
#
#
# Indices 1 2 3 4 5 6 
#
# 1 0.014497 -0.005730 -0.000384 0.000000 0.000000 0.000000
# 2 -0.005730 0.014496 -0.000384 0.000000 0.000000 0.000000
# 3 -0.000384 -0.000384 0.012518 0.000000 0.000000 0.000000
# 4 0.000000 0.000000 0.000000 0.039398 0.000000 0.000000
# 5 0.000000 0.000000 0.000000 0.000000 0.039406 0.000000
# 6 0.000000 0.000000 0.000000 0.000000 0.000000 0.024336
#
#
# Mechanical properties :
#
#
# Convention : Reuss Voigt Hill
#
# Bulk Modulus (GPa) = 35.06819 35.87515 35.47167
# Shear Modulus (GPa) = 29.91283 31.99861 30.95572
#
# Velocity S-wave (km/s) = 3.62912 3.75351 3.69184
# Velocity P-wave (km/s) = 5.74465 5.88055 5.81300
#
# Compressibility (1/GPa) = 0.02851587
#
# Stress axis : x y z
#
# Youngs Moduli (GPa) = 68.97813 68.98306 79.88593
#
# Poissons Ratio (x) = 0.39525 0.03069
# Poissons Ratio (y) = 0.39522 0.03068
# Poissons Ratio (z) = 0.02650 0.02649
#
# Static dielectric constant tensor:
#      x y z
#    x 1.887990 0.000000 0.000000 
#    y 0.000000 1.887980 0.000000 
#    z 0.000000 0.000000 1.920260 
# 
# From -- ./inp_files/902.got.cif
#   From: 2010.05.17/outbox.cif.g08.bks.cpg/sg118_1_cif.got.tgz:902.got - 2010.05.20 11:17:24.
