data_PCOD9558269
_publ_section_title
;
Structure prediction by ZEFSAII (Michael W. Deem and Ramdas Pophale) SiO2 
 PCOD9558269
Probable space group: P -4 B 2
;
_chemical_formula_sum "Si O2"
_cell_formula_units_Z 38
_cell_length_a 17.144571
_cell_length_b 17.144571
_cell_length_c 5.595476
_cell_angle_alpha 90.000000
_cell_angle_beta 90.000000
_cell_angle_gamma 90.000000
_cell_volume 1644.713595
_symmetry_space_group_name_H-M "P -4 B 2"
_symmetry_group_IT_number 117
_symmetry_cell_setting 'tetragonal'
loop_
_space_group_symop_operation_xyz
x,y,z
y,-x,-z
-x,-y,z
-y,x,-z
1/2+y,1/2+x,-z
1/2-y,1/2-x,-z
1/2-x,1/2+y,z
1/2+x,1/2-y,z
loop_
_atom_site_type_symbol
_atom_site_label
_atom_site_fract_x
_atom_site_fract_y
_atom_site_fract_z
Si Si1 0.808131 0.691870 0.500000
Si Si2 0.350177 0.673226 0.202903
Si Si3 0.297442 0.513525 0.030410
Si Si4 0.548156 0.144752 0.800843
Si Si5 0.500000 0.000000 0.500000
Si Si6 0.592738 0.562489 0.426458
O O1 0.746917 0.700977 0.716888
O O2 0.807992 0.606629 0.375510
O O3 0.323309 0.605274 0.018175
O O4 0.362586 0.630712 0.458182
O O5 0.436822 0.704733 0.141033
O O6 0.207351 0.513621 0.107558
O O7 0.357385 0.479535 0.228235
O O8 0.504712 0.076541 0.661095
O O9 0.602266 0.102266 0.000000
O O10 0.582658 0.496164 0.635573
#
# Coordination Sequence:
#
# PCOD9558269 Si02
#       6
#     4   8   8   8   2   8
#     4  11  22  40  66  92 130 180 227 276 360 424
#     4  11  22  37  61  97 129 177 225 278 345 425
#     4  11  22  37  64  94 133 175 221 280 348 417
#     4  11  22  44  70  92 129 178 229 287 353 415
#     4  10  26  42  72  98 116 170 240 296 338 424
#     4   9  18  33  53  84 125 166 212 263 320 404
#
# _framework density 23.104326
#
# number of rings (size 3 to 8) (size 9 to 14) (size 15 to 20)
#    0.000    1.474    4.211    1.579    0.000    2.947 
#    0.000    0.000    9.263    0.000    0.000    0.000 
#    0.000    0.000    0.000    0.000    0.000    0.000 
#
# Total GULP energy -211562.371705 kJ/mol
# GULP energy per Si atom -5567.430834 kJ/mol
# Density = 2.305174 g / cm^3
# Si number density = 23.104326 Si / 1000 Ang^3
#
#
#
# Elastic Constant Matrix: (Units=GPa)
#
#
# Indices 1 2 3 4 5 6 
#
# 1 93.1426 56.9273 15.2373 0.0000 0.0000 0.0000
# 2 56.9273 93.1414 15.2378 0.0000 0.0000 0.0000
# 3 15.2373 15.2378 54.2346 0.0000 0.0000 0.0000
# 4 0.0000 0.0000 0.0000 28.9908 0.0000 0.0000
# 5 0.0000 0.0000 0.0000 0.0000 28.9905 0.0000
# 6 0.0000 0.0000 0.0000 0.0000 0.0000 20.9801
#
#
#
# Elastic Compliance Matrix: (Units=1/GPa)
#
#
# Indices 1 2 3 4 5 6 
#
# 1 0.017340 -0.010273 -0.001985 0.000000 0.000000 0.000000
# 2 -0.010273 0.017340 -0.001986 0.000000 0.000000 0.000000
# 3 -0.001985 -0.001986 0.019554 0.000000 0.000000 0.000000
# 4 0.000000 0.000000 0.000000 0.034494 0.000000 0.000000
# 5 0.000000 0.000000 0.000000 0.000000 0.034494 0.000000
# 6 0.000000 0.000000 0.000000 0.000000 0.000000 0.047664
#
#
# Mechanical properties :
#
#
# Convention : Reuss Voigt Hill
#
# Bulk Modulus (GPa) = 38.84125 46.14702 42.49414
# Shear Modulus (GPa) = 24.04355 26.00003 25.02179
#
# Velocity S-wave (km/s) = 3.22941 3.35824 3.29445
# Velocity P-wave (km/s) = 5.54556 5.92062 5.73615
#
# Compressibility (1/GPa) = 0.02574582
#
# Stress axis : x y z
#
# Youngs Moduli (GPa) = 57.67086 57.66992 51.14023
#
# Poissons Ratio (x) = 0.59245 0.10153
# Poissons Ratio (y) = 0.59246 0.10154
# Poissons Ratio (z) = 0.11449 0.11451
#
# Static dielectric constant tensor:
#      x y z
#    x 1.961970 0.000000 0.000000 
#    y 0.000000 1.961970 0.000000 
#    z 0.000000 0.000000 2.029850 
# 
# From -- ./inp_files/617.got.cif
#   From: 2010.05.17/outbox.cif.g08.bks.cpg/sg117_1_cif.got.tgz:617.got - 2010.05.20 11:15:09.
