data_PCOD9558592
_publ_section_title
;
Structure prediction by ZEFSAII (Michael W. Deem and Ramdas Pophale) SiO2 
 PCOD9558592
Probable space group: P -4 N 2
;
_chemical_formula_sum "Si O2"
_cell_formula_units_Z 48
_cell_length_a 8.278058
_cell_length_b 8.278058
_cell_length_c 31.341741
_cell_angle_alpha 90.000000
_cell_angle_beta 90.000000
_cell_angle_gamma 90.000000
_cell_volume 2147.731799
_symmetry_space_group_name_H-M "P -4 N 2"
_symmetry_group_IT_number 118
_symmetry_cell_setting 'tetragonal'
loop_
_space_group_symop_operation_xyz
x,y,z
y,-x,-z
-x,-y,z
-y,x,-z
1/2+y,1/2+x,1/2-z
1/2-y,1/2-x,1/2-z
1/2-x,1/2+y,1/2+z
1/2+x,1/2-y,1/2+z
loop_
_atom_site_type_symbol
_atom_site_label
_atom_site_fract_x
_atom_site_fract_y
_atom_site_fract_z
Si Si1 0.749717 0.438555 0.426526
Si Si2 0.420814 0.174195 0.339897
Si Si3 0.933844 0.257879 0.490842
Si Si4 0.377713 0.629436 0.270379
Si Si5 0.429274 0.249628 0.438960
Si Si6 0.557665 0.182201 0.665128
O O1 0.903436 0.342661 0.444871
O O2 0.598172 0.339340 0.444588
O O3 0.714510 0.618882 0.442061
O O4 0.737374 0.465776 0.375661
O O5 0.518976 0.297087 0.309668
O O6 0.439764 0.184755 0.390796
O O7 0.238511 0.253347 0.334978
O O8 0.500000 0.000000 0.327873
O O9 0.877134 0.387223 0.525404
O O10 0.104863 0.185321 0.503835
O O11 0.500000 0.500000 0.247153
O O12 0.281681 0.781681 0.250000
O O13 0.241615 0.517644 0.290913
O O14 0.500000 0.000000 0.659900
#
# Coordination Sequence:
#
# PCOD9558592 Si02
#       6
#     8   8   8   8   8   8
#     4  10  21  39  62  86 118 162 221 263 320 395
#     4  10  22  40  65  97 127 168 216 271 329 396
#     4  11  26  39  54  90 130 165 216 281 334 390
#     4  10  22  43  68  97 135 172 214 270 331 407
#     4  10  21  39  63  87 116 167 217 263 323 394
#     4  10  22  41  66  97 129 169 216 272 334 404
#
# _framework density 22.349160000000001
#
# number of rings (size 3 to 8) (size 9 to 14) (size 15 to 20)
#    0.000    1.833    1.667    1.000    7.000    4.667 
#    0.000    3.333    3.667    0.000    0.000    0.000 
#    0.000    0.000    0.000    0.000    0.000    0.000 
#
# Total GULP energy -267229.405509 kJ/mol
# GULP energy per Si atom -5567.279281 kJ/mol
# Density = 2.229829 g / cm^3
# Si number density = 22.349160 Si / 1000 Ang^3
#
#
#
# Elastic Constant Matrix: (Units=GPa)
#
#
# Indices 1 2 3 4 5 6 
#
# 1 107.2504 55.9298 15.3803 0.0000 0.0000 0.0000
# 2 55.9298 107.2504 15.3803 0.0000 0.0000 0.0000
# 3 15.3803 15.3803 47.8379 0.0000 0.0000 0.0000
# 4 0.0000 0.0000 0.0000 13.9441 0.0000 0.0000
# 5 0.0000 0.0000 0.0000 0.0000 13.9441 0.0000
# 6 0.0000 0.0000 0.0000 0.0000 0.0000 53.7228
#
#
#
# Elastic Compliance Matrix: (Units=1/GPa)
#
#
# Indices 1 2 3 4 5 6 
#
# 1 0.013004 -0.006481 -0.002097 0.000000 0.000000 0.000000
# 2 -0.006481 0.013004 -0.002097 0.000000 0.000000 0.000000
# 3 -0.002097 -0.002097 0.022253 0.000000 0.000000 0.000000
# 4 0.000000 0.000000 0.000000 0.071715 0.000000 0.000000
# 5 0.000000 0.000000 0.000000 0.000000 0.071715 0.000000
# 6 0.000000 0.000000 0.000000 0.000000 0.000000 0.018614
#
#
# Mechanical properties :
#
#
# Convention : Reuss Voigt Hill
#
# Bulk Modulus (GPa) = 37.16066 48.41328 42.78697
# Shear Modulus (GPa) = 20.77910 28.03212 24.40561
#
# Velocity S-wave (km/s) = 3.05249 3.54542 3.30815
# Velocity P-wave (km/s) = 5.39323 6.20236 5.81190
#
# Compressibility (1/GPa) = 0.02691018
#
# Stress axis : x y z
#
# Youngs Moduli (GPa) = 76.89674 76.89674 44.93866
#
# Poissons Ratio (x) = 0.49836 0.09425
# Poissons Ratio (y) = 0.49836 0.09425
# Poissons Ratio (z) = 0.16128 0.16128
#
# Static dielectric constant tensor:
#      x y z
#    x 1.883220 0.000000 0.000000 
#    y 0.000000 1.883220 0.000000 
#    z 0.000000 0.000000 1.795310 
# 
# From -- ./inp_files/6838.got.cif
#   From: 2010.05.17/outbox.cif.g08.bks.cpg/sg118_4_cif.got.tgz:6838.got - 2010.05.20 11:17:24.
