data_PCOD9558814
_publ_section_title
;
Structure prediction by ZEFSAII (Michael W. Deem and Ramdas Pophale) SiO2 
 PCOD9558814
Probable space group: P -4 N 2
;
_chemical_formula_sum "Si O2"
_cell_formula_units_Z 40
_cell_length_a 12.078278
_cell_length_b 12.078278
_cell_length_c 13.008237
_cell_angle_alpha 90.000000
_cell_angle_beta 90.000000
_cell_angle_gamma 90.000000
_cell_volume 1897.704046
_symmetry_space_group_name_H-M "P -4 N 2"
_symmetry_group_IT_number 118
_symmetry_cell_setting 'tetragonal'
loop_
_space_group_symop_operation_xyz
x,y,z
y,-x,-z
-x,-y,z
-y,x,-z
1/2+y,1/2+x,1/2-z
1/2-y,1/2-x,1/2-z
1/2-x,1/2+y,1/2+z
1/2+x,1/2-y,1/2+z
loop_
_atom_site_type_symbol
_atom_site_label
_atom_site_fract_x
_atom_site_fract_y
_atom_site_fract_z
Si Si1 0.365287 0.262718 0.515074
Si Si2 0.452677 0.625005 0.648901
Si Si3 0.778665 0.132729 0.421470
Si Si4 0.618806 0.939988 0.362303
Si Si5 0.867986 0.017993 0.627007
O O1 0.459307 0.290488 0.598386
O O2 0.381849 0.347964 0.423175
O O3 0.244782 0.288322 0.562356
O O4 0.365933 0.143529 0.458380
O O5 0.500000 0.500000 0.651928
O O6 0.424377 0.655854 0.765464
O O7 0.891236 0.170888 0.366290
O O8 0.712482 0.035098 0.366285
O O9 0.816976 0.083666 0.532002
O O10 0.617335 0.882666 0.250000
O O11 0.500000 0.000000 0.373371
O O12 0.000000 0.000000 0.613591
#
# Coordination Sequence:
#
# PCOD9558814 Si02
#       5
#     8   8   8   8   8
#     4  12  23  44  67  96 140 172 225 277 341 402
#     4  11  25  40  66  98 127 172 217 279 337 401
#     4  12  23  44  67  95 133 177 222 280 325 407
#     4  11  27  43  67 101 137 180 224 284 348 406
#     4  11  22  41  67  96 127 167 226 268 327 396
#
# _framework density 21.078102999999999
#
# number of rings (size 3 to 8) (size 9 to 14) (size 15 to 20)
#    0.000    0.600    6.000    1.200    8.400    2.400 
#    0.000    0.000    0.000    0.000    0.000    0.000 
#    0.000    0.000    0.000    0.000    0.000    0.000 
#
# Total GULP energy -223640.884270 kJ/mol
# GULP energy per Si atom -5591.022107 kJ/mol
# Density = 2.103013 g / cm^3
# Si number density = 21.078103 Si / 1000 Ang^3
#
#
#
# Elastic Constant Matrix: (Units=GPa)
#
#
# Indices 1 2 3 4 5 6 
#
# 1 53.9545 -14.6151 0.1635 0.0000 0.0000 0.0000
# 2 -14.6151 53.9544 0.1634 0.0000 0.0000 0.0000
# 3 0.1635 0.1634 81.8568 0.0000 0.0000 0.0000
# 4 0.0000 0.0000 0.0000 5.6171 0.0000 0.0000
# 5 0.0000 0.0000 0.0000 0.0000 5.6168 0.0000
# 6 0.0000 0.0000 0.0000 0.0000 0.0000 34.9671
#
#
#
# Elastic Compliance Matrix: (Units=1/GPa)
#
#
# Indices 1 2 3 4 5 6 
#
# 1 0.020002 0.005418 -0.000051 0.000000 0.000000 0.000000
# 2 0.005418 0.020002 -0.000051 0.000000 0.000000 0.000000
# 3 -0.000051 -0.000051 0.012217 0.000000 0.000000 0.000000
# 4 0.000000 0.000000 0.000000 0.178029 0.000000 0.000000
# 5 0.000000 0.000000 0.000000 0.000000 0.178038 0.000000
# 6 0.000000 0.000000 0.000000 0.000000 0.000000 0.028598
#
#
# Mechanical properties :
#
#
# Convention : Reuss Voigt Hill
#
# Bulk Modulus (GPa) = 15.90983 17.90990 16.90986
# Shear Modulus (GPa) = 11.18057 22.84378 17.01218
#
# Velocity S-wave (km/s) = 2.30562 3.29564 2.84404
# Velocity P-wave (km/s) = 3.82783 4.79552 4.33873
#
# Compressibility (1/GPa) = 0.06285423
#
# Stress axis : x y z
#
# Youngs Moduli (GPa) = 49.99505 49.99492 81.85543
#
# Poissons Ratio (x) = -0.27089 0.00416
# Poissons Ratio (y) = -0.27089 0.00415
# Poissons Ratio (z) = 0.00254 0.00254
#
# Static dielectric constant tensor:
#      x y z
#    x 1.852930 0.000000 0.000000 
#    y 0.000000 1.852920 0.000000 
#    z 0.000000 0.000000 1.760890 
# 
# From -- ./inp_files/4048.got.cif
#   From: 2010.05.17/outbox.cif.g08.bks.cpg/sg118_3_cif.got.tgz:4048.got - 2010.05.20 11:17:24.
