data_PCOD9558572
_publ_section_title
;
Structure prediction by ZEFSAII (Michael W. Deem and Ramdas Pophale) SiO2 
 PCOD9558572
Probable space group: P -4 N 2
;
_chemical_formula_sum "Si O2"
_cell_formula_units_Z 32
_cell_length_a 7.519664
_cell_length_b 7.519664
_cell_length_c 22.780660
_cell_angle_alpha 90.000000
_cell_angle_beta 90.000000
_cell_angle_gamma 90.000000
_cell_volume 1288.140317
_symmetry_space_group_name_H-M "P -4 N 2"
_symmetry_group_IT_number 118
_symmetry_cell_setting 'tetragonal'
loop_
_space_group_symop_operation_xyz
x,y,z
y,-x,-z
-x,-y,z
-y,x,-z
1/2+y,1/2+x,1/2-z
1/2-y,1/2-x,1/2-z
1/2-x,1/2+y,1/2+z
1/2+x,1/2-y,1/2+z
loop_
_atom_site_type_symbol
_atom_site_label
_atom_site_fract_x
_atom_site_fract_y
_atom_site_fract_z
Si Si1 0.898646 0.276396 0.988873
Si Si2 0.312307 0.779759 0.313904
Si Si3 0.783793 0.969677 0.591766
Si Si4 0.327498 0.184455 0.355331
O O1 0.805133 0.422950 0.029861
O O2 0.897846 0.339581 0.921862
O O3 0.095224 0.216531 0.007306
O O4 0.238316 0.738316 0.250000
O O5 0.196930 0.725232 0.369053
O O6 0.515400 0.717843 0.321218
O O7 0.307456 0.996051 0.322239
O O8 0.728001 0.138954 0.631021
O O9 0.000000 0.000000 0.585212
#
# Coordination Sequence:
#
# PCOD9558572 Si02
#       4
#     8   8   8   8
#     4  11  24  42  65 102 151 186 234 300 366 437
#     4  10  21  43  66  99 144 188 243 282 348 433
#     4  10  23  39  66 103 131 188 239 288 359 419
#     4  10  21  36  67  96 132 182 234 289 349 411
#
# _framework density 24.842013999999999
#
# number of rings (size 3 to 8) (size 9 to 14) (size 15 to 20)
#    0.000    1.750    2.500    1.500    7.000    1.000 
#    0.000   10.000    0.000    0.000    0.000    0.000 
#    0.000    0.000    0.000    0.000    0.000    0.000 
#
# Total GULP energy -178862.908086 kJ/mol
# GULP energy per Si atom -5589.465878 kJ/mol
# Density = 2.478547 g / cm^3
# Si number density = 24.842014 Si / 1000 Ang^3
#
#
#
# Elastic Constant Matrix: (Units=GPa)
#
#
# Indices 1 2 3 4 5 6 
#
# 1 116.8175 1.3590 -7.9517 0.0000 0.0000 0.0000
# 2 1.3590 116.8175 -7.9517 0.0000 0.0000 0.0000
# 3 -7.9517 -7.9517 105.5881 0.0000 0.0000 0.0000
# 4 0.0000 0.0000 0.0000-3813.1588 0.0000 0.0000
# 5 0.0000 0.0000 0.0000 0.0000-3813.1588 0.0000
# 6 0.0000 0.0000 0.0000 0.0000 0.0000 23.1968
#
#
#
# Elastic Compliance Matrix: (Units=1/GPa)
#
#
# Indices 1 2 3 4 5 6 
#
# 1 0.008605 -0.000056 0.000644 0.000000 0.000000 0.000000
# 2 -0.000056 0.008605 0.000644 0.000000 0.000000 0.000000
# 3 0.000644 0.000644 0.009568 0.000000 0.000000 0.000000
# 4 0.000000 0.000000 0.000000 -0.000262 0.000000 0.000000
# 5 0.000000 0.000000 0.000000 0.000000 -0.000262 0.000000
# 6 0.000000 0.000000 0.000000 0.000000 0.000000 0.043109
#
#
# Mechanical properties :
#
#
# Convention : Reuss Voigt Hill
#
# Bulk Modulus (GPa) = 34.19977 34.45936 34.32956
# Shear Modulus (GPa) = 65.23463 -1497.03967 -715.90252
#
# Velocity S-wave (km/s) = 5.12999 -24.57504 -16.99435
# Velocity P-wave (km/s) = 6.99184 28.13080 19.26727
#
# Compressibility (1/GPa) = 0.02923997
#
# Stress axis : x y z
#
# Youngs Moduli (GPa) = 116.21365 116.21365 104.51805
#
# Poissons Ratio (x) = 0.00654 -0.06729
# Poissons Ratio (y) = 0.00654 -0.06729
# Poissons Ratio (z) = -0.07482 -0.07482
#
# Static dielectric constant tensor:
#      x y z
#    x 12.491670 0.000000 0.000000 
#    y 0.000000 12.491670 0.000000 
#    z 0.000000 0.000000 1.858670 
# 
# From -- ./inp_files/5316.got.cif
#   From: 2010.05.17/outbox.cif.g08.bks.cpg/sg118_3_cif.got.tgz:5316.got - 2010.05.20 11:17:24.
