data_PCOD9558461
_publ_section_title
;
Structure prediction by ZEFSAII (Michael W. Deem and Ramdas Pophale) SiO2 
 PCOD9558461
Probable space group: P -4 N 2
;
_chemical_formula_sum "Si O2"
_cell_formula_units_Z 44
_cell_length_a 9.339646
_cell_length_b 9.339646
_cell_length_c 28.094844
_cell_angle_alpha 90.000000
_cell_angle_beta 90.000000
_cell_angle_gamma 90.000000
_cell_volume 2450.684793
_symmetry_space_group_name_H-M "P -4 N 2"
_symmetry_group_IT_number 118
_symmetry_cell_setting 'tetragonal'
loop_
_space_group_symop_operation_xyz
x,y,z
y,-x,-z
-x,-y,z
-y,x,-z
1/2+y,1/2+x,1/2-z
1/2-y,1/2-x,1/2-z
1/2-x,1/2+y,1/2+z
1/2+x,1/2-y,1/2+z
loop_
_atom_site_type_symbol
_atom_site_label
_atom_site_fract_x
_atom_site_fract_y
_atom_site_fract_z
Si Si1 0.000000 0.500000 0.941575
Si Si2 0.664793 0.467878 0.790314
Si Si3 0.867265 0.221232 0.815012
Si Si4 0.487414 0.265496 0.509777
Si Si5 0.143425 0.347138 0.860054
Si Si6 0.666920 0.475181 0.389084
O O1 0.872396 0.555077 0.906998
O O2 0.961466 0.367611 0.975528
O O3 0.500000 0.500000 0.800950
O O4 0.726290 0.314475 0.806515
O O5 0.684673 0.453590 0.733331
O O6 0.763720 0.582469 0.818076
O O7 0.825398 0.081499 0.844555
O O8 0.980025 0.319106 0.843460
O O9 0.353103 0.373473 0.507381
O O10 0.511201 0.235679 0.565678
O O11 0.193323 0.187500 0.873608
O O12 0.500000 0.500000 0.405146
#
# Coordination Sequence:
#
# PCOD9558461 Si02
#       6
#     4   8   8   8   8   8
#     4  12  22  36  59  92 114 145 204 248 294 358
#     4  11  22  37  56  88 123 154 189 243 301 354
#     4  10  21  38  62  85 113 156 203 239 288 357
#     4  11  20  37  60  83 114 150 193 244 291 348
#     4  11  20  37  60  86 114 148 192 248 294 349
#     4  10  19  37  62  86 110 154 202 243 290 350
#
# _framework density 17.954165
#
# number of rings (size 3 to 8) (size 9 to 14) (size 15 to 20)
#    0.000    1.273    5.455    3.273    0.000    1.455 
#    3.273    0.000    0.000    2.182    0.000    0.000 
#    0.000    0.000    0.000    0.000    0.000    0.000 
#
# Total GULP energy -245295.296834 kJ/mol
# GULP energy per Si atom -5574.893110 kJ/mol
# Density = 1.791330 g / cm^3
# Si number density = 17.954165 Si / 1000 Ang^3
#
#
#
# Elastic Constant Matrix: (Units=GPa)
#
#
# Indices 1 2 3 4 5 6 
#
# 1 89.2121 46.6972 51.8530 0.0000 0.0000 0.0000
# 2 46.6972 89.2121 51.8530 0.0000 0.0000 0.0000
# 3 51.8530 51.8530 138.3812 0.0000 0.0000 0.0000
# 4 0.0000 0.0000 0.0000 23.4659 0.0000 0.0000
# 5 0.0000 0.0000 0.0000 0.0000 23.4659 0.0000
# 6 0.0000 0.0000 0.0000 0.0000 0.0000 11.1682
#
#
#
# Elastic Compliance Matrix: (Units=1/GPa)
#
#
# Indices 1 2 3 4 5 6 
#
# 1 0.016913 -0.006609 -0.003861 0.000000 0.000000 0.000000
# 2 -0.006609 0.016913 -0.003861 0.000000 0.000000 0.000000
# 3 -0.003861 -0.003861 0.010120 0.000000 0.000000 0.000000
# 4 0.000000 0.000000 0.000000 0.042615 0.000000 0.000000
# 5 0.000000 0.000000 0.000000 0.000000 0.042615 0.000000
# 6 0.000000 0.000000 0.000000 0.000000 0.000000 0.089540
#
#
# Mechanical properties :
#
#
# Convention : Reuss Voigt Hill
#
# Bulk Modulus (GPa) = 65.42846 68.62354 67.02600
# Shear Modulus (GPa) = 19.80424 22.71348 21.25886
#
# Velocity S-wave (km/s) = 3.32481 3.56066 3.44475
# Velocity P-wave (km/s) = 7.15963 7.43027 7.29620
#
# Compressibility (1/GPa) = 0.01528387
#
# Stress axis : x y z
#
# Youngs Moduli (GPa) = 59.12750 59.12750 98.81464
#
# Poissons Ratio (x) = 0.39075 0.38153
# Poissons Ratio (y) = 0.39075 0.38153
# Poissons Ratio (z) = 0.22829 0.22829
#
# Static dielectric constant tensor:
#      x y z
#    x 1.611280 0.000000 0.000000 
#    y 0.000000 1.611280 0.000000 
#    z 0.000000 0.000000 1.687160 
# 
# From -- ./inp_files/6767.got.cif
#   From: 2010.05.17/outbox.cif.g08.bks.cpg/sg118_4_cif.got.tgz:6767.got - 2010.05.20 11:17:24.
