data_PCOD9558916
_publ_section_title
;
Structure prediction by ZEFSAII (Michael W. Deem and Ramdas Pophale) SiO2 
 PCOD9558916
Probable space group: P -4 N 2
;
_chemical_formula_sum "Si O2"
_cell_formula_units_Z 18
_cell_length_a 12.361830
_cell_length_b 12.361830
_cell_length_c 4.871161
_cell_angle_alpha 90.000000
_cell_angle_beta 90.000000
_cell_angle_gamma 90.000000
_cell_volume 744.385693
_symmetry_space_group_name_H-M "P -4 N 2"
_symmetry_group_IT_number 118
_symmetry_cell_setting 'tetragonal'
loop_
_space_group_symop_operation_xyz
x,y,z
y,-x,-z
-x,-y,z
-y,x,-z
1/2+y,1/2+x,1/2-z
1/2-y,1/2-x,1/2-z
1/2-x,1/2+y,1/2+z
1/2+x,1/2-y,1/2+z
loop_
_atom_site_type_symbol
_atom_site_label
_atom_site_fract_x
_atom_site_fract_y
_atom_site_fract_z
Si Si1 0.502464 0.753812 0.123772
Si Si2 0.631105 0.701994 0.643393
Si Si3 0.000000 0.500000 0.750000
O O1 0.598792 0.718693 0.329851
O O2 0.396909 0.707073 0.272713
O O3 0.498174 0.884108 0.095842
O O4 0.523829 0.698468 0.831999
O O5 0.692385 0.807616 0.750000
#
# Coordination Sequence:
#
# PCOD9558916 Si02
#       3
#     8   8   2
#     4  12  27  45  74  99 143 179 236 277 349 407
#     4  12  25  46  68 105 137 181 227 293 337 407
#     4  12  24  46  72 106 128 190 224 286 332 414
#
# _framework density 24.181011999999999
#
# number of rings (size 3 to 8) (size 9 to 14) (size 15 to 20)
#    0.000    0.000    6.667    2.667    0.000    8.889 
#    0.000    0.000    0.000    0.000    0.000    0.000 
#    0.000    0.000    0.000    0.000    0.000    0.000 
#
# Total GULP energy -100704.196391 kJ/mol
# GULP energy per Si atom -5594.677577 kJ/mol
# Density = 2.412597 g / cm^3
# Si number density = 24.181012 Si / 1000 Ang^3
#
#
#
# Elastic Constant Matrix: (Units=GPa)
#
#
# Indices 1 2 3 4 5 6 
#
# 1 99.6369 49.9947 12.7501 0.0000 0.0000 0.0000
# 2 49.9947 99.6344 12.7497 0.0000 0.0000 0.0000
# 3 12.7501 12.7497 108.7490 0.0000 0.0000 0.0000
# 4 0.0000 0.0000 0.0000 24.8126 0.0000 0.0000
# 5 0.0000 0.0000 0.0000 0.0000 24.8119 0.0000
# 6 0.0000 0.0000 0.0000 0.0000 0.0000 51.3661
#
#
#
# Elastic Compliance Matrix: (Units=1/GPa)
#
#
# Indices 1 2 3 4 5 6 
#
# 1 0.013482 -0.006663 -0.000800 0.000000 0.000000 0.000000
# 2 -0.006663 0.013482 -0.000800 0.000000 0.000000 0.000000
# 3 -0.000800 -0.000800 0.009383 0.000000 0.000000 0.000000
# 4 0.000000 0.000000 0.000000 0.040302 0.000000 0.000000
# 5 0.000000 0.000000 0.000000 0.000000 0.040303 0.000000
# 6 0.000000 0.000000 0.000000 0.000000 0.000000 0.019468
#
#
# Mechanical properties :
#
#
# Convention : Reuss Voigt Hill
#
# Bulk Modulus (GPa) = 50.44472 51.00101 50.72286
# Shear Modulus (GPa) = 31.33781 35.69983 33.51882
#
# Velocity S-wave (km/s) = 3.60386 3.84651 3.72716
# Velocity P-wave (km/s) = 6.18253 6.39255 6.28841
#
# Compressibility (1/GPa) = 0.01982368
#
# Stress axis : x y z
#
# Youngs Moduli (GPa) = 74.17373 74.17190 106.57619
#
# Poissons Ratio (x) = 0.49418 0.08521
# Poissons Ratio (y) = 0.49419 0.08521
# Poissons Ratio (z) = 0.05930 0.05930
#
# Static dielectric constant tensor:
#      x y z
#    x 1.940800 0.000000 0.000000 
#    y 0.000000 1.940800 0.000000 
#    z 0.000000 0.000000 1.924340 
# 
# From -- ./inp_files/71.got.cif
#   From: 2010.05.17/outbox.cif.g08.bks.cpg/sg118_1_cif.got.tgz:71.got - 2010.05.20 11:17:24.
