data_PCOD9558285
_publ_section_title
;
Structure prediction by ZEFSAII (Michael W. Deem and Ramdas Pophale) SiO2 
 PCOD9558285
Probable space group: P -4 B 2
;
_chemical_formula_sum "Si O2"
_cell_formula_units_Z 34
_cell_length_a 11.865871
_cell_length_b 11.865871
_cell_length_c 9.506378
_cell_angle_alpha 90.000000
_cell_angle_beta 90.000000
_cell_angle_gamma 90.000000
_cell_volume 1338.487514
_symmetry_space_group_name_H-M "P -4 B 2"
_symmetry_group_IT_number 117
_symmetry_cell_setting 'tetragonal'
loop_
_space_group_symop_operation_xyz
x,y,z
y,-x,-z
-x,-y,z
-y,x,-z
1/2+y,1/2+x,-z
1/2-y,1/2-x,-z
1/2-x,1/2+y,z
1/2+x,1/2-y,z
loop_
_atom_site_type_symbol
_atom_site_label
_atom_site_fract_x
_atom_site_fract_y
_atom_site_fract_z
Si Si1 0.371812 0.950469 0.265295
Si Si2 0.500000 0.500000 0.500000
Si Si3 0.276901 0.592799 0.461363
Si Si4 0.068606 0.753832 0.988201
Si Si5 0.588356 0.306677 0.212682
O O1 0.378374 0.816697 0.265614
O O2 0.500000 0.000000 0.253538
O O3 0.312497 0.000255 0.405957
O O4 0.295443 0.981232 0.128366
O O5 0.380120 0.553243 0.563247
O O6 0.201400 0.701400 0.500000
O O7 0.354294 0.613297 0.325691
O O8 0.142246 0.854065 0.926639
O O9 0.148448 0.648448 0.000000
O O10 0.033322 0.786972 0.145816
#
# Coordination Sequence:
#
# PCOD9558285 Si02
#       5
#     8   2   8   8   8
#     4  11  23  43  74 108 149 195 256 325 398 481
#     4  12  28  52  76 102 164 192 280 344 396 474
#     4  11  28  49  78 112 149 215 268 339 411 488
#     4  11  22  39  66 101 143 190 238 305 385 470
#     4  11  25  42  69 106 148 196 254 315 402 480
#
# _framework density 25.401806000000001
#
# number of rings (size 3 to 8) (size 9 to 14) (size 15 to 20)
#    0.000    0.941    2.353    3.529    3.294    6.588 
#    0.000    0.000    0.000    0.000    0.000    0.000 
#    0.000    0.000    0.000    0.000    0.000    0.000 
#
# Total GULP energy -189369.804231 kJ/mol
# GULP energy per Si atom -5569.700124 kJ/mol
# Density = 2.534399 g / cm^3
# Si number density = 25.401806 Si / 1000 Ang^3
#
#
#
# Elastic Constant Matrix: (Units=GPa)
#
#
# Indices 1 2 3 4 5 6 
#
# 1 264.3966 -127.6803 36.8885 0.0000 0.0000 0.0000
# 2 -127.6803 264.3966 36.8885 0.0000 0.0000 0.0000
# 3 36.8885 36.8885 91.5606 0.0000 0.0000 0.0000
# 4 0.0000 0.0000 0.0000 22.4918 0.0000 0.0000
# 5 0.0000 0.0000 0.0000 0.0000 22.4918 0.0000
# 6 0.0000 0.0000 0.0000 0.0000 0.0000 49.7187
#
#
#
# Elastic Compliance Matrix: (Units=1/GPa)
#
#
# Indices 1 2 3 4 5 6 
#
# 1 0.005948 0.003398 -0.003766 0.000000 0.000000 0.000000
# 2 0.003398 0.005948 -0.003766 0.000000 0.000000 0.000000
# 3 -0.003766 -0.003766 0.013956 0.000000 0.000000 0.000000
# 4 0.000000 0.000000 0.000000 0.044461 0.000000 0.000000
# 5 0.000000 0.000000 0.000000 0.000000 0.044461 0.000000
# 6 0.000000 0.000000 0.000000 0.000000 0.000000 0.020113
#
#
# Mechanical properties :
#
#
# Convention : Reuss Voigt Hill
#
# Bulk Modulus (GPa) = 56.86154 56.94970 56.90562
# Shear Modulus (GPa) = 33.55348 63.89094 48.72221
#
# Velocity S-wave (km/s) = 3.63837 5.02063 4.38432
# Velocity P-wave (km/s) = 6.33118 7.48847 6.93401
#
# Compressibility (1/GPa) = 0.01758658
#
# Stress axis : x y z
#
# Youngs Moduli (GPa) = 168.11017 168.11017 71.65429
#
# Poissons Ratio (x) = -0.57123 0.26982
# Poissons Ratio (y) = -0.57123 0.26982
# Poissons Ratio (z) = 0.63303 0.63303
#
# Static dielectric constant tensor:
#      x y z
#    x 2.034610 0.000000 0.000000 
#    y 0.000000 2.034610 0.000000 
#    z 0.000000 0.000000 2.215660 
# 
# From -- ./inp_files/2430.got.cif
#   From: 2010.05.17/outbox.cif.g08.bks.cpg/sg117_2_cif.got.tgz:2430.got - 2010.05.20 11:15:09.
