data_PCOD9558133
_publ_section_title
;
Structure prediction by ZEFSAII (Michael W. Deem and Ramdas Pophale) SiO2 
 PCOD9558133
Probable space group: P -4 B 2
;
_chemical_formula_sum "Si O2"
_cell_formula_units_Z 56
_cell_length_a 12.974432
_cell_length_b 12.974432
_cell_length_c 14.531102
_cell_angle_alpha 90.000000
_cell_angle_beta 90.000000
_cell_angle_gamma 90.000000
_cell_volume 2446.105926
_symmetry_space_group_name_H-M "P -4 B 2"
_symmetry_group_IT_number 117
_symmetry_cell_setting 'tetragonal'
loop_
_space_group_symop_operation_xyz
x,y,z
y,-x,-z
-x,-y,z
-y,x,-z
1/2+y,1/2+x,-z
1/2-y,1/2-x,-z
1/2-x,1/2+y,z
1/2+x,1/2-y,z
loop_
_atom_site_type_symbol
_atom_site_label
_atom_site_fract_x
_atom_site_fract_y
_atom_site_fract_z
Si Si1 0.963736 0.696996 0.953341
Si Si2 0.760037 0.040515 0.855601
Si Si3 0.598395 0.565554 0.700526
Si Si4 0.398158 0.108072 0.202328
Si Si5 0.260669 0.306318 0.187613
Si Si6 0.830610 0.029988 0.516174
Si Si7 0.980102 0.724637 0.668701
O O1 0.893649 0.771349 0.890505
O O2 0.047068 0.644916 0.886553
O O3 0.891500 0.608501 0.000000
O O4 0.004274 0.758015 0.042110
O O5 0.858584 0.017390 0.793502
O O6 0.758568 0.163973 0.850571
O O7 0.647245 0.013490 0.812824
O O8 0.500000 0.500000 0.669006
O O9 0.687316 0.553460 0.623430
O O10 0.555026 0.681057 0.702645
O O11 0.345584 0.220736 0.205094
O O12 0.373263 0.040592 0.291355
O O13 0.238485 0.371257 0.279955
O O14 0.741369 0.032202 0.440309
O O15 0.917748 0.115088 0.490312
#
# Coordination Sequence:
#
# PCOD9558133 Si02
#       7
#     8   8   8   8   8   8   8
#     4   9  22  40  62  87 122 166 219 247 304 383
#     4  11  23  37  61  87 124 167 206 255 316 367
#     4  11  19  37  62  91 122 156 206 257 315 369
#     4  11  22  39  64  90 126 165 211 263 311 374
#     4  10  22  41  61  91 125 159 211 265 309 368
#     4   9  16  32  61  89 116 155 197 250 302 372
#     4  10  20  37  62  90 123 156 205 255 315 369
#
# _framework density 22.893532
#
# number of rings (size 3 to 8) (size 9 to 14) (size 15 to 20)
#    0.000    1.857    4.286    1.286    0.000   10.286 
#    0.000    1.429    0.000    0.000    0.000    6.000 
#    0.000    0.000    0.000    0.000    0.000    0.000 
#
# Total GULP energy -312480.085699 kJ/mol
# GULP energy per Si atom -5580.001530 kJ/mol
# Density = 2.284142 g / cm^3
# Si number density = 22.893532 Si / 1000 Ang^3
#
#
#
# Elastic Constant Matrix: (Units=GPa)
#
#
# Indices 1 2 3 4 5 6 
#
# 1 44.6123 -1.1187 8.4673 0.0000 0.0000 0.0000
# 2 -1.1187 44.6123 8.4673 0.0000 0.0000 0.0000
# 3 8.4673 8.4673 88.8036 0.0000 0.0000 0.0000
# 4 0.0000 0.0000 0.0000 27.7660 0.0000 0.0000
# 5 0.0000 0.0000 0.0000 0.0000 27.7659 0.0000
# 6 0.0000 0.0000 0.0000 0.0000 0.0000 28.3609
#
#
#
# Elastic Compliance Matrix: (Units=1/GPa)
#
#
# Indices 1 2 3 4 5 6 
#
# 1 0.022873 0.001006 -0.002277 0.000000 0.000000 0.000000
# 2 0.001006 0.022873 -0.002277 0.000000 0.000000 0.000000
# 3 -0.002277 -0.002277 0.011695 0.000000 0.000000 0.000000
# 4 0.000000 0.000000 0.000000 0.036015 0.000000 0.000000
# 5 0.000000 0.000000 0.000000 0.000000 0.036015 0.000000
# 6 0.000000 0.000000 0.000000 0.000000 0.000000 0.035260
#
#
# Mechanical properties :
#
#
# Convention : Reuss Voigt Hill
#
# Bulk Modulus (GPa) = 19.86311 23.29557 21.57934
# Shear Modulus (GPa) = 26.51001 27.59272 27.05137
#
# Velocity S-wave (km/s) = 3.40659 3.47546 3.44119
# Velocity P-wave (km/s) = 4.91612 5.12862 5.02350
#
# Compressibility (1/GPa) = 0.05034458
#
# Stress axis : x y z
#
# Youngs Moduli (GPa) = 43.72032 43.72026 85.50684
#
# Poissons Ratio (x) = -0.04397 0.19468
# Poissons Ratio (y) = -0.04397 0.19468
# Poissons Ratio (z) = 0.09954 0.09954
#
# Static dielectric constant tensor:
#      x y z
#    x 1.900810 0.000000 0.000000 
#    y 0.000000 1.900810 0.000000 
#    z 0.000000 0.000000 1.937300 
# 
# From -- ./inp_files/3218.got.cif
#   From: 2010.05.17/outbox.cif.g08.bks.cpg/sg117_2_cif.got.tgz:3218.got - 2010.05.20 11:15:09.
