data_PCOD9558590
_publ_section_title
;
Structure prediction by ZEFSAII (Michael W. Deem and Ramdas Pophale) SiO2 
 PCOD9558590
Probable space group: P -4 N 2
;
_chemical_formula_sum "Si O2"
_cell_formula_units_Z 46
_cell_length_a 10.746673
_cell_length_b 10.746673
_cell_length_c 19.789758
_cell_angle_alpha 90.000000
_cell_angle_beta 90.000000
_cell_angle_gamma 90.000000
_cell_volume 2285.538557
_symmetry_space_group_name_H-M "P -4 N 2"
_symmetry_group_IT_number 118
_symmetry_cell_setting 'tetragonal'
loop_
_space_group_symop_operation_xyz
x,y,z
y,-x,-z
-x,-y,z
-y,x,-z
1/2+y,1/2+x,1/2-z
1/2-y,1/2-x,1/2-z
1/2-x,1/2+y,1/2+z
1/2+x,1/2-y,1/2+z
loop_
_atom_site_type_symbol
_atom_site_label
_atom_site_fract_x
_atom_site_fract_y
_atom_site_fract_z
Si Si1 0.304984 0.534000 0.610476
Si Si2 0.228185 0.728185 0.250000
Si Si3 0.202142 0.733020 0.106720
Si Si4 0.148687 0.987836 0.410543
Si Si5 0.091954 0.616175 0.519486
Si Si6 0.000000 0.000000 0.000000
Si Si7 0.512505 0.647771 0.238886
O O1 0.302477 0.382892 0.607178
O O2 0.176245 0.584747 0.583603
O O3 0.408200 0.568649 0.553496
O O4 0.323494 0.574375 0.688415
O O5 0.162484 0.688268 0.181205
O O6 0.375413 0.707308 0.243012
O O7 0.343225 0.685228 0.097652
O O8 0.123264 0.676317 0.046844
O O9 0.176128 0.055583 0.337792
O O10 0.246700 0.036026 0.466104
O O11 0.000000 0.000000 0.423431
O O12 0.000000 0.500000 0.512129
O O13 0.500000 0.500000 0.239376
#
# Coordination Sequence:
#
# PCOD9558590 Si02
#       7
#     8   4   8   8   8   2   8
#     4  11  21  37  61  90 121 159 204 260 322 368
#     4   8  18  36  59  85 112 160 208 250 306 375
#     4  10  21  39  61  85 121 162 206 254 314 376
#     4  10  23  40  61  87 121 170 210 252 313 383
#     4  12  25  38  59  97 131 157 211 270 314 378
#     4  12  20  36  60  88 112 160 194 260 312 372
#     4   9  18  36  60  86 119 162 211 252 308 389
#
# _framework density 20.126546999999999
#
# number of rings (size 3 to 8) (size 9 to 14) (size 15 to 20)
#    0.000    1.739    4.348    0.000    2.435    0.696 
#    0.000    1.304    0.000    0.000    0.000    0.000 
#    0.000    0.000    0.000    0.000    0.000    0.000 
#
# Total GULP energy -256196.832352 kJ/mol
# GULP energy per Si atom -5569.496355 kJ/mol
# Density = 2.008074 g / cm^3
# Si number density = 20.126547 Si / 1000 Ang^3
#
#
#
# Elastic Constant Matrix: (Units=GPa)
#
#
# Indices 1 2 3 4 5 6 
#
# 1 51.5177 20.1713 16.9458 0.0000 0.0000 0.0000
# 2 20.1713 51.5177 16.9458 0.0000 0.0000 0.0000
# 3 16.9458 16.9458 150.0259 0.0000 0.0000 0.0000
# 4 0.0000 0.0000 0.0000 17.0330 0.0000 0.0000
# 5 0.0000 0.0000 0.0000 0.0000 17.0330 0.0000
# 6 0.0000 0.0000 0.0000 0.0000 0.0000 13.8331
#
#
#
# Elastic Compliance Matrix: (Units=1/GPa)
#
#
# Indices 1 2 3 4 5 6 
#
# 1 0.023319 -0.008583 -0.001664 0.000000 0.000000 0.000000
# 2 -0.008583 0.023319 -0.001664 0.000000 0.000000 0.000000
# 3 -0.001664 -0.001664 0.007042 0.000000 0.000000 0.000000
# 4 0.000000 0.000000 0.000000 0.058710 0.000000 0.000000
# 5 0.000000 0.000000 0.000000 0.000000 0.058710 0.000000
# 6 0.000000 0.000000 0.000000 0.000000 0.000000 0.072290
#
#
# Mechanical properties :
#
#
# Convention : Reuss Voigt Hill
#
# Bulk Modulus (GPa) = 33.49447 40.13193 36.81320
# Shear Modulus (GPa) = 18.03988 22.84639 20.44314
#
# Velocity S-wave (km/s) = 2.99711 3.37283 3.19051
# Velocity P-wave (km/s) = 5.35303 5.92884 5.64828
#
# Compressibility (1/GPa) = 0.02985568
#
# Stress axis : x y z
#
# Youngs Moduli (GPa) = 42.88387 42.88387 142.01457
#
# Poissons Ratio (x) = 0.36806 0.23638
# Poissons Ratio (y) = 0.36806 0.23638
# Poissons Ratio (z) = 0.07138 0.07138
#
# Static dielectric constant tensor:
#      x y z
#    x 1.706400 0.000000 0.000000 
#    y 0.000000 1.706400 0.000000 
#    z 0.000000 0.000000 1.797090 
# 
# From -- ./inp_files/4973.got.cif
#   From: 2010.05.17/outbox.cif.g08.bks.cpg/sg118_3_cif.got.tgz:4973.got - 2010.05.20 11:17:24.
