data_PCOD9558061
_publ_section_title
;
Structure prediction by ZEFSAII (Michael W. Deem and Ramdas Pophale) SiO2 
 PCOD9558061
Probable space group: P -4 B 2
;
_chemical_formula_sum "Si O2"
_cell_formula_units_Z 64
_cell_length_a 26.083065
_cell_length_b 26.083065
_cell_length_c 5.404287
_cell_angle_alpha 90.000000
_cell_angle_beta 90.000000
_cell_angle_gamma 90.000000
_cell_volume 3676.678470
_symmetry_space_group_name_H-M "P -4 B 2"
_symmetry_group_IT_number 117
_symmetry_cell_setting 'tetragonal'
loop_
_space_group_symop_operation_xyz
x,y,z
y,-x,-z
-x,-y,z
-y,x,-z
1/2+y,1/2+x,-z
1/2-y,1/2-x,-z
1/2-x,1/2+y,z
1/2+x,1/2-y,z
loop_
_atom_site_type_symbol
_atom_site_label
_atom_site_fract_x
_atom_site_fract_y
_atom_site_fract_z
Si Si1 0.242405 0.951164 0.250000
Si Si2 0.881730 0.202955 0.249999
Si Si3 0.566311 0.721878 0.749999
Si Si4 0.560087 0.322991 0.250000
Si Si5 0.607655 0.457443 0.750001
Si Si6 0.070983 0.898242 0.749999
Si Si7 0.236460 0.778837 0.250000
Si Si8 0.824020 0.633697 0.250000
O O1 0.210668 0.937946 0.500842
O O2 0.295223 0.920344 0.250000
O O3 0.250121 0.012273 0.250000
O O4 0.210668 0.937946 0.999159
O O5 0.902025 0.229963 0.499437
O O6 0.909054 0.147352 0.249999
O O7 0.820947 0.200015 0.250000
O O8 0.902025 0.229963 0.000561
O O9 0.552140 0.660794 0.749999
O O10 0.507745 0.356793 0.250000
O O11 0.602616 0.367389 0.250000
O O12 0.577159 0.450106 0.498632
O O13 0.577159 0.450106 0.001369
O O14 0.246979 0.746979 0.500000
O O15 0.277370 0.825016 0.250000
O O16 0.246979 0.746979 0.000000
O O17 0.855718 0.644283 0.500000
O O18 0.855718 0.644283 0.000000
#
# Coordination Sequence:
#
# PCOD9558061 Si02
#       8
#     8   8   8   8   8   8   8   8
#     4  12  21  36  56  75 103 132 177 220 269 303
#     4  10  18  32  51  67 104 127 161 224 249 287
#     4  10  19  33  49  79  96 123 176 219 253 318
#     4  12  21  33  54  79  95 130 168 223 267 318
#     4  10  19  36  45  74 100 118 173 216 260 316
#     4  10  20  31  50  69 100 115 160 223 260 308
#     4  10  21  35  50  74 104 138 174 206 261 324
#     4  10  23  38  49  74 104 134 175 212 255 321
#
# _framework density 17.407015999999999
#
# number of rings (size 3 to 8) (size 9 to 14) (size 15 to 20)
#    0.000    1.500    5.000    2.250    7.000    0.000 
#    0.000    0.000    0.000    2.250    0.000    0.000 
#    0.000    0.000    0.000    0.000    0.000   43.750 
#
# Total GULP energy -357268.022442 kJ/mol
# GULP energy per Si atom -5582.312851 kJ/mol
# Density = 1.736740 g / cm^3
# Si number density = 17.407016 Si / 1000 Ang^3
#
#
#
# Elastic Constant Matrix: (Units=GPa)
#
#
# Indices 1 2 3 4 5 6 
#
# 1 31.6865 -5.8401 0.7529 0.0000 0.0000 0.0000
# 2 -5.8401 31.6873 0.7530 0.0000 0.0000 0.0000
# 3 0.7529 0.7530 164.7107 0.0000 0.0000 0.0000
# 4 0.0000 0.0000 0.0000 16.8217 0.0000 0.0000
# 5 0.0000 0.0000 0.0000 0.0000 16.8222 0.0000
# 6 0.0000 0.0000 0.0000 0.0000 0.0000 22.3290
#
#
#
# Elastic Compliance Matrix: (Units=1/GPa)
#
#
# Indices 1 2 3 4 5 6 
#
# 1 0.032674 0.006026 -0.000177 0.000000 0.000000 0.000000
# 2 0.006026 0.032673 -0.000177 0.000000 0.000000 0.000000
# 3 -0.000177 -0.000177 0.006073 0.000000 0.000000 0.000000
# 4 0.000000 0.000000 0.000000 0.059447 0.000000 0.000000
# 5 0.000000 0.000000 0.000000 0.000000 0.059445 0.000000
# 6 0.000000 0.000000 0.000000 0.000000 0.000000 0.044785
#
#
# Mechanical properties :
#
#
# Convention : Reuss Voigt Hill
#
# Bulk Modulus (GPa) = 12.08241 24.37956 18.23098
# Shear Modulus (GPa) = 19.89329 26.68914 23.29122
#
# Velocity S-wave (km/s) = 3.38425 3.91991 3.66189
# Velocity P-wave (km/s) = 4.71455 5.87568 5.32685
#
# Compressibility (1/GPa) = 0.08276496
#
# Stress axis : x y z
#
# Youngs Moduli (GPa) = 30.60527 30.60606 164.66679
#
# Poissons Ratio (x) = -0.18444 0.02913
# Poissons Ratio (y) = -0.18443 0.02913
# Poissons Ratio (z) = 0.00541 0.00541
#
# Static dielectric constant tensor:
#      x y z
#    x 1.578910 0.000000 0.000000 
#    y 0.000000 1.578910 0.000000 
#    z 0.000000 0.000000 1.709490 
# 
# From -- ./inp_files/973.got.cif
#   From: 2010.05.17/outbox.cif.g08.bks.cpg/sg117_1_cif.got.tgz:973.got - 2010.05.20 11:15:09.
