data_PCOD9558132
_publ_section_title
;
Structure prediction by ZEFSAII (Michael W. Deem and Ramdas Pophale) SiO2 
 PCOD9558132
Probable space group: P -4 B 2
;
_chemical_formula_sum "Si O2"
_cell_formula_units_Z 42
_cell_length_a 13.711073
_cell_length_b 13.711073
_cell_length_c 10.370562
_cell_angle_alpha 90.000000
_cell_angle_beta 90.000000
_cell_angle_gamma 90.000000
_cell_volume 1949.598484
_symmetry_space_group_name_H-M "P -4 B 2"
_symmetry_group_IT_number 117
_symmetry_cell_setting 'tetragonal'
loop_
_space_group_symop_operation_xyz
x,y,z
y,-x,-z
-x,-y,z
-y,x,-z
1/2+y,1/2+x,-z
1/2-y,1/2-x,-z
1/2-x,1/2+y,z
1/2+x,1/2-y,z
loop_
_atom_site_type_symbol
_atom_site_label
_atom_site_fract_x
_atom_site_fract_y
_atom_site_fract_z
Si Si1 0.416574 0.374955 0.292146
Si Si2 0.000000 0.000000 0.500000
Si Si3 0.594505 0.054623 0.348916
Si Si4 0.715699 0.232021 0.345122
Si Si5 0.160634 0.019673 0.976044
Si Si6 0.947503 0.221201 0.759768
O O1 0.478013 0.401251 0.418770
O O2 0.320493 0.310406 0.305330
O O3 0.474587 0.324839 0.176351
O O4 0.373470 0.483495 0.260272
O O5 0.571976 0.071976 0.500000
O O6 0.629873 0.159732 0.298598
O O7 0.500000 0.000000 0.293241
O O8 0.689135 0.988193 0.323749
O O9 0.723353 0.223353 0.500000
O O10 0.703052 0.338847 0.288040
O O11 0.240450 0.039318 0.086394
O O12 0.082139 0.106227 0.999886
#
# Coordination Sequence:
#
# PCOD9558132 Si02
#       6
#     8   2   8   8   8   8
#     4  10  21  36  58  89 128 154 205 273 333 393
#     4  12  20  36  58  96 132 152 200 286 352 400
#     4   9  20  39  59  90 136 181 220 282 349 403
#     4  10  21  36  57  91 123 163 223 271 328 406
#     4   9  18  36  59  88 126 169 205 260 326 391
#     4  10  20  37  61  90 125 173 230 263 331 422
#
# _framework density 21.542895999999999
#
# number of rings (size 3 to 8) (size 9 to 14) (size 15 to 20)
#    0.000    2.286    0.000    3.429    2.667    0.762 
#   10.286    0.000    0.000    0.000    0.000    0.000 
#    0.000    0.000    0.000    0.000    0.000    0.000 
#
# Total GULP energy -234206.914148 kJ/mol
# GULP energy per Si atom -5576.355099 kJ/mol
# Density = 2.149386 g / cm^3
# Si number density = 21.542896 Si / 1000 Ang^3
#
#
#
# Elastic Constant Matrix: (Units=GPa)
#
#
# Indices 1 2 3 4 5 6 
#
# 1 79.4942 42.9960 26.8116 0.0000 0.0000 0.0000
# 2 42.9960 79.4942 26.8116 0.0000 0.0000 0.0000
# 3 26.8116 26.8116 94.4783 0.0000 0.0000 0.0000
# 4 0.0000 0.0000 0.0000 20.8381 0.0000 0.0000
# 5 0.0000 0.0000 0.0000 0.0000 20.8381 0.0000
# 6 0.0000 0.0000 0.0000 0.0000 0.0000 19.2451
#
#
#
# Elastic Compliance Matrix: (Units=1/GPa)
#
#
# Indices 1 2 3 4 5 6 
#
# 1 0.018360 -0.009038 -0.002645 0.000000 0.000000 0.000000
# 2 -0.009038 0.018360 -0.002645 0.000000 0.000000 0.000000
# 3 -0.002645 -0.002645 0.012086 0.000000 0.000000 0.000000
# 4 0.000000 0.000000 0.000000 0.047989 0.000000 0.000000
# 5 0.000000 0.000000 0.000000 0.000000 0.047989 0.000000
# 6 0.000000 0.000000 0.000000 0.000000 0.000000 0.051961
#
#
# Mechanical properties :
#
#
# Convention : Reuss Voigt Hill
#
# Bulk Modulus (GPa) = 49.63233 49.63390 49.63311
# Shear Modulus (GPa) = 21.54055 22.64076 22.09065
#
# Velocity S-wave (km/s) = 3.16554 3.24537 3.20570
# Velocity P-wave (km/s) = 6.03736 6.09367 6.06558
#
# Compressibility (1/GPa) = 0.02014816
#
# Stress axis : x y z
#
# Youngs Moduli (GPa) = 54.46531 54.46531 82.74083
#
# Poissons Ratio (x) = 0.49227 0.21889
# Poissons Ratio (y) = 0.49227 0.21889
# Poissons Ratio (z) = 0.14409 0.14409
#
# Static dielectric constant tensor:
#      x y z
#    x 1.801210 0.000000 0.000000 
#    y 0.000000 1.801210 0.000000 
#    z 0.000000 0.000000 1.931960 
# 
# From -- ./inp_files/1763.got.cif
#   From: 2010.05.17/outbox.cif.g08.bks.cpg/sg117_1_cif.got.tgz:1763.got - 2010.05.20 11:15:09.
