data_PCOD9558834
_publ_section_title
;
Structure prediction by ZEFSAII (Michael W. Deem and Ramdas Pophale) SiO2 
 PCOD9558834
Probable space group: P -4 N 2
;
_chemical_formula_sum "Si O2"
_cell_formula_units_Z 30
_cell_length_a 7.278892
_cell_length_b 7.278892
_cell_length_c 25.802822
_cell_angle_alpha 90.000000
_cell_angle_beta 90.000000
_cell_angle_gamma 90.000000
_cell_volume 1367.092050
_symmetry_space_group_name_H-M "P -4 N 2"
_symmetry_group_IT_number 118
_symmetry_cell_setting 'tetragonal'
loop_
_space_group_symop_operation_xyz
x,y,z
y,-x,-z
-x,-y,z
-y,x,-z
1/2+y,1/2+x,1/2-z
1/2-y,1/2-x,1/2-z
1/2-x,1/2+y,1/2+z
1/2+x,1/2-y,1/2+z
loop_
_atom_site_type_symbol
_atom_site_label
_atom_site_fract_x
_atom_site_fract_y
_atom_site_fract_z
Si Si1 0.270328 0.621794 0.155870
Si Si2 0.857529 0.782864 0.159177
Si Si3 0.500000 0.500000 0.500000
Si Si4 0.000000 0.000000 0.252764
Si Si5 0.808597 0.578041 0.578266
O O1 0.255506 0.402710 0.150603
O O2 0.375965 0.629615 0.210425
O O3 0.357636 0.736986 0.109515
O O4 0.066898 0.709121 0.155178
O O5 0.870295 0.879294 0.215205
O O6 0.782448 0.932390 0.118825
O O7 0.653695 0.599251 0.534821
O O8 0.000000 0.500000 0.557296
#
# Coordination Sequence:
#
# PCOD9558834 Si02
#       5
#     8   8   2   4   8
#     4  11  23  42  68 102 154 190 243 294 344 422
#     4  11  23  43  68 105 150 197 243 290 347 427
#     4  12  26  52  72 108 136 172 244 318 392 436
#     4  12  21  38  66 109 149 210 242 277 346 422
#     4  12  26  48  76 104 138 187 237 308 376 445
#
# _framework density 21.944388
#
# number of rings (size 3 to 8) (size 9 to 14) (size 15 to 20)
#    0.000    0.533    5.333    3.200    0.000    4.267 
#    0.000    0.000    0.000    0.000    0.000    0.000 
#    0.000    0.000    0.000    0.000    0.000    0.000 
#
# Total GULP energy -167459.026773 kJ/mol
# GULP energy per Si atom -5581.967559 kJ/mol
# Density = 2.189444 g / cm^3
# Si number density = 21.944388 Si / 1000 Ang^3
#
#
#
# Elastic Constant Matrix: (Units=GPa)
#
#
# Indices 1 2 3 4 5 6 
#
# 1 115.7250 11.1773 29.5623 0.0000 0.0000 0.0000
# 2 11.1773 115.7250 29.5623 0.0000 0.0000 0.0000
# 3 29.5623 29.5623 80.8558 0.0000 0.0000 0.0000
# 4 0.0000 0.0000 0.0000 -1.8283 0.0000 0.0000
# 5 0.0000 0.0000 0.0000 0.0000 -1.8283 0.0000
# 6 0.0000 0.0000 0.0000 0.0000 0.0000 28.4414
#
#
#
# Elastic Compliance Matrix: (Units=1/GPa)
#
#
# Indices 1 2 3 4 5 6 
#
# 1 0.009532 -0.000034 -0.003473 0.000000 0.000000 0.000000
# 2 -0.000034 0.009532 -0.003473 0.000000 0.000000 0.000000
# 3 -0.003473 -0.003473 0.014907 0.000000 0.000000 0.000000
# 4 0.000000 0.000000 0.000000 -0.546950 0.000000 0.000000
# 5 0.000000 0.000000 0.000000 0.000000 -0.546950 0.000000
# 6 0.000000 0.000000 0.000000 0.000000 0.000000 0.035160
#
#
# Mechanical properties :
#
#
# Convention : Reuss Voigt Hill
#
# Bulk Modulus (GPa) = 49.96885 50.32329 50.14607
# Shear Modulus (GPa) = -4.97938 21.09056 8.05559
#
# Velocity S-wave (km/s) = -1.50798 3.10351 1.91804
# Velocity P-wave (km/s) = 4.44838 5.98534 5.27316
#
# Compressibility (1/GPa) = 0.02001247
#
# Stress axis : x y z
#
# Youngs Moduli (GPa) = 104.91523 104.91523 67.08256
#
# Poissons Ratio (x) = 0.00351 0.23295
# Poissons Ratio (y) = 0.00351 0.23295
# Poissons Ratio (z) = 0.36433 0.36433
#
# Static dielectric constant tensor:
#      x y z
#    x 1.878590 0.000000 0.000000 
#    y 0.000000 1.878590 0.000000 
#    z 0.000000 0.000000 1.798280 
# 
# From -- ./inp_files/5218.got.cif
#   From: 2010.05.17/outbox.cif.g08.bks.cpg/sg118_3_cif.got.tgz:5218.got - 2010.05.20 11:17:24.
