data_PCOD9558531
_publ_section_title
;
Structure prediction by ZEFSAII (Michael W. Deem and Ramdas Pophale) SiO2 
 PCOD9558531
Probable space group: P -4 N 2
;
_chemical_formula_sum "Si O2"
_cell_formula_units_Z 40
_cell_length_a 13.872178
_cell_length_b 13.872178
_cell_length_c 10.473965
_cell_angle_alpha 90.000000
_cell_angle_beta 90.000000
_cell_angle_gamma 90.000000
_cell_volume 2015.581780
_symmetry_space_group_name_H-M "P -4 N 2"
_symmetry_group_IT_number 118
_symmetry_cell_setting 'tetragonal'
loop_
_space_group_symop_operation_xyz
x,y,z
y,-x,-z
-x,-y,z
-y,x,-z
1/2+y,1/2+x,1/2-z
1/2-y,1/2-x,1/2-z
1/2-x,1/2+y,1/2+z
1/2+x,1/2-y,1/2+z
loop_
_atom_site_type_symbol
_atom_site_label
_atom_site_fract_x
_atom_site_fract_y
_atom_site_fract_z
Si Si1 0.522122 0.104616 0.025829
Si Si2 0.935069 0.859541 0.961076
Si Si3 0.269863 0.382377 0.803755
Si Si4 0.094291 0.296370 0.158776
Si Si5 0.276677 0.091201 0.663537
O O1 0.557596 0.194079 0.112251
O O2 0.500000 0.000000 0.087389
O O3 0.602901 0.079137 0.917548
O O4 0.433119 0.152797 0.952596
O O5 0.935838 0.819830 0.816718
O O6 0.886513 0.780358 0.050025
O O7 0.040918 0.878582 0.018955
O O8 0.199157 0.300844 0.750000
O O9 0.357392 0.324190 0.871832
O O10 0.184324 0.315677 0.250000
O O11 0.005177 0.266262 0.249722
O O12 0.335425 0.164576 0.750000
#
# Coordination Sequence:
#
# PCOD9558531 Si02
#       5
#     8   8   8   8   8
#     4  11  22  39  65  99 129 165 216 274 331 391
#     4  11  23  44  64  87 127 175 219 263 330 409
#     4  11  23  41  62  91 129 167 207 274 331 383
#     4  10  20  38  65  93 121 161 220 264 317 400
#     4  10  20  39  66  89 125 171 215 259 328 397
#
# _framework density 19.845388
#
# number of rings (size 3 to 8) (size 9 to 14) (size 15 to 20)
#    0.000    1.400    6.000    0.000    0.000    0.400 
#    7.200    0.000    0.000    0.000    0.000    0.000 
#    0.000    0.000    0.000    0.000    0.000    0.000 
#
# Total GULP energy -222813.790144 kJ/mol
# GULP energy per Si atom -5570.344754 kJ/mol
# Density = 1.980022 g / cm^3
# Si number density = 19.845388 Si / 1000 Ang^3
#
#
#
# Elastic Constant Matrix: (Units=GPa)
#
#
# Indices 1 2 3 4 5 6 
#
# 1 87.6460 40.1980 44.7506 0.0000 0.0000 0.0000
# 2 40.1980 87.6440 44.7505 0.0000 0.0000 0.0000
# 3 44.7506 44.7505 63.0845 0.0000 0.0000 0.0000
# 4 0.0000 0.0000 0.0000 25.5507 0.0000 0.0000
# 5 0.0000 0.0000 0.0000 0.0000 25.5531 0.0000
# 6 0.0000 0.0000 0.0000 0.0000 0.0000 29.6274
#
#
#
# Elastic Compliance Matrix: (Units=1/GPa)
#
#
# Indices 1 2 3 4 5 6 
#
# 1 0.018307 -0.002768 -0.011023 0.000000 0.000000 0.000000
# 2 -0.002768 0.018308 -0.011023 0.000000 0.000000 0.000000
# 3 -0.011023 -0.011023 0.031491 0.000000 0.000000 0.000000
# 4 0.000000 0.000000 0.000000 0.039138 0.000000 0.000000
# 5 0.000000 0.000000 0.000000 0.000000 0.039134 0.000000
# 6 0.000000 0.000000 0.000000 0.000000 0.000000 0.033753
#
#
# Mechanical properties :
#
#
# Convention : Reuss Voigt Hill
#
# Bulk Modulus (GPa) = 54.12211 55.30808 54.71510
# Shear Modulus (GPa) = 21.19367 23.39125 22.29246
#
# Velocity S-wave (km/s) = 3.27148 3.43691 3.35521
# Velocity P-wave (km/s) = 6.44990 6.60907 6.52997
#
# Compressibility (1/GPa) = 0.01847674
#
# Stress axis : x y z
#
# Youngs Moduli (GPa) = 54.62275 54.62089 31.75525
#
# Poissons Ratio (x) = 0.15121 0.35004
# Poissons Ratio (y) = 0.15122 0.35005
# Poissons Ratio (z) = 0.60210 0.60211
#
# Static dielectric constant tensor:
#      x y z
#    x 1.743670 0.000000 0.000000 
#    y 0.000000 1.743670 0.000000 
#    z 0.000000 0.000000 1.773980 
# 
# From -- ./inp_files/1903.got.cif
#   From: 2010.05.17/outbox.cif.g08.bks.cpg/sg118_1_cif.got.tgz:1903.got - 2010.05.20 11:17:24.
