data_PCOD9558445
_publ_section_title
;
Structure prediction by ZEFSAII (Michael W. Deem and Ramdas Pophale) SiO2 
 PCOD9558445
Probable space group: P -4 N 2
;
_chemical_formula_sum "Si O2"
_cell_formula_units_Z 26
_cell_length_a 7.822110
_cell_length_b 7.822110
_cell_length_c 20.477040
_cell_angle_alpha 90.000000
_cell_angle_beta 90.000000
_cell_angle_gamma 90.000000
_cell_volume 1252.895983
_symmetry_space_group_name_H-M "P -4 N 2"
_symmetry_group_IT_number 118
_symmetry_cell_setting 'tetragonal'
loop_
_space_group_symop_operation_xyz
x,y,z
y,-x,-z
-x,-y,z
-y,x,-z
1/2+y,1/2+x,1/2-z
1/2-y,1/2-x,1/2-z
1/2-x,1/2+y,1/2+z
1/2+x,1/2-y,1/2+z
loop_
_atom_site_type_symbol
_atom_site_label
_atom_site_fract_x
_atom_site_fract_y
_atom_site_fract_z
Si Si1 0.146124 0.735380 0.428281
Si Si2 0.594394 0.212120 0.631277
Si Si3 0.500000 0.000000 0.750000
Si Si4 0.315940 0.078965 0.423040
O O1 0.262934 0.571356 0.410666
O O2 0.140365 0.751377 0.506273
O O3 0.964058 0.676732 0.398642
O O4 0.202419 0.917917 0.400391
O O5 0.759604 0.330258 0.625053
O O6 0.520299 0.161899 0.701971
O O7 0.500000 0.000000 0.436379
#
# Coordination Sequence:
#
# PCOD9558445 Si02
#       4
#     8   8   2   8
#     4  10  19  34  57  91 120 153 197 251 317 378
#     4  10  21  38  63  84 115 170 207 248 310 383
#     4   8  20  44  62  76 122 168 216 256 292 382
#     4  12  20  33  59  94 125 156 197 260 331 372
#
# _framework density 20.751922
#
# number of rings (size 3 to 8) (size 9 to 14) (size 15 to 20)
#    0.000    1.846    6.154    0.923    0.000    1.231 
#    0.000    3.846   54.154    0.000    0.000    0.000 
#    0.000    0.000    0.000    0.000    0.000    0.000 
#
# Total GULP energy -144823.784506 kJ/mol
# GULP energy per Si atom -5570.145558 kJ/mol
# Density = 2.070469 g / cm^3
# Si number density = 20.751922 Si / 1000 Ang^3
#
#
#
# Elastic Constant Matrix: (Units=GPa)
#
#
# Indices 1 2 3 4 5 6 
#
# 1 64.7782 45.0208 17.7395 0.0000 0.0000 0.0000
# 2 45.0208 64.7782 17.7395 0.0000 0.0000 0.0000
# 3 17.7395 17.7395 69.2262 0.0000 0.0000 0.0000
# 4 0.0000 0.0000 0.0000 6.8698 0.0000 0.0000
# 5 0.0000 0.0000 0.0000 0.0000 6.8698 0.0000
# 6 0.0000 0.0000 0.0000 0.0000 0.0000 16.3578
#
#
#
# Elastic Compliance Matrix: (Units=1/GPa)
#
#
# Indices 1 2 3 4 5 6 
#
# 1 0.030272 -0.020342 -0.002545 0.000000 0.000000 0.000000
# 2 -0.020342 0.030272 -0.002545 0.000000 0.000000 0.000000
# 3 -0.002545 -0.002545 0.015749 0.000000 0.000000 0.000000
# 4 0.000000 0.000000 0.000000 0.145565 0.000000 0.000000
# 5 0.000000 0.000000 0.000000 0.000000 0.145565 0.000000
# 6 0.000000 0.000000 0.000000 0.000000 0.000000 0.061133
#
#
# Mechanical properties :
#
#
# Convention : Reuss Voigt Hill
#
# Bulk Modulus (GPa) = 39.32232 39.97579 39.64905
# Shear Modulus (GPa) = 10.24809 13.90499 12.07654
#
# Velocity S-wave (km/s) = 2.22466 2.59136 2.41498
# Velocity P-wave (km/s) = 5.05853 5.31592 5.18882
#
# Compressibility (1/GPa) = 0.02543085
#
# Stress axis : x y z
#
# Youngs Moduli (GPa) = 33.03398 33.03398 63.49410
#
# Poissons Ratio (x) = 0.67198 0.16156
# Poissons Ratio (y) = 0.67198 0.16156
# Poissons Ratio (z) = 0.08406 0.08406
#
# Static dielectric constant tensor:
#      x y z
#    x 1.860320 0.000000 0.000000 
#    y 0.000000 1.860320 0.000000 
#    z 0.000000 0.000000 1.735360 
# 
# From -- ./inp_files/4516.got.cif
#   From: 2010.05.17/outbox.cif.g08.bks.cpg/sg118_3_cif.got.tgz:4516.got - 2010.05.20 11:17:24.
