data_PCOD9558794
_publ_section_title
;
Structure prediction by ZEFSAII (Michael W. Deem and Ramdas Pophale) SiO2 
 PCOD9558794
Probable space group: P -4 N 2
;
_chemical_formula_sum "Si O2"
_cell_formula_units_Z 40
_cell_length_a 11.390875
_cell_length_b 11.390875
_cell_length_c 15.437943
_cell_angle_alpha 90.000000
_cell_angle_beta 90.000000
_cell_angle_gamma 90.000000
_cell_volume 2003.104494
_symmetry_space_group_name_H-M "P -4 N 2"
_symmetry_group_IT_number 118
_symmetry_cell_setting 'tetragonal'
loop_
_space_group_symop_operation_xyz
x,y,z
y,-x,-z
-x,-y,z
-y,x,-z
1/2+y,1/2+x,1/2-z
1/2-y,1/2-x,1/2-z
1/2-x,1/2+y,1/2+z
1/2+x,1/2-y,1/2+z
loop_
_atom_site_type_symbol
_atom_site_label
_atom_site_fract_x
_atom_site_fract_y
_atom_site_fract_z
Si Si1 0.764082 0.382337 0.545800
Si Si2 0.913138 0.102969 0.290819
Si Si3 0.321221 0.007555 0.214868
Si Si4 0.590198 0.669721 0.976735
Si Si5 0.642526 0.514556 0.387594
O O1 0.815034 0.480255 0.611232
O O2 0.856479 0.281125 0.525389
O O3 0.710946 0.438799 0.458664
O O4 0.650658 0.331697 0.596177
O O5 0.886877 0.181016 0.373852
O O6 0.972267 0.167308 0.209555
O O7 0.801489 0.034920 0.252716
O O8 0.000000 0.000000 0.322490
O O9 0.367606 0.132395 0.250000
O O10 0.412995 0.912995 0.250000
O O11 0.652916 0.548213 0.005322
O O12 0.500000 0.500000 0.398380
#
# Coordination Sequence:
#
# PCOD9558794 Si02
#       5
#     8   8   8   8   8
#     4  12  22  41  67  94 137 174 224 286 337 409
#     4  11  21  41  66  91 131 172 226 271 331 424
#     4  11  25  40  64 102 132 169 226 287 345 396
#     4  11  25  43  63  94 134 183 229 276 350 416
#     4  11  21  39  66  99 129 175 226 274 340 413
#
# _framework density 19.969002
#
# number of rings (size 3 to 8) (size 9 to 14) (size 15 to 20)
#    0.000    0.800    8.000    1.200    5.600    0.000 
#    0.000    0.000    0.000    0.000    0.000    2.800 
#    0.000    0.000    0.000    0.000    0.000    0.000 
#
# Total GULP energy -223505.178287 kJ/mol
# GULP energy per Si atom -5587.629457 kJ/mol
# Density = 1.992355 g / cm^3
# Si number density = 19.969002 Si / 1000 Ang^3
#
#
#
# Elastic Constant Matrix: (Units=GPa)
#
#
# Indices 1 2 3 4 5 6 
#
# 1 65.8861 34.8096 31.7050 0.0000 0.0000 0.0000
# 2 34.8096 65.8854 31.7056 0.0000 0.0000 0.0000
# 3 31.7050 31.7056 152.9435 0.0000 0.0000 0.0000
# 4 0.0000 0.0000 0.0000 45.6997 0.0000 0.0000
# 5 0.0000 0.0000 0.0000 0.0000 45.6991 0.0000
# 6 0.0000 0.0000 0.0000 0.0000 0.0000 29.1178
#
#
#
# Elastic Compliance Matrix: (Units=1/GPa)
#
#
# Indices 1 2 3 4 5 6 
#
# 1 0.021800 -0.010379 -0.002368 0.000000 0.000000 0.000000
# 2 -0.010379 0.021801 -0.002368 0.000000 0.000000 0.000000
# 3 -0.002368 -0.002368 0.007520 0.000000 0.000000 0.000000
# 4 0.000000 0.000000 0.000000 0.021882 0.000000 0.000000
# 5 0.000000 0.000000 0.000000 0.000000 0.021882 0.000000
# 6 0.000000 0.000000 0.000000 0.000000 0.000000 0.034343
#
#
# Mechanical properties :
#
#
# Convention : Reuss Voigt Hill
#
# Bulk Modulus (GPa) = 47.86314 53.46171 50.66242
# Shear Modulus (GPa) = 30.04427 36.53630 33.29028
#
# Velocity S-wave (km/s) = 3.88305 4.28208 4.08744
# Velocity P-wave (km/s) = 6.64266 7.16092 6.90665
#
# Compressibility (1/GPa) = 0.02089290
#
# Stress axis : x y z
#
# Youngs Moduli (GPa) = 45.87084 45.87012 132.97783
#
# Poissons Ratio (x) = 0.47606 0.31485
# Poissons Ratio (y) = 0.47607 0.31488
# Poissons Ratio (z) = 0.10861 0.10862
#
# Static dielectric constant tensor:
#      x y z
#    x 1.688530 0.000000 0.000000 
#    y 0.000000 1.688540 0.000000 
#    z 0.000000 0.000000 1.754080 
# 
# From -- ./inp_files/4078.got.cif
#   From: 2010.05.17/outbox.cif.g08.bks.cpg/sg118_3_cif.got.tgz:4078.got - 2010.05.20 11:17:24.
