data_PCOD9558295
_publ_section_title
;
Structure prediction by ZEFSAII (Michael W. Deem and Ramdas Pophale) SiO2 
 PCOD9558295
Probable space group: P -4 B 2
;
_chemical_formula_sum "Si O2"
_cell_formula_units_Z 60
_cell_length_a 11.727799
_cell_length_b 11.727799
_cell_length_c 18.390248
_cell_angle_alpha 90.000000
_cell_angle_beta 90.000000
_cell_angle_gamma 90.000000
_cell_volume 2529.418054
_symmetry_space_group_name_H-M "P -4 B 2"
_symmetry_group_IT_number 117
_symmetry_cell_setting 'tetragonal'
loop_
_space_group_symop_operation_xyz
x,y,z
y,-x,-z
-x,-y,z
-y,x,-z
1/2+y,1/2+x,-z
1/2-y,1/2-x,-z
1/2-x,1/2+y,z
1/2+x,1/2-y,z
loop_
_atom_site_type_symbol
_atom_site_label
_atom_site_fract_x
_atom_site_fract_y
_atom_site_fract_z
Si Si1 0.164442 0.052883 0.738220
Si Si2 0.941227 0.698590 0.048845
Si Si3 0.690975 0.679373 0.669442
Si Si4 0.000000 0.000000 0.857113
Si Si5 0.783824 0.893168 0.074863
Si Si6 0.171920 0.926514 0.510062
Si Si7 0.436146 0.733989 0.646067
Si Si8 0.390903 0.074489 0.814339
O O1 0.087759 0.071788 0.808248
O O2 0.095071 0.104987 0.670537
O O3 0.293217 0.094177 0.753403
O O4 0.167171 0.918084 0.727418
O O5 0.820983 0.762431 0.064033
O O6 0.993250 0.666536 0.125666
O O7 0.908981 0.591020 0.000000
O O8 0.040744 0.753866 0.999327
O O9 0.699361 0.624770 0.588206
O O10 0.570059 0.751048 0.665832
O O11 0.823962 0.712097 0.683892
O O12 0.938484 0.092933 0.903610
O O13 0.690290 0.913769 0.138775
O O14 0.253834 0.921613 0.440189
O O15 0.058723 0.860001 0.484646
O O16 0.500000 0.000000 0.787917
#
# Coordination Sequence:
#
# PCOD9558295 Si02
#       8
#     8   8   8   4   8   8   8   8
#     4  12  26  45  67  98 140 189 240 289 355 453
#     4  12  24  45  73 102 136 179 243 300 364 435
#     4  11  23  42  68 104 142 184 245 304 371 443
#     4  12  26  47  66  99 138 178 242 282 356 439
#     4  12  27  45  73 103 139 186 241 307 366 440
#     4   9  17  36  69 102 132 180 241 302 358 435
#     4  11  23  41  71 101 139 188 242 306 367 443
#     4  12  28  48  70 105 148 190 233 308 379 440
#
# _framework density 23.720872
#
# number of rings (size 3 to 8) (size 9 to 14) (size 15 to 20)
#    0.000    0.667    5.333    2.400    3.733    2.133 
#    0.000    0.000    0.000    0.000    0.000    0.000 
#    0.000    0.000    0.000    0.000    0.000    0.000 
#
# Total GULP energy -334538.262564 kJ/mol
# GULP energy per Si atom -5575.637709 kJ/mol
# Density = 2.366688 g / cm^3
# Si number density = 23.720872 Si / 1000 Ang^3
#
#
#
# Elastic Constant Matrix: (Units=GPa)
#
#
# Indices 1 2 3 4 5 6 
#
# 1 57.2293 12.3488 7.7971 0.0000 0.0000 0.0000
# 2 12.3488 57.2298 7.7971 0.0000 0.0000 0.0000
# 3 7.7971 7.7971 49.4670 0.0000 0.0000 0.0000
# 4 0.0000 0.0000 0.0000 -287.9267 0.0000 0.0000
# 5 0.0000 0.0000 0.0000 0.0000 -287.8978 0.0000
# 6 0.0000 0.0000 0.0000 0.0000 0.0000 43.6163
#
#
#
# Elastic Compliance Matrix: (Units=1/GPa)
#
#
# Indices 1 2 3 4 5 6 
#
# 1 0.018590 -0.003691 -0.002348 0.000000 0.000000 0.000000
# 2 -0.003691 0.018590 -0.002348 0.000000 0.000000 0.000000
# 3 -0.002348 -0.002348 0.020956 0.000000 0.000000 0.000000
# 4 0.000000 0.000000 0.000000 -0.003473 0.000000 0.000000
# 5 0.000000 0.000000 0.000000 0.000000 -0.003473 0.000000
# 6 0.000000 0.000000 0.000000 0.000000 0.000000 0.022927
#
#
# Mechanical properties :
#
#
# Convention : Reuss Voigt Hill
#
# Bulk Modulus (GPa) = 24.17816 24.42355 24.30086
# Shear Modulus (GPa) = 47.76510 -97.37610 -24.80550
#
# Velocity S-wave (km/s) = 4.49222 -6.41404 -3.23727
# Velocity P-wave (km/s) = 6.09275 6.67343 1.92523
#
# Compressibility (1/GPa) = 0.04135964
#
# Stress axis : x y z
#
# Youngs Moduli (GPa) = 53.79233 53.79281 47.71943
#
# Poissons Ratio (x) = 0.19857 0.11206
# Poissons Ratio (y) = 0.19856 0.11206
# Poissons Ratio (z) = 0.12632 0.12632
#
# Static dielectric constant tensor:
#      x y z
#    x 7.155820 0.000000 0.000000 
#    y 0.000000 7.156470 0.000000 
#    z 0.000000 0.000000 1.853370 
# 
# From -- ./inp_files/3498.got.cif
#   From: 2010.05.17/outbox.cif.g08.bks.cpg/sg117_2_cif.got.tgz:3498.got - 2010.05.20 11:15:09.
