data_PCOD9558521
_publ_section_title
;
Structure prediction by ZEFSAII (Michael W. Deem and Ramdas Pophale) SiO2 
 PCOD9558521
Probable space group: P -4 N 2
;
_chemical_formula_sum "Si O2"
_cell_formula_units_Z 50
_cell_length_a 12.222758
_cell_length_b 12.222758
_cell_length_c 14.541707
_cell_angle_alpha 90.000000
_cell_angle_beta 90.000000
_cell_angle_gamma 90.000000
_cell_volume 2172.470142
_symmetry_space_group_name_H-M "P -4 N 2"
_symmetry_group_IT_number 118
_symmetry_cell_setting 'tetragonal'
loop_
_space_group_symop_operation_xyz
x,y,z
y,-x,-z
-x,-y,z
-y,x,-z
1/2+y,1/2+x,1/2-z
1/2-y,1/2-x,1/2-z
1/2-x,1/2+y,1/2+z
1/2+x,1/2-y,1/2+z
loop_
_atom_site_type_symbol
_atom_site_label
_atom_site_fract_x
_atom_site_fract_y
_atom_site_fract_z
Si Si1 0.000000 0.000000 0.000000
Si Si2 0.046436 0.826977 0.885268
Si Si3 0.849593 0.897531 0.497178
Si Si4 0.198506 0.690245 0.146971
Si Si5 0.466587 0.766976 0.559284
Si Si6 0.064987 0.335754 0.334492
Si Si7 0.786298 0.872403 0.298599
O O1 0.960270 0.911004 0.929021
O O2 0.038001 0.818968 0.776795
O O3 0.164288 0.885215 0.910309
O O4 0.015347 0.729948 0.954752
O O5 0.793156 0.811893 0.568060
O O6 0.777744 0.903876 0.404133
O O7 0.974759 0.861718 0.472814
O O8 0.229672 0.729672 0.250000
O O9 0.078782 0.734468 0.118471
O O10 0.180302 0.560723 0.151937
O O11 0.392187 0.871236 0.581791
O O12 0.084646 0.415355 0.250000
O O13 0.123842 0.223871 0.303020
O O14 0.681247 0.818754 0.250000
#
# Coordination Sequence:
#
# PCOD9558521 Si02
#       7
#     2   8   8   8   8   8   8
#     4   8  20  32  52  84 122 144 216 268 320 364
#     4  10  20  38  55  90 125 172 207 270 332 407
#     4  11  26  46  65  99 140 186 231 280 344 421
#     4  12  23  39  67  99 134 172 228 293 344 393
#     4  11  22  36  63  98 133 163 219 284 342 396
#     4  11  20  38  63  96 129 167 219 285 338 395
#     4  11  20  40  67  87 131 182 220 262 345 414
#
# _framework density 23.015276
#
# number of rings (size 3 to 8) (size 9 to 14) (size 15 to 20)
#    0.000    1.120    6.400    1.440    0.000    1.280 
#    5.760    0.000    0.000    0.000    0.000    3.360 
#    0.000    0.000    0.000    0.000    0.000    0.000 
#
# Total GULP energy -278346.124195 kJ/mol
# GULP energy per Si atom -5566.922484 kJ/mol
# Density = 2.296289 g / cm^3
# Si number density = 23.015276 Si / 1000 Ang^3
#
#
#
# Elastic Constant Matrix: (Units=GPa)
#
#
# Indices 1 2 3 4 5 6 
#
# 1 46.8849 1.0605 21.9807 0.0000 0.0000 0.0000
# 2 1.0605 46.8837 21.9814 0.0000 0.0000 0.0000
# 3 21.9807 21.9814 176.4352 0.0000 0.0000 0.0000
# 4 0.0000 0.0000 0.0000 36.5114 0.0000 0.0000
# 5 0.0000 0.0000 0.0000 0.0000 36.5118 0.0000
# 6 0.0000 0.0000 0.0000 0.0000 0.0000 20.6317
#
#
#
# Elastic Compliance Matrix: (Units=1/GPa)
#
#
# Indices 1 2 3 4 5 6 
#
# 1 0.022685 0.000862 -0.002934 0.000000 0.000000 0.000000
# 2 0.000862 0.022685 -0.002934 0.000000 0.000000 0.000000
# 3 -0.002934 -0.002934 0.006399 0.000000 0.000000 0.000000
# 4 0.000000 0.000000 0.000000 0.027389 0.000000 0.000000
# 5 0.000000 0.000000 0.000000 0.000000 0.027388 0.000000
# 6 0.000000 0.000000 0.000000 0.000000 0.000000 0.048469
#
#
# Mechanical properties :
#
#
# Convention : Reuss Voigt Hill
#
# Bulk Modulus (GPa) = 23.94707 40.02768 31.98738
# Shear Modulus (GPa) = 27.94160 33.74304 30.84232
#
# Velocity S-wave (km/s) = 3.48810 3.83314 3.66468
# Velocity P-wave (km/s) = 5.16235 6.08442 5.64225
#
# Compressibility (1/GPa) = 0.04175876
#
# Stress axis : x y z
#
# Youngs Moduli (GPa) = 44.08270 44.08137 156.28008
#
# Poissons Ratio (x) = -0.03801 0.45845
# Poissons Ratio (y) = -0.03801 0.45848
# Poissons Ratio (z) = 0.12932 0.12932
#
# Static dielectric constant tensor:
#      x y z
#    x 2.020670 0.000000 0.000000 
#    y 0.000000 2.020660 0.000000 
#    z 0.000000 0.000000 1.828900 
# 
# From -- ./inp_files/3357.got.cif
#   From: 2010.05.17/outbox.cif.g08.bks.cpg/sg118_2_cif.got.tgz:3357.got - 2010.05.20 11:17:24.
