data_PCOD9558228
_publ_section_title
;
Structure prediction by ZEFSAII (Michael W. Deem and Ramdas Pophale) SiO2 
 PCOD9558228
Probable space group: P -4 B 2
;
_chemical_formula_sum "Si O2"
_cell_formula_units_Z 56
_cell_length_a 15.389341
_cell_length_b 15.389341
_cell_length_c 10.947213
_cell_angle_alpha 90.000000
_cell_angle_beta 90.000000
_cell_angle_gamma 90.000000
_cell_volume 2592.648339
_symmetry_space_group_name_H-M "P -4 B 2"
_symmetry_group_IT_number 117
_symmetry_cell_setting 'tetragonal'
loop_
_space_group_symop_operation_xyz
x,y,z
y,-x,-z
-x,-y,z
-y,x,-z
1/2+y,1/2+x,-z
1/2-y,1/2-x,-z
1/2-x,1/2+y,z
1/2+x,1/2-y,z
loop_
_atom_site_type_symbol
_atom_site_label
_atom_site_fract_x
_atom_site_fract_y
_atom_site_fract_z
Si Si1 0.260105 0.936037 0.238799
Si Si2 0.268848 0.762335 0.355434
Si Si3 0.232268 0.954291 0.768407
Si Si4 0.916793 0.550099 0.856608
Si Si5 0.964643 0.861749 0.985271
Si Si6 0.591222 0.802123 0.584486
Si Si7 0.539337 0.629526 0.448338
O O1 0.226106 0.847468 0.298078
O O2 0.349361 0.909239 0.175885
O O3 0.192414 0.971391 0.139629
O O4 0.294324 0.005054 0.337275
O O5 0.275606 0.775606 0.500000
O O6 0.365766 0.747468 0.306213
O O7 0.213497 0.675812 0.332314
O O8 0.327907 0.992724 0.803673
O O9 0.161745 0.006857 0.685528
O O10 0.194916 0.932564 0.901392
O O11 0.000000 0.500000 0.802082
O O12 0.938998 0.561003 0.000000
O O13 0.057398 0.899983 0.025260
O O14 0.615249 0.884752 0.500000
O O15 0.583858 0.715364 0.501974
O O16 0.601399 0.545663 0.469476
#
# Coordination Sequence:
#
# PCOD9558228 Si02
#       7
#     8   8   8   8   8   8   8
#     4  11  24  45  70  97 144 184 237 298 359 434
#     4  10  22  43  69  98 137 187 230 295 361 429
#     4  11  22  43  70  96 139 182 230 287 366 433
#     4  10  22  44  69  94 130 178 232 282 346 418
#     4  11  26  42  67 105 140 184 230 296 366 437
#     4  11  25  42  66 105 141 181 243 295 361 440
#     4  11  25  42  71 103 137 183 237 301 375 434
#
# _framework density 21.599536000000001
#
# number of rings (size 3 to 8) (size 9 to 14) (size 15 to 20)
#    0.000    1.286    2.857    1.714    6.000    1.143 
#    0.000    0.000    0.000    0.000    0.000    0.000 
#    0.000    0.000    0.000    0.000    0.000    0.000 
#
# Total GULP energy -312342.200908 kJ/mol
# GULP energy per Si atom -5577.539302 kJ/mol
# Density = 2.155037 g / cm^3
# Si number density = 21.599536 Si / 1000 Ang^3
#
#
#
# Elastic Constant Matrix: (Units=GPa)
#
#
# Indices 1 2 3 4 5 6 
#
# 1 57.0649 11.9579 16.7156 0.0000 0.0000 0.0000
# 2 11.9579 57.0654 16.7163 0.0000 0.0000 0.0000
# 3 16.7156 16.7163 55.8013 0.0000 0.0000 0.0000
# 4 0.0000 0.0000 0.0000 21.5633 0.0000 0.0000
# 5 0.0000 0.0000 0.0000 0.0000 21.5637 0.0000
# 6 0.0000 0.0000 0.0000 0.0000 0.0000 28.9826
#
#
#
# Elastic Compliance Matrix: (Units=1/GPa)
#
#
# Indices 1 2 3 4 5 6 
#
# 1 0.019558 -0.002611 -0.005076 0.000000 0.000000 0.000000
# 2 -0.002611 0.019558 -0.005077 0.000000 0.000000 0.000000
# 3 -0.005076 -0.005077 0.020962 0.000000 0.000000 0.000000
# 4 0.000000 0.000000 0.000000 0.046375 0.000000 0.000000
# 5 0.000000 0.000000 0.000000 0.000000 0.046374 0.000000
# 6 0.000000 0.000000 0.000000 0.000000 0.000000 0.034503
#
#
# Mechanical properties :
#
#
# Convention : Reuss Voigt Hill
#
# Bulk Modulus (GPa) = 28.94407 28.96792 28.95600
# Shear Modulus (GPa) = 22.28394 22.72470 22.50432
#
# Velocity S-wave (km/s) = 3.21547 3.24712 3.23133
# Velocity P-wave (km/s) = 5.21681 5.24393 5.23039
#
# Compressibility (1/GPa) = 0.03454939
#
# Stress axis : x y z
#
# Youngs Moduli (GPa) = 51.12963 51.12970 47.70482
#
# Poissons Ratio (x) = 0.13352 0.24217
# Poissons Ratio (y) = 0.13352 0.24219
# Poissons Ratio (z) = 0.25956 0.25957
#
# Static dielectric constant tensor:
#      x y z
#    x 1.847940 0.000000 0.000000 
#    y 0.000000 1.847940 0.000000 
#    z 0.000000 0.000000 2.047230 
# 
# From -- ./inp_files/2854.got.cif
#   From: 2010.05.17/outbox.cif.g08.bks.cpg/sg117_2_cif.got.tgz:2854.got - 2010.05.20 11:15:09.
