data_PCOD9558401
_publ_section_title
;
Structure prediction by ZEFSAII (Michael W. Deem and Ramdas Pophale) SiO2 
 PCOD9558401
Probable space group: P -4 N 2
;
_chemical_formula_sum "Si O2"
_cell_formula_units_Z 56
_cell_length_a 13.599090
_cell_length_b 13.599090
_cell_length_c 18.341949
_cell_angle_alpha 90.000000
_cell_angle_beta 90.000000
_cell_angle_gamma 90.000000
_cell_volume 3392.072902
_symmetry_space_group_name_H-M "P -4 N 2"
_symmetry_group_IT_number 118
_symmetry_cell_setting 'tetragonal'
loop_
_space_group_symop_operation_xyz
x,y,z
y,-x,-z
-x,-y,z
-y,x,-z
1/2+y,1/2+x,1/2-z
1/2-y,1/2-x,1/2-z
1/2-x,1/2+y,1/2+z
1/2+x,1/2-y,1/2+z
loop_
_atom_site_type_symbol
_atom_site_label
_atom_site_fract_x
_atom_site_fract_y
_atom_site_fract_z
Si Si1 0.615588 0.584715 0.966670
Si Si2 0.254124 0.245876 0.166439
Si Si3 0.584715 0.384412 0.466670
Si Si4 0.417786 0.917786 0.397756
Si Si5 0.720862 0.488138 0.834113
Si Si6 0.197027 0.302973 0.014615
Si Si7 0.988138 0.220861 0.834113
O O1 0.642969 0.535653 0.889662
O O2 0.623330 0.494865 0.024747
O O3 0.695321 0.666420 0.986362
O O4 0.228433 0.271568 0.250000
O O5 0.370715 0.266660 0.156591
O O6 0.198273 0.301727 0.101855
O O7 0.233339 0.129286 0.156591
O O8 0.494865 0.376670 0.524747
O O9 0.666420 0.304680 0.486362
O O10 0.535653 0.357031 0.389662
O O11 0.377403 0.877403 0.474840
O O12 0.462925 0.825250 0.354846
O O13 0.500000 0.000000 0.406640
O O14 0.325250 0.962924 0.354846
O O15 0.696790 0.507545 0.750000
#
# Coordination Sequence:
#
# PCOD9558401 Si02
#       7
#     8   8   8   8   8   8   8
#     4  10  20  35  53  75 106 141 179 217 261 317
#     4  10  18  31  51  76 106 133 171 222 265 307
#     4  10  20  35  53  75 106 141 179 217 261 317
#     4  10  19  30  50  80 109 137 175 218 268 327
#     4  10  19  31  50  77 109 138 168 219 273 314
#     4  10  20  35  53  75 107 142 177 214 266 315
#     4  10  19  31  50  77 109 138 168 219 273 314
#
# _framework density 16.509080999999998
#
# number of rings (size 3 to 8) (size 9 to 14) (size 15 to 20)
#    0.000    2.000    4.286    0.429    0.000    0.571 
#    0.000    4.286    0.000    0.429    0.000    0.000 
#    0.000    0.000    0.000    0.000    0.000    0.000 
#
# Total GULP energy -312230.185291 kJ/mol
# GULP energy per Si atom -5575.539023 kJ/mol
# Density = 1.647151 g / cm^3
# Si number density = 16.509081 Si / 1000 Ang^3
#
#
#
# Elastic Constant Matrix: (Units=GPa)
#
#
# Indices 1 2 3 4 5 6 
#
# 1 62.3311 28.5639 31.0657 0.0000 0.0000 0.0000
# 2 28.5639 62.3309 31.0657 0.0000 0.0000 0.0000
# 3 31.0657 31.0657 142.9246 0.0000 0.0000 0.0000
# 4 0.0000 0.0000 0.0000 23.5777 0.0000 0.0000
# 5 0.0000 0.0000 0.0000 0.0000 23.5778 0.0000
# 6 0.0000 0.0000 0.0000 0.0000 0.0000 24.8115
#
#
#
# Elastic Compliance Matrix: (Units=1/GPa)
#
#
# Indices 1 2 3 4 5 6 
#
# 1 0.021268 -0.008347 -0.002809 0.000000 0.000000 0.000000
# 2 -0.008347 0.021268 -0.002809 0.000000 0.000000 0.000000
# 3 -0.002809 -0.002809 0.008218 0.000000 0.000000 0.000000
# 4 0.000000 0.000000 0.000000 0.042413 0.000000 0.000000
# 5 0.000000 0.000000 0.000000 0.000000 0.042413 0.000000
# 6 0.000000 0.000000 0.000000 0.000000 0.000000 0.040304
#
#
# Mechanical properties :
#
#
# Convention : Reuss Voigt Hill
#
# Bulk Modulus (GPa) = 43.80904 49.88637 46.84771
# Shear Modulus (GPa) = 23.64964 26.18615 24.91790
#
# Velocity S-wave (km/s) = 3.78897 3.98699 3.88924
# Velocity P-wave (km/s) = 6.76282 7.17481 6.97186
#
# Compressibility (1/GPa) = 0.02282634
#
# Stress axis : x y z
#
# Youngs Moduli (GPa) = 47.01883 47.01868 121.68960
#
# Poissons Ratio (x) = 0.39244 0.34178
# Poissons Ratio (y) = 0.39245 0.34178
# Poissons Ratio (z) = 0.13206 0.13206
#
# Static dielectric constant tensor:
#      x y z
#    x 1.550440 0.000000 0.000000 
#    y 0.000000 1.550440 0.000000 
#    z 0.000000 0.000000 1.558820 
# 
# From -- ./inp_files/4240.got.cif
#   From: 2010.05.17/outbox.cif.g08.bks.cpg/sg118_3_cif.got.tgz:4240.got - 2010.05.20 11:17:24.
