data_PCOD9558012
_publ_section_title
;
Structure prediction by ZEFSAII (Michael W. Deem and Ramdas Pophale) SiO2 
 PCOD9558012
Probable space group: P -4 C 2
;
_chemical_formula_sum "Si O2"
_cell_formula_units_Z 24
_cell_length_a 7.280719
_cell_length_b 7.280719
_cell_length_c 18.756153
_cell_angle_alpha 90.000000
_cell_angle_beta 90.000000
_cell_angle_gamma 90.000000
_cell_volume 994.242460
_symmetry_space_group_name_H-M "P -4 C 2"
_symmetry_group_IT_number 116
_symmetry_cell_setting 'tetragonal'
loop_
_space_group_symop_operation_xyz
x,y,z
y,-x,-z
-x,-y,z
-y,x,-z
y,x,1/2-z
-y,-x,1/2-z
-x,y,1/2+z
x,-y,1/2+z
loop_
_atom_site_type_symbol
_atom_site_label
_atom_site_fract_x
_atom_site_fract_y
_atom_site_fract_z
Si Si1 0.825995 0.408604 0.698262
Si Si2 0.985176 0.283146 0.468578
Si Si3 0.788307 0.840826 0.832782
O O1 0.691994 0.308007 0.750000
O O2 0.948184 0.272341 0.650103
O O3 0.740567 0.589033 0.662390
O O4 0.000000 0.500000 0.740707
O O5 0.930880 0.246595 0.386070
O O6 0.000000 0.500000 0.482899
O O7 0.170718 0.180181 0.492910
O O8 0.846699 0.846699 0.750000
#
# Coordination Sequence:
#
# PCOD9558012 Si02
#       3
#     8   8   8
#     4   8  20  39  71 110 154 198 263 333 418 491
#     4  11  28  54  82 115 167 227 282 343 422 510
#     4   9  22  44  75 114 151 205 267 348 411 480
#
# _framework density 24.138978999999999
#
# number of rings (size 3 to 8) (size 9 to 14) (size 15 to 20)
#    2.000    0.333    0.000    0.000    9.333    7.333 
#    0.000    3.333    0.000    0.000    0.000    0.000 
#    0.000    0.000    0.000    0.000    0.000    0.000 
#
# Total GULP energy -133655.324024 kJ/mol
# GULP energy per Si atom -5568.971834 kJ/mol
# Density = 2.408404 g / cm^3
# Si number density = 24.138979 Si / 1000 Ang^3
#
#
#
# Elastic Constant Matrix: (Units=GPa)
#
#
# Indices 1 2 3 4 5 6 
#
# 1 145.7078 104.2740 43.2521 0.0000 0.0000 0.0000
# 2 104.2740 145.7073 43.2523 0.0000 0.0000 0.0000
# 3 43.2521 43.2523 107.4441 0.0000 0.0000 0.0000
# 4 0.0000 0.0000 0.0000 23.8473 0.0000 0.0000
# 5 0.0000 0.0000 0.0000 0.0000 23.8488 0.0000
# 6 0.0000 0.0000 0.0000 0.0000 0.0000 21.4363
#
#
#
# Elastic Compliance Matrix: (Units=1/GPa)
#
#
# Indices 1 2 3 4 5 6 
#
# 1 0.014391 -0.009744 -0.001871 0.000000 0.000000 0.000000
# 2 -0.009744 0.014391 -0.001871 0.000000 0.000000 0.000000
# 3 -0.001871 -0.001871 0.010814 0.000000 0.000000 0.000000
# 4 0.000000 0.000000 0.000000 0.041934 0.000000 0.000000
# 5 0.000000 0.000000 0.000000 0.000000 0.041931 0.000000
# 6 0.000000 0.000000 0.000000 0.000000 0.000000 0.046650
#
#
# Mechanical properties :
#
#
# Convention : Reuss Voigt Hill
#
# Bulk Modulus (GPa) = 79.20736 86.71290 82.96013
# Shear Modulus (GPa) = 24.83978 27.69853 26.26915
#
# Velocity S-wave (km/s) = 3.21133 3.39109 3.30244
# Velocity P-wave (km/s) = 6.82895 7.16471 6.99884
#
# Compressibility (1/GPa) = 0.01262509
#
# Stress axis : x y z
#
# Youngs Moduli (GPa) = 69.48616 69.48585 92.47693
#
# Poissons Ratio (x) = 0.67705 0.17302
# Poissons Ratio (y) = 0.67705 0.17302
# Poissons Ratio (z) = 0.13000 0.13001
#
# Static dielectric constant tensor:
#      x y z
#    x 2.050450 0.000000 0.000000 
#    y 0.000000 2.050450 0.000000 
#    z 0.000000 0.000000 2.015140 
# 
# From -- ./inp_files/2262.got.cif
#   From: 2010.05.17/outbox.cif.g08.bks.cpg/sg116_2_cif.got.tgz:2262.got - 2010.05.20 11:11:43.
