data_PCOD9558291
_publ_section_title
;
Structure prediction by ZEFSAII (Michael W. Deem and Ramdas Pophale) SiO2 
 PCOD9558291
Probable space group: P -4 B 2
;
_chemical_formula_sum "Si O2"
_cell_formula_units_Z 40
_cell_length_a 14.085136
_cell_length_b 14.085136
_cell_length_c 9.205660
_cell_angle_alpha 90.000000
_cell_angle_beta 90.000000
_cell_angle_gamma 90.000000
_cell_volume 1826.320610
_symmetry_space_group_name_H-M "P -4 B 2"
_symmetry_group_IT_number 117
_symmetry_cell_setting 'tetragonal'
loop_
_space_group_symop_operation_xyz
x,y,z
y,-x,-z
-x,-y,z
-y,x,-z
1/2+y,1/2+x,-z
1/2-y,1/2-x,-z
1/2-x,1/2+y,z
1/2+x,1/2-y,z
loop_
_atom_site_type_symbol
_atom_site_label
_atom_site_fract_x
_atom_site_fract_y
_atom_site_fract_z
Si Si1 0.974851 0.216608 0.649165
Si Si2 0.500000 0.000000 0.259652
Si Si3 0.283885 0.353306 0.572685
Si Si4 0.339760 0.495661 0.022123
Si Si5 0.101102 0.601102 0.500000
Si Si6 0.402960 0.825383 0.134741
O O1 0.895077 0.139306 0.612354
O O2 0.916332 0.309105 0.600854
O O3 0.065456 0.226046 0.547539
O O4 0.001789 0.201407 0.815032
O O5 0.476043 0.083963 0.374629
O O6 0.570172 0.063361 0.161724
O O7 0.241729 0.258272 0.500000
O O8 0.222351 0.365010 0.718589
O O9 0.405342 0.588917 0.996355
O O10 0.248403 0.485022 0.917043
O O11 0.329354 0.829354 0.000000
#
# Coordination Sequence:
#
# PCOD9558291 Si02
#       6
#     8   4   8   8   4   8
#     4  12  26  45  76 106 146 203 245 314 382 457
#     4  11  23  42  74 104 140 192 242 314 370 456
#     4  12  26  48  73 110 146 190 256 314 375 465
#     4  11  26  48  74 108 157 204 255 320 390 465
#     4  11  22  44  70 106 144 185 252 302 384 435
#     4  12  25  47  71 108 148 197 250 313 384 451
#
# _framework density 21.901959000000002
#
# number of rings (size 3 to 8) (size 9 to 14) (size 15 to 20)
#    0.000    0.400    5.000    3.900    2.800    0.400 
#    3.600    0.000    0.000    0.000    0.000    0.000 
#    0.000    0.000    0.000    0.000    0.000    0.000 
#
# Total GULP energy -222736.108228 kJ/mol
# GULP energy per Si atom -5568.402706 kJ/mol
# Density = 2.185211 g / cm^3
# Si number density = 21.901959 Si / 1000 Ang^3
#
#
#
# Elastic Constant Matrix: (Units=GPa)
#
#
# Indices 1 2 3 4 5 6 
#
# 1 64.9505 22.1916 39.1403 0.0000 0.0000 0.0000
# 2 22.1916 64.9522 39.1400 0.0000 0.0000 0.0000
# 3 39.1403 39.1400 175.0372 0.0000 0.0000 0.0000
# 4 0.0000 0.0000 0.0000 40.8948 0.0000 0.0000
# 5 0.0000 0.0000 0.0000 0.0000 40.8938 0.0000
# 6 0.0000 0.0000 0.0000 0.0000 0.0000 28.7762
#
#
#
# Elastic Compliance Matrix: (Units=1/GPa)
#
#
# Indices 1 2 3 4 5 6 
#
# 1 0.018873 -0.004513 -0.003211 0.000000 0.000000 0.000000
# 2 -0.004513 0.018873 -0.003211 0.000000 0.000000 0.000000
# 3 -0.003211 -0.003211 0.007149 0.000000 0.000000 0.000000
# 4 0.000000 0.000000 0.000000 0.024453 0.000000 0.000000
# 5 0.000000 0.000000 0.000000 0.000000 0.024454 0.000000
# 6 0.000000 0.000000 0.000000 0.000000 0.000000 0.034751
#
#
# Mechanical properties :
#
#
# Convention : Reuss Voigt Hill
#
# Bulk Modulus (GPa) = 43.43157 56.20931 49.82044
# Shear Modulus (GPa) = 31.62585 35.74417 33.68501
#
# Velocity S-wave (km/s) = 3.80409 4.04419 3.92598
# Velocity P-wave (km/s) = 6.25842 6.89399 6.58388
#
# Compressibility (1/GPa) = 0.02302472
#
# Stress axis : x y z
#
# Youngs Moduli (GPa) = 52.98445 52.98617 139.87782
#
# Poissons Ratio (x) = 0.23914 0.44916
# Poissons Ratio (y) = 0.23914 0.44914
# Poissons Ratio (z) = 0.17014 0.17013
#
# Static dielectric constant tensor:
#      x y z
#    x 1.945780 0.000000 0.000000 
#    y 0.000000 1.945770 0.000000 
#    z 0.000000 0.000000 1.795890 
# 
# From -- ./inp_files/1767.got.cif
#   From: 2010.05.17/outbox.cif.g08.bks.cpg/sg117_1_cif.got.tgz:1767.got - 2010.05.20 11:15:09.
