data_PCOD9558266
_publ_section_title
;
Structure prediction by ZEFSAII (Michael W. Deem and Ramdas Pophale) SiO2 
 PCOD9558266
Probable space group: P -4 B 2
;
_chemical_formula_sum "Si O2"
_cell_formula_units_Z 40
_cell_length_a 15.047048
_cell_length_b 15.047048
_cell_length_c 7.490710
_cell_angle_alpha 90.000000
_cell_angle_beta 90.000000
_cell_angle_gamma 90.000000
_cell_volume 1695.999019
_symmetry_space_group_name_H-M "P -4 B 2"
_symmetry_group_IT_number 117
_symmetry_cell_setting 'tetragonal'
loop_
_space_group_symop_operation_xyz
x,y,z
y,-x,-z
-x,-y,z
-y,x,-z
1/2+y,1/2+x,-z
1/2-y,1/2-x,-z
1/2-x,1/2+y,z
1/2+x,1/2-y,z
loop_
_atom_site_type_symbol
_atom_site_label
_atom_site_fract_x
_atom_site_fract_y
_atom_site_fract_z
Si Si1 0.740403 0.177505 0.334385
Si Si2 0.939400 0.291916 0.954327
Si Si3 0.516256 0.802854 0.574113
Si Si4 0.000000 0.500000 0.500000
Si Si5 0.561518 0.672380 0.270989
Si Si6 0.367139 0.867139 0.000000
Si Si7 0.000000 0.000000 0.500000
O O1 0.745056 0.245056 0.500000
O O2 0.834237 0.158418 0.247583
O O3 0.669958 0.184845 0.174582
O O4 0.721478 0.086289 0.436303
O O5 0.963615 0.206306 0.075070
O O6 0.851961 0.351961 0.000000
O O7 0.935124 0.264366 0.747119
O O8 0.028680 0.350002 0.977079
O O9 0.554274 0.760858 0.395114
O O10 0.509360 0.908429 0.604521
O O11 0.518405 0.587816 0.374660
#
# Coordination Sequence:
#
# PCOD9558266 Si02
#       7
#     8   8   8   2   8   4   2
#     4  11  24  43  70  99 144 192 247 312 375 454
#     4  11  26  44  72 113 149 190 245 308 391 466
#     4  11  25  45  71 109 146 195 251 303 390 453
#     4  12  24  44  78 116 164 202 236 316 398 492
#     4  12  27  50  72 108 144 205 260 318 378 443
#     4  10  25  44  70 106 148 193 232 308 388 466
#     4  12  28  56  82  96 160 214 276 324 366 460
#
# _framework density 23.58492
#
# number of rings (size 3 to 8) (size 9 to 14) (size 15 to 20)
#    0.000    0.800    3.000    2.700   14.000    0.000 
#    3.600    1.000    0.000    0.000    0.000    0.000 
#    0.000    0.000    0.000    0.000    0.000    0.000 
#
# Total GULP energy -223089.636354 kJ/mol
# GULP energy per Si atom -5577.240909 kJ/mol
# Density = 2.353124 g / cm^3
# Si number density = 23.584920 Si / 1000 Ang^3
#
#
#
# Elastic Constant Matrix: (Units=GPa)
#
#
# Indices 1 2 3 4 5 6 
#
# 1 41.8583 34.1640 12.7115 0.0000 0.0000 0.0000
# 2 34.1640 41.8583 12.7115 0.0000 0.0000 0.0000
# 3 12.7115 12.7115 118.1701 0.0000 0.0000 0.0000
# 4 0.0000 0.0000 0.0000 23.5950 0.0000 0.0000
# 5 0.0000 0.0000 0.0000 0.0000 23.5950 0.0000
# 6 0.0000 0.0000 0.0000 0.0000 0.0000 3.7981
#
#
#
# Elastic Compliance Matrix: (Units=1/GPa)
#
#
# Indices 1 2 3 4 5 6 
#
# 1 0.071806 -0.058161 -0.001468 0.000000 0.000000 0.000000
# 2 -0.058161 0.071806 -0.001468 0.000000 0.000000 0.000000
# 3 -0.001468 -0.001468 0.008778 0.000000 0.000000 0.000000
# 4 0.000000 0.000000 0.000000 0.042382 0.000000 0.000000
# 5 0.000000 0.000000 0.000000 0.000000 0.042382 0.000000
# 6 0.000000 0.000000 0.000000 0.000000 0.000000 0.263292
#
#
# Mechanical properties :
#
#
# Convention : Reuss Voigt Hill
#
# Bulk Modulus (GPa) = 33.11608 35.67343 34.39475
# Shear Modulus (GPa) = 7.90260 19.68426 13.79343
#
# Velocity S-wave (km/s) = 1.83248 2.89210 2.42097
# Velocity P-wave (km/s) = 4.30685 5.12939 4.73601
#
# Compressibility (1/GPa) = 0.03019681
#
# Stress axis : x y z
#
# Youngs Moduli (GPa) = 13.92649 13.92649 113.91919
#
# Poissons Ratio (x) = 0.80997 0.16721
# Poissons Ratio (y) = 0.80997 0.16721
# Poissons Ratio (z) = 0.02044 0.02044
#
# Static dielectric constant tensor:
#      x y z
#    x 2.073940 0.000000 0.000000 
#    y 0.000000 2.073940 0.000000 
#    z 0.000000 0.000000 1.832330 
# 
# From -- ./inp_files/1815.got.cif
#   From: 2010.05.17/outbox.cif.g08.bks.cpg/sg117_1_cif.got.tgz:1815.got - 2010.05.20 11:15:09.
