data_PCOD9558422
_publ_section_title
;
Structure prediction by ZEFSAII (Michael W. Deem and Ramdas Pophale) SiO2 
 PCOD9558422
Probable space group: P -4 N 2
;
_chemical_formula_sum "Si O2"
_cell_formula_units_Z 40
_cell_length_a 18.828638
_cell_length_b 18.828638
_cell_length_c 6.233104
_cell_angle_alpha 90.000000
_cell_angle_beta 90.000000
_cell_angle_gamma 90.000000
_cell_volume 2209.745126
_symmetry_space_group_name_H-M "P -4 N 2"
_symmetry_group_IT_number 118
_symmetry_cell_setting 'tetragonal'
loop_
_space_group_symop_operation_xyz
x,y,z
y,-x,-z
-x,-y,z
-y,x,-z
1/2+y,1/2+x,1/2-z
1/2-y,1/2-x,1/2-z
1/2-x,1/2+y,1/2+z
1/2+x,1/2-y,1/2+z
loop_
_atom_site_type_symbol
_atom_site_label
_atom_site_fract_x
_atom_site_fract_y
_atom_site_fract_z
Si Si1 0.500000 0.000000 0.250000
Si Si2 0.655439 0.025782 0.403896
Si Si3 0.205485 0.017750 0.615765
Si Si4 0.000000 0.000000 0.000000
Si Si5 0.749363 0.073649 0.013282
Si Si6 0.883579 0.080803 0.300543
Si Si7 0.847027 0.652974 0.250000
O O1 0.574883 0.999244 0.378077
O O2 0.685195 0.052032 0.173057
O O3 0.651933 0.088381 0.580361
O O4 0.720579 0.976386 0.485581
O O5 0.156539 0.086203 0.631021
O O6 0.150921 0.962821 0.498103
O O7 0.228408 0.987946 0.847586
O O8 0.056941 0.962102 0.160694
O O9 0.817202 0.091721 0.148489
O O10 0.724158 0.141183 0.879112
#
# Coordination Sequence:
#
# PCOD9558422 Si02
#       7
#     2   8   8   2   8   8   4
#     4  12  20  42  68  94 114 158 200 290 316 380
#     4  10  22  37  64  93 119 148 210 258 327 374
#     4  10  22  37  58  91 126 168 208 250 311 377
#     4  12  20  34  56 100 122 164 220 258 304 360
#     4  10  20  37  58  87 122 161 202 255 299 381
#     4  11  21  35  58  88 129 167 205 257 300 367
#     4  10  18  39  60  91 112 155 208 255 298 394
#
# _framework density 18.101635000000002
#
# number of rings (size 3 to 8) (size 9 to 14) (size 15 to 20)
#    0.000    1.600    4.000    1.200    0.000    0.400 
#    0.000    0.000    0.000   28.800    0.000    0.000 
#    0.000    0.000    0.000    0.000    0.000    0.000 
#
# Total GULP energy -222771.811162 kJ/mol
# GULP energy per Si atom -5569.295279 kJ/mol
# Density = 1.806043 g / cm^3
# Si number density = 18.101635 Si / 1000 Ang^3
#
#
#
# Elastic Constant Matrix: (Units=GPa)
#
#
# Indices 1 2 3 4 5 6 
#
# 1 84.7598 41.7744 28.5163 0.0000 0.0000 0.0000
# 2 41.7744 84.7589 28.5163 0.0000 0.0000 0.0000
# 3 28.5163 28.5163 88.3078 0.0000 0.0000 0.0000
# 4 0.0000 0.0000 0.0000 23.4515 0.0000 0.0000
# 5 0.0000 0.0000 0.0000 0.0000 23.4514 0.0000
# 6 0.0000 0.0000 0.0000 0.0000 0.0000 20.6387
#
#
#
# Elastic Compliance Matrix: (Units=1/GPa)
#
#
# Indices 1 2 3 4 5 6 
#
# 1 0.016257 -0.007007 -0.002987 0.000000 0.000000 0.000000
# 2 -0.007007 0.016257 -0.002987 0.000000 0.000000 0.000000
# 3 -0.002987 -0.002987 0.013253 0.000000 0.000000 0.000000
# 4 0.000000 0.000000 0.000000 0.042641 0.000000 0.000000
# 5 0.000000 0.000000 0.000000 0.000000 0.042641 0.000000
# 6 0.000000 0.000000 0.000000 0.000000 0.000000 0.048453
#
#
# Mechanical properties :
#
#
# Convention : Reuss Voigt Hill
#
# Bulk Modulus (GPa) = 50.49371 50.60451 50.54911
# Shear Modulus (GPa) = 23.57771 24.10962 23.84367
#
# Velocity S-wave (km/s) = 3.61296 3.65348 3.63328
# Velocity P-wave (km/s) = 6.73496 6.76858 6.75179
#
# Compressibility (1/GPa) = 0.01980445
#
# Stress axis : x y z
#
# Youngs Moduli (GPa) = 61.51382 61.51312 75.45458
#
# Poissons Ratio (x) = 0.43104 0.22536
# Poissons Ratio (y) = 0.43105 0.22537
# Poissons Ratio (z) = 0.18373 0.18373
#
# Static dielectric constant tensor:
#      x y z
#    x 1.628080 0.000000 0.000000 
#    y 0.000000 1.628080 0.000000 
#    z 0.000000 0.000000 1.679500 
# 
# From -- ./inp_files/670.got.cif
#   From: 2010.05.17/outbox.cif.g08.bks.cpg/sg118_1_cif.got.tgz:670.got - 2010.05.20 11:17:24.
