data_PCOD9558910
_publ_section_title
;
Structure prediction by ZEFSAII (Michael W. Deem and Ramdas Pophale) SiO2 
 PCOD9558910
Probable space group: P -4 N 2
;
_chemical_formula_sum "Si O2"
_cell_formula_units_Z 30
_cell_length_a 10.632956
_cell_length_b 10.632956
_cell_length_c 12.499719
_cell_angle_alpha 90.000000
_cell_angle_beta 90.000000
_cell_angle_gamma 90.000000
_cell_volume 1413.215146
_symmetry_space_group_name_H-M "P -4 N 2"
_symmetry_group_IT_number 118
_symmetry_cell_setting 'tetragonal'
loop_
_space_group_symop_operation_xyz
x,y,z
y,-x,-z
-x,-y,z
-y,x,-z
1/2+y,1/2+x,1/2-z
1/2-y,1/2-x,1/2-z
1/2-x,1/2+y,1/2+z
1/2+x,1/2-y,1/2+z
loop_
_atom_site_type_symbol
_atom_site_label
_atom_site_fract_x
_atom_site_fract_y
_atom_site_fract_z
Si Si1 0.000000 0.500000 0.518671
Si Si2 0.404802 0.259027 0.111412
Si Si3 0.473913 0.363637 0.330002
Si Si4 0.129015 0.250554 0.011453
Si Si5 0.000000 0.000000 0.500000
O O1 0.959715 0.377732 0.585223
O O2 0.873669 0.546967 0.458780
O O3 0.409023 0.281756 0.238261
O O4 0.272970 0.272135 0.047420
O O5 0.490808 0.370932 0.065784
O O6 0.500000 0.500000 0.281025
O O7 0.372504 0.399498 0.419915
O O8 0.586742 0.288590 0.390404
#
# Coordination Sequence:
#
# PCOD9558910 Si02
#       5
#     4   8   8   8   2
#     4  12  26  45  75 102 150 198 247 314 375 454
#     4  12  26  46  73 108 147 198 252 312 385 460
#     4  12  23  45  75 103 146 193 245 309 393 456
#     4  12  24  44  71 106 142 189 252 313 372 469
#     4  12  24  48  68 102 152 192 244 324 384 446
#
# _framework density 21.228190999999999
#
# number of rings (size 3 to 8) (size 9 to 14) (size 15 to 20)
#    0.000    0.000    9.333    0.800    0.000    2.133 
#    0.000    2.667    0.000    0.000    0.000    0.000 
#    0.000    0.000    0.000    0.000    0.000    0.000 
#
# Total GULP energy -167240.126753 kJ/mol
# GULP energy per Si atom -5574.670892 kJ/mol
# Density = 2.117987 g / cm^3
# Si number density = 21.228191 Si / 1000 Ang^3
#
#
#
# Elastic Constant Matrix: (Units=GPa)
#
#
# Indices 1 2 3 4 5 6 
#
# 1 134.3124 27.9676 61.1621 0.0000 0.0000 0.0000
# 2 27.9676 134.3124 61.1621 0.0000 0.0000 0.0000
# 3 61.1621 61.1621 104.7606 0.0000 0.0000 0.0000
# 4 0.0000 0.0000 0.0000 15.8128 0.0000 0.0000
# 5 0.0000 0.0000 0.0000 0.0000 15.8128 0.0000
# 6 0.0000 0.0000 0.0000 0.0000 0.0000 49.0185
#
#
#
# Elastic Compliance Matrix: (Units=1/GPa)
#
#
# Indices 1 2 3 4 5 6 
#
# 1 0.010204 0.000801 -0.006425 0.000000 0.000000 0.000000
# 2 0.000801 0.010204 -0.006425 0.000000 0.000000 0.000000
# 3 -0.006425 -0.006425 0.017048 0.000000 0.000000 0.000000
# 4 0.000000 0.000000 0.000000 0.063240 0.000000 0.000000
# 5 0.000000 0.000000 0.000000 0.000000 0.063240 0.000000
# 6 0.000000 0.000000 0.000000 0.000000 0.000000 0.020400
#
#
# Mechanical properties :
#
#
# Convention : Reuss Voigt Hill
#
# Bulk Modulus (GPa) = 74.86224 74.88543 74.87383
# Shear Modulus (GPa) = 23.48644 31.00174 27.24409
#
# Velocity S-wave (km/s) = 3.32984 3.82567 3.58633
# Velocity P-wave (km/s) = 7.07996 7.40725 7.24545
#
# Compressibility (1/GPa) = 0.01335787
#
# Stress axis : x y z
#
# Youngs Moduli (GPa) = 97.99661 97.99661 58.65750
#
# Poissons Ratio (x) = -0.07850 0.37689
# Poissons Ratio (y) = -0.07850 0.37689
# Poissons Ratio (z) = 0.62966 0.62966
#
# Static dielectric constant tensor:
#      x y z
#    x 1.846670 0.000000 0.000000 
#    y 0.000000 1.846670 0.000000 
#    z 0.000000 0.000000 1.776270 
# 
# From -- ./inp_files/3925.got.cif
#   From: 2010.05.17/outbox.cif.g08.bks.cpg/sg118_2_cif.got.tgz:3925.got - 2010.05.20 11:17:24.
