data_PCOD9558198
_publ_section_title
;
Structure prediction by ZEFSAII (Michael W. Deem and Ramdas Pophale) SiO2 
 PCOD9558198
Probable space group: P -4 B 2
;
_chemical_formula_sum "Si O2"
_cell_formula_units_Z 28
_cell_length_a 8.570665
_cell_length_b 8.570665
_cell_length_c 15.767125
_cell_angle_alpha 90.000000
_cell_angle_beta 90.000000
_cell_angle_gamma 90.000000
_cell_volume 1158.194641
_symmetry_space_group_name_H-M "P -4 B 2"
_symmetry_group_IT_number 117
_symmetry_cell_setting 'tetragonal'
loop_
_space_group_symop_operation_xyz
x,y,z
y,-x,-z
-x,-y,z
-y,x,-z
1/2+y,1/2+x,-z
1/2-y,1/2-x,-z
1/2-x,1/2+y,z
1/2+x,1/2-y,z
loop_
_atom_site_type_symbol
_atom_site_label
_atom_site_fract_x
_atom_site_fract_y
_atom_site_fract_z
Si Si1 0.537120 0.291083 0.846351
Si Si2 0.500000 0.500000 0.000000
Si Si3 0.500000 0.500000 0.500000
Si Si4 0.429515 0.749675 0.220107
Si Si5 0.500000 0.000000 0.360280
Si Si6 0.681912 0.818089 0.500000
O O1 0.484661 0.353680 0.937296
O O2 0.661768 0.415969 0.809722
O O3 0.393387 0.305960 0.781185
O O4 0.625903 0.129799 0.848708
O O5 0.629449 0.640057 0.478987
O O6 0.439155 0.855248 0.303126
O O7 0.371886 0.078828 0.419882
#
# Coordination Sequence:
#
# PCOD9558198 Si02
#       6
#     8   2   2   8   4   4
#     4  10  22  39  63  97 132 186 228 294 358 430
#     4   8  20  40  62  92 136 170 244 292 352 440
#     4  12  28  56  74 116 152 188 256 314 376 460
#     4  10  22  38  62  94 134 172 229 281 356 417
#     4  11  24  48  72 107 144 194 248 309 364 454
#     4  11  28  47  80 108 148 198 252 310 380 432
#
# _framework density 24.175557000000001
#
# number of rings (size 3 to 8) (size 9 to 14) (size 15 to 20)
#    0.000    2.000    0.000    3.429    0.000   16.000 
#    0.000    1.429    0.000   20.571    0.000    0.000 
#    0.000    0.000    0.000    0.000    0.000    0.000 
#
# Total GULP energy -155890.210229 kJ/mol
# GULP energy per Si atom -5567.507508 kJ/mol
# Density = 2.412053 g / cm^3
# Si number density = 24.175557 Si / 1000 Ang^3
#
#
#
# Elastic Constant Matrix: (Units=GPa)
#
#
# Indices 1 2 3 4 5 6 
#
# 1 116.7105 95.9022 38.4437 0.0000 0.0000 0.0000
# 2 95.9022 116.7100 38.4438 0.0000 0.0000 0.0000
# 3 38.4437 38.4438 115.0483 0.0000 0.0000 0.0000
# 4 0.0000 0.0000 0.0000 23.1309 0.0000 0.0000
# 5 0.0000 0.0000 0.0000 0.0000 23.1306 0.0000
# 6 0.0000 0.0000 0.0000 0.0000 0.0000 63.1708
#
#
#
# Elastic Compliance Matrix: (Units=1/GPa)
#
#
# Indices 1 2 3 4 5 6 
#
# 1 0.026704 -0.021354 -0.001788 0.000000 0.000000 0.000000
# 2 -0.021354 0.026704 -0.001788 0.000000 0.000000 0.000000
# 3 -0.001788 -0.001788 0.009887 0.000000 0.000000 0.000000
# 4 0.000000 0.000000 0.000000 0.043232 0.000000 0.000000
# 5 0.000000 0.000000 0.000000 0.000000 0.043233 0.000000
# 6 0.000000 0.000000 0.000000 0.000000 0.000000 0.015830
#
#
# Mechanical properties :
#
#
# Convention : Reuss Voigt Hill
#
# Bulk Modulus (GPa) = 74.42826 77.11647 75.77237
# Shear Modulus (GPa) = 22.73476 33.59840 28.16658
#
# Velocity S-wave (km/s) = 3.06993 3.73200 3.41704
# Velocity P-wave (km/s) = 6.58933 7.10903 6.85411
#
# Compressibility (1/GPa) = 0.01343576
#
# Stress axis : x y z
#
# Youngs Moduli (GPa) = 37.44757 37.44735 101.14579
#
# Poissons Ratio (x) = 0.79966 0.18081
# Poissons Ratio (y) = 0.79966 0.18082
# Poissons Ratio (z) = 0.06694 0.06695
#
# Static dielectric constant tensor:
#      x y z
#    x 2.009350 0.000000 0.000000 
#    y 0.000000 2.009360 0.000000 
#    z 0.000000 0.000000 1.914150 
# 
# From -- ./inp_files/3306.got.cif
#   From: 2010.05.17/outbox.cif.g08.bks.cpg/sg117_2_cif.got.tgz:3306.got - 2010.05.20 11:15:09.
