data_PCOD9558206
_publ_section_title
;
Structure prediction by ZEFSAII (Michael W. Deem and Ramdas Pophale) SiO2 
 PCOD9558206
Probable space group: P -4 B 2
;
_chemical_formula_sum "Si O2"
_cell_formula_units_Z 56
_cell_length_a 14.551965
_cell_length_b 14.551965
_cell_length_c 12.573830
_cell_angle_alpha 90.000000
_cell_angle_beta 90.000000
_cell_angle_gamma 90.000000
_cell_volume 2662.630285
_symmetry_space_group_name_H-M "P -4 B 2"
_symmetry_group_IT_number 117
_symmetry_cell_setting 'tetragonal'
loop_
_space_group_symop_operation_xyz
x,y,z
y,-x,-z
-x,-y,z
-y,x,-z
1/2+y,1/2+x,-z
1/2-y,1/2-x,-z
1/2-x,1/2+y,z
1/2+x,1/2-y,z
loop_
_atom_site_type_symbol
_atom_site_label
_atom_site_fract_x
_atom_site_fract_y
_atom_site_fract_z
Si Si1 0.081118 0.752878 0.887775
Si Si2 0.837004 0.883336 0.895628
Si Si3 0.185317 0.721011 0.279419
Si Si4 0.468887 0.096570 0.384380
Si Si5 0.272705 0.878391 0.692526
Si Si6 0.584681 0.549618 0.790478
Si Si7 0.102732 0.324673 0.894125
O O1 0.172366 0.726977 0.825354
O O2 0.055363 0.853044 0.840896
O O3 0.002814 0.680014 0.860842
O O4 0.095903 0.762515 0.013242
O O5 0.804509 0.869116 0.773583
O O6 0.876533 0.782763 0.923740
O O7 0.892737 0.977916 0.885065
O O8 0.114913 0.651184 0.331536
O O9 0.274462 0.751032 0.346455
O O10 0.432891 0.067110 0.500000
O O11 0.555957 0.165567 0.380786
O O12 0.500000 0.000000 0.331770
O O13 0.176276 0.926602 0.723543
O O14 0.331937 0.861191 0.800713
O O15 0.500000 0.500000 0.730989
O O16 0.118200 0.381801 0.000000
#
# Coordination Sequence:
#
# PCOD9558206 Si02
#       7
#     8   8   8   8   8   8   8
#     4  11  21  33  54  89 127 172 226 265 324 388
#     4  11  19  34  54  86 129 174 219 265 319 387
#     4  10  22  40  66  90 128 173 216 273 335 404
#     4  11  24  46  72 100 127 169 222 281 346 419
#     4  10  22  42  65  93 131 173 220 278 340 406
#     4  11  21  34  58  90 125 172 226 272 323 392
#     4  11  21  34  52  87 135 177 219 273 324 392
#
# _framework density 21.031835000000001
#
# number of rings (size 3 to 8) (size 9 to 14) (size 15 to 20)
#    0.000    1.286    2.857    5.571    0.000    0.000 
#    2.571    0.000    0.000    0.000    0.000    0.000 
#    0.000    0.000    0.000    0.000    0.000    0.000 
#
# Total GULP energy -312368.229122 kJ/mol
# GULP energy per Si atom -5578.004091 kJ/mol
# Density = 2.098397 g / cm^3
# Si number density = 21.031835 Si / 1000 Ang^3
#
#
#
# Elastic Constant Matrix: (Units=GPa)
#
#
# Indices 1 2 3 4 5 6 
#
# 1 107.7872 36.0342 22.3425 0.0000 0.0000 0.0000
# 2 36.0342 107.7870 22.3420 0.0000 0.0000 0.0000
# 3 22.3425 22.3420 37.3115 0.0000 0.0000 0.0000
# 4 0.0000 0.0000 0.0000 24.0821 0.0000 0.0000
# 5 0.0000 0.0000 0.0000 0.0000 24.0824 0.0000
# 6 0.0000 0.0000 0.0000 0.0000 0.0000 50.2418
#
#
#
# Elastic Compliance Matrix: (Units=1/GPa)
#
#
# Indices 1 2 3 4 5 6 
#
# 1 0.011240 -0.002697 -0.005115 0.000000 0.000000 0.000000
# 2 -0.002697 0.011240 -0.005115 0.000000 0.000000 0.000000
# 3 -0.005115 -0.005115 0.032927 0.000000 0.000000 0.000000
# 4 0.000000 0.000000 0.000000 0.041525 0.000000 0.000000
# 5 0.000000 0.000000 0.000000 0.000000 0.041524 0.000000
# 6 0.000000 0.000000 0.000000 0.000000 0.000000 0.019904
#
#
# Mechanical properties :
#
#
# Convention : Reuss Voigt Hill
#
# Bulk Modulus (GPa) = 33.83947 46.03589 39.93768
# Shear Modulus (GPa) = 25.76467 31.15907 28.46187
#
# Velocity S-wave (km/s) = 3.50384 3.85323 3.68268
# Velocity P-wave (km/s) = 5.70033 6.46008 6.09206
#
# Compressibility (1/GPa) = 0.02955129
#
# Stress axis : x y z
#
# Youngs Moduli (GPa) = 88.97157 88.97191 30.36992
#
# Poissons Ratio (x) = 0.23997 0.15535
# Poissons Ratio (y) = 0.23997 0.15534
# Poissons Ratio (z) = 0.45511 0.45510
#
# Static dielectric constant tensor:
#      x y z
#    x 1.828320 0.000000 0.000000 
#    y 0.000000 1.828320 0.000000 
#    z 0.000000 0.000000 1.729550 
# 
# From -- ./inp_files/2850.got.cif
#   From: 2010.05.17/outbox.cif.g08.bks.cpg/sg117_2_cif.got.tgz:2850.got - 2010.05.20 11:15:09.
