data_PCOD9558396
_publ_section_title
;
Structure prediction by ZEFSAII (Michael W. Deem and Ramdas Pophale) SiO2 
 PCOD9558396
Probable space group: P -4 N 2
;
_chemical_formula_sum "Si O2"
_cell_formula_units_Z 52
_cell_length_a 18.093433
_cell_length_b 18.093433
_cell_length_c 10.012645
_cell_angle_alpha 90.000000
_cell_angle_beta 90.000000
_cell_angle_gamma 90.000000
_cell_volume 3277.862800
_symmetry_space_group_name_H-M "P -4 N 2"
_symmetry_group_IT_number 118
_symmetry_cell_setting 'tetragonal'
loop_
_space_group_symop_operation_xyz
x,y,z
y,-x,-z
-x,-y,z
-y,x,-z
1/2+y,1/2+x,1/2-z
1/2-y,1/2-x,1/2-z
1/2-x,1/2+y,1/2+z
1/2+x,1/2-y,1/2+z
loop_
_atom_site_type_symbol
_atom_site_label
_atom_site_fract_x
_atom_site_fract_y
_atom_site_fract_z
Si Si1 0.563265 0.302397 0.749887
Si Si2 0.016803 0.359768 0.250014
Si Si3 0.120905 0.008860 0.002139
Si Si4 0.129614 0.629614 0.750000
Si Si5 0.911178 0.196703 0.749874
Si Si6 0.063491 0.563516 0.021247
Si Si7 0.120901 0.009018 0.498178
O O1 0.561626 0.214980 0.750086
O O2 0.519514 0.331274 0.620795
O O3 0.643990 0.339013 0.750040
O O4 0.519315 0.331448 0.878641
O O5 0.071331 0.428670 0.250000
O O6 0.969592 0.371616 0.384655
O O7 0.969635 0.371583 0.115308
O O8 0.170458 0.041781 0.120826
O O9 0.061670 0.070900 0.955686
O O10 0.111184 0.717455 0.750005
O O11 0.093356 0.593361 0.881873
O O12 0.958081 0.170587 0.620342
O O13 0.000000 0.500000 0.002149
O O14 0.061556 0.071027 0.544262
#
# Coordination Sequence:
#
# PCOD9558396 Si02
#       7
#     8   8   8   4   8   8   8
#     4  10  18  30  49  70  97 130 154 185 238 279
#     4   9  18  33  53  70  93 118 166 200 228 271
#     4   9  17  31  49  70  94 124 163 196 221 265
#     4  12  21  32  48  70 108 119 148 190 248 292
#     4  10  21  30  45  73 100 126 151 187 239 284
#     4   9  19  35  53  73  85 121 164 206 231 264
#     4   9  17  31  49  70  94 124 163 196 221 265
#
# _framework density 15.863994
#
# number of rings (size 3 to 8) (size 9 to 14) (size 15 to 20)
#    0.000    2.462    0.000    3.923    1.077    3.692 
#    0.000    0.000    0.000    0.000    0.000    0.000 
#    0.000    0.000    0.000    0.000    0.000    0.000 
#
# Total GULP energy -289703.027826 kJ/mol
# GULP energy per Si atom -5571.212074 kJ/mol
# Density = 1.582789 g / cm^3
# Si number density = 15.863994 Si / 1000 Ang^3
#
#
#
# Elastic Constant Matrix: (Units=GPa)
#
#
# Indices 1 2 3 4 5 6 
#
# 1 87.7653 30.0658 57.9978 0.0000 0.0000 0.0000
# 2 30.0658 87.7604 57.9969 0.0000 0.0000 0.0000
# 3 57.9978 57.9969 123.9383 0.0000 0.0000 0.0000
# 4 0.0000 0.0000 0.0000 9.7072 0.0000 0.0000
# 5 0.0000 0.0000 0.0000 0.0000 9.7075 0.0000
# 6 0.0000 0.0000 0.0000 0.0000 0.0000 13.5039
#
#
#
# Elastic Compliance Matrix: (Units=1/GPa)
#
#
# Indices 1 2 3 4 5 6 
#
# 1 0.016533 -0.000798 -0.007364 0.000000 0.000000 0.000000
# 2 -0.000798 0.016535 -0.007364 0.000000 0.000000 0.000000
# 3 -0.007364 -0.007364 0.014960 0.000000 0.000000 0.000000
# 4 0.000000 0.000000 0.000000 0.103016 0.000000 0.000000
# 5 0.000000 0.000000 0.000000 0.000000 0.103014 0.000000
# 6 0.000000 0.000000 0.000000 0.000000 0.000000 0.074053
#
#
# Mechanical properties :
#
#
# Convention : Reuss Voigt Hill
#
# Bulk Modulus (GPa) = 58.90175 65.73165 62.31670
# Shear Modulus (GPa) = 13.70538 16.81063 15.25800
#
# Velocity S-wave (km/s) = 2.94246 3.25879 3.10466
# Velocity P-wave (km/s) = 6.98240 7.46218 7.22627
#
# Compressibility (1/GPa) = 0.01697743
#
# Stress axis : x y z
#
# Youngs Moduli (GPa) = 60.48369 60.47959 66.84373
#
# Poissons Ratio (x) = 0.04826 0.49220
# Poissons Ratio (y) = 0.04826 0.49223
# Poissons Ratio (z) = 0.44537 0.44537
#
# Static dielectric constant tensor:
#      x y z
#    x 1.515970 0.000000 0.000000 
#    y 0.000000 1.515970 0.000000 
#    z 0.000000 0.000000 1.519960 
# 
# From -- ./inp_files/2169.got.cif
#   From: 2010.05.17/outbox.cif.g08.bks.cpg/sg118_2_cif.got.tgz:2169.got - 2010.05.20 11:17:24.
