data_PCOD9558143
_publ_section_title
;
Structure prediction by ZEFSAII (Michael W. Deem and Ramdas Pophale) SiO2 
 PCOD9558143
Probable space group: P -4 B 2
;
_chemical_formula_sum "Si O2"
_cell_formula_units_Z 38
_cell_length_a 17.433283
_cell_length_b 17.433283
_cell_length_c 6.045991
_cell_angle_alpha 90.000000
_cell_angle_beta 90.000000
_cell_angle_gamma 90.000000
_cell_volume 1837.493692
_symmetry_space_group_name_H-M "P -4 B 2"
_symmetry_group_IT_number 117
_symmetry_cell_setting 'tetragonal'
loop_
_space_group_symop_operation_xyz
x,y,z
y,-x,-z
-x,-y,z
-y,x,-z
1/2+y,1/2+x,-z
1/2-y,1/2-x,-z
1/2-x,1/2+y,z
1/2+x,1/2-y,z
loop_
_atom_site_type_symbol
_atom_site_label
_atom_site_fract_x
_atom_site_fract_y
_atom_site_fract_z
Si Si1 0.525847 0.334063 0.120965
Si Si2 0.000000 0.000000 0.000000
Si Si3 0.611024 0.239814 0.474405
Si Si4 0.209835 0.129905 0.654073
Si Si5 0.463653 0.229926 0.732162
Si Si6 0.846927 0.346927 0.000000
O O1 0.591125 0.282494 0.241508
O O2 0.449548 0.326572 0.268004
O O3 0.540463 0.425341 0.111102
O O4 0.499832 0.294476 0.892022
O O5 0.673468 0.173468 0.500000
O O6 0.645595 0.306496 0.628491
O O7 0.530646 0.208205 0.564750
O O8 0.242002 0.108755 0.412335
O O9 0.275989 0.154220 0.826388
O O10 0.428088 0.162887 0.879375
#
# Coordination Sequence:
#
# PCOD9558143 Si02
#       6
#     8   2   8   8   8   4
#     4  10  23  38  58  88 123 165 201 249 314 385
#     4  12  20  36  62  92 132 162 196 248 322 400
#     4  11  23  38  59  88 123 161 206 258 311 372
#     4  10  21  38  61  88 118 156 201 250 311 384
#     4  10  21  39  60  86 118 155 207 256 307 376
#     4  10  20  38  66  87 112 157 204 252 312 370
#
# _framework density 20.680346
#
# number of rings (size 3 to 8) (size 9 to 14) (size 15 to 20)
#    0.000    1.684    0.000    4.421    0.000    7.579 
#    0.000    4.211    0.000   36.632    0.000    0.000 
#    0.000    0.000    0.000    0.000    0.000    0.000 
#
# Total GULP energy -211840.806611 kJ/mol
# GULP energy per Si atom -5574.758069 kJ/mol
# Density = 2.063328 g / cm^3
# Si number density = 20.680346 Si / 1000 Ang^3
#
#
#
# Elastic Constant Matrix: (Units=GPa)
#
#
# Indices 1 2 3 4 5 6 
#
# 1 74.1952 60.8795 25.8140 0.0000 0.0000 0.0000
# 2 60.8795 74.1952 25.8140 0.0000 0.0000 0.0000
# 3 25.8140 25.8140 73.8979 0.0000 0.0000 0.0000
# 4 0.0000 0.0000 0.0000 22.7947 0.0000 0.0000
# 5 0.0000 0.0000 0.0000 0.0000 22.7947 0.0000
# 6 0.0000 0.0000 0.0000 0.0000 0.0000 23.0743
#
#
#
# Elastic Compliance Matrix: (Units=1/GPa)
#
#
# Indices 1 2 3 4 5 6 
#
# 1 0.041822 -0.033278 -0.002985 0.000000 0.000000 0.000000
# 2 -0.033278 0.041822 -0.002985 0.000000 0.000000 0.000000
# 3 -0.002985 -0.002985 0.015617 0.000000 0.000000 0.000000
# 4 0.000000 0.000000 0.000000 0.043870 0.000000 0.000000
# 5 0.000000 0.000000 0.000000 0.000000 0.043870 0.000000
# 6 0.000000 0.000000 0.000000 0.000000 0.000000 0.043338
#
#
# Mechanical properties :
#
#
# Convention : Reuss Voigt Hill
#
# Bulk Modulus (GPa) = 48.15321 49.70038 48.92680
# Shear Modulus (GPa) = 15.83508 21.05148 18.44328
#
# Velocity S-wave (km/s) = 2.77014 3.19399 2.98959
# Velocity P-wave (km/s) = 5.79367 6.13897 5.96882
#
# Compressibility (1/GPa) = 0.02076705
#
# Stress axis : x y z
#
# Youngs Moduli (GPa) = 23.91102 23.91102 64.03133
#
# Poissons Ratio (x) = 0.79570 0.19111
# Poissons Ratio (y) = 0.79570 0.19111
# Poissons Ratio (z) = 0.07137 0.07137
#
# Static dielectric constant tensor:
#      x y z
#    x 1.737290 0.000000 0.000000 
#    y 0.000000 1.737290 0.000000 
#    z 0.000000 0.000000 1.851490 
# 
# From -- ./inp_files/590.got.cif
#   From: 2010.05.17/outbox.cif.g08.bks.cpg/sg117_1_cif.got.tgz:590.got - 2010.05.20 11:15:09.
