data_PCOD9558992
_publ_section_title
;
Structure prediction by ZEFSAII (Michael W. Deem and Ramdas Pophale) SiO2 
 PCOD9558992
Probable space group: I -4 M 2
;
_chemical_formula_sum "Si O2"
_cell_formula_units_Z 96
_cell_length_a 25.314141
_cell_length_b 25.314141
_cell_length_c 9.716979
_cell_angle_alpha 90.000000
_cell_angle_beta 90.000000
_cell_angle_gamma 90.000000
_cell_volume 6226.695866
_symmetry_space_group_name_H-M "I -4 M 2"
_symmetry_group_IT_number 119
_symmetry_cell_setting 'tetragonal'
loop_
_space_group_symop_operation_xyz
x,y,z
y,-x,-z
-x,-y,z
-y,x,-z
y,x,-z
-y,-x,-z
-x,y,z
x,-y,z
1/2+x,1/2+y,1/2+z
1/2+y,1/2-x,1/2-z
1/2-x,1/2-y,1/2+z
1/2-y,1/2+x,1/2-z
1/2+y,1/2+x,1/2-z
1/2-y,1/2-x,1/2-z
1/2-x,1/2+y,1/2+z
1/2+x,1/2-y,1/2+z
loop_
_atom_site_type_symbol
_atom_site_label
_atom_site_fract_x
_atom_site_fract_y
_atom_site_fract_z
Si Si1 0.782824 0.439281 0.538428
Si Si2 0.244442 0.830584 0.587887
Si Si3 0.783771 0.441286 0.047383
Si Si4 0.744299 0.667621 0.415274
Si Si5 0.560652 0.146816 0.211403
Si Si6 0.057857 0.358651 0.202172
O O1 0.762639 0.500000 0.523171
O O2 0.748917 0.391181 0.477642
O O3 0.801104 0.430248 0.694627
O O4 0.837359 0.437043 0.451403
O O5 0.203087 0.796914 0.500000
O O6 0.247728 0.890237 0.533664
O O7 0.300929 0.800333 0.570010
O O8 0.232722 0.831464 0.751644
O O9 0.761152 0.500000 0.021986
O O10 0.807016 0.439811 0.201283
O O11 0.833408 0.435193 0.944897
O O12 0.701756 0.701756 0.500000
O O13 0.500000 0.129813 0.236485
O O14 0.602207 0.102207 0.250000
O O15 0.102877 0.397124 0.250000
O O16 0.000000 0.382976 0.221358
#
# Coordination Sequence:
#
# PCOD9558992 Si02
#       6
#    16  16  16  16  16  16
#     4  10  20  33  49  67  90 124 161 196 237 286
#     4  10  20  32  48  71  97 124 154 193 240 288
#     4  10  20  33  49  67  90 124 161 196 237 286
#     4  10  20  32  48  71  97 124 154 193 240 288
#     4  10  20  31  45  65  89 123 164 204 244 280
#     4  10  18  29  45  63  85 117 156 196 236 274
#
# _framework density 15.417486999999999
#
# number of rings (size 3 to 8) (size 9 to 14) (size 15 to 20)
#    0.000    2.000    1.667    3.000    2.333    0.333 
#    0.000    0.000    0.000    6.000    0.000    0.000 
#    0.000    0.667    0.000    3.000    0.000    0.000 
#
# Total GULP energy -267512.153252 kJ/mol
# GULP energy per Si atom -5573.169859 kJ/mol
# Density = 1.538240 g / cm^3
# Si number density = 15.417487 Si / 1000 Ang^3
#
#
#
# Elastic Constant Matrix: (Units=GPa)
#
#
# Indices 1 2 3 4 5 6 
#
# 1 80.4154 40.7196 16.8309 0.0000 0.0000 0.0000
# 2 40.7196 80.4187 16.8309 0.0000 0.0000 0.0000
# 3 16.8309 16.8309 47.7408 0.0000 0.0000 0.0000
# 4 0.0000 0.0000 0.0000 18.6510 0.0000 0.0000
# 5 0.0000 0.0000 0.0000 0.0000 18.6509 0.0000
# 6 0.0000 0.0000 0.0000 0.0000 0.0000 20.3450
#
#
#
# Elastic Compliance Matrix: (Units=1/GPa)
#
#
# Indices 1 2 3 4 5 6 
#
# 1 0.017172 -0.008019 -0.003227 0.000000 0.000000 0.000000
# 2 -0.008019 0.017171 -0.003226 0.000000 0.000000 0.000000
# 3 -0.003227 -0.003226 0.023221 0.000000 0.000000 0.000000
# 4 0.000000 0.000000 0.000000 0.053616 0.000000 0.000000
# 5 0.000000 0.000000 0.000000 0.000000 0.053617 0.000000
# 6 0.000000 0.000000 0.000000 0.000000 0.000000 0.049152
#
#
# Mechanical properties :
#
#
# Convention : Reuss Voigt Hill
#
# Bulk Modulus (GPa) = 34.94164 39.70419 37.32291
# Shear Modulus (GPa) = 19.80723 20.47561 20.14142
#
# Velocity S-wave (km/s) = 3.58819 3.64823 3.61834
# Velocity P-wave (km/s) = 6.31504 6.59960 6.45889
#
# Compressibility (1/GPa) = 0.02861915
#
# Stress axis : x y z
#
# Youngs Moduli (GPa) = 58.23597 58.23857 43.06374
#
# Poissons Ratio (x) = 0.46704 0.13895
# Poissons Ratio (y) = 0.46702 0.13894
# Poissons Ratio (z) = 0.18790 0.18789
#
# Static dielectric constant tensor:
#      x y z
#    x 1.513790 0.000000 0.000000 
#    y 0.000000 1.513790 0.000000 
#    z 0.000000 0.000000 1.525400 
# 
# From -- ./inp_files/2677.got.cif
#   From: 2010.05.17/outbox.cif.g08.bks.cpg/sg119_2_cif.got.tgz:2677.got - 2010.05.20 11:21:29.
