data_PCOD9558451
_publ_section_title
;
Structure prediction by ZEFSAII (Michael W. Deem and Ramdas Pophale) SiO2 
 PCOD9558451
Probable space group: P -4 N 2
;
_chemical_formula_sum "Si O2"
_cell_formula_units_Z 40
_cell_length_a 10.495618
_cell_length_b 10.495618
_cell_length_c 15.676781
_cell_angle_alpha 90.000000
_cell_angle_beta 90.000000
_cell_angle_gamma 90.000000
_cell_volume 1726.922798
_symmetry_space_group_name_H-M "P -4 N 2"
_symmetry_group_IT_number 118
_symmetry_cell_setting 'tetragonal'
loop_
_space_group_symop_operation_xyz
x,y,z
y,-x,-z
-x,-y,z
-y,x,-z
1/2+y,1/2+x,1/2-z
1/2-y,1/2-x,1/2-z
1/2-x,1/2+y,1/2+z
1/2+x,1/2-y,1/2+z
loop_
_atom_site_type_symbol
_atom_site_label
_atom_site_fract_x
_atom_site_fract_y
_atom_site_fract_z
Si Si1 0.382439 0.839984 0.863403
Si Si2 0.799802 0.049613 0.476298
Si Si3 0.878905 0.320503 0.165513
Si Si4 0.186355 0.102150 0.004950
Si Si5 0.191679 0.631013 0.841945
O O1 0.528656 0.860567 0.842179
O O2 0.320971 0.712074 0.826978
O O3 0.309220 0.966358 0.832882
O O4 0.389835 0.809100 0.964459
O O5 0.737035 0.997540 0.389444
O O6 0.857843 0.922547 0.523526
O O7 0.795842 0.295842 0.250000
O O8 0.840857 0.248624 0.080509
O O9 0.279836 0.120749 0.086600
O O10 0.046463 0.160801 0.013339
O O11 0.123564 0.623564 0.750000
#
# Coordination Sequence:
#
# PCOD9558451 Si02
#       5
#     8   8   8   8   8
#     4  10  19  35  64  91 123 150 207 268 314 363
#     4   9  19  36  58  92 128 168 202 256 326 386
#     4  11  21  37  64  97 118 156 216 272 314 366
#     4  11  24  44  62  92 133 174 211 262 329 393
#     4  11  21  39  62  91 125 167 208 257 318 383
#
# _framework density 23.162586000000001
#
# number of rings (size 3 to 8) (size 9 to 14) (size 15 to 20)
#    0.000    1.600    4.000    2.400    0.000    0.000 
#    3.600    2.000    0.000    1.200    0.000    0.000 
#    0.000    0.000    0.000    0.000    0.000    0.000 
#
# Total GULP energy -223057.424892 kJ/mol
# GULP energy per Si atom -5576.435622 kJ/mol
# Density = 2.310987 g / cm^3
# Si number density = 23.162586 Si / 1000 Ang^3
#
#
#
# Elastic Constant Matrix: (Units=GPa)
#
#
# Indices 1 2 3 4 5 6 
#
# 1 48.6820 29.9533 43.3509 0.0000 0.0000 0.0000
# 2 29.9533 48.6820 43.3509 0.0000 0.0000 0.0000
# 3 43.3509 43.3509 202.8225 0.0000 0.0000 0.0000
# 4 0.0000 0.0000 0.0000 31.6323 0.0000 0.0000
# 5 0.0000 0.0000 0.0000 0.0000 31.6323 0.0000
# 6 0.0000 0.0000 0.0000 0.0000 0.0000 37.3605
#
#
#
# Elastic Compliance Matrix: (Units=1/GPa)
#
#
# Indices 1 2 3 4 5 6 
#
# 1 0.035016 -0.018378 -0.003556 0.000000 0.000000 0.000000
# 2 -0.018378 0.035016 -0.003556 0.000000 0.000000 0.000000
# 3 -0.003556 -0.003556 0.006451 0.000000 0.000000 0.000000
# 4 0.000000 0.000000 0.000000 0.031613 0.000000 0.000000
# 5 0.000000 0.000000 0.000000 0.000000 0.031613 0.000000
# 6 0.000000 0.000000 0.000000 0.000000 0.000000 0.026766
#
#
# Mechanical properties :
#
#
# Convention : Reuss Voigt Hill
#
# Bulk Modulus (GPa) = 39.21299 59.27742 49.24521
# Shear Modulus (GPa) = 22.12817 32.36044 27.24430
#
# Velocity S-wave (km/s) = 3.09421 3.74183 3.43333
# Velocity P-wave (km/s) = 5.45268 6.65702 6.08472
#
# Compressibility (1/GPa) = 0.02550175
#
# Stress axis : x y z
#
# Youngs Moduli (GPa) = 28.55846 28.55846 155.02456
#
# Poissons Ratio (x) = 0.52485 0.55129
# Poissons Ratio (y) = 0.52485 0.55129
# Poissons Ratio (z) = 0.10156 0.10156
#
# Static dielectric constant tensor:
#      x y z
#    x 1.900070 0.000000 0.000000 
#    y 0.000000 1.900070 0.000000 
#    z 0.000000 0.000000 2.041360 
# 
# From -- ./inp_files/4083.got.cif
#   From: 2010.05.17/outbox.cif.g08.bks.cpg/sg118_3_cif.got.tgz:4083.got - 2010.05.20 11:17:24.
