data_PCOD9558321
_publ_section_title
;
Structure prediction by ZEFSAII (Michael W. Deem and Ramdas Pophale) SiO2 
 PCOD9558321
Probable space group: P -4 B 2
;
_chemical_formula_sum "Si O2"
_cell_formula_units_Z 56
_cell_length_a 14.082894
_cell_length_b 14.082894
_cell_length_c 12.516197
_cell_angle_alpha 90.000000
_cell_angle_beta 90.000000
_cell_angle_gamma 90.000000
_cell_volume 2482.311110
_symmetry_space_group_name_H-M "P -4 B 2"
_symmetry_group_IT_number 117
_symmetry_cell_setting 'tetragonal'
loop_
_space_group_symop_operation_xyz
x,y,z
y,-x,-z
-x,-y,z
-y,x,-z
1/2+y,1/2+x,-z
1/2-y,1/2-x,-z
1/2-x,1/2+y,z
1/2+x,1/2-y,z
loop_
_atom_site_type_symbol
_atom_site_label
_atom_site_fract_x
_atom_site_fract_y
_atom_site_fract_z
Si Si1 0.870926 0.216417 0.884941
Si Si2 0.180598 0.395365 0.885915
Si Si3 0.039627 0.104620 0.787859
Si Si4 0.581329 0.081159 0.319711
Si Si5 0.607805 0.754894 0.134454
Si Si6 0.978887 0.322324 0.493863
Si Si7 0.371261 0.540453 0.448291
O O1 0.785688 0.143559 0.861886
O O2 0.832390 0.313412 0.831336
O O3 0.974396 0.179376 0.852521
O O4 0.869927 0.227121 0.012302
O O5 0.109575 0.369600 0.790204
O O6 0.191926 0.508035 0.874706
O O7 0.142146 0.357855 0.000000
O O8 0.153376 0.109225 0.804715
O O9 0.008088 0.121547 0.666033
O O10 0.000000 0.000000 0.819318
O O11 0.529110 0.169716 0.379067
O O12 0.500000 0.000000 0.303441
O O13 0.658911 0.049648 0.407344
O O14 0.913003 0.413003 0.500000
O O15 0.919552 0.229905 0.521644
O O16 0.456515 0.612208 0.465667
#
# Coordination Sequence:
#
# PCOD9558321 Si02
#       7
#     8   8   8   8   8   8   8
#     4  11  26  45  67 107 142 178 252 284 341 444
#     4  12  25  43  71 103 147 183 234 297 353 423
#     4  12  25  46  74  98 140 199 230 289 370 423
#     4   9  22  42  69  98 134 182 226 278 355 426
#     4  11  26  47  72 104 143 188 235 297 349 430
#     4   9  21  45  70  96 134 179 230 284 347 423
#     4  11  25  44  64  97 141 171 230 291 342 415
#
# _framework density 22.559621
#
# number of rings (size 3 to 8) (size 9 to 14) (size 15 to 20)
#    0.000    1.286    4.286    1.714    6.000    4.857 
#    2.571    0.000    0.000    0.000    0.000    0.000 
#    0.000    0.000    0.000    0.000    0.000    0.000 
#
# Total GULP energy -312760.588233 kJ/mol
# GULP energy per Si atom -5585.010504 kJ/mol
# Density = 2.250827 g / cm^3
# Si number density = 22.559621 Si / 1000 Ang^3
#
#
#
# Elastic Constant Matrix: (Units=GPa)
#
#
# Indices 1 2 3 4 5 6 
#
# 1 68.1819 -3.5150 5.8404 0.0000 0.0000 0.0000
# 2 -3.5150 68.1816 5.8406 0.0000 0.0000 0.0000
# 3 5.8404 5.8406 95.2120 0.0000 0.0000 0.0000
# 4 0.0000 0.0000 0.0000 4.6653 0.0000 0.0000
# 5 0.0000 0.0000 0.0000 0.0000 4.6656 0.0000
# 6 0.0000 0.0000 0.0000 0.0000 0.0000 31.0703
#
#
#
# Elastic Compliance Matrix: (Units=1/GPa)
#
#
# Indices 1 2 3 4 5 6 
#
# 1 0.014792 0.000845 -0.000959 0.000000 0.000000 0.000000
# 2 0.000845 0.014792 -0.000959 0.000000 0.000000 0.000000
# 3 -0.000959 -0.000959 0.010621 0.000000 0.000000 0.000000
# 4 0.000000 0.000000 0.000000 0.214348 0.000000 0.000000
# 5 0.000000 0.000000 0.000000 0.000000 0.214335 0.000000
# 6 0.000000 0.000000 0.000000 0.000000 0.000000 0.032185
#
#
# Mechanical properties :
#
#
# Convention : Reuss Voigt Hill
#
# Bulk Modulus (GPa) = 26.27567 27.54528 26.91047
# Shear Modulus (GPa) = 9.69167 22.97420 16.33294
#
# Velocity S-wave (km/s) = 2.07493 3.19466 2.69362
# Velocity P-wave (km/s) = 4.17288 5.08373 4.65066
#
# Compressibility (1/GPa) = 0.03805802
#
# Stress axis : x y z
#
# Youngs Moduli (GPa) = 67.60242 67.60214 94.15698
#
# Poissons Ratio (x) = -0.05711 0.09032
# Poissons Ratio (y) = -0.05711 0.09032
# Poissons Ratio (z) = 0.06484 0.06485
#
# Static dielectric constant tensor:
#      x y z
#    x 1.938070 0.000000 0.000000 
#    y 0.000000 1.938070 0.000000 
#    z 0.000000 0.000000 1.854720 
# 
# From -- ./inp_files/2868.got.cif
#   From: 2010.05.17/outbox.cif.g08.bks.cpg/sg117_2_cif.got.tgz:2868.got - 2010.05.20 11:15:09.
