data_PCOD9558178
_publ_section_title
;
Structure prediction by ZEFSAII (Michael W. Deem and Ramdas Pophale) SiO2 
 PCOD9558178
Probable space group: P -4 B 2
;
_chemical_formula_sum "Si O2"
_cell_formula_units_Z 52
_cell_length_a 21.738273
_cell_length_b 21.738273
_cell_length_c 5.238065
_cell_angle_alpha 90.000000
_cell_angle_beta 90.000000
_cell_angle_gamma 90.000000
_cell_volume 2475.260779
_symmetry_space_group_name_H-M "P -4 B 2"
_symmetry_group_IT_number 117
_symmetry_cell_setting 'tetragonal'
loop_
_space_group_symop_operation_xyz
x,y,z
y,-x,-z
-x,-y,z
-y,x,-z
1/2+y,1/2+x,-z
1/2-y,1/2-x,-z
1/2-x,1/2+y,z
1/2+x,1/2-y,z
loop_
_atom_site_type_symbol
_atom_site_label
_atom_site_fract_x
_atom_site_fract_y
_atom_site_fract_z
Si Si1 0.500000 0.000000 0.000000
Si Si2 0.060633 0.205563 0.393108
Si Si3 0.071732 0.100481 0.745548
Si Si4 0.490874 0.867411 0.225240
Si Si5 0.324257 0.540906 0.012361
Si Si6 0.807993 0.640524 0.748837
Si Si7 0.000000 0.000000 0.500000
Si Si8 0.791396 0.484461 0.288940
O O1 0.500605 0.939202 0.176309
O O2 0.083973 0.141139 0.496760
O O3 0.111186 0.240686 0.232898
O O4 0.997136 0.200196 0.235190
O O5 0.045384 0.252602 0.626550
O O6 0.130811 0.094869 0.923238
O O7 0.052060 0.031860 0.668079
O O8 0.010814 0.132547 0.856470
O O9 0.418662 0.853477 0.267354
O O10 0.526038 0.835250 0.464804
O O11 0.506899 0.833323 0.959145
O O12 0.266349 0.557151 0.192608
O O13 0.818902 0.681099 0.500000
O O14 0.823116 0.676885 0.000000
#
# Coordination Sequence:
#
# PCOD9558178 Si02
#       8
#     2   8   8   8   8   8   2   8
#     4  12  28  38  68 106 152 170 204 286 368 454
#     4  10  22  37  61  90 129 167 230 269 334 405
#     4  11  23  34  58  91 139 179 232 279 344 411
#     4  11  23  39  59  97 134 172 206 258 345 425
#     4  11  21  39  59  91 133 184 227 284 335 408
#     4  11  21  37  63  88 126 166 210 276 342 392
#     4  12  20  38  52  96 146 192 210 288 366 412
#     4  10  21  40  61  82 131 180 219 258 316 410
#
# _framework density 21.007887
#
# number of rings (size 3 to 8) (size 9 to 14) (size 15 to 20)
#    0.000    1.231    5.385    2.769    2.154    1.231 
#    0.000    0.000    0.000    0.000    0.000    4.308 
#    0.000    0.000    0.000    0.000    0.000    0.000 
#
# Total GULP energy -290266.605451 kJ/mol
# GULP energy per Si atom -5582.050105 kJ/mol
# Density = 2.096007 g / cm^3
# Si number density = 21.007887 Si / 1000 Ang^3
#
#
#
# Elastic Constant Matrix: (Units=GPa)
#
#
# Indices 1 2 3 4 5 6 
#
# 1 80.9327 21.5926 32.4546 0.0000 0.0000 0.0000
# 2 21.5926 80.9318 32.4539 0.0000 0.0000 0.0000
# 3 32.4546 32.4539 130.4244 0.0000 0.0000 0.0000
# 4 0.0000 0.0000 0.0000 28.3821 0.0000 0.0000
# 5 0.0000 0.0000 0.0000 0.0000 28.3832 0.0000
# 6 0.0000 0.0000 0.0000 0.0000 0.0000 12.1589
#
#
#
# Elastic Compliance Matrix: (Units=1/GPa)
#
#
# Indices 1 2 3 4 5 6 
#
# 1 0.014215 -0.002637 -0.002881 0.000000 0.000000 0.000000
# 2 -0.002637 0.014215 -0.002881 0.000000 0.000000 0.000000
# 3 -0.002881 -0.002881 0.009101 0.000000 0.000000 0.000000
# 4 0.000000 0.000000 0.000000 0.035233 0.000000 0.000000
# 5 0.000000 0.000000 0.000000 0.000000 0.035232 0.000000
# 6 0.000000 0.000000 0.000000 0.000000 0.000000 0.082244
#
#
# Mechanical properties :
#
#
# Convention : Reuss Voigt Hill
#
# Bulk Modulus (GPa) = 48.23320 51.69902 49.96611
# Shear Modulus (GPa) = 23.36997 27.50403 25.43700
#
# Velocity S-wave (km/s) = 3.33894 3.62225 3.48347
# Velocity P-wave (km/s) = 6.15419 6.49284 6.32578
#
# Compressibility (1/GPa) = 0.02073261
#
# Stress axis : x y z
#
# Youngs Moduli (GPa) = 70.34903 70.34849 109.87762
#
# Poissons Ratio (x) = 0.18553 0.31655
# Poissons Ratio (y) = 0.18553 0.31655
# Poissons Ratio (z) = 0.20267 0.20267
#
# Static dielectric constant tensor:
#      x y z
#    x 1.813860 0.000000 0.000000 
#    y 0.000000 1.813870 0.000000 
#    z 0.000000 0.000000 1.932880 
# 
# From -- ./inp_files/883.got.cif
#   From: 2010.05.17/outbox.cif.g08.bks.cpg/sg117_1_cif.got.tgz:883.got - 2010.05.20 11:15:09.
