data_PCOD9558514
_publ_section_title
;
Structure prediction by ZEFSAII (Michael W. Deem and Ramdas Pophale) SiO2 
 PCOD9558514
Probable space group: P -4 N 2
;
_chemical_formula_sum "Si O2"
_cell_formula_units_Z 56
_cell_length_a 12.280828
_cell_length_b 12.280828
_cell_length_c 19.129194
_cell_angle_alpha 90.000000
_cell_angle_beta 90.000000
_cell_angle_gamma 90.000000
_cell_volume 2885.040867
_symmetry_space_group_name_H-M "P -4 N 2"
_symmetry_group_IT_number 118
_symmetry_cell_setting 'tetragonal'
loop_
_space_group_symop_operation_xyz
x,y,z
y,-x,-z
-x,-y,z
-y,x,-z
1/2+y,1/2+x,1/2-z
1/2-y,1/2-x,1/2-z
1/2-x,1/2+y,1/2+z
1/2+x,1/2-y,1/2+z
loop_
_atom_site_type_symbol
_atom_site_label
_atom_site_fract_x
_atom_site_fract_y
_atom_site_fract_z
Si Si1 0.786435 0.883939 0.418501
Si Si2 0.364601 0.705471 0.065859
Si Si3 0.245169 0.592710 0.292501
Si Si4 0.990260 0.802712 0.345774
Si Si5 0.135515 0.808773 0.920844
Si Si6 0.382999 0.839635 0.671819
Si Si7 0.878611 0.815480 0.919587
O O1 0.839069 0.829336 0.486950
O O2 0.882336 0.872090 0.361490
O O3 0.675972 0.815810 0.410456
O O4 0.768835 0.009743 0.428021
O O5 0.331097 0.597625 0.109949
O O6 0.298620 0.813864 0.084747
O O7 0.193569 0.693569 0.250000
O O8 0.310958 0.526053 0.234288
O O9 0.149095 0.511486 0.316925
O O10 0.317146 0.618283 0.359244
O O11 0.942326 0.680980 0.360269
O O12 0.229292 0.866485 0.873385
O O13 0.007474 0.817926 0.904972
O O14 0.146115 0.851593 0.001026
O O15 0.331427 0.831427 0.750000
#
# Coordination Sequence:
#
# PCOD9558514 Si02
#       7
#     8   8   8   8   8   8   8
#     4  10  21  37  64  94 125 163 207 265 324 385
#     4  11  20  37  63  94 128 158 209 264 324 387
#     4  11  22  41  60  95 128 164 212 267 326 382
#     4  10  20  37  60  92 125 160 201 254 325 381
#     4  10  23  44  64  91 126 171 219 265 318 386
#     4   9  21  40  63  93 127 164 209 260 325 388
#     4  11  24  42  64  90 129 168 220 266 318 387
#
# _framework density 19.410471000000001
#
# number of rings (size 3 to 8) (size 9 to 14) (size 15 to 20)
#    0.000    1.714    2.857    1.286    0.000    5.143 
#   12.857    0.000    0.000    0.000    0.000    0.000 
#    0.000    0.000    0.000    0.000    0.000    0.000 
#
# Total GULP energy -311968.708594 kJ/mol
# GULP energy per Si atom -5570.869796 kJ/mol
# Density = 1.936629 g / cm^3
# Si number density = 19.410471 Si / 1000 Ang^3
#
#
#
# Elastic Constant Matrix: (Units=GPa)
#
#
# Indices 1 2 3 4 5 6 
#
# 1 93.7750 30.3801 28.8933 0.0000 0.0000 0.0000
# 2 30.3801 93.7750 28.8933 0.0000 0.0000 0.0000
# 3 28.8933 28.8933 95.4910 0.0000 0.0000 0.0000
# 4 0.0000 0.0000 0.0000 24.1170 0.0000 0.0000
# 5 0.0000 0.0000 0.0000 0.0000 24.1170 0.0000
# 6 0.0000 0.0000 0.0000 0.0000 0.0000 16.4152
#
#
#
# Elastic Compliance Matrix: (Units=1/GPa)
#
#
# Indices 1 2 3 4 5 6 
#
# 1 0.012574 -0.003200 -0.002837 0.000000 0.000000 0.000000
# 2 -0.003200 0.012574 -0.002837 0.000000 0.000000 0.000000
# 3 -0.002837 -0.002837 0.012189 0.000000 0.000000 0.000000
# 4 0.000000 0.000000 0.000000 0.041464 0.000000 0.000000
# 5 0.000000 0.000000 0.000000 0.000000 0.041464 0.000000
# 6 0.000000 0.000000 0.000000 0.000000 0.000000 0.060919
#
#
# Mechanical properties :
#
#
# Convention : Reuss Voigt Hill
#
# Bulk Modulus (GPa) = 51.04154 51.04160 51.04157
# Shear Modulus (GPa) = 24.33539 25.92147 25.12843
#
# Velocity S-wave (km/s) = 3.54464 3.65833 3.60193
# Velocity P-wave (km/s) = 6.56548 6.64812 6.60693
#
# Compressibility (1/GPa) = 0.01959188
#
# Stress axis : x y z
#
# Youngs Moduli (GPa) = 79.52658 79.52658 82.04297
#
# Poissons Ratio (x) = 0.25446 0.23272
# Poissons Ratio (y) = 0.25446 0.23272
# Poissons Ratio (z) = 0.22558 0.22558
#
# Static dielectric constant tensor:
#      x y z
#    x 1.703060 0.000000 0.000000 
#    y 0.000000 1.703060 0.000000 
#    z 0.000000 0.000000 1.711220 
# 
# From -- ./inp_files/5717.got.cif
#   From: 2010.05.17/outbox.cif.g08.bks.cpg/sg118_3_cif.got.tgz:5717.got - 2010.05.20 11:17:24.
