data_PCOD9558287
_publ_section_title
;
Structure prediction by ZEFSAII (Michael W. Deem and Ramdas Pophale) SiO2 
 PCOD9558287
Probable space group: P -4 B 2
;
_chemical_formula_sum "Si O2"
_cell_formula_units_Z 26
_cell_length_a 16.246942
_cell_length_b 16.246942
_cell_length_c 5.013909
_cell_angle_alpha 90.000000
_cell_angle_beta 90.000000
_cell_angle_gamma 90.000000
_cell_volume 1323.487085
_symmetry_space_group_name_H-M "P -4 B 2"
_symmetry_group_IT_number 117
_symmetry_cell_setting 'tetragonal'
loop_
_space_group_symop_operation_xyz
x,y,z
y,-x,-z
-x,-y,z
-y,x,-z
1/2+y,1/2+x,-z
1/2-y,1/2-x,-z
1/2-x,1/2+y,z
1/2+x,1/2-y,z
loop_
_atom_site_type_symbol
_atom_site_label
_atom_site_fract_x
_atom_site_fract_y
_atom_site_fract_z
Si Si1 0.315152 0.001388 0.131606
Si Si2 0.823569 0.247778 0.761904
Si Si3 0.601149 0.233127 0.386693
Si Si4 0.500000 0.000000 0.000000
O O1 0.266264 0.965108 0.381158
O O2 0.280239 0.093070 0.107176
O O3 0.414510 0.002035 0.165941
O O4 0.297842 0.944880 0.876253
O O5 0.801571 0.301571 0.500000
O O6 0.815292 0.153307 0.670271
O O7 0.757315 0.257315 0.000000
O O8 0.668215 0.168215 0.500000
#
# Coordination Sequence:
#
# PCOD9558287 Si02
#       4
#     8   8   8   2
#     4  12  24  38  63  91 132 160 205 270 320 392
#     4  11  23  40  62  90 125 173 221 256 312 399
#     4  11  22  40  59  87 125 172 208 253 317 386
#     4  12  24  38  60 106 132 158 196 258 364 374
#
# _framework density 19.645071999999999
#
# number of rings (size 3 to 8) (size 9 to 14) (size 15 to 20)
#    0.000    0.615    4.615    5.538    0.000    1.231 
#    0.000    0.000    0.000    5.538    0.000    0.000 
#    0.000    0.000    0.000    0.000    0.000    0.000 
#
# Total GULP energy -145164.572696 kJ/mol
# GULP energy per Si atom -5583.252796 kJ/mol
# Density = 1.960036 g / cm^3
# Si number density = 19.645072 Si / 1000 Ang^3
#
#
#
# Elastic Constant Matrix: (Units=GPa)
#
#
# Indices 1 2 3 4 5 6 
#
# 1 85.6132 53.5534 28.5335 0.0000 0.0000 0.0000
# 2 53.5534 85.6132 28.5335 0.0000 0.0000 0.0000
# 3 28.5335 28.5335 71.1403 0.0000 0.0000 0.0000
# 4 0.0000 0.0000 0.0000 -9.0691 0.0000 0.0000
# 5 0.0000 0.0000 0.0000 0.0000 -9.0691 0.0000
# 6 0.0000 0.0000 0.0000 0.0000 0.0000 27.2850
#
#
#
# Elastic Compliance Matrix: (Units=1/GPa)
#
#
# Indices 1 2 3 4 5 6 
#
# 1 0.019896 -0.011296 -0.003449 0.000000 0.000000 0.000000
# 2 -0.011296 0.019896 -0.003449 0.000000 0.000000 0.000000
# 3 -0.003449 -0.003449 0.016824 0.000000 0.000000 0.000000
# 4 0.000000 0.000000 0.000000 -0.110265 0.000000 0.000000
# 5 0.000000 0.000000 0.000000 0.000000 -0.110265 0.000000
# 6 0.000000 0.000000 0.000000 0.000000 0.000000 0.036650
#
#
# Mechanical properties :
#
#
# Convention : Reuss Voigt Hill
#
# Bulk Modulus (GPa) = 49.44044 51.51197 50.47621
# Shear Modulus (GPa) = -59.42993 10.61245 -24.40874
#
# Velocity S-wave (km/s) = -5.50613 2.32676 -3.52872
# Velocity P-wave (km/s) = 3.89896 5.78763 3.02447
#
# Compressibility (1/GPa) = 0.02022636
#
# Stress axis : x y z
#
# Youngs Moduli (GPa) = 50.26151 50.26151 59.43979
#
# Poissons Ratio (x) = 0.56775 0.20503
# Poissons Ratio (y) = 0.56775 0.20503
# Poissons Ratio (z) = 0.17337 0.17337
#
# Static dielectric constant tensor:
#      x y z
#    x 1.813390 0.000000 0.000000 
#    y 0.000000 1.813390 0.000000 
#    z 0.000000 0.000000 1.690590 
# 
# From -- ./inp_files/292.got.cif
#   From: 2010.05.17/outbox.cif.g08.bks.cpg/sg117_1_cif.got.tgz:292.got - 2010.05.20 11:15:09.
