data_PCOD9558558
_publ_section_title
;
Structure prediction by ZEFSAII (Michael W. Deem and Ramdas Pophale) SiO2 
 PCOD9558558
Probable space group: P -4 N 2
;
_chemical_formula_sum "Si O2"
_cell_formula_units_Z 30
_cell_length_a 17.034250
_cell_length_b 17.034250
_cell_length_c 4.884813
_cell_angle_alpha 90.000000
_cell_angle_beta 90.000000
_cell_angle_gamma 90.000000
_cell_volume 1417.405052
_symmetry_space_group_name_H-M "P -4 N 2"
_symmetry_group_IT_number 118
_symmetry_cell_setting 'tetragonal'
loop_
_space_group_symop_operation_xyz
x,y,z
y,-x,-z
-x,-y,z
-y,x,-z
1/2+y,1/2+x,1/2-z
1/2-y,1/2-x,1/2-z
1/2-x,1/2+y,1/2+z
1/2+x,1/2-y,1/2+z
loop_
_atom_site_type_symbol
_atom_site_label
_atom_site_fract_x
_atom_site_fract_y
_atom_site_fract_z
Si Si1 0.034188 0.243693 0.573089
Si Si2 0.545862 0.669037 0.598707
Si Si3 0.858378 0.641623 0.750000
Si Si4 0.173242 0.214431 0.166561
Si Si5 0.000000 0.000000 0.000000
O O1 0.008073 0.200914 0.849911
O O2 0.058444 0.334365 0.622119
O O3 0.112460 0.209938 0.420481
O O4 0.966963 0.225058 0.355672
O O5 0.633998 0.669944 0.493692
O O6 0.518525 0.579972 0.664099
O O7 0.789136 0.650448 0.524155
O O8 0.261253 0.238748 0.250000
#
# Coordination Sequence:
#
# PCOD9558558 Si02
#       5
#     8   8   4   8   2
#     4  11  23  38  58  84 120 161 212 247 308 361
#     4  12  25  36  56  92 126 172 200 253 307 376
#     4  10  20  44  60  86 117 169 206 268 292 368
#     4  10  23  39  62  84 129 167 213 253 300 369
#     4  12  24  34  56  86 140 170 200 242 308 386
#
# _framework density 21.165437000000001
#
# number of rings (size 3 to 8) (size 9 to 14) (size 15 to 20)
#    0.000    1.067    5.333    0.000   11.200    1.067 
#    0.000    0.000    0.000    0.000    0.000    0.933 
#   16.000    0.000    0.000    0.000    0.000    0.000 
#
# Total GULP energy -167434.305707 kJ/mol
# GULP energy per Si atom -5581.143524 kJ/mol
# Density = 2.111726 g / cm^3
# Si number density = 21.165437 Si / 1000 Ang^3
#
#
#
# Elastic Constant Matrix: (Units=GPa)
#
#
# Indices 1 2 3 4 5 6 
#
# 1 29.0255 3.7163 -2.6841 0.0000 0.0000 0.0000
# 2 3.7163 29.0270 -2.6834 0.0000 0.0000 0.0000
# 3 -2.6841 -2.6834 83.7763 0.0000 0.0000 0.0000
# 4 0.0000 0.0000 0.0000 29.7435 0.0000 0.0000
# 5 0.0000 0.0000 0.0000 0.0000 29.7433 0.0000
# 6 0.0000 0.0000 0.0000 0.0000 0.0000 30.8766
#
#
#
# Elastic Compliance Matrix: (Units=1/GPa)
#
#
# Indices 1 2 3 4 5 6 
#
# 1 0.035107 -0.004404 0.000984 0.000000 0.000000 0.000000
# 2 -0.004404 0.035105 0.000983 0.000000 0.000000 0.000000
# 3 0.000984 0.000983 0.012000 0.000000 0.000000 0.000000
# 4 0.000000 0.000000 0.000000 0.033621 0.000000 0.000000
# 5 0.000000 0.000000 0.000000 0.000000 0.033621 0.000000
# 6 0.000000 0.000000 0.000000 0.000000 0.000000 0.032387
#
#
# Mechanical properties :
#
#
# Convention : Reuss Voigt Hill
#
# Bulk Modulus (GPa) = 12.93011 15.39181 14.16096
# Shear Modulus (GPa) = 23.53005 27.63801 25.58403
#
# Velocity S-wave (km/s) = 3.33786 3.61752 3.48050
# Velocity P-wave (km/s) = 4.58011 4.97358 4.78090
#
# Compressibility (1/GPa) = 0.07733888
#
# Stress axis : x y z
#
# Youngs Moduli (GPa) = 28.48412 28.48559 83.33635
#
# Poissons Ratio (x) = 0.12545 -0.08198
# Poissons Ratio (y) = 0.12544 -0.08195
# Poissons Ratio (z) = -0.02802 -0.02801
#
# Static dielectric constant tensor:
#      x y z
#    x 1.799850 0.000000 0.000000 
#    y 0.000000 1.799850 0.000000 
#    z 0.000000 0.000000 1.870890 
# 
# From -- ./inp_files/481.got.cif
#   From: 2010.05.17/outbox.cif.g08.bks.cpg/sg118_1_cif.got.tgz:481.got - 2010.05.20 11:17:24.
