data_PCOD9558823
_publ_section_title
;
Structure prediction by ZEFSAII (Michael W. Deem and Ramdas Pophale) SiO2 
 PCOD9558823
Probable space group: P -4 N 2
;
_chemical_formula_sum "Si O2"
_cell_formula_units_Z 34
_cell_length_a 11.347156
_cell_length_b 11.347156
_cell_length_c 11.521227
_cell_angle_alpha 90.000000
_cell_angle_beta 90.000000
_cell_angle_gamma 90.000000
_cell_volume 1483.449562
_symmetry_space_group_name_H-M "P -4 N 2"
_symmetry_group_IT_number 118
_symmetry_cell_setting 'tetragonal'
loop_
_space_group_symop_operation_xyz
x,y,z
y,-x,-z
-x,-y,z
-y,x,-z
1/2+y,1/2+x,1/2-z
1/2-y,1/2-x,1/2-z
1/2-x,1/2+y,1/2+z
1/2+x,1/2-y,1/2+z
loop_
_atom_site_type_symbol
_atom_site_label
_atom_site_fract_x
_atom_site_fract_y
_atom_site_fract_z
Si Si1 0.494896 0.823249 0.193121
Si Si2 0.103398 0.422054 0.059276
Si Si3 0.323056 0.485490 0.447725
Si Si4 0.842462 0.091113 0.687945
Si Si5 0.000000 0.000000 0.500000
O O1 0.588720 0.911281 0.250000
O O2 0.560060 0.695525 0.204726
O O3 0.368807 0.868807 0.250000
O O4 0.483360 0.846095 0.055741
O O5 0.032307 0.309103 0.015740
O O6 0.211663 0.378874 0.139883
O O7 0.000000 0.500000 0.116112
O O8 0.379913 0.602739 0.496338
O O9 0.332970 0.475901 0.309411
O O10 0.891190 0.007675 0.586498
#
# Coordination Sequence:
#
# PCOD9558823 Si02
#       5
#     8   8   8   8   2
#     4  11  22  43  75 110 148 205 265 320 402 487
#     4  12  26  46  77 112 151 203 264 322 400 482
#     4  11  26  48  74 104 150 204 260 325 398 470
#     4  12  26  47  74 111 157 203 257 341 397 487
#     4  12  24  44  74 112 156 204 264 322 424 468
#
# _framework density 22.919553000000001
#
# number of rings (size 3 to 8) (size 9 to 14) (size 15 to 20)
#    0.000    0.471    4.706    4.941    3.294    1.882 
#    0.000    0.000    0.000    0.000    0.000    0.000 
#    0.000    0.000    0.000    0.000    0.000    0.000 
#
# Total GULP energy -189896.060121 kJ/mol
# GULP energy per Si atom -5585.178239 kJ/mol
# Density = 2.286739 g / cm^3
# Si number density = 22.919553 Si / 1000 Ang^3
#
#
#
# Elastic Constant Matrix: (Units=GPa)
#
#
# Indices 1 2 3 4 5 6 
#
# 1 88.8811 17.5676 7.1605 0.0000 0.0000 0.0000
# 2 17.5676 88.8812 7.1607 0.0000 0.0000 0.0000
# 3 7.1605 7.1607 135.2415 0.0000 0.0000 0.0000
# 4 0.0000 0.0000 0.0000 49.1331 0.0000 0.0000
# 5 0.0000 0.0000 0.0000 0.0000 49.1775 0.0000
# 6 0.0000 0.0000 0.0000 0.0000 0.0000 94.1912
#
#
#
# Elastic Compliance Matrix: (Units=1/GPa)
#
#
# Indices 1 2 3 4 5 6 
#
# 1 0.011742 -0.002280 -0.000501 0.000000 0.000000 0.000000
# 2 -0.002280 0.011742 -0.000501 0.000000 0.000000 0.000000
# 3 -0.000501 -0.000501 0.007447 0.000000 0.000000 0.000000
# 4 0.000000 0.000000 0.000000 0.020353 0.000000 0.000000
# 5 0.000000 0.000000 0.000000 0.000000 0.020335 0.000000
# 6 0.000000 0.000000 0.000000 0.000000 0.000000 0.010617
#
#
# Mechanical properties :
#
#
# Convention : Reuss Voigt Hill
#
# Bulk Modulus (GPa) = 41.03984 41.86460 41.45222
# Shear Modulus (GPa) = 51.58762 57.24137 54.41449
#
# Velocity S-wave (km/s) = 4.74942 5.00291 4.87781
# Velocity P-wave (km/s) = 6.92971 7.18872 7.06040
#
# Compressibility (1/GPa) = 0.02436656
#
# Stress axis : x y z
#
# Youngs Moduli (GPa) = 85.16378 85.16381 134.27813
#
# Poissons Ratio (x) = 0.19422 0.06727
# Poissons Ratio (y) = 0.19422 0.06727
# Poissons Ratio (z) = 0.04266 0.04266
#
# Static dielectric constant tensor:
#      x y z
#    x 1.786740 0.000000 0.000000 
#    y 0.000000 1.786850 0.000000 
#    z 0.000000 0.000000 1.814340 
# 
# From -- ./inp_files/3020.got.cif
#   From: 2010.05.17/outbox.cif.g08.bks.cpg/sg118_2_cif.got.tgz:3020.got - 2010.05.20 11:17:24.
