data_PCOD9558973
_publ_section_title
;
Structure prediction by ZEFSAII (Michael W. Deem and Ramdas Pophale) SiO2 
 PCOD9558973
Probable space group: I -4 M 2
;
_chemical_formula_sum "Si O2"
_cell_formula_units_Z 96
_cell_length_a 18.160977
_cell_length_b 18.160977
_cell_length_c 15.878315
_cell_angle_alpha 90.000000
_cell_angle_beta 90.000000
_cell_angle_gamma 90.000000
_cell_volume 5237.003091
_symmetry_space_group_name_H-M "I -4 M 2"
_symmetry_group_IT_number 119
_symmetry_cell_setting 'tetragonal'
loop_
_space_group_symop_operation_xyz
x,y,z
y,-x,-z
-x,-y,z
-y,x,-z
y,x,-z
-y,-x,-z
-x,y,z
x,-y,z
1/2+x,1/2+y,1/2+z
1/2+y,1/2-x,1/2-z
1/2-x,1/2-y,1/2+z
1/2-y,1/2+x,1/2-z
1/2+y,1/2+x,1/2-z
1/2-y,1/2-x,1/2-z
1/2-x,1/2+y,1/2+z
1/2+x,1/2-y,1/2+z
loop_
_atom_site_type_symbol
_atom_site_label
_atom_site_fract_x
_atom_site_fract_y
_atom_site_fract_z
Si Si1 0.088644 0.330413 0.039618
Si Si2 0.772944 0.148889 0.828223
Si Si3 0.086252 0.079104 0.232741
Si Si4 0.367899 0.634517 0.907381
Si Si5 0.206632 0.586433 0.155806
Si Si6 0.718945 0.201906 0.420946
O O1 0.102463 0.255279 0.091620
O O2 0.136202 0.384430 0.102625
O O3 0.000000 0.344970 0.030897
O O4 0.138508 0.324081 0.953957
O O5 0.855941 0.129015 0.809967
O O6 0.726516 0.121697 0.746829
O O7 0.773794 0.235767 0.849097
O O8 0.098661 0.088327 0.332342
O O9 0.000000 0.086969 0.216048
O O10 0.112188 0.000000 0.203765
O O11 0.395540 0.719016 0.895976
O O12 0.278605 0.638687 0.900555
O O13 0.389854 0.610147 0.000000
O O14 0.198758 0.500000 0.168507
O O15 0.755476 0.244525 0.500000
#
# Coordination Sequence:
#
# PCOD9558973 Si02
#       6
#    16  16  16  16  16  16
#     4  11  21  35  55  83 113 148 190 231 278 340
#     4  10  19  35  57  76 107 146 186 231 276 328
#     4  10  22  34  47  76 110 140 176 220 276 332
#     4  10  17  34  54  74 102 136 182 226 267 323
#     4  11  21  33  54  84 111 148 187 226 288 345
#     4   9  18  34  54  78 102 135 188 229 265 314
#
# _framework density 18.331095000000001
#
# number of rings (size 3 to 8) (size 9 to 14) (size 15 to 20)
#    0.000    1.833    5.000    3.500    2.333    2.333 
#    0.000    0.833    0.000    2.000    0.000    8.167 
#    0.000    0.000    0.000    0.000    0.000    0.000 
#
# Total GULP energy -267234.521827 kJ/mol
# GULP energy per Si atom -5567.385871 kJ/mol
# Density = 1.828937 g / cm^3
# Si number density = 18.331095 Si / 1000 Ang^3
#
#
#
# Elastic Constant Matrix: (Units=GPa)
#
#
# Indices 1 2 3 4 5 6 
#
# 1 53.6217 27.6287 7.9724 0.0000 0.0000 0.0000
# 2 27.6287 53.6217 7.9724 0.0000 0.0000 0.0000
# 3 7.9724 7.9724 40.0829 0.0000 0.0000 0.0000
# 4 0.0000 0.0000 0.0000 15.2622 0.0000 0.0000
# 5 0.0000 0.0000 0.0000 0.0000 15.2621 0.0000
# 6 0.0000 0.0000 0.0000 0.0000 0.0000 17.9714
#
#
#
# Elastic Compliance Matrix: (Units=1/GPa)
#
#
# Indices 1 2 3 4 5 6 
#
# 1 0.025640 -0.012832 -0.002547 0.000000 0.000000 0.000000
# 2 -0.012832 0.025640 -0.002547 0.000000 0.000000 0.000000
# 3 -0.002547 -0.002547 0.025962 0.000000 0.000000 0.000000
# 4 0.000000 0.000000 0.000000 0.065521 0.000000 0.000000
# 5 0.000000 0.000000 0.000000 0.000000 0.065522 0.000000
# 6 0.000000 0.000000 0.000000 0.000000 0.000000 0.055644
#
#
# Mechanical properties :
#
#
# Convention : Reuss Voigt Hill
#
# Bulk Modulus (GPa) = 24.16209 26.05260 25.10734
# Shear Modulus (GPa) = 15.94502 16.61600 16.28051
#
# Velocity S-wave (km/s) = 2.95249 3.01398 2.98339
# Velocity P-wave (km/s) = 4.98322 5.13373 5.05904
#
# Compressibility (1/GPa) = 0.04138715
#
# Stress axis : x y z
#
# Youngs Moduli (GPa) = 39.00200 39.00201 38.51832
#
# Poissons Ratio (x) = 0.50048 0.09812
# Poissons Ratio (y) = 0.50048 0.09812
# Poissons Ratio (z) = 0.09935 0.09935
#
# Static dielectric constant tensor:
#      x y z
#    x 1.674200 0.000000 0.000000 
#    y 0.000000 1.674200 0.000000 
#    z 0.000000 0.000000 1.669510 
# 
# From -- ./inp_files/6627.got.cif
#   From: 2010.05.17/outbox.cif.g08.bks.cpg/sg119_4_cif.got.tgz:6627.got - 2010.05.20 11:21:29.
