data_PCOD9558812
_publ_section_title
;
Structure prediction by ZEFSAII (Michael W. Deem and Ramdas Pophale) SiO2 
 PCOD9558812
Probable space group: P -4 N 2
;
_chemical_formula_sum "Si O2"
_cell_formula_units_Z 36
_cell_length_a 13.930829
_cell_length_b 13.930829
_cell_length_c 7.477211
_cell_angle_alpha 90.000000
_cell_angle_beta 90.000000
_cell_angle_gamma 90.000000
_cell_volume 1451.087359
_symmetry_space_group_name_H-M "P -4 N 2"
_symmetry_group_IT_number 118
_symmetry_cell_setting 'tetragonal'
loop_
_space_group_symop_operation_xyz
x,y,z
y,-x,-z
-x,-y,z
-y,x,-z
1/2+y,1/2+x,1/2-z
1/2-y,1/2-x,1/2-z
1/2-x,1/2+y,1/2+z
1/2+x,1/2-y,1/2+z
loop_
_atom_site_type_symbol
_atom_site_label
_atom_site_fract_x
_atom_site_fract_y
_atom_site_fract_z
Si Si1 0.135271 0.944508 0.047536
Si Si2 0.380446 0.119555 0.250000
Si Si3 0.363533 0.422799 0.949379
Si Si4 0.841596 0.537104 0.026980
Si Si5 0.519314 0.825388 0.588334
O O1 0.137842 0.896797 0.239934
O O2 0.101145 0.054077 0.074567
O O3 0.233435 0.953201 0.947501
O O4 0.394936 0.177339 0.440422
O O5 0.351199 0.018907 0.340829
O O6 0.376721 0.538921 0.973318
O O7 0.256885 0.401240 0.023225
O O8 0.830335 0.466789 0.198287
O O9 0.942888 0.590165 0.048275
#
# Coordination Sequence:
#
# PCOD9558812 Si02
#       5
#     8   4   8   8   8
#     4  11  22  41  66  92 128 172 215 261 321 383
#     4  12  23  42  68  92 130 174 208 259 330 383
#     4  11  22  41  66  92 128 172 215 261 321 383
#     4  11  23  41  65  96 130 167 215 265 316 381
#     4  11  23  41  65  96 130 167 215 265 316 381
#
# _framework density 24.808980999999999
#
# number of rings (size 3 to 8) (size 9 to 14) (size 15 to 20)
#    0.000    0.889    2.222    8.000    0.000    1.778 
#    4.000    0.000    0.000    0.000    0.000    0.000 
#    0.000    0.000    0.000    0.000    0.000    0.000 
#
# Total GULP energy -200651.600652 kJ/mol
# GULP energy per Si atom -5573.655574 kJ/mol
# Density = 2.475251 g / cm^3
# Si number density = 24.808981 Si / 1000 Ang^3
#
#
#
# Elastic Constant Matrix: (Units=GPa)
#
#
# Indices 1 2 3 4 5 6 
#
# 1 10.5077 51.8724 -7.5424 0.0000 0.0000 0.0000
# 2 51.8724 10.5061 -7.5438 0.0000 0.0000 0.0000
# 3 -7.5424 -7.5438 161.2822 0.0000 0.0000 0.0000
# 4 0.0000 0.0000 0.0000 28.3492 0.0000 0.0000
# 5 0.0000 0.0000 0.0000 0.0000 28.3496 0.0000
# 6 0.0000 0.0000 0.0000 0.0000 0.0000 12.5946
#
#
#
# Elastic Compliance Matrix: (Units=1/GPa)
#
#
# Indices 1 2 3 4 5 6 
#
# 1 -0.003980 0.020195 0.000758 0.000000 0.000000 0.000000
# 2 0.020195 -0.003981 0.000758 0.000000 0.000000 0.000000
# 3 0.000758 0.000758 0.006271 0.000000 0.000000 0.000000
# 4 0.000000 0.000000 0.000000 0.035274 0.000000 0.000000
# 5 0.000000 0.000000 0.000000 0.000000 0.035274 0.000000
# 6 0.000000 0.000000 0.000000 0.000000 0.000000 0.079399
#
#
# Mechanical properties :
#
#
# Convention : Reuss Voigt Hill
#
# Bulk Modulus (GPa) = 23.96164 28.42980 26.19572
# Shear Modulus (GPa) = 42.10649 23.55935 32.83292
#
# Velocity S-wave (km/s) = 4.12421 3.08495 3.64184
# Velocity P-wave (km/s) = 5.68843 4.91666 5.31657
#
# Compressibility (1/GPa) = 0.04173337
#
# Stress axis : x y z
#
# Youngs Moduli (GPa) = -251.26571 -251.22385 159.45795
#
# Poissons Ratio (x) = 5.07336 -0.12094
# Poissons Ratio (y) = 5.07420 -0.12091
# Poissons Ratio (z) = 0.19057 0.19048
#
# Static dielectric constant tensor:
#      x y z
#    x 2.057620 0.000000 0.000000 
#    y 0.000000 2.057630 0.000000 
#    z 0.000000 0.000000 1.916440 
# 
# From -- ./inp_files/1773.got.cif
#   From: 2010.05.17/outbox.cif.g08.bks.cpg/sg118_1_cif.got.tgz:1773.got - 2010.05.20 11:17:24.
