data_PCOD9558226
_publ_section_title
;
Structure prediction by ZEFSAII (Michael W. Deem and Ramdas Pophale) SiO2 
 PCOD9558226
Probable space group: P -4 B 2
;
_chemical_formula_sum "Si O2"
_cell_formula_units_Z 34
_cell_length_a 9.470146
_cell_length_b 9.470146
_cell_length_c 18.898688
_cell_angle_alpha 90.000000
_cell_angle_beta 90.000000
_cell_angle_gamma 90.000000
_cell_volume 1694.903608
_symmetry_space_group_name_H-M "P -4 B 2"
_symmetry_group_IT_number 117
_symmetry_cell_setting 'tetragonal'
loop_
_space_group_symop_operation_xyz
x,y,z
y,-x,-z
-x,-y,z
-y,x,-z
1/2+y,1/2+x,-z
1/2-y,1/2-x,-z
1/2-x,1/2+y,z
1/2+x,1/2-y,z
loop_
_atom_site_type_symbol
_atom_site_label
_atom_site_fract_x
_atom_site_fract_y
_atom_site_fract_z
Si Si1 0.500000 0.000000 0.500000
Si Si2 0.604896 0.892684 0.634524
Si Si3 0.369078 0.104740 0.916742
Si Si4 0.849296 0.076336 0.684750
Si Si5 0.087192 0.144190 0.154561
O O1 0.527047 0.878417 0.558088
O O2 0.633514 0.739128 0.663536
O O3 0.500000 0.000000 0.676061
O O4 0.747161 0.985106 0.634475
O O5 0.372436 0.251808 0.872924
O O6 0.500000 0.000000 0.903116
O O7 0.238803 0.006479 0.896527
O O8 0.362179 0.137822 0.000000
O O9 0.794677 0.080595 0.765715
O O10 0.000000 0.000000 0.683846
O O11 0.000000 0.000000 0.158022
#
# Coordination Sequence:
#
# PCOD9558226 Si02
#       5
#     2   8   8   8   8
#     4   8  24  44  64  96 136 172 214 276 336 404
#     4  10  22  43  65  94 138 168 224 275 334 413
#     4  11  26  42  65  97 128 179 226 279 350 407
#     4  11  23  41  67 100 128 179 222 279 346 398
#     4  11  25  42  66  95 135 171 226 285 338 414
#
# _framework density 20.060140000000001
#
# number of rings (size 3 to 8) (size 9 to 14) (size 15 to 20)
#    0.706    0.706    0.000    4.235    6.588    8.471 
#    0.000    0.000    0.000    0.000    0.000    0.000 
#    0.000    0.000    0.000    0.000    0.000    0.000 
#
# Total GULP energy -189339.048743 kJ/mol
# GULP energy per Si atom -5568.795551 kJ/mol
# Density = 2.001448 g / cm^3
# Si number density = 20.060140 Si / 1000 Ang^3
#
#
#
# Elastic Constant Matrix: (Units=GPa)
#
#
# Indices 1 2 3 4 5 6 
#
# 1 124.3677 34.7902 34.6395 0.0000 0.0000 0.0000
# 2 34.7902 124.3674 34.6395 0.0000 0.0000 0.0000
# 3 34.6395 34.6395 89.1423 0.0000 0.0000 0.0000
# 4 0.0000 0.0000 0.0000 21.3671 0.0000 0.0000
# 5 0.0000 0.0000 0.0000 0.0000 21.3671 0.0000
# 6 0.0000 0.0000 0.0000 0.0000 0.0000 31.9625
#
#
#
# Elastic Compliance Matrix: (Units=1/GPa)
#
#
# Indices 1 2 3 4 5 6 
#
# 1 0.009363 -0.001801 -0.002939 0.000000 0.000000 0.000000
# 2 -0.001801 0.009363 -0.002939 0.000000 0.000000 0.000000
# 3 -0.002939 -0.002939 0.013502 0.000000 0.000000 0.000000
# 4 0.000000 0.000000 0.000000 0.046801 0.000000 0.000000
# 5 0.000000 0.000000 0.000000 0.000000 0.046801 0.000000
# 6 0.000000 0.000000 0.000000 0.000000 0.000000 0.031287
#
#
# Mechanical properties :
#
#
# Convention : Reuss Voigt Hill
#
# Bulk Modulus (GPa) = 59.27012 60.66842 59.96927
# Shear Modulus (GPa) = 28.07480 30.52655 29.30068
#
# Velocity S-wave (km/s) = 3.74509 3.90520 3.82598
# Velocity P-wave (km/s) = 6.95063 7.11639 7.03400
#
# Compressibility (1/GPa) = 0.01687191
#
# Stress axis : x y z
#
# Youngs Moduli (GPa) = 106.80507 106.80481 74.06423
#
# Poissons Ratio (x) = 0.19232 0.21764
# Poissons Ratio (y) = 0.19232 0.21764
# Poissons Ratio (z) = 0.31385 0.31385
#
# Static dielectric constant tensor:
#      x y z
#    x 1.716050 0.000000 0.000000 
#    y 0.000000 1.716050 0.000000 
#    z 0.000000 0.000000 1.726920 
# 
# From -- ./inp_files/3427.got.cif
#   From: 2010.05.17/outbox.cif.g08.bks.cpg/sg117_2_cif.got.tgz:3427.got - 2010.05.20 11:15:09.
