data_PCOD9558534
_publ_section_title
;
Structure prediction by ZEFSAII (Michael W. Deem and Ramdas Pophale) SiO2 
 PCOD9558534
Probable space group: P -4 N 2
;
_chemical_formula_sum "Si O2"
_cell_formula_units_Z 24
_cell_length_a 12.181011
_cell_length_b 12.181011
_cell_length_c 8.538173
_cell_angle_alpha 90.000000
_cell_angle_beta 90.000000
_cell_angle_gamma 90.000000
_cell_volume 1266.868743
_symmetry_space_group_name_H-M "P -4 N 2"
_symmetry_group_IT_number 118
_symmetry_cell_setting 'tetragonal'
loop_
_space_group_symop_operation_xyz
x,y,z
y,-x,-z
-x,-y,z
-y,x,-z
1/2+y,1/2+x,1/2-z
1/2-y,1/2-x,1/2-z
1/2-x,1/2+y,1/2+z
1/2+x,1/2-y,1/2+z
loop_
_atom_site_type_symbol
_atom_site_label
_atom_site_fract_x
_atom_site_fract_y
_atom_site_fract_z
Si Si1 0.983617 0.672064 0.854718
Si Si2 0.572657 0.787996 0.041436
Si Si3 0.286739 0.831536 0.571677
O O1 0.915995 0.584006 0.750000
O O2 0.087732 0.618648 0.940989
O O3 0.033466 0.747432 0.717403
O O4 0.892896 0.711956 0.976663
O O5 0.674955 0.713311 0.994845
O O6 0.463900 0.787771 0.937440
O O7 0.292978 0.792978 0.750000
#
# Coordination Sequence:
#
# PCOD9558534 Si02
#       3
#     8   8   8
#     4   9  18  38  63  81 115 156 193 241 290 337
#     4  10  20  39  61  84 123 154 189 243 298 340
#     4  11  21  37  63  89 115 155 199 240 288 349
#
# _framework density 18.944347
#
# number of rings (size 3 to 8) (size 9 to 14) (size 15 to 20)
#    0.000    2.000    3.333    7.000    0.000    3.333 
#   18.000    0.000    0.000    1.000    0.000    0.000 
#    0.000    0.000    0.000    0.000    0.000    0.000 
#
# Total GULP energy -133637.322273 kJ/mol
# GULP energy per Si atom -5568.221761 kJ/mol
# Density = 1.890123 g / cm^3
# Si number density = 18.944347 Si / 1000 Ang^3
#
#
#
# Elastic Constant Matrix: (Units=GPa)
#
#
# Indices 1 2 3 4 5 6 
#
# 1 49.7338 23.1999 5.0748 0.0000 0.0000 0.0000
# 2 23.1999 49.7342 5.0747 0.0000 0.0000 0.0000
# 3 5.0748 5.0747 25.6895 0.0000 0.0000 0.0000
# 4 0.0000 0.0000 0.0000 15.9714 0.0000 0.0000
# 5 0.0000 0.0000 0.0000 0.0000 15.9717 0.0000
# 6 0.0000 0.0000 0.0000 0.0000 0.0000 30.8534
#
#
#
# Elastic Compliance Matrix: (Units=1/GPa)
#
#
# Indices 1 2 3 4 5 6 
#
# 1 0.025893 -0.011794 -0.002785 0.000000 0.000000 0.000000
# 2 -0.011794 0.025893 -0.002785 0.000000 0.000000 0.000000
# 3 -0.002785 -0.002785 0.040027 0.000000 0.000000 0.000000
# 4 0.000000 0.000000 0.000000 0.062612 0.000000 0.000000
# 5 0.000000 0.000000 0.000000 0.000000 0.062611 0.000000
# 6 0.000000 0.000000 0.000000 0.000000 0.000000 0.032411
#
#
# Mechanical properties :
#
#
# Convention : Reuss Voigt Hill
#
# Bulk Modulus (GPa) = 17.51815 21.31737 19.41776
# Shear Modulus (GPa) = 16.49058 18.67985 17.58521
#
# Velocity S-wave (km/s) = 2.95358 3.14353 3.05004
# Velocity P-wave (km/s) = 4.57152 4.94497 4.76191
#
# Compressibility (1/GPa) = 0.05708367
#
# Stress axis : x y z
#
# Youngs Moduli (GPa) = 38.62033 38.62071 24.98334
#
# Poissons Ratio (x) = 0.45551 0.06958
# Poissons Ratio (y) = 0.45550 0.06958
# Poissons Ratio (z) = 0.10756 0.10756
#
# Static dielectric constant tensor:
#      x y z
#    x 1.683490 0.000000 0.000000 
#    y 0.000000 1.683490 0.000000 
#    z 0.000000 0.000000 1.709610 
# 
# From -- ./inp_files/1348.got.cif
#   From: 2010.05.17/outbox.cif.g08.bks.cpg/sg118_1_cif.got.tgz:1348.got - 2010.05.20 11:17:24.
