data_PCOD9558596
_publ_section_title
;
Structure prediction by ZEFSAII (Michael W. Deem and Ramdas Pophale) SiO2 
 PCOD9558596
Probable space group: P -4 N 2
;
_chemical_formula_sum "Si O2"
_cell_formula_units_Z 36
_cell_length_a 9.144587
_cell_length_b 9.144587
_cell_length_c 20.696560
_cell_angle_alpha 90.000000
_cell_angle_beta 90.000000
_cell_angle_gamma 90.000000
_cell_volume 1730.718193
_symmetry_space_group_name_H-M "P -4 N 2"
_symmetry_group_IT_number 118
_symmetry_cell_setting 'tetragonal'
loop_
_space_group_symop_operation_xyz
x,y,z
y,-x,-z
-x,-y,z
-y,x,-z
1/2+y,1/2+x,1/2-z
1/2-y,1/2-x,1/2-z
1/2-x,1/2+y,1/2+z
1/2+x,1/2-y,1/2+z
loop_
_atom_site_type_symbol
_atom_site_label
_atom_site_fract_x
_atom_site_fract_y
_atom_site_fract_z
Si Si1 0.335157 0.513298 0.339682
Si Si2 0.278369 0.778369 0.750000
Si Si3 0.226042 0.182789 0.053963
Si Si4 0.163887 0.060593 0.363129
Si Si5 0.207849 0.351689 0.586421
O O1 0.500000 0.500000 0.313728
O O2 0.230924 0.425412 0.292109
O O3 0.331065 0.427308 0.408143
O O4 0.314742 0.681055 0.355475
O O5 0.138843 0.779074 0.702223
O O6 0.309693 0.320148 0.084879
O O7 0.301136 0.026744 0.072410
O O8 0.209009 0.219107 0.979231
O O9 0.271203 0.938476 0.392289
O O10 0.000000 0.000000 0.356225
#
# Coordination Sequence:
#
# PCOD9558596 Si02
#       5
#     8   4   8   8   8
#     4   9  19  38  68  93 125 174 219 278 329 393
#     4  10  22  48  64  92 136 178 234 274 332 400
#     4  10  21  39  65 101 136 166 219 276 337 407
#     4  11  26  44  66  99 139 185 217 280 340 395
#     4  11  21  40  68 105 129 174 223 276 345 402
#
# _framework density 20.800613999999999
#
# number of rings (size 3 to 8) (size 9 to 14) (size 15 to 20)
#    0.000    1.778    2.222    1.333    3.111    0.000 
#    0.000   35.556    0.000    0.000    0.000    0.000 
#    0.000    0.000    0.000    0.000    0.000    0.000 
#
# Total GULP energy -200775.928798 kJ/mol
# GULP energy per Si atom -5577.109133 kJ/mol
# Density = 2.075327 g / cm^3
# Si number density = 20.800614 Si / 1000 Ang^3
#
#
#
# Elastic Constant Matrix: (Units=GPa)
#
#
# Indices 1 2 3 4 5 6 
#
# 1 80.9892 39.3703 34.5604 0.0000 0.0000 0.0000
# 2 39.3703 80.9892 34.5604 0.0000 0.0000 0.0000
# 3 34.5604 34.5604 101.4454 0.0000 0.0000 0.0000
# 4 0.0000 0.0000 0.0000 6.9605 0.0000 0.0000
# 5 0.0000 0.0000 0.0000 0.0000 6.9605 0.0000
# 6 0.0000 0.0000 0.0000 0.0000 0.0000 30.4695
#
#
#
# Elastic Compliance Matrix: (Units=1/GPa)
#
#
# Indices 1 2 3 4 5 6 
#
# 1 0.017178 -0.006849 -0.003519 0.000000 0.000000 0.000000
# 2 -0.006849 0.017178 -0.003519 0.000000 0.000000 0.000000
# 3 -0.003519 -0.003519 0.012255 0.000000 0.000000 0.000000
# 4 0.000000 0.000000 0.000000 0.143667 0.000000 0.000000
# 5 0.000000 0.000000 0.000000 0.000000 0.143667 0.000000
# 6 0.000000 0.000000 0.000000 0.000000 0.000000 0.032820
#
#
# Mechanical properties :
#
#
# Convention : Reuss Voigt Hill
#
# Bulk Modulus (GPa) = 53.08439 53.37844 53.23142
# Shear Modulus (GPa) = 12.47443 19.20696 15.84069
#
# Velocity S-wave (km/s) = 2.45156 3.04202 2.76261
# Velocity P-wave (km/s) = 5.79565 6.16897 5.98522
#
# Compressibility (1/GPa) = 0.01883793
#
# Stress axis : x y z
#
# Youngs Moduli (GPa) = 58.21249 58.21249 81.59778
#
# Poissons Ratio (x) = 0.39870 0.28714
# Poissons Ratio (y) = 0.39870 0.28714
# Poissons Ratio (z) = 0.20485 0.20485
#
# Static dielectric constant tensor:
#      x y z
#    x 1.741680 0.000000 0.000000 
#    y 0.000000 1.741680 0.000000 
#    z 0.000000 0.000000 1.770520 
# 
# From -- ./inp_files/5461.got.cif
#   From: 2010.05.17/outbox.cif.g08.bks.cpg/sg118_3_cif.got.tgz:5461.got - 2010.05.20 11:17:24.
