data_PCOD9558822
_publ_section_title
;
Structure prediction by ZEFSAII (Michael W. Deem and Ramdas Pophale) SiO2 
 PCOD9558822
Probable space group: P -4 N 2
;
_chemical_formula_sum "Si O2"
_cell_formula_units_Z 38
_cell_length_a 8.212581
_cell_length_b 8.212581
_cell_length_c 25.419011
_cell_angle_alpha 90.000000
_cell_angle_beta 90.000000
_cell_angle_gamma 90.000000
_cell_volume 1714.422987
_symmetry_space_group_name_H-M "P -4 N 2"
_symmetry_group_IT_number 118
_symmetry_cell_setting 'tetragonal'
loop_
_space_group_symop_operation_xyz
x,y,z
y,-x,-z
-x,-y,z
-y,x,-z
1/2+y,1/2+x,1/2-z
1/2-y,1/2-x,1/2-z
1/2-x,1/2+y,1/2+z
1/2+x,1/2-y,1/2+z
loop_
_atom_site_type_symbol
_atom_site_label
_atom_site_fract_x
_atom_site_fract_y
_atom_site_fract_z
Si Si1 0.185051 0.931926 0.416879
Si Si2 0.749329 0.747315 0.025842
Si Si3 0.950804 0.815486 0.254142
Si Si4 0.691373 0.827608 0.836657
Si Si5 0.500000 0.500000 0.500000
Si Si6 0.500000 0.000000 0.925418
O O1 0.194898 0.810312 0.467404
O O2 0.248249 0.841571 0.364285
O O3 0.271255 0.095615 0.436374
O O4 0.000000 0.000000 0.409032
O O5 0.867529 0.601350 0.043075
O O6 0.852698 0.911952 0.029081
O O7 0.769614 0.730387 0.250000
O O8 0.055080 0.797100 0.200082
O O9 0.037296 0.710783 0.299646
O O10 0.000000 0.000000 0.269670
O O11 0.632013 0.924033 0.886839
#
# Coordination Sequence:
#
# PCOD9558822 Si02
#       6
#     8   8   8   8   2   4
#     4  12  21  41  73 102 134 191 253 307 349 441
#     4  12  24  43  66 104 149 189 250 294 369 441
#     4  11  24  47  77 109 145 188 245 319 381 463
#     4  11  22  43  75 106 136 191 249 300 379 447
#     4  12  28  44  60  96 160 208 224 320 372 448
#     4  12  22  41  76 100 148 191 242 298 376 452
#
# _framework density 22.164891000000001
#
# number of rings (size 3 to 8) (size 9 to 14) (size 15 to 20)
#    0.000    0.421    6.316    3.789    0.000    0.000 
#    7.579    2.105   18.526    0.000    0.000    0.000 
#    0.000    0.000    0.000    0.000    0.000    0.000 
#
# Total GULP energy -211805.104918 kJ/mol
# GULP energy per Si atom -5573.818550 kJ/mol
# Density = 2.211444 g / cm^3
# Si number density = 22.164891 Si / 1000 Ang^3
#
#
#
# Elastic Constant Matrix: (Units=GPa)
#
#
# Indices 1 2 3 4 5 6 
#
# 1 92.8806 40.8694 24.5153 0.0000 0.0000 0.0000
# 2 40.8694 92.8798 24.5150 0.0000 0.0000 0.0000
# 3 24.5153 24.5150 107.6060 0.0000 0.0000 0.0000
# 4 0.0000 0.0000 0.0000 88.5548 0.0000 0.0000
# 5 0.0000 0.0000 0.0000 0.0000 88.5669 0.0000
# 6 0.0000 0.0000 0.0000 0.0000 0.0000 49.5400
#
#
#
# Elastic Compliance Matrix: (Units=1/GPa)
#
#
# Indices 1 2 3 4 5 6 
#
# 1 0.013692 -0.005534 -0.001859 0.000000 0.000000 0.000000
# 2 -0.005534 0.013692 -0.001859 0.000000 0.000000 0.000000
# 3 -0.001859 -0.001859 0.010140 0.000000 0.000000 0.000000
# 4 0.000000 0.000000 0.000000 0.011292 0.000000 0.000000
# 5 0.000000 0.000000 0.000000 0.000000 0.011291 0.000000
# 6 0.000000 0.000000 0.000000 0.000000 0.000000 0.020186
#
#
# Mechanical properties :
#
#
# Convention : Reuss Voigt Hill
#
# Bulk Modulus (GPa) = 52.57163 52.57398 52.57281
# Shear Modulus (GPa) = 47.55677 58.89677 53.22677
#
# Velocity S-wave (km/s) = 4.63708 5.16041 4.90572
# Velocity P-wave (km/s) = 7.24154 7.69918 7.47386
#
# Compressibility (1/GPa) = 0.01902167
#
# Stress axis : x y z
#
# Youngs Moduli (GPa) = 73.03365 73.03306 98.61911
#
# Poissons Ratio (x) = 0.40419 0.18329
# Poissons Ratio (y) = 0.40420 0.18329
# Poissons Ratio (z) = 0.13574 0.13574
#
# Static dielectric constant tensor:
#      x y z
#    x 1.911550 0.000000 0.000000 
#    y 0.000000 1.911560 0.000000 
#    z 0.000000 0.000000 1.805400 
# 
# From -- ./inp_files/6075.got.cif
#   From: 2010.05.17/outbox.cif.g08.bks.cpg/sg118_4_cif.got.tgz:6075.got - 2010.05.20 11:17:24.
