data_PCOD9558940
_publ_section_title
;
Structure prediction by ZEFSAII (Michael W. Deem and Ramdas Pophale) SiO2 
 PCOD9558940
Probable space group: P -4 N 2
;
_chemical_formula_sum "Si O2"
_cell_formula_units_Z 38
_cell_length_a 18.000000
_cell_length_b 18.000000
_cell_length_c 6.000000
_cell_angle_alpha 90.000000
_cell_angle_beta 90.000000
_cell_angle_gamma 90.000000
_cell_volume 1944.000000
_symmetry_space_group_name_H-M "P -4 N 2"
_symmetry_group_IT_number 118
_symmetry_cell_setting 'tetragonal'
loop_
_space_group_symop_operation_xyz
x,y,z
y,-x,-z
-x,-y,z
-y,x,-z
1/2+y,1/2+x,1/2-z
1/2-y,1/2-x,1/2-z
1/2-x,1/2+y,1/2+z
1/2+x,1/2-y,1/2+z
loop_
_atom_site_type_symbol
_atom_site_label
_atom_site_fract_x
_atom_site_fract_y
_atom_site_fract_z
Si Si1 0.041514 0.420151 0.995243
Si Si2 0.000000 0.000000 0.000000
Si Si3 0.707896 0.792105 0.750000
Si Si4 0.225124 0.560603 0.541729
Si Si5 0.846580 0.017177 0.748132
Si Si6 0.871159 0.178832 0.555033
O O1 0.080113 0.419888 0.250000
O O2 0.000000 0.500000 0.995673
O O3 0.083191 0.416810 0.750000
O O4 0.983657 0.352437 0.964608
O O5 0.071900 0.984055 0.853211
O O6 0.633103 0.789177 0.606765
O O7 0.778893 0.806866 0.588182
O O8 0.285326 0.504108 0.433882
O O9 0.262724 0.595877 0.763186
O O10 0.839106 0.100504 0.648842
O O11 0.841207 0.946143 0.583382
#
# Coordination Sequence:
#
# PCOD9558940 Si02
#       6
#     8   2   4   8   8   8
#     4  10  23  40  68 101 135 179 239 298 359 433
#     4  12  20  46  68 100 138 192 232 310 376 448
#     4  10  24  40  71  98 138 184 235 292 364 442
#     4  11  24  43  72  99 138 184 242 297 365 442
#     4  11  24  41  70 102 139 181 243 297 364 444
#     4  11  24  43  69 102 140 190 241 301 368 445
#
# _framework density 19.547325000000001
#
# number of rings (size 3 to 8) (size 9 to 14) (size 15 to 20)
#    0.000    1.263    2.105    3.158   11.789    0.000 
#    0.000    4.211    2.316    0.000    0.000    0.000 
#    0.000    0.000    0.000    0.000    0.000    0.000 
#
# Total GULP energy -211704.527334 kJ/mol
# GULP energy per Si atom -5571.171772 kJ/mol
# Density = 1.950283 g / cm^3
# Si number density = 19.547325 Si / 1000 Ang^3
#
#
#
# Elastic Constant Matrix: (Units=GPa)
#
#
# Indices 1 2 3 4 5 6 
#
# 1 126.8592 47.3260 38.4050 0.0000 0.0000 0.0000
# 2 47.3260 126.8591 38.4057 0.0000 0.0000 0.0000
# 3 38.4050 38.4057 114.2935 0.0000 0.0000 0.0000
# 4 0.0000 0.0000 0.0000 22.2534 0.0000 0.0000
# 5 0.0000 0.0000 0.0000 0.0000 22.2529 0.0000
# 6 0.0000 0.0000 0.0000 0.0000 0.0000 45.7614
#
#
#
# Elastic Compliance Matrix: (Units=1/GPa)
#
#
# Indices 1 2 3 4 5 6 
#
# 1 0.009657 -0.002917 -0.002265 0.000000 0.000000 0.000000
# 2 -0.002917 0.009657 -0.002265 0.000000 0.000000 0.000000
# 3 -0.002265 -0.002265 0.010271 0.000000 0.000000 0.000000
# 4 0.000000 0.000000 0.000000 0.044937 0.000000 0.000000
# 5 0.000000 0.000000 0.000000 0.000000 0.044938 0.000000
# 6 0.000000 0.000000 0.000000 0.000000 0.000000 0.021852
#
#
# Mechanical properties :
#
#
# Convention : Reuss Voigt Hill
#
# Bulk Modulus (GPa) = 68.06436 68.47613 68.27024
# Shear Modulus (GPa) = 31.03631 34.31188 32.67410
#
# Velocity S-wave (km/s) = 3.98898 4.19420 4.09288
# Velocity P-wave (km/s) = 7.49079 7.65259 7.57212
#
# Compressibility (1/GPa) = 0.01469198
#
# Stress axis : x y z
#
# Youngs Moduli (GPa) = 103.55716 103.55665 97.35790
#
# Poissons Ratio (x) = 0.30206 0.22048
# Poissons Ratio (y) = 0.30206 0.22049
# Poissons Ratio (z) = 0.23452 0.23453
#
# Static dielectric constant tensor:
#      x y z
#    x 1.672920 0.000000 0.000000 
#    y 0.000000 1.672910 0.000000 
#    z 0.000000 0.000000 1.815540 
# 
# From -- ./inp_files/651.got.cif
#   From: 2010.05.17/outbox.ucp.g08.bks.cvg/sg118_1_cif.got.tgz:651.got - 2010.06.11 11:34:11.
