data_PCOD9558970
_publ_section_title
;
Structure prediction by ZEFSAII (Michael W. Deem and Ramdas Pophale) SiO2 
 PCOD9558970
Probable space group: I -4 M 2
;
_chemical_formula_sum "Si O2"
_cell_formula_units_Z 108
_cell_length_a 14.991026
_cell_length_b 14.991026
_cell_length_c 22.451274
_cell_angle_alpha 90.000000
_cell_angle_beta 90.000000
_cell_angle_gamma 90.000000
_cell_volume 5045.494126
_symmetry_space_group_name_H-M "I -4 M 2"
_symmetry_group_IT_number 119
_symmetry_cell_setting 'tetragonal'
loop_
_space_group_symop_operation_xyz
x,y,z
y,-x,-z
-x,-y,z
-y,x,-z
y,x,-z
-y,-x,-z
-x,y,z
x,-y,z
1/2+x,1/2+y,1/2+z
1/2+y,1/2-x,1/2-z
1/2-x,1/2-y,1/2+z
1/2-y,1/2+x,1/2-z
1/2+y,1/2+x,1/2-z
1/2-y,1/2-x,1/2-z
1/2-x,1/2+y,1/2+z
1/2+x,1/2-y,1/2+z
loop_
_atom_site_type_symbol
_atom_site_label
_atom_site_fract_x
_atom_site_fract_y
_atom_site_fract_z
Si Si1 0.405538 0.632769 0.567301
Si Si2 0.895246 0.895246 0.500000
Si Si3 0.661442 0.136443 0.936973
Si Si4 0.391968 0.396714 0.249295
Si Si5 0.500000 0.000000 0.582964
Si Si6 0.107731 0.191574 0.378862
Si Si7 0.247811 0.899142 0.157212
Si Si8 0.106048 0.609579 0.567922
O O1 0.399091 0.600910 0.500000
O O2 0.500000 0.603922 0.594075
O O3 0.401898 0.739828 0.566552
O O4 0.321333 0.597597 0.602575
O O5 0.860783 0.861433 0.437170
O O6 0.000000 0.878825 0.498942
O O7 0.578648 0.075285 0.920177
O O8 0.656640 0.215804 0.889445
O O9 0.642965 0.155497 0.007507
O O10 0.500000 0.396396 0.251678
O O11 0.363967 0.500000 0.263979
O O12 0.358431 0.377222 0.182708
O O13 0.358491 0.316066 0.291690
O O14 0.000000 0.205147 0.382512
O O15 0.337662 0.862091 0.126308
O O16 0.270939 0.000000 0.176959
O O17 0.117308 0.500000 0.560168
O O18 0.000000 0.624949 0.572782
#
# Coordination Sequence:
#
# PCOD9558970 Si02
#       8
#    16   8  16  16   4  16  16  16
#     4  12  24  36  55  88 131 168 208 262 324 376
#     4   9  18  32  50  82 126 158 193 258 330 378
#     4  12  21  36  58  90 124 169 207 260 318 387
#     4   9  18  36  60  88 127 174 217 258 318 390
#     4  12  20  40  64  84 129 168 217 244 332 390
#     4  10  20  33  57  88 118 160 212 262 318 382
#     4  10  21  36  59  90 130 173 217 254 310 389
#     4  10  17  32  56  88 130 170 210 259 313 373
#
# _framework density 21.405239000000002
#
# number of rings (size 3 to 8) (size 9 to 14) (size 15 to 20)
#    0.000    1.556    4.444    1.333    1.037    3.407 
#    0.000    0.741    0.000    0.889    0.000    4.148 
#    2.222    0.296    0.000    0.000    0.000    0.000 
#
# Total GULP energy -300767.409864 kJ/mol
# GULP energy per Si atom -5569.766849 kJ/mol
# Density = 2.135652 g / cm^3
# Si number density = 21.405239 Si / 1000 Ang^3
#
#
#
# Elastic Constant Matrix: (Units=GPa)
#
#
# Indices 1 2 3 4 5 6 
#
# 1 82.1452 4.9435 14.2087 0.0000 0.0000 0.0000
# 2 4.9435 82.1446 14.2085 0.0000 0.0000 0.0000
# 3 14.2087 14.2085 100.8061 0.0000 0.0000 0.0000
# 4 0.0000 0.0000 0.0000 -142.0008 -0.0001 0.0000
# 5 0.0000 0.0000 0.0000 -0.0001 -142.2792 0.0000
# 6 0.0000 0.0000 0.0000 0.0000 0.0000 10.6957
#
#
#
# Elastic Compliance Matrix: (Units=1/GPa)
#
#
# Indices 1 2 3 4 5 6 
#
# 1 0.012495 -0.000458 -0.001697 0.000000 0.000000 0.000000
# 2 -0.000458 0.012495 -0.001696 0.000000 0.000000 0.000000
# 3 -0.001697 -0.001696 0.010398 0.000000 0.000000 0.000000
# 4 0.000000 0.000000 0.000000 -0.007042 0.000000 0.000000
# 5 0.000000 0.000000 0.000000 0.000000 -0.007028 0.000000
# 6 0.000000 0.000000 0.000000 0.000000 0.000000 0.093496
#
#
# Mechanical properties :
#
#
# Convention : Reuss Voigt Hill
#
# Bulk Modulus (GPa) = 36.12116 36.86860 36.49488
# Shear Modulus (GPa) = 37.95245 -39.26787 -0.65771
#
# Velocity S-wave (km/s) = 4.21532 -4.28775 -0.55492
# Velocity P-wave (km/s) = 6.37209 2.69288 4.08362
#
# Compressibility (1/GPa) = 0.02768461
#
# Stress axis : x y z
#
# Youngs Moduli (GPa) = 80.03453 80.03398 96.16979
#
# Poissons Ratio (x) = 0.03669 0.16315
# Poissons Ratio (y) = 0.03670 0.16315
# Poissons Ratio (z) = 0.13578 0.13578
#
# Static dielectric constant tensor:
#      x y z
#    x 2.071250 0.000000 0.000000 
#    y 0.000000 2.070790 0.000000 
#    z 0.000000 0.000000 1.772000 
# 
# From -- ./inp_files/8898.got.cif
#   From: 2010.05.17/outbox.cif.g08.bks.cpg/sg119_5_cif.got.tgz:8898.got - 2010.05.20 11:21:29.
