data_PCOD9558194
_publ_section_title
;
Structure prediction by ZEFSAII (Michael W. Deem and Ramdas Pophale) SiO2 
 PCOD9558194
Probable space group: P -4 B 2
;
_chemical_formula_sum "Si O2"
_cell_formula_units_Z 56
_cell_length_a 15.108073
_cell_length_b 15.108073
_cell_length_c 11.833227
_cell_angle_alpha 90.000000
_cell_angle_beta 90.000000
_cell_angle_gamma 90.000000
_cell_volume 2700.979855
_symmetry_space_group_name_H-M "P -4 B 2"
_symmetry_group_IT_number 117
_symmetry_cell_setting 'tetragonal'
loop_
_space_group_symop_operation_xyz
x,y,z
y,-x,-z
-x,-y,z
-y,x,-z
1/2+y,1/2+x,-z
1/2-y,1/2-x,-z
1/2-x,1/2+y,z
1/2+x,1/2-y,z
loop_
_atom_site_type_symbol
_atom_site_label
_atom_site_fract_x
_atom_site_fract_y
_atom_site_fract_z
Si Si1 0.928557 0.881571 0.976465
Si Si2 0.486552 0.361424 0.488973
Si Si3 0.612443 0.797667 0.391860
Si Si4 0.894365 0.711201 0.593079
Si Si5 0.792784 0.802071 0.798963
Si Si6 0.036803 0.410911 0.291144
Si Si7 0.294766 0.882819 0.904015
O O1 0.859181 0.863637 0.873356
O O2 0.928575 0.791565 0.047508
O O3 0.032299 0.899358 0.950863
O O4 0.422663 0.431407 0.553315
O O5 0.424878 0.302882 0.407866
O O6 0.534979 0.282705 0.553945
O O7 0.671434 0.828567 0.500000
O O8 0.656985 0.790366 0.267826
O O9 0.531538 0.864642 0.376014
O O10 0.822957 0.677044 0.500000
O O11 0.846472 0.755825 0.698075
O O12 0.939104 0.622626 0.638238
O O13 0.766418 0.717471 0.873227
O O14 0.067105 0.337564 0.201210
O O15 0.000000 0.500000 0.236823
O O16 0.369071 0.869071 0.000000
#
# Coordination Sequence:
#
# PCOD9558194 Si02
#       7
#     8   8   8   8   8   8   8
#     4  10  21  44  69  97 130 169 216 285 348 406
#     4  11  24  41  59  92 135 174 219 279 330 387
#     4  12  24  41  65  96 137 178 227 273 331 415
#     4  11  21  41  63  88 133 179 216 271 327 400
#     4  10  22  41  64  96 125 170 228 261 339 413
#     4  11  24  40  63  96 126 178 226 273 334 400
#     4   9  21  44  67  89 131 168 216 290 336 401
#
# _framework density 20.733217
#
# number of rings (size 3 to 8) (size 9 to 14) (size 15 to 20)
#    0.000    1.429    2.857    2.143    0.000    0.286 
#   18.000    0.000    0.000    0.000    0.000    0.000 
#    0.000    0.000    0.000    0.000    0.000    0.000 
#
# Total GULP energy -311955.336416 kJ/mol
# GULP energy per Si atom -5570.631007 kJ/mol
# Density = 2.068603 g / cm^3
# Si number density = 20.733217 Si / 1000 Ang^3
#
#
#
# Elastic Constant Matrix: (Units=GPa)
#
#
# Indices 1 2 3 4 5 6 
#
# 1 91.3384 55.3762 27.3201 0.0000 0.0000 0.0000
# 2 55.3762 91.3387 27.3208 0.0000 0.0000 0.0000
# 3 27.3201 27.3208 77.0607 0.0000 0.0000 0.0000
# 4 0.0000 0.0000 0.0000 21.7455 0.0000 0.0000
# 5 0.0000 0.0000 0.0000 0.0000 21.7456 0.0000
# 6 0.0000 0.0000 0.0000 0.0000 0.0000 40.3040
#
#
#
# Elastic Compliance Matrix: (Units=1/GPa)
#
#
# Indices 1 2 3 4 5 6 
#
# 1 0.017830 -0.009977 -0.002784 0.000000 0.000000 0.000000
# 2 -0.009977 0.017830 -0.002784 0.000000 0.000000 0.000000
# 3 -0.002784 -0.002784 0.014951 0.000000 0.000000 0.000000
# 4 0.000000 0.000000 0.000000 0.045987 0.000000 0.000000
# 5 0.000000 0.000000 0.000000 0.000000 0.045986 0.000000
# 6 0.000000 0.000000 0.000000 0.000000 0.000000 0.024811
#
#
# Mechanical properties :
#
#
# Convention : Reuss Voigt Hill
#
# Bulk Modulus (GPa) = 51.22897 53.30802 52.26850
# Shear Modulus (GPa) = 24.39119 26.74039 25.56579
#
# Velocity S-wave (km/s) = 3.43363 3.59519 3.51534
# Velocity P-wave (km/s) = 6.36255 6.55752 6.46077
#
# Compressibility (1/GPa) = 0.01952020
#
# Stress axis : x y z
#
# Youngs Moduli (GPa) = 56.08580 56.08566 66.88578
#
# Poissons Ratio (x) = 0.55957 0.18621
# Poissons Ratio (y) = 0.55957 0.18622
# Poissons Ratio (z) = 0.15614 0.15615
#
# Static dielectric constant tensor:
#      x y z
#    x 1.803040 0.000000 0.000000 
#    y 0.000000 1.803040 0.000000 
#    z 0.000000 0.000000 1.776180 
# 
# From -- ./inp_files/2848.got.cif
#   From: 2010.05.17/outbox.cif.g08.bks.cpg/sg117_2_cif.got.tgz:2848.got - 2010.05.20 11:15:09.
