data_PCOD9558642
_publ_section_title
;
Structure prediction by ZEFSAII (Michael W. Deem and Ramdas Pophale) SiO2 
 PCOD9558642
Probable space group: P -4 N 2
;
_chemical_formula_sum "Si O2"
_cell_formula_units_Z 36
_cell_length_a 8.295905
_cell_length_b 8.295905
_cell_length_c 27.294504
_cell_angle_alpha 90.000000
_cell_angle_beta 90.000000
_cell_angle_gamma 90.000000
_cell_volume 1878.463440
_symmetry_space_group_name_H-M "P -4 N 2"
_symmetry_group_IT_number 118
_symmetry_cell_setting 'tetragonal'
loop_
_space_group_symop_operation_xyz
x,y,z
y,-x,-z
-x,-y,z
-y,x,-z
1/2+y,1/2+x,1/2-z
1/2-y,1/2-x,1/2-z
1/2-x,1/2+y,1/2+z
1/2+x,1/2-y,1/2+z
loop_
_atom_site_type_symbol
_atom_site_label
_atom_site_fract_x
_atom_site_fract_y
_atom_site_fract_z
Si Si1 0.500000 0.500000 0.652634
Si Si2 0.686593 0.669886 0.422766
Si Si3 0.688334 0.473022 0.106187
Si Si4 0.842758 0.388100 0.477998
Si Si5 0.387799 0.161475 0.694318
O O1 0.649161 0.451717 0.617279
O O2 0.467225 0.334224 0.681508
O O3 0.853824 0.722139 0.397397
O O4 0.714605 0.496429 0.448549
O O5 0.652118 0.787056 0.467799
O O6 0.500000 0.500000 0.109978
O O7 0.735471 0.382855 0.055735
O O8 0.756728 0.375067 0.152327
O O9 0.000000 0.500000 0.480380
O O10 0.327417 0.172584 0.750000
O O11 0.500000 0.000000 0.692314
#
# Coordination Sequence:
#
# PCOD9558642 Si02
#       5
#     4   8   8   8   8
#     4  12  22  43  74  96 130 174 229 284 338 410
#     4  11  22  38  64  92 133 177 218 268 327 409
#     4  11  24  41  63  97 140 172 226 283 341 403
#     4  10  22  37  58  93 132 178 219 259 332 405
#     4  11  24  47  72  97 130 178 229 283 356 415
#
# _framework density 19.164598000000002
#
# number of rings (size 3 to 8) (size 9 to 14) (size 15 to 20)
#    0.000    1.111    4.444    2.000    7.778    0.000 
#    0.000    0.000    0.000    1.333    0.000    0.000 
#    0.000    0.000    0.000    0.000    0.000    0.000 
#
# Total GULP energy -201003.250932 kJ/mol
# GULP energy per Si atom -5583.423637 kJ/mol
# Density = 1.912098 g / cm^3
# Si number density = 19.164598 Si / 1000 Ang^3
#
#
#
# Elastic Constant Matrix: (Units=GPa)
#
#
# Indices 1 2 3 4 5 6 
#
# 1 95.4298 27.2083 59.6499 0.0000 0.0000 0.0000
# 2 27.2083 95.4296 59.6498 0.0000 0.0000 0.0000
# 3 59.6499 59.6498 151.8980 0.0000 0.0000 0.0000
# 4 0.0000 0.0000 0.0000 24.4688 0.0000 0.0000
# 5 0.0000 0.0000 0.0000 0.0000 24.4685 0.0000
# 6 0.0000 0.0000 0.0000 0.0000 0.0000 14.7077
#
#
#
# Elastic Compliance Matrix: (Units=1/GPa)
#
#
# Indices 1 2 3 4 5 6 
#
# 1 0.013926 -0.000732 -0.005181 0.000000 0.000000 0.000000
# 2 -0.000732 0.013926 -0.005181 0.000000 0.000000 0.000000
# 3 -0.005181 -0.005181 0.010653 0.000000 0.000000 0.000000
# 4 0.000000 0.000000 0.000000 0.040868 0.000000 0.000000
# 5 0.000000 0.000000 0.000000 0.000000 0.040869 0.000000
# 6 0.000000 0.000000 0.000000 0.000000 0.000000 0.067992
#
#
# Mechanical properties :
#
#
# Convention : Reuss Voigt Hill
#
# Bulk Modulus (GPa) = 61.28933 70.64149 65.96541
# Shear Modulus (GPa) = 23.16290 25.81228 24.48759
#
# Velocity S-wave (km/s) = 3.48031 3.67396 3.57844
# Velocity P-wave (km/s) = 6.94262 7.41200 7.18115
#
# Compressibility (1/GPa) = 0.01631605
#
# Stress axis : x y z
#
# Youngs Moduli (GPa) = 71.80658 71.80644 93.87179
#
# Poissons Ratio (x) = 0.05255 0.48639
# Poissons Ratio (y) = 0.05255 0.48639
# Poissons Ratio (z) = 0.37206 0.37206
#
# Static dielectric constant tensor:
#      x y z
#    x 1.687240 0.000000 0.000000 
#    y 0.000000 1.687240 0.000000 
#    z 0.000000 0.000000 1.672740 
# 
# From -- ./inp_files/6024.got.cif
#   From: 2010.05.17/outbox.cif.g08.bks.cpg/sg118_4_cif.got.tgz:6024.got - 2010.05.20 11:17:24.
