data_PCOD9558013
_publ_section_title
;
Structure prediction by ZEFSAII (Michael W. Deem and Ramdas Pophale) SiO2 
 PCOD9558013
Probable space group: P -4 C 2
;
_chemical_formula_sum "Si O2"
_cell_formula_units_Z 24
_cell_length_a 11.211542
_cell_length_b 11.211542
_cell_length_c 7.583069
_cell_angle_alpha 90.000000
_cell_angle_beta 90.000000
_cell_angle_gamma 90.000000
_cell_volume 953.181718
_symmetry_space_group_name_H-M "P -4 C 2"
_symmetry_group_IT_number 116
_symmetry_cell_setting 'tetragonal'
loop_
_space_group_symop_operation_xyz
x,y,z
y,-x,-z
-x,-y,z
-y,x,-z
y,x,1/2-z
-y,-x,1/2-z
-x,y,1/2+z
x,-y,1/2+z
loop_
_atom_site_type_symbol
_atom_site_label
_atom_site_fract_x
_atom_site_fract_y
_atom_site_fract_z
Si Si1 0.817407 0.362328 0.208154
Si Si2 0.932652 0.191421 0.500000
Si Si3 0.182595 0.362328 0.291845
O O1 0.683294 0.316707 0.250000
O O2 0.724593 0.106987 0.163333
O O3 0.837791 0.500000 0.249999
O O4 0.838926 0.351590 0.999999
O O5 0.893011 0.275406 0.663332
O O6 0.066738 0.140587 0.500002
O O7 0.316708 0.316708 0.250000
#
# Coordination Sequence:
#
# PCOD9558013 Si02
#       3
#     8   8   8
#     4  12  25  52  87 127 170 230 294 361 439 522
#     4  11  28  54  86 129 182 231 287 361 442 528
#     4  12  25  52  87 127 170 230 294 361 439 522
#
# _framework density 25.178829
#
# number of rings (size 3 to 8) (size 9 to 14) (size 15 to 20)
#    0.000    0.333    6.667    0.000    0.000    6.000 
#    0.000   20.000    0.000    0.000    0.000    0.000 
#    0.000    0.000    0.000    0.000    0.000    0.000 
#
# Total GULP energy -134349.373949 kJ/mol
# GULP energy per Si atom -5597.890581 kJ/mol
# Density = 2.512152 g / cm^3
# Si number density = 25.178829 Si / 1000 Ang^3
#
#
#
# Elastic Constant Matrix: (Units=GPa)
#
#
# Indices 1 2 3 4 5 6 
#
# 1 243.7522 129.7435 127.8833 0.0000 0.0000 0.0000
# 2 129.7435 243.7494 127.8839 0.0000 0.0000 0.0000
# 3 127.8833 127.8839 318.0702 0.0000 0.0000 0.0000
# 4 0.0000 0.0000 0.0000 50.9062 0.0000 0.0000
# 5 0.0000 0.0000 0.0000 0.0000 50.9067 0.0000
# 6 0.0000 0.0000 0.0000 0.0000 0.0000 22.9615
#
#
#
# Elastic Compliance Matrix: (Units=1/GPa)
#
#
# Indices 1 2 3 4 5 6 
#
# 1 0.006233 -0.002538 -0.001485 0.000000 0.000000 0.000000
# 2 -0.002538 0.006233 -0.001486 0.000000 0.000000 0.000000
# 3 -0.001485 -0.001486 0.004338 0.000000 0.000000 0.000000
# 4 0.000000 0.000000 0.000000 0.019644 0.000000 0.000000
# 5 0.000000 0.000000 0.000000 0.000000 0.019644 0.000000
# 6 0.000000 0.000000 0.000000 0.000000 0.000000 0.043551
#
#
# Mechanical properties :
#
#
# Convention : Reuss Voigt Hill
#
# Bulk Modulus (GPa) = 172.83462 175.17702 174.00582
# Shear Modulus (GPa) = 44.40863 52.95895 48.68379
#
# Velocity S-wave (km/s) = 4.20423 4.59116 4.40195
# Velocity P-wave (km/s) = 9.61037 9.89087 9.75163
#
# Compressibility (1/GPa) = 0.00578588
#
# Stress axis : x y z
#
# Youngs Moduli (GPa) = 160.43729 160.43463 230.49604
#
# Poissons Ratio (x) = 0.40724 0.34239
# Poissons Ratio (y) = 0.40725 0.34240
# Poissons Ratio (z) = 0.23832 0.23833
#
# Static dielectric constant tensor:
#      x y z
#    x 2.058320 0.000000 0.000000 
#    y 0.000000 2.058320 0.000000 
#    z 0.000000 0.000000 2.035000 
# 
# From -- ./inp_files/476.got.cif
#   From: 2010.05.17/outbox.cif.g08.bks.cpg/sg116_1_cif.got.tgz:476.got - 2010.05.20 11:11:43.
