data_PCOD9558307
_publ_section_title
;
Structure prediction by ZEFSAII (Michael W. Deem and Ramdas Pophale) SiO2 
 PCOD9558307
Probable space group: P -4 B 2
;
_chemical_formula_sum "Si O2"
_cell_formula_units_Z 34
_cell_length_a 8.725950
_cell_length_b 8.725950
_cell_length_c 17.709356
_cell_angle_alpha 90.000000
_cell_angle_beta 90.000000
_cell_angle_gamma 90.000000
_cell_volume 1348.429387
_symmetry_space_group_name_H-M "P -4 B 2"
_symmetry_group_IT_number 117
_symmetry_cell_setting 'tetragonal'
loop_
_space_group_symop_operation_xyz
x,y,z
y,-x,-z
-x,-y,z
-y,x,-z
1/2+y,1/2+x,-z
1/2-y,1/2-x,-z
1/2-x,1/2+y,z
1/2+x,1/2-y,z
loop_
_atom_site_type_symbol
_atom_site_label
_atom_site_fract_x
_atom_site_fract_y
_atom_site_fract_z
Si Si1 0.185156 0.034138 0.096113
Si Si2 0.729603 0.456409 0.530759
Si Si3 0.319024 0.459610 0.699515
Si Si4 0.500000 0.000000 0.000000
Si Si5 0.286261 0.275956 0.200787
O O1 0.217394 0.952159 0.176636
O O2 0.329108 0.000154 0.040294
O O3 0.222154 0.204727 0.123556
O O4 0.000000 0.000000 0.079344
O O5 0.594992 0.330278 0.520867
O O6 0.881026 0.381026 0.500000
O O7 0.742730 0.503093 0.617360
O O8 0.500000 0.500000 0.697112
O O9 0.247822 0.538723 0.775094
O O10 0.272864 0.289044 0.720844
#
# Coordination Sequence:
#
# PCOD9558307 Si02
#       5
#     8   8   8   2   8
#     4  12  28  58  80 121 169 202 273 343 392 502
#     4  11  24  44  66 101 153 197 255 324 396 476
#     4  12  23  43  75 108 147 203 260 330 399 475
#     4  12  32  56  92 124 160 244 262 316 464 504
#     4  12  23  50  77 108 153 199 258 335 395 462
#
# _framework density 25.214518999999999
#
# number of rings (size 3 to 8) (size 9 to 14) (size 15 to 20)
#    0.000    0.235    7.059    2.824    0.000    1.412 
#    4.235    2.353    0.000    0.000    0.000    0.000 
#    0.000    0.000    0.000    0.000    0.000    0.000 
#
# Total GULP energy -189363.939286 kJ/mol
# GULP energy per Si atom -5569.527626 kJ/mol
# Density = 2.515713 g / cm^3
# Si number density = 25.214519 Si / 1000 Ang^3
#
#
#
# Elastic Constant Matrix: (Units=GPa)
#
#
# Indices 1 2 3 4 5 6 
#
# 1 67.7835 40.3634 44.8801 0.0000 0.0000 0.0000
# 2 40.3634 67.7835 44.8801 0.0000 0.0000 0.0000
# 3 44.8801 44.8801 145.2182 0.0000 0.0000 0.0000
# 4 0.0000 0.0000 0.0000 -4.5638 0.0000 0.0000
# 5 0.0000 0.0000 0.0000 0.0000 -4.5638 0.0000
# 6 0.0000 0.0000 0.0000 0.0000 0.0000 45.3281
#
#
#
# Elastic Compliance Matrix: (Units=1/GPa)
#
#
# Indices 1 2 3 4 5 6 
#
# 1 0.024453 -0.012016 -0.003844 0.000000 0.000000 0.000000
# 2 -0.012016 0.024453 -0.003844 0.000000 0.000000 0.000000
# 3 -0.003844 -0.003844 0.009262 0.000000 0.000000 0.000000
# 4 0.000000 0.000000 0.000000 -0.219117 0.000000 0.000000
# 5 0.000000 0.000000 0.000000 0.000000 -0.219117 0.000000
# 6 0.000000 0.000000 0.000000 0.000000 0.000000 0.022061
#
#
# Mechanical properties :
#
#
# Convention : Reuss Voigt Hill
#
# Bulk Modulus (GPa) = 53.30181 60.11471 56.70826
# Shear Modulus (GPa) = -16.00809 17.28420 0.63806
#
# Velocity S-wave (km/s) = -2.52241 2.62102 0.50359
# Velocity P-wave (km/s) = 3.56396 5.74915 4.78302
#
# Compressibility (1/GPa) = 0.01876109
#
# Stress axis : x y z
#
# Youngs Moduli (GPa) = 40.89433 40.89433 107.96843
#
# Poissons Ratio (x) = 0.49140 0.41499
# Poissons Ratio (y) = 0.49140 0.41499
# Poissons Ratio (z) = 0.15718 0.15718
#
# Static dielectric constant tensor:
#      x y z
#    x 2.116300 0.000000 0.000000 
#    y 0.000000 2.116300 0.000000 
#    z 0.000000 0.000000 1.876210 
# 
# From -- ./inp_files/3437.got.cif
#   From: 2010.05.17/outbox.cif.g08.bks.cpg/sg117_2_cif.got.tgz:3437.got - 2010.05.20 11:15:09.
