data_PCOD9558116
_publ_section_title
;
Structure prediction by ZEFSAII (Michael W. Deem and Ramdas Pophale) SiO2 
 PCOD9558116
Probable space group: P -4 B 2
;
_chemical_formula_sum "Si O2"
_cell_formula_units_Z 60
_cell_length_a 14.385771
_cell_length_b 14.385771
_cell_length_c 14.699837
_cell_angle_alpha 90.000000
_cell_angle_beta 90.000000
_cell_angle_gamma 90.000000
_cell_volume 3042.137254
_symmetry_space_group_name_H-M "P -4 B 2"
_symmetry_group_IT_number 117
_symmetry_cell_setting 'tetragonal'
loop_
_space_group_symop_operation_xyz
x,y,z
y,-x,-z
-x,-y,z
-y,x,-z
1/2+y,1/2+x,-z
1/2-y,1/2-x,-z
1/2-x,1/2+y,z
1/2+x,1/2-y,z
loop_
_atom_site_type_symbol
_atom_site_label
_atom_site_fract_x
_atom_site_fract_y
_atom_site_fract_z
Si Si1 0.734798 0.270489 0.662727
Si Si2 0.355912 0.520690 0.213296
Si Si3 0.500000 0.000000 0.380584
Si Si4 0.526396 0.206620 0.645624
Si Si5 0.138038 0.071199 0.014138
Si Si6 0.594637 0.692663 0.175329
Si Si7 0.813484 0.066253 0.697104
Si Si8 0.792492 0.447582 0.551953
O O1 0.630806 0.243872 0.630269
O O2 0.732316 0.326645 0.758164
O O3 0.780514 0.171235 0.681637
O O4 0.778427 0.343503 0.590966
O O5 0.262047 0.509427 0.268558
O O6 0.396442 0.419579 0.188766
O O7 0.422702 0.578521 0.279440
O O8 0.336411 0.575146 0.119737
O O9 0.402470 0.980224 0.332632
O O10 0.516991 0.898439 0.428495
O O11 0.468425 0.224555 0.553722
O O12 0.204605 0.105270 0.932819
O O13 0.037821 0.120474 0.007091
O O14 0.495669 0.724166 0.217763
O O15 0.780442 0.008241 0.610195
#
# Coordination Sequence:
#
# PCOD9558116 Si02
#       8
#     8   8   4   8   8   8   8   8
#     4  10  23  39  58  94 121 160 209 261 311 364
#     4  10  20  34  61  92 120 155 197 255 317 376
#     4  12  23  44  62  86 115 180 225 250 300 382
#     4  11  23  40  61  89 125 159 217 255 303 380
#     4   9  15  30  59  88 116 155 191 240 310 380
#     4   9  19  36  59  89 124 154 199 248 311 381
#     4  11  20  36  59  87 123 156 197 256 309 357
#     4  11  24  39  64  87 122 168 212 259 307 370
#
# _framework density 19.722975999999999
#
# number of rings (size 3 to 8) (size 9 to 14) (size 15 to 20)
#    0.000    1.733    2.667    2.400    1.867    0.000 
#    0.000    0.667    0.000    0.000    0.000    3.733 
#    0.000    0.000    0.000    0.000    0.000    0.000 
#
# Total GULP energy -334401.021985 kJ/mol
# GULP energy per Si atom -5573.350366 kJ/mol
# Density = 1.967809 g / cm^3
# Si number density = 19.722976 Si / 1000 Ang^3
#
#
#
# Elastic Constant Matrix: (Units=GPa)
#
#
# Indices 1 2 3 4 5 6 
#
# 1 94.0165 30.3371 55.9161 0.0000 0.0000 0.0000
# 2 30.3371 94.0165 55.9161 0.0000 0.0000 0.0000
# 3 55.9161 55.9161 123.1876 0.0000 0.0000 0.0000
# 4 0.0000 0.0000 0.0000 16.3218 0.0000 0.0000
# 5 0.0000 0.0000 0.0000 0.0000 16.3218 0.0000
# 6 0.0000 0.0000 0.0000 0.0000 0.0000 21.6306
#
#
#
# Elastic Compliance Matrix: (Units=1/GPa)
#
#
# Indices 1 2 3 4 5 6 
#
# 1 0.014646 -0.001058 -0.006168 0.000000 0.000000 0.000000
# 2 -0.001058 0.014646 -0.006168 0.000000 0.000000 0.000000
# 3 -0.006168 -0.006168 0.013717 0.000000 0.000000 0.000000
# 4 0.000000 0.000000 0.000000 0.061268 0.000000 0.000000
# 5 0.000000 0.000000 0.000000 0.000000 0.061268 0.000000
# 6 0.000000 0.000000 0.000000 0.000000 0.000000 0.046231
#
#
# Mechanical properties :
#
#
# Convention : Reuss Voigt Hill
#
# Bulk Modulus (GPa) = 61.64371 66.17321 63.90846
# Shear Modulus (GPa) = 20.49435 22.12494 21.30965
#
# Velocity S-wave (km/s) = 3.22702 3.35294 3.29058
# Velocity P-wave (km/s) = 6.72365 6.97236 6.84913
#
# Compressibility (1/GPa) = 0.01622226
#
# Stress axis : x y z
#
# Youngs Moduli (GPa) = 68.27773 68.27773 72.90188
#
# Poissons Ratio (x) = 0.07221 0.44965
# Poissons Ratio (y) = 0.07221 0.44965
# Poissons Ratio (z) = 0.42113 0.42113
#
# Static dielectric constant tensor:
#      x y z
#    x 1.732240 0.000000 0.000000 
#    y 0.000000 1.732240 0.000000 
#    z 0.000000 0.000000 1.714150 
# 
# From -- ./inp_files/3281.got.cif
#   From: 2010.05.17/outbox.cif.g08.bks.cpg/sg117_2_cif.got.tgz:3281.got - 2010.05.20 11:15:09.
