data_PCOD9558322
_publ_section_title
;
Structure prediction by ZEFSAII (Michael W. Deem and Ramdas Pophale) SiO2 
 PCOD9558322
Probable space group: P -4 B 2
;
_chemical_formula_sum "Si O2"
_cell_formula_units_Z 24
_cell_length_a 13.876276
_cell_length_b 13.876276
_cell_length_c 5.063232
_cell_angle_alpha 90.000000
_cell_angle_beta 90.000000
_cell_angle_gamma 90.000000
_cell_volume 974.930565
_symmetry_space_group_name_H-M "P -4 B 2"
_symmetry_group_IT_number 117
_symmetry_cell_setting 'tetragonal'
loop_
_space_group_symop_operation_xyz
x,y,z
y,-x,-z
-x,-y,z
-y,x,-z
1/2+y,1/2+x,-z
1/2-y,1/2-x,-z
1/2-x,1/2+y,z
1/2+x,1/2-y,z
loop_
_atom_site_type_symbol
_atom_site_label
_atom_site_fract_x
_atom_site_fract_y
_atom_site_fract_z
Si Si1 0.182463 0.527300 0.947885
Si Si2 0.582520 0.617489 0.098633
Si Si3 0.259965 0.907415 0.435315
O O1 0.274038 0.598412 0.996634
O O2 0.055420 0.308450 0.834712
O O3 0.203408 0.481715 0.660067
O O4 0.085907 0.585907 0.000000
O O5 0.647654 0.597922 0.353320
O O6 0.609088 0.533326 0.892200
O O7 0.303348 0.803348 0.500000
#
# Coordination Sequence:
#
# PCOD9558322 Si02
#       3
#     8   8   8
#     4  11  25  44  71 106 144 190 240 300 366 436
#     4   9  22  44  71 102 139 183 238 296 357 426
#     4  11  25  44  71 104 142 190 241 298 365 435
#
# _framework density 24.617135000000001
#
# number of rings (size 3 to 8) (size 9 to 14) (size 15 to 20)
#    0.000    1.667    0.000    2.000    0.000   25.333 
#    0.000    3.333    0.000    0.000    0.000    0.000 
#    0.000    0.000    0.000    0.000    0.000    0.000 
#
# Total GULP energy -134032.182659 kJ/mol
# GULP energy per Si atom -5584.674277 kJ/mol
# Density = 2.456111 g / cm^3
# Si number density = 24.617135 Si / 1000 Ang^3
#
#
#
# Elastic Constant Matrix: (Units=GPa)
#
#
# Indices 1 2 3 4 5 6 
#
# 1 87.8297 67.3245 59.0739 0.0000 0.0000 0.0000
# 2 67.3245 87.8297 59.0739 0.0000 0.0000 0.0000
# 3 59.0739 59.0739 169.9528 0.0000 0.0000 0.0000
# 4 0.0000 0.0000 0.0000 40.3430 0.0000 0.0000
# 5 0.0000 0.0000 0.0000 0.0000 40.3430 0.0000
# 6 0.0000 0.0000 0.0000 0.0000 0.0000 28.5529
#
#
#
# Elastic Compliance Matrix: (Units=1/GPa)
#
#
# Indices 1 2 3 4 5 6 
#
# 1 0.028767 -0.020001 -0.003047 0.000000 0.000000 0.000000
# 2 -0.020001 0.028767 -0.003047 0.000000 0.000000 0.000000
# 3 -0.003047 -0.003047 0.008002 0.000000 0.000000 0.000000
# 4 0.000000 0.000000 0.000000 0.024787 0.000000 0.000000
# 5 0.000000 0.000000 0.000000 0.000000 0.024787 0.000000
# 6 0.000000 0.000000 0.000000 0.000000 0.000000 0.035023
#
#
# Mechanical properties :
#
#
# Convention : Reuss Voigt Hill
#
# Bulk Modulus (GPa) = 74.93091 79.61743 77.27417
# Shear Modulus (GPa) = 24.18130 32.52376 28.35253
#
# Velocity S-wave (km/s) = 3.13756 3.63875 3.39741
# Velocity P-wave (km/s) = 6.60532 7.07577 6.84459
#
# Compressibility (1/GPa) = 0.01334563
#
# Stress axis : x y z
#
# Youngs Moduli (GPa) = 34.76242 34.76242 124.96880
#
# Poissons Ratio (x) = 0.69530 0.38074
# Poissons Ratio (y) = 0.69530 0.38074
# Poissons Ratio (z) = 0.10591 0.10591
#
# Static dielectric constant tensor:
#      x y z
#    x 2.015060 0.000000 0.000000 
#    y 0.000000 2.015060 0.000000 
#    z 0.000000 0.000000 1.951990 
# 
# From -- ./inp_files/1213.got.cif
#   From: 2010.05.17/outbox.cif.g08.bks.cpg/sg117_1_cif.got.tgz:1213.got - 2010.05.20 11:15:09.
