data_PCOD9558101
_publ_section_title
;
Structure prediction by ZEFSAII (Michael W. Deem and Ramdas Pophale) SiO2 
 PCOD9558101
Probable space group: P -4 B 2
;
_chemical_formula_sum "Si O2"
_cell_formula_units_Z 36
_cell_length_a 13.410944
_cell_length_b 13.410944
_cell_length_c 8.810055
_cell_angle_alpha 90.000000
_cell_angle_beta 90.000000
_cell_angle_gamma 90.000000
_cell_volume 1584.518513
_symmetry_space_group_name_H-M "P -4 B 2"
_symmetry_group_IT_number 117
_symmetry_cell_setting 'tetragonal'
loop_
_space_group_symop_operation_xyz
x,y,z
y,-x,-z
-x,-y,z
-y,x,-z
1/2+y,1/2+x,-z
1/2-y,1/2-x,-z
1/2-x,1/2+y,z
1/2+x,1/2-y,z
loop_
_atom_site_type_symbol
_atom_site_label
_atom_site_fract_x
_atom_site_fract_y
_atom_site_fract_z
Si Si1 0.310740 0.993982 0.751668
Si Si2 0.855221 0.644780 0.500000
Si Si3 0.139601 0.639601 0.000000
Si Si4 0.163006 0.133630 0.203498
Si Si5 0.832926 0.874961 0.562080
Si Si6 0.000000 0.000000 0.260640
O O1 0.374192 0.933913 0.630848
O O2 0.229838 0.909363 0.799210
O O3 0.259690 0.086478 0.660456
O O4 0.359967 0.043184 0.894987
O O5 0.860626 0.757713 0.569190
O O6 0.140379 0.740384 0.899085
O O7 0.186072 0.112790 0.382216
O O8 0.088779 0.044517 0.161585
O O9 0.917510 0.946857 0.632572
#
# Coordination Sequence:
#
# PCOD9558101 Si02
#       6
#     8   4   4   8   8   4
#     4  10  22  40  67  96 131 184 224 273 344 406
#     4  10  20  38  70 102 134 178 234 286 332 400
#     4  12  26  42  64 100 146 182 220 274 350 424
#     4  10  21  39  68 101 133 168 219 289 346 399
#     4  10  19  39  73 103 125 164 227 294 340 388
#     4  10  19  38  75 110 123 156 239 302 331 386
#
# _framework density 22.719835
#
# number of rings (size 3 to 8) (size 9 to 14) (size 15 to 20)
#    0.000    1.778    0.000    7.333    0.000    3.556 
#    0.000    5.556    0.000   41.333    0.000    0.000 
#    0.000    0.000    0.000    0.000    0.000    0.000 
#
# Total GULP energy -201162.076944 kJ/mol
# GULP energy per Si atom -5587.835471 kJ/mol
# Density = 2.266812 g / cm^3
# Si number density = 22.719835 Si / 1000 Ang^3
#
#
#
# Elastic Constant Matrix: (Units=GPa)
#
#
# Indices 1 2 3 4 5 6 
#
# 1 59.7186 40.0600 54.2659 0.0000 0.0000 0.0000
# 2 40.0600 59.7185 54.2655 0.0000 0.0000 0.0000
# 3 54.2659 54.2655 114.0727 0.0000 0.0000 0.0000
# 4 0.0000 0.0000 0.0000 22.7577 0.0000 0.0000
# 5 0.0000 0.0000 0.0000 0.0000 22.7578 0.0000
# 6 0.0000 0.0000 0.0000 0.0000 0.0000 28.9587
#
#
#
# Elastic Compliance Matrix: (Units=1/GPa)
#
#
# Indices 1 2 3 4 5 6 
#
# 1 0.035819 -0.015050 -0.009880 0.000000 0.000000 0.000000
# 2 -0.015050 0.035819 -0.009880 0.000000 0.000000 0.000000
# 3 -0.009880 -0.009880 0.018166 0.000000 0.000000 0.000000
# 4 0.000000 0.000000 0.000000 0.043941 0.000000 0.000000
# 5 0.000000 0.000000 0.000000 0.000000 0.043941 0.000000
# 6 0.000000 0.000000 0.000000 0.000000 0.000000 0.034532
#
#
# Mechanical properties :
#
#
# Convention : Reuss Voigt Hill
#
# Bulk Modulus (GPa) = 49.54375 58.96586 54.25480
# Shear Modulus (GPa) = 17.32708 20.55607 18.94157
#
# Velocity S-wave (km/s) = 2.76459 3.01119 2.89052
# Velocity P-wave (km/s) = 5.66077 6.17248 5.92216
#
# Compressibility (1/GPa) = 0.02018418
#
# Stress axis : x y z
#
# Youngs Moduli (GPa) = 27.91821 27.91847 55.04668
#
# Poissons Ratio (x) = 0.42017 0.54387
# Poissons Ratio (y) = 0.42016 0.54385
# Poissons Ratio (z) = 0.27584 0.27583
#
# Static dielectric constant tensor:
#      x y z
#    x 1.879960 0.000000 0.000000 
#    y 0.000000 1.879960 0.000000 
#    z 0.000000 0.000000 1.848890 
# 
# From -- ./inp_files/1635.got.cif
#   From: 2010.05.17/outbox.cif.g08.bks.cpg/sg117_1_cif.got.tgz:1635.got - 2010.05.20 11:15:09.
