data_PCOD9558455
_publ_section_title
;
Structure prediction by ZEFSAII (Michael W. Deem and Ramdas Pophale) SiO2 
 PCOD9558455
Probable space group: P -4 N 2
;
_chemical_formula_sum "Si O2"
_cell_formula_units_Z 44
_cell_length_a 14.111083
_cell_length_b 14.111083
_cell_length_c 12.071260
_cell_angle_alpha 90.000000
_cell_angle_beta 90.000000
_cell_angle_gamma 90.000000
_cell_volume 2403.661442
_symmetry_space_group_name_H-M "P -4 N 2"
_symmetry_group_IT_number 118
_symmetry_cell_setting 'tetragonal'
loop_
_space_group_symop_operation_xyz
x,y,z
y,-x,-z
-x,-y,z
-y,x,-z
1/2+y,1/2+x,1/2-z
1/2-y,1/2-x,1/2-z
1/2-x,1/2+y,1/2+z
1/2+x,1/2-y,1/2+z
loop_
_atom_site_type_symbol
_atom_site_label
_atom_site_fract_x
_atom_site_fract_y
_atom_site_fract_z
Si Si1 0.766135 0.886553 0.118367
Si Si2 0.500000 0.500000 0.500000
Si Si3 0.613447 0.733865 0.118367
Si Si4 0.658442 0.997321 0.750000
Si Si5 0.500000 0.500000 0.000000
Si Si6 0.039607 0.199142 0.053794
Si Si7 0.039607 0.199142 0.446206
O O1 0.666512 0.833488 0.100923
O O2 0.784464 0.890940 0.250000
O O3 0.848435 0.820789 0.063850
O O4 0.771512 0.989402 0.061169
O O5 0.593882 0.497056 0.426261
O O6 0.679211 0.651565 0.063850
O O7 0.510598 0.728488 0.061169
O O8 0.582096 0.082096 0.750000
O O9 0.599906 0.900095 0.750000
O O10 0.725034 0.008626 0.856240
O O11 0.725034 0.008626 0.643760
O O12 0.502944 0.593882 0.926261
#
# Coordination Sequence:
#
# PCOD9558455 Si02
#       7
#     8   2   8   8   2   8   8
#     4  10  20  37  59  80 110 152 188 228 281 336
#     4   8  20  34  52  84 102 144 170 232 272 330
#     4  10  20  37  59  80 110 152 188 228 281 336
#     4  11  22  35  56  82 112 149 186 231 278 330
#     4   8  20  34  52  84 102 144 170 232 272 330
#     4  10  19  36  56  84 112 142 188 229 280 335
#     4  10  19  36  56  84 112 142 188 229 280 335
#
# _framework density 18.305406999999999
#
# number of rings (size 3 to 8) (size 9 to 14) (size 15 to 20)
#    0.000    2.000    1.818    2.182    0.000    0.727 
#   19.636    0.000    0.000    3.273    0.000   12.727 
#    0.000    0.000    0.000    0.000    0.000    0.000 
#
# Total GULP energy -245067.705326 kJ/mol
# GULP energy per Si atom -5569.720576 kJ/mol
# Density = 1.826374 g / cm^3
# Si number density = 18.305407 Si / 1000 Ang^3
#
#
#
# Elastic Constant Matrix: (Units=GPa)
#
#
# Indices 1 2 3 4 5 6 
#
# 1 56.8851 11.6587 27.6174 0.0000 0.0000 0.0000
# 2 11.6587 56.8856 27.6175 0.0000 0.0000 0.0000
# 3 27.6174 27.6175 65.5982 0.0000 0.0000 0.0000
# 4 0.0000 0.0000 0.0000 21.1426 0.0000 0.0000
# 5 0.0000 0.0000 0.0000 0.0000 21.1562 0.0000
# 6 0.0000 0.0000 0.0000 0.0000 0.0000 18.2255
#
#
#
# Elastic Compliance Matrix: (Units=1/GPa)
#
#
# Indices 1 2 3 4 5 6 
#
# 1 0.022096 -0.000015 -0.009296 0.000000 0.000000 0.000000
# 2 -0.000015 0.022095 -0.009296 0.000000 0.000000 0.000000
# 3 -0.009296 -0.009296 0.023072 0.000000 0.000000 0.000000
# 4 0.000000 0.000000 0.000000 0.047298 0.000000 0.000000
# 5 0.000000 0.000000 0.000000 0.000000 0.047267 0.000000
# 6 0.000000 0.000000 0.000000 0.000000 0.000000 0.054868
#
#
# Mechanical properties :
#
#
# Convention : Reuss Voigt Hill
#
# Bulk Modulus (GPa) = 33.27992 34.79513 34.03752
# Shear Modulus (GPa) = 18.94466 19.60321 19.27394
#
# Velocity S-wave (km/s) = 3.22051 3.27601 3.24838
# Velocity P-wave (km/s) = 5.66116 5.77573 5.71873
#
# Compressibility (1/GPa) = 0.03004815
#
# Stress axis : x y z
#
# Youngs Moduli (GPa) = 45.25789 45.25830 43.34324
#
# Poissons Ratio (x) = 0.00070 0.40292
# Poissons Ratio (y) = 0.00070 0.40291
# Poissons Ratio (z) = 0.42072 0.42072
#
# Static dielectric constant tensor:
#      x y z
#    x 1.647960 0.000000 0.000000 
#    y 0.000000 1.647950 0.000000 
#    z 0.000000 0.000000 1.622850 
# 
# From -- ./inp_files/3278.got.cif
#   From: 2010.05.17/outbox.cif.g08.bks.cpg/sg118_2_cif.got.tgz:3278.got - 2010.05.20 11:17:24.
