data_PCOD9558785
_publ_section_title
;
Structure prediction by ZEFSAII (Michael W. Deem and Ramdas Pophale) SiO2 
 PCOD9558785
Probable space group: P -4 N 2
;
_chemical_formula_sum "Si O2"
_cell_formula_units_Z 42
_cell_length_a 13.804128
_cell_length_b 13.804128
_cell_length_c 10.285070
_cell_angle_alpha 90.000000
_cell_angle_beta 90.000000
_cell_angle_gamma 90.000000
_cell_volume 1959.860713
_symmetry_space_group_name_H-M "P -4 N 2"
_symmetry_group_IT_number 118
_symmetry_cell_setting 'tetragonal'
loop_
_space_group_symop_operation_xyz
x,y,z
y,-x,-z
-x,-y,z
-y,x,-z
1/2+y,1/2+x,1/2-z
1/2-y,1/2-x,1/2-z
1/2-x,1/2+y,1/2+z
1/2+x,1/2-y,1/2+z
loop_
_atom_site_type_symbol
_atom_site_label
_atom_site_fract_x
_atom_site_fract_y
_atom_site_fract_z
Si Si1 0.923039 0.138937 0.517492
Si Si2 0.829110 0.910503 0.180759
Si Si3 0.604744 0.212672 0.640385
Si Si4 0.500000 0.500000 0.500000
Si Si5 0.899573 0.718908 0.850696
Si Si6 0.761606 0.893303 0.753278
O O1 0.894677 0.155450 0.665694
O O2 0.901631 0.208719 0.397829
O O3 0.037946 0.124635 0.523090
O O4 0.819792 0.801996 0.131074
O O5 0.918160 0.956385 0.096620
O O6 0.745200 0.988465 0.167763
O O7 0.638832 0.138832 0.750000
O O8 0.607582 0.175114 0.494439
O O9 0.498600 0.255334 0.679083
O O10 0.856142 0.643859 0.750000
O O11 0.837434 0.819045 0.823874
O O12 0.658175 0.841826 0.750000
#
# Coordination Sequence:
#
# PCOD9558785 Si02
#       6
#     8   8   8   2   8   8
#     4  11  21  36  65 105 132 170 217 286 342 403
#     4  12  22  39  68  96 141 169 226 285 341 397
#     4  12  27  44  68 101 131 184 236 277 336 418
#     4  12  20  40  66 108 136 184 218 288 368 412
#     4  11  25  44  67 101 139 177 216 289 351 406
#     4  11  25  44  68  97 140 180 220 281 351 412
#
# _framework density 21.430095999999999
#
# number of rings (size 3 to 8) (size 9 to 14) (size 15 to 20)
#    0.000    0.571    5.714    3.429    8.000    0.381 
#    0.000    0.000    0.000    0.571    0.000    0.000 
#    0.000    0.000    0.000    0.000    0.000    0.000 
#
# Total GULP energy -234660.730288 kJ/mol
# GULP energy per Si atom -5587.160245 kJ/mol
# Density = 2.138132 g / cm^3
# Si number density = 21.430096 Si / 1000 Ang^3
#
#
#
# Elastic Constant Matrix: (Units=GPa)
#
#
# Indices 1 2 3 4 5 6 
#
# 1 49.6092 23.6640 17.3250 0.0000 0.0000 0.0000
# 2 23.6640 49.6080 17.3239 0.0000 0.0000 0.0000
# 3 17.3250 17.3239 153.8697 0.0000 0.0000 0.0000
# 4 0.0000 0.0000 0.0000 13.4374 0.0000 0.0000
# 5 0.0000 0.0000 0.0000 0.0000 13.4427 0.0000
# 6 0.0000 0.0000 0.0000 0.0000 0.0000 27.6571
#
#
#
# Elastic Compliance Matrix: (Units=1/GPa)
#
#
# Indices 1 2 3 4 5 6 
#
# 1 0.026479 -0.012064 -0.001623 0.000000 0.000000 0.000000
# 2 -0.012064 0.026480 -0.001623 0.000000 0.000000 0.000000
# 3 -0.001623 -0.001623 0.006864 0.000000 0.000000 0.000000
# 4 0.000000 0.000000 0.000000 0.074419 0.000000 0.000000
# 5 0.000000 0.000000 0.000000 0.000000 0.074390 0.000000
# 6 0.000000 0.000000 0.000000 0.000000 0.000000 0.036157
#
#
# Mechanical properties :
#
#
# Convention : Reuss Voigt Hill
#
# Bulk Modulus (GPa) = 34.24341 41.07918 37.66129
# Shear Modulus (GPa) = 17.53497 23.89236 20.71367
#
# Velocity S-wave (km/s) = 2.86359 3.34263 3.11234
# Velocity P-wave (km/s) = 5.19109 5.84021 5.52519
#
# Compressibility (1/GPa) = 0.02920270
#
# Stress axis : x y z
#
# Youngs Moduli (GPa) = 37.76562 37.76479 145.67738
#
# Poissons Ratio (x) = 0.45560 0.23645
# Poissons Ratio (y) = 0.45561 0.23642
# Poissons Ratio (z) = 0.06130 0.06129
#
# Static dielectric constant tensor:
#      x y z
#    x 1.784170 0.000000 0.000000 
#    y 0.000000 1.784180 0.000000 
#    z 0.000000 0.000000 2.170670 
# 
# From -- ./inp_files/1931.got.cif
#   From: 2010.05.17/outbox.cif.g08.bks.cpg/sg118_1_cif.got.tgz:1931.got - 2010.05.20 11:17:24.
