data_PCOD9558943
_publ_section_title
;
Structure prediction by ZEFSAII (Michael W. Deem and Ramdas Pophale) SiO2 
 PCOD9558943
Probable space group: P -4 N 2
;
_chemical_formula_sum "Si O2"
_cell_formula_units_Z 44
_cell_length_a 9.000000
_cell_length_b 9.000000
_cell_length_c 30.000000
_cell_angle_alpha 90.000000
_cell_angle_beta 90.000000
_cell_angle_gamma 90.000000
_cell_volume 2430.000000
_symmetry_space_group_name_H-M "P -4 N 2"
_symmetry_group_IT_number 118
_symmetry_cell_setting 'tetragonal'
loop_
_space_group_symop_operation_xyz
x,y,z
y,-x,-z
-x,-y,z
-y,x,-z
1/2+y,1/2+x,1/2-z
1/2-y,1/2-x,1/2-z
1/2-x,1/2+y,1/2+z
1/2+x,1/2-y,1/2+z
loop_
_atom_site_type_symbol
_atom_site_label
_atom_site_fract_x
_atom_site_fract_y
_atom_site_fract_z
Si Si1 0.466022 0.177046 0.616117
Si Si2 0.331896 0.540708 0.787121
Si Si3 0.862529 0.190379 0.817961
Si Si4 0.244694 0.023821 0.990580
Si Si5 0.165925 0.338147 0.642839
Si Si6 0.500000 0.000000 0.435600
O O1 0.565729 0.283944 0.649761
O O2 0.486217 0.207448 0.562205
O O3 0.297263 0.225277 0.628636
O O4 0.500000 0.000000 0.623736
O O5 0.500000 0.500000 0.799691
O O6 0.268378 0.692636 0.807711
O O7 0.336248 0.568165 0.732695
O O8 0.225865 0.419455 0.812872
O O9 0.002211 0.261380 0.844229
O O10 0.370505 0.044617 0.028966
O O11 0.157315 0.873061 0.003576
O O12 0.061353 0.374735 0.599617
#
# Coordination Sequence:
#
# PCOD9558943 Si02
#       6
#     8   8   8   8   8   4
#     4  12  25  43  67  99 138 181 224 286 352 414
#     4  11  23  42  64  97 136 175 224 287 346 408
#     4  11  24  42  67  98 131 179 233 275 342 419
#     4  11  24  41  67  96 134 175 225 281 336 411
#     4  12  23  42  68  96 132 178 225 287 335 410
#     4  12  22  42  65 102 126 169 230 280 330 410
#
# _framework density 18.106995999999999
#
# number of rings (size 3 to 8) (size 9 to 14) (size 15 to 20)
#    0.000    0.545    4.545    4.364    2.545    1.455 
#    0.000    5.455    0.000    0.000    0.000    0.000 
#    0.000    0.000    0.000    0.000    0.000    0.000 
#
# Total GULP energy -245166.005932 kJ/mol
# GULP energy per Si atom -5571.954680 kJ/mol
# Density = 1.806578 g / cm^3
# Si number density = 18.106996 Si / 1000 Ang^3
#
#
#
# Elastic Constant Matrix: (Units=GPa)
#
#
# Indices 1 2 3 4 5 6 
#
# 1 122.1109 53.1974 54.2253 0.0000 0.0000 0.0000
# 2 53.1974 122.1109 54.2253 0.0000 0.0000 0.0000
# 3 54.2253 54.2253 163.0080 0.0000 0.0000 0.0000
# 4 0.0000 0.0000 0.0000 40.3989 0.0000 0.0000
# 5 0.0000 0.0000 0.0000 0.0000 40.3989 0.0000
# 6 0.0000 0.0000 0.0000 0.0000 0.0000 39.4048
#
#
#
# Elastic Compliance Matrix: (Units=1/GPa)
#
#
# Indices 1 2 3 4 5 6 
#
# 1 0.010847 -0.003664 -0.002389 0.000000 0.000000 0.000000
# 2 -0.003664 0.010847 -0.002389 0.000000 0.000000 0.000000
# 3 -0.002389 -0.002389 0.007724 0.000000 0.000000 0.000000
# 4 0.000000 0.000000 0.000000 0.024753 0.000000 0.000000
# 5 0.000000 0.000000 0.000000 0.000000 0.024753 0.000000
# 6 0.000000 0.000000 0.000000 0.000000 0.000000 0.025378
#
#
# Mechanical properties :
#
#
# Convention : Reuss Voigt Hill
#
# Bulk Modulus (GPa) = 79.79620 81.16951 80.48285
# Shear Modulus (GPa) = 39.88381 40.41265 40.14823
#
# Velocity S-wave (km/s) = 4.69836 4.72940 4.71391
# Velocity P-wave (km/s) = 8.57891 8.64569 8.61237
#
# Compressibility (1/GPa) = 0.01253192
#
# Stress axis : x y z
#
# Youngs Moduli (GPa) = 92.19481 92.19481 129.46274
#
# Poissons Ratio (x) = 0.33783 0.30931
# Poissons Ratio (y) = 0.33783 0.30931
# Poissons Ratio (z) = 0.22027 0.22027
#
# Static dielectric constant tensor:
#      x y z
#    x 1.641220 0.000000 0.000000 
#    y 0.000000 1.641220 0.000000 
#    z 0.000000 0.000000 1.627970 
# 
# From -- ./inp_files/6768.got.cif
#   From: 2010.05.17/outbox.ucp.g08.bks.cvg/sg118_4_cif.got.tgz:6768.got - 2010.06.11 11:34:11.
