data_PCOD9558825
_publ_section_title
;
Structure prediction by ZEFSAII (Michael W. Deem and Ramdas Pophale) SiO2 
 PCOD9558825
Probable space group: P -4 N 2
;
_chemical_formula_sum "Si O2"
_cell_formula_units_Z 52
_cell_length_a 17.161554
_cell_length_b 17.161554
_cell_length_c 7.247424
_cell_angle_alpha 90.000000
_cell_angle_beta 90.000000
_cell_angle_gamma 90.000000
_cell_volume 2134.503603
_symmetry_space_group_name_H-M "P -4 N 2"
_symmetry_group_IT_number 118
_symmetry_cell_setting 'tetragonal'
loop_
_space_group_symop_operation_xyz
x,y,z
y,-x,-z
-x,-y,z
-y,x,-z
1/2+y,1/2+x,1/2-z
1/2-y,1/2-x,1/2-z
1/2-x,1/2+y,1/2+z
1/2+x,1/2-y,1/2+z
loop_
_atom_site_type_symbol
_atom_site_label
_atom_site_fract_x
_atom_site_fract_y
_atom_site_fract_z
Si Si1 0.300050 0.800050 0.750000
Si Si2 0.828394 0.575078 0.584102
Si Si3 0.226855 0.962650 0.428933
Si Si4 0.000000 0.500000 0.512452
Si Si5 0.426825 0.403319 0.503628
Si Si6 0.345974 0.633454 0.867678
Si Si7 0.901118 0.401118 0.250000
Si Si8 0.029391 0.754844 0.184801
O O1 0.358150 0.819613 0.575454
O O2 0.301004 0.714398 0.843942
O O3 0.921140 0.709841 0.708525
O O4 0.767052 0.513723 0.501704
O O5 0.915501 0.535234 0.585222
O O6 0.151579 0.908305 0.470593
O O7 0.202486 0.052983 0.386097
O O8 0.256663 0.973908 0.639527
O O9 0.035754 0.573456 0.403570
O O10 0.408537 0.487023 0.583262
O O11 0.372312 0.388003 0.331408
O O12 0.430976 0.337031 0.654696
O O13 0.909011 0.312927 0.198044
#
# Coordination Sequence:
#
# PCOD9558825 Si02
#       8
#     4   8   8   4   8   8   4   8
#     4  12  26  53  82 114 170 215 272 344 436 488
#     4  11  23  50  81 115 166 212 273 347 403 501
#     4  12  28  49  79 119 160 212 277 343 409 503
#     4   9  20  40  77 114 153 219 270 317 409 484
#     4  11  23  43  77 111 151 213 266 330 407 477
#     4  12  29  49  79 118 157 212 274 341 413 501
#     4   9  20  40  72 110 154 206 258 331 396 484
#     4  11  22  46  73 110 157 203 266 336 408 481
#
# _framework density 24.361637000000002
#
# number of rings (size 3 to 8) (size 9 to 14) (size 15 to 20)
#    0.000    0.923    4.615    1.846    2.154    2.154 
#    0.000    3.846    0.000    0.000    0.000    0.000 
#    0.000    0.000    0.000    0.000    0.000    0.000 
#
# Total GULP energy -289566.976292 kJ/mol
# GULP energy per Si atom -5568.595698 kJ/mol
# Density = 2.430619 g / cm^3
# Si number density = 24.361637 Si / 1000 Ang^3
#
#
#
# Elastic Constant Matrix: (Units=GPa)
#
#
# Indices 1 2 3 4 5 6 
#
# 1 151.3814 28.5314 39.2949 0.0000 0.0000 0.0000
# 2 28.5314 151.3814 39.2949 0.0000 0.0000 0.0000
# 3 39.2949 39.2949 127.2275 0.0000 0.0000 0.0000
# 4 0.0000 0.0000 0.0000 10.0598 0.0000 0.0000
# 5 0.0000 0.0000 0.0000 0.0000 10.0598 0.0000
# 6 0.0000 0.0000 0.0000 0.0000 0.0000 -12.6180
#
#
#
# Elastic Compliance Matrix: (Units=1/GPa)
#
#
# Indices 1 2 3 4 5 6 
#
# 1 0.007283 -0.000857 -0.001984 0.000000 0.000000 0.000000
# 2 -0.000857 0.007283 -0.001984 0.000000 0.000000 0.000000
# 3 -0.001984 -0.001984 0.009086 0.000000 0.000000 0.000000
# 4 0.000000 0.000000 0.000000 0.099405 0.000000 0.000000
# 5 0.000000 0.000000 0.000000 0.000000 0.099405 0.000000
# 6 0.000000 0.000000 0.000000 0.000000 0.000000 -0.079252
#
#
# Mechanical properties :
#
#
# Convention : Reuss Voigt Hill
#
# Bulk Modulus (GPa) = 71.43767 71.58142 71.50954
# Shear Modulus (GPa) = 31.74029 23.02493 27.38261
#
# Velocity S-wave (km/s) = 3.61346 3.07763 3.35626
# Velocity P-wave (km/s) = 6.84083 6.48658 6.66606
#
# Compressibility (1/GPa) = 0.01399822
#
# Stress axis : x y z
#
# Youngs Moduli (GPa) = 137.31455 137.31455 110.06267
#
# Poissons Ratio (x) = 0.11774 0.21841
# Poissons Ratio (y) = 0.11774 0.21841
# Poissons Ratio (z) = 0.27249 0.27249
#
# Static dielectric constant tensor:
#      x y z
#    x 1.922100 0.000000 0.000000 
#    y 0.000000 1.922100 0.000000 
#    z 0.000000 0.000000 2.030450 
# 
# From -- ./inp_files/2198.got.cif
#   From: 2010.05.17/outbox.cif.g08.bks.cpg/sg118_2_cif.got.tgz:2198.got - 2010.05.20 11:17:24.
