data_PCOD9558543
_publ_section_title
;
Structure prediction by ZEFSAII (Michael W. Deem and Ramdas Pophale) SiO2 
 PCOD9558543
Probable space group: P -4 N 2
;
_chemical_formula_sum "Si O2"
_cell_formula_units_Z 56
_cell_length_a 11.715251
_cell_length_b 11.715251
_cell_length_c 20.491519
_cell_angle_alpha 90.000000
_cell_angle_beta 90.000000
_cell_angle_gamma 90.000000
_cell_volume 2812.401680
_symmetry_space_group_name_H-M "P -4 N 2"
_symmetry_group_IT_number 118
_symmetry_cell_setting 'tetragonal'
loop_
_space_group_symop_operation_xyz
x,y,z
y,-x,-z
-x,-y,z
-y,x,-z
1/2+y,1/2+x,1/2-z
1/2-y,1/2-x,1/2-z
1/2-x,1/2+y,1/2+z
1/2+x,1/2-y,1/2+z
loop_
_atom_site_type_symbol
_atom_site_label
_atom_site_fract_x
_atom_site_fract_y
_atom_site_fract_z
Si Si1 0.710186 0.420442 0.093241
Si Si2 0.753872 0.522828 0.950856
Si Si3 0.900867 0.746675 0.292406
Si Si4 0.791024 0.270688 0.900934
Si Si5 0.591123 0.736622 0.577706
Si Si6 0.078148 0.110456 0.167173
Si Si7 0.226914 0.397652 0.518640
O O1 0.590518 0.350944 0.084505
O O2 0.734554 0.491800 0.159102
O O3 0.812423 0.328338 0.092621
O O4 0.721606 0.495827 0.026800
O O5 0.790804 0.402676 0.920114
O O6 0.859451 0.610638 0.947946
O O7 0.868809 0.631192 0.250000
O O8 0.796766 0.758890 0.341764
O O9 0.901410 0.848251 0.240301
O O10 0.896737 0.197281 0.872570
O O11 0.744905 0.198667 0.962326
O O12 0.498596 0.709148 0.632573
O O13 0.519151 0.777296 0.515245
O O14 0.659857 0.622024 0.560551
O O15 0.000000 0.000000 0.165552
#
# Coordination Sequence:
#
# PCOD9558543 Si02
#       7
#     8   8   8   8   8   8   8
#     4  11  22  38  60  95 130 166 206 265 336 392
#     4  11  20  37  61  96 130 159 206 267 337 394
#     4  10  22  42  63  90 127 167 214 265 318 392
#     4  10  20  40  59  91 126 155 212 264 322 388
#     4  10  23  38  59  88 129 164 211 261 321 400
#     4  10  24  41  61  86 117 172 223 259 315 391
#     4  10  21  38  58  94 126 165 202 263 325 387
#
# _framework density 19.911807
#
# number of rings (size 3 to 8) (size 9 to 14) (size 15 to 20)
#    0.000    1.714    4.286    0.000    6.000    2.571 
#    0.000    3.571    0.000    0.000    0.000    0.000 
#    0.000    0.000    0.000    0.000    0.000    0.000 
#
# Total GULP energy -312168.335670 kJ/mol
# GULP energy per Si atom -5574.434566 kJ/mol
# Density = 1.986649 g / cm^3
# Si number density = 19.911807 Si / 1000 Ang^3
#
#
#
# Elastic Constant Matrix: (Units=GPa)
#
#
# Indices 1 2 3 4 5 6 
#
# 1 111.7797 38.0973 31.9643 0.0000 0.0000 0.0000
# 2 38.0973 111.7805 31.9645 0.0000 0.0000 0.0000
# 3 31.9643 31.9645 91.9904 0.0000 0.0000 0.0000
# 4 0.0000 0.0000 0.0000 18.6335 0.0000 0.0000
# 5 0.0000 0.0000 0.0000 0.0000 18.6329 0.0000
# 6 0.0000 0.0000 0.0000 0.0000 0.0000 19.6354
#
#
#
# Elastic Compliance Matrix: (Units=1/GPa)
#
#
# Indices 1 2 3 4 5 6 
#
# 1 0.010702 -0.002869 -0.002722 0.000000 0.000000 0.000000
# 2 -0.002869 0.010702 -0.002722 0.000000 0.000000 0.000000
# 3 -0.002722 -0.002722 0.012762 0.000000 0.000000 0.000000
# 4 0.000000 0.000000 0.000000 0.053667 0.000000 0.000000
# 5 0.000000 0.000000 0.000000 0.000000 0.053668 0.000000
# 6 0.000000 0.000000 0.000000 0.000000 0.000000 0.050928
#
#
# Mechanical properties :
#
#
# Convention : Reuss Voigt Hill
#
# Bulk Modulus (GPa) = 57.00872 57.73362 57.37117
# Shear Modulus (GPa) = 23.26624 25.61532 24.44078
#
# Velocity S-wave (km/s) = 3.42199 3.59059 3.50730
# Velocity P-wave (km/s) = 6.65628 6.80054 6.72880
#
# Compressibility (1/GPa) = 0.01754118
#
# Stress axis : x y z
#
# Youngs Moduli (GPa) = 93.43687 93.43744 78.35627
#
# Poissons Ratio (x) = 0.26810 0.21327
# Poissons Ratio (y) = 0.26810 0.21327
# Poissons Ratio (z) = 0.25432 0.25432
#
# Static dielectric constant tensor:
#      x y z
#    x 1.735370 0.000000 0.000000 
#    y 0.000000 1.735370 0.000000 
#    z 0.000000 0.000000 1.750700 
# 
# From -- ./inp_files/5682.got.cif
#   From: 2010.05.17/outbox.cif.g08.bks.cpg/sg118_3_cif.got.tgz:5682.got - 2010.05.20 11:17:24.
