data_PCOD9558769
_publ_section_title
;
Structure prediction by ZEFSAII (Michael W. Deem and Ramdas Pophale) SiO2 
 PCOD9558769
Probable space group: P -4 N 2
;
_chemical_formula_sum "Si O2"
_cell_formula_units_Z 56
_cell_length_a 14.565275
_cell_length_b 14.565275
_cell_length_c 11.154728
_cell_angle_alpha 90.000000
_cell_angle_beta 90.000000
_cell_angle_gamma 90.000000
_cell_volume 2366.444712
_symmetry_space_group_name_H-M "P -4 N 2"
_symmetry_group_IT_number 118
_symmetry_cell_setting 'tetragonal'
loop_
_space_group_symop_operation_xyz
x,y,z
y,-x,-z
-x,-y,z
-y,x,-z
1/2+y,1/2+x,1/2-z
1/2-y,1/2-x,1/2-z
1/2-x,1/2+y,1/2+z
1/2+x,1/2-y,1/2+z
loop_
_atom_site_type_symbol
_atom_site_label
_atom_site_fract_x
_atom_site_fract_y
_atom_site_fract_z
Si Si1 0.064632 0.294109 0.198537
Si Si2 0.606786 0.417234 0.437270
Si Si3 0.281632 0.738525 0.548836
Si Si4 0.222119 0.377713 0.849488
Si Si5 0.933886 0.416159 0.105768
Si Si6 0.839107 0.927283 0.678784
Si Si7 0.750414 0.926703 0.449069
O O1 0.115643 0.384358 0.250000
O O2 0.146445 0.230825 0.155064
O O3 0.997169 0.326528 0.092549
O O4 0.000984 0.238519 0.287649
O O5 0.511867 0.378138 0.490906
O O6 0.689065 0.344847 0.461190
O O7 0.595756 0.437758 0.295123
O O8 0.303612 0.832784 0.476850
O O9 0.178160 0.749206 0.595170
O O10 0.147809 0.352192 0.750000
O O11 0.317065 0.324768 0.817536
O O12 0.241996 0.485768 0.863175
O O13 0.915518 0.415518 0.250000
O O14 0.000000 0.500000 0.074611
O O15 0.842119 0.422851 0.030340
O O16 0.840362 0.940461 0.534461
#
# Coordination Sequence:
#
# PCOD9558769 Si02
#       7
#     8   8   8   8   8   8   8
#     4  12  22  39  70 108 145 183 246 324 376 442
#     4  11  23  42  68 108 145 196 252 310 381 461
#     4  11  24  42  71 105 144 190 252 317 379 460
#     4  11  24  45  75 106 152 202 248 311 400 476
#     4  11  19  34  66 105 136 172 230 310 377 438
#     4  11  22  43  72 101 149 198 251 301 380 468
#     4  11  25  43  72 109 143 196 256 309 394 465
#
# _framework density 23.664190999999999
#
# number of rings (size 3 to 8) (size 9 to 14) (size 15 to 20)
#    0.000    0.857    5.714    2.571    2.000    0.000 
#    2.571    4.286    0.000    8.143    0.000    0.000 
#    0.000    0.000    0.000    0.000    0.000    0.000 
#
# Total GULP energy -312173.620407 kJ/mol
# GULP energy per Si atom -5574.528936 kJ/mol
# Density = 2.361033 g / cm^3
# Si number density = 23.664191 Si / 1000 Ang^3
#
#
#
# Elastic Constant Matrix: (Units=GPa)
#
#
# Indices 1 2 3 4 5 6 
#
# 1 119.3140 19.6013 31.5035 0.0000 0.0000 0.0000
# 2 19.6013 119.3139 31.5035 0.0000 0.0000 0.0000
# 3 31.5035 31.5035 57.0736 0.0000 0.0000 0.0000
# 4 0.0000 0.0000 0.0000 31.6329 0.0000 0.0000
# 5 0.0000 0.0000 0.0000 0.0000 31.6333 0.0000
# 6 0.0000 0.0000 0.0000 0.0000 0.0000 38.7646
#
#
#
# Elastic Compliance Matrix: (Units=1/GPa)
#
#
# Indices 1 2 3 4 5 6 
#
# 1 0.009816 -0.000213 -0.005301 0.000000 0.000000 0.000000
# 2 -0.000213 0.009816 -0.005301 0.000000 0.000000 0.000000
# 3 -0.005301 -0.005301 0.023373 0.000000 0.000000 0.000000
# 4 0.000000 0.000000 0.000000 0.031613 0.000000 0.000000
# 5 0.000000 0.000000 0.000000 0.000000 0.031612 0.000000
# 6 0.000000 0.000000 0.000000 0.000000 0.000000 0.025797
#
#
# Mechanical properties :
#
#
# Convention : Reuss Voigt Hill
#
# Bulk Modulus (GPa) = 46.78100 51.21313 48.99707
# Shear Modulus (GPa) = 31.09847 34.61238 32.85543
#
# Velocity S-wave (km/s) = 3.62906 3.82861 3.73017
# Velocity P-wave (km/s) = 6.11324 6.42129 6.26916
#
# Compressibility (1/GPa) = 0.02137620
#
# Stress axis : x y z
#
# Youngs Moduli (GPa) = 101.87678 101.87661 42.78479
#
# Poissons Ratio (x) = 0.02170 0.22678
# Poissons Ratio (y) = 0.02170 0.22678
# Poissons Ratio (z) = 0.54000 0.54000
#
# Static dielectric constant tensor:
#      x y z
#    x 1.976460 0.000000 0.000000 
#    y 0.000000 1.976460 0.000000 
#    z 0.000000 0.000000 1.976440 
# 
# From -- ./inp_files/3430.got.cif
#   From: 2010.05.17/outbox.cif.g08.bks.cpg/sg118_2_cif.got.tgz:3430.got - 2010.05.20 11:17:24.
