data_PCOD9558987
_publ_section_title
;
Structure prediction by ZEFSAII (Michael W. Deem and Ramdas Pophale) SiO2 
 PCOD9558987
Probable space group: I -4 M 2
;
_chemical_formula_sum "Si O2"
_cell_formula_units_Z 112
_cell_length_a 14.210314
_cell_length_b 14.210314
_cell_length_c 37.128008
_cell_angle_alpha 90.000000
_cell_angle_beta 90.000000
_cell_angle_gamma 90.000000
_cell_volume 7497.370930
_symmetry_space_group_name_H-M "I -4 M 2"
_symmetry_group_IT_number 119
_symmetry_cell_setting 'tetragonal'
loop_
_space_group_symop_operation_xyz
x,y,z
y,-x,-z
-x,-y,z
-y,x,-z
y,x,-z
-y,-x,-z
-x,y,z
x,-y,z
1/2+x,1/2+y,1/2+z
1/2+y,1/2-x,1/2-z
1/2-x,1/2-y,1/2+z
1/2-y,1/2+x,1/2-z
1/2+y,1/2+x,1/2-z
1/2-y,1/2-x,1/2-z
1/2-x,1/2+y,1/2+z
1/2+x,1/2-y,1/2+z
loop_
_atom_site_type_symbol
_atom_site_label
_atom_site_fract_x
_atom_site_fract_y
_atom_site_fract_z
Si Si1 0.112359 0.211029 0.682949
Si Si2 0.386955 0.292888 0.034248
Si Si3 0.610199 0.604833 0.316525
Si Si4 0.888397 0.392275 0.573171
Si Si5 0.765273 0.889533 0.744645
Si Si6 0.886056 0.893046 0.608791
Si Si7 0.303662 0.110045 0.151545
O O1 0.171621 0.160441 0.714023
O O2 0.139269 0.163488 0.644673
O O3 0.140605 0.319893 0.677819
O O4 0.000000 0.200647 0.688543
O O5 0.500000 0.304542 0.029468
O O6 0.366640 0.183785 0.042737
O O7 0.358469 0.346333 0.071070
O O8 0.334530 0.334530 0.000000
O O9 0.500000 0.609605 0.305635
O O10 0.625908 0.500000 0.332014
O O11 0.675348 0.615134 0.281641
O O12 0.627079 0.692689 0.342638
O O13 0.870680 0.500000 0.562502
O O14 0.835197 0.372784 0.610509
O O15 0.000000 0.382151 0.581309
O O16 0.669942 0.830059 0.750000
O O17 0.749815 0.000000 0.736256
O O18 0.000000 0.894078 0.608398
O O19 0.852247 0.000000 0.611000
O O20 0.323197 0.000000 0.159276
#
# Coordination Sequence:
#
# PCOD9558987 Si02
#       7
#    16  16  16  16  16  16  16
#     4  11  20  32  50  73 100 130 163 194 238 297
#     4  10  18  28  44  68  96 128 160 193 233 279
#     4   9  18  33  52  72  94 122 160 205 248 290
#     4   9  17  30  48  71  99 130 162 193 230 286
#     4  11  22  36  52  70  93 126 167 209 249 289
#     4   9  17  28  42  65  96 126 157 192 228 273
#     4  10  18  30  51  75  99 127 159 199 244 291
#
# _framework density 14.93857
#
# number of rings (size 3 to 8) (size 9 to 14) (size 15 to 20)
#    0.000    2.143    2.857    1.714    0.000    3.143 
#    0.000    0.000    0.000    0.857    0.000    0.000 
#    0.000    3.429    0.000    0.000    0.000    0.000 
#
# Total GULP energy -312046.516143 kJ/mol
# GULP energy per Si atom -5572.259217 kJ/mol
# Density = 1.490457 g / cm^3
# Si number density = 14.938570 Si / 1000 Ang^3
#
#
#
# Elastic Constant Matrix: (Units=GPa)
#
#
# Indices 1 2 3 4 5 6 
#
# 1 86.6006 51.1029 46.0995 0.0000 0.0000 0.0000
# 2 51.1029 86.5993 46.0988 0.0000 0.0000 0.0000
# 3 46.0995 46.0988 70.3153 0.0000 0.0000 0.0000
# 4 0.0000 0.0000 0.0000 24.8294 0.0000 0.0000
# 5 0.0000 0.0000 0.0000 0.0000 24.8294 0.0000
# 6 0.0000 0.0000 0.0000 0.0000 0.0000 19.0976
#
#
#
# Elastic Compliance Matrix: (Units=1/GPa)
#
#
# Indices 1 2 3 4 5 6 
#
# 1 0.020557 -0.007614 -0.008486 0.000000 0.000000 0.000000
# 2 -0.007614 0.020558 -0.008486 0.000000 0.000000 0.000000
# 3 -0.008486 -0.008486 0.025349 0.000000 0.000000 0.000000
# 4 0.000000 0.000000 0.000000 0.040275 0.000000 0.000000
# 5 0.000000 0.000000 0.000000 0.000000 0.040275 0.000000
# 6 0.000000 0.000000 0.000000 0.000000 0.000000 0.052363
#
#
# Mechanical properties :
#
#
# Convention : Reuss Voigt Hill
#
# Bulk Modulus (GPa) = 57.82985 58.90196 58.36590
# Shear Modulus (GPa) = 19.66091 20.43223 20.04657
#
# Velocity S-wave (km/s) = 3.63177 3.70232 3.66722
# Velocity P-wave (km/s) = 7.50880 7.60206 7.55558
#
# Compressibility (1/GPa) = 0.01729211
#
# Stress axis : x y z
#
# Youngs Moduli (GPa) = 48.64411 48.64367 39.44978
#
# Poissons Ratio (x) = 0.37036 0.33478
# Poissons Ratio (y) = 0.37036 0.33477
# Poissons Ratio (z) = 0.41280 0.41279
#
# Static dielectric constant tensor:
#      x y z
#    x 1.508050 0.000000 0.000000 
#    y 0.000000 1.508050 0.000000 
#    z 0.000000 0.000000 1.465870 
# 
# From -- ./inp_files/9599.got.cif
#   From: 2010.05.17/outbox.cif.g08.bks.cpg/sg119_5_cif.got.tgz:9599.got - 2010.05.20 11:21:29.
