data_PCOD9558677
_publ_section_title
;
Structure prediction by ZEFSAII (Michael W. Deem and Ramdas Pophale) SiO2 
 PCOD9558677
Probable space group: P -4 N 2
;
_chemical_formula_sum "Si O2"
_cell_formula_units_Z 34
_cell_length_a 15.788027
_cell_length_b 15.788027
_cell_length_c 6.284183
_cell_angle_alpha 90.000000
_cell_angle_beta 90.000000
_cell_angle_gamma 90.000000
_cell_volume 1566.406744
_symmetry_space_group_name_H-M "P -4 N 2"
_symmetry_group_IT_number 118
_symmetry_cell_setting 'tetragonal'
loop_
_space_group_symop_operation_xyz
x,y,z
y,-x,-z
-x,-y,z
-y,x,-z
1/2+y,1/2+x,1/2-z
1/2-y,1/2-x,1/2-z
1/2-x,1/2+y,1/2+z
1/2+x,1/2-y,1/2+z
loop_
_atom_site_type_symbol
_atom_site_label
_atom_site_fract_x
_atom_site_fract_y
_atom_site_fract_z
Si Si1 0.605878 0.374032 0.209490
Si Si2 0.635751 0.004011 0.300204
Si Si3 0.792682 0.978478 0.001163
Si Si4 0.901985 0.729190 0.358550
Si Si5 0.000000 0.000000 0.500000
O O1 0.518087 0.360366 0.337714
O O2 0.679326 0.394042 0.379584
O O3 0.585876 0.464195 0.103903
O O4 0.623342 0.296858 0.045476
O O5 0.562311 0.937690 0.250000
O O6 0.596473 0.096473 0.250000
O O7 0.672035 0.022795 0.534434
O O8 0.709743 0.973867 0.145537
O O9 0.776594 0.052849 0.833026
O O10 0.828739 0.671261 0.250000
#
# Coordination Sequence:
#
# PCOD9558677 Si02
#       5
#     8   8   8   8   2
#     4  11  24  39  70  97 134 175 224 280 336 406
#     4  10  22  42  70  99 129 173 228 277 330 407
#     4  11  23  43  66  99 133 175 220 279 340 407
#     4  11  23  43  68  97 137 179 217 279 350 402
#     4  12  20  42  68  96 122 172 232 274 316 396
#
# _framework density 21.705729000000002
#
# number of rings (size 3 to 8) (size 9 to 14) (size 15 to 20)
#    0.000    1.176    4.706    1.412    0.000    0.941 
#    0.000    7.059    0.000    0.000    0.000    0.000 
#    0.000    0.000    0.000    0.000    0.000    0.000 
#
# Total GULP energy -189351.551840 kJ/mol
# GULP energy per Si atom -5569.163289 kJ/mol
# Density = 2.165633 g / cm^3
# Si number density = 21.705729 Si / 1000 Ang^3
#
#
#
# Elastic Constant Matrix: (Units=GPa)
#
#
# Indices 1 2 3 4 5 6 
#
# 1 72.1090 32.5783 33.1613 0.0000 0.0000 0.0000
# 2 32.5783 72.1068 33.1603 0.0000 0.0000 0.0000
# 3 33.1613 33.1603 104.9566 0.0000 0.0000 0.0000
# 4 0.0000 0.0000 0.0000 16.0723 0.0000 0.0000
# 5 0.0000 0.0000 0.0000 0.0000 16.0772 0.0000
# 6 0.0000 0.0000 0.0000 0.0000 0.0000 36.9981
#
#
#
# Elastic Compliance Matrix: (Units=1/GPa)
#
#
# Indices 1 2 3 4 5 6 
#
# 1 0.018620 -0.006677 -0.003773 0.000000 0.000000 0.000000
# 2 -0.006677 0.018620 -0.003773 0.000000 0.000000 0.000000
# 3 -0.003773 -0.003773 0.011912 0.000000 0.000000 0.000000
# 4 0.000000 0.000000 0.000000 0.062219 0.000000 0.000000
# 5 0.000000 0.000000 0.000000 0.000000 0.062200 0.000000
# 6 0.000000 0.000000 0.000000 0.000000 0.000000 0.027028
#
#
# Mechanical properties :
#
#
# Convention : Reuss Voigt Hill
#
# Bulk Modulus (GPa) = 48.29860 49.66359 48.98110
# Shear Modulus (GPa) = 21.19099 23.84767 22.51933
#
# Velocity S-wave (km/s) = 3.12795 3.31823 3.22449
# Velocity P-wave (km/s) = 5.94519 6.13278 6.03971
#
# Compressibility (1/GPa) = 0.02070453
#
# Stress axis : x y z
#
# Youngs Moduli (GPa) = 53.70581 53.70443 83.94829
#
# Poissons Ratio (x) = 0.35860 0.31677
# Poissons Ratio (y) = 0.35861 0.31676
# Poissons Ratio (z) = 0.20265 0.20264
#
# Static dielectric constant tensor:
#      x y z
#    x 1.853420 0.000000 0.000000 
#    y 0.000000 1.853390 0.000000 
#    z 0.000000 0.000000 1.871600 
# 
# From -- ./inp_files/563.got.cif
#   From: 2010.05.17/outbox.cif.g08.bks.cpg/sg118_1_cif.got.tgz:563.got - 2010.05.20 11:17:24.
