data_PCOD9558134
_publ_section_title
;
Structure prediction by ZEFSAII (Michael W. Deem and Ramdas Pophale) SiO2 
 PCOD9558134
Probable space group: P -4 B 2
;
_chemical_formula_sum "Si O2"
_cell_formula_units_Z 40
_cell_length_a 9.820814
_cell_length_b 9.820814
_cell_length_c 15.435363
_cell_angle_alpha 90.000000
_cell_angle_beta 90.000000
_cell_angle_gamma 90.000000
_cell_volume 1488.715874
_symmetry_space_group_name_H-M "P -4 B 2"
_symmetry_group_IT_number 117
_symmetry_cell_setting 'tetragonal'
loop_
_space_group_symop_operation_xyz
x,y,z
y,-x,-z
-x,-y,z
-y,x,-z
1/2+y,1/2+x,-z
1/2-y,1/2-x,-z
1/2-x,1/2+y,z
1/2+x,1/2-y,z
loop_
_atom_site_type_symbol
_atom_site_label
_atom_site_fract_x
_atom_site_fract_y
_atom_site_fract_z
Si Si1 0.591316 0.113959 0.672156
Si Si2 0.786820 0.998957 0.807453
Si Si3 0.372003 0.425460 0.435042
Si Si4 0.001799 0.775246 0.005159
Si Si5 0.273371 0.098252 0.175485
O O1 0.719924 0.046686 0.717842
O O2 0.626628 0.246380 0.617343
O O3 0.495572 0.161782 0.751827
O O4 0.500000 0.000000 0.624928
O O5 0.716899 0.037488 0.901192
O O6 0.908056 0.109575 0.815895
O O7 0.749177 0.837821 0.808012
O O8 0.324877 0.547031 0.500740
O O9 0.500000 0.500000 0.385848
O O10 0.128083 0.877337 0.023142
O O11 0.049896 0.693846 0.921761
#
# Coordination Sequence:
#
# PCOD9558134 Si02
#       5
#     8   8   8   8   8
#     4  10  20  37  63 105 139 167 223 297 363 423
#     4  10  22  37  58  95 134 184 229 290 354 407
#     4   6  16  36  65 104 131 176 235 270 353 452
#     4   9  19  37  56  86 134 187 247 289 343 415
#     4  10  22  37  58  95 133 182 233 291 349 413
#
# _framework density 26.868794999999999
#
# number of rings (size 3 to 8) (size 9 to 14) (size 15 to 20)
#    1.200    1.800    0.000    0.600    2.800    2.400 
#    3.600    3.000    0.000    1.200    5.200    0.000 
#    0.000    0.000    0.000    0.000    0.000    0.000 
#
# Total GULP energy -222822.567690 kJ/mol
# GULP energy per Si atom -5570.564192 kJ/mol
# Density = 2.680764 g / cm^3
# Si number density = 26.868795 Si / 1000 Ang^3
#
#
#
# Elastic Constant Matrix: (Units=GPa)
#
#
# Indices 1 2 3 4 5 6 
#
# 1 67.9524 5.5314 12.4825 0.0000 0.0000 0.0000
# 2 5.5314 67.9524 12.4825 0.0000 0.0000 0.0000
# 3 12.4825 12.4825 88.1446 0.0000 0.0000 0.0000
# 4 0.0000 0.0000 0.0000 18.5951 0.0000 0.0000
# 5 0.0000 0.0000 0.0000 0.0000 18.5951 0.0000
# 6 0.0000 0.0000 0.0000 0.0000 0.0000 41.2115
#
#
#
# Elastic Compliance Matrix: (Units=1/GPa)
#
#
# Indices 1 2 3 4 5 6 
#
# 1 0.015158 -0.000862 -0.002025 0.000000 0.000000 0.000000
# 2 -0.000862 0.015158 -0.002025 0.000000 0.000000 0.000000
# 3 -0.002025 -0.002025 0.011918 0.000000 0.000000 0.000000
# 4 0.000000 0.000000 0.000000 0.053778 0.000000 0.000000
# 5 0.000000 0.000000 0.000000 0.000000 0.053778 0.000000
# 6 0.000000 0.000000 0.000000 0.000000 0.000000 0.024265
#
#
# Mechanical properties :
#
#
# Convention : Reuss Voigt Hill
#
# Bulk Modulus (GPa) = 30.85211 31.67137 31.26174
# Shear Modulus (GPa) = 25.68295 28.58388 27.13341
#
# Velocity S-wave (km/s) = 3.09506 3.26518 3.18126
# Velocity P-wave (km/s) = 4.92747 5.10179 5.01539
#
# Compressibility (1/GPa) = 0.03241270
#
# Stress axis : x y z
#
# Youngs Moduli (GPa) = 65.97071 65.97071 83.90386
#
# Poissons Ratio (x) = 0.05687 0.16987
# Poissons Ratio (y) = 0.05687 0.16987
# Poissons Ratio (z) = 0.13356 0.13356
#
# Static dielectric constant tensor:
#      x y z
#    x 2.221250 0.000000 0.000000 
#    y 0.000000 2.221250 0.000000 
#    z 0.000000 0.000000 2.092000 
# 
# From -- ./inp_files/3127.got.cif
#   From: 2010.05.17/outbox.cif.g08.bks.cpg/sg117_2_cif.got.tgz:3127.got - 2010.05.20 11:15:09.
