data_PCOD9558847
_publ_section_title
;
Structure prediction by ZEFSAII (Michael W. Deem and Ramdas Pophale) SiO2 
 PCOD9558847
Probable space group: P -4 N 2
;
_chemical_formula_sum "Si O2"
_cell_formula_units_Z 26
_cell_length_a 11.730915
_cell_length_b 11.730915
_cell_length_c 7.745393
_cell_angle_alpha 90.000000
_cell_angle_beta 90.000000
_cell_angle_gamma 90.000000
_cell_volume 1065.877353
_symmetry_space_group_name_H-M "P -4 N 2"
_symmetry_group_IT_number 118
_symmetry_cell_setting 'tetragonal'
loop_
_space_group_symop_operation_xyz
x,y,z
y,-x,-z
-x,-y,z
-y,x,-z
1/2+y,1/2+x,1/2-z
1/2-y,1/2-x,1/2-z
1/2-x,1/2+y,1/2+z
1/2+x,1/2-y,1/2+z
loop_
_atom_site_type_symbol
_atom_site_label
_atom_site_fract_x
_atom_site_fract_y
_atom_site_fract_z
Si Si1 0.500000 0.500000 0.500000
Si Si2 0.284928 0.848255 0.431628
Si Si3 0.755312 0.492275 0.385608
Si Si4 0.909558 0.293167 0.499362
O O1 0.618906 0.484470 0.398752
O O2 0.281546 0.781546 0.250000
O O3 0.387293 0.799786 0.545058
O O4 0.165212 0.820121 0.522572
O O5 0.301690 0.979980 0.382638
O O6 0.820547 0.396676 0.499803
O O7 0.791197 0.468770 0.189308
#
# Coordination Sequence:
#
# PCOD9558847 Si02
#       4
#     2   8   8   8
#     4  12  20  40  84 102 140 192 244 290 352 432
#     4  12  25  47  70 105 143 187 246 295 358 436
#     4  11  23  46  71 103 144 188 232 301 360 420
#     4  11  25  46  69 103 146 185 238 295 362 423
#
# _framework density 24.393052000000001
#
# number of rings (size 3 to 8) (size 9 to 14) (size 15 to 20)
#    0.000    0.615    6.154    1.846    0.000   10.462 
#    5.538    0.000    0.000    0.000    0.000    0.000 
#    0.000    0.000    0.000    0.000    0.000    0.000 
#
# Total GULP energy -145609.691341 kJ/mol
# GULP energy per Si atom -5600.372744 kJ/mol
# Density = 2.433753 g / cm^3
# Si number density = 24.393052 Si / 1000 Ang^3
#
#
#
# Elastic Constant Matrix: (Units=GPa)
#
#
# Indices 1 2 3 4 5 6 
#
# 1 152.4901 28.7353 15.0197 0.0000 0.0000 0.0000
# 2 28.7353 152.4901 15.0197 0.0000 0.0000 0.0000
# 3 15.0197 15.0197 41.9913 0.0000 0.0000 0.0000
# 4 0.0000 0.0000 0.0000 29.2847 0.0000 0.0000
# 5 0.0000 0.0000 0.0000 0.0000 29.2847 0.0000
# 6 0.0000 0.0000 0.0000 0.0000 0.0000 42.7201
#
#
#
# Elastic Compliance Matrix: (Units=1/GPa)
#
#
# Indices 1 2 3 4 5 6 
#
# 1 0.006973 -0.001107 -0.002098 0.000000 0.000000 0.000000
# 2 -0.001107 0.006973 -0.002098 0.000000 0.000000 0.000000
# 3 -0.002098 -0.002098 0.025315 0.000000 0.000000 0.000000
# 4 0.000000 0.000000 0.000000 0.034148 0.000000 0.000000
# 5 0.000000 0.000000 0.000000 0.000000 0.034148 0.000000
# 6 0.000000 0.000000 0.000000 0.000000 0.000000 0.023408
#
#
# Mechanical properties :
#
#
# Convention : Reuss Voigt Hill
#
# Bulk Modulus (GPa) = 34.89853 51.61341 43.25597
# Shear Modulus (GPa) = 33.08554 39.47102 36.27828
#
# Velocity S-wave (km/s) = 3.68686 4.02696 3.86066
# Velocity P-wave (km/s) = 5.69752 6.54422 6.13549
#
# Compressibility (1/GPa) = 0.02865450
#
# Stress axis : x y z
#
# Youngs Moduli (GPa) = 143.40760 143.40760 39.50172
#
# Poissons Ratio (x) = 0.15880 0.08288
# Poissons Ratio (y) = 0.15880 0.08288
# Poissons Ratio (z) = 0.30088 0.30088
#
# Static dielectric constant tensor:
#      x y z
#    x 1.935440 0.000000 0.000000 
#    y 0.000000 1.935440 0.000000 
#    z 0.000000 0.000000 1.953560 
# 
# From -- ./inp_files/1413.got.cif
#   From: 2010.05.17/outbox.cif.g08.bks.cpg/sg118_1_cif.got.tgz:1413.got - 2010.05.20 11:17:24.
