data_PCOD9558281
_publ_section_title
;
Structure prediction by ZEFSAII (Michael W. Deem and Ramdas Pophale) SiO2 
 PCOD9558281
Probable space group: P -4 B 2
;
_chemical_formula_sum "Si O2"
_cell_formula_units_Z 58
_cell_length_a 18.226115
_cell_length_b 18.226115
_cell_length_c 8.586651
_cell_angle_alpha 90.000000
_cell_angle_beta 90.000000
_cell_angle_gamma 90.000000
_cell_volume 2852.410484
_symmetry_space_group_name_H-M "P -4 B 2"
_symmetry_group_IT_number 117
_symmetry_cell_setting 'tetragonal'
loop_
_space_group_symop_operation_xyz
x,y,z
y,-x,-z
-x,-y,z
-y,x,-z
1/2+y,1/2+x,-z
1/2-y,1/2-x,-z
1/2-x,1/2+y,z
1/2+x,1/2-y,z
loop_
_atom_site_type_symbol
_atom_site_label
_atom_site_fract_x
_atom_site_fract_y
_atom_site_fract_z
Si Si1 0.892249 0.146163 0.646619
Si Si2 0.500000 0.000000 0.500000
Si Si3 0.827560 0.295922 0.668320
Si Si4 0.851492 0.490763 0.410011
Si Si5 0.047003 0.889526 0.963780
Si Si6 0.571441 0.760666 0.131713
Si Si7 0.505711 0.112530 0.940173
Si Si8 0.212789 0.987627 0.569400
O O1 0.843396 0.212574 0.717343
O O2 0.949053 0.125953 0.781151
O O3 0.842606 0.077524 0.601920
O O4 0.940588 0.173198 0.501531
O O5 0.498502 0.087083 0.456022
O O6 0.788642 0.288642 0.500000
O O7 0.792217 0.352442 0.792762
O O8 0.907333 0.327307 0.620576
O O9 0.887350 0.511571 0.246138
O O10 0.777998 0.533717 0.451479
O O11 0.078240 0.820099 0.057698
O O12 0.963340 0.906468 0.009030
O O13 0.515814 0.752475 0.275631
O O14 0.530974 0.812991 0.005795
O O15 0.447472 0.052529 0.000000
O O16 0.584664 0.084664 0.000000
#
# Coordination Sequence:
#
# PCOD9558281 Si02
#       8
#     8   2   8   8   8   8   8   8
#     4  11  25  44  69 104 130 176 230 282 349 404
#     4  12  20  36  70  92 132 184 238 268 340 392
#     4  11  21  41  67  97 131 175 223 271 337 414
#     4  11  22  39  63  98 132 179 225 284 329 402
#     4  11  26  45  70  98 135 175 229 286 340 405
#     4  12  22  44  67  97 135 183 219 275 346 413
#     4  11  24  38  64 100 138 180 230 274 333 414
#     4  11  25  44  70  97 134 173 233 289 338 413
#
# _framework density 20.333679
#
# number of rings (size 3 to 8) (size 9 to 14) (size 15 to 20)
#    0.000    0.828    6.207    2.483    3.862    0.276 
#    1.241    1.379    0.000    0.000    0.000    0.000 
#    0.000    0.000    0.000    0.000    0.000    0.000 
#
# Total GULP energy -323255.255876 kJ/mol
# GULP energy per Si atom -5573.366481 kJ/mol
# Density = 2.028740 g / cm^3
# Si number density = 20.333679 Si / 1000 Ang^3
#
#
#
# Elastic Constant Matrix: (Units=GPa)
#
#
# Indices 1 2 3 4 5 6 
#
# 1 88.7148 36.1741 12.5441 0.0000 0.0000 0.0000
# 2 36.1741 88.7139 12.5437 0.0000 0.0000 0.0000
# 3 12.5441 12.5437 74.1248 0.0000 0.0000 0.0000
# 4 0.0000 0.0000 0.0000 26.1402 0.0000 0.0000
# 5 0.0000 0.0000 0.0000 0.0000 26.1384 0.0000
# 6 0.0000 0.0000 0.0000 0.0000 0.0000 22.9145
#
#
#
# Elastic Compliance Matrix: (Units=1/GPa)
#
#
# Indices 1 2 3 4 5 6 
#
# 1 0.013661 -0.005372 -0.001403 0.000000 0.000000 0.000000
# 2 -0.005372 0.013661 -0.001403 0.000000 0.000000 0.000000
# 3 -0.001403 -0.001403 0.013966 0.000000 0.000000 0.000000
# 4 0.000000 0.000000 0.000000 0.038255 0.000000 0.000000
# 5 0.000000 0.000000 0.000000 0.000000 0.038258 0.000000
# 6 0.000000 0.000000 0.000000 0.000000 0.000000 0.043641
#
#
# Mechanical properties :
#
#
# Convention : Reuss Voigt Hill
#
# Bulk Modulus (GPa) = 40.10823 41.56413 40.83618
# Shear Modulus (GPa) = 26.86628 27.72473 27.29551
#
# Velocity S-wave (km/s) = 3.63887 3.69655 3.66782
# Velocity P-wave (km/s) = 6.11744 6.22131 6.16959
#
# Compressibility (1/GPa) = 0.02493254
#
# Stress axis : x y z
#
# Youngs Moduli (GPa) = 73.20157 73.20094 71.60499
#
# Poissons Ratio (x) = 0.39324 0.10044
# Poissons Ratio (y) = 0.39324 0.10044
# Poissons Ratio (z) = 0.10268 0.10268
#
# Static dielectric constant tensor:
#      x y z
#    x 1.730990 0.000000 0.000000 
#    y 0.000000 1.730990 0.000000 
#    z 0.000000 0.000000 1.824990 
# 
# From -- ./inp_files/2078.got.cif
#   From: 2010.05.17/outbox.cif.g08.bks.cpg/sg117_2_cif.got.tgz:2078.got - 2010.05.20 11:15:09.
