data_PCOD9558390
_publ_section_title
;
Structure prediction by ZEFSAII (Michael W. Deem and Ramdas Pophale) SiO2 
 PCOD9558390
Probable space group: P -4 N 2
;
_chemical_formula_sum "Si O2"
_cell_formula_units_Z 40
_cell_length_a 13.070270
_cell_length_b 13.070270
_cell_length_c 13.273955
_cell_angle_alpha 90.000000
_cell_angle_beta 90.000000
_cell_angle_gamma 90.000000
_cell_volume 2267.615721
_symmetry_space_group_name_H-M "P -4 N 2"
_symmetry_group_IT_number 118
_symmetry_cell_setting 'tetragonal'
loop_
_space_group_symop_operation_xyz
x,y,z
y,-x,-z
-x,-y,z
-y,x,-z
1/2+y,1/2+x,1/2-z
1/2-y,1/2-x,1/2-z
1/2-x,1/2+y,1/2+z
1/2+x,1/2-y,1/2+z
loop_
_atom_site_type_symbol
_atom_site_label
_atom_site_fract_x
_atom_site_fract_y
_atom_site_fract_z
Si Si1 0.883385 0.126835 0.501072
Si Si2 0.239606 0.603840 0.820868
Si Si3 0.803231 0.289603 0.133641
Si Si4 0.600354 0.942344 0.025580
Si Si5 0.579324 0.222987 0.318659
O O1 0.850436 0.173192 0.608427
O O2 0.832735 0.195900 0.413397
O O3 0.006785 0.139768 0.502456
O O4 0.188562 0.688562 0.750000
O O5 0.148684 0.569578 0.896974
O O6 0.271741 0.507561 0.752755
O O7 0.819094 0.319094 0.250000
O O8 0.795768 0.166633 0.136903
O O9 0.890060 0.334441 0.061937
O O10 0.500000 0.000000 0.987855
O O11 0.666081 0.020640 0.091987
O O12 0.640987 0.140987 0.250000
#
# Coordination Sequence:
#
# PCOD9558390 Si02
#       5
#     8   8   8   8   8
#     4  10  20  35  55  77 109 145 178 220 271 330
#     4   9  18  32  57  86 102 132 187 232 265 308
#     4  10  22  35  52  80 111 147 175 216 276 333
#     4  10  19  32  56  84 106 136 186 231 263 310
#     4  10  17  32  58  81 103 137 179 230 270 312
#
# _framework density 17.639673999999999
#
# number of rings (size 3 to 8) (size 9 to 14) (size 15 to 20)
#    0.000    2.200    2.000    2.400    2.800    0.400 
#    0.000    6.000    0.000    5.400    0.000    0.000 
#    0.000    0.000    0.000    0.000    0.000    0.000 
#
# Total GULP energy -223022.396117 kJ/mol
# GULP energy per Si atom -5575.559903 kJ/mol
# Density = 1.759952 g / cm^3
# Si number density = 17.639674 Si / 1000 Ang^3
#
#
#
# Elastic Constant Matrix: (Units=GPa)
#
#
# Indices 1 2 3 4 5 6 
#
# 1 55.1421 31.2277 46.6752 0.0000 0.0000 0.0000
# 2 31.2277 55.1421 46.6752 0.0000 0.0000 0.0000
# 3 46.6752 46.6752 111.4162 0.0000 0.0000 0.0000
# 4 0.0000 0.0000 0.0000 23.1877 0.0000 0.0000
# 5 0.0000 0.0000 0.0000 0.0000 23.1877 0.0000
# 6 0.0000 0.0000 0.0000 0.0000 0.0000 15.7522
#
#
#
# Elastic Compliance Matrix: (Units=1/GPa)
#
#
# Indices 1 2 3 4 5 6 
#
# 1 0.031487 -0.010329 -0.008864 0.000000 0.000000 0.000000
# 2 -0.010329 0.031487 -0.008864 0.000000 0.000000 0.000000
# 3 -0.008864 -0.008864 0.016402 0.000000 0.000000 0.000000
# 4 0.000000 0.000000 0.000000 0.043126 0.000000 0.000000
# 5 0.000000 0.000000 0.000000 0.000000 0.043126 0.000000
# 6 0.000000 0.000000 0.000000 0.000000 0.000000 0.063483
#
#
# Mechanical properties :
#
#
# Convention : Reuss Voigt Hill
#
# Bulk Modulus (GPa) = 42.98603 52.31742 47.65172
# Shear Modulus (GPa) = 17.06606 18.90032 17.98319
#
# Velocity S-wave (km/s) = 3.11381 3.27688 3.19638
# Velocity P-wave (km/s) = 6.11143 6.63631 6.37927
#
# Compressibility (1/GPa) = 0.02326337
#
# Stress axis : x y z
#
# Youngs Moduli (GPa) = 31.75905 31.75905 60.96853
#
# Poissons Ratio (x) = 0.32803 0.54041
# Poissons Ratio (y) = 0.32803 0.54041
# Poissons Ratio (z) = 0.28150 0.28150
#
# Static dielectric constant tensor:
#      x y z
#    x 1.606100 0.000000 0.000000 
#    y 0.000000 1.606100 0.000000 
#    z 0.000000 0.000000 1.603260 
# 
# From -- ./inp_files/3137.got.cif
#   From: 2010.05.17/outbox.cif.g08.bks.cpg/sg118_2_cif.got.tgz:3137.got - 2010.05.20 11:17:24.
