data_PCOD9558017
_publ_section_title
;
Structure prediction by ZEFSAII (Michael W. Deem and Ramdas Pophale) SiO2 
 PCOD9558017
Probable space group: P -4 C 2
;
_chemical_formula_sum "Si O2"
_cell_formula_units_Z 20
_cell_length_a 5.438578
_cell_length_b 5.438578
_cell_length_c 26.179816
_cell_angle_alpha 90.000000
_cell_angle_beta 90.000000
_cell_angle_gamma 90.000000
_cell_volume 774.350018
_symmetry_space_group_name_H-M "P -4 C 2"
_symmetry_group_IT_number 116
_symmetry_cell_setting 'tetragonal'
loop_
_space_group_symop_operation_xyz
x,y,z
y,-x,-z
-x,-y,z
-y,x,-z
y,x,1/2-z
-y,-x,1/2-z
-x,y,1/2+z
x,-y,1/2+z
loop_
_atom_site_type_symbol
_atom_site_label
_atom_site_fract_x
_atom_site_fract_y
_atom_site_fract_z
Si Si1 0.500000 0.500000 0.614850
Si Si2 0.141403 0.221804 0.460350
Si Si3 0.155202 0.748794 0.191737
O O1 0.338317 0.670055 0.577851
O O2 0.632064 0.700170 0.650902
O O3 0.892168 0.297928 0.492049
O O4 0.000000 0.000000 0.430718
O O5 0.250377 0.749624 0.250000
O O6 0.000000 0.500000 0.185682
O O7 0.000000 0.000000 0.185773
#
# Coordination Sequence:
#
# PCOD9558017 Si02
#       3
#     4   8   8
#     4  12  21  48  94 129 168 258 297 371 480 558
#     4   6  18  44  71 127 181 218 291 388 432 540
#     4  11  30  55  86 136 183 230 307 390 470 571
#
# _framework density 25.828115
#
# number of rings (size 3 to 8) (size 9 to 14) (size 15 to 20)
#    2.400    0.400    0.000    0.600   11.200    1.600 
#    7.200    0.000    0.000    4.800    0.000    0.000 
#    0.000    0.000    0.000    0.000    0.000    0.000 
#
# Total GULP energy -111445.275455 kJ/mol
# GULP energy per Si atom -5572.263773 kJ/mol
# Density = 2.576933 g / cm^3
# Si number density = 25.828115 Si / 1000 Ang^3
#
#
#
# Elastic Constant Matrix: (Units=GPa)
#
#
# Indices 1 2 3 4 5 6 
#
# 1 132.2956 73.4601 90.7180 0.0000 0.0000 0.0000
# 2 73.4601 132.2970 90.7184 0.0000 0.0000 0.0000
# 3 90.7180 90.7184 223.8985 0.0000 0.0000 0.0000
# 4 0.0000 0.0000 0.0000 437.2429 0.0000 0.0000
# 5 0.0000 0.0000 0.0000 0.0000 436.7187 0.0000
# 6 0.0000 0.0000 0.0000 0.0000 0.0000 65.7329
#
#
#
# Elastic Compliance Matrix: (Units=1/GPa)
#
#
# Indices 1 2 3 4 5 6 
#
# 1 0.012279 -0.004717 -0.003064 0.000000 0.000000 0.000000
# 2 -0.004717 0.012279 -0.003064 0.000000 0.000000 0.000000
# 3 -0.003064 -0.003064 0.006949 0.000000 0.000000 0.000000
# 4 0.000000 0.000000 0.000000 0.002287 0.000000 0.000000
# 5 0.000000 0.000000 0.000000 0.000000 0.002290 0.000000
# 6 0.000000 0.000000 0.000000 0.000000 0.000000 0.015213
#
#
# Mechanical properties :
#
#
# Convention : Reuss Voigt Hill
#
# Bulk Modulus (GPa) = 101.86082 110.92044 106.39063
# Shear Modulus (GPa) = 65.56545 203.51188 134.53866
#
# Velocity S-wave (km/s) = 5.04385 8.88627 7.22517
# Velocity P-wave (km/s) = 8.56995 12.17894 10.53021
#
# Compressibility (1/GPa) = 0.00981732
#
# Stress axis : x y z
#
# Youngs Moduli (GPa) = 81.43874 81.43971 143.90310
#
# Poissons Ratio (x) = 0.38417 0.44090
# Poissons Ratio (y) = 0.38417 0.44090
# Poissons Ratio (z) = 0.24952 0.24952
#
# Static dielectric constant tensor:
#      x y z
#    x 1.095110 0.000000 0.000000 
#    y 0.000000 1.095080 0.000000 
#    z 0.000000 0.000000 2.117640 
# 
# From -- ./inp_files/4240.got.cif
#   From: 2010.05.17/outbox.cif.g08.bks.cpg/sg116_3_cif.got.tgz:4240.got - 2010.05.20 11:11:43.
