data_PCOD9558048
_publ_section_title
;
Structure prediction by ZEFSAII (Michael W. Deem and Ramdas Pophale) SiO2 
 PCOD9558048
Probable space group: P -4 B 2
;
_chemical_formula_sum "Si O2"
_cell_formula_units_Z 22
_cell_length_a 13.606073
_cell_length_b 13.606073
_cell_length_c 5.005164
_cell_angle_alpha 90.000000
_cell_angle_beta 90.000000
_cell_angle_gamma 90.000000
_cell_volume 926.582099
_symmetry_space_group_name_H-M "P -4 B 2"
_symmetry_group_IT_number 117
_symmetry_cell_setting 'tetragonal'
loop_
_space_group_symop_operation_xyz
x,y,z
y,-x,-z
-x,-y,z
-y,x,-z
1/2+y,1/2+x,-z
1/2-y,1/2-x,-z
1/2-x,1/2+y,z
1/2+x,1/2-y,z
loop_
_atom_site_type_symbol
_atom_site_label
_atom_site_fract_x
_atom_site_fract_y
_atom_site_fract_z
Si Si1 0.268267 0.929064 0.586100
Si Si2 0.500000 0.000000 0.000000
Si Si3 0.144860 0.931854 0.072764
Si Si4 0.591915 0.908086 0.500000
O O1 0.354534 0.854534 0.500000
O O2 0.180101 0.923018 0.375311
O O3 0.307541 0.042339 0.597664
O O4 0.230797 0.898190 0.875664
O O5 0.525059 0.919423 0.772232
O O6 0.045149 0.875799 0.003114
#
# Coordination Sequence:
#
# PCOD9558048 Si02
#       4
#     8   2   8   4
#     4  12  23  43  72 105 136 170 224 289 339 389
#     4  10  16  34  56  82 132 190 192 222 342 436
#     4  11  26  49  69  91 137 193 225 262 337 412
#     4  11  22  36  66  98 140 176 198 273 350 411
#
# _framework density 23.743175000000001
#
# number of rings (size 3 to 8) (size 9 to 14) (size 15 to 20)
#    0.000    0.727    3.636    5.455    0.000    2.909 
#   19.636    0.000    0.000    0.000    0.000    0.000 
#    0.000    0.000    0.000    0.000    0.000    0.000 
#
# Total GULP energy -122489.969930 kJ/mol
# GULP energy per Si atom -5567.725906 kJ/mol
# Density = 2.368913 g / cm^3
# Si number density = 23.743175 Si / 1000 Ang^3
#
#
#
# Elastic Constant Matrix: (Units=GPa)
#
#
# Indices 1 2 3 4 5 6 
#
# 1 51.9971 27.7555 8.5027 0.0000 0.0000 0.0000
# 2 27.7555 51.9964 8.5035 0.0000 0.0000 0.0000
# 3 8.5027 8.5035 118.6816 0.0000 0.0000 0.0000
# 4 0.0000 0.0000 0.0000 30.2924 0.0000 0.0000
# 5 0.0000 0.0000 0.0000 0.0000 30.2915 0.0000
# 6 0.0000 0.0000 0.0000 0.0000 0.0000 12.5156
#
#
#
# Elastic Compliance Matrix: (Units=1/GPa)
#
#
# Indices 1 2 3 4 5 6 
#
# 1 0.026993 -0.014259 -0.000912 0.000000 0.000000 0.000000
# 2 -0.014259 0.026993 -0.000912 0.000000 0.000000 0.000000
# 3 -0.000912 -0.000912 0.008557 0.000000 0.000000 0.000000
# 4 0.000000 0.000000 0.000000 0.033012 0.000000 0.000000
# 5 0.000000 0.000000 0.000000 0.000000 0.033013 0.000000
# 6 0.000000 0.000000 0.000000 0.000000 0.000000 0.079901
#
#
# Mechanical properties :
#
#
# Convention : Reuss Voigt Hill
#
# Bulk Modulus (GPa) = 32.92270 34.68872 33.80571
# Shear Modulus (GPa) = 19.93944 26.48080 23.21012
#
# Velocity S-wave (km/s) = 2.90107 3.34324 3.12997
# Velocity P-wave (km/s) = 5.01177 5.43550 5.22793
#
# Compressibility (1/GPa) = 0.03037418
#
# Stress axis : x y z
#
# Youngs Moduli (GPa) = 37.04731 37.04672 116.86847
#
# Poissons Ratio (x) = 0.52826 0.10660
# Poissons Ratio (y) = 0.52827 0.10664
# Poissons Ratio (z) = 0.03379 0.03380
#
# Static dielectric constant tensor:
#      x y z
#    x 1.958150 0.000000 0.000000 
#    y 0.000000 1.958150 0.000000 
#    z 0.000000 0.000000 1.856780 
# 
# From -- ./inp_files/226.got.cif
#   From: 2010.05.17/outbox.cif.g08.bks.cpg/sg117_1_cif.got.tgz:226.got - 2010.05.20 11:15:09.
