data_PCOD9558329
_publ_section_title
;
Structure prediction by ZEFSAII (Michael W. Deem and Ramdas Pophale) SiO2 
 PCOD9558329
Probable space group: P -4 B 2
;
_chemical_formula_sum "Si O2"
_cell_formula_units_Z 42
_cell_length_a 14.073854
_cell_length_b 14.073854
_cell_length_c 9.494078
_cell_angle_alpha 90.000000
_cell_angle_beta 90.000000
_cell_angle_gamma 90.000000
_cell_volume 1880.523990
_symmetry_space_group_name_H-M "P -4 B 2"
_symmetry_group_IT_number 117
_symmetry_cell_setting 'tetragonal'
loop_
_space_group_symop_operation_xyz
x,y,z
y,-x,-z
-x,-y,z
-y,x,-z
1/2+y,1/2+x,-z
1/2-y,1/2-x,-z
1/2-x,1/2+y,z
1/2+x,1/2-y,z
loop_
_atom_site_type_symbol
_atom_site_label
_atom_site_fract_x
_atom_site_fract_y
_atom_site_fract_z
Si Si1 0.263498 0.214029 0.831507
Si Si2 0.000000 0.000000 0.500000
Si Si3 0.434391 0.907304 0.656208
Si Si4 0.261091 0.457493 0.169629
Si Si5 0.888346 0.110484 0.737592
Si Si6 0.001971 0.281997 0.145773
O O1 0.151740 0.215974 0.800483
O O2 0.321000 0.294696 0.746203
O O3 0.301213 0.107039 0.815240
O O4 0.267644 0.232357 0.000000
O O5 0.932716 0.931630 0.405304
O O6 0.394136 0.894136 0.500000
O O7 0.486609 0.813142 0.709060
O O8 0.352832 0.931231 0.768313
O O9 0.500000 0.000000 0.654719
O O10 0.354756 0.520922 0.174430
O O11 0.211542 0.476922 0.019866
O O12 0.824092 0.030514 0.809182
#
# Coordination Sequence:
#
# PCOD9558329 Si02
#       6
#     8   2   8   8   8   8
#     4  12  23  45  75 117 145 192 255 328 387 444
#     4  12  32  52  74 116 164 220 254 308 408 488
#     4  11  26  44  67 108 153 198 250 308 386 469
#     4  12  23  45  80 106 154 197 256 326 380 455
#     4  12  27  49  74 112 158 196 264 314 385 469
#     4  12  24  46  75 112 149 197 259 322 386 448
#
# _framework density 22.334199999999999
#
# number of rings (size 3 to 8) (size 9 to 14) (size 15 to 20)
#    0.000    0.190    5.714    2.857    2.667    0.762 
#    0.000    1.905    0.000    0.000    0.000    0.000 
#    0.000    0.000    0.000    0.000    0.000    0.000 
#
# Total GULP energy -234852.728947 kJ/mol
# GULP energy per Si atom -5591.731642 kJ/mol
# Density = 2.228337 g / cm^3
# Si number density = 22.334200 Si / 1000 Ang^3
#
#
#
# Elastic Constant Matrix: (Units=GPa)
#
#
# Indices 1 2 3 4 5 6 
#
# 1 102.7352 15.5483 23.9185 0.0000 0.0000 0.0000
# 2 15.5483 102.7347 23.9185 0.0000 0.0000 0.0000
# 3 23.9185 23.9185 123.8286 0.0000 0.0000 0.0000
# 4 0.0000 0.0000 0.0000 36.1316 0.0000 0.0000
# 5 0.0000 0.0000 0.0000 0.0000 36.1316 0.0000
# 6 0.0000 0.0000 0.0000 0.0000 0.0000 48.2590
#
#
#
# Elastic Compliance Matrix: (Units=1/GPa)
#
#
# Indices 1 2 3 4 5 6 
#
# 1 0.010320 -0.001149 -0.001771 0.000000 0.000000 0.000000
# 2 -0.001149 0.010320 -0.001771 0.000000 0.000000 0.000000
# 3 -0.001771 -0.001771 0.008760 0.000000 0.000000 0.000000
# 4 0.000000 0.000000 0.000000 0.027677 0.000000 0.000000
# 5 0.000000 0.000000 0.000000 0.000000 0.027677 0.000000
# 6 0.000000 0.000000 0.000000 0.000000 0.000000 0.020722
#
#
# Mechanical properties :
#
#
# Convention : Reuss Voigt Hill
#
# Bulk Modulus (GPa) = 49.96057 50.67437 50.31747
# Shear Modulus (GPa) = 41.14159 41.83199 41.48679
#
# Velocity S-wave (km/s) = 4.29661 4.33251 4.31460
# Velocity P-wave (km/s) = 6.85803 6.91129 6.88471
#
# Compressibility (1/GPa) = 0.02001579
#
# Stress axis : x y z
#
# Youngs Moduli (GPa) = 96.89790 96.89742 114.15525
#
# Poissons Ratio (x) = 0.11138 0.20221
# Poissons Ratio (y) = 0.11138 0.20221
# Poissons Ratio (z) = 0.17164 0.17164
#
# Static dielectric constant tensor:
#      x y z
#    x 1.869650 0.000000 0.000000 
#    y 0.000000 1.869650 0.000000 
#    z 0.000000 0.000000 1.795540 
# 
# From -- ./inp_files/1762.got.cif
#   From: 2010.05.17/outbox.cif.g08.bks.cpg/sg117_1_cif.got.tgz:1762.got - 2010.05.20 11:15:09.
