data_PCOD9558156
_publ_section_title
;
Structure prediction by ZEFSAII (Michael W. Deem and Ramdas Pophale) SiO2 
 PCOD9558156
Probable space group: P -4 B 2
;
_chemical_formula_sum "Si O2"
_cell_formula_units_Z 46
_cell_length_a 16.907709
_cell_length_b 16.907709
_cell_length_c 8.155902
_cell_angle_alpha 90.000000
_cell_angle_beta 90.000000
_cell_angle_gamma 90.000000
_cell_volume 2331.532791
_symmetry_space_group_name_H-M "P -4 B 2"
_symmetry_group_IT_number 117
_symmetry_cell_setting 'tetragonal'
loop_
_space_group_symop_operation_xyz
x,y,z
y,-x,-z
-x,-y,z
-y,x,-z
1/2+y,1/2+x,-z
1/2-y,1/2-x,-z
1/2-x,1/2+y,z
1/2+x,1/2-y,z
loop_
_atom_site_type_symbol
_atom_site_label
_atom_site_fract_x
_atom_site_fract_y
_atom_site_fract_z
Si Si1 0.344967 0.035107 0.791983
Si Si2 0.643862 0.734007 0.983269
Si Si3 0.000000 0.500000 0.000000
Si Si4 0.898021 0.191602 0.622024
Si Si5 0.685171 0.525218 0.633884
Si Si6 0.145742 0.645742 0.500000
Si Si7 0.412078 0.565241 0.914551
O O1 0.380423 0.094364 0.655315
O O2 0.419598 0.999516 0.889622
O O3 0.275434 0.982339 0.704053
O O4 0.292790 0.088103 0.915200
O O5 0.610196 0.728921 0.800934
O O6 0.730529 0.769472 0.000000
O O7 0.637160 0.646087 0.053338
O O8 0.844984 0.113982 0.621697
O O9 0.866124 0.260674 0.505524
O O10 0.983721 0.176656 0.543487
O O11 0.624542 0.479467 0.758152
O O12 0.502646 0.592112 0.931503
#
# Coordination Sequence:
#
# PCOD9558156 Si02
#       7
#     8   8   2   8   8   4   8
#     4  10  22  40  63  94 122 166 219 272 328 398
#     4  11  20  40  63  86 121 173 215 257 331 399
#     4  12  20  42  68  92 124 174 224 284 334 384
#     4  11  22  40  62  89 127 168 210 265 331 405
#     4  10  24  39  59  95 130 163 213 270 336 404
#     4  10  20  43  64  84 130 173 212 260 334 410
#     4  10  21  37  60  91 125 156 213 270 328 392
#
# _framework density 19.729509
#
# number of rings (size 3 to 8) (size 9 to 14) (size 15 to 20)
#    0.000    1.565    4.348    0.000    2.435    0.696 
#    1.565    5.217    0.000    0.000    0.000    0.000 
#    0.000    0.000    0.000    0.000    0.000    0.000 
#
# Total GULP energy -256360.508877 kJ/mol
# GULP energy per Si atom -5573.054541 kJ/mol
# Density = 1.968460 g / cm^3
# Si number density = 19.729509 Si / 1000 Ang^3
#
#
#
# Elastic Constant Matrix: (Units=GPa)
#
#
# Indices 1 2 3 4 5 6 
#
# 1 99.4649 45.1194 33.3632 0.0000 0.0000 0.0000
# 2 45.1194 99.4665 33.3636 0.0000 0.0000 0.0000
# 3 33.3632 33.3636 99.7453 0.0000 0.0000 0.0000
# 4 0.0000 0.0000 0.0000 28.4098 0.0000 0.0000
# 5 0.0000 0.0000 0.0000 0.0000 28.4088 0.0000
# 6 0.0000 0.0000 0.0000 0.0000 0.0000 33.7578
#
#
#
# Elastic Compliance Matrix: (Units=1/GPa)
#
#
# Indices 1 2 3 4 5 6 
#
# 1 0.013290 -0.005111 -0.002736 0.000000 0.000000 0.000000
# 2 -0.005111 0.013290 -0.002736 0.000000 0.000000 0.000000
# 3 -0.002736 -0.002736 0.011856 0.000000 0.000000 0.000000
# 4 0.000000 0.000000 0.000000 0.035199 0.000000 0.000000
# 5 0.000000 0.000000 0.000000 0.000000 0.035200 0.000000
# 6 0.000000 0.000000 0.000000 0.000000 0.000000 0.029623
#
#
# Mechanical properties :
#
#
# Convention : Reuss Voigt Hill
#
# Bulk Modulus (GPa) = 57.90205 58.04101 57.97153
# Shear Modulus (GPa) = 30.23363 30.57064 30.40213
#
# Velocity S-wave (km/s) = 3.91884 3.94062 3.92975
# Velocity P-wave (km/s) = 7.06315 7.08427 7.07372
#
# Compressibility (1/GPa) = 0.01727055
#
# Stress axis : x y z
#
# Youngs Moduli (GPa) = 75.24559 75.24672 84.34792
#
# Poissons Ratio (x) = 0.38457 0.23075
# Poissons Ratio (y) = 0.38457 0.23075
# Poissons Ratio (z) = 0.20585 0.20585
#
# Static dielectric constant tensor:
#      x y z
#    x 1.705610 0.000000 0.000000 
#    y 0.000000 1.705610 0.000000 
#    z 0.000000 0.000000 1.774530 
# 
# From -- ./inp_files/1978.got.cif
#   From: 2010.05.17/outbox.cif.g08.bks.cpg/sg117_1_cif.got.tgz:1978.got - 2010.05.20 11:15:09.
