data_PCOD9558369
_publ_section_title
;
Structure prediction by ZEFSAII (Michael W. Deem and Ramdas Pophale) SiO2 
 PCOD9558369
Probable space group: P -4 B 2
;
_chemical_formula_sum "Si O2"
_cell_formula_units_Z 60
_cell_length_a 12.000000
_cell_length_b 12.000000
_cell_length_c 21.000000
_cell_angle_alpha 90.000000
_cell_angle_beta 90.000000
_cell_angle_gamma 90.000000
_cell_volume 3024.000000
_symmetry_space_group_name_H-M "P -4 B 2"
_symmetry_group_IT_number 117
_symmetry_cell_setting 'tetragonal'
loop_
_space_group_symop_operation_xyz
x,y,z
y,-x,-z
-x,-y,z
-y,x,-z
1/2+y,1/2+x,-z
1/2-y,1/2-x,-z
1/2-x,1/2+y,z
1/2+x,1/2-y,z
loop_
_atom_site_type_symbol
_atom_site_label
_atom_site_fract_x
_atom_site_fract_y
_atom_site_fract_z
Si Si1 0.963773 0.279589 0.322548
Si Si2 0.392676 0.647856 0.503706
Si Si3 0.914505 0.797988 0.086145
Si Si4 0.500000 0.000000 0.251351
Si Si5 0.226387 0.280002 0.607696
Si Si6 0.615602 0.437814 0.798636
Si Si7 0.053443 0.723202 0.967068
Si Si8 0.185265 0.409879 0.154989
O O1 0.950937 0.403355 0.295177
O O2 0.840901 0.254544 0.357475
O O3 0.961308 0.195742 0.261723
O O4 0.095359 0.281236 0.354360
O O5 0.520680 0.641429 0.479450
O O6 0.313166 0.682856 0.445519
O O7 0.376440 0.736296 0.561906
O O8 0.839220 0.897321 0.059021
O O9 0.838944 0.711103 0.125082
O O10 0.008666 0.836244 0.136058
O O11 0.966709 0.742173 0.023783
O O12 0.594128 0.055226 0.206838
O O13 0.500000 0.500000 0.785472
O O14 0.593201 0.307519 0.813159
O O15 0.995007 0.673336 0.904467
O O16 0.149523 0.649523 0.000000
#
# Coordination Sequence:
#
# PCOD9558369 Si02
#       8
#     8   8   8   4   8   8   8   8
#     4  12  28  47  74 108 150 198 251 303 368 442
#     4  10  22  46  78 112 155 196 242 304 364 436
#     4  12  25  45  64 102 132 177 235 303 377 447
#     4  12  28  46  71 101 150 186 242 304 374 440
#     4  11  25  47  73 116 149 199 249 305 362 440
#     4  12  27  47  73  99 140 190 243 302 363 448
#     4  12  25  41  70  95 132 175 235 307 376 455
#     4  12  26  47  68 100 138 187 238 306 382 450
#
# _framework density 19.841270000000002
#
# number of rings (size 3 to 8) (size 9 to 14) (size 15 to 20)
#    0.000    0.400    4.000    4.400    5.600    1.600 
#    0.000    0.000    0.000    0.000    0.000    0.000 
#    0.000    0.000    0.000    0.000    0.000    0.000 
#
# Total GULP energy -334476.113617 kJ/mol
# GULP energy per Si atom -5574.601894 kJ/mol
# Density = 1.979611 g / cm^3
# Si number density = 19.841270 Si / 1000 Ang^3
#
#
#
# Elastic Constant Matrix: (Units=GPa)
#
#
# Indices 1 2 3 4 5 6 
#
# 1 98.5069 14.8235 31.0659 0.0000 0.0000 0.0000
# 2 14.8235 98.5069 31.0659 0.0000 0.0000 0.0000
# 3 31.0659 31.0659 94.9297 0.0000 0.0000 0.0000
# 4 0.0000 0.0000 0.0000 38.8830 0.0000 0.0000
# 5 0.0000 0.0000 0.0000 0.0000 38.8830 0.0000
# 6 0.0000 0.0000 0.0000 0.0000 0.0000 34.8053
#
#
#
# Elastic Compliance Matrix: (Units=1/GPa)
#
#
# Indices 1 2 3 4 5 6 
#
# 1 0.011351 -0.000598 -0.003519 0.000000 0.000000 0.000000
# 2 -0.000598 0.011351 -0.003519 0.000000 0.000000 0.000000
# 3 -0.003519 -0.003519 0.012837 0.000000 0.000000 0.000000
# 4 0.000000 0.000000 0.000000 0.025718 0.000000 0.000000
# 5 0.000000 0.000000 0.000000 0.000000 0.025718 0.000000
# 6 0.000000 0.000000 0.000000 0.000000 0.000000 0.028731
#
#
# Mechanical properties :
#
#
# Convention : Reuss Voigt Hill
#
# Bulk Modulus (GPa) = 49.34011 49.53933 49.43972
# Shear Modulus (GPa) = 36.30134 36.84682 36.57408
#
# Velocity S-wave (km/s) = 4.28201 4.31406 4.29806
# Velocity P-wave (km/s) = 7.02630 7.05952 7.04293
#
# Compressibility (1/GPa) = 0.02026749
#
# Stress axis : x y z
#
# Youngs Moduli (GPa) = 88.09505 88.09505 77.89833
#
# Poissons Ratio (x) = 0.05272 0.27412
# Poissons Ratio (y) = 0.05272 0.27412
# Poissons Ratio (z) = 0.31000 0.31000
#
# Static dielectric constant tensor:
#      x y z
#    x 1.728560 0.000000 0.000000 
#    y 0.000000 1.728560 0.000000 
#    z 0.000000 0.000000 1.702810 
# 
# From -- ./inp_files/3502.got.cif
#   From: 2010.05.17/outbox.ucp.g08.bks.cvg/sg117_2_cif.got.tgz:3502.got - 2010.06.11 11:34:02.
