data_PCOD9558738
_publ_section_title
;
Structure prediction by ZEFSAII (Michael W. Deem and Ramdas Pophale) SiO2 
 PCOD9558738
Probable space group: P -4 N 2
;
_chemical_formula_sum "Si O2"
_cell_formula_units_Z 28
_cell_length_a 9.719683
_cell_length_b 9.719683
_cell_length_c 15.305388
_cell_angle_alpha 90.000000
_cell_angle_beta 90.000000
_cell_angle_gamma 90.000000
_cell_volume 1445.934252
_symmetry_space_group_name_H-M "P -4 N 2"
_symmetry_group_IT_number 118
_symmetry_cell_setting 'tetragonal'
loop_
_space_group_symop_operation_xyz
x,y,z
y,-x,-z
-x,-y,z
-y,x,-z
1/2+y,1/2+x,1/2-z
1/2-y,1/2-x,1/2-z
1/2-x,1/2+y,1/2+z
1/2+x,1/2-y,1/2+z
loop_
_atom_site_type_symbol
_atom_site_label
_atom_site_fract_x
_atom_site_fract_y
_atom_site_fract_z
Si Si1 0.212213 0.287788 0.750000
Si Si2 0.262968 0.787168 0.957536
Si Si3 0.158258 0.050379 0.883159
Si Si4 0.335130 0.993442 0.407955
O O1 0.195756 0.145690 0.801712
O O2 0.199945 0.409554 0.820746
O O3 0.226034 0.645411 0.911112
O O4 0.252667 0.916558 0.893450
O O5 0.146338 0.818088 0.031520
O O6 0.405857 0.781909 0.009338
O O7 0.000000 0.000000 0.879126
O O8 0.500000 0.000000 0.414662
#
# Coordination Sequence:
#
# PCOD9558738 Si02
#       4
#     4   8   8   8
#     4  10  25  40  66  97 136 164 223 270 335 384
#     4  11  20  39  73  92 125 172 229 261 317 394
#     4  11  19  41  69  95 120 177 220 266 315 397
#     4  11  22  41  68  99 129 173 222 276 323 393
#
# _framework density 19.364642
#
# number of rings (size 3 to 8) (size 9 to 14) (size 15 to 20)
#    0.000    1.143    5.714    2.143    0.000    0.571 
#   10.286    0.000    6.286    0.000    0.000    0.000 
#    0.000    0.000    0.000    0.000    0.000    0.000 
#
# Total GULP energy -156551.644839 kJ/mol
# GULP energy per Si atom -5591.130173 kJ/mol
# Density = 1.932057 g / cm^3
# Si number density = 19.364642 Si / 1000 Ang^3
#
#
#
# Elastic Constant Matrix: (Units=GPa)
#
#
# Indices 1 2 3 4 5 6 
#
# 1 118.4029 19.4090 49.1098 0.0000 0.0000 0.0000
# 2 19.4090 118.4026 49.1094 0.0000 0.0000 0.0000
# 3 49.1098 49.1094 91.1215 0.0000 0.0000 0.0000
# 4 0.0000 0.0000 0.0000 -205.6768 0.0000 0.0000
# 5 0.0000 0.0000 0.0000 0.0000 -205.7902 0.0000
# 6 0.0000 0.0000 0.0000 0.0000 0.0000 20.5054
#
#
#
# Elastic Compliance Matrix: (Units=1/GPa)
#
#
# Indices 1 2 3 4 5 6 
#
# 1 0.010942 0.000840 -0.006350 0.000000 0.000000 0.000000
# 2 0.000840 0.010942 -0.006350 0.000000 0.000000 0.000000
# 3 -0.006350 -0.006350 0.017819 0.000000 0.000000 0.000000
# 4 0.000000 0.000000 0.000000 -0.004862 0.000000 0.000000
# 5 0.000000 0.000000 0.000000 0.000000 -0.004859 0.000000
# 6 0.000000 0.000000 0.000000 0.000000 0.000000 0.048768
#
#
# Mechanical properties :
#
#
# Convention : Reuss Voigt Hill
#
# Bulk Modulus (GPa) = 62.56541 62.57593 62.57067
# Shear Modulus (GPa) = 46.38432 -64.17240 -8.89404
#
# Velocity S-wave (km/s) = 4.89950 -5.76289 -2.14544
# Velocity P-wave (km/s) = 8.02409 3.44913 5.12296
#
# Compressibility (1/GPa) = 0.01598327
#
# Stress axis : x y z
#
# Youngs Moduli (GPa) = 91.39328 91.39346 56.12078
#
# Poissons Ratio (x) = -0.07678 0.35635
# Poissons Ratio (y) = -0.07678 0.35635
# Poissons Ratio (z) = 0.58033 0.58032
#
# Static dielectric constant tensor:
#      x y z
#    x 1.665550 0.000000 0.000000 
#    y 0.000000 1.665550 0.000000 
#    z 0.000000 0.000000 1.665350 
# 
# From -- ./inp_files/4577.got.cif
#   From: 2010.05.17/outbox.cif.g08.bks.cpg/sg118_3_cif.got.tgz:4577.got - 2010.05.20 11:17:24.
