data_PCOD9558922
_publ_section_title
;
Structure prediction by ZEFSAII (Michael W. Deem and Ramdas Pophale) SiO2 
 PCOD9558922
Probable space group: P -4 N 2
;
_chemical_formula_sum "Si O2"
_cell_formula_units_Z 20
_cell_length_a 5.179447
_cell_length_b 5.179447
_cell_length_c 31.975129
_cell_angle_alpha 90.000000
_cell_angle_beta 90.000000
_cell_angle_gamma 90.000000
_cell_volume 857.786273
_symmetry_space_group_name_H-M "P -4 N 2"
_symmetry_group_IT_number 118
_symmetry_cell_setting 'tetragonal'
loop_
_space_group_symop_operation_xyz
x,y,z
y,-x,-z
-x,-y,z
-y,x,-z
1/2+y,1/2+x,1/2-z
1/2-y,1/2-x,1/2-z
1/2-x,1/2+y,1/2+z
1/2+x,1/2-y,1/2+z
loop_
_atom_site_type_symbol
_atom_site_label
_atom_site_fract_x
_atom_site_fract_y
_atom_site_fract_z
Si Si1 0.500000 0.500000 0.500000
Si Si2 0.000000 0.000000 0.808668
Si Si3 0.500000 0.000000 0.250000
Si Si4 0.134067 0.746165 0.377612
Si Si5 0.500000 0.000000 0.446109
O O1 0.419983 0.246258 0.473622
O O2 0.024260 0.751968 0.779161
O O3 0.780580 0.906890 0.840899
O O4 0.000000 0.500000 0.399116
O O5 0.291919 0.884395 0.414148
O O6 0.000000 0.000000 0.357583
#
# Coordination Sequence:
#
# PCOD9558922 Si02
#       5
#     2   4   2   8   4
#     4  12  30  48  84 116 176 212 260 352 408 476
#     4  12  29  52  72 125 152 214 270 329 408 474
#     4  12  30  48  84 112 178 206 260 350 406 472
#     4  12  26  50  85 110 154 216 270 334 390 500
#     4  12  29  52  74 125 156 214 274 329 412 474
#
# _framework density 23.315833999999999
#
# number of rings (size 3 to 8) (size 9 to 14) (size 15 to 20)
#    0.000    0.000    0.000    9.600   16.800    0.000 
#    0.000    0.000    0.000    0.000    0.000    0.000 
#    0.000    0.000    0.000    0.000    0.000    0.000 
#
# Total GULP energy -111646.141981 kJ/mol
# GULP energy per Si atom -5582.307099 kJ/mol
# Density = 2.326277 g / cm^3
# Si number density = 23.315834 Si / 1000 Ang^3
#
#
#
# Elastic Constant Matrix: (Units=GPa)
#
#
# Indices 1 2 3 4 5 6 
#
# 1 194.7367 81.8647 67.7103 0.0000 0.0000 0.0000
# 2 81.8647 194.7367 67.7103 0.0000 0.0000 0.0000
# 3 67.7103 67.7103 121.9180 0.0000 0.0000 0.0000
# 4 0.0000 0.0000 0.0000-3340.4864 0.0000 0.0000
# 5 0.0000 0.0000 0.0000 0.0000-3340.4864 0.0000
# 6 0.0000 0.0000 0.0000 0.0000 0.0000 58.8570
#
#
#
# Elastic Compliance Matrix: (Units=1/GPa)
#
#
# Indices 1 2 3 4 5 6 
#
# 1 0.006913 -0.001947 -0.002758 0.000000 0.000000 0.000000
# 2 -0.001947 0.006913 -0.002758 0.000000 0.000000 0.000000
# 3 -0.002758 -0.002758 0.011265 0.000000 0.000000 0.000000
# 4 0.000000 0.000000 0.000000 -0.000299 0.000000 0.000000
# 5 0.000000 0.000000 0.000000 0.000000 -0.000299 0.000000
# 6 0.000000 0.000000 0.000000 0.000000 0.000000 0.016990
#
#
# Mechanical properties :
#
#
# Convention : Reuss Voigt Hill
#
# Bulk Modulus (GPa) = 98.37214 105.10687 101.73950
# Shear Modulus (GPa) = 83.61850 -1304.81609 -610.59879
#
# Velocity S-wave (km/s) = 5.99510 -23.68209 -16.20031
# Velocity P-wave (km/s) = 9.49760 26.50681 17.49867
#
# Compressibility (1/GPa) = 0.01016548
#
# Stress axis : x y z
#
# Youngs Moduli (GPa) = 144.66509 144.66509 88.76790
#
# Poissons Ratio (x) = 0.28167 0.24479
# Poissons Ratio (y) = 0.28167 0.24479
# Poissons Ratio (z) = 0.39894 0.39894
#
# Static dielectric constant tensor:
#      x y z
#    x 2.065560 0.000000 0.000000 
#    y 0.000000 2.065560 0.000000 
#    z 0.000000 0.000000 1.901640 
# 
# From -- ./inp_files/6301.got.cif
#   From: 2010.05.17/outbox.cif.g08.bks.cpg/sg118_4_cif.got.tgz:6301.got - 2010.05.20 11:17:24.
