data_PCOD9558569
_publ_section_title
;
Structure prediction by ZEFSAII (Michael W. Deem and Ramdas Pophale) SiO2 
 PCOD9558569
Probable space group: P -4 N 2
;
_chemical_formula_sum "Si O2"
_cell_formula_units_Z 56
_cell_length_a 15.973054
_cell_length_b 15.973054
_cell_length_c 11.452210
_cell_angle_alpha 90.000000
_cell_angle_beta 90.000000
_cell_angle_gamma 90.000000
_cell_volume 2921.899155
_symmetry_space_group_name_H-M "P -4 N 2"
_symmetry_group_IT_number 118
_symmetry_cell_setting 'tetragonal'
loop_
_space_group_symop_operation_xyz
x,y,z
y,-x,-z
-x,-y,z
-y,x,-z
1/2+y,1/2+x,1/2-z
1/2-y,1/2-x,1/2-z
1/2-x,1/2+y,1/2+z
1/2+x,1/2-y,1/2+z
loop_
_atom_site_type_symbol
_atom_site_label
_atom_site_fract_x
_atom_site_fract_y
_atom_site_fract_z
Si Si1 0.317399 0.791251 0.115678
Si Si2 0.500895 0.261505 0.045814
Si Si3 0.463180 0.409442 0.194790
Si Si4 0.572342 0.262103 0.547686
Si Si5 0.808259 0.914989 0.089561
Si Si6 0.412781 0.734074 0.811961
Si Si7 0.191771 0.736559 0.579947
O O1 0.295393 0.795393 0.250000
O O2 0.416310 0.773025 0.108432
O O3 0.294416 0.874954 0.042288
O O4 0.262087 0.719630 0.051472
O O5 0.497045 0.360511 0.080884
O O6 0.408459 0.232553 0.084531
O O7 0.522896 0.237731 0.912003
O O8 0.500000 0.500000 0.216007
O O9 0.469293 0.344440 0.303140
O O10 0.365095 0.426737 0.189484
O O11 0.478051 0.274670 0.506696
O O12 0.617826 0.353197 0.547090
O O13 0.576602 0.231403 0.681928
O O14 0.735725 0.848459 0.121512
O O15 0.316052 0.733505 0.853838
#
# Coordination Sequence:
#
# PCOD9558569 Si02
#       7
#     8   8   8   8   8   8   8
#     4  10  21  38  59  86 122 156 206 258 308 361
#     4  10  21  36  59  84 117 160 201 253 301 363
#     4  10  22  32  54  85 119 155 190 251 301 359
#     4  10  22  37  58  86 118 161 198 257 311 371
#     4  10  22  38  58  84 120 158 200 250 307 376
#     4   9  21  36  57  82 119 158 201 243 304 373
#     4   9  21  40  60  84 120 167 204 243 310 380
#
# _framework density 19.165616
#
# number of rings (size 3 to 8) (size 9 to 14) (size 15 to 20)
#    0.000    2.286    0.000    0.857   10.000   15.429 
#    0.000    0.714    0.000    0.857    0.000    6.000 
#    0.000    0.000    0.000    0.000    0.000    0.000 
#
# Total GULP energy -312034.459734 kJ/mol
# GULP energy per Si atom -5572.043924 kJ/mol
# Density = 1.912199 g / cm^3
# Si number density = 19.165616 Si / 1000 Ang^3
#
#
#
# Elastic Constant Matrix: (Units=GPa)
#
#
# Indices 1 2 3 4 5 6 
#
# 1 76.3261 35.7894 23.7461 0.0000 0.0000 0.0000
# 2 35.7894 76.3261 23.7461 0.0000 0.0000 0.0000
# 3 23.7461 23.7461 97.1748 0.0000 0.0000 0.0000
# 4 0.0000 0.0000 0.0000 20.6170 0.0000 0.0000
# 5 0.0000 0.0000 0.0000 0.0000 20.6170 0.0000
# 6 0.0000 0.0000 0.0000 0.0000 0.0000 14.2533
#
#
#
# Elastic Compliance Matrix: (Units=1/GPa)
#
#
# Indices 1 2 3 4 5 6 
#
# 1 0.017309 -0.007360 -0.002431 0.000000 0.000000 0.000000
# 2 -0.007360 0.017309 -0.002431 0.000000 0.000000 0.000000
# 3 -0.002431 -0.002431 0.011479 0.000000 0.000000 0.000000
# 4 0.000000 0.000000 0.000000 0.048504 0.000000 0.000000
# 5 0.000000 0.000000 0.000000 0.000000 0.048504 0.000000
# 6 0.000000 0.000000 0.000000 0.000000 0.000000 0.070159
#
#
# Mechanical properties :
#
#
# Convention : Reuss Voigt Hill
#
# Bulk Modulus (GPa) = 46.18409 46.26556 46.22482
# Shear Modulus (GPa) = 20.41433 22.20049 21.30741
#
# Velocity S-wave (km/s) = 3.26721 3.40715 3.33791
# Velocity P-wave (km/s) = 6.19537 6.29845 6.24712
#
# Compressibility (1/GPa) = 0.02165248
#
# Stress axis : x y z
#
# Youngs Moduli (GPa) = 57.77303 57.77303 87.11593
#
# Poissons Ratio (x) = 0.42520 0.21180
# Poissons Ratio (y) = 0.42520 0.21180
# Poissons Ratio (z) = 0.14046 0.14046
#
# Static dielectric constant tensor:
#      x y z
#    x 1.691860 0.000000 0.000000 
#    y 0.000000 1.691860 0.000000 
#    z 0.000000 0.000000 1.804690 
# 
# From -- ./inp_files/3431.got.cif
#   From: 2010.05.17/outbox.cif.g08.bks.cpg/sg118_2_cif.got.tgz:3431.got - 2010.05.20 11:17:24.
