data_PCOD9558723
_publ_section_title
;
Structure prediction by ZEFSAII (Michael W. Deem and Ramdas Pophale) SiO2 
 PCOD9558723
Probable space group: P -4 N 2
;
_chemical_formula_sum "Si O2"
_cell_formula_units_Z 32
_cell_length_a 10.842039
_cell_length_b 10.842039
_cell_length_c 11.460232
_cell_angle_alpha 90.000000
_cell_angle_beta 90.000000
_cell_angle_gamma 90.000000
_cell_volume 1347.148090
_symmetry_space_group_name_H-M "P -4 N 2"
_symmetry_group_IT_number 118
_symmetry_cell_setting 'tetragonal'
loop_
_space_group_symop_operation_xyz
x,y,z
y,-x,-z
-x,-y,z
-y,x,-z
1/2+y,1/2+x,1/2-z
1/2-y,1/2-x,1/2-z
1/2-x,1/2+y,1/2+z
1/2+x,1/2-y,1/2+z
loop_
_atom_site_type_symbol
_atom_site_label
_atom_site_fract_x
_atom_site_fract_y
_atom_site_fract_z
Si Si1 0.495939 0.754066 0.136268
Si Si2 0.500000 0.000000 0.750000
Si Si3 0.106226 0.244462 0.886585
Si Si4 0.500000 0.500000 0.000000
Si Si5 0.275150 0.224851 0.250000
Si Si6 0.990826 0.760139 0.139114
O O1 0.375860 0.826490 0.090305
O O2 0.479550 0.764944 0.275488
O O3 0.488533 0.620088 0.080330
O O4 0.638942 0.796652 0.134264
O O5 0.383332 0.002574 0.833825
O O6 0.184204 0.126494 0.841638
O O7 0.042363 0.210333 0.006475
O O8 0.129441 0.204959 0.217168
#
# Coordination Sequence:
#
# PCOD9558723 Si02
#       6
#     8   2   8   2   4   8
#     4  11  25  43  67 101 139 181 233 290 354 416
#     4  10  24  44  72 104 144 188 236 286 356 422
#     4  11  25  42  66 100 140 181 230 291 354 418
#     4  12  24  44  72 102 140 188 240 296 348 422
#     4  11  24  44  70 101 136 182 234 289 350 420
#     4  11  24  44  70 102 140 184 233 289 351 422
#
# _framework density 23.753885
#
# number of rings (size 3 to 8) (size 9 to 14) (size 15 to 20)
#    0.000    1.000    0.000    6.000    0.000   14.500 
#    0.000    0.000    0.000    0.000    0.000    0.000 
#    0.000    0.000    0.000    0.000    0.000    0.000 
#
# Total GULP energy -178667.251876 kJ/mol
# GULP energy per Si atom -5583.351621 kJ/mol
# Density = 2.369982 g / cm^3
# Si number density = 23.753885 Si / 1000 Ang^3
#
#
#
# Elastic Constant Matrix: (Units=GPa)
#
#
# Indices 1 2 3 4 5 6 
#
# 1 98.7161 42.0257 -6.2836 0.0000 0.0000 0.0000
# 2 42.0257 98.7179 -6.2836 0.0000 0.0000 0.0000
# 3 -6.2836 -6.2836 56.6227 0.0000 0.0000 0.0000
# 4 0.0000 0.0000 0.0000 19.4696 0.0000 0.0000
# 5 0.0000 0.0000 0.0000 0.0000 19.4696 0.0000
# 6 0.0000 0.0000 0.0000 0.0000 0.0000 41.1418
#
#
#
# Elastic Compliance Matrix: (Units=1/GPa)
#
#
# Indices 1 2 3 4 5 6 
#
# 1 0.012408 -0.005232 0.000796 0.000000 0.000000 0.000000
# 2 -0.005232 0.012408 0.000796 0.000000 0.000000 0.000000
# 3 0.000796 0.000796 0.017838 0.000000 0.000000 0.000000
# 4 0.000000 0.000000 0.000000 0.051362 0.000000 0.000000
# 5 0.000000 0.000000 0.000000 0.000000 0.051362 0.000000
# 6 0.000000 0.000000 0.000000 0.000000 0.000000 0.024306
#
#
# Mechanical properties :
#
#
# Convention : Reuss Voigt Hill
#
# Bulk Modulus (GPa) = 28.26808 34.77483 31.52145
# Shear Modulus (GPa) = 26.48963 30.98941 28.73952
#
# Velocity S-wave (km/s) = 3.34304 3.61585 3.48212
# Velocity P-wave (km/s) = 5.17952 5.66603 5.42823
#
# Compressibility (1/GPa) = 0.03537559
#
# Stress axis : x y z
#
# Youngs Moduli (GPa) = 80.59355 80.59498 56.06161
#
# Poissons Ratio (x) = 0.42164 -0.04465
# Poissons Ratio (y) = 0.42163 -0.04465
# Poissons Ratio (z) = -0.06418 -0.06418
#
# Static dielectric constant tensor:
#      x y z
#    x 2.169130 0.000000 0.000000 
#    y 0.000000 2.169110 0.000000 
#    z 0.000000 0.000000 1.884780 
# 
# From -- ./inp_files/2984.got.cif
#   From: 2010.05.17/outbox.cif.g08.bks.cpg/sg118_2_cif.got.tgz:2984.got - 2010.05.20 11:17:24.
