data_PCOD9558210
_publ_section_title
;
Structure prediction by ZEFSAII (Michael W. Deem and Ramdas Pophale) SiO2 
 PCOD9558210
Probable space group: P -4 B 2
;
_chemical_formula_sum "Si O2"
_cell_formula_units_Z 58
_cell_length_a 17.681671
_cell_length_b 17.681671
_cell_length_c 8.770732
_cell_angle_alpha 90.000000
_cell_angle_beta 90.000000
_cell_angle_gamma 90.000000
_cell_volume 2742.094715
_symmetry_space_group_name_H-M "P -4 B 2"
_symmetry_group_IT_number 117
_symmetry_cell_setting 'tetragonal'
loop_
_space_group_symop_operation_xyz
x,y,z
y,-x,-z
-x,-y,z
-y,x,-z
1/2+y,1/2+x,-z
1/2-y,1/2-x,-z
1/2-x,1/2+y,z
1/2+x,1/2-y,z
loop_
_atom_site_type_symbol
_atom_site_label
_atom_site_fract_x
_atom_site_fract_y
_atom_site_fract_z
Si Si1 0.676789 0.581058 0.022844
Si Si2 0.469778 0.768257 0.727365
Si Si3 0.072850 0.540649 0.321806
Si Si4 0.936250 0.849606 0.479707
Si Si5 0.349539 0.193060 0.321651
Si Si6 0.000000 0.000000 0.500000
Si Si7 0.445379 0.336151 0.204819
Si Si8 0.863874 0.194866 0.752951
O O1 0.750830 0.583199 0.128715
O O2 0.608414 0.597215 0.141230
O O3 0.679784 0.500517 0.938182
O O4 0.661508 0.642414 0.892149
O O5 0.486669 0.854945 0.694780
O O6 0.438179 0.725075 0.579762
O O7 0.551298 0.728338 0.758411
O O8 0.054690 0.554690 0.500000
O O9 0.098410 0.623200 0.263755
O O10 0.000000 0.500000 0.251564
O O11 0.854663 0.860339 0.402380
O O12 0.993866 0.847439 0.338624
O O13 0.970056 0.921656 0.572448
O O14 0.328870 0.171131 0.500000
O O15 0.392111 0.269284 0.271912
O O16 0.267275 0.190049 0.247865
#
# Coordination Sequence:
#
# PCOD9558210 Si02
#       8
#     8   8   8   8   8   2   8   8
#     4  11  24  41  62  99 139 184 217 285 345 428
#     4  11  21  40  64 100 140 173 231 289 341 419
#     4   9  19  40  70  98 122 166 227 291 356 398
#     4  11  22  35  63  98 134 180 229 289 328 425
#     4  10  22  42  72  94 129 185 238 299 348 426
#     4  12  20  28  56  94 140 172 216 274 344 388
#     4  11  24  42  64  94 139 183 238 276 353 424
#     4  10  22  41  60  95 136 181 233 270 354 422
#
# _framework density 21.151712
#
# number of rings (size 3 to 8) (size 9 to 14) (size 15 to 20)
#    0.000    1.517    2.759    3.310    1.931    0.828 
#    0.000    6.897    0.000    0.828    0.000    2.897 
#    0.000    0.000    0.000    0.000    0.000    0.000 
#
# Total GULP energy -323181.177558 kJ/mol
# GULP energy per Si atom -5572.089268 kJ/mol
# Density = 2.110357 g / cm^3
# Si number density = 21.151712 Si / 1000 Ang^3
#
#
#
# Elastic Constant Matrix: (Units=GPa)
#
#
# Indices 1 2 3 4 5 6 
#
# 1 137.2840 21.0465 49.6841 0.0000 0.0000 0.0000
# 2 21.0465 137.2838 49.6846 0.0000 0.0000 0.0000
# 3 49.6841 49.6846 96.0470 0.0000 0.0000 0.0000
# 4 0.0000 0.0000 0.0000 16.2200 0.0000 0.0000
# 5 0.0000 0.0000 0.0000 0.0000 16.2200 0.0000
# 6 0.0000 0.0000 0.0000 0.0000 0.0000 20.6199
#
#
#
# Elastic Compliance Matrix: (Units=1/GPa)
#
#
# Indices 1 2 3 4 5 6 
#
# 1 0.008978 0.000375 -0.004838 0.000000 0.000000 0.000000
# 2 0.000375 0.008978 -0.004838 0.000000 0.000000 0.000000
# 3 -0.004838 -0.004838 0.015417 0.000000 0.000000 0.000000
# 4 0.000000 0.000000 0.000000 0.061652 0.000000 0.000000
# 5 0.000000 0.000000 0.000000 0.000000 0.061652 0.000000
# 6 0.000000 0.000000 0.000000 0.000000 0.000000 0.048497
#
#
# Mechanical properties :
#
#
# Convention : Reuss Voigt Hill
#
# Bulk Modulus (GPa) = 67.70580 67.93834 67.82207
# Shear Modulus (GPa) = 21.86286 27.29197 24.57741
#
# Velocity S-wave (km/s) = 3.21849 3.59597 3.41245
# Velocity P-wave (km/s) = 6.77426 7.03069 6.90367
#
# Compressibility (1/GPa) = 0.01476978
#
# Stress axis : x y z
#
# Youngs Moduli (GPa) = 111.38876 111.38803 64.86490
#
# Poissons Ratio (x) = -0.04172 0.31380
# Poissons Ratio (y) = -0.04172 0.31380
# Poissons Ratio (z) = 0.53887 0.53887
#
# Static dielectric constant tensor:
#      x y z
#    x 1.811440 0.000000 0.000000 
#    y 0.000000 1.811440 0.000000 
#    z 0.000000 0.000000 1.811780 
# 
# From -- ./inp_files/2071.got.cif
#   From: 2010.05.17/outbox.cif.g08.bks.cpg/sg117_2_cif.got.tgz:2071.got - 2010.05.20 11:15:09.
