data_PCOD9558016
_publ_section_title
;
Structure prediction by ZEFSAII (Michael W. Deem and Ramdas Pophale) SiO2 
 PCOD9558016
Probable space group: P -4 C 2
;
_chemical_formula_sum "Si O2"
_cell_formula_units_Z 20
_cell_length_a 5.235942
_cell_length_b 5.235942
_cell_length_c 28.242599
_cell_angle_alpha 90.000000
_cell_angle_beta 90.000000
_cell_angle_gamma 90.000000
_cell_volume 774.273355
_symmetry_space_group_name_H-M "P -4 C 2"
_symmetry_group_IT_number 116
_symmetry_cell_setting 'tetragonal'
loop_
_space_group_symop_operation_xyz
x,y,z
y,-x,-z
-x,-y,z
-y,x,-z
y,x,1/2-z
-y,-x,1/2-z
-x,y,1/2+z
x,-y,1/2+z
loop_
_atom_site_type_symbol
_atom_site_label
_atom_site_fract_x
_atom_site_fract_y
_atom_site_fract_z
Si Si1 0.500000 0.500000 0.750000
Si Si2 0.245950 0.169141 0.071464
Si Si3 0.831020 0.250446 0.681633
Si Si4 0.500000 0.500000 0.000000
O O1 0.572433 0.279109 0.711953
O O2 0.227659 0.258335 0.125830
O O3 0.500000 0.000000 0.067668
O O4 0.282775 0.396798 0.034806
O O5 0.000000 0.000000 0.061097
O O6 0.000000 0.500000 0.693178
O O7 0.000000 0.000000 0.691457
#
# Coordination Sequence:
#
# PCOD9558016 Si02
#       4
#     2   8   8   2
#     4  12  28  44  90 116 160 212 278 340 392 500
#     4  11  30  52  81 116 167 213 270 338 416 488
#     4  11  29  51  80 116 165 214 267 336 413 487
#     4  12  30  48  84 122 156 220 278 352 400 514
#
# _framework density 25.830667999999999
#
# number of rings (size 3 to 8) (size 9 to 14) (size 15 to 20)
#    0.000    0.800    0.000    1.800   33.600    0.000 
#    0.000    0.000    0.000    0.000    0.000    0.000 
#    0.000    0.000    0.000    0.000    0.000    0.000 
#
# Total GULP energy -112117.847460 kJ/mol
# GULP energy per Si atom -5605.892373 kJ/mol
# Density = 2.577188 g / cm^3
# Si number density = 25.830668 Si / 1000 Ang^3
#
#
#
# Elastic Constant Matrix: (Units=GPa)
#
#
# Indices 1 2 3 4 5 6 
#
# 1 173.8365 81.3567 74.2663 0.0000 0.0000 0.0000
# 2 81.3567 173.8365 74.2663 0.0000 0.0000 0.0000
# 3 74.2663 74.2663 218.6338 0.0000 0.0000 0.0000
# 4 0.0000 0.0000 0.0000 53.5304 0.0000 0.0000
# 5 0.0000 0.0000 0.0000 0.0000 53.5304 0.0000
# 6 0.0000 0.0000 0.0000 0.0000 0.0000 51.3368
#
#
#
# Elastic Compliance Matrix: (Units=1/GPa)
#
#
# Indices 1 2 3 4 5 6 
#
# 1 0.007849 -0.002964 -0.001659 0.000000 0.000000 0.000000
# 2 -0.002964 0.007849 -0.001659 0.000000 0.000000 0.000000
# 3 -0.001659 -0.001659 0.005701 0.000000 0.000000 0.000000
# 4 0.000000 0.000000 0.000000 0.018681 0.000000 0.000000
# 5 0.000000 0.000000 0.000000 0.000000 0.018681 0.000000
# 6 0.000000 0.000000 0.000000 0.000000 0.000000 0.019479
#
#
# Mechanical properties :
#
#
# Convention : Reuss Voigt Hill
#
# Bulk Modulus (GPa) = 113.21040 114.00949 113.60994
# Shear Modulus (GPa) = 53.33377 54.10738 53.72057
#
# Velocity S-wave (km/s) = 4.54888 4.58175 4.56534
# Velocity P-wave (km/s) = 8.45652 8.49841 8.47749
#
# Compressibility (1/GPa) = 0.00883311
#
# Stress axis : x y z
#
# Youngs Moduli (GPa) = 127.40942 127.40942 175.40784
#
# Poissons Ratio (x) = 0.37770 0.29102
# Poissons Ratio (y) = 0.37770 0.29102
# Poissons Ratio (z) = 0.21139 0.21139
#
# Static dielectric constant tensor:
#      x y z
#    x 1.982490 0.000000 0.000000 
#    y 0.000000 1.982490 0.000000 
#    z 0.000000 0.000000 1.980420 
# 
# From -- ./inp_files/4721.got.cif
#   From: 2010.05.17/outbox.cif.g08.bks.cpg/sg116_3_cif.got.tgz:4721.got - 2010.05.20 11:11:43.
