data_PCOD9558205
_publ_section_title
;
Structure prediction by ZEFSAII (Michael W. Deem and Ramdas Pophale) SiO2 
 PCOD9558205
Probable space group: P -4 B 2
;
_chemical_formula_sum "Si O2"
_cell_formula_units_Z 42
_cell_length_a 9.799716
_cell_length_b 9.799716
_cell_length_c 19.886204
_cell_angle_alpha 90.000000
_cell_angle_beta 90.000000
_cell_angle_gamma 90.000000
_cell_volume 1909.760339
_symmetry_space_group_name_H-M "P -4 B 2"
_symmetry_group_IT_number 117
_symmetry_cell_setting 'tetragonal'
loop_
_space_group_symop_operation_xyz
x,y,z
y,-x,-z
-x,-y,z
-y,x,-z
1/2+y,1/2+x,-z
1/2-y,1/2-x,-z
1/2-x,1/2+y,z
1/2+x,1/2-y,z
loop_
_atom_site_type_symbol
_atom_site_label
_atom_site_fract_x
_atom_site_fract_y
_atom_site_fract_z
Si Si1 0.570847 0.267251 0.419442
Si Si2 0.000000 0.500000 0.000000
Si Si3 0.500000 0.500000 0.000000
Si Si4 0.036306 0.768396 0.909021
Si Si5 0.154987 0.654987 0.500000
Si Si6 0.317248 0.285535 0.183671
Si Si7 0.055490 0.344276 0.270109
Si Si8 0.000000 0.000000 0.500000
O O1 0.718638 0.318096 0.446578
O O2 0.487950 0.155820 0.460675
O O3 0.570503 0.226362 0.342589
O O4 0.467827 0.385544 0.445569
O O5 0.996989 0.366881 0.952036
O O6 0.416070 0.389185 0.957763
O O7 0.150226 0.732431 0.854651
O O8 0.903358 0.828700 0.871896
O O9 0.201770 0.339204 0.234458
O O10 0.451788 0.243585 0.224340
O O11 0.000000 0.500000 0.275468
#
# Coordination Sequence:
#
# PCOD9558205 Si02
#       8
#     8   2   2   8   4   8   8   2
#     4  10  22  40  65  92 133 168 229 278 348 409
#     4  12  24  44  72 108 140 176 224 294 336 408
#     4  12  24  40  66 104 128 184 228 270 352 412
#     4  12  24  44  69 102 140 179 229 283 345 409
#     4  10  22  40  64  98 126 176 216 292 346 402
#     4  12  25  47  70 101 141 188 228 286 344 404
#     4  12  26  46  68 105 137 189 236 286 337 422
#     4   8  20  44  62  96 124 176 220 294 348 404
#
# _framework density 21.992289
#
# number of rings (size 3 to 8) (size 9 to 14) (size 15 to 20)
#    0.000    0.762    1.905    5.714    2.667    1.524 
#    6.857    0.000    0.000    0.000    0.000    0.000 
#    0.000    0.000    0.000    0.000    0.000    0.000 
#
# Total GULP energy -234364.641152 kJ/mol
# GULP energy per Si atom -5580.110504 kJ/mol
# Density = 2.194223 g / cm^3
# Si number density = 21.992289 Si / 1000 Ang^3
#
#
#
# Elastic Constant Matrix: (Units=GPa)
#
#
# Indices 1 2 3 4 5 6 
#
# 1 -42.8021 91.4570 22.4476 0.0000 0.0000 0.0000
# 2 91.4570 -42.8021 22.4476 0.0000 0.0000 0.0000
# 3 22.4476 22.4476 112.2875 0.0000 0.0000 0.0000
# 4 0.0000 0.0000 0.0000 -50.8775 0.0000 0.0000
# 5 0.0000 0.0000 0.0000 0.0000 -50.8775 0.0000
# 6 0.0000 0.0000 0.0000 0.0000 0.0000 29.5139
#
#
#
# Elastic Compliance Matrix: (Units=1/GPa)
#
#
# Indices 1 2 3 4 5 6 
#
# 1 0.008877 0.016325 -0.005038 0.000000 0.000000 0.000000
# 2 0.016325 0.008877 -0.005038 0.000000 0.000000 0.000000
# 3 -0.005038 -0.005038 0.010920 0.000000 0.000000 0.000000
# 4 0.000000 0.000000 0.000000 -0.019655 0.000000 0.000000
# 5 0.000000 0.000000 0.000000 0.000000 -0.019655 0.000000
# 6 0.000000 0.000000 0.000000 0.000000 0.000000 0.033882
#
#
# Mechanical properties :
#
#
# Convention : Reuss Voigt Hill
#
# Bulk Modulus (GPa) = 24.28890 33.26531 28.77710
# Shear Modulus (GPa) = 204.31481 -21.75950 91.27766
#
# Velocity S-wave (km/s) = 9.64907 -3.14891 6.44938
# Velocity P-wave (km/s) = 11.62789 1.39208 8.28087
#
# Compressibility (1/GPa) = 0.04117107
#
# Stress axis : x y z
#
# Youngs Moduli (GPa) = 112.65382 112.65382 91.57438
#
# Poissons Ratio (x) = -1.83908 0.46137
# Poissons Ratio (y) = -1.83908 0.46137
# Poissons Ratio (z) = 0.56757 0.56757
#
# Static dielectric constant tensor:
#      x y z
#    x 4.721850 0.000000 0.000000 
#    y 0.000000 4.721850 0.000000 
#    z 0.000000 0.000000 1.806960 
# 
# From -- ./inp_files/3338.got.cif
#   From: 2010.05.17/outbox.cif.g08.bks.cpg/sg117_2_cif.got.tgz:3338.got - 2010.05.20 11:15:09.
