data_PCOD9558958
_publ_section_title
;
Structure prediction by ZEFSAII (Michael W. Deem and Ramdas Pophale) SiO2 
 PCOD9558958
Probable space group: I -4 M 2
;
_chemical_formula_sum "Si O2"
_cell_formula_units_Z 128
_cell_length_a 24.256687
_cell_length_b 24.256687
_cell_length_c 13.063951
_cell_angle_alpha 90.000000
_cell_angle_beta 90.000000
_cell_angle_gamma 90.000000
_cell_volume 7686.657163
_symmetry_space_group_name_H-M "I -4 M 2"
_symmetry_group_IT_number 119
_symmetry_cell_setting 'tetragonal'
loop_
_space_group_symop_operation_xyz
x,y,z
y,-x,-z
-x,-y,z
-y,x,-z
y,x,-z
-y,-x,-z
-x,y,z
x,-y,z
1/2+x,1/2+y,1/2+z
1/2+y,1/2-x,1/2-z
1/2-x,1/2-y,1/2+z
1/2-y,1/2+x,1/2-z
1/2+y,1/2+x,1/2-z
1/2-y,1/2-x,1/2-z
1/2-x,1/2+y,1/2+z
1/2+x,1/2-y,1/2+z
loop_
_atom_site_type_symbol
_atom_site_label
_atom_site_fract_x
_atom_site_fract_y
_atom_site_fract_z
Si Si1 0.922481 0.064966 0.264155
Si Si2 0.937655 0.738888 0.553154
Si Si3 0.137815 0.060889 0.932945
Si Si4 0.641273 0.560129 0.040133
Si Si5 0.171397 0.297910 0.488318
Si Si6 0.699132 0.602544 0.746719
Si Si7 0.283080 0.716811 0.834163
Si Si8 0.367479 0.274615 0.487374
O O1 0.941873 0.101257 0.168214
O O2 0.941359 0.103953 0.357687
O O3 0.856208 0.067448 0.256086
O O4 0.938838 0.000000 0.266549
O O5 0.935152 0.793223 0.478153
O O6 0.892509 0.695708 0.514236
O O7 0.921757 0.759162 0.668307
O O8 0.000000 0.718988 0.552438
O O9 0.141829 0.000000 0.978200
O O10 0.102434 0.102434 0.000000
O O11 0.197838 0.089154 0.933914
O O12 0.627942 0.500000 0.988737
O O13 0.617376 0.617376 0.000000
O O14 0.193370 0.257034 0.577880
O O15 0.179354 0.263354 0.384576
O O16 0.212250 0.349714 0.490305
O O17 0.686142 0.664929 0.784586
O O18 0.718533 0.609119 0.628790
O O19 0.244631 0.744631 0.750000
O O20 0.311595 0.311595 0.500000
#
# Coordination Sequence:
#
# PCOD9558958 Si02
#       8
#    16  16  16  16  16  16  16  16
#     4  12  23  35  51  67  89 132 182 223 261 303
#     4  10  22  36  51  73 103 135 167 206 263 319
#     4  11  24  37  50  67  93 131 173 220 263 303
#     4  11  22  34  47  64  90 126 170 222 262 296
#     4  10  19  31  51  76  99 127 161 206 258 315
#     4  11  19  31  50  70  98 128 165 212 259 308
#     4  10  17  27  48  75  99 124 161 210 255 310
#     4  11  19  34  52  75  99 126 168 220 268 310
#
# _framework density 16.652232000000001
#
# number of rings (size 3 to 8) (size 9 to 14) (size 15 to 20)
#    0.000    1.250    6.250    2.250    1.750    2.750 
#    0.000    0.000    0.000    0.000    0.000    0.000 
#    0.000    0.500    0.000    0.250    0.000    0.000 
#
# Total GULP energy -356304.433722 kJ/mol
# GULP energy per Si atom -5567.256777 kJ/mol
# Density = 1.661433 g / cm^3
# Si number density = 16.652232 Si / 1000 Ang^3
#
#
#
# Elastic Constant Matrix: (Units=GPa)
#
#
# Indices 1 2 3 4 5 6 
#
# 1 77.6086 43.1413 16.1197 0.0000 0.0000 0.0000
# 2 43.1413 77.6086 16.1197 0.0000 0.0000 0.0000
# 3 16.1197 16.1197 57.8623 0.0000 0.0000 0.0000
# 4 0.0000 0.0000 0.0000 3.4587 0.0000 0.0000
# 5 0.0000 0.0000 0.0000 0.0000 3.4587 0.0000
# 6 0.0000 0.0000 0.0000 0.0000 0.0000 6.9342
#
#
#
# Elastic Compliance Matrix: (Units=1/GPa)
#
#
# Indices 1 2 3 4 5 6 
#
# 1 0.018980 -0.010033 -0.002493 0.000000 0.000000 0.000000
# 2 -0.010033 0.018980 -0.002493 0.000000 0.000000 0.000000
# 3 -0.002493 -0.002493 0.018671 0.000000 0.000000 0.000000
# 4 0.000000 0.000000 0.000000 0.289127 0.000000 0.000000
# 5 0.000000 0.000000 0.000000 0.000000 0.289127 0.000000
# 6 0.000000 0.000000 0.000000 0.000000 0.000000 0.144213
#
#
# Mechanical properties :
#
#
# Convention : Reuss Voigt Hill
#
# Bulk Modulus (GPa) = 37.60082 40.42677 39.01379
# Shear Modulus (GPa) = 6.11248 11.95023 9.03135
#
# Velocity S-wave (km/s) = 1.91798 2.68178 2.33137
# Velocity P-wave (km/s) = 5.24728 5.82401 5.54315
#
# Compressibility (1/GPa) = 0.02659517
#
# Stress axis : x y z
#
# Youngs Moduli (GPa) = 52.68689 52.68689 53.55848
#
# Poissons Ratio (x) = 0.52861 0.13350
# Poissons Ratio (y) = 0.52861 0.13350
# Poissons Ratio (z) = 0.13132 0.13132
#
# Static dielectric constant tensor:
#      x y z
#    x 1.585090 0.000000 0.000000 
#    y 0.000000 1.585090 0.000000 
#    z 0.000000 0.000000 1.674920 
# 
# From -- ./inp_files/4466.got.cif
#   From: 2010.05.17/outbox.cif.g08.bks.cpg/sg119_3_cif.got.tgz:4466.got - 2010.05.20 11:21:29.
