data_PCOD9558323
_publ_section_title
;
Structure prediction by ZEFSAII (Michael W. Deem and Ramdas Pophale) SiO2 
 PCOD9558323
Probable space group: P -4 B 2
;
_chemical_formula_sum "Si O2"
_cell_formula_units_Z 26
_cell_length_a 11.543910
_cell_length_b 11.543910
_cell_length_c 7.402946
_cell_angle_alpha 90.000000
_cell_angle_beta 90.000000
_cell_angle_gamma 90.000000
_cell_volume 986.530339
_symmetry_space_group_name_H-M "P -4 B 2"
_symmetry_group_IT_number 117
_symmetry_cell_setting 'tetragonal'
loop_
_space_group_symop_operation_xyz
x,y,z
y,-x,-z
-x,-y,z
-y,x,-z
1/2+y,1/2+x,-z
1/2-y,1/2-x,-z
1/2-x,1/2+y,z
1/2+x,1/2-y,z
loop_
_atom_site_type_symbol
_atom_site_label
_atom_site_fract_x
_atom_site_fract_y
_atom_site_fract_z
Si Si1 0.500000 0.500000 0.500000
Si Si2 0.574915 0.768504 0.886972
Si Si3 0.775520 0.594112 0.848280
Si Si4 0.735786 0.956458 0.505359
O O1 0.449223 0.372151 0.443561
O O2 0.503038 0.777404 0.702248
O O3 0.685122 0.038623 0.661301
O O4 0.620799 0.879202 0.000000
O O5 0.796465 0.997138 0.959765
O O6 0.689224 0.700427 0.824217
O O7 0.868469 0.631532 0.000000
O O8 0.661744 0.838257 0.500000
#
# Coordination Sequence:
#
# PCOD9558323 Si02
#       4
#     2   8   8   8
#     4  12  28  48  86 128 164 242 288 352 474 476
#     4  11  25  45  74 112 156 209 280 352 427 510
#     4  11  27  46  73 114 162 220 278 354 434 511
#     4  12  26  50  79 118 169 216 291 359 425 530
#
# _framework density 26.354990000000001
#
# number of rings (size 3 to 8) (size 9 to 14) (size 15 to 20)
#    0.000    0.615    6.154    0.000    4.308    2.462 
#    0.000    1.538    0.000    0.000    0.000    0.000 
#    0.000    0.000    0.000    0.000    0.000    0.000 
#
# Total GULP energy -144903.874385 kJ/mol
# GULP energy per Si atom -5573.225938 kJ/mol
# Density = 2.629501 g / cm^3
# Si number density = 26.354990 Si / 1000 Ang^3
#
#
#
# Elastic Constant Matrix: (Units=GPa)
#
#
# Indices 1 2 3 4 5 6 
#
# 1 110.4922 65.5398 57.2565 0.0000 0.0000 0.0000
# 2 65.5398 110.4922 57.2557 0.0000 0.0000 0.0000
# 3 57.2565 57.2557 286.9430 0.0000 0.0000 0.0000
# 4 0.0000 0.0000 0.0000 25.0642 0.0000 0.0000
# 5 0.0000 0.0000 0.0000 0.0000 25.0640 0.0000
# 6 0.0000 0.0000 0.0000 0.0000 0.0000 35.6183
#
#
#
# Elastic Compliance Matrix: (Units=1/GPa)
#
#
# Indices 1 2 3 4 5 6 
#
# 1 0.014387 -0.007859 -0.001303 0.000000 0.000000 0.000000
# 2 -0.007859 0.014387 -0.001303 0.000000 0.000000 0.000000
# 3 -0.001303 -0.001303 0.004005 0.000000 0.000000 0.000000
# 4 0.000000 0.000000 0.000000 0.039898 0.000000 0.000000
# 5 0.000000 0.000000 0.000000 0.000000 0.039898 0.000000
# 6 0.000000 0.000000 0.000000 0.000000 0.000000 0.028075
#
#
# Mechanical properties :
#
#
# Convention : Reuss Voigt Hill
#
# Bulk Modulus (GPa) = 84.38315 96.44796 90.41555
# Shear Modulus (GPa) = 30.20638 39.00766 34.60702
#
# Velocity S-wave (km/s) = 3.38913 3.85136 3.62762
# Velocity P-wave (km/s) = 6.88494 7.51349 7.20607
#
# Compressibility (1/GPa) = 0.01185071
#
# Stress axis : x y z
#
# Youngs Moduli (GPa) = 69.50728 69.50749 249.69682
#
# Poissons Ratio (x) = 0.54625 0.32527
# Poissons Ratio (y) = 0.54624 0.32525
# Poissons Ratio (z) = 0.09054 0.09054
#
# Static dielectric constant tensor:
#      x y z
#    x 2.218230 0.000000 0.000000 
#    y 0.000000 2.218220 0.000000 
#    z 0.000000 0.000000 2.055360 
# 
# From -- ./inp_files/1246.got.cif
#   From: 2010.05.17/outbox.cif.g08.bks.cpg/sg117_1_cif.got.tgz:1246.got - 2010.05.20 11:15:09.
