data_PCOD9558898
_publ_section_title
;
Structure prediction by ZEFSAII (Michael W. Deem and Ramdas Pophale) SiO2 
 PCOD9558898
Probable space group: P -4 N 2
;
_chemical_formula_sum "Si O2"
_cell_formula_units_Z 34
_cell_length_a 10.600733
_cell_length_b 10.600733
_cell_length_c 12.280066
_cell_angle_alpha 90.000000
_cell_angle_beta 90.000000
_cell_angle_gamma 90.000000
_cell_volume 1379.979050
_symmetry_space_group_name_H-M "P -4 N 2"
_symmetry_group_IT_number 118
_symmetry_cell_setting 'tetragonal'
loop_
_space_group_symop_operation_xyz
x,y,z
y,-x,-z
-x,-y,z
-y,x,-z
1/2+y,1/2+x,1/2-z
1/2-y,1/2-x,1/2-z
1/2-x,1/2+y,1/2+z
1/2+x,1/2-y,1/2+z
loop_
_atom_site_type_symbol
_atom_site_label
_atom_site_fract_x
_atom_site_fract_y
_atom_site_fract_z
Si Si1 0.320511 0.421176 0.496304
Si Si2 0.061074 0.764985 0.635581
Si Si3 0.784042 0.820618 0.592076
Si Si4 0.000000 0.500000 0.750000
Si Si5 0.757374 0.543143 0.256438
O O1 0.359186 0.551483 0.551291
O O2 0.252898 0.327605 0.580715
O O3 0.255990 0.468021 0.386070
O O4 0.934372 0.834007 0.598613
O O5 0.012257 0.633731 0.686980
O O6 0.132738 0.734438 0.524224
O O7 0.153076 0.857069 0.706019
O O8 0.743951 0.915267 0.687447
O O9 0.890188 0.609813 0.250000
#
# Coordination Sequence:
#
# PCOD9558898 Si02
#       5
#     8   8   8   2   8
#     4  11  28  50  73 111 162 206 259 338 417 493
#     4  12  25  46  76 115 148 206 268 334 404 502
#     4  12  26  46  83 110 155 209 271 330 419 492
#     4  12  28  44  84 104 160 210 268 336 428 498
#     4  12  25  51  76 112 157 201 270 344 400 489
#
# _framework density 24.638055000000001
#
# number of rings (size 3 to 8) (size 9 to 14) (size 15 to 20)
#    0.000    0.235    5.882    0.706   13.176    0.941 
#    0.000    1.176    0.000    0.000    0.000    0.000 
#    0.000    0.000    0.000    0.000    0.000    0.000 
#
# Total GULP energy -189935.363695 kJ/mol
# GULP energy per Si atom -5586.334226 kJ/mol
# Density = 2.458198 g / cm^3
# Si number density = 24.638055 Si / 1000 Ang^3
#
#
#
# Elastic Constant Matrix: (Units=GPa)
#
#
# Indices 1 2 3 4 5 6 
#
# 1 212.0534 -105.0394 35.8120 0.0000 0.0000 0.0000
# 2 -105.0394 212.0689 35.7858 0.0000 0.0000 0.0000
# 3 35.8120 35.7858 102.1609 0.0000 0.0000 0.0000
# 4 0.0000 0.0000 0.0000 59.5033 0.0000 0.0000
# 5 0.0000 0.0000 0.0000 0.0000 59.5007 0.0000
# 6 0.0000 0.0000 0.0000 0.0000 0.0000 47.5202
#
#
#
# Elastic Compliance Matrix: (Units=1/GPa)
#
#
# Indices 1 2 3 4 5 6 
#
# 1 0.007680 0.004526 -0.004278 0.000000 0.000000 0.000000
# 2 0.004526 0.007679 -0.004276 0.000000 0.000000 0.000000
# 3 -0.004278 -0.004276 0.012786 0.000000 0.000000 0.000000
# 4 0.000000 0.000000 0.000000 0.016806 0.000000 0.000000
# 5 0.000000 0.000000 0.000000 0.000000 0.016807 0.000000
# 6 0.000000 0.000000 0.000000 0.000000 0.000000 0.021044
#
#
# Mechanical properties :
#
#
# Convention : Reuss Voigt Hill
#
# Bulk Modulus (GPa) = 49.77945 51.04443 50.41194
# Shear Modulus (GPa) = 51.25433 70.61984 60.93709
#
# Velocity S-wave (km/s) = 4.56597 5.35958 4.97861
# Velocity P-wave (km/s) = 6.93149 7.68524 7.31808
#
# Compressibility (1/GPa) = 0.02008861
#
# Stress axis : x y z
#
# Youngs Moduli (GPa) = 130.20813 130.23028 78.21135
#
# Poissons Ratio (x) = -0.58939 0.33455
# Poissons Ratio (y) = -0.58929 0.33445
# Poissons Ratio (z) = 0.55697 0.55690
#
# Static dielectric constant tensor:
#      x y z
#    x 1.992310 0.000000 0.000000 
#    y 0.000000 1.992310 0.000000 
#    z 0.000000 0.000000 0.561320 
# 
# From -- ./inp_files/3038.got.cif
#   From: 2010.05.17/outbox.cif.g08.bks.cpg/sg118_2_cif.got.tgz:3038.got - 2010.05.20 11:17:24.
