data_PCOD9558082
_publ_section_title
;
Structure prediction by ZEFSAII (Michael W. Deem and Ramdas Pophale) SiO2 
 PCOD9558082
Probable space group: P -4 B 2
;
_chemical_formula_sum "Si O2"
_cell_formula_units_Z 64
_cell_length_a 17.574873
_cell_length_b 17.574873
_cell_length_c 11.662572
_cell_angle_alpha 90.000000
_cell_angle_beta 90.000000
_cell_angle_gamma 90.000000
_cell_volume 3602.290466
_symmetry_space_group_name_H-M "P -4 B 2"
_symmetry_group_IT_number 117
_symmetry_cell_setting 'tetragonal'
loop_
_space_group_symop_operation_xyz
x,y,z
y,-x,-z
-x,-y,z
-y,x,-z
1/2+y,1/2+x,-z
1/2-y,1/2-x,-z
1/2-x,1/2+y,z
1/2+x,1/2-y,z
loop_
_atom_site_type_symbol
_atom_site_label
_atom_site_fract_x
_atom_site_fract_y
_atom_site_fract_z
Si Si1 0.815743 0.550040 0.886752
Si Si2 0.739028 0.612823 0.683051
Si Si3 0.624368 0.909642 0.765654
Si Si4 0.465585 0.848379 0.853664
Si Si5 0.380225 0.457589 0.510939
Si Si6 0.247938 0.504624 0.362843
Si Si7 0.677366 0.769863 0.627273
Si Si8 0.519208 0.129562 0.439648
O O1 0.749977 0.593268 0.816858
O O2 0.823462 0.464969 0.839350
O O3 0.896199 0.591447 0.854183
O O4 0.809071 0.544490 0.023036
O O5 0.667420 0.571124 0.621487
O O6 0.734425 0.702049 0.657524
O O7 0.815137 0.578124 0.626025
O O8 0.548013 0.888395 0.835239
O O9 0.671712 0.838459 0.717694
O O10 0.603062 0.956748 0.650951
O O11 0.467004 0.789182 0.748715
O O12 0.408374 0.545197 0.518228
O O13 0.318160 0.456639 0.409718
O O14 0.268255 0.593725 0.354203
O O15 0.183263 0.511109 0.460091
O O16 0.697867 0.802134 0.500000
O O17 0.561924 0.061924 0.500000
#
# Coordination Sequence:
#
# PCOD9558082 Si02
#       8
#     8   8   8   8   8   8   8   8
#     4  10  21  39  55  80 107 155 201 232 267 336
#     4  10  21  35  57  78 112 151 186 235 287 336
#     4  10  20  33  56  83 113 150 188 235 275 333
#     4  10  21  36  58  75 116 152 194 232 275 322
#     4  10  20  37  62  85 108 142 186 234 288 347
#     4  10  19  34  54  85 114 148 178 234 279 338
#     4  11  20  34  51  84 120 147 172 227 291 350
#     4  10  19  33  50  86 121 149 188 218 283 351
#
# _framework density 17.766475
#
# number of rings (size 3 to 8) (size 9 to 14) (size 15 to 20)
#    0.000    1.875    2.500    2.625    0.000    3.000 
#    0.000    1.250   16.500    0.000    0.000    1.750 
#    0.000    0.000    0.000    0.000    0.000    0.000 
#
# Total GULP energy -356810.947304 kJ/mol
# GULP energy per Si atom -5575.171052 kJ/mol
# Density = 1.772604 g / cm^3
# Si number density = 17.766475 Si / 1000 Ang^3
#
#
#
# Elastic Constant Matrix: (Units=GPa)
#
#
# Indices 1 2 3 4 5 6 
#
# 1 103.8295 -33.5242 28.3204 0.0000 0.0000 0.0000
# 2 -33.5242 103.8211 28.3193 0.0000 0.0000 0.0000
# 3 28.3204 28.3193 117.3478 0.0000 0.0000 0.0000
# 4 0.0000 0.0000 0.0000 18.3195 0.0000 0.0000
# 5 0.0000 0.0000 0.0000 0.0000 18.3197 0.0000
# 6 0.0000 0.0000 0.0000 0.0000 0.0000 21.8062
#
#
#
# Elastic Compliance Matrix: (Units=1/GPa)
#
#
# Indices 1 2 3 4 5 6 
#
# 1 0.012469 0.005189 -0.004261 0.000000 0.000000 0.000000
# 2 0.005189 0.012470 -0.004262 0.000000 0.000000 0.000000
# 3 -0.004261 -0.004262 0.010579 0.000000 0.000000 0.000000
# 4 0.000000 0.000000 0.000000 0.054587 0.000000 0.000000
# 5 0.000000 0.000000 0.000000 0.000000 0.054586 0.000000
# 6 0.000000 0.000000 0.000000 0.000000 0.000000 0.045859
#
#
# Mechanical properties :
#
#
# Convention : Reuss Voigt Hill
#
# Bulk Modulus (GPa) = 34.66381 41.24772 37.95576
# Shear Modulus (GPa) = 24.17411 31.81461 27.99436
#
# Velocity S-wave (km/s) = 3.69271 4.23627 3.97380
# Velocity P-wave (km/s) = 6.14285 6.86986 6.51650
#
# Compressibility (1/GPa) = 0.02884853
#
# Stress axis : x y z
#
# Youngs Moduli (GPa) = 80.20037 80.19394 94.53118
#
# Poissons Ratio (x) = -0.41609 0.40283
# Poissons Ratio (y) = -0.41613 0.40285
# Poissons Ratio (z) = 0.34176 0.34175
#
# Static dielectric constant tensor:
#      x y z
#    x 1.642220 0.000000 0.000000 
#    y 0.000000 1.642220 0.000000 
#    z 0.000000 0.000000 1.227740 
# 
# From -- ./inp_files/2949.got.cif
#   From: 2010.05.17/outbox.cif.g08.bks.cpg/sg117_2_cif.got.tgz:2949.got - 2010.05.20 11:15:09.
