data_PCOD9558072
_publ_section_title
;
Structure prediction by ZEFSAII (Michael W. Deem and Ramdas Pophale) SiO2 
 PCOD9558072
Probable space group: P -4 B 2
;
_chemical_formula_sum "Si O2"
_cell_formula_units_Z 60
_cell_length_a 15.348394
_cell_length_b 15.348394
_cell_length_c 13.654098
_cell_angle_alpha 90.000000
_cell_angle_beta 90.000000
_cell_angle_gamma 90.000000
_cell_volume 3216.539537
_symmetry_space_group_name_H-M "P -4 B 2"
_symmetry_group_IT_number 117
_symmetry_cell_setting 'tetragonal'
loop_
_space_group_symop_operation_xyz
x,y,z
y,-x,-z
-x,-y,z
-y,x,-z
1/2+y,1/2+x,-z
1/2-y,1/2-x,-z
1/2-x,1/2+y,z
1/2+x,1/2-y,z
loop_
_atom_site_type_symbol
_atom_site_label
_atom_site_fract_x
_atom_site_fract_y
_atom_site_fract_z
Si Si1 0.597328 0.103242 0.826369
Si Si2 0.280217 0.660036 0.144639
Si Si3 0.404205 0.522803 0.238541
Si Si4 0.192823 0.307177 0.000000
Si Si5 0.813416 0.711130 0.327074
Si Si6 0.362209 0.373538 0.381092
Si Si7 0.085708 0.597904 0.115760
Si Si8 0.161331 0.948824 0.589543
O O1 0.627494 0.168708 0.912354
O O2 0.629474 0.140545 0.724304
O O3 0.494373 0.094818 0.830896
O O4 0.637149 0.006941 0.849625
O O5 0.336925 0.573851 0.168558
O O6 0.293263 0.723015 0.237625
O O7 0.176798 0.646145 0.132816
O O8 0.314185 0.711894 0.049109
O O9 0.500000 0.500000 0.195584
O O10 0.364865 0.435054 0.285327
O O11 0.423984 0.586324 0.331782
O O12 0.724426 0.683334 0.377968
O O13 0.883321 0.759456 0.393508
O O14 0.450789 0.318083 0.387598
O O15 0.365965 0.434092 0.477593
O O16 0.079051 0.579051 0.000000
#
# Coordination Sequence:
#
# PCOD9558072 Si02
#       8
#     8   8   8   4   8   8   8   8
#     4  10  20  36  57  80 110 147 194 245 292 351
#     4  10  21  35  55  87 115 154 197 246 299 358
#     4   9  19  35  57  86 118 152 197 246 295 362
#     4  10  18  35  54  79 118 148 188 248 292 352
#     4  10  23  35  54  87 120 147 190 250 300 353
#     4  11  19  36  61  85 114 157 193 245 299 356
#     4  11  19  35  60  80 103 152 202 238 286 351
#     4  10  20  35  59  84 116 151 199 236 294 371
#
# _framework density 18.653587999999999
#
# number of rings (size 3 to 8) (size 9 to 14) (size 15 to 20)
#    0.000    1.867    3.333    1.600    1.867    0.000 
#    0.000    0.000    2.933    0.000    0.000    3.733 
#    0.000    0.000    0.000    0.000    0.000    0.000 
#
# Total GULP energy -334527.175857 kJ/mol
# GULP energy per Si atom -5575.452931 kJ/mol
# Density = 1.861113 g / cm^3
# Si number density = 18.653588 Si / 1000 Ang^3
#
#
#
# Elastic Constant Matrix: (Units=GPa)
#
#
# Indices 1 2 3 4 5 6 
#
# 1 88.7022 53.8757 21.6988 0.0000 0.0000 0.0000
# 2 53.8757 88.7021 21.6986 0.0000 0.0000 0.0000
# 3 21.6988 21.6986 35.5350 0.0000 0.0000 0.0000
# 4 0.0000 0.0000 0.0000 17.6639 0.0000 0.0000
# 5 0.0000 0.0000 0.0000 0.0000 17.6641 0.0000
# 6 0.0000 0.0000 0.0000 0.0000 0.0000 33.7629
#
#
#
# Elastic Compliance Matrix: (Units=1/GPa)
#
#
# Indices 1 2 3 4 5 6 
#
# 1 0.018664 -0.010049 -0.005261 0.000000 0.000000 0.000000
# 2 -0.010049 0.018664 -0.005260 0.000000 0.000000 0.000000
# 3 -0.005261 -0.005260 0.034566 0.000000 0.000000 0.000000
# 4 0.000000 0.000000 0.000000 0.056613 0.000000 0.000000
# 5 0.000000 0.000000 0.000000 0.000000 0.056612 0.000000
# 6 0.000000 0.000000 0.000000 0.000000 0.000000 0.029618
#
#
# Mechanical properties :
#
#
# Convention : Reuss Voigt Hill
#
# Bulk Modulus (GPa) = 32.51663 45.27618 38.89641
# Shear Modulus (GPa) = 18.78786 21.52926 20.15856
#
# Velocity S-wave (km/s) = 3.17708 3.40098 3.29094
# Velocity P-wave (km/s) = 5.56131 6.30452 5.94454
#
# Compressibility (1/GPa) = 0.03075349
#
# Stress axis : x y z
#
# Youngs Moduli (GPa) = 53.57805 53.57815 28.93037
#
# Poissons Ratio (x) = 0.53843 0.15219
# Poissons Ratio (y) = 0.53843 0.15219
# Poissons Ratio (z) = 0.28185 0.28184
#
# Static dielectric constant tensor:
#      x y z
#    x 1.665010 0.000000 0.000000 
#    y 0.000000 1.665010 0.000000 
#    z 0.000000 0.000000 1.635800 
# 
# From -- ./inp_files/3280.got.cif
#   From: 2010.05.17/outbox.cif.g08.bks.cpg/sg117_2_cif.got.tgz:3280.got - 2010.05.20 11:15:09.
