data_PCOD9558870
_publ_section_title
;
Structure prediction by ZEFSAII (Michael W. Deem and Ramdas Pophale) SiO2 
 PCOD9558870
Probable space group: P -4 N 2
;
_chemical_formula_sum "Si O2"
_cell_formula_units_Z 18
_cell_length_a 5.434103
_cell_length_b 5.434103
_cell_length_c 24.641740
_cell_angle_alpha 90.000000
_cell_angle_beta 90.000000
_cell_angle_gamma 90.000000
_cell_volume 727.657656
_symmetry_space_group_name_H-M "P -4 N 2"
_symmetry_group_IT_number 118
_symmetry_cell_setting 'tetragonal'
loop_
_space_group_symop_operation_xyz
x,y,z
y,-x,-z
-x,-y,z
-y,x,-z
1/2+y,1/2+x,1/2-z
1/2-y,1/2-x,1/2-z
1/2-x,1/2+y,1/2+z
1/2+x,1/2-y,1/2+z
loop_
_atom_site_type_symbol
_atom_site_label
_atom_site_fract_x
_atom_site_fract_y
_atom_site_fract_z
Si Si1 0.656081 0.253136 0.190323
Si Si2 0.641241 0.746765 0.572918
Si Si3 0.000000 0.000000 0.500000
O O1 0.500000 0.500000 0.182389
O O2 0.774079 0.274079 0.250000
O O3 0.824775 0.234983 0.137731
O O4 0.500000 0.000000 0.190355
O O5 0.500000 0.500000 0.557255
O O6 0.894158 0.790610 0.540259
O O7 0.500000 0.000000 0.561912
#
# Coordination Sequence:
#
# PCOD9558870 Si02
#       3
#     8   8   2
#     4  11  24  48  79 118 161 207 268 341 416 498
#     4  12  29  50  82 117 160 219 278 342 420 497
#     4  12  32  52  72 116 176 208 296 340 426 500
#
# _framework density 24.736910999999999
#
# number of rings (size 3 to 8) (size 9 to 14) (size 15 to 20)
#    0.000    0.444    2.222    4.000    6.222    4.444 
#    0.000    0.000    0.000    0.000    0.000    0.000 
#    0.000    0.000    0.000    0.000    0.000    0.000 
#
# Total GULP energy -100876.522653 kJ/mol
# GULP energy per Si atom -5604.251258 kJ/mol
# Density = 2.468061 g / cm^3
# Si number density = 24.736911 Si / 1000 Ang^3
#
#
#
# Elastic Constant Matrix: (Units=GPa)
#
#
# Indices 1 2 3 4 5 6 
#
# 1 150.1107 64.2859 42.3846 0.0000 0.0000 0.0000
# 2 64.2859 150.1107 42.3846 0.0000 0.0000 0.0000
# 3 42.3846 42.3846 216.6311 0.0000 0.0000 0.0000
# 4 0.0000 0.0000 0.0000 -77.2560 0.0000 0.0000
# 5 0.0000 0.0000 0.0000 0.0000 -77.2560 0.0000
# 6 0.0000 0.0000 0.0000 0.0000 0.0000 62.8100
#
#
#
# Elastic Compliance Matrix: (Units=1/GPa)
#
#
# Indices 1 2 3 4 5 6 
#
# 1 0.008353 -0.003298 -0.000989 0.000000 0.000000 0.000000
# 2 -0.003298 0.008353 -0.000989 0.000000 0.000000 0.000000
# 3 -0.000989 -0.000989 0.005003 0.000000 0.000000 0.000000
# 4 0.000000 0.000000 0.000000 -0.012944 0.000000 0.000000
# 5 0.000000 0.000000 0.000000 0.000000 -0.012944 0.000000
# 6 0.000000 0.000000 0.000000 0.000000 0.000000 0.015921
#
#
# Mechanical properties :
#
#
# Convention : Reuss Voigt Hill
#
# Bulk Modulus (GPa) = 89.62607 90.55139 90.08873
# Shear Modulus (GPa) = 192.19647 6.17944 99.18796
#
# Velocity S-wave (km/s) = 8.82411 1.58224 6.33910
# Velocity P-wave (km/s) = 11.83766 6.32639 9.49088
#
# Compressibility (1/GPa) = 0.01115747
#
# Stress axis : x y z
#
# Youngs Moduli (GPa) = 119.71054 119.71054 199.87285
#
# Poissons Ratio (x) = 0.39482 0.19769
# Poissons Ratio (y) = 0.39482 0.19769
# Poissons Ratio (z) = 0.11840 0.11840
#
# Static dielectric constant tensor:
#      x y z
#    x 1.899580 0.000000 0.000000 
#    y 0.000000 1.899580 0.000000 
#    z 0.000000 0.000000 1.969230 
# 
# From -- ./inp_files/5786.got.cif
#   From: 2010.05.17/outbox.cif.g08.bks.cpg/sg118_3_cif.got.tgz:5786.got - 2010.05.20 11:17:24.
