data_PCOD9558074
_publ_section_title
;
Structure prediction by ZEFSAII (Michael W. Deem and Ramdas Pophale) SiO2 
 PCOD9558074
Probable space group: P -4 B 2
;
_chemical_formula_sum "Si O2"
_cell_formula_units_Z 40
_cell_length_a 14.459927
_cell_length_b 14.459927
_cell_length_c 9.892181
_cell_angle_alpha 90.000000
_cell_angle_beta 90.000000
_cell_angle_gamma 90.000000
_cell_volume 2068.351069
_symmetry_space_group_name_H-M "P -4 B 2"
_symmetry_group_IT_number 117
_symmetry_cell_setting 'tetragonal'
loop_
_space_group_symop_operation_xyz
x,y,z
y,-x,-z
-x,-y,z
-y,x,-z
1/2+y,1/2+x,-z
1/2-y,1/2-x,-z
1/2-x,1/2+y,z
1/2+x,1/2-y,z
loop_
_atom_site_type_symbol
_atom_site_label
_atom_site_fract_x
_atom_site_fract_y
_atom_site_fract_z
Si Si1 0.498350 0.847137 0.468430
Si Si2 0.000000 0.000000 0.000000
Si Si3 0.283282 0.783282 0.000000
Si Si4 0.034070 0.314105 0.155048
Si Si5 0.099110 0.846631 0.153569
Si Si6 0.036763 0.859033 0.462939
Si Si7 0.000000 0.500000 0.000000
O O1 0.404078 0.904078 0.500000
O O2 0.486775 0.826508 0.311152
O O3 0.521178 0.743963 0.524942
O O4 0.582583 0.917418 0.500000
O O5 0.927505 0.053998 0.094135
O O6 0.298234 0.861110 0.886249
O O7 0.303959 0.689691 0.917370
O O8 0.000473 0.407727 0.086741
O O9 0.979863 0.224498 0.107960
O O10 0.089803 0.851765 0.317737
O O11 0.934018 0.904865 0.449685
#
# Coordination Sequence:
#
# PCOD9558074 Si02
#       7
#     8   2   4   8   8   8   2
#     4  10  22  41  64  94 132 172 220 268 335 399
#     4  12  20  40  66  92 128 176 208 282 328 384
#     4  11  23  41  68  97 131 179 216 276 342 400
#     4  10  22  40  60  96 127 168 220 268 328 404
#     4  11  23  42  64  96 134 171 225 275 335 409
#     4  10  23  44  62  94 131 174 227 275 334 405
#     4  10  18  36  62  84 130 162 208 270 328 388
#
# _framework density 19.339075999999999
#
# number of rings (size 3 to 8) (size 9 to 14) (size 15 to 20)
#    0.000    1.600    2.000    3.000    2.800    0.800 
#   10.800    0.000    0.000    0.000    0.000    0.000 
#    0.000    0.000    0.000    0.000    0.000    0.000 
#
# Total GULP energy -222772.542735 kJ/mol
# GULP energy per Si atom -5569.313568 kJ/mol
# Density = 1.929506 g / cm^3
# Si number density = 19.339076 Si / 1000 Ang^3
#
#
#
# Elastic Constant Matrix: (Units=GPa)
#
#
# Indices 1 2 3 4 5 6 
#
# 1 129.9702 17.8772 27.5142 0.0000 0.0000 0.0000
# 2 17.8772 129.9689 27.5147 0.0000 0.0000 0.0000
# 3 27.5142 27.5147 60.8959 0.0000 0.0000 0.0000
# 4 0.0000 0.0000 0.0000 34.6813 0.0000 0.0000
# 5 0.0000 0.0000 0.0000 0.0000 34.6812 0.0000
# 6 0.0000 0.0000 0.0000 0.0000 0.0000 31.5112
#
#
#
# Elastic Compliance Matrix: (Units=1/GPa)
#
#
# Indices 1 2 3 4 5 6 
#
# 1 0.008526 -0.000395 -0.003674 0.000000 0.000000 0.000000
# 2 -0.000395 0.008526 -0.003674 0.000000 0.000000 0.000000
# 3 -0.003674 -0.003674 0.019741 0.000000 0.000000 0.000000
# 4 0.000000 0.000000 0.000000 0.028834 0.000000 0.000000
# 5 0.000000 0.000000 0.000000 0.000000 0.028834 0.000000
# 6 0.000000 0.000000 0.000000 0.000000 0.000000 0.031735
#
#
# Mechanical properties :
#
#
# Convention : Reuss Voigt Hill
#
# Bulk Modulus (GPa) = 46.93028 51.84969 49.38999
# Shear Modulus (GPa) = 33.60555 36.70333 35.15444
#
# Velocity S-wave (km/s) = 4.17310 4.36120 4.26818
# Velocity P-wave (km/s) = 6.89488 7.22697 7.06288
#
# Compressibility (1/GPa) = 0.02130820
#
# Stress axis : x y z
#
# Youngs Moduli (GPa) = 117.28640 117.28457 50.65494
#
# Poissons Ratio (x) = 0.04633 0.18610
# Poissons Ratio (y) = 0.04633 0.18610
# Poissons Ratio (z) = 0.43089 0.43090
#
# Static dielectric constant tensor:
#      x y z
#    x 1.668390 0.000000 0.000000 
#    y 0.000000 1.668390 0.000000 
#    z 0.000000 0.000000 1.571980 
# 
# From -- ./inp_files/1808.got.cif
#   From: 2010.05.17/outbox.cif.g08.bks.cpg/sg117_1_cif.got.tgz:1808.got - 2010.05.20 11:15:09.
