data_PCOD9558920
_publ_section_title
;
Structure prediction by ZEFSAII (Michael W. Deem and Ramdas Pophale) SiO2 
 PCOD9558920
Probable space group: P -4 N 2
;
_chemical_formula_sum "Si O2"
_cell_formula_units_Z 24
_cell_length_a 7.368807
_cell_length_b 7.368807
_cell_length_c 16.732079
_cell_angle_alpha 90.000000
_cell_angle_beta 90.000000
_cell_angle_gamma 90.000000
_cell_volume 908.540455
_symmetry_space_group_name_H-M "P -4 N 2"
_symmetry_group_IT_number 118
_symmetry_cell_setting 'tetragonal'
loop_
_space_group_symop_operation_xyz
x,y,z
y,-x,-z
-x,-y,z
-y,x,-z
1/2+y,1/2+x,1/2-z
1/2-y,1/2-x,1/2-z
1/2-x,1/2+y,1/2+z
1/2+x,1/2-y,1/2+z
loop_
_atom_site_type_symbol
_atom_site_label
_atom_site_fract_x
_atom_site_fract_y
_atom_site_fract_z
Si Si1 0.542601 0.718344 0.103080
Si Si2 0.242184 0.439141 0.328548
Si Si3 0.305154 0.805154 0.250000
Si Si4 0.500000 0.000000 0.531835
O O1 0.500000 0.500000 0.100955
O O2 0.750563 0.773078 0.124472
O O3 0.438861 0.806923 0.176992
O O4 0.478770 0.824836 0.024106
O O5 0.132183 0.367818 0.250000
O O6 0.344267 0.606359 0.287567
O O7 0.153707 0.546696 0.403474
#
# Coordination Sequence:
#
# PCOD9558920 Si02
#       4
#     8   8   4   4
#     4  12  30  47  83 113 153 208 255 323 397 451
#     4  12  25  52  74 110 156 200 255 315 387 465
#     4  12  27  53  80 106 156 207 256 317 392 474
#     4  12  29  47  78 120 154 192 270 319 369 482
#
# _framework density 26.415996
#
# number of rings (size 3 to 8) (size 9 to 14) (size 15 to 20)
#    0.000    0.000    6.667    0.000   14.000    0.000 
#    0.000    0.000    0.000    0.000    0.000    0.000 
#    0.000    0.000    0.000    0.000    0.000    0.000 
#
# Total GULP energy -133900.924008 kJ/mol
# GULP energy per Si atom -5579.205167 kJ/mol
# Density = 2.635587 g / cm^3
# Si number density = 26.415996 Si / 1000 Ang^3
#
#
#
# Elastic Constant Matrix: (Units=GPa)
#
#
# Indices 1 2 3 4 5 6 
#
# 1 103.3366 28.2432 42.4188 0.0000 0.0000 0.0000
# 2 28.2432 103.3362 42.4187 0.0000 0.0000 0.0000
# 3 42.4188 42.4187 248.4387 0.0000 0.0000 0.0000
# 4 0.0000 0.0000 0.0000 41.2820 0.0000 0.0000
# 5 0.0000 0.0000 0.0000 0.0000 41.2813 0.0000
# 6 0.0000 0.0000 0.0000 0.0000 0.0000 27.7614
#
#
#
# Elastic Compliance Matrix: (Units=1/GPa)
#
#
# Indices 1 2 3 4 5 6 
#
# 1 0.010928 -0.002388 -0.001458 0.000000 0.000000 0.000000
# 2 -0.002388 0.010928 -0.001458 0.000000 0.000000 0.000000
# 3 -0.001458 -0.001458 0.004523 0.000000 0.000000 0.000000
# 4 0.000000 0.000000 0.000000 0.024224 0.000000 0.000000
# 5 0.000000 0.000000 0.000000 0.000000 0.024224 0.000000
# 6 0.000000 0.000000 0.000000 0.000000 0.000000 0.036021
#
#
# Mechanical properties :
#
#
# Convention : Reuss Voigt Hill
#
# Bulk Modulus (GPa) = 63.40870 75.69702 69.55286
# Shear Modulus (GPa) = 39.45858 44.86697 42.16277
#
# Velocity S-wave (km/s) = 3.86908 4.12573 3.99947
# Velocity P-wave (km/s) = 6.63444 7.17032 6.90758
#
# Compressibility (1/GPa) = 0.01577071
#
# Stress axis : x y z
#
# Youngs Moduli (GPa) = 91.50441 91.50409 221.08868
#
# Poissons Ratio (x) = 0.21854 0.32238
# Poissons Ratio (y) = 0.21854 0.32238
# Poissons Ratio (z) = 0.13343 0.13343
#
# Static dielectric constant tensor:
#      x y z
#    x 2.086810 0.000000 0.000000 
#    y 0.000000 2.086830 0.000000 
#    z 0.000000 0.000000 1.911220 
# 
# From -- ./inp_files/4425.got.cif
#   From: 2010.05.17/outbox.cif.g08.bks.cpg/sg118_3_cif.got.tgz:4425.got - 2010.05.20 11:17:24.
