data_PCOD9558682
_publ_section_title
;
Structure prediction by ZEFSAII (Michael W. Deem and Ramdas Pophale) SiO2 
 PCOD9558682
Probable space group: P -4 N 2
;
_chemical_formula_sum "Si O2"
_cell_formula_units_Z 40
_cell_length_a 17.133317
_cell_length_b 17.133317
_cell_length_c 5.437357
_cell_angle_alpha 90.000000
_cell_angle_beta 90.000000
_cell_angle_gamma 90.000000
_cell_volume 1596.139146
_symmetry_space_group_name_H-M "P -4 N 2"
_symmetry_group_IT_number 118
_symmetry_cell_setting 'tetragonal'
loop_
_space_group_symop_operation_xyz
x,y,z
y,-x,-z
-x,-y,z
-y,x,-z
1/2+y,1/2+x,1/2-z
1/2-y,1/2-x,1/2-z
1/2-x,1/2+y,1/2+z
1/2+x,1/2-y,1/2+z
loop_
_atom_site_type_symbol
_atom_site_label
_atom_site_fract_x
_atom_site_fract_y
_atom_site_fract_z
Si Si1 0.775853 0.920707 0.587924
Si Si2 0.532811 0.238062 0.272273
Si Si3 0.320916 0.755044 0.005756
Si Si4 0.503129 0.124299 0.670258
Si Si5 0.617118 0.514780 0.430520
O O1 0.786349 0.828750 0.576650
O O2 0.851140 0.962302 0.707972
O O3 0.762367 0.946795 0.309286
O O4 0.700244 0.955432 0.728642
O O5 0.523545 0.154013 0.395153
O O6 0.557927 0.307121 0.456879
O O7 0.585413 0.246575 0.027876
O O8 0.286982 0.786982 0.750000
O O9 0.305516 0.805516 0.250000
O O10 0.586570 0.086570 0.750000
O O11 0.443008 0.056993 0.750000
O O12 0.576651 0.451501 0.613945
#
# Coordination Sequence:
#
# PCOD9558682 Si02
#       5
#     8   8   8   8   8
#     4  11  26  43  74 109 159 208 271 333 416 497
#     4  11  27  44  75 112 160 206 277 337 422 497
#     4  12  31  51  81 115 162 214 274 341 422 506
#     4  10  25  49  78 111 156 208 275 345 419 497
#     4  10  22  43  70 104 154 207 268 332 410 491
#
# _framework density 25.060472000000001
#
# number of rings (size 3 to 8) (size 9 to 14) (size 15 to 20)
#    0.000    1.200    2.000    0.600   19.600    0.000 
#    0.000    4.000    0.000    0.000    0.000    0.000 
#    0.000    0.000    0.000    0.000    0.000    0.000 
#
# Total GULP energy -223132.579266 kJ/mol
# GULP energy per Si atom -5578.314482 kJ/mol
# Density = 2.500343 g / cm^3
# Si number density = 25.060472 Si / 1000 Ang^3
#
#
#
# Elastic Constant Matrix: (Units=GPa)
#
#
# Indices 1 2 3 4 5 6 
#
# 1 122.0392 38.1896 40.7924 0.0000 0.0000 0.0000
# 2 38.1896 122.0393 40.7927 0.0000 0.0000 0.0000
# 3 40.7924 40.7927 100.1381 0.0000 0.0000 0.0000
# 4 0.0000 0.0000 0.0000 24.2865 0.0000 0.0000
# 5 0.0000 0.0000 0.0000 0.0000 24.3078 0.0000
# 6 0.0000 0.0000 0.0000 0.0000 0.0000 37.8989
#
#
#
# Elastic Compliance Matrix: (Units=1/GPa)
#
#
# Indices 1 2 3 4 5 6 
#
# 1 0.009900 -0.002026 -0.003208 0.000000 0.000000 0.000000
# 2 -0.002026 0.009900 -0.003208 0.000000 0.000000 0.000000
# 3 -0.003208 -0.003208 0.012600 0.000000 0.000000 0.000000
# 4 0.000000 0.000000 0.000000 0.041175 0.000000 0.000000
# 5 0.000000 0.000000 0.000000 0.000000 0.041139 0.000000
# 6 0.000000 0.000000 0.000000 0.000000 0.000000 0.026386
#
#
# Mechanical properties :
#
#
# Convention : Reuss Voigt Hill
#
# Bulk Modulus (GPa) = 64.44350 64.86289 64.65319
# Shear Modulus (GPa) = 30.64564 32.26145 31.45354
#
# Velocity S-wave (km/s) = 3.50075 3.59185 3.54659
# Velocity P-wave (km/s) = 6.48932 6.56815 6.52886
#
# Compressibility (1/GPa) = 0.01551747
#
# Stress axis : x y z
#
# Youngs Moduli (GPa) = 101.00769 101.00754 79.36742
#
# Poissons Ratio (x) = 0.20463 0.25459
# Poissons Ratio (y) = 0.20463 0.25459
# Poissons Ratio (z) = 0.32400 0.32401
#
# Static dielectric constant tensor:
#      x y z
#    x 2.078530 0.000000 0.000000 
#    y 0.000000 2.078530 0.000000 
#    z 0.000000 0.000000 2.148960 
# 
# From -- ./inp_files/608.got.cif
#   From: 2010.05.17/outbox.cif.g08.bks.cpg/sg118_1_cif.got.tgz:608.got - 2010.05.20 11:17:24.
