data_PCOD9558348
_publ_section_title
;
Structure prediction by ZEFSAII (Michael W. Deem and Ramdas Pophale) SiO2 
 PCOD9558348
Probable space group: P -4 B 2
;
_chemical_formula_sum "Si O2"
_cell_formula_units_Z 36
_cell_length_a 10.979859
_cell_length_b 10.979859
_cell_length_c 12.152073
_cell_angle_alpha 90.000000
_cell_angle_beta 90.000000
_cell_angle_gamma 90.000000
_cell_volume 1465.021155
_symmetry_space_group_name_H-M "P -4 B 2"
_symmetry_group_IT_number 117
_symmetry_cell_setting 'tetragonal'
loop_
_space_group_symop_operation_xyz
x,y,z
y,-x,-z
-x,-y,z
-y,x,-z
1/2+y,1/2+x,-z
1/2-y,1/2-x,-z
1/2-x,1/2+y,z
1/2+x,1/2-y,z
loop_
_atom_site_type_symbol
_atom_site_label
_atom_site_fract_x
_atom_site_fract_y
_atom_site_fract_z
Si Si1 0.500000 0.500000 0.000000
Si Si2 0.500000 0.500000 0.500000
Si Si3 0.777791 0.277791 0.500000
Si Si4 0.500000 0.000000 0.156460
Si Si5 0.134493 0.109179 0.327677
Si Si6 0.940695 0.766388 0.849912
Si Si7 0.243984 0.589888 0.724520
O O1 0.533207 0.377052 0.932894
O O2 0.503197 0.610553 0.583001
O O3 0.784944 0.169174 0.587014
O O4 0.779578 0.381734 0.594872
O O5 0.369409 0.960844 0.103201
O O6 0.534475 0.877940 0.223932
O O7 0.015148 0.153732 0.266866
O O8 0.223357 0.046377 0.243191
O O9 0.810260 0.797757 0.790696
#
# Coordination Sequence:
#
# PCOD9558348 Si02
#       7
#     2   2   4   4   8   8   8
#     4  12  26  56 108 110 156 248 302 368 484 514
#     4  12  18  32  68 102 140 212 274 324 388 486
#     4  12  24  35  72 115 170 228 270 337 436 511
#     4  12  30  49  81 126 176 202 274 370 426 516
#     4  12  21  42  71 111 158 218 278 339 413 517
#     4  12  26  54  83 122 162 222 291 368 435 522
#     4  12  25  45  74 116 175 221 280 342 421 534
#
# _framework density 24.573022999999999
#
# number of rings (size 3 to 8) (size 9 to 14) (size 15 to 20)
#    0.000    0.000    8.889    1.333    0.000    2.222 
#    0.000    5.556    0.000    0.000    0.000    0.000 
#    0.000    0.000    0.000    0.000    0.000    0.000 
#
# Total GULP energy -200461.580942 kJ/mol
# GULP energy per Si atom -5568.377248 kJ/mol
# Density = 2.451709 g / cm^3
# Si number density = 24.573023 Si / 1000 Ang^3
#
#
#
# Elastic Constant Matrix: (Units=GPa)
#
#
# Indices 1 2 3 4 5 6 
#
# 1 143.1415 37.4908 54.0767 0.0000 0.0000 0.0000
# 2 37.4908 143.1415 54.0767 0.0000 0.0000 0.0000
# 3 54.0767 54.0767 117.6948 0.0000 0.0000 0.0000
# 4 0.0000 0.0000 0.0000 32.6498 0.0000 0.0000
# 5 0.0000 0.0000 0.0000 0.0000 32.6498 0.0000
# 6 0.0000 0.0000 0.0000 0.0000 0.0000 35.5341
#
#
#
# Elastic Compliance Matrix: (Units=1/GPa)
#
#
# Indices 1 2 3 4 5 6 
#
# 1 0.008551 -0.000914 -0.003509 0.000000 0.000000 0.000000
# 2 -0.000914 0.008551 -0.003509 0.000000 0.000000 0.000000
# 3 -0.003509 -0.003509 0.011721 0.000000 0.000000 0.000000
# 4 0.000000 0.000000 0.000000 0.030628 0.000000 0.000000
# 5 0.000000 0.000000 0.000000 0.000000 0.030628 0.000000
# 6 0.000000 0.000000 0.000000 0.000000 0.000000 0.028142
#
#
# Mechanical properties :
#
#
# Convention : Reuss Voigt Hill
#
# Bulk Modulus (GPa) = 77.16445 77.25182 77.20814
# Shear Modulus (GPa) = 36.12578 37.38895 36.75737
#
# Velocity S-wave (km/s) = 3.83840 3.90493 3.87181
# Velocity P-wave (km/s) = 7.14945 7.19981 7.17467
#
# Compressibility (1/GPa) = 0.01295933
#
# Stress axis : x y z
#
# Youngs Moduli (GPa) = 116.94350 116.94350 85.31634
#
# Poissons Ratio (x) = 0.10689 0.29937
# Poissons Ratio (y) = 0.10689 0.29937
# Poissons Ratio (z) = 0.41035 0.41035
#
# Static dielectric constant tensor:
#      x y z
#    x 2.128880 0.000000 0.000000 
#    y 0.000000 2.128880 0.000000 
#    z 0.000000 0.000000 1.876180 
# 
# From -- ./inp_files/2607.got.cif
#   From: 2010.05.17/outbox.cif.g08.bks.cpg/sg117_2_cif.got.tgz:2607.got - 2010.05.20 11:15:09.
