data_PCOD9558047
_publ_section_title
;
Structure prediction by ZEFSAII (Michael W. Deem and Ramdas Pophale) SiO2 
 PCOD9558047
Probable space group: P -4 B 2
;
_chemical_formula_sum "Si O2"
_cell_formula_units_Z 50
_cell_length_a 19.201382
_cell_length_b 19.201382
_cell_length_c 5.530098
_cell_angle_alpha 90.000000
_cell_angle_beta 90.000000
_cell_angle_gamma 90.000000
_cell_volume 2038.908813
_symmetry_space_group_name_H-M "P -4 B 2"
_symmetry_group_IT_number 117
_symmetry_cell_setting 'tetragonal'
loop_
_space_group_symop_operation_xyz
x,y,z
y,-x,-z
-x,-y,z
-y,x,-z
1/2+y,1/2+x,-z
1/2-y,1/2-x,-z
1/2-x,1/2+y,z
1/2+x,1/2-y,z
loop_
_atom_site_type_symbol
_atom_site_label
_atom_site_fract_x
_atom_site_fract_y
_atom_site_fract_z
Si Si1 0.653438 0.846563 0.500000
Si Si2 0.000000 0.000000 0.000000
Si Si3 0.871325 0.782181 0.752782
Si Si4 0.246397 0.746397 0.000000
Si Si5 0.743034 0.053694 0.738415
Si Si6 0.962320 0.366376 0.090921
Si Si7 0.443656 0.359017 0.157011
Si Si8 0.903925 0.241233 0.802263
O O1 0.640374 0.898798 0.719765
O O2 0.732351 0.866357 0.437214
O O3 0.014768 0.930676 0.154504
O O4 0.798057 0.741298 0.779964
O O5 0.908829 0.754410 0.515077
O O6 0.870070 0.866586 0.737615
O O7 0.905718 0.766226 0.017967
O O8 0.257188 0.664949 0.033659
O O9 0.662547 0.029956 0.774064
O O10 0.795470 0.986721 0.725538
O O11 0.944134 0.444134 0.000000
O O12 0.953192 0.305117 0.887396
O O13 0.437153 0.331687 0.874497
#
# Coordination Sequence:
#
# PCOD9558047 Si02
#       8
#     4   2   8   4   8   8   8   8
#     4  10  16  28  60  86 118 155 200 268 353 386
#     4  12  20  40  62  80 126 192 242 268 314 400
#     4  11  26  43  65  94 127 183 221 284 341 400
#     4  10  20  42  60  90 123 160 230 273 344 404
#     4  11  25  43  62  93 134 168 223 280 333 404
#     4   9  19  33  56  91 121 160 202 265 344 393
#     4  10  23  39  60  83 128 178 237 271 324 392
#     4   9  18  35  50  89 114 158 212 285 326 385
#
# _framework density 24.522919000000002
#
# number of rings (size 3 to 8) (size 9 to 14) (size 15 to 20)
#    0.000    1.920    4.000    0.000    6.720    5.760 
#    0.000    0.000    0.000    0.000    0.000    0.560 
#    0.000    0.000    0.000    0.000    0.000    0.000 
#
# Total GULP energy -278574.694491 kJ/mol
# GULP energy per Si atom -5571.493890 kJ/mol
# Density = 2.446710 g / cm^3
# Si number density = 24.522919 Si / 1000 Ang^3
#
#
#
# Elastic Constant Matrix: (Units=GPa)
#
#
# Indices 1 2 3 4 5 6 
#
# 1 36.7757 40.9570 25.3461 0.0000 0.0000 0.0000
# 2 40.9570 36.7746 25.3461 0.0000 0.0000 0.0000
# 3 25.3461 25.3461 106.7108 0.0000 0.0000 0.0000
# 4 0.0000 0.0000 0.0000 34.6884 0.0000 0.0000
# 5 0.0000 0.0000 0.0000 0.0000 34.6889 0.0000
# 6 0.0000 0.0000 0.0000 0.0000 0.0000 40.3969
#
#
#
# Elastic Compliance Matrix: (Units=1/GPa)
#
#
# Indices 1 2 3 4 5 6 
#
# 1 -0.111952 0.127177 -0.003616 0.000000 0.000000 0.000000
# 2 0.127177 -0.111956 -0.003615 0.000000 0.000000 0.000000
# 3 -0.003616 -0.003615 0.011089 0.000000 0.000000 0.000000
# 4 0.000000 0.000000 0.000000 0.028828 0.000000 0.000000
# 5 0.000000 0.000000 0.000000 0.000000 0.028828 0.000000
# 6 0.000000 0.000000 0.000000 0.000000 0.000000 0.024754
#
#
# Mechanical properties :
#
#
# Convention : Reuss Voigt Hill
#
# Bulk Modulus (GPa) = 36.93963 40.39550 38.66756
# Shear Modulus (GPa) = -13.83977 27.86230 7.01127
#
# Velocity S-wave (km/s) = -2.37821 3.37437 1.69271
# Velocity P-wave (km/s) = 2.74861 5.62940 4.42973
#
# Compressibility (1/GPa) = 0.02707120
#
# Stress axis : x y z
#
# Youngs Moduli (GPa) = -8.93236 -8.93205 90.18155
#
# Poissons Ratio (x) = 1.13595 0.32611
# Poissons Ratio (y) = 1.13599 0.32603
# Poissons Ratio (z) = -0.03230 -0.03229
#
# Static dielectric constant tensor:
#      x y z
#    x 2.016270 0.000000 0.000000 
#    y 0.000000 2.016270 0.000000 
#    z 0.000000 0.000000 2.184280 
# 
# From -- ./inp_files/849.got.cif
#   From: 2010.05.17/outbox.cif.g08.bks.cpg/sg117_1_cif.got.tgz:849.got - 2010.05.20 11:15:09.
