data_PCOD9558391
_publ_section_title
;
Structure prediction by ZEFSAII (Michael W. Deem and Ramdas Pophale) SiO2 
 PCOD9558391
Probable space group: P -4 N 2
;
_chemical_formula_sum "Si O2"
_cell_formula_units_Z 58
_cell_length_a 17.740921
_cell_length_b 17.740921
_cell_length_c 9.652276
_cell_angle_alpha 90.000000
_cell_angle_beta 90.000000
_cell_angle_gamma 90.000000
_cell_volume 3037.960031
_symmetry_space_group_name_H-M "P -4 N 2"
_symmetry_group_IT_number 118
_symmetry_cell_setting 'tetragonal'
loop_
_space_group_symop_operation_xyz
x,y,z
y,-x,-z
-x,-y,z
-y,x,-z
1/2+y,1/2+x,1/2-z
1/2-y,1/2-x,1/2-z
1/2-x,1/2+y,1/2+z
1/2+x,1/2-y,1/2+z
loop_
_atom_site_type_symbol
_atom_site_label
_atom_site_fract_x
_atom_site_fract_y
_atom_site_fract_z
Si Si1 0.917088 0.878896 0.191841
Si Si2 0.629780 0.134488 0.586497
Si Si3 0.968149 0.423309 0.089128
Si Si4 0.999406 0.104026 0.566945
Si Si5 0.016676 0.242530 0.405421
Si Si6 0.000000 0.000000 0.000000
Si Si7 0.144366 0.686564 0.405566
Si Si8 0.782932 0.776321 0.100260
O O1 0.896287 0.941426 0.308001
O O2 0.952506 0.805284 0.272310
O O3 0.841027 0.845554 0.122245
O O4 0.971106 0.927307 0.089477
O O5 0.639496 0.139496 0.750000
O O6 0.540221 0.129923 0.571435
O O7 0.680228 0.060507 0.559164
O O8 0.668741 0.208903 0.530662
O O9 0.945541 0.445541 0.250000
O O10 0.892860 0.386592 0.035070
O O11 0.000000 0.500000 0.025224
O O12 0.070414 0.047507 0.566347
O O13 0.028342 0.185850 0.532326
O O14 0.928360 0.259915 0.394533
O O15 0.173453 0.673453 0.250000
O O16 0.211455 0.711116 0.503631
O O17 0.750543 0.749458 0.250000
#
# Coordination Sequence:
#
# PCOD9558391 Si02
#       8
#     8   8   8   8   8   2   8   8
#     4  11  23  41  60  89 130 166 207 263 318 390
#     4  11  18  34  57  91 120 157 197 253 312 369
#     4  10  17  32  59  91 117 146 206 266 300 352
#     4   9  19  37  61  88 114 158 216 257 292 364
#     4  11  20  35  65  89 120 157 203 260 311 365
#     4  12  28  40  62  88 120 172 208 242 336 388
#     4  11  24  37  62  95 122 161 210 265 312 376
#     4  11  24  40  61  91 131 167 207 257 330 379
#
# _framework density 19.091757999999999
#
# number of rings (size 3 to 8) (size 9 to 14) (size 15 to 20)
#    0.000    1.379    5.517    3.310    3.862    0.000 
#    0.000    0.000    0.000    0.414    0.000    0.000 
#    0.000    0.000    0.000    0.000    0.000    0.000 
#
# Total GULP energy -322892.382450 kJ/mol
# GULP energy per Si atom -5567.110042 kJ/mol
# Density = 1.904830 g / cm^3
# Si number density = 19.091758 Si / 1000 Ang^3
#
#
#
# Elastic Constant Matrix: (Units=GPa)
#
#
# Indices 1 2 3 4 5 6 
#
# 1 82.6546 28.0665 15.6338 0.0000 0.0000 0.0000
# 2 28.0665 82.6541 15.6337 0.0000 0.0000 0.0000
# 3 15.6338 15.6337 31.2482 0.0000 0.0000 0.0000
# 4 0.0000 0.0000 0.0000 21.3613 0.0000 0.0000
# 5 0.0000 0.0000 0.0000 0.0000 21.3611 0.0000
# 6 0.0000 0.0000 0.0000 0.0000 0.0000 51.0006
#
#
#
# Elastic Compliance Matrix: (Units=1/GPa)
#
#
# Indices 1 2 3 4 5 6 
#
# 1 0.014418 -0.003901 -0.005262 0.000000 0.000000 0.000000
# 2 -0.003901 0.014418 -0.005262 0.000000 0.000000 0.000000
# 3 -0.005262 -0.005262 0.037267 0.000000 0.000000 0.000000
# 4 0.000000 0.000000 0.000000 0.046814 0.000000 0.000000
# 5 0.000000 0.000000 0.000000 0.000000 0.046814 0.000000
# 6 0.000000 0.000000 0.000000 0.000000 0.000000 0.019608
#
#
# Mechanical properties :
#
#
# Convention : Reuss Voigt Hill
#
# Bulk Modulus (GPa) = 26.84260 35.02502 30.93381
# Shear Modulus (GPa) = 22.66468 27.89277 25.27873
#
# Velocity S-wave (km/s) = 3.44923 3.82643 3.64272
# Velocity P-wave (km/s) = 5.47296 6.15691 5.82498
#
# Compressibility (1/GPa) = 0.03725421
#
# Stress axis : x y z
#
# Youngs Moduli (GPa) = 69.35589 69.35557 26.83322
#
# Poissons Ratio (x) = 0.27053 0.14120
# Poissons Ratio (y) = 0.27054 0.14120
# Poissons Ratio (z) = 0.36496 0.36496
#
# Static dielectric constant tensor:
#      x y z
#    x 1.802610 0.000000 0.000000 
#    y 0.000000 1.802610 0.000000 
#    z 0.000000 0.000000 1.672910 
# 
# From -- ./inp_files/2220.got.cif
#   From: 2010.05.17/outbox.cif.g08.bks.cpg/sg118_2_cif.got.tgz:2220.got - 2010.05.20 11:17:24.
