data_PCOD9558681
_publ_section_title
;
Structure prediction by ZEFSAII (Michael W. Deem and Ramdas Pophale) SiO2 
 PCOD9558681
Probable space group: P -4 N 2
;
_chemical_formula_sum "Si O2"
_cell_formula_units_Z 48
_cell_length_a 20.269471
_cell_length_b 20.269471
_cell_length_c 5.484584
_cell_angle_alpha 90.000000
_cell_angle_beta 90.000000
_cell_angle_gamma 90.000000
_cell_volume 2253.349314
_symmetry_space_group_name_H-M "P -4 N 2"
_symmetry_group_IT_number 118
_symmetry_cell_setting 'tetragonal'
loop_
_space_group_symop_operation_xyz
x,y,z
y,-x,-z
-x,-y,z
-y,x,-z
1/2+y,1/2+x,1/2-z
1/2-y,1/2-x,1/2-z
1/2-x,1/2+y,1/2+z
1/2+x,1/2-y,1/2+z
loop_
_atom_site_type_symbol
_atom_site_label
_atom_site_fract_x
_atom_site_fract_y
_atom_site_fract_z
Si Si1 0.504374 0.827569 0.011373
Si Si2 0.874275 0.857778 0.988778
Si Si3 0.896533 0.603468 0.750000
Si Si4 0.120679 0.620679 0.250000
Si Si5 0.266000 0.075520 0.082523
Si Si6 0.088830 0.934481 0.514698
Si Si7 0.719133 0.076531 0.895667
O O1 0.545810 0.869937 0.826366
O O2 0.443011 0.789732 0.888353
O O3 0.471144 0.881081 0.182249
O O4 0.559589 0.781326 0.134708
O O5 0.802911 0.890727 0.022965
O O6 0.916964 0.884215 0.217898
O O7 0.877500 0.779697 0.032743
O O8 0.902943 0.875342 0.721416
O O9 0.844625 0.608459 0.525445
O O10 0.176979 0.621042 0.460337
O O11 0.266261 0.998616 0.992412
O O12 0.013216 0.910526 0.510327
#
# Coordination Sequence:
#
# PCOD9558681 Si02
#       7
#     8   8   4   4   8   8   8
#     4  10  22  44  67  98 133 184 220 298 346 422
#     4  12  26  40  71 101 138 192 227 284 350 413
#     4  10  22  43  69  96 134 174 232 289 351 422
#     4  10  22  43  69  96 134 174 232 289 351 422
#     4  10  23  42  67  96 138 180 235 282 354 412
#     4  11  24  42  64  98 137 180 241 296 344 403
#     4  10  23  42  67  96 138 180 235 282 354 412
#
# _framework density 21.301625999999999
#
# number of rings (size 3 to 8) (size 9 to 14) (size 15 to 20)
#    0.000    1.500    0.000    4.000   11.667    2.000 
#    0.000   27.500    0.000    0.000    0.000    0.000 
#    0.000    0.000    0.000    0.000    0.000    0.000 
#
# Total GULP energy -267311.248806 kJ/mol
# GULP energy per Si atom -5568.984350 kJ/mol
# Density = 2.125314 g / cm^3
# Si number density = 21.301626 Si / 1000 Ang^3
#
#
#
# Elastic Constant Matrix: (Units=GPa)
#
#
# Indices 1 2 3 4 5 6 
#
# 1 22.6314 19.1890 6.7759 0.0000 0.0000 0.0000
# 2 19.1890 22.6342 6.7760 0.0000 0.0000 0.0000
# 3 6.7759 6.7760 71.4038 0.0000 0.0000 0.0000
# 4 0.0000 0.0000 0.0000 20.0040 0.0000 0.0000
# 5 0.0000 0.0000 0.0000 0.0000 20.0050 0.0000
# 6 0.0000 0.0000 0.0000 0.0000 0.0000 33.1228
#
#
#
# Elastic Compliance Matrix: (Units=1/GPa)
#
#
# Indices 1 2 3 4 5 6 
#
# 1 0.157531 -0.132852 -0.002342 0.000000 0.000000 0.000000
# 2 -0.132852 0.157512 -0.002340 0.000000 0.000000 0.000000
# 3 -0.002342 -0.002340 0.014449 0.000000 0.000000 0.000000
# 4 0.000000 0.000000 0.000000 0.049990 0.000000 0.000000
# 5 0.000000 0.000000 0.000000 0.000000 0.049988 0.000000
# 6 0.000000 0.000000 0.000000 0.000000 0.000000 0.030191
#
#
# Mechanical properties :
#
#
# Convention : Reuss Voigt Hill
#
# Bulk Modulus (GPa) = 18.37420 20.23902 19.30661
# Shear Modulus (GPa) = 6.64125 20.22159 13.43142
#
# Velocity S-wave (km/s) = 1.76762 3.08441 2.51377
# Velocity P-wave (km/s) = 3.57917 4.71239 4.18432
#
# Compressibility (1/GPa) = 0.05442413
#
# Stress axis : x y z
#
# Youngs Moduli (GPa) = 6.34794 6.34873 69.20814
#
# Poissons Ratio (x) = 0.84344 0.16207
# Poissons Ratio (y) = 0.84334 0.16197
# Poissons Ratio (z) = 0.01487 0.01486
#
# Static dielectric constant tensor:
#      x y z
#    x 1.748340 0.000000 0.000000 
#    y 0.000000 1.748350 0.000000 
#    z 0.000000 0.000000 2.059970 
# 
# From -- ./inp_files/840.got.cif
#   From: 2010.05.17/outbox.cif.g08.bks.cpg/sg118_1_cif.got.tgz:840.got - 2010.05.20 11:17:24.
