data_PCOD9558354
_publ_section_title
;
Structure prediction by ZEFSAII (Michael W. Deem and Ramdas Pophale) SiO2 
 PCOD9558354
Probable space group: P -4 B 2
;
_chemical_formula_sum "Si O2"
_cell_formula_units_Z 38
_cell_length_a 10.501848
_cell_length_b 10.501848
_cell_length_c 14.342427
_cell_angle_alpha 90.000000
_cell_angle_beta 90.000000
_cell_angle_gamma 90.000000
_cell_volume 1581.809227
_symmetry_space_group_name_H-M "P -4 B 2"
_symmetry_group_IT_number 117
_symmetry_cell_setting 'tetragonal'
loop_
_space_group_symop_operation_xyz
x,y,z
y,-x,-z
-x,-y,z
-y,x,-z
1/2+y,1/2+x,-z
1/2-y,1/2-x,-z
1/2-x,1/2+y,z
1/2+x,1/2-y,z
loop_
_atom_site_type_symbol
_atom_site_label
_atom_site_fract_x
_atom_site_fract_y
_atom_site_fract_z
Si Si1 0.500000 0.000000 0.621350
Si Si2 0.713370 0.534592 0.086251
Si Si3 0.836684 0.666674 0.739381
Si Si4 0.500000 0.500000 0.500000
Si Si5 0.307761 0.453261 0.882182
Si Si6 0.259150 0.638132 0.585559
O O1 0.455769 0.879025 0.679636
O O2 0.637570 0.957454 0.580936
O O3 0.796205 0.604000 0.161926
O O4 0.577821 0.606331 0.099649
O O5 0.676923 0.390458 0.112213
O O6 0.764561 0.542580 0.981320
O O7 0.748831 0.550801 0.777850
O O8 0.769366 0.776247 0.679118
O O9 0.388549 0.561772 0.563281
O O10 0.235413 0.735413 0.500000
#
# Coordination Sequence:
#
# PCOD9558354 Si02
#       6
#     4   8   8   2   8   8
#     4  12  27  44  67 104 142 180 229 296 361 434
#     4   9  19  36  60  88 127 174 229 282 341 414
#     4  12  23  40  65  97 135 179 228 288 358 427
#     4  12  28  52  80 108 140 198 248 304 380 460
#     4   9  19  37  59  89 127 176 226 282 345 412
#     4  12  27  49  75 105 142 184 238 302 374 448
#
# _framework density 24.023122999999998
#
# number of rings (size 3 to 8) (size 9 to 14) (size 15 to 20)
#    0.000    1.263    0.000    7.263    0.000    3.368 
#    0.000    4.211    0.000    0.000    0.000    0.000 
#    0.000    0.000    0.000    0.000    0.000    0.000 
#
# Total GULP energy -211802.171859 kJ/mol
# GULP energy per Si atom -5573.741365 kJ/mol
# Density = 2.396845 g / cm^3
# Si number density = 24.023123 Si / 1000 Ang^3
#
#
#
# Elastic Constant Matrix: (Units=GPa)
#
#
# Indices 1 2 3 4 5 6 
#
# 1 68.0611 15.3319 15.5292 0.0000 0.0000 0.0000
# 2 15.3319 68.0611 15.5292 0.0000 0.0000 0.0000
# 3 15.5292 15.5292 95.5848 0.0000 0.0000 0.0000
# 4 0.0000 0.0000 0.0000 2.3506 0.0000 0.0000
# 5 0.0000 0.0000 0.0000 0.0000 2.3506 0.0000
# 6 0.0000 0.0000 0.0000 0.0000 0.0000 44.5084
#
#
#
# Elastic Compliance Matrix: (Units=1/GPa)
#
#
# Indices 1 2 3 4 5 6 
#
# 1 0.015864 -0.003101 -0.002074 0.000000 0.000000 0.000000
# 2 -0.003101 0.015864 -0.002074 0.000000 0.000000 0.000000
# 3 -0.002074 -0.002074 0.011136 0.000000 0.000000 0.000000
# 4 0.000000 0.000000 0.000000 0.425424 0.000000 0.000000
# 5 0.000000 0.000000 0.000000 0.000000 0.425424 0.000000
# 6 0.000000 0.000000 0.000000 0.000000 0.000000 0.022468
#
#
# Mechanical properties :
#
#
# Convention : Reuss Voigt Hill
#
# Bulk Modulus (GPa) = 35.25037 36.05418 35.65228
# Shear Modulus (GPa) = 5.31841 22.19637 13.75739
#
# Velocity S-wave (km/s) = 1.48952 3.04297 2.39565
# Velocity P-wave (km/s) = 4.20281 5.23325 4.74608
#
# Compressibility (1/GPa) = 0.02836850
#
# Stress axis : x y z
#
# Youngs Moduli (GPa) = 63.03473 63.03473 89.80114
#
# Poissons Ratio (x) = 0.19544 0.18622
# Poissons Ratio (y) = 0.19544 0.18622
# Poissons Ratio (z) = 0.13071 0.13071
#
# Static dielectric constant tensor:
#      x y z
#    x 2.184650 0.000000 0.000000 
#    y 0.000000 2.184650 0.000000 
#    z 0.000000 0.000000 1.972740 
# 
# From -- ./inp_files/3153.got.cif
#   From: 2010.05.17/outbox.cif.g08.bks.cpg/sg117_2_cif.got.tgz:3153.got - 2010.05.20 11:15:09.
