data_PCOD9558826
_publ_section_title
;
Structure prediction by ZEFSAII (Michael W. Deem and Ramdas Pophale) SiO2 
 PCOD9558826
Probable space group: P -4 N 2
;
_chemical_formula_sum "Si O2"
_cell_formula_units_Z 34
_cell_length_a 11.582286
_cell_length_b 11.582286
_cell_length_c 11.593347
_cell_angle_alpha 90.000000
_cell_angle_beta 90.000000
_cell_angle_gamma 90.000000
_cell_volume 1555.239953
_symmetry_space_group_name_H-M "P -4 N 2"
_symmetry_group_IT_number 118
_symmetry_cell_setting 'tetragonal'
loop_
_space_group_symop_operation_xyz
x,y,z
y,-x,-z
-x,-y,z
-y,x,-z
1/2+y,1/2+x,1/2-z
1/2-y,1/2-x,1/2-z
1/2-x,1/2+y,1/2+z
1/2+x,1/2-y,1/2+z
loop_
_atom_site_type_symbol
_atom_site_label
_atom_site_fract_x
_atom_site_fract_y
_atom_site_fract_z
Si Si1 0.584248 0.165379 0.562403
Si Si2 0.000000 0.500000 0.250000
Si Si3 0.095637 0.915829 0.815156
Si Si4 0.952878 0.833606 0.441523
Si Si5 0.008501 0.329927 0.805360
O O1 0.607294 0.296893 0.600853
O O2 0.704556 0.096157 0.548710
O O3 0.517971 0.156541 0.442369
O O4 0.510047 0.107978 0.664456
O O5 0.140985 0.967163 0.694257
O O6 0.030607 0.798722 0.782321
O O7 0.000000 0.000000 0.866269
O O8 0.073128 0.862303 0.505605
O O9 0.129247 0.370754 0.750000
O O10 0.913205 0.413205 0.750000
#
# Coordination Sequence:
#
# PCOD9558826 Si02
#       5
#     8   2   8   8   8
#     4  12  27  47  77 114 155 199 253 330 379 467
#     4  12  24  48  70 112 146 192 254 310 400 444
#     4  12  26  50  72 113 156 199 253 317 385 457
#     4  11  22  46  79 109 152 202 254 303 381 466
#     4  11  26  49  77 107 149 202 257 312 386 457
#
# _framework density 21.861575999999999
#
# number of rings (size 3 to 8) (size 9 to 14) (size 15 to 20)
#    0.000    0.471    4.706    4.235    3.294    3.765 
#    2.118    0.000    0.000    0.000    0.000    0.000 
#    0.000    0.000    0.000    0.000    0.000    0.000 
#
# Total GULP energy -190306.072358 kJ/mol
# GULP energy per Si atom -5597.237422 kJ/mol
# Density = 2.181182 g / cm^3
# Si number density = 21.861576 Si / 1000 Ang^3
#
#
#
# Elastic Constant Matrix: (Units=GPa)
#
#
# Indices 1 2 3 4 5 6 
#
# 1 82.0533 71.1542 18.8451 0.0000 0.0000 0.0000
# 2 71.1542 82.0537 18.8426 0.0000 0.0000 0.0000
# 3 18.8451 18.8426 147.6426 0.0000 0.0000 0.0000
# 4 0.0000 0.0000 0.0000 914.4373 0.0000 0.0000
# 5 0.0000 0.0000 0.0000 0.0000 916.2623 0.0000
# 6 0.0000 0.0000 0.0000 0.0000 0.0000 25.8425
#
#
#
# Elastic Compliance Matrix: (Units=1/GPa)
#
#
# Indices 1 2 3 4 5 6 
#
# 1 0.049244 -0.042505 -0.000861 0.000000 0.000000 0.000000
# 2 -0.042505 0.049244 -0.000859 0.000000 0.000000 0.000000
# 3 -0.000861 -0.000859 0.006993 0.000000 0.000000 0.000000
# 4 0.000000 0.000000 0.000000 0.001094 0.000000 0.000000
# 5 0.000000 0.000000 0.000000 0.000000 0.001091 0.000000
# 6 0.000000 0.000000 0.000000 0.000000 0.000000 0.038696
#
#
# Mechanical properties :
#
#
# Convention : Reuss Voigt Hill
#
# Bulk Modulus (GPa) = 58.72091 58.82593 58.77342
# Shear Modulus (GPa) = 20.79098 384.83558 202.81328
#
# Velocity S-wave (km/s) = 3.08722 13.28213 9.64225
# Velocity P-wave (km/s) = 6.29496 16.19218 12.28441
#
# Compressibility (1/GPa) = 0.01702971
#
# Stress axis : x y z
#
# Youngs Moduli (GPa) = 20.30693 20.30721 143.00719
#
# Poissons Ratio (x) = 0.86316 0.12311
# Poissons Ratio (y) = 0.86315 0.12288
# Poissons Ratio (z) = 0.01748 0.01745
#
# Static dielectric constant tensor:
#      x y z
#    x 1.777850 0.000000 0.000000 
#    y 0.000000 1.777880 0.000000 
#    z 0.000000 0.000000 1.807410 
# 
# From -- ./inp_files/3045.got.cif
#   From: 2010.05.17/outbox.cif.g08.bks.cpg/sg118_2_cif.got.tgz:3045.got - 2010.05.20 11:17:24.
