data_PCOD9558092
_publ_section_title
;
Structure prediction by ZEFSAII (Michael W. Deem and Ramdas Pophale) SiO2 
 PCOD9558092
Probable space group: P -4 B 2
;
_chemical_formula_sum "Si O2"
_cell_formula_units_Z 48
_cell_length_a 15.984544
_cell_length_b 15.984544
_cell_length_c 10.437286
_cell_angle_alpha 90.000000
_cell_angle_beta 90.000000
_cell_angle_gamma 90.000000
_cell_volume 2666.785511
_symmetry_space_group_name_H-M "P -4 B 2"
_symmetry_group_IT_number 117
_symmetry_cell_setting 'tetragonal'
loop_
_space_group_symop_operation_xyz
x,y,z
y,-x,-z
-x,-y,z
-y,x,-z
1/2+y,1/2+x,-z
1/2-y,1/2-x,-z
1/2-x,1/2+y,z
1/2+x,1/2-y,z
loop_
_atom_site_type_symbol
_atom_site_label
_atom_site_fract_x
_atom_site_fract_y
_atom_site_fract_z
Si Si1 0.241764 0.760673 0.771617
Si Si2 0.512204 0.245491 0.020936
Si Si3 0.668836 0.339866 0.985495
Si Si4 0.499702 0.095560 0.815152
Si Si5 0.395886 0.162248 0.361852
Si Si6 0.077584 0.323537 0.288262
O O1 0.305834 0.731191 0.882433
O O2 0.220111 0.679353 0.689014
O O3 0.274425 0.836906 0.684899
O O4 0.170850 0.797000 0.868276
O O5 0.569758 0.325607 0.986796
O O6 0.505886 0.171628 0.915733
O O7 0.423004 0.283781 0.058127
O O8 0.555847 0.202132 0.142047
O O9 0.413456 0.103330 0.739569
O O10 0.578002 0.097739 0.717403
O O11 0.500000 0.000000 0.866772
O O12 0.371858 0.128143 0.500000
O O13 0.491783 0.195296 0.363300
#
# Coordination Sequence:
#
# PCOD9558092 Si02
#       6
#     8   8   8   8   8   8
#     4  10  19  37  54  84 114 153 182 237 298 353
#     4  11  19  35  54  88 116 148 188 231 296 364
#     4  10  20  32  59  81 116 147 189 235 294 359
#     4  10  21  33  54  82 116 146 175 229 294 349
#     4  11  23  39  56  80 114 155 200 239 285 331
#     4  10  21  35  58  84 117 145 187 237 295 360
#
# _framework density 17.999196999999999
#
# number of rings (size 3 to 8) (size 9 to 14) (size 15 to 20)
#    0.000    1.667    5.000    0.500    0.000    8.000 
#    3.000    0.000    0.000    0.000    0.000    0.000 
#    0.000    0.000    0.000    0.000    0.000    0.000 
#
# Total GULP energy -267204.225975 kJ/mol
# GULP energy per Si atom -5566.754708 kJ/mol
# Density = 1.795823 g / cm^3
# Si number density = 17.999197 Si / 1000 Ang^3
#
#
#
# Elastic Constant Matrix: (Units=GPa)
#
#
# Indices 1 2 3 4 5 6 
#
# 1 86.8691 45.2670 11.6713 0.0000 0.0000 0.0000
# 2 45.2670 86.8693 11.6716 0.0000 0.0000 0.0000
# 3 11.6713 11.6716 40.4606 0.0000 0.0000 0.0000
# 4 0.0000 0.0000 0.0000 6.5655 0.0000 0.0000
# 5 0.0000 0.0000 0.0000 0.0000 6.5662 0.0000
# 6 0.0000 0.0000 0.0000 0.0000 0.0000 30.3050
#
#
#
# Elastic Compliance Matrix: (Units=1/GPa)
#
#
# Indices 1 2 3 4 5 6 
#
# 1 0.016006 -0.008031 -0.002300 0.000000 0.000000 0.000000
# 2 -0.008031 0.016006 -0.002300 0.000000 0.000000 0.000000
# 3 -0.002300 -0.002300 0.026043 0.000000 0.000000 0.000000
# 4 0.000000 0.000000 0.000000 0.152312 0.000000 0.000000
# 5 0.000000 0.000000 0.000000 0.000000 0.152295 0.000000
# 6 0.000000 0.000000 0.000000 0.000000 0.000000 0.032998
#
#
# Mechanical properties :
#
#
# Convention : Reuss Voigt Hill
#
# Bulk Modulus (GPa) = 30.49717 39.04652 34.77184
# Shear Modulus (GPa) = 11.57800 18.39327 14.98564
#
# Velocity S-wave (km/s) = 2.53899 3.20018 2.88856
# Velocity P-wave (km/s) = 5.05724 5.94940 5.52137
#
# Compressibility (1/GPa) = 0.03278993
#
# Stress axis : x y z
#
# Youngs Moduli (GPa) = 62.47757 62.47759 38.39876
#
# Poissons Ratio (x) = 0.50178 0.08833
# Poissons Ratio (y) = 0.50178 0.08833
# Poissons Ratio (z) = 0.14371 0.14372
#
# Static dielectric constant tensor:
#      x y z
#    x 1.667880 0.000000 0.000000 
#    y 0.000000 1.667880 0.000000 
#    z 0.000000 0.000000 1.609880 
# 
# From -- ./inp_files/2767.got.cif
#   From: 2010.05.17/outbox.cif.g08.bks.cpg/sg117_2_cif.got.tgz:2767.got - 2010.05.20 11:15:09.
