data_PCOD9558339
_publ_section_title
;
Structure prediction by ZEFSAII (Michael W. Deem and Ramdas Pophale) SiO2 
 PCOD9558339
Probable space group: P -4 B 2
;
_chemical_formula_sum "Si O2"
_cell_formula_units_Z 24
_cell_length_a 10.722836
_cell_length_b 10.722836
_cell_length_c 8.633515
_cell_angle_alpha 90.000000
_cell_angle_beta 90.000000
_cell_angle_gamma 90.000000
_cell_volume 992.674750
_symmetry_space_group_name_H-M "P -4 B 2"
_symmetry_group_IT_number 117
_symmetry_cell_setting 'tetragonal'
loop_
_space_group_symop_operation_xyz
x,y,z
y,-x,-z
-x,-y,z
-y,x,-z
1/2+y,1/2+x,-z
1/2-y,1/2-x,-z
1/2-x,1/2+y,z
1/2+x,1/2-y,z
loop_
_atom_site_type_symbol
_atom_site_label
_atom_site_fract_x
_atom_site_fract_y
_atom_site_fract_z
Si Si1 0.311009 0.520870 0.567453
Si Si2 0.475934 0.857969 0.696721
Si Si3 0.262011 0.215164 0.817339
O O1 0.393060 0.614819 0.460038
O O2 0.182276 0.498047 0.480817
O O3 0.289984 0.587504 0.732368
O O4 0.590494 0.784560 0.779199
O O5 0.338655 0.813263 0.748707
O O6 0.500000 0.000000 0.737168
O O7 0.262911 0.237090 0.000000
#
# Coordination Sequence:
#
# PCOD9558339 Si02
#       3
#     8   8   8
#     4   9  21  46  76 113 149 201 262 317 387 482
#     4  11  27  49  77 109 155 206 258 315 393 484
#     4  11  27  46  77 112 154 198 257 326 394 464
#
# _framework density 24.177104
#
# number of rings (size 3 to 8) (size 9 to 14) (size 15 to 20)
#    0.000    1.667    0.000    1.000    9.333    2.667 
#    6.000    0.000    0.000    0.000    0.000    0.000 
#    0.000    0.000    0.000    0.000    0.000    0.000 
#
# Total GULP energy -133957.671219 kJ/mol
# GULP energy per Si atom -5581.569634 kJ/mol
# Density = 2.412208 g / cm^3
# Si number density = 24.177104 Si / 1000 Ang^3
#
#
#
# Elastic Constant Matrix: (Units=GPa)
#
#
# Indices 1 2 3 4 5 6 
#
# 1 157.5857 54.4990 48.4322 0.0000 0.0000 0.0000
# 2 54.4990 157.5854 48.4320 0.0000 0.0000 0.0000
# 3 48.4322 48.4320 170.3244 0.0000 0.0000 0.0000
# 4 0.0000 0.0000 0.0000 22.1873 0.0000 0.0000
# 5 0.0000 0.0000 0.0000 0.0000 22.1874 0.0000
# 6 0.0000 0.0000 0.0000 0.0000 0.0000 44.8654
#
#
#
# Elastic Compliance Matrix: (Units=1/GPa)
#
#
# Indices 1 2 3 4 5 6 
#
# 1 0.007560 -0.002141 -0.001541 0.000000 0.000000 0.000000
# 2 -0.002141 0.007560 -0.001541 0.000000 0.000000 0.000000
# 3 -0.001541 -0.001541 0.006747 0.000000 0.000000 0.000000
# 4 0.000000 0.000000 0.000000 0.045071 0.000000 0.000000
# 5 0.000000 0.000000 0.000000 0.000000 0.045071 0.000000
# 6 0.000000 0.000000 0.000000 0.000000 0.000000 0.022289
#
#
# Mechanical properties :
#
#
# Convention : Reuss Voigt Hill
#
# Bulk Modulus (GPa) = 87.55265 87.58021 87.56643
# Shear Modulus (GPa) = 33.65878 40.12350 36.89114
#
# Velocity S-wave (km/s) = 3.73523 4.07820 3.91048
# Velocity P-wave (km/s) = 7.40907 7.64713 7.52904
#
# Compressibility (1/GPa) = 0.01142170
#
# Stress axis : x y z
#
# Youngs Moduli (GPa) = 132.28018 132.28000 148.20426
#
# Poissons Ratio (x) = 0.28319 0.22836
# Poissons Ratio (y) = 0.28319 0.22836
# Poissons Ratio (z) = 0.20383 0.20382
#
# Static dielectric constant tensor:
#      x y z
#    x 1.991060 0.000000 0.000000 
#    y 0.000000 1.991060 0.000000 
#    z 0.000000 0.000000 1.926350 
# 
# From -- ./inp_files/1216.got.cif
#   From: 2010.05.17/outbox.cif.g08.bks.cpg/sg117_1_cif.got.tgz:1216.got - 2010.05.20 11:15:09.
