data_PCOD9558727
_publ_section_title
;
Structure prediction by ZEFSAII (Michael W. Deem and Ramdas Pophale) SiO2 
 PCOD9558727
Probable space group: P -4 N 2
;
_chemical_formula_sum "Si O2"
_cell_formula_units_Z 36
_cell_length_a 9.458903
_cell_length_b 9.458903
_cell_length_c 20.154302
_cell_angle_alpha 90.000000
_cell_angle_beta 90.000000
_cell_angle_gamma 90.000000
_cell_volume 1803.222450
_symmetry_space_group_name_H-M "P -4 N 2"
_symmetry_group_IT_number 118
_symmetry_cell_setting 'tetragonal'
loop_
_space_group_symop_operation_xyz
x,y,z
y,-x,-z
-x,-y,z
-y,x,-z
1/2+y,1/2+x,1/2-z
1/2-y,1/2-x,1/2-z
1/2-x,1/2+y,1/2+z
1/2+x,1/2-y,1/2+z
loop_
_atom_site_type_symbol
_atom_site_label
_atom_site_fract_x
_atom_site_fract_y
_atom_site_fract_z
Si Si1 0.907253 0.763778 0.828583
Si Si2 0.000000 0.000000 0.275711
Si Si3 0.000000 0.500000 0.446941
Si Si4 0.500000 0.500000 0.000000
Si Si5 0.000000 0.500000 0.750000
Si Si6 0.217558 0.979329 0.025187
Si Si7 0.292233 0.586981 0.117645
O O1 0.933974 0.884713 0.774403
O O2 0.984151 0.797297 0.896642
O O3 0.744966 0.723218 0.849621
O O4 0.987103 0.632499 0.797126
O O5 0.984529 0.869993 0.328574
O O6 0.129027 0.462399 0.495157
O O7 0.038107 0.635759 0.402514
O O8 0.577363 0.611075 0.949581
O O9 0.121236 0.849173 0.003272
#
# Coordination Sequence:
#
# PCOD9558727 Si02
#       7
#     8   4   4   2   2   8   8
#     4  12  24  47  68 104 142 184 243 289 348 430
#     4  11  24  47  73  94 149 186 236 300 345 418
#     4  12  25  44  75 107 141 188 228 302 368 411
#     4  10  24  44  80 108 142 192 238 308 358 416
#     4  12  26  44  76  94 132 200 232 286 344 428
#     4  11  24  44  72 104 141 183 233 294 352 422
#     4  11  24  46  71 108 145 182 243 299 354 427
#
# _framework density 19.964261
#
# number of rings (size 3 to 8) (size 9 to 14) (size 15 to 20)
#    0.000    0.667    4.444    3.333    0.000    1.778 
#    0.000    1.111    0.000    0.000    0.000    0.000 
#    0.000    0.000    0.000    0.000    0.000    0.000 
#
# Total GULP energy -200755.062462 kJ/mol
# GULP energy per Si atom -5576.529513 kJ/mol
# Density = 1.991882 g / cm^3
# Si number density = 19.964261 Si / 1000 Ang^3
#
#
#
# Elastic Constant Matrix: (Units=GPa)
#
#
# Indices 1 2 3 4 5 6 
#
# 1 96.6909 22.8400 44.7866 0.0000 0.0000 0.0000
# 2 22.8400 96.6909 44.7866 0.0000 0.0000 0.0000
# 3 44.7866 44.7866 175.6120 0.0000 0.0000 0.0000
# 4 0.0000 0.0000 0.0000 48.9704 0.0000 0.0000
# 5 0.0000 0.0000 0.0000 0.0000 48.9704 0.0000
# 6 0.0000 0.0000 0.0000 0.0000 0.0000 -13.2327
#
#
#
# Elastic Compliance Matrix: (Units=1/GPa)
#
#
# Indices 1 2 3 4 5 6 
#
# 1 0.011942 -0.001599 -0.002638 0.000000 0.000000 0.000000
# 2 -0.001599 0.011942 -0.002638 0.000000 0.000000 0.000000
# 3 -0.002638 -0.002638 0.007040 0.000000 0.000000 0.000000
# 4 0.000000 0.000000 0.000000 0.020420 0.000000 0.000000
# 5 0.000000 0.000000 0.000000 0.000000 0.020420 0.000000
# 6 0.000000 0.000000 0.000000 0.000000 0.000000 -0.075570
#
#
# Mechanical properties :
#
#
# Convention : Reuss Voigt Hill
#
# Bulk Modulus (GPa) = 58.22664 65.98003 62.10334
# Shear Modulus (GPa) = 319.12730 34.04700 176.58715
#
# Velocity S-wave (km/s) = 12.65687 4.13413 9.41508
# Velocity P-wave (km/s) = 15.58281 7.47722 12.22155
#
# Compressibility (1/GPa) = 0.01717427
#
# Stress axis : x y z
#
# Youngs Moduli (GPa) = 83.74002 83.74002 142.05012
#
# Poissons Ratio (x) = 0.13391 0.37469
# Poissons Ratio (y) = 0.13391 0.37469
# Poissons Ratio (z) = 0.22088 0.22088
#
# Static dielectric constant tensor:
#      x y z
#    x 1.701640 0.000000 0.000000 
#    y 0.000000 1.701640 0.000000 
#    z 0.000000 0.000000 1.722180 
# 
# From -- ./inp_files/5547.got.cif
#   From: 2010.05.17/outbox.cif.g08.bks.cpg/sg118_3_cif.got.tgz:5547.got - 2010.05.20 11:17:24.
