data_PCOD9558859
_publ_section_title
;
Structure prediction by ZEFSAII (Michael W. Deem and Ramdas Pophale) SiO2 
 PCOD9558859
Probable space group: P -4 N 2
;
_chemical_formula_sum "Si O2"
_cell_formula_units_Z 40
_cell_length_a 8.570370
_cell_length_b 8.570370
_cell_length_c 25.276015
_cell_angle_alpha 90.000000
_cell_angle_beta 90.000000
_cell_angle_gamma 90.000000
_cell_volume 1856.554693
_symmetry_space_group_name_H-M "P -4 N 2"
_symmetry_group_IT_number 118
_symmetry_cell_setting 'tetragonal'
loop_
_space_group_symop_operation_xyz
x,y,z
y,-x,-z
-x,-y,z
-y,x,-z
1/2+y,1/2+x,1/2-z
1/2-y,1/2-x,1/2-z
1/2-x,1/2+y,1/2+z
1/2+x,1/2-y,1/2+z
loop_
_atom_site_type_symbol
_atom_site_label
_atom_site_fract_x
_atom_site_fract_y
_atom_site_fract_z
Si Si1 0.111480 0.790240 0.708828
Si Si2 0.246788 0.011460 0.509665
Si Si3 0.500000 0.500000 0.291918
Si Si4 0.023175 0.322055 0.372121
Si Si5 0.000000 0.500000 0.571930
Si Si6 0.320329 0.793495 0.345333
O O1 0.159054 0.659054 0.750000
O O2 0.123528 0.934787 0.749595
O O3 0.941617 0.732404 0.690557
O O4 0.220485 0.847024 0.659921
O O5 0.312680 0.946852 0.564849
O O6 0.124370 0.149224 0.519042
O O7 0.373330 0.068953 0.468176
O O8 0.417546 0.644463 0.322316
O O9 0.849063 0.257319 0.365243
O O10 0.000000 0.500000 0.353994
O O11 0.130659 0.426523 0.609284
#
# Coordination Sequence:
#
# PCOD9558859 Si02
#       6
#     8   8   4   8   4   8
#     4  12  26  47  75 106 145 197 244 309 372 438
#     4  11  24  44  74 104 144 191 243 305 375 443
#     4  12  26  44  70 105 151 188 236 300 370 438
#     4  12  25  45  75 108 146 192 252 305 370 449
#     4  12  24  46  75 106 149 194 240 312 376 434
#     4  12  26  47  72 112 147 192 250 300 373 455
#
# _framework density 21.545286999999998
#
# number of rings (size 3 to 8) (size 9 to 14) (size 15 to 20)
#    0.000    0.200    5.000    4.200    2.800    4.400 
#    0.000    0.000    0.000    0.000    0.000    0.000 
#    0.000    0.000    0.000    0.000    0.000    0.000 
#
# Total GULP energy -222983.220514 kJ/mol
# GULP energy per Si atom -5574.580513 kJ/mol
# Density = 2.149625 g / cm^3
# Si number density = 21.545287 Si / 1000 Ang^3
#
#
#
# Elastic Constant Matrix: (Units=GPa)
#
#
# Indices 1 2 3 4 5 6 
#
# 1 111.1190 43.0396 54.4791 0.0000 0.0000 0.0000
# 2 43.0396 111.1190 54.4791 0.0000 0.0000 0.0000
# 3 54.4791 54.4791 128.8160 0.0000 0.0000 0.0000
# 4 0.0000 0.0000 0.0000 79.0092 0.0000 0.0000
# 5 0.0000 0.0000 0.0000 0.0000 79.0092 0.0000
# 6 0.0000 0.0000 0.0000 0.0000 0.0000 43.0940
#
#
#
# Elastic Compliance Matrix: (Units=1/GPa)
#
#
# Indices 1 2 3 4 5 6 
#
# 1 0.011971 -0.002718 -0.003913 0.000000 0.000000 0.000000
# 2 -0.002718 0.011971 -0.003913 0.000000 0.000000 0.000000
# 3 -0.003913 -0.003913 0.011073 0.000000 0.000000 0.000000
# 4 0.000000 0.000000 0.000000 0.012657 0.000000 0.000000
# 5 0.000000 0.000000 0.000000 0.000000 0.012657 0.000000
# 6 0.000000 0.000000 0.000000 0.000000 0.000000 0.023205
#
#
# Mechanical properties :
#
#
# Convention : Reuss Voigt Hill
#
# Bulk Modulus (GPa) = 71.81024 72.78331 72.29678
# Shear Modulus (GPa) = 45.76101 53.49288 49.62694
#
# Velocity S-wave (km/s) = 4.61363 4.98819 4.80456
# Velocity P-wave (km/s) = 7.86022 8.18724 8.02539
#
# Compressibility (1/GPa) = 0.01392559
#
# Stress axis : x y z
#
# Youngs Moduli (GPa) = 83.53760 83.53760 90.31057
#
# Poissons Ratio (x) = 0.22706 0.35340
# Poissons Ratio (y) = 0.22706 0.35340
# Poissons Ratio (z) = 0.32689 0.32689
#
# Static dielectric constant tensor:
#      x y z
#    x 0.777020 0.000000 0.000000 
#    y 0.000000 0.777020 0.000000 
#    z 0.000000 0.000000 1.796030 
# 
# From -- ./inp_files/6101.got.cif
#   From: 2010.05.17/outbox.cif.g08.bks.cpg/sg118_4_cif.got.tgz:6101.got - 2010.05.20 11:17:24.
