data_PCOD9558813
_publ_section_title
;
Structure prediction by ZEFSAII (Michael W. Deem and Ramdas Pophale) SiO2 
 PCOD9558813
Probable space group: P -4 N 2
;
_chemical_formula_sum "Si O2"
_cell_formula_units_Z 48
_cell_length_a 9.000220
_cell_length_b 9.000220
_cell_length_c 28.899402
_cell_angle_alpha 90.000000
_cell_angle_beta 90.000000
_cell_angle_gamma 90.000000
_cell_volume 2340.966005
_symmetry_space_group_name_H-M "P -4 N 2"
_symmetry_group_IT_number 118
_symmetry_cell_setting 'tetragonal'
loop_
_space_group_symop_operation_xyz
x,y,z
y,-x,-z
-x,-y,z
-y,x,-z
1/2+y,1/2+x,1/2-z
1/2-y,1/2-x,1/2-z
1/2-x,1/2+y,1/2+z
1/2+x,1/2-y,1/2+z
loop_
_atom_site_type_symbol
_atom_site_label
_atom_site_fract_x
_atom_site_fract_y
_atom_site_fract_z
Si Si1 0.091957 0.648742 0.400226
Si Si2 0.500000 0.500000 0.500000
Si Si3 0.000000 0.500000 0.632023
Si Si4 0.051356 0.796542 0.304827
Si Si5 0.000000 0.500000 0.250000
Si Si6 0.744755 0.597954 0.562839
Si Si7 0.262805 0.046238 0.288379
Si Si8 0.059608 0.224121 0.491162
O O1 0.089130 0.765915 0.358284
O O2 0.265755 0.645062 0.416163
O O3 0.000000 0.500000 0.386721
O O4 0.002888 0.706974 0.444679
O O5 0.639417 0.487026 0.534451
O O6 0.853955 0.529747 0.601047
O O7 0.969482 0.363193 0.666347
O O8 0.017005 0.640890 0.281990
O O9 0.890868 0.872407 0.300110
O O10 0.186565 0.884342 0.279594
O O11 0.851313 0.666530 0.523720
O O12 0.363990 0.136011 0.250000
O O13 0.917750 0.162131 0.519096
#
# Coordination Sequence:
#
# PCOD9558813 Si02
#       8
#     8   2   4   8   2   8   8   8
#     4  11  22  41  67 103 139 178 231 289 351 414
#     4  12  28  48  64 100 156 184 244 280 368 412
#     4  12  27  44  71 102 142 183 248 287 348 420
#     4  11  25  45  74 102 139 178 234 288 360 437
#     4  12  24  48  68 106 136 182 232 294 364 442
#     4  11  26  43  67 103 137 199 228 298 344 422
#     4  11  26  48  71 103 139 184 229 299 362 427
#     4   9  21  37  64  95 133 179 229 277 334 405
#
# _framework density 20.504355
#
# number of rings (size 3 to 8) (size 9 to 14) (size 15 to 20)
#    0.000    1.167    3.333    1.250   10.500    2.667 
#    0.000    1.667    0.000    0.000    0.000    0.000 
#    0.000    0.000    0.000    0.000    0.000    0.000 
#
# Total GULP energy -267706.919799 kJ/mol
# GULP energy per Si atom -5577.227496 kJ/mol
# Density = 2.045769 g / cm^3
# Si number density = 20.504355 Si / 1000 Ang^3
#
#
#
# Elastic Constant Matrix: (Units=GPa)
#
#
# Indices 1 2 3 4 5 6 
#
# 1 106.2790 51.3664 46.6616 0.0000 0.0000 0.0000
# 2 51.3664 106.2788 46.6614 0.0000 0.0000 0.0000
# 3 46.6616 46.6614 88.0692 0.0000 0.0000 0.0000
# 4 0.0000 0.0000 0.0000 32.3291 0.0000 0.0000
# 5 0.0000 0.0000 0.0000 0.0000 32.3292 0.0000
# 6 0.0000 0.0000 0.0000 0.0000 0.0000 36.6129
#
#
#
# Elastic Compliance Matrix: (Units=1/GPa)
#
#
# Indices 1 2 3 4 5 6 
#
# 1 0.013726 -0.004484 -0.004897 0.000000 0.000000 0.000000
# 2 -0.004484 0.013726 -0.004897 0.000000 0.000000 0.000000
# 3 -0.004897 -0.004897 0.016544 0.000000 0.000000 0.000000
# 4 0.000000 0.000000 0.000000 0.030932 0.000000 0.000000
# 5 0.000000 0.000000 0.000000 0.000000 0.030932 0.000000
# 6 0.000000 0.000000 0.000000 0.000000 0.000000 0.027313
#
#
# Mechanical properties :
#
#
# Convention : Reuss Voigt Hill
#
# Bulk Modulus (GPa) = 64.76317 65.55620 65.15968
# Shear Modulus (GPa) = 29.96247 30.65009 30.30628
#
# Velocity S-wave (km/s) = 3.82681 3.87047 3.84870
# Velocity P-wave (km/s) = 7.15399 7.21216 7.18314
#
# Compressibility (1/GPa) = 0.01544087
#
# Stress axis : x y z
#
# Youngs Moduli (GPa) = 72.85200 72.85197 60.44653
#
# Poissons Ratio (x) = 0.32669 0.29599
# Poissons Ratio (y) = 0.32669 0.29599
# Poissons Ratio (z) = 0.35674 0.35673
#
# Static dielectric constant tensor:
#      x y z
#    x 1.748390 0.000000 0.000000 
#    y 0.000000 1.748390 0.000000 
#    z 0.000000 0.000000 1.701500 
# 
# From -- ./inp_files/6936.got.cif
#   From: 2010.05.17/outbox.cif.g08.bks.cpg/sg118_4_cif.got.tgz:6936.got - 2010.05.20 11:17:24.
