data_PCOD9558260
_publ_section_title
;
Structure prediction by ZEFSAII (Michael W. Deem and Ramdas Pophale) SiO2 
 PCOD9558260
Probable space group: P -4 B 2
;
_chemical_formula_sum "Si O2"
_cell_formula_units_Z 42
_cell_length_a 15.329727
_cell_length_b 15.329727
_cell_length_c 8.475736
_cell_angle_alpha 90.000000
_cell_angle_beta 90.000000
_cell_angle_gamma 90.000000
_cell_volume 1991.802451
_symmetry_space_group_name_H-M "P -4 B 2"
_symmetry_group_IT_number 117
_symmetry_cell_setting 'tetragonal'
loop_
_space_group_symop_operation_xyz
x,y,z
y,-x,-z
-x,-y,z
-y,x,-z
1/2+y,1/2+x,-z
1/2-y,1/2-x,-z
1/2-x,1/2+y,z
1/2+x,1/2-y,z
loop_
_atom_site_type_symbol
_atom_site_label
_atom_site_fract_x
_atom_site_fract_y
_atom_site_fract_z
Si Si1 0.395047 0.400806 0.485121
Si Si2 0.000000 0.500000 0.500000
Si Si3 0.780515 0.280515 0.000000
Si Si4 0.028450 0.353204 0.255257
Si Si5 0.000000 0.000000 0.000000
Si Si6 0.251408 0.811098 0.667856
Si Si7 0.500000 0.000000 0.000000
Si Si8 0.931001 0.179057 0.162059
O O1 0.383224 0.504349 0.473953
O O2 0.335079 0.365350 0.624207
O O3 0.378157 0.357915 0.313878
O O4 0.004468 0.587548 0.397635
O O5 0.760753 0.239411 0.829555
O O6 0.734599 0.374911 0.965287
O O7 0.990341 0.257188 0.230508
O O8 0.129032 0.335357 0.295329
O O9 0.005602 0.413465 0.105994
O O10 0.977897 0.091342 0.093154
O O11 0.264108 0.764108 0.500000
#
# Coordination Sequence:
#
# PCOD9558260 Si02
#       8
#     8   2   4   8   2   8   2   8
#     4  11  24  45  73 105 145 202 256 318 392 468
#     4  10  24  42  76 102 148 202 264 330 412 478
#     4  12  28  44  72 110 152 200 252 322 402 472
#     4  11  23  45  69 107 141 195 259 325 399 473
#     4  12  28  48  78 112 160 216 270 328 404 494
#     4  12  24  47  70 105 148 193 253 317 390 466
#     4  10  24  46  76 102 152 202 260 330 402 488
#     4  12  26  46  71 111 152 205 260 330 398 476
#
# _framework density 21.086428000000002
#
# number of rings (size 3 to 8) (size 9 to 14) (size 15 to 20)
#    0.000    0.571    4.762    3.429    2.667    1.524 
#    0.000    0.000    0.000    0.000    0.000    0.000 
#    0.000    0.000    0.000    0.000    0.000    0.000 
#
# Total GULP energy -233807.063451 kJ/mol
# GULP energy per Si atom -5566.834844 kJ/mol
# Density = 2.103843 g / cm^3
# Si number density = 21.086428 Si / 1000 Ang^3
#
#
#
# Elastic Constant Matrix: (Units=GPa)
#
#
# Indices 1 2 3 4 5 6 
#
# 1 84.6949 68.0439 57.0423 0.0000 0.0000 0.0000
# 2 68.0439 84.6949 57.0423 0.0000 0.0000 0.0000
# 3 57.0423 57.0423 144.1081 0.0000 0.0000 0.0000
# 4 0.0000 0.0000 0.0000 33.8086 0.0000 0.0000
# 5 0.0000 0.0000 0.0000 0.0000 33.8086 0.0000
# 6 0.0000 0.0000 0.0000 0.0000 0.0000 22.2143
#
#
#
# Elastic Compliance Matrix: (Units=1/GPa)
#
#
# Indices 1 2 3 4 5 6 
#
# 1 0.034676 -0.025381 -0.003679 0.000000 0.000000 0.000000
# 2 -0.025381 0.034676 -0.003679 0.000000 0.000000 0.000000
# 3 -0.003679 -0.003679 0.009852 0.000000 0.000000 0.000000
# 4 0.000000 0.000000 0.000000 0.029578 0.000000 0.000000
# 5 0.000000 0.000000 0.000000 0.000000 0.029578 0.000000
# 6 0.000000 0.000000 0.000000 0.000000 0.000000 0.045016
#
#
# Mechanical properties :
#
#
# Convention : Reuss Voigt Hill
#
# Bulk Modulus (GPa) = 72.85850 75.30612 74.08231
# Shear Modulus (GPa) = 19.72930 26.72427 23.22678
#
# Velocity S-wave (km/s) = 3.06214 3.56387 3.32249
# Velocity P-wave (km/s) = 6.86510 7.26123 7.06594
#
# Compressibility (1/GPa) = 0.01372524
#
# Stress axis : x y z
#
# Youngs Moduli (GPa) = 28.83846 28.83846 101.50172
#
# Poissons Ratio (x) = 0.73194 0.37346
# Poissons Ratio (y) = 0.73194 0.37346
# Poissons Ratio (z) = 0.10611 0.10611
#
# Static dielectric constant tensor:
#      x y z
#    x 1.795600 0.000000 0.000000 
#    y 0.000000 1.795600 0.000000 
#    z 0.000000 0.000000 1.978050 
# 
# From -- ./inp_files/1850.got.cif
#   From: 2010.05.17/outbox.cif.g08.bks.cpg/sg117_1_cif.got.tgz:1850.got - 2010.05.20 11:15:09.
