data_PCOD9558049
_publ_section_title
;
Structure prediction by ZEFSAII (Michael W. Deem and Ramdas Pophale) SiO2 
 PCOD9558049
Probable space group: P -4 B 2
;
_chemical_formula_sum "Si O2"
_cell_formula_units_Z 40
_cell_length_a 14.855597
_cell_length_b 14.855597
_cell_length_c 8.911104
_cell_angle_alpha 90.000000
_cell_angle_beta 90.000000
_cell_angle_gamma 90.000000
_cell_volume 1966.580512
_symmetry_space_group_name_H-M "P -4 B 2"
_symmetry_group_IT_number 117
_symmetry_cell_setting 'tetragonal'
loop_
_space_group_symop_operation_xyz
x,y,z
y,-x,-z
-x,-y,z
-y,x,-z
1/2+y,1/2+x,-z
1/2-y,1/2-x,-z
1/2-x,1/2+y,z
1/2+x,1/2-y,z
loop_
_atom_site_type_symbol
_atom_site_label
_atom_site_fract_x
_atom_site_fract_y
_atom_site_fract_z
Si Si1 0.000000 0.500000 0.000000
Si Si2 0.245350 0.143372 0.740967
Si Si3 0.304281 0.995151 0.521658
Si Si4 0.500000 0.000000 0.500000
Si Si5 0.446998 0.177300 0.825661
Si Si6 0.947957 0.135971 0.007873
Si Si7 0.789680 0.710321 0.500000
O O1 0.906704 0.497273 0.095396
O O2 0.341441 0.150962 0.822553
O O3 0.168914 0.115385 0.856488
O O4 0.234036 0.233762 0.647030
O O5 0.248822 0.065987 0.615043
O O6 0.272645 0.893980 0.533290
O O7 0.406235 0.998695 0.587014
O O8 0.312462 0.021973 0.347416
O O9 0.458506 0.274708 0.905133
O O10 0.047163 0.101334 0.058691
#
# Coordination Sequence:
#
# PCOD9558049 Si02
#       7
#     2   8   8   2   8   8   4
#     4  12  26  40  70 104 146 188 224 298 378 436
#     4  12  23  46  67 103 143 182 237 299 348 433
#     4  11  23  38  69  97 139 180 222 290 358 417
#     4  10  16  36  56  94 136 162 208 270 342 410
#     4  12  23  46  67 103 143 179 238 293 362 432
#     4  11  27  49  69  95 141 196 242 295 355 431
#     4  11  25  39  70 107 137 183 232 284 370 423
#
# _framework density 20.339873999999998
#
# number of rings (size 3 to 8) (size 9 to 14) (size 15 to 20)
#    0.000    0.600    6.000    1.800    5.600    0.000 
#    3.600    0.000    0.000    2.400    0.000    0.000 
#    0.000    0.000    0.000    0.000    0.000    0.000 
#
# Total GULP energy -223411.925648 kJ/mol
# GULP energy per Si atom -5585.298141 kJ/mol
# Density = 2.029358 g / cm^3
# Si number density = 20.339874 Si / 1000 Ang^3
#
#
#
# Elastic Constant Matrix: (Units=GPa)
#
#
# Indices 1 2 3 4 5 6 
#
# 1 117.9459 23.3618 37.7031 0.0000 0.0000 0.0000
# 2 23.3618 117.9443 37.7032 0.0000 0.0000 0.0000
# 3 37.7031 37.7032 88.9353 0.0000 0.0000 0.0000
# 4 0.0000 0.0000 0.0000 26.0097 0.0000 0.0000
# 5 0.0000 0.0000 0.0000 0.0000 26.0100 0.0000
# 6 0.0000 0.0000 0.0000 0.0000 0.0000 36.5565
#
#
#
# Elastic Compliance Matrix: (Units=1/GPa)
#
#
# Indices 1 2 3 4 5 6 
#
# 1 0.009859 -0.000713 -0.003877 0.000000 0.000000 0.000000
# 2 -0.000713 0.009859 -0.003877 0.000000 0.000000 0.000000
# 3 -0.003877 -0.003877 0.014532 0.000000 0.000000 0.000000
# 4 0.000000 0.000000 0.000000 0.038447 0.000000 0.000000
# 5 0.000000 0.000000 0.000000 0.000000 0.038447 0.000000
# 6 0.000000 0.000000 0.000000 0.000000 0.000000 0.027355
#
#
# Mechanical properties :
#
#
# Convention : Reuss Voigt Hill
#
# Bulk Modulus (GPa) = 57.75620 58.04019 57.89819
# Shear Modulus (GPa) = 31.01614 32.78573 31.90094
#
# Velocity S-wave (km/s) = 3.90922 4.01920 3.96459
# Velocity P-wave (km/s) = 6.98808 7.08066 7.03452
#
# Compressibility (1/GPa) = 0.01731416
#
# Stress axis : x y z
#
# Youngs Moduli (GPa) = 101.42821 101.42655 68.81558
#
# Poissons Ratio (x) = 0.07236 0.26682
# Poissons Ratio (y) = 0.07236 0.26682
# Poissons Ratio (z) = 0.39326 0.39326
#
# Static dielectric constant tensor:
#      x y z
#    x 1.744080 0.000000 0.000000 
#    y 0.000000 1.744090 0.000000 
#    z 0.000000 0.000000 1.777620 
# 
# From -- ./inp_files/1799.got.cif
#   From: 2010.05.17/outbox.cif.g08.bks.cpg/sg117_1_cif.got.tgz:1799.got - 2010.05.20 11:15:09.
