data_PCOD9558373
_publ_section_title
;
Structure prediction by ZEFSAII (Michael W. Deem and Ramdas Pophale) SiO2 
 PCOD9558373
Probable space group: P -4 N 2
;
_chemical_formula_sum "Si O2"
_cell_formula_units_Z 40
_cell_length_a 9.272646
_cell_length_b 9.272646
_cell_length_c 19.309307
_cell_angle_alpha 90.000000
_cell_angle_beta 90.000000
_cell_angle_gamma 90.000000
_cell_volume 1660.252136
_symmetry_space_group_name_H-M "P -4 N 2"
_symmetry_group_IT_number 118
_symmetry_cell_setting 'tetragonal'
loop_
_space_group_symop_operation_xyz
x,y,z
y,-x,-z
-x,-y,z
-y,x,-z
1/2+y,1/2+x,1/2-z
1/2-y,1/2-x,1/2-z
1/2-x,1/2+y,1/2+z
1/2+x,1/2-y,1/2+z
loop_
_atom_site_type_symbol
_atom_site_label
_atom_site_fract_x
_atom_site_fract_y
_atom_site_fract_z
Si Si1 0.951969 0.346841 0.325698
Si Si2 0.349282 0.588189 0.814678
Si Si3 0.870357 0.807319 0.023440
Si Si4 0.780895 0.650543 0.901407
Si Si5 0.830425 0.955770 0.158917
O O1 0.879490 0.379490 0.250000
O O2 0.843927 0.256206 0.372902
O O3 0.000000 0.500000 0.355385
O O4 0.092414 0.249623 0.316592
O O5 0.500000 0.500000 0.818301
O O6 0.250785 0.508360 0.871750
O O7 0.066369 0.788239 0.762122
O O8 0.830230 0.828489 0.102870
O O9 0.801132 0.672585 0.983580
O O10 0.043701 0.814571 0.013301
O O11 0.923839 0.723134 0.870148
O O12 0.000000 0.000000 0.159348
#
# Coordination Sequence:
#
# PCOD9558373 Si02
#       5
#     8   8   8   8   8
#     4  10  20  33  50  81 117 167 226 293 358 447
#     4   9  18  29  49  81 124 162 217 298 374 433
#     4   9  15  25  44  82 123 160 217 286 353 437
#     4  10  17  29  50  85 125 164 217 291 375 439
#     4  10  15  26  48  85 127 162 217 293 366 441
#
# _framework density 24.092728000000001
#
# number of rings (size 3 to 8) (size 9 to 14) (size 15 to 20)
#    0.000    2.400    4.000    4.200    0.000    0.000 
#    0.000    0.000    0.000    0.000   20.800   23.800 
#    0.000    0.000    0.000    2.400    0.400    2.000 
#
# Total GULP energy -223595.933785 kJ/mol
# GULP energy per Si atom -5589.898345 kJ/mol
# Density = 2.403789 g / cm^3
# Si number density = 24.092728 Si / 1000 Ang^3
#
#
#
# Elastic Constant Matrix: (Units=GPa)
#
#
# Indices 1 2 3 4 5 6 
#
# 1 93.4274 36.5988 43.4374 0.0000 0.0000 0.0000
# 2 36.5988 93.4274 43.4374 0.0000 0.0000 0.0000
# 3 43.4374 43.4374 90.3869 0.0000 0.0000 0.0000
# 4 0.0000 0.0000 0.0000 17.8447 0.0000 0.0000
# 5 0.0000 0.0000 0.0000 0.0000 17.8447 0.0000
# 6 0.0000 0.0000 0.0000 0.0000 0.0000 38.3081
#
#
#
# Elastic Compliance Matrix: (Units=1/GPa)
#
#
# Indices 1 2 3 4 5 6 
#
# 1 0.014462 -0.003134 -0.005444 0.000000 0.000000 0.000000
# 2 -0.003134 0.014462 -0.005444 0.000000 0.000000 0.000000
# 3 -0.005444 -0.005444 0.016296 0.000000 0.000000 0.000000
# 4 0.000000 0.000000 0.000000 0.056039 0.000000 0.000000
# 5 0.000000 0.000000 0.000000 0.000000 0.056039 0.000000
# 6 0.000000 0.000000 0.000000 0.000000 0.000000 0.026104
#
#
# Mechanical properties :
#
#
# Convention : Reuss Voigt Hill
#
# Bulk Modulus (GPa) = 58.21983 58.24322 58.23153
# Shear Modulus (GPa) = 23.02315 25.05071 24.03693
#
# Velocity S-wave (km/s) = 3.09464 3.22803 3.16204
# Velocity P-wave (km/s) = 6.08165 6.17419 6.12810
#
# Compressibility (1/GPa) = 0.01717628
#
# Stress axis : x y z
#
# Youngs Moduli (GPa) = 69.14474 69.14474 61.36495
#
# Poissons Ratio (x) = 0.21673 0.33407
# Poissons Ratio (y) = 0.21673 0.33407
# Poissons Ratio (z) = 0.37642 0.37642
#
# Static dielectric constant tensor:
#      x y z
#    x 1.943920 0.000000 0.000000 
#    y 0.000000 1.943920 0.000000 
#    z 0.000000 0.000000 1.940510 
# 
# From -- ./inp_files/6038.got.cif
#   From: 2010.05.17/outbox.cif.g08.bks.cpg/sg118_4_cif.got.tgz:6038.got - 2010.05.20 11:17:24.
