data_PCOD9558110
_publ_section_title
;
Structure prediction by ZEFSAII (Michael W. Deem and Ramdas Pophale) SiO2 
 PCOD9558110
Probable space group: P -4 B 2
;
_chemical_formula_sum "Si O2"
_cell_formula_units_Z 22
_cell_length_a 12.835892
_cell_length_b 12.835892
_cell_length_c 6.502924
_cell_angle_alpha 90.000000
_cell_angle_beta 90.000000
_cell_angle_gamma 90.000000
_cell_volume 1071.422561
_symmetry_space_group_name_H-M "P -4 B 2"
_symmetry_group_IT_number 117
_symmetry_cell_setting 'tetragonal'
loop_
_space_group_symop_operation_xyz
x,y,z
y,-x,-z
-x,-y,z
-y,x,-z
1/2+y,1/2+x,-z
1/2-y,1/2-x,-z
1/2-x,1/2+y,z
1/2+x,1/2-y,z
loop_
_atom_site_type_symbol
_atom_site_label
_atom_site_fract_x
_atom_site_fract_y
_atom_site_fract_z
Si Si1 0.808039 0.447984 0.119277
Si Si2 0.500000 0.500000 0.000000
Si Si3 0.689321 0.810680 0.500000
Si Si4 0.827024 0.140381 0.151224
O O1 0.709285 0.311921 0.646118
O O2 0.911768 0.411768 0.000000
O O3 0.813633 0.411725 0.354354
O O4 0.771203 0.567002 0.098309
O O5 0.420564 0.442324 0.151842
O O6 0.781034 0.872023 0.021001
#
# Coordination Sequence:
#
# PCOD9558110 Si02
#       4
#     8   2   4   8
#     4   9  19  34  52  74 104 139 175 218 266 317
#     4   8  16  32  54  80 108 142 180 220 266 312
#     4  10  20  32  54  82 108 136 172 222 272 316
#     4   9  18  33  52  77 108 138 175 222 269 315
#
# _framework density 20.533446000000001
#
# number of rings (size 3 to 8) (size 9 to 14) (size 15 to 20)
#    0.000    2.909    0.000    0.000    0.000   11.636 
#    0.000    1.818    0.000   26.182    0.000    0.000 
#    0.000    0.000    0.000    0.000    0.000    0.000 
#
# Total GULP energy -122495.287664 kJ/mol
# GULP energy per Si atom -5567.967621 kJ/mol
# Density = 2.048671 g / cm^3
# Si number density = 20.533446 Si / 1000 Ang^3
#
#
#
# Elastic Constant Matrix: (Units=GPa)
#
#
# Indices 1 2 3 4 5 6 
#
# 1 59.3656 37.3569 24.5452 0.0000 0.0000 0.0000
# 2 37.3569 59.3656 24.5454 0.0000 0.0000 0.0000
# 3 24.5452 24.5454 102.3753 0.0000 0.0000 0.0000
# 4 0.0000 0.0000 0.0000 5.0445 0.0000 0.0000
# 5 0.0000 0.0000 0.0000 0.0000 5.0450 0.0000
# 6 0.0000 0.0000 0.0000 0.0000 0.0000 45.5287
#
#
#
# Elastic Compliance Matrix: (Units=1/GPa)
#
#
# Indices 1 2 3 4 5 6 
#
# 1 0.028604 -0.016833 -0.002822 0.000000 0.000000 0.000000
# 2 -0.016833 0.028604 -0.002822 0.000000 0.000000 0.000000
# 3 -0.002822 -0.002822 0.011121 0.000000 0.000000 0.000000
# 4 0.000000 0.000000 0.000000 0.198235 0.000000 0.000000
# 5 0.000000 0.000000 0.000000 0.000000 0.198215 0.000000
# 6 0.000000 0.000000 0.000000 0.000000 0.000000 0.021964
#
#
# Mechanical properties :
#
#
# Convention : Reuss Voigt Hill
#
# Bulk Modulus (GPa) = 42.78109 43.77795 43.27952
# Shear Modulus (GPa) = 9.26802 20.10092 14.68447
#
# Velocity S-wave (km/s) = 2.12683 3.13219 2.67713
# Velocity P-wave (km/s) = 5.18761 5.86919 5.53889
#
# Compressibility (1/GPa) = 0.02337481
#
# Stress axis : x y z
#
# Youngs Moduli (GPa) = 34.96026 34.96019 89.91758
#
# Poissons Ratio (x) = 0.58847 0.25377
# Poissons Ratio (y) = 0.58847 0.25378
# Poissons Ratio (z) = 0.09866 0.09867
#
# Static dielectric constant tensor:
#      x y z
#    x 1.790190 0.000000 0.000000 
#    y 0.000000 1.790190 0.000000 
#    z 0.000000 0.000000 1.726710 
# 
# From -- ./inp_files/207.got.cif
#   From: 2010.05.17/outbox.cif.g08.bks.cpg/sg117_1_cif.got.tgz:207.got - 2010.05.20 11:15:09.
