data_PCOD9558231
_publ_section_title
;
Structure prediction by ZEFSAII (Michael W. Deem and Ramdas Pophale) SiO2 
 PCOD9558231
Probable space group: P -4 B 2
;
_chemical_formula_sum "Si O2"
_cell_formula_units_Z 20
_cell_length_a 8.962826
_cell_length_b 8.962826
_cell_length_c 8.911701
_cell_angle_alpha 90.000000
_cell_angle_beta 90.000000
_cell_angle_gamma 90.000000
_cell_volume 715.896992
_symmetry_space_group_name_H-M "P -4 B 2"
_symmetry_group_IT_number 117
_symmetry_cell_setting 'tetragonal'
loop_
_space_group_symop_operation_xyz
x,y,z
y,-x,-z
-x,-y,z
-y,x,-z
1/2+y,1/2+x,-z
1/2-y,1/2-x,-z
1/2-x,1/2+y,z
1/2+x,1/2-y,z
loop_
_atom_site_type_symbol
_atom_site_label
_atom_site_fract_x
_atom_site_fract_y
_atom_site_fract_z
Si Si1 0.408806 0.733362 0.211754
Si Si2 0.641076 0.858925 0.000000
Si Si3 0.668134 0.608973 0.406372
O O1 0.497441 0.841764 0.102341
O O2 0.550206 0.640237 0.273671
O O3 0.322514 0.828059 0.341633
O O4 0.284930 0.648833 0.112656
O O5 0.682370 0.437348 0.460533
#
# Coordination Sequence:
#
# PCOD9558231 Si02
#       3
#     8   4   8
#     4  10  23  45  76 114 156 204 257 318 390 457
#     4  10  24  46  74 114 154 198 254 319 388 463
#     4  10  22  44  77 112 153 205 259 317 380 456
#
# _framework density 27.936982
#
# number of rings (size 3 to 8) (size 9 to 14) (size 15 to 20)
#    0.000    2.000    0.000    1.200    0.000   14.400 
#    0.000   12.000    0.000   24.000    0.000    0.000 
#    0.000    0.000    0.000    0.000    0.000    0.000 
#
# Total GULP energy -111765.408486 kJ/mol
# GULP energy per Si atom -5588.270424 kJ/mol
# Density = 2.787340 g / cm^3
# Si number density = 27.936982 Si / 1000 Ang^3
#
#
#
# Elastic Constant Matrix: (Units=GPa)
#
#
# Indices 1 2 3 4 5 6 
#
# 1 170.0715 71.8514 63.7516 0.0000 0.0000 0.0000
# 2 71.8514 170.0711 63.7518 0.0000 0.0000 0.0000
# 3 63.7516 63.7518 148.5998 0.0000 0.0000 0.0000
# 4 0.0000 0.0000 0.0000 62.6020 0.0000 0.0000
# 5 0.0000 0.0000 0.0000 0.0000 62.6019 0.0000
# 6 0.0000 0.0000 0.0000 0.0000 0.0000 39.1101
#
#
#
# Elastic Compliance Matrix: (Units=1/GPa)
#
#
# Indices 1 2 3 4 5 6 
#
# 1 0.007761 -0.002420 -0.002291 0.000000 0.000000 0.000000
# 2 -0.002420 0.007761 -0.002291 0.000000 0.000000 0.000000
# 3 -0.002291 -0.002291 0.008696 0.000000 0.000000 0.000000
# 4 0.000000 0.000000 0.000000 0.015974 0.000000 0.000000
# 5 0.000000 0.000000 0.000000 0.000000 0.015974 0.000000
# 6 0.000000 0.000000 0.000000 0.000000 0.000000 0.025569
#
#
# Mechanical properties :
#
#
# Convention : Reuss Voigt Hill
#
# Bulk Modulus (GPa) = 97.92183 98.60579 98.26381
# Shear Modulus (GPa) = 50.43126 52.15533 51.29329
#
# Velocity S-wave (km/s) = 4.25335 4.32544 4.28955
# Velocity P-wave (km/s) = 7.69730 7.76649 7.73197
#
# Compressibility (1/GPa) = 0.01021223
#
# Stress axis : x y z
#
# Youngs Moduli (GPa) = 128.84554 128.84501 115.00007
#
# Poissons Ratio (x) = 0.31180 0.26352
# Poissons Ratio (y) = 0.31180 0.26352
# Poissons Ratio (z) = 0.29525 0.29525
#
# Static dielectric constant tensor:
#      x y z
#    x 2.320420 0.000000 0.000000 
#    y 0.000000 2.320420 0.000000 
#    z 0.000000 0.000000 2.486470 
# 
# From -- ./inp_files/1139.got.cif
#   From: 2010.05.17/outbox.cif.g08.bks.cpg/sg117_1_cif.got.tgz:1139.got - 2010.05.20 11:15:09.
