data_PCOD9558410
_publ_section_title
;
Structure prediction by ZEFSAII (Michael W. Deem and Ramdas Pophale) SiO2 
 PCOD9558410
Probable space group: P -4 N 2
;
_chemical_formula_sum "Si O2"
_cell_formula_units_Z 48
_cell_length_a 11.311187
_cell_length_b 11.311187
_cell_length_c 17.883841
_cell_angle_alpha 90.000000
_cell_angle_beta 90.000000
_cell_angle_gamma 90.000000
_cell_volume 2288.111399
_symmetry_space_group_name_H-M "P -4 N 2"
_symmetry_group_IT_number 118
_symmetry_cell_setting 'tetragonal'
loop_
_space_group_symop_operation_xyz
x,y,z
y,-x,-z
-x,-y,z
-y,x,-z
1/2+y,1/2+x,1/2-z
1/2-y,1/2-x,1/2-z
1/2-x,1/2+y,1/2+z
1/2+x,1/2-y,1/2+z
loop_
_atom_site_type_symbol
_atom_site_label
_atom_site_fract_x
_atom_site_fract_y
_atom_site_fract_z
Si Si1 0.128221 0.221724 0.804578
Si Si2 0.722417 0.399555 0.789281
Si Si3 0.316481 0.301313 0.978496
Si Si4 0.864947 0.030122 0.612908
Si Si5 0.103440 0.847610 0.032499
Si Si6 0.448359 0.879690 0.101593
O O1 0.239168 0.260833 0.750000
O O2 0.149079 0.138347 0.878141
O O3 0.088384 0.349090 0.837227
O O4 0.014074 0.180574 0.758125
O O5 0.812109 0.312109 0.750000
O O6 0.609217 0.326097 0.817803
O O7 0.798092 0.456742 0.856922
O O8 0.412140 0.298221 0.911905
O O9 0.266998 0.172853 0.997707
O O10 0.202287 0.377008 0.954731
O O11 0.369186 0.379841 0.043602
O O12 0.000000 0.000000 0.628247
O O13 0.965862 0.847474 0.009325
O O14 0.500000 0.000000 0.070006
#
# Coordination Sequence:
#
# PCOD9558410 Si02
#       6
#     8   8   8   8   8   8
#     4   9  20  36  60  98 136 177 226 296 361 424
#     4  11  21  34  61  94 133 171 225 284 341 414
#     4  11  22  39  66  91 136 171 223 281 348 422
#     4  12  22  39  58  95 130 176 219 273 340 408
#     4  10  24  46  68 100 135 179 237 298 372 441
#     4  10  18  33  60  95 129 165 221 287 346 399
#
# _framework density 20.977997999999999
#
# number of rings (size 3 to 8) (size 9 to 14) (size 15 to 20)
#    0.000    1.500    5.000    0.000    2.333    2.667 
#    3.000    0.000    0.000    0.000    0.000    0.000 
#    0.000    0.000    0.000    0.000    0.000    0.000 
#
# Total GULP energy -267669.173870 kJ/mol
# GULP energy per Si atom -5576.441122 kJ/mol
# Density = 2.093025 g / cm^3
# Si number density = 20.977998 Si / 1000 Ang^3
#
#
#
# Elastic Constant Matrix: (Units=GPa)
#
#
# Indices 1 2 3 4 5 6 
#
# 1 71.3780 31.9099 26.0223 0.0000 0.0000 0.0000
# 2 31.9099 71.3781 26.0223 0.0000 0.0000 0.0000
# 3 26.0223 26.0223 78.5306 0.0000 0.0000 0.0000
# 4 0.0000 0.0000 0.0000 17.0177 0.0000 0.0000
# 5 0.0000 0.0000 0.0000 0.0000 17.0178 0.0000
# 6 0.0000 0.0000 0.0000 0.0000 0.0000 39.5323
#
#
#
# Elastic Compliance Matrix: (Units=1/GPa)
#
#
# Indices 1 2 3 4 5 6 
#
# 1 0.018480 -0.006857 -0.003851 0.000000 0.000000 0.000000
# 2 -0.006857 0.018480 -0.003851 0.000000 0.000000 0.000000
# 3 -0.003851 -0.003851 0.015286 0.000000 0.000000 0.000000
# 4 0.000000 0.000000 0.000000 0.058762 0.000000 0.000000
# 5 0.000000 0.000000 0.000000 0.000000 0.058762 0.000000
# 6 0.000000 0.000000 0.000000 0.000000 0.000000 0.025296
#
#
# Mechanical properties :
#
#
# Convention : Reuss Voigt Hill
#
# Bulk Modulus (GPa) = 43.24170 43.24398 43.24284
# Shear Modulus (GPa) = 21.56162 23.86904 22.71533
#
# Velocity S-wave (km/s) = 3.20944 3.37681 3.29419
# Velocity P-wave (km/s) = 5.86444 5.98853 5.92681
#
# Compressibility (1/GPa) = 0.02312582
#
# Stress axis : x y z
#
# Youngs Moduli (GPa) = 54.11384 54.11386 65.41850
#
# Poissons Ratio (x) = 0.37108 0.25194
# Poissons Ratio (y) = 0.37108 0.25194
# Poissons Ratio (z) = 0.20840 0.20840
#
# Static dielectric constant tensor:
#      x y z
#    x 1.810330 0.000000 0.000000 
#    y 0.000000 1.810330 0.000000 
#    z 0.000000 0.000000 1.856630 
# 
# From -- ./inp_files/4924.got.cif
#   From: 2010.05.17/outbox.cif.g08.bks.cpg/sg118_3_cif.got.tgz:4924.got - 2010.05.20 11:17:24.
