data_PCOD9558787
_publ_section_title
;
Structure prediction by ZEFSAII (Michael W. Deem and Ramdas Pophale) SiO2 
 PCOD9558787
Probable space group: P -4 N 2
;
_chemical_formula_sum "Si O2"
_cell_formula_units_Z 56
_cell_length_a 14.216049
_cell_length_b 14.216049
_cell_length_c 15.730522
_cell_angle_alpha 90.000000
_cell_angle_beta 90.000000
_cell_angle_gamma 90.000000
_cell_volume 3179.076348
_symmetry_space_group_name_H-M "P -4 N 2"
_symmetry_group_IT_number 118
_symmetry_cell_setting 'tetragonal'
loop_
_space_group_symop_operation_xyz
x,y,z
y,-x,-z
-x,-y,z
-y,x,-z
1/2+y,1/2+x,1/2-z
1/2-y,1/2-x,1/2-z
1/2-x,1/2+y,1/2+z
1/2+x,1/2-y,1/2+z
loop_
_atom_site_type_symbol
_atom_site_label
_atom_site_fract_x
_atom_site_fract_y
_atom_site_fract_z
Si Si1 0.302623 0.644833 0.574338
Si Si2 0.578989 0.078989 0.846851
Si Si3 0.944720 0.153443 0.750000
Si Si4 0.505959 0.732622 0.920797
Si Si5 0.861315 0.940793 0.750000
Si Si6 0.697377 0.355167 0.925662
Si Si7 0.767378 0.994041 0.920797
O O1 0.297308 0.593748 0.665583
O O2 0.238277 0.738277 0.574678
O O3 0.413080 0.669514 0.561673
O O4 0.269461 0.574929 0.500500
O O5 0.607484 0.107484 0.750000
O O6 0.535662 0.166740 0.895796
O O7 0.666740 0.035662 0.895796
O O8 0.500000 0.000000 0.840364
O O9 0.906252 0.202692 0.665583
O O10 0.056193 0.135844 0.750000
O O11 0.903476 0.046937 0.750000
O O12 0.561551 0.696675 0.837211
O O13 0.413080 0.669514 0.938327
O O14 0.574929 0.730539 0.000500
O O15 0.803325 0.938449 0.837211
#
# Coordination Sequence:
#
# PCOD9558787 Si02
#       7
#     8   8   8   8   8   8   8
#     4  11  22  36  58  85 117 157 198 241 293 355
#     4  11  22  38  60  87 121 160 195 243 301 361
#     4   9  19  34  55  83 118 150 186 236 289 351
#     4  11  21  37  59  86 121 151 197 244 298 352
#     4   9  18  33  56  85 114 147 185 239 303 342
#     4  11  22  36  58  85 117 157 198 241 293 355
#     4  11  21  37  59  86 121 151 197 244 298 352
#
# _framework density 17.615179999999999
#
# number of rings (size 3 to 8) (size 9 to 14) (size 15 to 20)
#    0.000    1.571    2.857    3.000    0.000    2.857 
#    0.000    0.000    0.000    0.857    0.000    3.000 
#    0.000    0.000    0.000    0.000    0.000    0.000 
#
# Total GULP energy -312590.276341 kJ/mol
# GULP energy per Si atom -5581.969220 kJ/mol
# Density = 1.757509 g / cm^3
# Si number density = 17.615180 Si / 1000 Ang^3
#
#
#
# Elastic Constant Matrix: (Units=GPa)
#
#
# Indices 1 2 3 4 5 6 
#
# 1 51.4369 17.1675 36.2882 0.0000 0.0000 0.0000
# 2 17.1675 51.4369 36.2882 0.0000 0.0000 0.0000
# 3 36.2882 36.2882 140.8595 0.0000 0.0000 0.0000
# 4 0.0000 0.0000 0.0000 22.8454 0.0000 0.0000
# 5 0.0000 0.0000 0.0000 0.0000 22.8454 0.0000
# 6 0.0000 0.0000 0.0000 0.0000 0.0000 22.8792
#
#
#
# Elastic Compliance Matrix: (Units=1/GPa)
#
#
# Indices 1 2 3 4 5 6 
#
# 1 0.024609 -0.004572 -0.005162 0.000000 0.000000 0.000000
# 2 -0.004572 0.024609 -0.005162 0.000000 0.000000 0.000000
# 3 -0.005162 -0.005162 0.009759 0.000000 0.000000 0.000000
# 4 0.000000 0.000000 0.000000 0.043773 0.000000 0.000000
# 5 0.000000 0.000000 0.000000 0.000000 0.043773 0.000000
# 6 0.000000 0.000000 0.000000 0.000000 0.000000 0.043708
#
#
# Mechanical properties :
#
#
# Convention : Reuss Voigt Hill
#
# Bulk Modulus (GPa) = 34.26377 47.02457 40.64417
# Shear Modulus (GPa) = 21.76286 23.97995 22.87141
#
# Velocity S-wave (km/s) = 3.51873 3.69361 3.60723
# Velocity P-wave (km/s) = 6.00017 6.70401 6.36183
#
# Compressibility (1/GPa) = 0.02918535
#
# Stress axis : x y z
#
# Youngs Moduli (GPa) = 40.63581 40.63581 102.47036
#
# Poissons Ratio (x) = 0.18577 0.52895
# Poissons Ratio (y) = 0.18577 0.52895
# Poissons Ratio (z) = 0.20976 0.20976
#
# Static dielectric constant tensor:
#      x y z
#    x 1.594460 0.000000 0.000000 
#    y 0.000000 1.594460 0.000000 
#    z 0.000000 0.000000 1.585860 
# 
# From -- ./inp_files/3426.got.cif
#   From: 2010.05.17/outbox.cif.g08.bks.cpg/sg118_2_cif.got.tgz:3426.got - 2010.05.20 11:17:24.
