data_PCOD9558436
_publ_section_title
;
Structure prediction by ZEFSAII (Michael W. Deem and Ramdas Pophale) SiO2 
 PCOD9558436
Probable space group: P -4 N 2
;
_chemical_formula_sum "Si O2"
_cell_formula_units_Z 56
_cell_length_a 11.664805
_cell_length_b 11.664805
_cell_length_c 25.358624
_cell_angle_alpha 90.000000
_cell_angle_beta 90.000000
_cell_angle_gamma 90.000000
_cell_volume 3450.489026
_symmetry_space_group_name_H-M "P -4 N 2"
_symmetry_group_IT_number 118
_symmetry_cell_setting 'tetragonal'
loop_
_space_group_symop_operation_xyz
x,y,z
y,-x,-z
-x,-y,z
-y,x,-z
1/2+y,1/2+x,1/2-z
1/2-y,1/2-x,1/2-z
1/2-x,1/2+y,1/2+z
1/2+x,1/2-y,1/2+z
loop_
_atom_site_type_symbol
_atom_site_label
_atom_site_fract_x
_atom_site_fract_y
_atom_site_fract_z
Si Si1 0.869624 0.772140 0.289728
Si Si2 0.135966 0.864035 0.500000
Si Si3 0.750549 0.133066 0.390393
Si Si4 0.772142 0.869622 0.710271
Si Si5 1.000000 0.368917 0.850032
Si Si6 0.366933 0.250550 0.109607
Si Si7 0.367584 0.500001 0.719006
O O1 0.822556 0.677445 0.250000
O O2 0.798208 0.790643 0.342799
O O3 0.000001 0.750413 0.304479
O O4 0.862055 0.889132 0.256169
O O5 0.203887 0.830824 0.447391
O O6 0.169177 0.796114 0.552609
O O7 0.000001 0.846434 0.490895
O O8 0.798206 0.209356 0.342799
O O9 0.614177 0.134614 0.384771
O O10 0.789425 1.000000 0.382413
O O11 0.677449 0.822552 0.750000
O O12 0.889136 0.862054 0.743830
O O13 0.885821 0.365385 0.884770
O O14 0.000000 0.500000 0.824119
O O15 0.000000 0.251653 0.814850
O O16 0.500000 0.500000 0.694966
#
# Coordination Sequence:
#
# PCOD9558436 Si02
#       7
#     8   8   8   8   8   8   8
#     4  11  21  33  52  77 108 140 173 215 261 318
#     4   9  18  32  54  78 103 138 176 216 261 314
#     4  10  19  33  53  81 107 134 175 221 267 310
#     4  11  21  33  52  77 108 140 173 215 261 318
#     4  10  20  34  56  84 110 136 174 227 270 316
#     4  10  19  33  53  81 107 134 175 221 267 310
#     4  10  20  34  52  80 112 146 170 209 266 330
#
# _framework density 16.229583999999999
#
# number of rings (size 3 to 8) (size 9 to 14) (size 15 to 20)
#    0.000    1.857    4.286    0.857    0.000    1.429 
#    2.571    0.000    6.286    0.000    0.000    0.000 
#    0.000    0.000    0.000    0.000    0.000    0.000 
#
# Total GULP energy -311876.617606 kJ/mol
# GULP energy per Si atom -5569.225314 kJ/mol
# Density = 1.619264 g / cm^3
# Si number density = 16.229584 Si / 1000 Ang^3
#
#
#
# Elastic Constant Matrix: (Units=GPa)
#
#
# Indices 1 2 3 4 5 6 
#
# 1 89.6074 16.9799 45.9950 0.0000 0.0000 0.0000
# 2 16.9799 89.6074 45.9950 0.0000 0.0000 0.0000
# 3 45.9950 45.9950 112.2538 0.0000 0.0000 0.0000
# 4 0.0000 0.0000 0.0000 12.6294 0.0000 0.0000
# 5 0.0000 0.0000 0.0000 0.0000 12.6294 0.0000
# 6 0.0000 0.0000 0.0000 0.0000 0.0000 13.2645
#
#
#
# Elastic Compliance Matrix: (Units=1/GPa)
#
#
# Indices 1 2 3 4 5 6 
#
# 1 0.014142 0.000373 -0.005947 0.000000 0.000000 0.000000
# 2 0.000373 0.014142 -0.005947 0.000000 0.000000 0.000000
# 3 -0.005947 -0.005947 0.013782 0.000000 0.000000 0.000000
# 4 0.000000 0.000000 0.000000 0.079180 0.000000 0.000000
# 5 0.000000 0.000000 0.000000 0.000000 0.079180 0.000000
# 6 0.000000 0.000000 0.000000 0.000000 0.000000 0.075389
#
#
# Mechanical properties :
#
#
# Convention : Reuss Voigt Hill
#
# Bulk Modulus (GPa) = 52.56942 56.60091 54.58516
# Shear Modulus (GPa) = 16.38269 19.87122 18.12696
#
# Velocity S-wave (km/s) = 3.18061 3.50291 3.34564
# Velocity P-wave (km/s) = 6.77863 7.16320 6.97356
#
# Compressibility (1/GPa) = 0.01902247
#
# Stress axis : x y z
#
# Youngs Moduli (GPa) = 70.71211 70.71211 72.55784
#
# Poissons Ratio (x) = -0.02637 0.43152
# Poissons Ratio (y) = -0.02637 0.43152
# Poissons Ratio (z) = 0.42055 0.42055
#
# Static dielectric constant tensor:
#      x y z
#    x 1.566720 0.000000 0.000000 
#    y 0.000000 1.566720 0.000000 
#    z 0.000000 0.000000 1.510170 
# 
# From -- ./inp_files/5702.got.cif
#   From: 2010.05.17/outbox.cif.g08.bks.cpg/sg118_3_cif.got.tgz:5702.got - 2010.05.20 11:17:24.
