data_PCOD9558196
_publ_section_title
;
Structure prediction by ZEFSAII (Michael W. Deem and Ramdas Pophale) SiO2 
 PCOD9558196
Probable space group: P -4 B 2
;
_chemical_formula_sum "Si O2"
_cell_formula_units_Z 44
_cell_length_a 13.914179
_cell_length_b 13.914179
_cell_length_c 12.326760
_cell_angle_alpha 90.000000
_cell_angle_beta 90.000000
_cell_angle_gamma 90.000000
_cell_volume 2386.514693
_symmetry_space_group_name_H-M "P -4 B 2"
_symmetry_group_IT_number 117
_symmetry_cell_setting 'tetragonal'
loop_
_space_group_symop_operation_xyz
x,y,z
y,-x,-z
-x,-y,z
-y,x,-z
1/2+y,1/2+x,-z
1/2-y,1/2-x,-z
1/2-x,1/2+y,z
1/2+x,1/2-y,z
loop_
_atom_site_type_symbol
_atom_site_label
_atom_site_fract_x
_atom_site_fract_y
_atom_site_fract_z
Si Si1 0.765785 0.260593 0.248902
Si Si2 0.000000 0.000000 0.711091
Si Si3 0.268424 0.373783 0.043034
Si Si4 0.181616 0.084922 0.580053
Si Si5 0.878344 0.750381 0.425910
Si Si6 0.574139 0.675997 0.860317
O O1 0.788799 0.194079 0.146472
O O2 0.843456 0.236516 0.339463
O O3 0.662669 0.237651 0.305070
O O4 0.754466 0.369892 0.211488
O O5 0.042195 0.915228 0.787492
O O6 0.916492 0.952883 0.637100
O O7 0.277734 0.482257 0.082356
O O8 0.166311 0.333690 0.000000
O O9 0.348355 0.357145 0.950324
O O10 0.157954 0.146686 0.473359
O O11 0.245592 0.991658 0.562035
O O12 0.830247 0.669753 0.500000
#
# Coordination Sequence:
#
# PCOD9558196 Si02
#       6
#     8   4   8   8   8   8
#     4  10  22  38  58  88 124 160 192 258 310 364
#     4  12  20  34  68  96 118 148 208 266 316 364
#     4  10  22  37  60  87 124 160 202 251 310 363
#     4  11  21  37  59  94 121 155 204 259 305 366
#     4  10  22  37  60  87 124 160 202 251 310 363
#     4  11  21  37  59  94 121 155 204 259 305 366
#
# _framework density 18.436927000000001
#
# number of rings (size 3 to 8) (size 9 to 14) (size 15 to 20)
#    0.000    1.455    3.636    2.182    0.000    0.000 
#    0.000    0.000    0.000   26.182    0.000    0.000 
#    0.000    0.000    0.000    0.000    0.000    0.000 
#
# Total GULP energy -245627.476327 kJ/mol
# GULP energy per Si atom -5582.442644 kJ/mol
# Density = 1.839496 g / cm^3
# Si number density = 18.436927 Si / 1000 Ang^3
#
#
#
# Elastic Constant Matrix: (Units=GPa)
#
#
# Indices 1 2 3 4 5 6 
#
# 1 69.1060 39.8633 14.2912 0.0000 0.0000 0.0000
# 2 39.8633 69.1047 14.2914 0.0000 0.0000 0.0000
# 3 14.2912 14.2914 60.9420 0.0000 0.0000 0.0000
# 4 0.0000 0.0000 0.0000 26.5806 0.0000 0.0000
# 5 0.0000 0.0000 0.0000 0.0000 26.5813 0.0000
# 6 0.0000 0.0000 0.0000 0.0000 0.0000 24.2748
#
#
#
# Elastic Compliance Matrix: (Units=1/GPa)
#
#
# Indices 1 2 3 4 5 6 
#
# 1 0.021988 -0.012209 -0.002293 0.000000 0.000000 0.000000
# 2 -0.012209 0.021988 -0.002293 0.000000 0.000000 0.000000
# 3 -0.002293 -0.002293 0.017485 0.000000 0.000000 0.000000
# 4 0.000000 0.000000 0.000000 0.037621 0.000000 0.000000
# 5 0.000000 0.000000 0.000000 0.000000 0.037620 0.000000
# 6 0.000000 0.000000 0.000000 0.000000 0.000000 0.041195
#
#
# Mechanical properties :
#
#
# Convention : Reuss Voigt Hill
#
# Bulk Modulus (GPa) = 35.88219 37.33828 36.61023
# Shear Modulus (GPa) = 22.64716 24.20111 23.42413
#
# Velocity S-wave (km/s) = 3.50860 3.62697 3.56828
# Velocity P-wave (km/s) = 5.99317 6.15108 6.07264
#
# Compressibility (1/GPa) = 0.02786898
#
# Stress axis : x y z
#
# Youngs Moduli (GPa) = 45.48006 45.47907 57.19334
#
# Poissons Ratio (x) = 0.55527 0.13114
# Poissons Ratio (y) = 0.55529 0.13116
# Poissons Ratio (z) = 0.10429 0.10429
#
# Static dielectric constant tensor:
#      x y z
#    x 1.624160 0.000000 0.000000 
#    y 0.000000 1.624160 0.000000 
#    z 0.000000 0.000000 1.667790 
# 
# From -- ./inp_files/2685.got.cif
#   From: 2010.05.17/outbox.cif.g08.bks.cpg/sg117_2_cif.got.tgz:2685.got - 2010.05.20 11:15:09.
