data_PCOD9558547
_publ_section_title
;
Structure prediction by ZEFSAII (Michael W. Deem and Ramdas Pophale) SiO2 
 PCOD9558547
Probable space group: P -4 N 2
;
_chemical_formula_sum "Si O2"
_cell_formula_units_Z 28
_cell_length_a 7.271340
_cell_length_b 7.271340
_cell_length_c 24.365437
_cell_angle_alpha 90.000000
_cell_angle_beta 90.000000
_cell_angle_gamma 90.000000
_cell_volume 1288.258775
_symmetry_space_group_name_H-M "P -4 N 2"
_symmetry_group_IT_number 118
_symmetry_cell_setting 'tetragonal'
loop_
_space_group_symop_operation_xyz
x,y,z
y,-x,-z
-x,-y,z
-y,x,-z
1/2+y,1/2+x,1/2-z
1/2-y,1/2-x,1/2-z
1/2-x,1/2+y,1/2+z
1/2+x,1/2-y,1/2+z
loop_
_atom_site_type_symbol
_atom_site_label
_atom_site_fract_x
_atom_site_fract_y
_atom_site_fract_z
Si Si1 0.784705 0.517108 0.091732
Si Si2 0.500000 0.000000 0.250000
Si Si3 0.500000 0.500000 0.000000
Si Si4 0.830860 0.253935 0.832302
Si Si5 0.343947 0.252302 0.688575
O O1 0.723238 0.721207 0.111178
O O2 0.762450 0.392986 0.146076
O O3 0.000000 0.500000 0.078520
O O4 0.666521 0.454183 0.040579
O O5 0.565337 0.839955 0.206023
O O6 0.045854 0.202170 0.834730
O O7 0.739027 0.066760 0.808392
O O8 0.270947 0.229054 0.750000
#
# Coordination Sequence:
#
# PCOD9558547 Si02
#       5
#     8   2   2   8   8
#     4  10  25  46  64  96 133 173 231 287 343 407
#     4  12  20  32  58 104 134 172 208 262 330 420
#     4  12  28  44  76  92 120 188 240 296 342 416
#     4  10  22  35  59  94 133 173 213 267 332 403
#     4  10  20  40  64  93 137 177 212 266 343 416
#
# _framework density 21.734760999999999
#
# number of rings (size 3 to 8) (size 9 to 14) (size 15 to 20)
#    0.000    1.714    1.429    1.714    4.000    8.571 
#    0.000    0.000    0.000    0.000    0.000    0.000 
#    0.000    0.000    0.000    0.000    0.000    0.000 
#
# Total GULP energy -156064.086639 kJ/mol
# GULP energy per Si atom -5573.717380 kJ/mol
# Density = 2.168529 g / cm^3
# Si number density = 21.734761 Si / 1000 Ang^3
#
#
#
# Elastic Constant Matrix: (Units=GPa)
#
#
# Indices 1 2 3 4 5 6 
#
# 1 92.4609 20.9249 55.1601 0.0000 0.0000 0.0000
# 2 20.9249 92.4616 55.1599 0.0000 0.0000 0.0000
# 3 55.1601 55.1599 117.5264 0.0000 0.0000 0.0000
# 4 0.0000 0.0000 0.0000 34.7043 0.0000 0.0000
# 5 0.0000 0.0000 0.0000 0.0000 34.7044 0.0000
# 6 0.0000 0.0000 0.0000 0.0000 0.0000 30.6665
#
#
#
# Elastic Compliance Matrix: (Units=1/GPa)
#
#
# Indices 1 2 3 4 5 6 
#
# 1 0.015105 0.001126 -0.007618 0.000000 0.000000 0.000000
# 2 0.001126 0.015105 -0.007618 0.000000 0.000000 0.000000
# 3 -0.007618 -0.007618 0.015660 0.000000 0.000000 0.000000
# 4 0.000000 0.000000 0.000000 0.028815 0.000000 0.000000
# 5 0.000000 0.000000 0.000000 0.000000 0.028815 0.000000
# 6 0.000000 0.000000 0.000000 0.000000 0.000000 0.032609
#
#
# Mechanical properties :
#
#
# Convention : Reuss Voigt Hill
#
# Bulk Modulus (GPa) = 56.65629 62.77095 59.71362
# Shear Modulus (GPa) = 29.37513 31.42865 30.40189
#
# Velocity S-wave (km/s) = 3.68030 3.80677 3.74407
# Velocity P-wave (km/s) = 6.64705 6.94731 6.79884
#
# Compressibility (1/GPa) = 0.01765029
#
# Stress axis : x y z
#
# Youngs Moduli (GPa) = 66.20187 66.20271 63.85804
#
# Poissons Ratio (x) = -0.07457 0.48648
# Poissons Ratio (y) = -0.07456 0.48648
# Poissons Ratio (z) = 0.50434 0.50434
#
# Static dielectric constant tensor:
#      x y z
#    x 2.162580 0.000000 0.000000 
#    y 0.000000 2.162620 0.000000 
#    z 0.000000 0.000000 1.730570 
# 
# From -- ./inp_files/4628.got.cif
#   From: 2010.05.17/outbox.cif.g08.bks.cpg/sg118_3_cif.got.tgz:4628.got - 2010.05.20 11:17:24.
