data_PCOD9558456
_publ_section_title
;
Structure prediction by ZEFSAII (Michael W. Deem and Ramdas Pophale) SiO2 
 PCOD9558456
Probable space group: P -4 N 2
;
_chemical_formula_sum "Si O2"
_cell_formula_units_Z 44
_cell_length_a 13.173402
_cell_length_b 13.173402
_cell_length_c 13.427404
_cell_angle_alpha 90.000000
_cell_angle_beta 90.000000
_cell_angle_gamma 90.000000
_cell_volume 2330.171821
_symmetry_space_group_name_H-M "P -4 N 2"
_symmetry_group_IT_number 118
_symmetry_cell_setting 'tetragonal'
loop_
_space_group_symop_operation_xyz
x,y,z
y,-x,-z
-x,-y,z
-y,x,-z
1/2+y,1/2+x,1/2-z
1/2-y,1/2-x,1/2-z
1/2-x,1/2+y,1/2+z
1/2+x,1/2-y,1/2+z
loop_
_atom_site_type_symbol
_atom_site_label
_atom_site_fract_x
_atom_site_fract_y
_atom_site_fract_z
Si Si1 0.889149 0.944116 0.144767
Si Si2 0.172308 0.965126 0.339859
Si Si3 0.000000 0.500000 0.750000
Si Si4 0.656616 0.714464 0.693056
Si Si5 0.500000 0.500000 0.000000
Si Si6 0.381303 0.866434 0.392220
Si Si7 0.761953 0.024161 0.957972
O O1 0.901863 0.829609 0.108933
O O2 0.836046 0.953013 0.251398
O O3 0.826001 0.998870 0.057895
O O4 0.000000 0.000000 0.147029
O O5 0.128671 0.866798 0.278861
O O6 0.286385 0.943117 0.378473
O O7 0.098025 0.991198 0.429459
O O8 0.092909 0.475725 0.674008
O O9 0.683514 0.816487 0.750000
O O10 0.761650 0.667970 0.649216
O O11 0.577615 0.738403 0.607082
O O12 0.424483 0.840043 0.500962
#
# Coordination Sequence:
#
# PCOD9558456 Si02
#       7
#     8   8   2   8   2   8   8
#     4  12  16  28  58  93 120 152 206 272 308 372
#     4  11  21  39  57  91 125 160 215 262 336 399
#     4  12  20  44  60  80 142 176 198 274 332 392
#     4  10  19  36  57  89 123 156 212 271 319 393
#     4  12  24  40  64  82 128 180 196 280 348 382
#     4  11  22  38  59  91 125 165 215 264 326 407
#     4  12  18  32  61  94 121 159 217 274 323 375
#
# _framework density 18.882728
#
# number of rings (size 3 to 8) (size 9 to 14) (size 15 to 20)
#    0.000    0.727   10.909    0.000    0.000    0.000 
#    6.545    0.000    0.000    3.273    0.000    0.000 
#    0.000    0.000    0.000    0.000    0.000    0.000 
#
# Total GULP energy -245026.227280 kJ/mol
# GULP energy per Si atom -5568.777893 kJ/mol
# Density = 1.883975 g / cm^3
# Si number density = 18.882728 Si / 1000 Ang^3
#
#
#
# Elastic Constant Matrix: (Units=GPa)
#
#
# Indices 1 2 3 4 5 6 
#
# 1 66.9868 34.6629 53.5063 0.0000 0.0000 0.0000
# 2 34.6629 66.9854 53.5059 0.0000 0.0000 0.0000
# 3 53.5063 53.5059 120.3115 0.0000 0.0000 0.0000
# 4 0.0000 0.0000 0.0000 33.0876 0.0000 0.0000
# 5 0.0000 0.0000 0.0000 0.0000 33.0876 0.0000
# 6 0.0000 0.0000 0.0000 0.0000 0.0000 23.5859
#
#
#
# Elastic Compliance Matrix: (Units=1/GPa)
#
#
# Indices 1 2 3 4 5 6 
#
# 1 0.024718 -0.006219 -0.008227 0.000000 0.000000 0.000000
# 2 -0.006219 0.024719 -0.008227 0.000000 0.000000 0.000000
# 3 -0.008227 -0.008227 0.015629 0.000000 0.000000 0.000000
# 4 0.000000 0.000000 0.000000 0.030223 0.000000 0.000000
# 5 0.000000 0.000000 0.000000 0.000000 0.030223 0.000000
# 6 0.000000 0.000000 0.000000 0.000000 0.000000 0.042398
#
#
# Mechanical properties :
#
#
# Convention : Reuss Voigt Hill
#
# Bulk Modulus (GPa) = 50.71234 59.73711 55.22472
# Shear Modulus (GPa) = 22.74492 25.45944 24.10218
#
# Velocity S-wave (km/s) = 3.47441 3.67589 3.57657
# Velocity P-wave (km/s) = 6.55821 7.05130 6.80922
#
# Compressibility (1/GPa) = 0.01971907
#
# Stress axis : x y z
#
# Youngs Moduli (GPa) = 40.45655 40.45550 63.98218
#
# Poissons Ratio (x) = 0.25161 0.52638
# Poissons Ratio (y) = 0.25161 0.52639
# Poissons Ratio (z) = 0.33283 0.33283
#
# Static dielectric constant tensor:
#      x y z
#    x 1.713260 0.000000 0.000000 
#    y 0.000000 1.713270 0.000000 
#    z 0.000000 0.000000 1.670910 
# 
# From -- ./inp_files/3284.got.cif
#   From: 2010.05.17/outbox.cif.g08.bks.cpg/sg118_2_cif.got.tgz:3284.got - 2010.05.20 11:17:24.
