data_PCOD9558656
_publ_section_title
;
Structure prediction by ZEFSAII (Michael W. Deem and Ramdas Pophale) SiO2 
 PCOD9558656
Probable space group: P -4 N 2
;
_chemical_formula_sum "Si O2"
_cell_formula_units_Z 64
_cell_length_a 12.092833
_cell_length_b 12.092833
_cell_length_c 24.185520
_cell_angle_alpha 90.000000
_cell_angle_beta 90.000000
_cell_angle_gamma 90.000000
_cell_volume 3536.808455
_symmetry_space_group_name_H-M "P -4 N 2"
_symmetry_group_IT_number 118
_symmetry_cell_setting 'tetragonal'
loop_
_space_group_symop_operation_xyz
x,y,z
y,-x,-z
-x,-y,z
-y,x,-z
1/2+y,1/2+x,1/2-z
1/2-y,1/2-x,1/2-z
1/2-x,1/2+y,1/2+z
1/2+x,1/2-y,1/2+z
loop_
_atom_site_type_symbol
_atom_site_label
_atom_site_fract_x
_atom_site_fract_y
_atom_site_fract_z
Si Si1 0.500000 0.633734 0.758614
Si Si2 0.366385 0.256582 0.200195
Si Si3 0.631892 0.500000 0.367770
Si Si4 0.866385 0.756582 0.700195
Si Si5 0.872477 0.625937 0.010994
Si Si6 0.785013 0.233933 0.911322
Si Si7 0.372477 0.125937 0.510994
Si Si8 0.285013 0.733933 0.411322
O O1 0.500000 0.500000 0.756635
O O2 0.384752 0.664378 0.787359
O O3 0.500000 0.674900 0.695398
O O4 0.615248 0.664378 0.787359
O O5 0.317719 0.182282 0.250000
O O6 0.500000 0.247130 0.197758
O O7 0.308494 0.222167 0.143080
O O8 0.500000 0.500000 0.365763
O O9 0.668213 0.613179 0.396676
O O10 0.668213 0.386821 0.396676
O O11 0.817719 0.682282 0.750000
O O12 0.808494 0.722167 0.643080
O O13 0.791864 0.668177 0.059167
O O14 0.848181 0.500000 0.995470
O O15 0.855843 0.704312 0.958121
O O16 0.000000 0.632492 0.029379
O O17 0.855843 0.295688 0.958121
O O18 0.291864 0.168177 0.559167
#
# Coordination Sequence:
#
# PCOD9558656 Si02
#       8
#     8   8   8   8   8   8   8   8
#     4   9  20  38  58  84 120 158 194 239 286 351
#     4  11  23  39  61  89 121 158 198 240 298 356
#     4  11  20  36  61  89 121 155 200 242 291 352
#     4  11  23  39  61  89 121 158 198 240 298 356
#     4  10  22  40  59  84 119 158 199 247 299 347
#     4  11  22  38  61  88 118 157 198 248 295 355
#     4  10  22  40  59  84 119 158 199 247 299 347
#     4  11  22  38  61  88 118 157 198 248 295 355
#
# _framework density 18.095410000000001
#
# number of rings (size 3 to 8) (size 9 to 14) (size 15 to 20)
#    0.000    1.500    3.750    1.500    1.750    1.250 
#    0.000    0.000    0.000    3.375    0.000    0.000 
#    0.000    0.000    0.000    0.000    0.000    0.000 
#
# Total GULP energy -357083.211189 kJ/mol
# GULP energy per Si atom -5579.425175 kJ/mol
# Density = 1.805422 g / cm^3
# Si number density = 18.095410 Si / 1000 Ang^3
#
#
#
# Elastic Constant Matrix: (Units=GPa)
#
#
# Indices 1 2 3 4 5 6 
#
# 1 100.9912 28.6671 36.2038 0.0000 0.0000 0.0000
# 2 28.6671 100.9905 36.2036 0.0000 0.0000 0.0000
# 3 36.2038 36.2036 109.0340 0.0000 0.0000 0.0000
# 4 0.0000 0.0000 0.0000 27.4150 0.0000 0.0000
# 5 0.0000 0.0000 0.0000 0.0000 27.4148 0.0000
# 6 0.0000 0.0000 0.0000 0.0000 0.0000 20.6521
#
#
#
# Elastic Compliance Matrix: (Units=1/GPa)
#
#
# Indices 1 2 3 4 5 6 
#
# 1 0.011647 -0.002179 -0.003144 0.000000 0.000000 0.000000
# 2 -0.002179 0.011648 -0.003144 0.000000 0.000000 0.000000
# 3 -0.003144 -0.003144 0.011259 0.000000 0.000000 0.000000
# 4 0.000000 0.000000 0.000000 0.036476 0.000000 0.000000
# 5 0.000000 0.000000 0.000000 0.000000 0.036477 0.000000
# 6 0.000000 0.000000 0.000000 0.000000 0.000000 0.048421
#
#
# Mechanical properties :
#
#
# Convention : Reuss Voigt Hill
#
# Bulk Modulus (GPa) = 56.75247 57.01830 56.88539
# Shear Modulus (GPa) = 27.97425 29.09246 28.53335
#
# Velocity S-wave (km/s) = 3.93610 4.01400 3.97524
# Velocity P-wave (km/s) = 7.21721 7.28431 7.25084
#
# Compressibility (1/GPa) = 0.01762038
#
# Stress axis : x y z
#
# Youngs Moduli (GPa) = 85.85560 85.85511 88.81606
#
# Poissons Ratio (x) = 0.18710 0.27923
# Poissons Ratio (y) = 0.18710 0.27922
# Poissons Ratio (z) = 0.26992 0.26992
#
# Static dielectric constant tensor:
#      x y z
#    x 1.613440 0.000000 0.000000 
#    y 0.000000 1.613440 0.000000 
#    z 0.000000 0.000000 1.616550 
# 
# From -- ./inp_files/6272.got.cif
#   From: 2010.05.17/outbox.cif.g08.bks.cpg/sg118_4_cif.got.tgz:6272.got - 2010.05.20 11:17:24.
