data_PCOD9558542
_publ_section_title
;
Structure prediction by ZEFSAII (Michael W. Deem and Ramdas Pophale) SiO2 
 PCOD9558542
Probable space group: P -4 N 2
;
_chemical_formula_sum "Si O2"
_cell_formula_units_Z 44
_cell_length_a 8.796184
_cell_length_b 8.796184
_cell_length_c 29.997996
_cell_angle_alpha 90.000000
_cell_angle_beta 90.000000
_cell_angle_gamma 90.000000
_cell_volume 2321.030534
_symmetry_space_group_name_H-M "P -4 N 2"
_symmetry_group_IT_number 118
_symmetry_cell_setting 'tetragonal'
loop_
_space_group_symop_operation_xyz
x,y,z
y,-x,-z
-x,-y,z
-y,x,-z
1/2+y,1/2+x,1/2-z
1/2-y,1/2-x,1/2-z
1/2-x,1/2+y,1/2+z
1/2+x,1/2-y,1/2+z
loop_
_atom_site_type_symbol
_atom_site_label
_atom_site_fract_x
_atom_site_fract_y
_atom_site_fract_z
Si Si1 0.500000 0.500000 0.000000
Si Si2 0.032671 0.170987 0.327268
Si Si3 0.339729 0.261475 0.707616
Si Si4 0.991107 0.745077 0.425859
Si Si5 0.500000 0.500000 0.649898
Si Si6 0.745358 0.489543 0.425781
Si Si7 0.665044 0.165044 0.750000
Si Si8 0.000000 0.000000 0.000000
O O1 0.357843 0.511643 0.033212
O O2 0.880821 0.273215 0.319973
O O3 0.063361 0.177689 0.379812
O O4 0.163132 0.230598 0.293962
O O5 0.000000 0.000000 0.313590
O O6 0.227414 0.272587 0.750000
O O7 0.374911 0.417157 0.681399
O O8 0.500779 0.203277 0.728125
O O9 0.147961 0.655127 0.416721
O O10 0.861193 0.623651 0.436957
O O11 0.537546 0.360684 0.616147
O O12 0.637343 0.457477 0.467452
#
# Coordination Sequence:
#
# PCOD9558542 Si02
#       8
#     2   8   8   8   4   8   4   2
#     4  12  24  40  66  92 134 168 206 256 336 388
#     4  11  21  38  61  93 125 159 209 270 315 374
#     4  10  21  35  60  90 121 158 211 256 309 372
#     4  11  22  40  60  94 121 170 208 262 309 389
#     4  11  20  37  63  92 116 166 209 267 306 371
#     4  10  22  37  66  86 125 153 215 257 316 372
#     4  10  23  38  64  93 120 163 222 260 309 384
#     4  10  20  40  56 100 110 160 196 272 316 374
#
# _framework density 18.957097999999998
#
# number of rings (size 3 to 8) (size 9 to 14) (size 15 to 20)
#    0.000    1.455    2.727    4.636    7.636    0.000 
#    0.000    0.000    0.000   12.000    0.000    0.000 
#    0.000    0.000    0.000    0.000    0.000    0.000 
#
# Total GULP energy -245070.660577 kJ/mol
# GULP energy per Si atom -5569.787740 kJ/mol
# Density = 1.891395 g / cm^3
# Si number density = 18.957098 Si / 1000 Ang^3
#
#
#
# Elastic Constant Matrix: (Units=GPa)
#
#
# Indices 1 2 3 4 5 6 
#
# 1 81.7157 21.7630 36.7835 0.0000 0.0000 0.0000
# 2 21.7630 81.7154 36.7835 0.0000 0.0000 0.0000
# 3 36.7835 36.7835 122.7401 0.0000 0.0000 0.0000
# 4 0.0000 0.0000 0.0000 32.0876 0.0000 0.0000
# 5 0.0000 0.0000 0.0000 0.0000 32.0876 0.0000
# 6 0.0000 0.0000 0.0000 0.0000 0.0000 12.0937
#
#
#
# Elastic Compliance Matrix: (Units=1/GPa)
#
#
# Indices 1 2 3 4 5 6 
#
# 1 0.014480 -0.002200 -0.003680 0.000000 0.000000 0.000000
# 2 -0.002200 0.014480 -0.003680 0.000000 0.000000 0.000000
# 3 -0.003680 -0.003680 0.010353 0.000000 0.000000 0.000000
# 4 0.000000 0.000000 0.000000 0.031165 0.000000 0.000000
# 5 0.000000 0.000000 0.000000 0.000000 0.031165 0.000000
# 6 0.000000 0.000000 0.000000 0.000000 0.000000 0.082688
#
#
# Mechanical properties :
#
#
# Convention : Reuss Voigt Hill
#
# Bulk Modulus (GPa) = 49.52277 52.98127 51.25202
# Shear Modulus (GPa) = 23.78894 27.97653 25.88274
#
# Velocity S-wave (km/s) = 3.54628 3.84576 3.69905
# Velocity P-wave (km/s) = 6.55350 6.90858 6.73338
#
# Compressibility (1/GPa) = 0.02019273
#
# Stress axis : x y z
#
# Youngs Moduli (GPa) = 69.06066 69.06038 96.58923
#
# Poissons Ratio (x) = 0.15192 0.35547
# Poissons Ratio (y) = 0.15192 0.35547
# Poissons Ratio (z) = 0.25416 0.25416
#
# Static dielectric constant tensor:
#      x y z
#    x 1.657910 0.000000 0.000000 
#    y 0.000000 1.657910 0.000000 
#    z 0.000000 0.000000 1.706000 
# 
# From -- ./inp_files/6807.got.cif
#   From: 2010.05.17/outbox.cif.g08.bks.cpg/sg118_4_cif.got.tgz:6807.got - 2010.05.20 11:17:24.
