data_PCOD9558431
_publ_section_title
;
Structure prediction by ZEFSAII (Michael W. Deem and Ramdas Pophale) SiO2 
 PCOD9558431
Probable space group: P -4 N 2
;
_chemical_formula_sum "Si O2"
_cell_formula_units_Z 40
_cell_length_a 7.709190
_cell_length_b 7.709190
_cell_length_c 34.201502
_cell_angle_alpha 90.000000
_cell_angle_beta 90.000000
_cell_angle_gamma 90.000000
_cell_volume 2032.650344
_symmetry_space_group_name_H-M "P -4 N 2"
_symmetry_group_IT_number 118
_symmetry_cell_setting 'tetragonal'
loop_
_space_group_symop_operation_xyz
x,y,z
y,-x,-z
-x,-y,z
-y,x,-z
1/2+y,1/2+x,1/2-z
1/2-y,1/2-x,1/2-z
1/2-x,1/2+y,1/2+z
1/2+x,1/2-y,1/2+z
loop_
_atom_site_type_symbol
_atom_site_label
_atom_site_fract_x
_atom_site_fract_y
_atom_site_fract_z
Si Si1 0.794139 0.794139 0.000000
Si Si2 1.000000 0.287121 0.649984
Si Si3 0.209748 0.807783 0.793935
Si Si4 0.290040 0.000000 0.439019
Si Si5 0.692217 0.709748 0.706065
O O1 0.671122 0.743647 0.036196
O O2 0.743647 0.671121 0.963804
O O3 0.000000 0.768855 0.008074
O O4 1.000000 0.226015 0.605380
O O5 0.165920 0.231070 0.675054
O O6 0.000000 0.500000 0.649280
O O7 0.834080 0.231070 0.675054
O O8 0.271002 0.771002 0.750000
O O9 0.000000 0.800057 0.792704
O O10 0.263166 0.000000 0.805706
O O11 0.500000 0.000000 0.436928
O O12 0.728998 0.771002 0.750000
#
# Coordination Sequence:
#
# PCOD9558431 Si02
#       5
#     8   8   8   8   8
#     4   9  18  33  56  82 110 147 186 229 278 340
#     4   9  18  32  54  84 116 146 188 244 276 334
#     4  10  19  32  55  81 108 149 192 229 281 337
#     4   9  18  33  55  85 114 147 191 230 287 341
#     4  10  19  32  55  81 108 149 192 229 281 337
#
# _framework density 19.678740000000001
#
# number of rings (size 3 to 8) (size 9 to 14) (size 15 to 20)
#    0.000    2.600    2.000    0.000    0.000    2.400 
#    0.000    8.000    8.800    0.000    0.000    0.000 
#    0.000    0.000    0.000    0.000    0.000    0.000 
#
# Total GULP energy -223264.035211 kJ/mol
# GULP energy per Si atom -5581.600880 kJ/mol
# Density = 1.963395 g / cm^3
# Si number density = 19.678740 Si / 1000 Ang^3
#
#
#
# Elastic Constant Matrix: (Units=GPa)
#
#
# Indices 1 2 3 4 5 6 
#
# 1 89.8228 49.4876 77.0589 0.0000 0.0000 0.0000
# 2 49.4876 89.8228 77.0589 0.0000 0.0000 0.0000
# 3 77.0589 77.0589 205.5205 0.0000 0.0000 0.0000
# 4 0.0000 0.0000 0.0000 -9.3250 0.0000 0.0000
# 5 0.0000 0.0000 0.0000 0.0000 -9.3250 0.0000
# 6 0.0000 0.0000 0.0000 0.0000 0.0000 5.3102
#
#
#
# Elastic Compliance Matrix: (Units=1/GPa)
#
#
# Indices 1 2 3 4 5 6 
#
# 1 0.018529 -0.006263 -0.004599 0.000000 0.000000 0.000000
# 2 -0.006263 0.018529 -0.004599 0.000000 0.000000 0.000000
# 3 -0.004599 -0.004599 0.008315 0.000000 0.000000 0.000000
# 4 0.000000 0.000000 0.000000 -0.107239 0.000000 0.000000
# 5 0.000000 0.000000 0.000000 0.000000 -0.107239 0.000000
# 6 0.000000 0.000000 0.000000 0.000000 0.000000 0.188316
#
#
# Mechanical properties :
#
#
# Convention : Reuss Voigt Hill
#
# Bulk Modulus (GPa) = 69.20236 88.04188 78.62212
# Shear Modulus (GPa) = 90.99111 9.43610 50.21360
#
# Velocity S-wave (km/s) = 6.80725 2.19214 5.05688
# Velocity P-wave (km/s) = 9.85024 7.15849 8.61021
#
# Compressibility (1/GPa) = 0.01445037
#
# Stress axis : x y z
#
# Youngs Moduli (GPa) = 53.96874 53.96874 120.27081
#
# Poissons Ratio (x) = 0.33801 0.55315
# Poissons Ratio (y) = 0.33801 0.55315
# Poissons Ratio (z) = 0.24821 0.24821
#
# Static dielectric constant tensor:
#      x y z
#    x 1.703380 0.000000 0.000000 
#    y 0.000000 1.703380 0.000000 
#    z 0.000000 0.000000 1.637830 
# 
# From -- ./inp_files/6451.got.cif
#   From: 2010.05.17/outbox.cif.g08.bks.cpg/sg118_4_cif.got.tgz:6451.got - 2010.05.20 11:17:24.
