data_PCOD9558124
_publ_section_title
;
Structure prediction by ZEFSAII (Michael W. Deem and Ramdas Pophale) SiO2 
 PCOD9558124
Probable space group: P -4 B 2
;
_chemical_formula_sum "Si O2"
_cell_formula_units_Z 52
_cell_length_a 20.280804
_cell_length_b 20.280804
_cell_length_c 6.868495
_cell_angle_alpha 90.000000
_cell_angle_beta 90.000000
_cell_angle_gamma 90.000000
_cell_volume 2825.087622
_symmetry_space_group_name_H-M "P -4 B 2"
_symmetry_group_IT_number 117
_symmetry_cell_setting 'tetragonal'
loop_
_space_group_symop_operation_xyz
x,y,z
y,-x,-z
-x,-y,z
-y,x,-z
1/2+y,1/2+x,-z
1/2-y,1/2-x,-z
1/2-x,1/2+y,z
1/2+x,1/2-y,z
loop_
_atom_site_type_symbol
_atom_site_label
_atom_site_fract_x
_atom_site_fract_y
_atom_site_fract_z
Si Si1 0.284494 0.541189 0.692851
Si Si2 0.840184 0.659817 0.500000
Si Si3 0.421665 0.827575 0.883055
Si Si4 0.818023 0.426199 0.016720
Si Si5 0.271169 0.387930 0.779952
Si Si6 0.902273 0.196646 0.729652
Si Si7 0.968501 0.105170 0.003880
O O1 0.278058 0.461581 0.691568
O O2 0.290425 0.577925 0.490325
O O3 0.221780 0.566656 0.814512
O O4 0.351740 0.553665 0.812595
O O5 0.834368 0.600635 0.341538
O O6 0.778086 0.653056 0.642256
O O7 0.499957 0.830133 0.906414
O O8 0.387244 0.887244 0.000000
O O9 0.396862 0.762577 0.005539
O O10 0.765743 0.392944 0.162247
O O11 0.883186 0.383186 0.000000
O O12 0.339647 0.349409 0.772139
O O13 0.962845 0.156701 0.827855
O O14 0.041957 0.077580 0.027297
#
# Coordination Sequence:
#
# PCOD9558124 Si02
#       7
#     8   4   8   8   8   8   8
#     4  10  22  39  57  85 121 160 204 250 305 364
#     4  10  20  36  66  87 112 156 202 251 294 368
#     4   9  20  40  64  89 118 151 205 252 307 366
#     4  10  23  41  61  88 126 159 195 254 314 370
#     4  10  21  37  55  87 120 158 202 254 301 355
#     4  11  23  37  60  86 121 164 204 249 304 368
#     4  10  21  36  56  84 117 156 202 252 300 354
#
# _framework density 18.406507999999999
#
# number of rings (size 3 to 8) (size 9 to 14) (size 15 to 20)
#    0.000    2.000    1.538    0.923    2.154    6.462 
#    0.000    1.538    0.000    8.308    0.000    0.000 
#    0.000    0.000    0.000    0.000    0.000    0.000 
#
# Total GULP energy -290002.913241 kJ/mol
# GULP energy per Si atom -5576.979101 kJ/mol
# Density = 1.836461 g / cm^3
# Si number density = 18.406508 Si / 1000 Ang^3
#
#
#
# Elastic Constant Matrix: (Units=GPa)
#
#
# Indices 1 2 3 4 5 6 
#
# 1 -258.5163 379.4471 41.2330 0.0000 0.0000 0.0000
# 2 379.4471 -258.5098 41.2352 0.0000 0.0000 0.0000
# 3 41.2330 41.2352 119.8335 0.0000 0.0000 0.0000
# 4 0.0000 0.0000 0.0000 5.4331 0.0000 0.0000
# 5 0.0000 0.0000 0.0000 0.0000 5.4338 0.0000
# 6 0.0000 0.0000 0.0000 0.0000 0.0000 29.0217
#
#
#
# Elastic Compliance Matrix: (Units=1/GPa)
#
#
# Indices 1 2 3 4 5 6 
#
# 1 0.004618 0.006186 -0.003718 0.000000 0.000000 0.000000
# 2 0.006186 0.004618 -0.003718 0.000000 0.000000 0.000000
# 3 -0.003718 -0.003718 0.010903 0.000000 0.000000 0.000000
# 4 0.000000 0.000000 0.000000 0.184056 0.000000 0.000000
# 5 0.000000 0.000000 0.000000 0.000000 0.184034 0.000000
# 6 0.000000 0.000000 0.000000 0.000000 0.000000 0.034457
#
#
# Mechanical properties :
#
#
# Convention : Reuss Voigt Hill
#
# Bulk Modulus (GPa) = 56.68600 58.51533 57.60066
# Shear Modulus (GPa) = 11.59914 -49.29615 -18.84850
#
# Velocity S-wave (km/s) = 2.51303 -5.18074 -3.20349
# Velocity P-wave (km/s) = 6.26770 1.98171 4.20457
#
# Compressibility (1/GPa) = 0.01764104
#
# Stress axis : x y z
#
# Youngs Moduli (GPa) = 216.53086 216.52692 91.71483
#
# Poissons Ratio (x) = -1.33940 0.34096
# Poissons Ratio (y) = -1.33942 0.34096
# Poissons Ratio (z) = 0.80499 0.80497
#
# Static dielectric constant tensor:
#      x y z
#    x 1.638870 0.000000 0.000000 
#    y 0.000000 1.638870 0.000000 
#    z 0.000000 0.000000 1.656580 
# 
# From -- ./inp_files/869.got.cif
#   From: 2010.05.17/outbox.cif.g08.bks.cpg/sg117_1_cif.got.tgz:869.got - 2010.05.20 11:15:09.
