data_PCOD9558411
_publ_section_title
;
Structure prediction by ZEFSAII (Michael W. Deem and Ramdas Pophale) SiO2 
 PCOD9558411
Probable space group: P -4 N 2
;
_chemical_formula_sum "Si O2"
_cell_formula_units_Z 48
_cell_length_a 16.426885
_cell_length_b 16.426885
_cell_length_c 8.399886
_cell_angle_alpha 90.000000
_cell_angle_beta 90.000000
_cell_angle_gamma 90.000000
_cell_volume 2266.646665
_symmetry_space_group_name_H-M "P -4 N 2"
_symmetry_group_IT_number 118
_symmetry_cell_setting 'tetragonal'
loop_
_space_group_symop_operation_xyz
x,y,z
y,-x,-z
-x,-y,z
-y,x,-z
1/2+y,1/2+x,1/2-z
1/2-y,1/2-x,1/2-z
1/2-x,1/2+y,1/2+z
1/2+x,1/2-y,1/2+z
loop_
_atom_site_type_symbol
_atom_site_label
_atom_site_fract_x
_atom_site_fract_y
_atom_site_fract_z
Si Si1 0.993370 0.721075 0.557117
Si Si2 0.159990 0.661756 0.942593
Si Si3 0.522281 0.613270 0.916651
Si Si4 0.633328 0.588572 0.348296
Si Si5 0.487629 0.272252 0.423406
Si Si6 0.245358 0.824770 0.601163
O O1 0.064587 0.654906 0.527375
O O2 0.035032 0.793777 0.454884
O O3 0.992092 0.742833 0.744792
O O4 0.899909 0.716531 0.498053
O O5 0.166448 0.666448 0.750000
O O6 0.078109 0.708388 0.993540
O O7 0.242600 0.713212 0.987793
O O8 0.492530 0.602374 0.738170
O O9 0.590544 0.548996 0.957388
O O10 0.562190 0.643345 0.414676
O O11 0.704971 0.565182 0.469805
O O12 0.668421 0.639034 0.198276
O O13 0.302257 0.802257 0.750000
#
# Coordination Sequence:
#
# PCOD9558411 Si02
#       6
#     8   8   8   8   8   8
#     4  10  18  34  61  85 110 158 212 243 306 372
#     4   9  17  38  61  80 115 165 206 243 306 379
#     4  10  19  31  49  76 116 157 198 232 295 383
#     4  11  22  35  56  87 123 157 197 257 309 366
#     4  11  22  37  57  88 126 160 197 258 319 373
#     4  10  18  38  66  86 116 164 214 253 294 373
#
# _framework density 21.176659000000001
#
# number of rings (size 3 to 8) (size 9 to 14) (size 15 to 20)
#    0.000    1.833    6.667    1.000    2.333    0.333 
#    0.000    4.167    0.000    2.000    0.000    3.500 
#    0.000    0.000    0.000    0.000    0.000    0.000 
#
# Total GULP energy -267254.837380 kJ/mol
# GULP energy per Si atom -5567.809112 kJ/mol
# Density = 2.112846 g / cm^3
# Si number density = 21.176659 Si / 1000 Ang^3
#
#
#
# Elastic Constant Matrix: (Units=GPa)
#
#
# Indices 1 2 3 4 5 6 
#
# 1 46.0326 -4.0294 7.7519 0.0000 0.0000 0.0000
# 2 -4.0294 46.0326 7.7519 0.0000 0.0000 0.0000
# 3 7.7519 7.7519 21.7916 0.0000 0.0000 0.0000
# 4 0.0000 0.0000 0.0000 26.6246 0.0000 0.0000
# 5 0.0000 0.0000 0.0000 0.0000 26.6246 0.0000
# 6 0.0000 0.0000 0.0000 0.0000 0.0000 21.4619
#
#
#
# Elastic Compliance Matrix: (Units=1/GPa)
#
#
# Indices 1 2 3 4 5 6 
#
# 1 0.023691 0.003715 -0.009749 0.000000 0.000000 0.000000
# 2 0.003715 0.023691 -0.009749 0.000000 0.000000 0.000000
# 3 -0.009749 -0.009749 0.052825 0.000000 0.000000 0.000000
# 4 0.000000 0.000000 0.000000 0.037559 0.000000 0.000000
# 5 0.000000 0.000000 0.000000 0.000000 0.037559 0.000000
# 6 0.000000 0.000000 0.000000 0.000000 0.000000 0.046594
#
#
# Mechanical properties :
#
#
# Convention : Reuss Voigt Hill
#
# Bulk Modulus (GPa) = 14.56851 15.20060 14.88456
# Shear Modulus (GPa) = 18.09199 21.76771 19.92985
#
# Velocity S-wave (km/s) = 2.92607 3.20958 3.07110
# Velocity P-wave (km/s) = 4.27906 4.57480 4.42940
#
# Compressibility (1/GPa) = 0.06864118
#
# Stress axis : x y z
#
# Youngs Moduli (GPa) = 42.21059 42.21059 18.93035
#
# Poissons Ratio (x) = -0.15683 0.18455
# Poissons Ratio (y) = -0.15683 0.18455
# Poissons Ratio (z) = 0.41152 0.41152
#
# Static dielectric constant tensor:
#      x y z
#    x 1.867190 0.000000 0.000000 
#    y 0.000000 1.867190 0.000000 
#    z 0.000000 0.000000 1.788370 
# 
# From -- ./inp_files/2101.got.cif
#   From: 2010.05.17/outbox.cif.g08.bks.cpg/sg118_2_cif.got.tgz:2101.got - 2010.05.20 11:17:24.
