data_PCOD9558472
_publ_section_title
;
Structure prediction by ZEFSAII (Michael W. Deem and Ramdas Pophale) SiO2 
 PCOD9558472
Probable space group: P -4 N 2
;
_chemical_formula_sum "Si O2"
_cell_formula_units_Z 26
_cell_length_a 14.471563
_cell_length_b 14.471563
_cell_length_c 5.219627
_cell_angle_alpha 90.000000
_cell_angle_beta 90.000000
_cell_angle_gamma 90.000000
_cell_volume 1093.126312
_symmetry_space_group_name_H-M "P -4 N 2"
_symmetry_group_IT_number 118
_symmetry_cell_setting 'tetragonal'
loop_
_space_group_symop_operation_xyz
x,y,z
y,-x,-z
-x,-y,z
-y,x,-z
1/2+y,1/2+x,1/2-z
1/2-y,1/2-x,1/2-z
1/2-x,1/2+y,1/2+z
1/2+x,1/2-y,1/2+z
loop_
_atom_site_type_symbol
_atom_site_label
_atom_site_fract_x
_atom_site_fract_y
_atom_site_fract_z
Si Si1 0.902013 0.165398 0.794963
Si Si2 0.734053 0.040451 0.885386
Si Si3 0.000000 0.000000 0.500000
Si Si4 0.343316 0.019822 0.378627
O O1 0.907082 0.258095 0.627659
O O2 0.966881 0.086502 0.671039
O O3 0.801183 0.123483 0.817015
O O4 0.951355 0.198965 0.058161
O O5 0.660732 0.017993 0.664322
O O6 0.688884 0.052708 0.162960
O O7 0.429441 0.070560 0.250000
#
# Coordination Sequence:
#
# PCOD9558472 Si02
#       4
#     8   8   2   8
#     4  10  20  28  51  71 106 128 170 197 252 306
#     4  10  20  31  49  70  98 135 170 205 242 303
#     4  12  16  34  44  86 104 138 160 210 248 322
#     4  10  22  34  46  66 105 141 169 204 249 301
#
# _framework density 23.784991999999999
#
# number of rings (size 3 to 8) (size 9 to 14) (size 15 to 20)
#    1.846    0.000    3.077    2.769    4.308    0.000 
#    0.000    0.000    0.000    0.000    0.000    0.000 
#    0.000    7.385    0.000    0.000    0.000    0.000 
#
# Total GULP energy -145056.287932 kJ/mol
# GULP energy per Si atom -5579.087997 kJ/mol
# Density = 2.373086 g / cm^3
# Si number density = 23.784992 Si / 1000 Ang^3
#
#
#
# Elastic Constant Matrix: (Units=GPa)
#
#
# Indices 1 2 3 4 5 6 
#
# 1 27.0682 106.7741 28.1215 0.0000 0.0000 0.0000
# 2 106.7741 27.0765 28.1252 0.0000 0.0000 0.0000
# 3 28.1215 28.1252 138.0802 0.0000 0.0000 0.0000
# 4 0.0000 0.0000 0.0000 15.7367 0.0000 0.0000
# 5 0.0000 0.0000 0.0000 0.0000 15.7365 0.0000
# 6 0.0000 0.0000 0.0000 0.0000 0.0000 30.8404
#
#
#
# Elastic Compliance Matrix: (Units=1/GPa)
#
#
# Indices 1 2 3 4 5 6 
#
# 1 -0.002188 0.010359 -0.001664 0.000000 0.000000 0.000000
# 2 0.010359 -0.002188 -0.001664 0.000000 0.000000 0.000000
# 3 -0.001664 -0.001664 0.007920 0.000000 0.000000 0.000000
# 4 0.000000 0.000000 0.000000 0.063546 0.000000 0.000000
# 5 0.000000 0.000000 0.000000 0.000000 0.063547 0.000000
# 6 0.000000 0.000000 0.000000 0.000000 0.000000 0.032425
#
#
# Mechanical properties :
#
#
# Convention : Reuss Voigt Hill
#
# Bulk Modulus (GPa) = 56.80315 57.58518 57.19416
# Shear Modulus (GPa) = 32.28549 14.40967 23.34758
#
# Velocity S-wave (km/s) = 3.68827 2.46403 3.13646
# Velocity P-wave (km/s) = 6.48626 5.68846 6.10042
#
# Compressibility (1/GPa) = 0.01760466
#
# Stress axis : x y z
#
# Youngs Moduli (GPa) = -456.94338 -457.08847 126.26187
#
# Poissons Ratio (x) = 4.73483 0.21013
# Poissons Ratio (y) = 4.73333 0.21010
# Poissons Ratio (z) = -0.76046 -0.76061
#
# Static dielectric constant tensor:
#      x y z
#    x 1.965980 0.000000 0.000000 
#    y 0.000000 1.965980 0.000000 
#    z 0.000000 0.000000 1.898200 
# 
# From -- ./inp_files/348.got.cif
#   From: 2010.05.17/outbox.cif.g08.bks.cpg/sg118_1_cif.got.tgz:348.got - 2010.05.20 11:17:24.
