data_PCOD9558069
_publ_section_title
;
Structure prediction by ZEFSAII (Michael W. Deem and Ramdas Pophale) SiO2 
 PCOD9558069
Probable space group: P -4 B 2
;
_chemical_formula_sum "Si O2"
_cell_formula_units_Z 56
_cell_length_a 15.402331
_cell_length_b 15.402331
_cell_length_c 12.503837
_cell_angle_alpha 90.000000
_cell_angle_beta 90.000000
_cell_angle_gamma 90.000000
_cell_volume 2966.307761
_symmetry_space_group_name_H-M "P -4 B 2"
_symmetry_group_IT_number 117
_symmetry_cell_setting 'tetragonal'
loop_
_space_group_symop_operation_xyz
x,y,z
y,-x,-z
-x,-y,z
-y,x,-z
1/2+y,1/2+x,-z
1/2-y,1/2-x,-z
1/2-x,1/2+y,z
1/2+x,1/2-y,z
loop_
_atom_site_type_symbol
_atom_site_label
_atom_site_fract_x
_atom_site_fract_y
_atom_site_fract_z
Si Si1 0.623654 0.791258 0.099763
Si Si2 0.872194 0.222228 0.775296
Si Si3 0.860537 0.508544 0.735755
Si Si4 0.001629 0.360629 0.695228
Si Si5 0.328385 0.313205 0.534083
Si Si6 0.618043 0.418307 0.020353
Si Si7 0.985326 0.738609 0.481300
O O1 0.705846 0.806306 0.177248
O O2 0.535688 0.815985 0.162203
O O3 0.644363 0.855638 0.000000
O O4 0.617166 0.694272 0.055708
O O5 0.838754 0.189221 0.662025
O O6 0.889803 0.147485 0.861031
O O7 0.960680 0.276896 0.752805
O O8 0.917525 0.594611 0.754006
O O9 0.797852 0.527501 0.637186
O O10 0.926510 0.433367 0.695016
O O11 0.022586 0.334164 0.573698
O O12 0.250758 0.249243 0.500000
O O13 0.307517 0.409898 0.496471
O O14 0.418467 0.277097 0.488620
O O15 0.522786 0.384769 0.989985
#
# Coordination Sequence:
#
# PCOD9558069 Si02
#       7
#     8   8   8   8   8   8   8
#     4   9  19  38  61  84 118 150 193 256 312 357
#     4   9  20  41  59  85 119 153 196 254 312 358
#     4  10  18  33  60  87 115 157 203 244 317 365
#     4   9  18  35  57  87 120 151 195 255 306 369
#     4  11  23  41  61  90 130 163 203 255 306 368
#     4  10  22  42  60  83 114 157 208 247 296 362
#     4  11  22  37  57  88 125 165 203 245 298 373
#
# _framework density 18.878688
#
# number of rings (size 3 to 8) (size 9 to 14) (size 15 to 20)
#    0.000    2.143    0.000    4.286    2.000    1.429 
#   12.857   13.571    0.000    0.000    0.000    0.000 
#    0.000    0.000    0.000    0.000    0.000    0.000 
#
# Total GULP energy -312528.523166 kJ/mol
# GULP energy per Si atom -5580.866485 kJ/mol
# Density = 1.883572 g / cm^3
# Si number density = 18.878688 Si / 1000 Ang^3
#
#
#
# Elastic Constant Matrix: (Units=GPa)
#
#
# Indices 1 2 3 4 5 6 
#
# 1 -6.3244 53.8984 13.0470 0.0000 0.0000 0.0000
# 2 53.8984 -6.3029 13.0729 0.0000 0.0000 0.0000
# 3 13.0470 13.0729 55.8257 0.0000 0.0000 0.0000
# 4 0.0000 0.0000 0.0000 9.8136 0.0000 0.0000
# 5 0.0000 0.0000 0.0000 0.0000 9.8133 0.0000
# 6 0.0000 0.0000 0.0000 0.0000 0.0000 14.1083
#
#
#
# Elastic Compliance Matrix: (Units=1/GPa)
#
#
# Indices 1 2 3 4 5 6 
#
# 1 0.003750 0.020360 -0.005644 0.000000 0.000000 0.000000
# 2 0.020360 0.003754 -0.005637 0.000000 0.000000 0.000000
# 3 -0.005644 -0.005637 0.020552 0.000000 0.000000 0.000000
# 4 0.000000 0.000000 0.000000 0.101899 0.000000 0.000000
# 5 0.000000 0.000000 0.000000 0.000000 0.101903 0.000000
# 6 0.000000 0.000000 0.000000 0.000000 0.000000 0.070880
#
#
# Mechanical properties :
#
#
# Convention : Reuss Voigt Hill
#
# Bulk Modulus (GPa) = 21.63933 22.58168 22.11051
# Shear Modulus (GPa) = 16.66753 4.29240 10.47996
#
# Velocity S-wave (km/s) = 2.97455 1.50951 2.35866
# Velocity P-wave (km/s) = 4.82539 3.87628 4.37664
#
# Compressibility (1/GPa) = 0.04621214
#
# Stress axis : x y z
#
# Youngs Moduli (GPa) = 266.68113 266.41417 48.65696
#
# Poissons Ratio (x) = -5.42410 0.27462
# Poissons Ratio (y) = -5.42953 0.27429
# Poissons Ratio (z) = 1.50516 1.50184
#
# Static dielectric constant tensor:
#      x y z
#    x 1.650440 0.000000 0.000000 
#    y 0.000000 1.650440 0.000000 
#    z 0.000000 0.000000 1.657210 
# 
# From -- ./inp_files/2847.got.cif
#   From: 2010.05.17/outbox.cif.g08.bks.cpg/sg117_2_cif.got.tgz:2847.got - 2010.05.20 11:15:09.
