data_PCOD9558139
_publ_section_title
;
Structure prediction by ZEFSAII (Michael W. Deem and Ramdas Pophale) SiO2 
 PCOD9558139
Probable space group: P -4 B 2
;
_chemical_formula_sum "Si O2"
_cell_formula_units_Z 36
_cell_length_a 16.560025
_cell_length_b 16.560025
_cell_length_c 6.943897
_cell_angle_alpha 90.000000
_cell_angle_beta 90.000000
_cell_angle_gamma 90.000000
_cell_volume 1904.255622
_symmetry_space_group_name_H-M "P -4 B 2"
_symmetry_group_IT_number 117
_symmetry_cell_setting 'tetragonal'
loop_
_space_group_symop_operation_xyz
x,y,z
y,-x,-z
-x,-y,z
-y,x,-z
1/2+y,1/2+x,-z
1/2-y,1/2-x,-z
1/2-x,1/2+y,z
1/2+x,1/2-y,z
loop_
_atom_site_type_symbol
_atom_site_label
_atom_site_fract_x
_atom_site_fract_y
_atom_site_fract_z
Si Si1 0.758671 0.619397 0.923024
Si Si2 0.829817 0.873698 0.384138
Si Si3 0.553051 0.298324 0.676548
Si Si4 0.528796 0.145222 0.394814
Si Si5 0.353271 0.146729 0.500000
O O1 0.684625 0.635914 0.780087
O O2 0.827737 0.573694 0.799627
O O3 0.798113 0.701888 0.000000
O O4 0.728114 0.570490 0.106907
O O5 0.873952 0.848827 0.582585
O O6 0.733808 0.858875 0.400663
O O7 0.843184 0.967644 0.340912
O O8 0.544734 0.218229 0.545250
O O9 0.568513 0.068513 0.500000
O O10 0.432740 0.139429 0.366423
#
# Coordination Sequence:
#
# PCOD9558139 Si02
#       5
#     8   8   8   8   4
#     4  11  21  36  65  87 123 163 202 248 313 377
#     4  10  23  39  61  88 117 160 202 257 305 366
#     4  10  22  40  60  89 121 156 205 251 309 367
#     4  10  20  38  61  88 123 163 191 245 305 363
#     4  10  21  38  62  86 120 155 206 244 296 368
#
# _framework density 18.905027
#
# number of rings (size 3 to 8) (size 9 to 14) (size 15 to 20)
#    0.000    1.778    2.222    1.667    3.111    7.556 
#    0.000    3.333    0.000    0.000    0.000    0.000 
#    0.000    0.000    0.000    0.000    0.000    0.000 
#
# Total GULP energy -200886.431132 kJ/mol
# GULP energy per Si atom -5580.178643 kJ/mol
# Density = 1.886200 g / cm^3
# Si number density = 18.905027 Si / 1000 Ang^3
#
#
#
# Elastic Constant Matrix: (Units=GPa)
#
#
# Indices 1 2 3 4 5 6 
#
# 1 94.2418 34.1463 33.6873 0.0000 0.0000 0.0000
# 2 34.1463 94.2395 33.6882 0.0000 0.0000 0.0000
# 3 33.6873 33.6882 113.0895 0.0000 0.0000 0.0000
# 4 0.0000 0.0000 0.0000 16.1891 0.0000 0.0000
# 5 0.0000 0.0000 0.0000 0.0000 16.1899 0.0000
# 6 0.0000 0.0000 0.0000 0.0000 0.0000 22.6156
#
#
#
# Elastic Compliance Matrix: (Units=1/GPa)
#
#
# Indices 1 2 3 4 5 6 
#
# 1 0.012936 -0.003704 -0.002750 0.000000 0.000000 0.000000
# 2 -0.003704 0.012937 -0.002750 0.000000 0.000000 0.000000
# 3 -0.002750 -0.002750 0.010481 0.000000 0.000000 0.000000
# 4 0.000000 0.000000 0.000000 0.061770 0.000000 0.000000
# 5 0.000000 0.000000 0.000000 0.000000 0.061767 0.000000
# 6 0.000000 0.000000 0.000000 0.000000 0.000000 0.044217
#
#
# Mechanical properties :
#
#
# Convention : Reuss Voigt Hill
#
# Bulk Modulus (GPa) = 55.72636 56.06827 55.89732
# Shear Modulus (GPa) = 21.88201 24.33552 23.10876
#
# Velocity S-wave (km/s) = 3.40585 3.59172 3.50002
# Velocity P-wave (km/s) = 6.70876 6.85003 6.77976
#
# Compressibility (1/GPa) = 0.01794483
#
# Stress axis : x y z
#
# Youngs Moduli (GPa) = 77.30293 77.30031 95.41064
#
# Poissons Ratio (x) = 0.28633 0.26238
# Poissons Ratio (y) = 0.28634 0.26241
# Poissons Ratio (z) = 0.21258 0.21260
#
# Static dielectric constant tensor:
#      x y z
#    x 1.669470 0.000000 0.000000 
#    y 0.000000 1.669470 0.000000 
#    z 0.000000 0.000000 1.619760 
# 
# From -- ./inp_files/568.got.cif
#   From: 2010.05.17/outbox.cif.g08.bks.cpg/sg117_1_cif.got.tgz:568.got - 2010.05.20 11:15:09.
