data_PCOD9558028
_publ_section_title
;
Structure prediction by ZEFSAII (Michael W. Deem and Ramdas Pophale) SiO2 
 PCOD9558028
Probable space group: P -4 C 2
;
_chemical_formula_sum "Si O2"
_cell_formula_units_Z 38
_cell_length_a 15.926291
_cell_length_b 15.926291
_cell_length_c 7.374759
_cell_angle_alpha 90.000000
_cell_angle_beta 90.000000
_cell_angle_gamma 90.000000
_cell_volume 1870.583616
_symmetry_space_group_name_H-M "P -4 C 2"
_symmetry_group_IT_number 116
_symmetry_cell_setting 'tetragonal'
loop_
_space_group_symop_operation_xyz
x,y,z
y,-x,-z
-x,-y,z
-y,x,-z
y,x,1/2-z
-y,-x,1/2-z
-x,y,1/2+z
x,-y,1/2+z
loop_
_atom_site_type_symbol
_atom_site_label
_atom_site_fract_x
_atom_site_fract_y
_atom_site_fract_z
Si Si1 0.942839 0.292525 0.126829
Si Si2 0.179421 0.909978 0.046310
Si Si3 0.554847 0.083930 0.094958
Si Si4 0.139445 0.611230 0.793657
Si Si5 0.224412 0.775589 0.750000
Si Si6 0.000000 0.000000 0.000000
O O1 0.900008 0.223371 0.258571
O O2 0.903439 0.404834 0.600098
O O3 0.912794 0.332331 0.936254
O O4 0.025296 0.239627 0.066957
O O5 0.184802 0.826654 0.921175
O O6 0.088236 0.955079 0.064414
O O7 0.482705 0.153394 0.131583
O O8 0.500000 0.000000 0.092673
O O9 0.625017 0.072216 0.246461
O O10 0.212794 0.676010 0.755437
#
# Coordination Sequence:
#
# PCOD9558028 Si02
#       6
#     8   8   8   8   4   2
#     4  12  26  43  67  97 133 184 241 306 359 416
#     4  12  26  44  64  95 135 191 255 299 349 405
#     4  12  24  41  69 101 133 176 231 299 372 442
#     4  12  26  43  67 101 137 177 229 291 375 442
#     4  12  26  45  64  98 142 185 234 290 358 438
#     4  12  28  46  68  94 134 208 274 298 336 398
#
# _framework density 20.314516000000001
#
# number of rings (size 3 to 8) (size 9 to 14) (size 15 to 20)
#    0.000    0.000    4.211    6.947    2.947    7.158 
#    0.000    0.000    0.000    0.000    0.000    0.000 
#    0.000    2.526    0.000    0.000    0.000    0.000 
#
# Total GULP energy -211811.582929 kJ/mol
# GULP energy per Si atom -5573.989024 kJ/mol
# Density = 2.026828 g / cm^3
# Si number density = 20.314516 Si / 1000 Ang^3
#
#
#
# Elastic Constant Matrix: (Units=GPa)
#
#
# Indices 1 2 3 4 5 6 
#
# 1 146.6117 48.4813 47.2233 0.0000 0.0000 0.0000
# 2 48.4813 146.6103 47.2231 0.0000 0.0000 0.0000
# 3 47.2233 47.2231 149.5092 0.0000 0.0000 0.0000
# 4 0.0000 0.0000 0.0000 26.2519 0.0000 0.0000
# 5 0.0000 0.0000 0.0000 0.0000 26.2519 0.0000
# 6 0.0000 0.0000 0.0000 0.0000 0.0000 30.0739
#
#
#
# Elastic Compliance Matrix: (Units=1/GPa)
#
#
# Indices 1 2 3 4 5 6 
#
# 1 0.008121 -0.002070 -0.001911 0.000000 0.000000 0.000000
# 2 -0.002070 0.008121 -0.001911 0.000000 0.000000 0.000000
# 3 -0.001911 -0.001911 0.007896 0.000000 0.000000 0.000000
# 4 0.000000 0.000000 0.000000 0.038092 0.000000 0.000000
# 5 0.000000 0.000000 0.000000 0.000000 0.038092 0.000000
# 6 0.000000 0.000000 0.000000 0.000000 0.000000 0.033251
#
#
# Mechanical properties :
#
#
# Convention : Reuss Voigt Hill
#
# Bulk Modulus (GPa) = 80.95211 80.95407 80.95309
# Shear Modulus (GPa) = 33.45017 36.50244 34.97630
#
# Velocity S-wave (km/s) = 4.06225 4.24354 4.15389
# Velocity P-wave (km/s) = 7.87010 7.99669 7.93365
#
# Compressibility (1/GPa) = 0.01235298
#
# Stress axis : x y z
#
# Youngs Moduli (GPa) = 123.14095 123.13975 126.64785
#
# Poissons Ratio (x) = 0.25487 0.24206
# Poissons Ratio (y) = 0.25487 0.24206
# Poissons Ratio (z) = 0.23535 0.23535
#
# Static dielectric constant tensor:
#      x y z
#    x 1.810790 0.000000 0.000000 
#    y 0.000000 1.810790 0.000000 
#    z 0.000000 0.000000 1.803170 
# 
# From -- ./inp_files/1832.got.cif
#   From: 2010.05.17/outbox.cif.g08.bks.cpg/sg116_1_cif.got.tgz:1832.got - 2010.05.20 11:11:43.
