data_PCOD9558341
_publ_section_title
;
Structure prediction by ZEFSAII (Michael W. Deem and Ramdas Pophale) SiO2 
 PCOD9558341
Probable space group: P -4 B 2
;
_chemical_formula_sum "Si O2"
_cell_formula_units_Z 18
_cell_length_a 8.181671
_cell_length_b 8.181671
_cell_length_c 10.321850
_cell_angle_alpha 90.000000
_cell_angle_beta 90.000000
_cell_angle_gamma 90.000000
_cell_volume 690.941959
_symmetry_space_group_name_H-M "P -4 B 2"
_symmetry_group_IT_number 117
_symmetry_cell_setting 'tetragonal'
loop_
_space_group_symop_operation_xyz
x,y,z
y,-x,-z
-x,-y,z
-y,x,-z
1/2+y,1/2+x,-z
1/2-y,1/2-x,-z
1/2-x,1/2+y,z
1/2+x,1/2-y,z
loop_
_atom_site_type_symbol
_atom_site_label
_atom_site_fract_x
_atom_site_fract_y
_atom_site_fract_z
Si Si1 0.849904 0.629029 0.853276
Si Si2 0.668384 0.435859 0.675448
Si Si3 0.500000 0.000000 0.500000
O O1 0.693148 0.531379 0.809073
O O2 0.862344 0.756626 0.734397
O O3 0.000000 0.500000 0.853116
O O4 0.817912 0.682088 0.000000
O O5 0.500000 0.500000 0.620530
O O6 0.830129 0.474464 0.586295
#
# Coordination Sequence:
#
# PCOD9558341 Si02
#       3
#     8   8   2
#     4  11  27  53  87 131 176 230 309 379 466 555
#     4  12  29  56  85 125 176 242 294 378 460 535
#     4  12  32  64  80 134 184 228 324 360 438 576
#
# _framework density 26.051396
#
# number of rings (size 3 to 8) (size 9 to 14) (size 15 to 20)
#    0.000    0.444    2.222    2.667   12.444    1.778 
#   16.000    0.000    0.000    0.000    0.000    0.000 
#    0.000    0.000    0.000    0.000    0.000    0.000 
#
# Total GULP energy -100248.738245 kJ/mol
# GULP energy per Si atom -5569.374347 kJ/mol
# Density = 2.599210 g / cm^3
# Si number density = 26.051396 Si / 1000 Ang^3
#
#
#
# Elastic Constant Matrix: (Units=GPa)
#
#
# Indices 1 2 3 4 5 6 
#
# 1 188.9204 55.7535 93.5283 0.0000 0.0000 0.0000
# 2 55.7535 188.9202 93.5281 0.0000 0.0000 0.0000
# 3 93.5283 93.5281 221.8879 0.0000 0.0000 0.0000
# 4 0.0000 0.0000 0.0000 29.6872 0.0000 0.0000
# 5 0.0000 0.0000 0.0000 0.0000 29.6876 0.0000
# 6 0.0000 0.0000 0.0000 0.0000 0.0000 34.3351
#
#
#
# Elastic Compliance Matrix: (Units=1/GPa)
#
#
# Indices 1 2 3 4 5 6 
#
# 1 0.006770 -0.000740 -0.002542 0.000000 0.000000 0.000000
# 2 -0.000740 0.006770 -0.002542 0.000000 0.000000 0.000000
# 3 -0.002542 -0.002542 0.006650 0.000000 0.000000 0.000000
# 4 0.000000 0.000000 0.000000 0.033685 0.000000 0.000000
# 5 0.000000 0.000000 0.000000 0.000000 0.033684 0.000000
# 6 0.000000 0.000000 0.000000 0.000000 0.000000 0.029125
#
#
# Mechanical properties :
#
#
# Convention : Reuss Voigt Hill
#
# Bulk Modulus (GPa) = 117.05632 120.59426 118.82529
# Shear Modulus (GPa) = 38.11649 42.53655 40.32652
#
# Velocity S-wave (km/s) = 3.82923 4.04517 3.93868
# Velocity P-wave (km/s) = 8.03624 8.25889 8.14832
#
# Compressibility (1/GPa) = 0.00854290
#
# Stress axis : x y z
#
# Youngs Moduli (GPa) = 147.71332 147.71323 150.38432
#
# Poissons Ratio (x) = 0.10924 0.38226
# Poissons Ratio (y) = 0.10924 0.38226
# Poissons Ratio (z) = 0.37547 0.37547
#
# Static dielectric constant tensor:
#      x y z
#    x 2.248590 0.000000 0.000000 
#    y 0.000000 2.248590 0.000000 
#    z 0.000000 0.000000 2.022120 
# 
# From -- ./inp_files/2192.got.cif
#   From: 2010.05.17/outbox.cif.g08.bks.cpg/sg117_2_cif.got.tgz:2192.got - 2010.05.20 11:15:09.
