data_PCOD9558351
_publ_section_title
;
Structure prediction by ZEFSAII (Michael W. Deem and Ramdas Pophale) SiO2 
 PCOD9558351
Probable space group: P -4 B 2
;
_chemical_formula_sum "Si O2"
_cell_formula_units_Z 36
_cell_length_a 10.441682
_cell_length_b 10.441682
_cell_length_c 12.254056
_cell_angle_alpha 90.000000
_cell_angle_beta 90.000000
_cell_angle_gamma 90.000000
_cell_volume 1336.044077
_symmetry_space_group_name_H-M "P -4 B 2"
_symmetry_group_IT_number 117
_symmetry_cell_setting 'tetragonal'
loop_
_space_group_symop_operation_xyz
x,y,z
y,-x,-z
-x,-y,z
-y,x,-z
1/2+y,1/2+x,-z
1/2-y,1/2-x,-z
1/2-x,1/2+y,z
1/2+x,1/2-y,z
loop_
_atom_site_type_symbol
_atom_site_label
_atom_site_fract_x
_atom_site_fract_y
_atom_site_fract_z
Si Si1 0.500000 0.500000 0.000000
Si Si2 0.470365 0.189006 0.582070
Si Si3 0.355992 0.440325 0.615450
Si Si4 0.535303 0.806696 0.812836
Si Si5 0.597162 0.679571 0.173647
Si Si6 0.000000 0.500000 0.000000
O O1 0.631469 0.486641 0.929113
O O2 0.408159 0.091842 0.500000
O O3 0.366799 0.289215 0.630360
O O4 0.548996 0.276918 0.497452
O O5 0.516349 0.135449 0.696533
O O6 0.500000 0.500000 0.610241
O O7 0.297086 0.511886 0.718273
O O8 0.452939 0.676196 0.810041
O O9 0.689696 0.820576 0.834606
O O10 0.486382 0.883595 0.916769
#
# Coordination Sequence:
#
# PCOD9558351 Si02
#       6
#     2   8   8   8   8   2
#     4  12  24  44  80 118 152 240 296 364 426 552
#     4  12  23  42  75 115 161 213 277 343 436 525
#     4  12  21  44  73 115 162 211 276 349 424 535
#     4  12  28  51  79 118 161 224 274 368 432 527
#     4  12  26  49  81 119 164 223 300 347 447 521
#     4  12  32  56  74 112 176 212 284 370 448 504
#
# _framework density 26.945219000000002
#
# number of rings (size 3 to 8) (size 9 to 14) (size 15 to 20)
#    0.000    0.000    7.778    1.333    0.000    6.222 
#    0.000    0.556    0.000    0.000    0.000    0.000 
#    0.000    0.000    0.000    0.000    0.000    0.000 
#
# Total GULP energy -201003.592976 kJ/mol
# GULP energy per Si atom -5583.433138 kJ/mol
# Density = 2.688389 g / cm^3
# Si number density = 26.945219 Si / 1000 Ang^3
#
#
#
# Elastic Constant Matrix: (Units=GPa)
#
#
# Indices 1 2 3 4 5 6 
#
# 1 91.1748 59.3893 47.4032 0.0000 0.0000 0.0000
# 2 59.3893 91.1757 47.4027 0.0000 0.0000 0.0000
# 3 47.4032 47.4027 220.1540 0.0000 0.0000 0.0000
# 4 0.0000 0.0000 0.0000 -6.4197 0.0000 0.0000
# 5 0.0000 0.0000 0.0000 0.0000 -6.4237 0.0000
# 6 0.0000 0.0000 0.0000 0.0000 0.0000 32.5254
#
#
#
# Elastic Compliance Matrix: (Units=1/GPa)
#
#
# Indices 1 2 3 4 5 6 
#
# 1 0.019572 -0.011889 -0.001654 0.000000 0.000000 0.000000
# 2 -0.011889 0.019572 -0.001654 0.000000 0.000000 0.000000
# 3 -0.001654 -0.001654 0.005255 0.000000 0.000000 0.000000
# 4 0.000000 0.000000 0.000000 -0.155771 0.000000 0.000000
# 5 0.000000 0.000000 0.000000 0.000000 -0.155673 0.000000
# 6 0.000000 0.000000 0.000000 0.000000 0.000000 0.030745
#
#
# Mechanical properties :
#
#
# Convention : Reuss Voigt Hill
#
# Bulk Modulus (GPa) = 71.40820 78.98832 75.19826
# Shear Modulus (GPa) = -24.84625 20.49036 -2.17795
#
# Velocity S-wave (km/s) = -3.03991 2.76061 -0.90002
# Velocity P-wave (km/s) = 3.77325 6.28803 5.18540
#
# Compressibility (1/GPa) = 0.01400399
#
# Stress axis : x y z
#
# Youngs Moduli (GPa) = 51.09326 51.09395 190.30582
#
# Poissons Ratio (x) = 0.60743 0.31485
# Poissons Ratio (y) = 0.60742 0.31482
# Poissons Ratio (z) = 0.08453 0.08452
#
# Static dielectric constant tensor:
#      x y z
#    x 2.396420 0.000000 0.000000 
#    y 0.000000 2.396400 0.000000 
#    z 0.000000 0.000000 2.401080 
# 
# From -- ./inp_files/2568.got.cif
#   From: 2010.05.17/outbox.cif.g08.bks.cpg/sg117_2_cif.got.tgz:2568.got - 2010.05.20 11:15:09.
