data_PCOD9558145
_publ_section_title
;
Structure prediction by ZEFSAII (Michael W. Deem and Ramdas Pophale) SiO2 
 PCOD9558145
Probable space group: P -4 B 2
;
_chemical_formula_sum "Si O2"
_cell_formula_units_Z 20
_cell_length_a 10.159928
_cell_length_b 10.159928
_cell_length_c 8.905010
_cell_angle_alpha 90.000000
_cell_angle_beta 90.000000
_cell_angle_gamma 90.000000
_cell_volume 919.211972
_symmetry_space_group_name_H-M "P -4 B 2"
_symmetry_group_IT_number 117
_symmetry_cell_setting 'tetragonal'
loop_
_space_group_symop_operation_xyz
x,y,z
y,-x,-z
-x,-y,z
-y,x,-z
1/2+y,1/2+x,-z
1/2-y,1/2-x,-z
1/2-x,1/2+y,z
1/2+x,1/2-y,z
loop_
_atom_site_type_symbol
_atom_site_label
_atom_site_fract_x
_atom_site_fract_y
_atom_site_fract_z
Si Si1 0.849592 0.140991 0.739459
Si Si2 0.500000 0.500000 0.000000
Si Si3 0.058999 0.366348 0.671704
Si Si4 0.500000 0.500000 0.500000
O O1 0.696996 0.177243 0.743878
O O2 0.879005 0.031949 0.610097
O O3 0.945844 0.258739 0.690496
O O4 0.901314 0.080070 0.893547
O O5 0.098346 0.401655 0.500000
O O6 0.000000 0.500000 0.740042
#
# Coordination Sequence:
#
# PCOD9558145 Si02
#       4
#     8   2   8   2
#     4  11  24  46  68 105 144 194 245 305 372 442
#     4  10  28  46  72  98 152 206 236 298 380 450
#     4  11  26  42  75 111 142 187 252 316 374 437
#     4  10  20  38  72  90 140 190 240 306 352 426
#
# _framework density 21.757767000000001
#
# number of rings (size 3 to 8) (size 9 to 14) (size 15 to 20)
#    0.000    1.200    4.000    0.000   16.800    1.600 
#    0.000    2.000    0.000    0.000    0.000    0.000 
#    0.000    0.000    0.000    0.000    0.000    0.000 
#
# Total GULP energy -111809.483082 kJ/mol
# GULP energy per Si atom -5590.474154 kJ/mol
# Density = 2.170825 g / cm^3
# Si number density = 21.757767 Si / 1000 Ang^3
#
#
#
# Elastic Constant Matrix: (Units=GPa)
#
#
# Indices 1 2 3 4 5 6 
#
# 1 144.9522 62.4115 38.1452 0.0000 0.0000 0.0000
# 2 62.4115 144.9523 38.1452 0.0000 0.0000 0.0000
# 3 38.1452 38.1452 87.1328 0.0000 0.0000 0.0000
# 4 0.0000 0.0000 0.0000 14.6625 0.0000 0.0000
# 5 0.0000 0.0000 0.0000 0.0000 14.6624 0.0000
# 6 0.0000 0.0000 0.0000 0.0000 0.0000 45.2709
#
#
#
# Elastic Compliance Matrix: (Units=1/GPa)
#
#
# Indices 1 2 3 4 5 6 
#
# 1 0.008932 -0.003183 -0.002516 0.000000 0.000000 0.000000
# 2 -0.003183 0.008932 -0.002516 0.000000 0.000000 0.000000
# 3 -0.002516 -0.002516 0.013680 0.000000 0.000000 0.000000
# 4 0.000000 0.000000 0.000000 0.068201 0.000000 0.000000
# 5 0.000000 0.000000 0.000000 0.000000 0.068201 0.000000
# 6 0.000000 0.000000 0.000000 0.000000 0.000000 0.022089
#
#
# Mechanical properties :
#
#
# Convention : Reuss Voigt Hill
#
# Bulk Modulus (GPa) = 66.17844 72.71569 69.44706
# Shear Modulus (GPa) = 23.64005 30.80819 27.22412
#
# Velocity S-wave (km/s) = 3.29980 3.76701 3.54112
# Velocity P-wave (km/s) = 6.70823 7.23972 6.97904
#
# Compressibility (1/GPa) = 0.01511066
#
# Stress axis : x y z
#
# Youngs Moduli (GPa) = 111.96012 111.96011 73.09900
#
# Poissons Ratio (x) = 0.35642 0.18395
# Poissons Ratio (y) = 0.35642 0.18395
# Poissons Ratio (z) = 0.28175 0.28175
#
# Static dielectric constant tensor:
#      x y z
#    x 1.829070 0.000000 0.000000 
#    y 0.000000 1.829060 0.000000 
#    z 0.000000 0.000000 1.790350 
# 
# From -- ./inp_files/1169.got.cif
#   From: 2010.05.17/outbox.cif.g08.bks.cpg/sg117_1_cif.got.tgz:1169.got - 2010.05.20 11:15:09.
