data_PCOD9558483
_publ_section_title
;
Structure prediction by ZEFSAII (Michael W. Deem and Ramdas Pophale) SiO2 
 PCOD9558483
Probable space group: P -4 N 2
;
_chemical_formula_sum "Si O2"
_cell_formula_units_Z 48
_cell_length_a 11.938475
_cell_length_b 11.938475
_cell_length_c 17.689904
_cell_angle_alpha 90.000000
_cell_angle_beta 90.000000
_cell_angle_gamma 90.000000
_cell_volume 2521.292226
_symmetry_space_group_name_H-M "P -4 N 2"
_symmetry_group_IT_number 118
_symmetry_cell_setting 'tetragonal'
loop_
_space_group_symop_operation_xyz
x,y,z
y,-x,-z
-x,-y,z
-y,x,-z
1/2+y,1/2+x,1/2-z
1/2-y,1/2-x,1/2-z
1/2-x,1/2+y,1/2+z
1/2+x,1/2-y,1/2+z
loop_
_atom_site_type_symbol
_atom_site_label
_atom_site_fract_x
_atom_site_fract_y
_atom_site_fract_z
Si Si1 0.187827 0.505428 0.750000
Si Si2 0.258341 0.051323 0.559696
Si Si3 0.948676 0.258341 0.059696
Si Si4 0.078437 0.230107 0.905121
Si Si5 0.096715 0.403286 0.336613
Si Si6 0.730106 0.578437 0.905121
O O1 0.121947 0.621947 0.750000
O O2 0.256375 0.486907 0.673319
O O3 0.256375 0.486907 0.826681
O O4 0.092293 0.407708 0.750000
O O5 0.359732 0.140267 0.551576
O O6 0.153845 0.119340 0.592319
O O7 0.301093 0.955804 0.616625
O O8 0.232803 0.000449 0.477992
O O9 0.880659 0.153845 0.092319
O O10 0.044194 0.301093 0.116626
O O11 0.999551 0.232805 0.977992
O O12 0.164433 0.335568 0.911460
O O13 0.123980 0.376021 0.250000
O O14 0.000000 0.500000 0.334895
#
# Coordination Sequence:
#
# PCOD9558483 Si02
#       6
#     8   8   8   8   8   8
#     4   9  18  32  56  86 117 151 196 248 287 337
#     4  10  20  34  57  81 114 152 191 238 285 347
#     4  10  20  34  57  81 114 152 191 238 285 347
#     4  10  20  34  55  83 114 150 196 237 291 344
#     4   9  18  32  56  85 111 148 193 235 285 338
#     4  10  20  34  55  83 114 150 196 237 291 344
#
# _framework density 19.037858
#
# number of rings (size 3 to 8) (size 9 to 14) (size 15 to 20)
#    0.000    2.333    1.667    1.000    2.333    2.000 
#    0.000    0.000    3.667    2.000    0.000    0.000 
#    0.000    0.000    0.000    0.000    0.000    0.000 
#
# Total GULP energy -268021.280936 kJ/mol
# GULP energy per Si atom -5583.776686 kJ/mol
# Density = 1.899453 g / cm^3
# Si number density = 19.037858 Si / 1000 Ang^3
#
#
#
# Elastic Constant Matrix: (Units=GPa)
#
#
# Indices 1 2 3 4 5 6 
#
# 1 79.3636 54.3992 82.1766 0.0000 0.0000 0.0000
# 2 54.3992 79.3635 82.1765 0.0000 0.0000 0.0000
# 3 82.1766 82.1765 216.2257 0.0000 0.0000 0.0000
# 4 0.0000 0.0000 0.0000 9.2293 0.0000 0.0000
# 5 0.0000 0.0000 0.0000 0.0000 9.2301 0.0000
# 6 0.0000 0.0000 0.0000 0.0000 0.0000 6.3314
#
#
#
# Elastic Compliance Matrix: (Units=1/GPa)
#
#
# Indices 1 2 3 4 5 6 
#
# 1 0.027041 -0.013016 -0.005330 0.000000 0.000000 0.000000
# 2 -0.013016 0.027041 -0.005330 0.000000 0.000000 0.000000
# 3 -0.005330 -0.005330 0.008676 0.000000 0.000000 0.000000
# 4 0.000000 0.000000 0.000000 0.108350 0.000000 0.000000
# 5 0.000000 0.000000 0.000000 0.000000 0.108341 0.000000
# 6 0.000000 0.000000 0.000000 0.000000 0.000000 0.157942
#
#
# Mechanical properties :
#
#
# Convention : Reuss Voigt Hill
#
# Bulk Modulus (GPa) = 64.91141 90.27305 77.59223
# Shear Modulus (GPa) = 10.20658 15.37155 12.78906
#
# Velocity S-wave (km/s) = 2.31794 2.84460 2.59466
# Velocity P-wave (km/s) = 6.42913 7.63607 7.05845
#
# Compressibility (1/GPa) = 0.01540561
#
# Stress axis : x y z
#
# Youngs Moduli (GPa) = 36.98069 36.98072 115.25615
#
# Poissons Ratio (x) = 0.48134 0.61435
# Poissons Ratio (y) = 0.48134 0.61434
# Poissons Ratio (z) = 0.19712 0.19712
#
# Static dielectric constant tensor:
#      x y z
#    x 1.654320 0.000000 0.000000 
#    y 0.000000 1.654320 0.000000 
#    z 0.000000 0.000000 1.615980 
# 
# From -- ./inp_files/4917.got.cif
#   From: 2010.05.17/outbox.cif.g08.bks.cpg/sg118_3_cif.got.tgz:4917.got - 2010.05.20 11:17:24.
