data_PCOD9558388
_publ_section_title
;
Structure prediction by ZEFSAII (Michael W. Deem and Ramdas Pophale) SiO2 
 PCOD9558388
Probable space group: P -4 N 2
;
_chemical_formula_sum "Si O2"
_cell_formula_units_Z 36
_cell_length_a 14.810880
_cell_length_b 14.810880
_cell_length_c 8.724809
_cell_angle_alpha 90.000000
_cell_angle_beta 90.000000
_cell_angle_gamma 90.000000
_cell_volume 1913.893003
_symmetry_space_group_name_H-M "P -4 N 2"
_symmetry_group_IT_number 118
_symmetry_cell_setting 'tetragonal'
loop_
_space_group_symop_operation_xyz
x,y,z
y,-x,-z
-x,-y,z
-y,x,-z
1/2+y,1/2+x,1/2-z
1/2-y,1/2-x,1/2-z
1/2-x,1/2+y,1/2+z
1/2+x,1/2-y,1/2+z
loop_
_atom_site_type_symbol
_atom_site_label
_atom_site_fract_x
_atom_site_fract_y
_atom_site_fract_z
Si Si1 0.419413 0.933555 0.936506
Si Si2 0.040858 0.759821 0.042479
Si Si3 0.286833 0.213168 0.750000
Si Si4 0.242691 0.336190 0.021082
Si Si5 0.134710 0.166695 0.173827
O O1 0.422392 0.922392 0.750000
O O2 0.415653 0.831000 0.996960
O O3 0.500000 0.000000 0.979364
O O4 0.329606 0.983877 0.993385
O O5 0.121421 0.724556 0.153139
O O6 0.969346 0.825870 0.124369
O O7 0.083410 0.811704 0.898520
O O8 0.202428 0.219169 0.635216
O O9 0.185239 0.253612 0.097268
O O10 0.318724 0.359158 0.144927
#
# Coordination Sequence:
#
# PCOD9558388 Si02
#       5
#     8   8   4   8   8
#     4  10  17  31  61  87 114 143 192 243 298 367
#     4  10  19  33  56  85 107 157 196 243 294 369
#     4  10  20  32  56  78 114 152 200 234 312 358
#     4   9  17  35  53  80 116 150 183 244 301 358
#     4   9  18  34  56  77 113 151 198 235 294 365
#
# _framework density 18.809829000000001
#
# number of rings (size 3 to 8) (size 9 to 14) (size 15 to 20)
#    0.000    2.444    4.444    1.333    0.000    0.444 
#    0.000    7.222   29.333    0.000    0.000    0.000 
#    0.000    0.000    0.000    0.000    0.000    0.000 
#
# Total GULP energy -200530.935781 kJ/mol
# GULP energy per Si atom -5570.303772 kJ/mol
# Density = 1.876702 g / cm^3
# Si number density = 18.809829 Si / 1000 Ang^3
#
#
#
# Elastic Constant Matrix: (Units=GPa)
#
#
# Indices 1 2 3 4 5 6 
#
# 1 64.8608 41.3701 34.8142 0.0000 0.0000 0.0000
# 2 41.3701 64.8619 34.8143 0.0000 0.0000 0.0000
# 3 34.8142 34.8143 63.2951 0.0000 0.0000 0.0000
# 4 0.0000 0.0000 0.0000 13.3647 0.0000 0.0000
# 5 0.0000 0.0000 0.0000 0.0000 13.3644 0.0000
# 6 0.0000 0.0000 0.0000 0.0000 0.0000 27.7957
#
#
#
# Elastic Compliance Matrix: (Units=1/GPa)
#
#
# Indices 1 2 3 4 5 6 
#
# 1 0.028645 -0.013924 -0.008097 0.000000 0.000000 0.000000
# 2 -0.013924 0.028644 -0.008096 0.000000 0.000000 0.000000
# 3 -0.008097 -0.008096 0.024706 0.000000 0.000000 0.000000
# 4 0.000000 0.000000 0.000000 0.074824 0.000000 0.000000
# 5 0.000000 0.000000 0.000000 0.000000 0.074826 0.000000
# 6 0.000000 0.000000 0.000000 0.000000 0.000000 0.035977
#
#
# Mechanical properties :
#
#
# Convention : Reuss Voigt Hill
#
# Bulk Modulus (GPa) = 45.95610 46.11278 46.03444
# Shear Modulus (GPa) = 14.92048 16.37291 15.64670
#
# Velocity S-wave (km/s) = 2.81949 2.95353 2.88729
# Velocity P-wave (km/s) = 5.92320 6.01661 5.97009
#
# Compressibility (1/GPa) = 0.02175989
#
# Stress axis : x y z
#
# Youngs Moduli (GPa) = 34.91016 34.91092 40.47633
#
# Poissons Ratio (x) = 0.48611 0.32773
# Poissons Ratio (y) = 0.48610 0.32772
# Poissons Ratio (z) = 0.28266 0.28266
#
# Static dielectric constant tensor:
#      x y z
#    x 1.678560 0.000000 0.000000 
#    y 0.000000 1.678560 0.000000 
#    z 0.000000 0.000000 1.658410 
# 
# From -- ./inp_files/1750.got.cif
#   From: 2010.05.17/outbox.cif.g08.bks.cpg/sg118_1_cif.got.tgz:1750.got - 2010.05.20 11:17:24.
