data_PCOD9558086
_publ_section_title
;
Structure prediction by ZEFSAII (Michael W. Deem and Ramdas Pophale) SiO2 
 PCOD9558086
Probable space group: P -4 B 2
;
_chemical_formula_sum "Si O2"
_cell_formula_units_Z 40
_cell_length_a 14.444631
_cell_length_b 14.444631
_cell_length_c 8.739992
_cell_angle_alpha 90.000000
_cell_angle_beta 90.000000
_cell_angle_gamma 90.000000
_cell_volume 1823.576299
_symmetry_space_group_name_H-M "P -4 B 2"
_symmetry_group_IT_number 117
_symmetry_cell_setting 'tetragonal'
loop_
_space_group_symop_operation_xyz
x,y,z
y,-x,-z
-x,-y,z
-y,x,-z
1/2+y,1/2+x,-z
1/2-y,1/2-x,-z
1/2-x,1/2+y,z
1/2+x,1/2-y,z
loop_
_atom_site_type_symbol
_atom_site_label
_atom_site_fract_x
_atom_site_fract_y
_atom_site_fract_z
Si Si1 0.554327 0.359497 0.000314
Si Si2 0.381414 0.110383 0.818618
Si Si3 0.263363 0.294952 0.172835
Si Si4 0.995843 0.352561 0.554796
Si Si5 0.436380 0.780600 0.281509
O O1 0.549870 0.296600 0.151761
O O2 0.451245 0.388358 0.957343
O O3 0.609076 0.314772 0.858675
O O4 0.289152 0.169924 0.778707
O O5 0.471362 0.151778 0.733322
O O6 0.363469 0.003677 0.774374
O O7 0.388452 0.111549 0.000000
O O8 0.172598 0.302120 0.276926
O O9 0.230210 0.269791 0.000000
O O10 0.898337 0.398337 0.500000
O O11 0.073554 0.426447 0.500000
O O12 0.024953 0.264471 0.453308
#
# Coordination Sequence:
#
# PCOD9558086 Si02
#       5
#     8   8   8   8   8
#     4  10  19  34  60  96 140 181 236 307 346 418
#     4  10  20  38  67  94 134 177 228 293 348 421
#     4   9  19  35  59  98 131 172 236 291 352 416
#     4   9  20  39  60  89 133 168 212 279 351 425
#     4  10  20  38  62  93 132 172 222 281 358 419
#
# _framework density 21.934919000000001
#
# number of rings (size 3 to 8) (size 9 to 14) (size 15 to 20)
#    0.000    2.400    2.000    0.000    0.000    4.800 
#    0.000   10.000    4.400    0.000    0.000    0.000 
#    0.000    0.000    0.000    0.000    0.000    0.000 
#
# Total GULP energy -223012.318010 kJ/mol
# GULP energy per Si atom -5575.307950 kJ/mol
# Density = 2.188499 g / cm^3
# Si number density = 21.934919 Si / 1000 Ang^3
#
#
#
# Elastic Constant Matrix: (Units=GPa)
#
#
# Indices 1 2 3 4 5 6 
#
# 1 -17.9684 156.0412 52.4419 0.0000 0.0000 0.0000
# 2 156.0412 -17.9772 52.4385 0.0000 0.0000 0.0000
# 3 52.4419 52.4385 123.8571 0.0000 0.0000 0.0000
# 4 0.0000 0.0000 0.0000 35.4642 0.0000 0.0000
# 5 0.0000 0.0000 0.0000 0.0000 35.4641 0.0000
# 6 0.0000 0.0000 0.0000 0.0000 0.0000 17.8100
#
#
#
# Elastic Compliance Matrix: (Units=1/GPa)
#
#
# Indices 1 2 3 4 5 6 
#
# 1 0.002465 0.008212 -0.004520 0.000000 0.000000 0.000000
# 2 0.008212 0.002465 -0.004520 0.000000 0.000000 0.000000
# 3 -0.004520 -0.004520 0.011902 0.000000 0.000000 0.000000
# 4 0.000000 0.000000 0.000000 0.028197 0.000000 0.000000
# 5 0.000000 0.000000 0.000000 0.000000 0.028197 0.000000
# 6 0.000000 0.000000 0.000000 0.000000 0.000000 0.056148
#
#
# Mechanical properties :
#
#
# Convention : Reuss Voigt Hill
#
# Bulk Modulus (GPa) = 65.90551 67.75055 66.82803
# Shear Modulus (GPa) = 36.74021 6.21367 21.47694
#
# Velocity S-wave (km/s) = 4.09707 1.68491 3.13249
# Velocity P-wave (km/s) = 7.24517 5.89401 6.60424
#
# Compressibility (1/GPa) = 0.01517324
#
# Stress axis : x y z
#
# Youngs Moduli (GPa) = 405.65485 405.71452 84.02212
#
# Poissons Ratio (x) = -3.33158 0.37981
# Poissons Ratio (y) = -3.33109 0.37981
# Poissons Ratio (z) = 1.83372 1.83399
#
# Static dielectric constant tensor:
#      x y z
#    x 1.838570 0.000000 0.000000 
#    y 0.000000 1.838570 0.000000 
#    z 0.000000 0.000000 1.979180 
# 
# From -- ./inp_files/1718.got.cif
#   From: 2010.05.17/outbox.cif.g08.bks.cpg/sg117_1_cif.got.tgz:1718.got - 2010.05.20 11:15:09.
