data_PCOD9558804
_publ_section_title
;
Structure prediction by ZEFSAII (Michael W. Deem and Ramdas Pophale) SiO2 
 PCOD9558804
Probable space group: P -4 N 2
;
_chemical_formula_sum "Si O2"
_cell_formula_units_Z 40
_cell_length_a 16.083367
_cell_length_b 16.083367
_cell_length_c 8.368247
_cell_angle_alpha 90.000000
_cell_angle_beta 90.000000
_cell_angle_gamma 90.000000
_cell_volume 2164.653733
_symmetry_space_group_name_H-M "P -4 N 2"
_symmetry_group_IT_number 118
_symmetry_cell_setting 'tetragonal'
loop_
_space_group_symop_operation_xyz
x,y,z
y,-x,-z
-x,-y,z
-y,x,-z
1/2+y,1/2+x,1/2-z
1/2-y,1/2-x,1/2-z
1/2-x,1/2+y,1/2+z
1/2+x,1/2-y,1/2+z
loop_
_atom_site_type_symbol
_atom_site_label
_atom_site_fract_x
_atom_site_fract_y
_atom_site_fract_z
Si Si1 0.439749 0.197164 0.943997
Si Si2 0.302837 0.060251 0.943997
Si Si3 0.049656 0.881992 0.935824
Si Si4 0.118008 0.049656 0.435824
Si Si5 0.071472 0.428528 0.064946
O O1 0.362941 0.137059 0.987450
O O2 0.443314 0.199391 0.750000
O O3 0.524719 0.151814 0.003417
O O4 0.430934 0.289083 0.009952
O O5 0.348186 0.975281 0.003418
O O6 0.210917 0.069065 0.009953
O O7 0.068868 0.893650 0.750000
O O8 0.952392 0.901103 0.966759
O O9 0.047608 0.098897 0.533240
O O10 0.090998 0.409003 0.250000
O O11 0.000000 0.500000 0.066758
#
# Coordination Sequence:
#
# PCOD9558804 Si02
#       5
#     8   8   8   8   8
#     4   9  17  33  57  84 113 143 178 221 268 320
#     4   9  17  33  57  84 113 143 178 221 268 320
#     4  11  22  38  58  78 105 143 185 226 275 325
#     4  11  22  38  58  78 105 143 185 226 275 325
#     4   7  12  26  51  79 107 141 173 206 257 314
#
# _framework density 18.478708000000001
#
# number of rings (size 3 to 8) (size 9 to 14) (size 15 to 20)
#    0.000    2.600    0.000    7.200    0.000    0.800 
#    3.600    1.000    0.000    3.600    0.000    0.000 
#    0.000    0.000    0.000    0.000    0.000    0.000 
#
# Total GULP energy -222963.005990 kJ/mol
# GULP energy per Si atom -5574.075150 kJ/mol
# Density = 1.843665 g / cm^3
# Si number density = 18.478708 Si / 1000 Ang^3
#
#
#
# Elastic Constant Matrix: (Units=GPa)
#
#
# Indices 1 2 3 4 5 6 
#
# 1 73.0059 22.4963 -0.7557 0.0000 0.0000 0.0000
# 2 22.4963 73.0052 -0.7556 0.0000 0.0000 0.0000
# 3 -0.7557 -0.7556 21.9174 0.0000 0.0000 0.0000
# 4 0.0000 0.0000 0.0000 17.3250 0.0000 0.0000
# 5 0.0000 0.0000 0.0000 0.0000 17.3251 0.0000
# 6 0.0000 0.0000 0.0000 0.0000 0.0000 8.7744
#
#
#
# Elastic Compliance Matrix: (Units=1/GPa)
#
#
# Indices 1 2 3 4 5 6 
#
# 1 0.015137 -0.004661 0.000361 0.000000 0.000000 0.000000
# 2 -0.004661 0.015138 0.000361 0.000000 0.000000 0.000000
# 3 0.000361 0.000361 0.045651 0.000000 0.000000 0.000000
# 4 0.000000 0.000000 0.000000 0.057720 0.000000 0.000000
# 5 0.000000 0.000000 0.000000 0.000000 0.057720 0.000000
# 6 0.000000 0.000000 0.000000 0.000000 0.000000 0.113968
#
#
# Mechanical properties :
#
#
# Convention : Reuss Voigt Hill
#
# Bulk Modulus (GPa) = 14.69529 23.32204 19.00866
# Shear Modulus (GPa) = 14.88570 18.48115 16.68343
#
# Velocity S-wave (km/s) = 2.84132 3.16592 3.00800
# Velocity P-wave (km/s) = 4.32827 5.10024 4.73003
#
# Compressibility (1/GPa) = 0.06804902
#
# Stress axis : x y z
#
# Youngs Moduli (GPa) = 66.06126 66.06062 21.90547
#
# Poissons Ratio (x) = 0.30790 -0.00791
# Poissons Ratio (y) = 0.30790 -0.00791
# Poissons Ratio (z) = -0.02387 -0.02386
#
# Static dielectric constant tensor:
#      x y z
#    x 1.636160 0.000000 0.000000 
#    y 0.000000 1.636160 0.000000 
#    z 0.000000 0.000000 1.637490 
# 
# From -- ./inp_files/1900.got.cif
#   From: 2010.05.17/outbox.cif.g08.bks.cpg/sg118_1_cif.got.tgz:1900.got - 2010.05.20 11:17:24.
