data_PCOD9558419
_publ_section_title
;
Structure prediction by ZEFSAII (Michael W. Deem and Ramdas Pophale) SiO2 
 PCOD9558419
Probable space group: P -4 N 2
;
_chemical_formula_sum "Si O2"
_cell_formula_units_Z 34
_cell_length_a 9.321872
_cell_length_b 9.321872
_cell_length_c 14.393765
_cell_angle_alpha 90.000000
_cell_angle_beta 90.000000
_cell_angle_gamma 90.000000
_cell_volume 1250.779281
_symmetry_space_group_name_H-M "P -4 N 2"
_symmetry_group_IT_number 118
_symmetry_cell_setting 'tetragonal'
loop_
_space_group_symop_operation_xyz
x,y,z
y,-x,-z
-x,-y,z
-y,x,-z
1/2+y,1/2+x,1/2-z
1/2-y,1/2-x,1/2-z
1/2-x,1/2+y,1/2+z
1/2+x,1/2-y,1/2+z
loop_
_atom_site_type_symbol
_atom_site_label
_atom_site_fract_x
_atom_site_fract_y
_atom_site_fract_z
Si Si1 0.182351 0.456744 0.842513
Si Si2 0.555256 0.281016 0.637434
Si Si3 0.000000 0.000000 0.500000
Si Si4 0.177328 0.932991 0.663810
Si Si5 0.281208 0.013897 0.060818
O O1 0.107893 0.392107 0.750000
O O2 0.331781 0.535802 0.819889
O O3 0.105555 0.593173 0.891466
O O4 0.148933 0.327978 0.914318
O O5 0.684157 0.165935 0.649350
O O6 0.486069 0.294918 0.739049
O O7 0.467550 0.228637 0.549039
O O8 0.636383 0.426726 0.605917
O O9 0.862010 0.992921 0.566684
#
# Coordination Sequence:
#
# PCOD9558419 Si02
#       5
#     8   8   2   8   8
#     4  10  18  37  65  88 109 169 219 244 287 382
#     4  10  21  37  56  84 122 155 199 249 308 357
#     4  12  24  40  64  90 124 160 200 264 324 362
#     4  10  22  39  59  86 122 159 199 253 308 365
#     4  10  19  31  59  88 114 151 201 251 300 356
#
# _framework density 27.183055
#
# number of rings (size 3 to 8) (size 9 to 14) (size 15 to 20)
#    0.000    1.882    2.353    2.824    3.294    2.353 
#    0.000    0.000    0.000   33.882    0.000    0.000 
#    0.000    0.000    0.000    0.000    0.000    0.000 
#
# Total GULP energy -189951.574350 kJ/mol
# GULP energy per Si atom -5586.811010 kJ/mol
# Density = 2.712119 g / cm^3
# Si number density = 27.183055 Si / 1000 Ang^3
#
#
#
# Elastic Constant Matrix: (Units=GPa)
#
#
# Indices 1 2 3 4 5 6 
#
# 1 67.0990 21.1691 37.8728 0.0000 0.0000 0.0000
# 2 21.1691 67.0990 37.8732 0.0000 0.0000 0.0000
# 3 37.8728 37.8732 235.6913 0.0000 0.0000 0.0000
# 4 0.0000 0.0000 0.0000 39.1984 0.0000 0.0000
# 5 0.0000 0.0000 0.0000 0.0000 39.1984 0.0000
# 6 0.0000 0.0000 0.0000 0.0000 0.0000 35.2656
#
#
#
# Elastic Compliance Matrix: (Units=1/GPa)
#
#
# Indices 1 2 3 4 5 6 
#
# 1 0.017457 -0.004316 -0.002112 0.000000 0.000000 0.000000
# 2 -0.004316 0.017457 -0.002112 0.000000 0.000000 0.000000
# 3 -0.002112 -0.002112 0.004921 0.000000 0.000000 0.000000
# 4 0.000000 0.000000 0.000000 0.025511 0.000000 0.000000
# 5 0.000000 0.000000 0.000000 0.000000 0.025511 0.000000
# 6 0.000000 0.000000 0.000000 0.000000 0.000000 0.028356
#
#
# Mechanical properties :
#
#
# Convention : Reuss Voigt Hill
#
# Bulk Modulus (GPa) = 43.94200 62.63551 53.28875
# Shear Modulus (GPa) = 34.75185 40.93074 37.84130
#
# Velocity S-wave (km/s) = 3.57940 3.88460 3.73512
# Velocity P-wave (km/s) = 5.76916 6.57361 6.18448
#
# Compressibility (1/GPa) = 0.02275727
#
# Stress axis : x y z
#
# Youngs Moduli (GPa) = 57.28450 57.28436 203.19113
#
# Poissons Ratio (x) = 0.24721 0.42906
# Poissons Ratio (y) = 0.24721 0.42907
# Poissons Ratio (z) = 0.12096 0.12097
#
# Static dielectric constant tensor:
#      x y z
#    x 2.248910 0.000000 0.000000 
#    y 0.000000 2.248910 0.000000 
#    z 0.000000 0.000000 2.115110 
# 
# From -- ./inp_files/3019.got.cif
#   From: 2010.05.17/outbox.cif.g08.bks.cpg/sg118_2_cif.got.tgz:3019.got - 2010.05.20 11:17:24.
