data_PCOD9558318
_publ_section_title
;
Structure prediction by ZEFSAII (Michael W. Deem and Ramdas Pophale) SiO2 
 PCOD9558318
Probable space group: P -4 B 2
;
_chemical_formula_sum "Si O2"
_cell_formula_units_Z 40
_cell_length_a 8.973228
_cell_length_b 8.973228
_cell_length_c 20.106308
_cell_angle_alpha 90.000000
_cell_angle_beta 90.000000
_cell_angle_gamma 90.000000
_cell_volume 1618.936210
_symmetry_space_group_name_H-M "P -4 B 2"
_symmetry_group_IT_number 117
_symmetry_cell_setting 'tetragonal'
loop_
_space_group_symop_operation_xyz
x,y,z
y,-x,-z
-x,-y,z
-y,x,-z
1/2+y,1/2+x,-z
1/2-y,1/2-x,-z
1/2-x,1/2+y,z
1/2+x,1/2-y,z
loop_
_atom_site_type_symbol
_atom_site_label
_atom_site_fract_x
_atom_site_fract_y
_atom_site_fract_z
Si Si1 0.820312 0.588422 0.427731
Si Si2 0.540693 0.717620 0.021093
Si Si3 0.646439 0.091202 0.851393
Si Si4 0.593735 0.766155 0.376384
Si Si5 0.106929 0.856860 0.231965
O O1 0.891468 0.608533 0.500000
O O2 0.653422 0.647961 0.429512
O O3 0.836835 0.426062 0.396197
O O4 0.919200 0.700074 0.381942
O O5 0.433554 0.750266 0.083742
O O6 0.654613 0.579178 0.032414
O O7 0.639787 0.860214 0.000000
O O8 0.622931 0.251682 0.817322
O O9 0.500000 0.000000 0.869925
O O10 0.723474 0.991652 0.795741
O O11 0.642189 0.695369 0.306467
O O12 0.000000 0.000000 0.232777
#
# Coordination Sequence:
#
# PCOD9558318 Si02
#       5
#     8   8   8   8   8
#     4  11  24  46  74 113 157 206 261 331 403 484
#     4  11  28  51  84 123 164 212 269 333 405 487
#     4  12  29  50  83 117 163 218 270 339 409 487
#     4  11  26  44  75 109 151 206 262 326 401 477
#     4  12  29  51  79 116 160 214 278 341 412 498
#
# _framework density 24.707581999999999
#
# number of rings (size 3 to 8) (size 9 to 14) (size 15 to 20)
#    0.000    0.600    0.000    6.000   19.600    0.000 
#    0.000    2.000    0.000    0.000    0.000    0.000 
#    0.000    0.000    0.000    0.000    0.000    0.000 
#
# Total GULP energy -223737.891538 kJ/mol
# GULP energy per Si atom -5593.447288 kJ/mol
# Density = 2.465135 g / cm^3
# Si number density = 24.707582 Si / 1000 Ang^3
#
#
#
# Elastic Constant Matrix: (Units=GPa)
#
#
# Indices 1 2 3 4 5 6 
#
# 1 117.8277 75.8380 51.0943 0.0000 0.0000 0.0000
# 2 75.8380 117.8272 51.0944 0.0000 0.0000 0.0000
# 3 51.0943 51.0944 124.3325 0.0000 0.0000 0.0000
# 4 0.0000 0.0000 0.0000 35.7690 0.0000 0.0000
# 5 0.0000 0.0000 0.0000 0.0000 35.7686 0.0000
# 6 0.0000 0.0000 0.0000 0.0000 0.0000 62.0576
#
#
#
# Elastic Compliance Matrix: (Units=1/GPa)
#
#
# Indices 1 2 3 4 5 6 
#
# 1 0.015204 -0.008611 -0.002709 0.000000 0.000000 0.000000
# 2 -0.008611 0.015204 -0.002710 0.000000 0.000000 0.000000
# 3 -0.002709 -0.002710 0.010270 0.000000 0.000000 0.000000
# 4 0.000000 0.000000 0.000000 0.027957 0.000000 0.000000
# 5 0.000000 0.000000 0.000000 0.000000 0.027957 0.000000
# 6 0.000000 0.000000 0.000000 0.000000 0.000000 0.016114
#
#
# Mechanical properties :
#
#
# Convention : Reuss Voigt Hill
#
# Bulk Modulus (GPa) = 79.24941 79.56007 79.40474
# Shear Modulus (GPa) = 34.48903 38.84976 36.66939
#
# Velocity S-wave (km/s) = 3.74021 3.96963 3.85663
# Velocity P-wave (km/s) = 7.12719 7.29940 7.21381
#
# Compressibility (1/GPa) = 0.01261839
#
# Stress axis : x y z
#
# Youngs Moduli (GPa) = 65.77074 65.77037 97.37222
#
# Poissons Ratio (x) = 0.56636 0.26383
# Poissons Ratio (y) = 0.56636 0.26383
# Poissons Ratio (z) = 0.17820 0.17820
#
# Static dielectric constant tensor:
#      x y z
#    x 1.694840 0.000000 0.000000 
#    y 0.000000 1.694840 0.000000 
#    z 0.000000 0.000000 2.040860 
# 
# From -- ./inp_files/3528.got.cif
#   From: 2010.05.17/outbox.cif.g08.bks.cpg/sg117_2_cif.got.tgz:3528.got - 2010.05.20 11:15:09.
