data_PCOD9558950
_publ_section_title
;
Structure prediction by ZEFSAII (Michael W. Deem and Ramdas Pophale) SiO2 
 PCOD9558950
Probable space group: I -4 M 2
;
_chemical_formula_sum "Si O2"
_cell_formula_units_Z 104
_cell_length_a 21.327572
_cell_length_b 21.327572
_cell_length_c 14.062894
_cell_angle_alpha 90.000000
_cell_angle_beta 90.000000
_cell_angle_gamma 90.000000
_cell_volume 6396.722884
_symmetry_space_group_name_H-M "I -4 M 2"
_symmetry_group_IT_number 119
_symmetry_cell_setting 'tetragonal'
loop_
_space_group_symop_operation_xyz
x,y,z
y,-x,-z
-x,-y,z
-y,x,-z
y,x,-z
-y,-x,-z
-x,y,z
x,-y,z
1/2+x,1/2+y,1/2+z
1/2+y,1/2-x,1/2-z
1/2-x,1/2-y,1/2+z
1/2-y,1/2+x,1/2-z
1/2+y,1/2+x,1/2-z
1/2-y,1/2-x,1/2-z
1/2-x,1/2+y,1/2+z
1/2+x,1/2-y,1/2+z
loop_
_atom_site_type_symbol
_atom_site_label
_atom_site_fract_x
_atom_site_fract_y
_atom_site_fract_z
Si Si1 0.129114 0.766623 0.892674
Si Si2 0.246166 0.339923 0.057764
Si Si3 0.346104 0.846104 0.250000
Si Si4 0.779962 0.427384 0.887851
Si Si5 0.247756 0.141118 0.894728
Si Si6 0.842909 0.929478 0.262695
Si Si7 0.574772 0.691821 0.781575
O O1 0.154411 0.709918 0.827215
O O2 0.185730 0.815863 0.897129
O O3 0.075856 0.803382 0.835063
O O4 0.112227 0.746389 0.999335
O O5 0.191920 0.303150 0.114399
O O6 0.283998 0.384734 0.128801
O O7 0.290074 0.290074 0.000000
O O8 0.214906 0.383692 0.978665
O O9 0.407965 0.832158 0.189467
O O10 0.783682 0.500000 0.911469
O O11 0.711060 0.415171 0.841280
O O12 0.235520 0.093490 0.808783
O O13 0.897346 0.877897 0.263227
O O14 0.865882 0.000000 0.277283
O O15 0.500000 0.691691 0.796885
#
# Coordination Sequence:
#
# PCOD9558950 Si02
#       7
#    16  16   8  16  16  16  16
#     4   9  17  28  50  79 102 128 173 231 279 322
#     4  12  19  34  56  80 105 139 179 229 285 325
#     4  10  16  30  50  77 108 132 170 214 285 332
#     4  10  19  31  52  80 108 135 173 220 268 325
#     4  10  19  31  52  79 103 135 174 226 286 328
#     4   9  19  33  51  73 104 147 185 220 258 308
#     4  11  24  36  50  76 114 152 187 225 261 318
#
# _framework density 16.258324999999999
#
# number of rings (size 3 to 8) (size 9 to 14) (size 15 to 20)
#    0.000    1.846    4.615    0.923    4.308    0.923 
#    0.000    0.000    0.000    0.231    0.000    4.308 
#    0.000    9.846    0.000    0.000    0.000    0.000 
#
# Total GULP energy -289578.711950 kJ/mol
# GULP energy per Si atom -5568.821384 kJ/mol
# Density = 1.622132 g / cm^3
# Si number density = 16.258325 Si / 1000 Ang^3
#
#
#
# Elastic Constant Matrix: (Units=GPa)
#
#
# Indices 1 2 3 4 5 6 
#
# 1 54.9347 44.7544 19.7886 0.0000 0.0000 0.0000
# 2 44.7544 54.9347 19.7886 0.0000 0.0000 0.0000
# 3 19.7886 19.7886 64.6170 0.0000 0.0000 0.0000
# 4 0.0000 0.0000 0.0000 15.6937 0.0000 0.0000
# 5 0.0000 0.0000 0.0000 0.0000 15.6937 0.0000
# 6 0.0000 0.0000 0.0000 0.0000 0.0000 17.0639
#
#
#
# Elastic Compliance Matrix: (Units=1/GPa)
#
#
# Indices 1 2 3 4 5 6 
#
# 1 0.054824 -0.043405 -0.003497 0.000000 0.000000 0.000000
# 2 -0.043405 0.054824 -0.003497 0.000000 0.000000 0.000000
# 3 -0.003497 -0.003497 0.017618 0.000000 0.000000 0.000000
# 4 0.000000 0.000000 0.000000 0.063720 0.000000 0.000000
# 5 0.000000 0.000000 0.000000 0.000000 0.063720 0.000000
# 6 0.000000 0.000000 0.000000 0.000000 0.000000 0.058603
#
#
# Mechanical properties :
#
#
# Convention : Reuss Voigt Hill
#
# Bulk Modulus (GPa) = 37.78113 38.12772 37.95443
# Shear Modulus (GPa) = 11.82230 15.70060 13.76145
#
# Velocity S-wave (km/s) = 2.69950 3.11094 2.91249
# Velocity P-wave (km/s) = 5.74499 6.03374 5.89113
#
# Compressibility (1/GPa) = 0.02646824
#
# Stress axis : x y z
#
# Youngs Moduli (GPa) = 18.24012 18.24012 56.76076
#
# Poissons Ratio (x) = 0.79171 0.19850
# Poissons Ratio (y) = 0.79171 0.19850
# Poissons Ratio (z) = 0.06379 0.06379
#
# Static dielectric constant tensor:
#      x y z
#    x 1.537900 0.000000 0.000000 
#    y 0.000000 1.537900 0.000000 
#    z 0.000000 0.000000 1.598030 
# 
# From -- ./inp_files/5591.got.cif
#   From: 2010.05.17/outbox.cif.g08.bks.cpg/sg119_3_cif.got.tgz:5591.got - 2010.05.20 11:21:29.
