data_PCOD9558165
_publ_section_title
;
Structure prediction by ZEFSAII (Michael W. Deem and Ramdas Pophale) SiO2 
 PCOD9558165
Probable space group: P -4 B 2
;
_chemical_formula_sum "Si O2"
_cell_formula_units_Z 60
_cell_length_a 13.966668
_cell_length_b 13.966668
_cell_length_c 14.684263
_cell_angle_alpha 90.000000
_cell_angle_beta 90.000000
_cell_angle_gamma 90.000000
_cell_volume 2864.427099
_symmetry_space_group_name_H-M "P -4 B 2"
_symmetry_group_IT_number 117
_symmetry_cell_setting 'tetragonal'
loop_
_space_group_symop_operation_xyz
x,y,z
y,-x,-z
-x,-y,z
-y,x,-z
1/2+y,1/2+x,-z
1/2-y,1/2-x,-z
1/2-x,1/2+y,z
1/2+x,1/2-y,z
loop_
_atom_site_type_symbol
_atom_site_label
_atom_site_fract_x
_atom_site_fract_y
_atom_site_fract_z
Si Si1 0.555941 0.357363 0.531646
Si Si2 0.885571 0.876801 0.740322
Si Si3 0.786011 0.750985 0.297721
Si Si4 0.718929 0.002801 0.745946
Si Si5 0.410308 0.073557 0.392847
Si Si6 0.423980 0.085760 0.103445
Si Si7 0.243347 0.543353 0.242563
Si Si8 0.792977 0.707024 0.500000
O O1 0.444536 0.381162 0.512613
O O2 0.575354 0.371217 0.637695
O O3 0.598693 0.252865 0.502589
O O4 0.802343 0.798539 0.753342
O O5 0.831185 0.976260 0.750816
O O6 0.972800 0.826842 0.790641
O O7 0.792799 0.857109 0.263497
O O8 0.758840 0.748230 0.404167
O O9 0.887497 0.701691 0.280679
O O10 0.665755 0.940730 0.667458
O O11 0.671429 0.974291 0.841326
O O12 0.399810 0.100190 0.500000
O O13 0.320466 0.027071 0.336463
O O14 0.500000 0.000000 0.387945
O O15 0.334814 0.053624 0.164273
O O16 0.500000 0.000000 0.102734
O O17 0.394183 0.105818 0.000000
#
# Coordination Sequence:
#
# PCOD9558165 Si02
#       8
#     8   8   8   8   8   8   8   4
#     4  10  21  37  54  79 118 168 225 257 298 369
#     4  11  22  37  58  88 121 167 207 264 319 365
#     4  11  22  36  59  89 127 172 210 261 310 369
#     4  11  22  40  61  90 130 161 210 263 321 388
#     4  10  21  37  58  83 117 169 219 270 312 356
#     4  10  21  43  72  96 121 160 211 272 333 394
#     4  11  22  39  61  90 130 161 212 264 321 388
#     4  10  22  34  54  84 120 172 218 260 296 360
#
# _framework density 20.946594999999999
#
# number of rings (size 3 to 8) (size 9 to 14) (size 15 to 20)
#    0.000    1.467    2.667    4.800    0.933    5.867 
#    0.000    1.333    0.000    0.400    0.000    1.867 
#    0.000    0.000    0.000    0.000    0.000    0.000 
#
# Total GULP energy -334734.838418 kJ/mol
# GULP energy per Si atom -5578.913974 kJ/mol
# Density = 2.089892 g / cm^3
# Si number density = 20.946595 Si / 1000 Ang^3
#
#
#
# Elastic Constant Matrix: (Units=GPa)
#
#
# Indices 1 2 3 4 5 6 
#
# 1 55.0098 37.8555 18.5166 0.0000 0.0000 0.0000
# 2 37.8555 55.0093 18.5161 0.0000 0.0000 0.0000
# 3 18.5166 18.5161 112.5558 0.0000 0.0000 0.0000
# 4 0.0000 0.0000 0.0000 4.9009 0.0000 0.0000
# 5 0.0000 0.0000 0.0000 0.0000 4.9016 0.0000
# 6 0.0000 0.0000 0.0000 0.0000 0.0000 44.1004
#
#
#
# Elastic Compliance Matrix: (Units=1/GPa)
#
#
# Indices 1 2 3 4 5 6 
#
# 1 0.034910 -0.023385 -0.001896 0.000000 0.000000 0.000000
# 2 -0.023385 0.034910 -0.001896 0.000000 0.000000 0.000000
# 3 -0.001896 -0.001896 0.009508 0.000000 0.000000 0.000000
# 4 0.000000 0.000000 0.000000 0.204044 0.000000 0.000000
# 5 0.000000 0.000000 0.000000 0.000000 0.204014 0.000000
# 6 0.000000 0.000000 0.000000 0.000000 0.000000 0.022676
#
#
# Mechanical properties :
#
#
# Convention : Reuss Voigt Hill
#
# Bulk Modulus (GPa) = 40.04239 41.37236 40.70737
# Shear Modulus (GPa) = 8.72996 20.62636 14.67816
#
# Velocity S-wave (km/s) = 2.04372 3.14142 2.65003
# Velocity P-wave (km/s) = 4.97262 5.74040 5.37025
#
# Compressibility (1/GPa) = 0.02497354
#
# Stress axis : x y z
#
# Youngs Moduli (GPa) = 28.64533 28.64512 105.17188
#
# Poissons Ratio (x) = 0.66988 0.19940
# Poissons Ratio (y) = 0.66989 0.19938
# Poissons Ratio (z) = 0.05431 0.05430
#
# Static dielectric constant tensor:
#      x y z
#    x 1.876570 0.000000 0.000000 
#    y 0.000000 1.876570 0.000000 
#    z 0.000000 0.000000 1.720070 
# 
# From -- ./inp_files/3277.got.cif
#   From: 2010.05.17/outbox.cif.g08.bks.cpg/sg117_2_cif.got.tgz:3277.got - 2010.05.20 11:15:09.
