data_PCOD9558694
_publ_section_title
;
Structure prediction by ZEFSAII (Michael W. Deem and Ramdas Pophale) SiO2 
 PCOD9558694
Probable space group: P -4 N 2
;
_chemical_formula_sum "Si O2"
_cell_formula_units_Z 54
_cell_length_a 15.226085
_cell_length_b 15.226085
_cell_length_c 11.225279
_cell_angle_alpha 90.000000
_cell_angle_beta 90.000000
_cell_angle_gamma 90.000000
_cell_volume 2602.397565
_symmetry_space_group_name_H-M "P -4 N 2"
_symmetry_group_IT_number 118
_symmetry_cell_setting 'tetragonal'
loop_
_space_group_symop_operation_xyz
x,y,z
y,-x,-z
-x,-y,z
-y,x,-z
1/2+y,1/2+x,1/2-z
1/2-y,1/2-x,1/2-z
1/2-x,1/2+y,1/2+z
1/2+x,1/2-y,1/2+z
loop_
_atom_site_type_symbol
_atom_site_label
_atom_site_fract_x
_atom_site_fract_y
_atom_site_fract_z
Si Si1 0.000000 0.500000 0.958299
Si Si2 0.681703 0.927370 0.452609
Si Si3 0.218800 0.405503 0.806683
Si Si4 0.000000 0.000000 0.000000
Si Si5 0.221173 0.576833 0.227981
Si Si6 0.247344 0.262840 0.497227
Si Si7 0.647529 0.078620 0.872898
Si Si8 0.871020 0.123128 0.143218
O O1 0.053348 0.426441 0.032496
O O2 0.080169 0.560371 0.909566
O O3 0.693192 0.947960 0.594316
O O4 0.726307 0.831133 0.440829
O O5 0.725589 0.006137 0.380880
O O6 0.125170 0.374831 0.750000
O O7 0.245037 0.323902 0.894345
O O8 0.282391 0.417771 0.694673
O O9 0.935542 0.056590 0.081883
O O10 0.165656 0.665656 0.250000
O O11 0.198936 0.508381 0.332945
O O12 0.324513 0.588835 0.245089
O O13 0.204991 0.338337 0.414118
O O14 0.336404 0.303958 0.550517
O O15 0.601511 0.101511 0.750000
#
# Coordination Sequence:
#
# PCOD9558694 Si02
#       8
#     4   8   8   2   8   8   8   8
#     4  12  21  36  65 100 138 170 229 290 347 422
#     4  12  23  41  70 106 136 183 235 286 355 429
#     4  10  22  45  72  95 139 189 227 281 363 431
#     4  12  28  48  68 102 136 192 244 296 332 450
#     4  12  19  38  72 103 134 180 234 288 354 422
#     4  11  22  43  70  99 139 182 233 290 352 429
#     4  12  21  35  62 103 135 168 222 296 339 405
#     4  11  23  46  68  93 134 193 234 277 358 425
#
# _framework density 20.750095999999999
#
# number of rings (size 3 to 8) (size 9 to 14) (size 15 to 20)
#    0.000    0.593    7.407    1.556    0.000    0.000 
#    8.000    0.370    0.000    0.000    0.000    0.000 
#    0.000    0.000    0.000    0.000    0.000    0.000 
#
# Total GULP energy -301100.559102 kJ/mol
# GULP energy per Si atom -5575.936280 kJ/mol
# Density = 2.070287 g / cm^3
# Si number density = 20.750096 Si / 1000 Ang^3
#
#
#
# Elastic Constant Matrix: (Units=GPa)
#
#
# Indices 1 2 3 4 5 6 
#
# 1 121.4532 56.2362 27.1816 0.0000 0.0000 0.0000
# 2 56.2362 121.4526 27.1817 0.0000 0.0000 0.0000
# 3 27.1816 27.1817 40.3489 0.0000 0.0000 0.0000
# 4 0.0000 0.0000 0.0000 16.9180 0.0000 0.0000
# 5 0.0000 0.0000 0.0000 0.0000 16.9157 0.0000
# 6 0.0000 0.0000 0.0000 0.0000 0.0000 34.6961
#
#
#
# Elastic Compliance Matrix: (Units=1/GPa)
#
#
# Indices 1 2 3 4 5 6 
#
# 1 0.011211 -0.004122 -0.004775 0.000000 0.000000 0.000000
# 2 -0.004122 0.011211 -0.004776 0.000000 0.000000 0.000000
# 3 -0.004775 -0.004776 0.031218 0.000000 0.000000 0.000000
# 4 0.000000 0.000000 0.000000 0.059109 0.000000 0.000000
# 5 0.000000 0.000000 0.000000 0.000000 0.059117 0.000000
# 6 0.000000 0.000000 0.000000 0.000000 0.000000 0.028822
#
#
# Mechanical properties :
#
#
# Convention : Reuss Voigt Hill
#
# Bulk Modulus (GPa) = 38.03193 56.05040 47.04117
# Shear Modulus (GPa) = 21.11497 25.21630 23.16563
#
# Velocity S-wave (km/s) = 3.19342 3.48981 3.34490
# Velocity P-wave (km/s) = 5.65381 6.58097 6.13493
#
# Compressibility (1/GPa) = 0.02629369
#
# Stress axis : x y z
#
# Youngs Moduli (GPa) = 89.19713 89.19638 32.03273
#
# Poissons Ratio (x) = 0.36770 0.15297
# Poissons Ratio (y) = 0.36770 0.15298
# Poissons Ratio (z) = 0.42596 0.42597
#
# Static dielectric constant tensor:
#      x y z
#    x 1.832200 0.000000 0.000000 
#    y 0.000000 1.832200 0.000000 
#    z 0.000000 0.000000 1.774880 
# 
# From -- ./inp_files/3472.got.cif
#   From: 2010.05.17/outbox.cif.g08.bks.cpg/sg118_2_cif.got.tgz:3472.got - 2010.05.20 11:17:24.
