data_PCOD9558127
_publ_section_title
;
Structure prediction by ZEFSAII (Michael W. Deem and Ramdas Pophale) SiO2 
 PCOD9558127
Probable space group: P -4 B 2
;
_chemical_formula_sum "Si O2"
_cell_formula_units_Z 48
_cell_length_a 13.802609
_cell_length_b 13.802609
_cell_length_c 11.652827
_cell_angle_alpha 90.000000
_cell_angle_beta 90.000000
_cell_angle_gamma 90.000000
_cell_volume 2220.003555
_symmetry_space_group_name_H-M "P -4 B 2"
_symmetry_group_IT_number 117
_symmetry_cell_setting 'tetragonal'
loop_
_space_group_symop_operation_xyz
x,y,z
y,-x,-z
-x,-y,z
-y,x,-z
1/2+y,1/2+x,-z
1/2-y,1/2-x,-z
1/2-x,1/2+y,z
1/2+x,1/2-y,z
loop_
_atom_site_type_symbol
_atom_site_label
_atom_site_fract_x
_atom_site_fract_y
_atom_site_fract_z
Si Si1 0.605461 0.365995 0.159706
Si Si2 0.296147 0.440227 0.094912
Si Si3 0.450159 0.228643 0.251614
Si Si4 0.277515 0.745115 0.717396
Si Si5 0.603782 0.957301 0.154922
Si Si6 0.895802 0.588098 0.371306
O O1 0.631372 0.479422 0.149633
O O2 0.504672 0.325689 0.212572
O O3 0.688200 0.309238 0.232986
O O4 0.597344 0.330260 0.028216
O O5 0.279190 0.348141 0.175532
O O6 0.193050 0.496237 0.087984
O O7 0.358149 0.246287 0.331029
O O8 0.404554 0.158597 0.153273
O O9 0.529140 0.159174 0.307955
O O10 0.347914 0.799278 0.630358
O O11 0.500000 0.000000 0.120650
O O12 0.617526 0.996364 0.287131
O O13 0.928247 0.571754 0.500000
#
# Coordination Sequence:
#
# PCOD9558127 Si02
#       6
#     8   8   8   8   8   8
#     4  11  23  37  59  87 120 159 204 244 285 354
#     4  11  22  38  59  85 122 158 201 241 287 347
#     4  10  20  37  59  83 118 157 191 243 307 348
#     4  10  21  39  58  84 122 157 194 246 304 358
#     4   9  19  37  61  84 111 153 196 248 299 335
#     4   9  20  39  59  89 117 143 203 256 299 363
#
# _framework density 21.621586000000001
#
# number of rings (size 3 to 8) (size 9 to 14) (size 15 to 20)
#    0.000    2.000    1.667    2.500    0.000    6.000 
#    3.000    4.167    0.000    0.000    0.000    0.000 
#    0.000    0.000    0.000    0.000    0.000    0.000 
#
# Total GULP energy -267858.140629 kJ/mol
# GULP energy per Si atom -5580.377930 kJ/mol
# Density = 2.157237 g / cm^3
# Si number density = 21.621586 Si / 1000 Ang^3
#
#
#
# Elastic Constant Matrix: (Units=GPa)
#
#
# Indices 1 2 3 4 5 6 
#
# 1 86.9840 7.0151 -17.1627 0.0000 0.0000 0.0000
# 2 7.0151 86.9841 -17.1624 0.0000 0.0000 0.0000
# 3 -17.1627 -17.1624 65.7675 0.0000 0.0000 0.0000
# 4 0.0000 0.0000 0.0000 1.2670 0.0000 0.0000
# 5 0.0000 0.0000 0.0000 0.0000 1.2671 0.0000
# 6 0.0000 0.0000 0.0000 0.0000 0.0000 38.7195
#
#
#
# Elastic Compliance Matrix: (Units=1/GPa)
#
#
# Indices 1 2 3 4 5 6 
#
# 1 0.012132 -0.000373 0.003069 0.000000 0.000000 0.000000
# 2 -0.000373 0.012132 0.003069 0.000000 0.000000 0.000000
# 3 0.003069 0.003069 0.016807 0.000000 0.000000 0.000000
# 4 0.000000 0.000000 0.000000 0.789262 0.000000 0.000000
# 5 0.000000 0.000000 0.000000 0.000000 0.789206 0.000000
# 6 0.000000 0.000000 0.000000 0.000000 0.000000 0.025827
#
#
# Mechanical properties :
#
#
# Convention : Reuss Voigt Hill
#
# Bulk Modulus (GPa) = 19.01180 20.56837 19.79008
# Shear Modulus (GPa) = 3.02779 26.05376 14.54078
#
# Velocity S-wave (km/s) = 1.18465 3.47506 2.59610
# Velocity P-wave (km/s) = 3.26852 5.06310 4.26135
#
# Compressibility (1/GPa) = 0.05259892
#
# Stress axis : x y z
#
# Youngs Moduli (GPa) = 82.42719 82.42753 59.50029
#
# Poissons Ratio (x) = 0.03074 -0.18258
# Poissons Ratio (y) = 0.03074 -0.18258
# Poissons Ratio (z) = -0.25294 -0.25293
#
# Static dielectric constant tensor:
#      x y z
#    x 1.857910 0.000000 0.000000 
#    y 0.000000 1.857910 0.000000 
#    z 0.000000 0.000000 1.783820 
# 
# From -- ./inp_files/2773.got.cif
#   From: 2010.05.17/outbox.cif.g08.bks.cpg/sg117_2_cif.got.tgz:2773.got - 2010.05.20 11:15:09.
