data_PCOD9558094
_publ_section_title
;
Structure prediction by ZEFSAII (Michael W. Deem and Ramdas Pophale) SiO2 
 PCOD9558094
Probable space group: P -4 B 2
;
_chemical_formula_sum "Si O2"
_cell_formula_units_Z 64
_cell_length_a 21.820465
_cell_length_b 21.820465
_cell_length_c 6.286013
_cell_angle_alpha 90.000000
_cell_angle_beta 90.000000
_cell_angle_gamma 90.000000
_cell_volume 2992.976297
_symmetry_space_group_name_H-M "P -4 B 2"
_symmetry_group_IT_number 117
_symmetry_cell_setting 'tetragonal'
loop_
_space_group_symop_operation_xyz
x,y,z
y,-x,-z
-x,-y,z
-y,x,-z
1/2+y,1/2+x,-z
1/2-y,1/2-x,-z
1/2-x,1/2+y,z
1/2+x,1/2-y,z
loop_
_atom_site_type_symbol
_atom_site_label
_atom_site_fract_x
_atom_site_fract_y
_atom_site_fract_z
Si Si1 0.658648 0.552877 0.898492
Si Si2 0.051492 0.645643 0.409324
Si Si3 0.500194 0.214853 0.765537
Si Si4 0.765614 0.928158 0.888666
Si Si5 0.065810 0.928904 0.565307
Si Si6 0.642121 0.341259 0.714956
Si Si7 0.854705 0.560793 0.859064
Si Si8 0.752600 0.599430 0.560246
O O1 0.684627 0.483896 0.879330
O O2 0.591120 0.560458 0.801817
O O3 0.703544 0.591072 0.745367
O O4 0.661774 0.584792 0.124671
O O5 0.109398 0.609398 0.500000
O O6 0.065744 0.709963 0.283853
O O7 0.015712 0.655794 0.629663
O O8 0.000666 0.617596 0.248445
O O9 0.538592 0.251099 0.589062
O O10 0.438717 0.241345 0.870917
O O11 0.539671 0.197179 0.971434
O O12 0.799949 0.865339 0.844080
O O13 0.105238 0.875809 0.453509
O O14 0.993534 0.919534 0.551316
O O15 0.649958 0.276153 0.595951
O O16 0.818686 0.598596 0.674321
O O17 0.901211 0.598790 0.000000
#
# Coordination Sequence:
#
# PCOD9558094 Si02
#       8
#     8   8   8   8   8   8   8   8
#     4  11  20  35  53  83 113 160 219 265 322 391
#     4  10  23  43  69  94 126 168 213 259 325 407
#     4  10  19  39  66  88 127 162 211 250 321 395
#     4  11  21  38  60  89 117 173 219 269 326 391
#     4  10  22  33  46  75 121 166 209 272 339 388
#     4  11  23  33  58  84 124 164 227 280 328 383
#     4  10  21  38  66 102 129 166 207 249 331 406
#     4  10  19  37  58  86 121 163 213 265 314 387
#
# _framework density 21.383396999999999
#
# number of rings (size 3 to 8) (size 9 to 14) (size 15 to 20)
#    0.000    1.625    6.250    0.000    1.750    6.000 
#    0.000    3.125    5.500    0.000    0.000    0.000 
#    0.000    0.000    0.000    0.000    0.000    0.000 
#
# Total GULP energy -356318.395906 kJ/mol
# GULP energy per Si atom -5567.474936 kJ/mol
# Density = 2.133473 g / cm^3
# Si number density = 21.383397 Si / 1000 Ang^3
#
#
#
# Elastic Constant Matrix: (Units=GPa)
#
#
# Indices 1 2 3 4 5 6 
#
# 1 46.9129 25.4703 28.3754 0.0000 0.0000 0.0000
# 2 25.4703 46.9155 28.3759 0.0000 0.0000 0.0000
# 3 28.3754 28.3759 102.6682 0.0000 0.0000 0.0000
# 4 0.0000 0.0000 0.0000 26.1261 0.0000 0.0000
# 5 0.0000 0.0000 0.0000 0.0000 26.1258 0.0000
# 6 0.0000 0.0000 0.0000 0.0000 0.0000 24.7194
#
#
#
# Elastic Compliance Matrix: (Units=1/GPa)
#
#
# Indices 1 2 3 4 5 6 
#
# 1 0.032136 -0.014498 -0.004875 0.000000 0.000000 0.000000
# 2 -0.014498 0.032134 -0.004874 0.000000 0.000000 0.000000
# 3 -0.004875 -0.004874 0.012435 0.000000 0.000000 0.000000
# 4 0.000000 0.000000 0.000000 0.038276 0.000000 0.000000
# 5 0.000000 0.000000 0.000000 0.000000 0.038276 0.000000
# 6 0.000000 0.000000 0.000000 0.000000 0.000000 0.040454
#
#
# Mechanical properties :
#
#
# Convention : Reuss Voigt Hill
#
# Bulk Modulus (GPa) = 35.44812 40.10441 37.77627
# Shear Modulus (GPa) = 19.87209 23.01257 21.44233
#
# Velocity S-wave (km/s) = 3.05179 3.28409 3.17007
# Velocity P-wave (km/s) = 5.38807 5.75986 5.57706
#
# Compressibility (1/GPa) = 0.02821024
#
# Stress axis : x y z
#
# Youngs Moduli (GPa) = 31.11771 31.11954 80.42094
#
# Poissons Ratio (x) = 0.45118 0.39202
# Poissons Ratio (y) = 0.45115 0.39200
# Poissons Ratio (z) = 0.15169 0.15169
#
# Static dielectric constant tensor:
#      x y z
#    x 1.848640 0.000000 0.000000 
#    y 0.000000 1.848640 0.000000 
#    z 0.000000 0.000000 1.789070 
# 
# From -- ./inp_files/982.got.cif
#   From: 2010.05.17/outbox.cif.g08.bks.cpg/sg117_1_cif.got.tgz:982.got - 2010.05.20 11:15:09.
