data_PCOD9558892
_publ_section_title
;
Structure prediction by ZEFSAII (Michael W. Deem and Ramdas Pophale) SiO2 
 PCOD9558892
Probable space group: P -4 N 2
;
_chemical_formula_sum "Si O2"
_cell_formula_units_Z 22
_cell_length_a 5.153380
_cell_length_b 5.153380
_cell_length_c 36.402876
_cell_angle_alpha 90.000000
_cell_angle_beta 90.000000
_cell_angle_gamma 90.000000
_cell_volume 966.763024
_symmetry_space_group_name_H-M "P -4 N 2"
_symmetry_group_IT_number 118
_symmetry_cell_setting 'tetragonal'
loop_
_space_group_symop_operation_xyz
x,y,z
y,-x,-z
-x,-y,z
-y,x,-z
1/2+y,1/2+x,1/2-z
1/2-y,1/2-x,1/2-z
1/2-x,1/2+y,1/2+z
1/2+x,1/2-y,1/2+z
loop_
_atom_site_type_symbol
_atom_site_label
_atom_site_fract_x
_atom_site_fract_y
_atom_site_fract_z
Si Si1 0.000000 0.000000 0.500000
Si Si2 0.000000 0.500000 0.145645
Si Si3 0.824665 0.245915 0.708086
Si Si4 0.500000 0.000000 0.450624
Si Si5 0.000000 0.000000 0.097797
O O1 0.064998 0.250611 0.524613
O O2 0.128030 0.299660 0.175383
O O3 0.094865 0.734045 0.118880
O O4 0.727361 0.227361 0.750000
O O5 0.000000 0.500000 0.704745
O O6 0.000000 0.000000 0.703080
O O7 0.573828 0.751196 0.426018
#
# Coordination Sequence:
#
# PCOD9558892 Si02
#       5
#     2   4   8   4   4
#     4  12  24  48  84 100 154 180 244 284 358 408
#     4  12  27  45  72 100 149 204 230 314 369 450
#     4  11  27  45  71 100 137 190 262 315 364 430
#     4  12  26  49  74 118 138 196 230 298 344 444
#     4  12  28  45  74 108 157 182 246 284 375 440
#
# _framework density 22.756353000000001
#
# number of rings (size 3 to 8) (size 9 to 14) (size 15 to 20)
#    0.000    0.364    0.000    7.091   20.364    0.000 
#    0.000    0.000    0.000    0.000    0.000    0.000 
#    0.000    0.000    0.000    0.000    0.000    0.000 
#
# Total GULP energy -122603.332485 kJ/mol
# GULP energy per Si atom -5572.878749 kJ/mol
# Density = 2.270456 g / cm^3
# Si number density = 22.756353 Si / 1000 Ang^3
#
#
#
# Elastic Constant Matrix: (Units=GPa)
#
#
# Indices 1 2 3 4 5 6 
#
# 1 121.0523 -6.4065 28.1624 0.0000 0.0000 0.0000
# 2 -6.4065 121.0523 28.1624 0.0000 0.0000 0.0000
# 3 28.1624 28.1624 91.6859 0.0000 0.0000 0.0000
# 4 0.0000 0.0000 0.0000 172.7014 0.0000 0.0000
# 5 0.0000 0.0000 0.0000 0.0000 172.7014 0.0000
# 6 0.0000 0.0000 0.0000 0.0000 0.0000 28.2410
#
#
#
# Elastic Compliance Matrix: (Units=1/GPa)
#
#
# Indices 1 2 3 4 5 6 
#
# 1 0.009059 0.001214 -0.003155 0.000000 0.000000 0.000000
# 2 0.001214 0.009059 -0.003155 0.000000 0.000000 0.000000
# 3 -0.003155 -0.003155 0.012845 0.000000 0.000000 0.000000
# 4 0.000000 0.000000 0.000000 0.005790 0.000000 0.000000
# 5 0.000000 0.000000 0.000000 0.000000 0.005790 0.000000
# 6 0.000000 0.000000 0.000000 0.000000 0.000000 0.035409
#
#
# Mechanical properties :
#
#
# Convention : Reuss Voigt Hill
#
# Bulk Modulus (GPa) = 48.14836 48.18080 48.16458
# Shear Modulus (GPa) = 52.59205 93.65357 73.12281
#
# Velocity S-wave (km/s) = 4.81260 6.42217 5.67474
# Velocity P-wave (km/s) = 7.21704 8.72988 8.00926
#
# Compressibility (1/GPa) = 0.02076914
#
# Stress axis : x y z
#
# Youngs Moduli (GPa) = 110.38494 110.38494 77.84984
#
# Poissons Ratio (x) = -0.13396 0.24565
# Poissons Ratio (y) = -0.13396 0.24565
# Poissons Ratio (z) = 0.34831 0.34831
#
# Static dielectric constant tensor:
#      x y z
#    x 1.803380 0.000000 0.000000 
#    y 0.000000 1.803380 0.000000 
#    z 0.000000 0.000000 1.796420 
# 
# From -- ./inp_files/6654.got.cif
#   From: 2010.05.17/outbox.cif.g08.bks.cpg/sg118_4_cif.got.tgz:6654.got - 2010.05.20 11:17:24.
