data_PCOD9558166
_publ_section_title
;
Structure prediction by ZEFSAII (Michael W. Deem and Ramdas Pophale) SiO2 
 PCOD9558166
Probable space group: P -4 B 2
;
_chemical_formula_sum "Si O2"
_cell_formula_units_Z 56
_cell_length_a 14.936706
_cell_length_b 14.936706
_cell_length_c 14.443622
_cell_angle_alpha 90.000000
_cell_angle_beta 90.000000
_cell_angle_gamma 90.000000
_cell_volume 3222.446975
_symmetry_space_group_name_H-M "P -4 B 2"
_symmetry_group_IT_number 117
_symmetry_cell_setting 'tetragonal'
loop_
_space_group_symop_operation_xyz
x,y,z
y,-x,-z
-x,-y,z
-y,x,-z
1/2+y,1/2+x,-z
1/2-y,1/2-x,-z
1/2-x,1/2+y,z
1/2+x,1/2-y,z
loop_
_atom_site_type_symbol
_atom_site_label
_atom_site_fract_x
_atom_site_fract_y
_atom_site_fract_z
Si Si1 0.310130 0.341132 0.803680
Si Si2 0.974516 0.271728 0.251112
Si Si3 0.575765 0.924236 0.391129
Si Si4 0.271727 0.025484 0.251112
Si Si5 0.310130 0.341131 0.196320
Si Si6 0.923717 0.423717 0.892374
Si Si7 0.407119 0.619460 0.000000
O O1 0.267867 0.426705 0.753520
O O2 0.400505 0.305522 0.756339
O O3 0.239574 0.260426 0.804480
O O4 0.334110 0.370381 0.907978
O O5 0.956581 0.334892 0.338911
O O6 0.900505 0.194478 0.243660
O O7 0.958211 0.336468 0.162064
O O8 0.589082 0.910919 0.500000
O O9 0.665108 0.956582 0.338911
O O10 0.500000 0.000000 0.377242
O O11 0.336468 0.041789 0.162064
O O12 0.232133 0.926705 0.246479
O O13 0.334110 0.370380 0.092021
O O14 0.000000 0.500000 0.886666
O O15 0.905067 0.405067 0.000000
O O16 0.515120 0.621222 0.999999
#
# Coordination Sequence:
#
# PCOD9558166 Si02
#       7
#     8   8   8   8   8   8   8
#     4  12  23  38  60  85 128 170 213 265 304 367
#     4  11  23  39  60  92 123 161 209 254 318 373
#     4  10  21  45  74  95 121 154 205 272 332 386
#     4  11  23  39  60  92 123 161 209 254 318 373
#     4  12  23  38  60  85 128 170 213 265 304 367
#     4  10  21  37  54  79 119 162 211 264 302 348
#     4  11  23  38  54  82 123 181 224 250 300 368
#
# _framework density 17.378098999999999
#
# number of rings (size 3 to 8) (size 9 to 14) (size 15 to 20)
#    0.000    1.000    5.714    3.857    4.000    0.571 
#    0.000    1.429    0.000    0.000    0.000    2.000 
#    0.000    0.000    0.000    0.000    0.000    0.000 
#
# Total GULP energy -313108.315986 kJ/mol
# GULP energy per Si atom -5591.219928 kJ/mol
# Density = 1.733855 g / cm^3
# Si number density = 17.378099 Si / 1000 Ang^3
#
#
#
# Elastic Constant Matrix: (Units=GPa)
#
#
# Indices 1 2 3 4 5 6 
#
# 1 59.1745 1.5287 16.6388 0.0000 0.0000 0.0000
# 2 1.5287 59.1744 16.6386 0.0000 0.0000 0.0000
# 3 16.6388 16.6386 106.1158 0.0000 0.0000 0.0000
# 4 0.0000 0.0000 0.0000 21.1964 0.0000 0.0000
# 5 0.0000 0.0000 0.0000 0.0000 21.1975 0.0000
# 6 0.0000 0.0000 0.0000 0.0000 0.0000 43.7991
#
#
#
# Elastic Compliance Matrix: (Units=1/GPa)
#
#
# Indices 1 2 3 4 5 6 
#
# 1 0.017685 0.000338 -0.002826 0.000000 0.000000 0.000000
# 2 0.000338 0.017685 -0.002826 0.000000 0.000000 0.000000
# 3 -0.002826 -0.002826 0.010310 0.000000 0.000000 0.000000
# 4 0.000000 0.000000 0.000000 0.047178 0.000000 0.000000
# 5 0.000000 0.000000 0.000000 0.000000 0.047175 0.000000
# 6 0.000000 0.000000 0.000000 0.000000 0.000000 0.022831
#
#
# Mechanical properties :
#
#
# Convention : Reuss Voigt Hill
#
# Bulk Modulus (GPa) = 28.52925 32.67519 30.60222
# Shear Modulus (GPa) = 27.00122 29.88252 28.44187
#
# Velocity S-wave (km/s) = 3.94604 4.15124 4.04994
# Velocity P-wave (km/s) = 6.10033 6.46687 6.28627
#
# Compressibility (1/GPa) = 0.03505175
#
# Stress axis : x y z
#
# Youngs Moduli (GPa) = 56.54490 56.54491 96.99452
#
# Poissons Ratio (x) = -0.01910 0.27410
# Poissons Ratio (y) = -0.01910 0.27410
# Poissons Ratio (z) = 0.15979 0.15979
#
# Static dielectric constant tensor:
#      x y z
#    x 1.587150 0.000000 0.000000 
#    y 0.000000 1.587150 0.000000 
#    z 0.000000 0.000000 1.558980 
# 
# From -- ./inp_files/3226.got.cif
#   From: 2010.05.17/outbox.cif.g08.bks.cpg/sg117_2_cif.got.tgz:3226.got - 2010.05.20 11:15:09.
