data_PCOD9558200
_publ_section_title
;
Structure prediction by ZEFSAII (Michael W. Deem and Ramdas Pophale) SiO2 
 PCOD9558200
Probable space group: P -4 B 2
;
_chemical_formula_sum "Si O2"
_cell_formula_units_Z 38
_cell_length_a 10.228460
_cell_length_b 10.228460
_cell_length_c 21.069564
_cell_angle_alpha 90.000000
_cell_angle_beta 90.000000
_cell_angle_gamma 90.000000
_cell_volume 2204.327156
_symmetry_space_group_name_H-M "P -4 B 2"
_symmetry_group_IT_number 117
_symmetry_cell_setting 'tetragonal'
loop_
_space_group_symop_operation_xyz
x,y,z
y,-x,-z
-x,-y,z
-y,x,-z
1/2+y,1/2+x,-z
1/2-y,1/2-x,-z
1/2-x,1/2+y,z
1/2+x,1/2-y,z
loop_
_atom_site_type_symbol
_atom_site_label
_atom_site_fract_x
_atom_site_fract_y
_atom_site_fract_z
Si Si1 0.750000 0.750002 0.693943
Si Si2 0.750010 0.749991 0.000000
Si Si3 0.000000 0.500000 0.500000
Si Si4 0.343367 0.500000 0.228630
Si Si5 0.339100 0.500006 0.078008
Si Si6 0.000002 0.351248 0.376582
O O1 0.626991 0.716671 0.738063
O O2 0.873007 0.783330 0.738065
O O3 0.780586 0.627058 0.649448
O O4 0.719417 0.872948 0.649449
O O5 0.624884 0.730044 0.954338
O O6 0.875137 0.769945 0.954341
O O7 1.000000 0.622906 0.452201
O O8 0.500000 0.500000 0.238035
O O9 0.318452 0.500003 0.153388
O O10 0.500000 0.500000 0.068718
O O11 0.000000 0.500000 0.350064
#
# Coordination Sequence:
#
# PCOD9558200 Si02
#       6
#     8   4   2   8   8   8
#     4  12  21  41  64  93 123 166 206 250 318 362
#     4  12  20  46  60  82 120 164 198 252 316 362
#     4   8  20  44  56  96 128 164 200 270 296 352
#     4  11  23  38  63  94 121 159 205 258 312 368
#     4  11  24  42  61  88 126 155 205 264 306 368
#     4  10  22  39  62  90 130 160 202 258 300 359
#
# _framework density 17.238821000000002
#
# number of rings (size 3 to 8) (size 9 to 14) (size 15 to 20)
#    0.632    0.421    6.316    1.263    0.000    1.263 
#    0.000    2.105    0.000    0.000    0.000    0.000 
#    0.000    0.000    0.000    0.000    0.000    0.000 
#
# Total GULP energy -211824.519035 kJ/mol
# GULP energy per Si atom -5574.329448 kJ/mol
# Density = 1.719958 g / cm^3
# Si number density = 17.238821 Si / 1000 Ang^3
#
#
#
# Elastic Constant Matrix: (Units=GPa)
#
#
# Indices 1 2 3 4 5 6 
#
# 1 154.0695 71.9003 86.8792 0.0000 0.0000 0.0000
# 2 71.9003 154.0695 86.8792 0.0000 0.0000 0.0000
# 3 86.8792 86.8792 183.7860 0.0000 0.0000 0.0000
# 4 0.0000 0.0000 0.0000 8.7285 0.0000 0.0000
# 5 0.0000 0.0000 0.0000 0.0000 8.7285 0.0000
# 6 0.0000 0.0000 0.0000 0.0000 0.0000 31.8910
#
#
#
# Elastic Compliance Matrix: (Units=1/GPa)
#
#
# Indices 1 2 3 4 5 6 
#
# 1 0.009561 -0.002609 -0.003287 0.000000 0.000000 0.000000
# 2 -0.002609 0.009561 -0.003287 0.000000 0.000000 0.000000
# 3 -0.003287 -0.003287 0.008548 0.000000 0.000000 0.000000
# 4 0.000000 0.000000 0.000000 0.114567 0.000000 0.000000
# 5 0.000000 0.000000 0.000000 0.000000 0.114567 0.000000
# 6 0.000000 0.000000 0.000000 0.000000 0.000000 0.031357
#
#
# Mechanical properties :
#
#
# Convention : Reuss Voigt Hill
#
# Bulk Modulus (GPa) = 107.44472 109.24913 108.34693
# Shear Modulus (GPa) = 16.14835 26.28734 21.21785
#
# Velocity S-wave (km/s) = 3.06395 3.90922 3.51211
# Velocity P-wave (km/s) = 8.65907 9.15901 8.91255
#
# Compressibility (1/GPa) = 0.00930711
#
# Stress axis : x y z
#
# Youngs Moduli (GPa) = 104.58817 104.58817 116.98070
#
# Poissons Ratio (x) = 0.27284 0.38447
# Poissons Ratio (y) = 0.27284 0.38447
# Poissons Ratio (z) = 0.34374 0.34374
#
# Static dielectric constant tensor:
#      x y z
#    x 1.581550 0.000000 0.000000 
#    y 0.000000 1.581550 0.000000 
#    z 0.000000 0.000000 1.565230 
# 
# From -- ./inp_files/3533.got.cif
#   From: 2010.05.17/outbox.cif.g08.bks.cpg/sg117_2_cif.got.tgz:3533.got - 2010.05.20 11:15:09.
