data_PCOD9558603
_publ_section_title
;
Structure prediction by ZEFSAII (Michael W. Deem and Ramdas Pophale) SiO2 
 PCOD9558603
Probable space group: P -4 N 2
;
_chemical_formula_sum "Si O2"
_cell_formula_units_Z 40
_cell_length_a 15.421540
_cell_length_b 15.421540
_cell_length_c 8.525090
_cell_angle_alpha 90.000000
_cell_angle_beta 90.000000
_cell_angle_gamma 90.000000
_cell_volume 2027.470117
_symmetry_space_group_name_H-M "P -4 N 2"
_symmetry_group_IT_number 118
_symmetry_cell_setting 'tetragonal'
loop_
_space_group_symop_operation_xyz
x,y,z
y,-x,-z
-x,-y,z
-y,x,-z
1/2+y,1/2+x,1/2-z
1/2-y,1/2-x,1/2-z
1/2-x,1/2+y,1/2+z
1/2+x,1/2-y,1/2+z
loop_
_atom_site_type_symbol
_atom_site_label
_atom_site_fract_x
_atom_site_fract_y
_atom_site_fract_z
Si Si1 0.469647 0.264035 0.047709
Si Si2 0.181249 0.869877 0.649196
Si Si3 0.890750 0.351810 0.074957
Si Si4 0.950200 0.672144 0.841149
Si Si5 0.280939 0.306134 0.482033
O O1 0.410923 0.348600 0.071747
O O2 0.510062 0.236452 0.212713
O O3 0.541105 0.279663 0.914686
O O4 0.409692 0.181786 0.009295
O O5 0.242414 0.791912 0.589117
O O6 0.177597 0.858315 0.836316
O O7 0.890844 0.390844 0.250000
O O8 0.851327 0.253786 0.070776
O O9 0.979390 0.351976 0.974855
O O10 0.911059 0.588942 0.750000
O O11 0.871298 0.726131 0.913498
#
# Coordination Sequence:
#
# PCOD9558603 Si02
#       5
#     8   8   8   8   8
#     4  11  23  41  66  97 132 176 218 282 337 397
#     4  10  21  41  64  93 132 173 226 271 335 407
#     4  11  24  42  67  99 136 178 223 277 344 409
#     4  12  23  42  68 103 131 172 227 283 338 403
#     4  10  21  40  66  94 131 176 223 267 333 420
#
# _framework density 19.729022000000001
#
# number of rings (size 3 to 8) (size 9 to 14) (size 15 to 20)
#    0.000    1.200    4.000    2.400    2.800    2.000 
#    0.000    1.000    0.000    0.600    0.000    0.000 
#    0.000    0.000    0.000    0.000    0.000    0.000 
#
# Total GULP energy -223317.650322 kJ/mol
# GULP energy per Si atom -5582.941258 kJ/mol
# Density = 1.968412 g / cm^3
# Si number density = 19.729022 Si / 1000 Ang^3
#
#
#
# Elastic Constant Matrix: (Units=GPa)
#
#
# Indices 1 2 3 4 5 6 
#
# 1 100.1300 29.7652 36.8392 0.0000 0.0000 0.0000
# 2 29.7652 100.1341 36.8393 0.0000 0.0000 0.0000
# 3 36.8392 36.8393 93.3695 0.0000 0.0000 0.0000
# 4 0.0000 0.0000 0.0000 27.7442 0.0000 0.0000
# 5 0.0000 0.0000 0.0000 0.0000 27.7443 0.0000
# 6 0.0000 0.0000 0.0000 0.0000 0.0000 23.6644
#
#
#
# Elastic Compliance Matrix: (Units=1/GPa)
#
#
# Indices 1 2 3 4 5 6 
#
# 1 0.012065 -0.002147 -0.003913 0.000000 0.000000 0.000000
# 2 -0.002147 0.012064 -0.003913 0.000000 0.000000 0.000000
# 3 -0.003913 -0.003913 0.013798 0.000000 0.000000 0.000000
# 4 0.000000 0.000000 0.000000 0.036044 0.000000 0.000000
# 5 0.000000 0.000000 0.000000 0.000000 0.036043 0.000000
# 6 0.000000 0.000000 0.000000 0.000000 0.000000 0.042258
#
#
# Mechanical properties :
#
#
# Convention : Reuss Voigt Hill
#
# Bulk Modulus (GPa) = 55.61333 55.61345 55.61339
# Shear Modulus (GPa) = 28.05654 28.50990 28.28322
#
# Velocity S-wave (km/s) = 3.77516 3.80554 3.79038
# Velocity P-wave (km/s) = 6.87402 6.89633 6.88518
#
# Compressibility (1/GPa) = 0.01798130
#
# Stress axis : x y z
#
# Youngs Moduli (GPa) = 82.88519 82.88910 72.47403
#
# Poissons Ratio (x) = 0.17793 0.28361
# Poissons Ratio (y) = 0.17792 0.28360
# Poissons Ratio (z) = 0.32435 0.32435
#
# Static dielectric constant tensor:
#      x y z
#    x 1.702410 0.000000 0.000000 
#    y 0.000000 1.702410 0.000000 
#    z 0.000000 0.000000 1.765930 
# 
# From -- ./inp_files/1857.got.cif
#   From: 2010.05.17/outbox.cif.g08.bks.cpg/sg118_1_cif.got.tgz:1857.got - 2010.05.20 11:17:24.
