data_PCOD9558184
_publ_section_title
;
Structure prediction by ZEFSAII (Michael W. Deem and Ramdas Pophale) SiO2 
 PCOD9558184
Probable space group: P -4 B 2
;
_chemical_formula_sum "Si O2"
_cell_formula_units_Z 34
_cell_length_a 11.063205
_cell_length_b 11.063205
_cell_length_c 11.683122
_cell_angle_alpha 90.000000
_cell_angle_beta 90.000000
_cell_angle_gamma 90.000000
_cell_volume 1429.949933
_symmetry_space_group_name_H-M "P -4 B 2"
_symmetry_group_IT_number 117
_symmetry_cell_setting 'tetragonal'
loop_
_space_group_symop_operation_xyz
x,y,z
y,-x,-z
-x,-y,z
-y,x,-z
1/2+y,1/2+x,-z
1/2-y,1/2-x,-z
1/2-x,1/2+y,z
1/2+x,1/2-y,z
loop_
_atom_site_type_symbol
_atom_site_label
_atom_site_fract_x
_atom_site_fract_y
_atom_site_fract_z
Si Si1 0.500000 0.000000 0.500000
Si Si2 0.252318 0.105759 0.713151
Si Si3 0.176397 0.023321 0.949106
Si Si4 0.343750 0.860558 0.340671
Si Si5 0.358876 0.018069 0.136832
O O1 0.384047 0.977533 0.416846
O O2 0.168272 0.061959 0.818694
O O3 0.202326 0.214378 0.632357
O O4 0.363017 0.163956 0.786469
O O5 0.289618 0.974010 0.658904
O O6 0.104244 0.114830 0.030196
O O7 0.304095 0.017773 0.011202
O O8 0.316577 0.904012 0.211896
O O9 0.500000 0.000000 0.140490
#
# Coordination Sequence:
#
# PCOD9558184 Si02
#       5
#     2   8   8   8   8
#     4  12  24  52  76  94 134 198 256 344 396 454
#     4  11  22  41  67 104 140 189 247 314 370 481
#     4  11  22  36  62  99 152 198 233 295 384 461
#     4  11  24  44  72 101 139 188 263 316 391 455
#     4  10  21  41  62  96 138 187 243 298 371 476
#
# _framework density 23.777054
#
# number of rings (size 3 to 8) (size 9 to 14) (size 15 to 20)
#    0.000    1.176    5.882    2.118    0.000    7.529 
#    0.000    0.000    0.000    0.000    6.118    0.000 
#    0.000    0.000    0.000    0.000    0.000    0.000 
#
# Total GULP energy -189346.575390 kJ/mol
# GULP energy per Si atom -5569.016923 kJ/mol
# Density = 2.372294 g / cm^3
# Si number density = 23.777054 Si / 1000 Ang^3
#
#
#
# Elastic Constant Matrix: (Units=GPa)
#
#
# Indices 1 2 3 4 5 6 
#
# 1 88.5258 19.1502 17.0455 0.0000 0.0000 0.0000
# 2 19.1502 88.5258 17.0455 0.0000 0.0000 0.0000
# 3 17.0455 17.0455 90.3826 0.0000 0.0000 0.0000
# 4 0.0000 0.0000 0.0000 31.3401 0.0000 0.0000
# 5 0.0000 0.0000 0.0000 0.0000 31.3401 0.0000
# 6 0.0000 0.0000 0.0000 0.0000 0.0000 121.1457
#
#
#
# Elastic Compliance Matrix: (Units=1/GPa)
#
#
# Indices 1 2 3 4 5 6 
#
# 1 0.012146 -0.002269 -0.001863 0.000000 0.000000 0.000000
# 2 -0.002269 0.012146 -0.001863 0.000000 0.000000 0.000000
# 3 -0.001863 -0.001863 0.011767 0.000000 0.000000 0.000000
# 4 0.000000 0.000000 0.000000 0.031908 0.000000 0.000000
# 5 0.000000 0.000000 0.000000 0.000000 0.031908 0.000000
# 6 0.000000 0.000000 0.000000 0.000000 0.000000 0.008255
#
#
# Mechanical properties :
#
#
# Convention : Reuss Voigt Hill
#
# Bulk Modulus (GPa) = 41.54623 41.54629 41.54626
# Shear Modulus (GPa) = 39.01989 51.04472 45.03231
#
# Velocity S-wave (km/s) = 4.05541 4.63839 4.35666
# Velocity P-wave (km/s) = 6.28010 6.79687 6.54359
#
# Compressibility (1/GPa) = 0.02406957
#
# Stress axis : x y z
#
# Youngs Moduli (GPa) = 82.33450 82.33450 84.98584
#
# Poissons Ratio (x) = 0.18679 0.15830
# Poissons Ratio (y) = 0.18679 0.15830
# Poissons Ratio (z) = 0.15336 0.15336
#
# Static dielectric constant tensor:
#      x y z
#    x 2.123650 0.000000 0.000000 
#    y 0.000000 2.123650 0.000000 
#    z 0.000000 0.000000 1.965090 
# 
# From -- ./inp_files/2448.got.cif
#   From: 2010.05.17/outbox.cif.g08.bks.cpg/sg117_2_cif.got.tgz:2448.got - 2010.05.20 11:15:09.
