data_PCOD9558333
_publ_section_title
;
Structure prediction by ZEFSAII (Michael W. Deem and Ramdas Pophale) SiO2 
 PCOD9558333
Probable space group: P -4 B 2
;
_chemical_formula_sum "Si O2"
_cell_formula_units_Z 24
_cell_length_a 10.662699
_cell_length_b 10.662699
_cell_length_c 9.042852
_cell_angle_alpha 90.000000
_cell_angle_beta 90.000000
_cell_angle_gamma 90.000000
_cell_volume 1028.110329
_symmetry_space_group_name_H-M "P -4 B 2"
_symmetry_group_IT_number 117
_symmetry_cell_setting 'tetragonal'
loop_
_space_group_symop_operation_xyz
x,y,z
y,-x,-z
-x,-y,z
-y,x,-z
1/2+y,1/2+x,-z
1/2-y,1/2-x,-z
1/2-x,1/2+y,z
1/2+x,1/2-y,z
loop_
_atom_site_type_symbol
_atom_site_label
_atom_site_fract_x
_atom_site_fract_y
_atom_site_fract_z
Si Si1 0.209364 0.526928 0.910531
Si Si2 0.375280 0.915466 0.338334
Si Si3 0.558251 0.363980 0.809243
O O1 0.166458 0.413031 0.805916
O O2 0.290964 0.619860 0.808582
O O3 0.100167 0.600167 0.000000
O O4 0.307741 0.478853 0.031761
O O5 0.357334 0.857334 0.500000
O O6 0.245282 0.983182 0.301338
O O7 0.500000 0.000000 0.346181
O O8 0.500000 0.500000 0.780341
#
# Coordination Sequence:
#
# PCOD9558333 Si02
#       3
#     8   8   8
#     4  12  22  44  77 108 150 196 261 323 383 451
#     4  11  26  48  74 108 154 208 255 309 394 474
#     4  12  25  46  74 114 149 192 259 330 385 452
#
# _framework density 23.343798
#
# number of rings (size 3 to 8) (size 9 to 14) (size 15 to 20)
#    0.000    0.333    6.667    3.000    0.000    0.000 
#   12.000    1.667    0.000    0.000    0.000    0.000 
#    0.000    0.000    0.000    0.000    0.000    0.000 
#
# Total GULP energy -134033.805692 kJ/mol
# GULP energy per Si atom -5584.741904 kJ/mol
# Density = 2.329067 g / cm^3
# Si number density = 23.343798 Si / 1000 Ang^3
#
#
#
# Elastic Constant Matrix: (Units=GPa)
#
#
# Indices 1 2 3 4 5 6 
#
# 1 136.2776 48.5111 45.6200 0.0000 0.0000 0.0000
# 2 48.5111 136.2776 45.6200 0.0000 0.0000 0.0000
# 3 45.6200 45.6200 114.7049 0.0000 0.0000 0.0000
# 4 0.0000 0.0000 0.0000 2.0720 0.0000 0.0000
# 5 0.0000 0.0000 0.0000 0.0000 2.0720 0.0000
# 6 0.0000 0.0000 0.0000 0.0000 0.0000 35.7646
#
#
#
# Elastic Compliance Matrix: (Units=1/GPa)
#
#
# Indices 1 2 3 4 5 6 
#
# 1 0.009064 -0.002330 -0.002678 0.000000 0.000000 0.000000
# 2 -0.002330 0.009064 -0.002678 0.000000 0.000000 0.000000
# 3 -0.002678 -0.002678 0.010848 0.000000 0.000000 0.000000
# 4 0.000000 0.000000 0.000000 0.482628 0.000000 0.000000
# 5 0.000000 0.000000 0.000000 0.000000 0.482628 0.000000
# 6 0.000000 0.000000 0.000000 0.000000 0.000000 0.027961
#
#
# Mechanical properties :
#
#
# Convention : Reuss Voigt Hill
#
# Bulk Modulus (GPa) = 73.51073 74.08468 73.79771
# Shear Modulus (GPa) = 4.79800 24.48232 14.64016
#
# Velocity S-wave (km/s) = 1.43521 3.24199 2.50702
# Velocity P-wave (km/s) = 5.85707 6.76899 6.32947
#
# Compressibility (1/GPa) = 0.01360346
#
# Stress axis : x y z
#
# Youngs Moduli (GPa) = 110.32766 110.32766 92.17991
#
# Poissons Ratio (x) = 0.25706 0.24688
# Poissons Ratio (y) = 0.25706 0.24688
# Poissons Ratio (z) = 0.29548 0.29548
#
# Static dielectric constant tensor:
#      x y z
#    x 1.973050 0.000000 0.000000 
#    y 0.000000 1.973050 0.000000 
#    z 0.000000 0.000000 1.902500 
# 
# From -- ./inp_files/1226.got.cif
#   From: 2010.05.17/outbox.cif.g08.bks.cpg/sg117_1_cif.got.tgz:1226.got - 2010.05.20 11:15:09.
