data_PCOD9558855
_publ_section_title
;
Structure prediction by ZEFSAII (Michael W. Deem and Ramdas Pophale) SiO2 
 PCOD9558855
Probable space group: P -4 N 2
;
_chemical_formula_sum "Si O2"
_cell_formula_units_Z 34
_cell_length_a 11.725020
_cell_length_b 11.725020
_cell_length_c 10.114524
_cell_angle_alpha 90.000000
_cell_angle_beta 90.000000
_cell_angle_gamma 90.000000
_cell_volume 1390.505252
_symmetry_space_group_name_H-M "P -4 N 2"
_symmetry_group_IT_number 118
_symmetry_cell_setting 'tetragonal'
loop_
_space_group_symop_operation_xyz
x,y,z
y,-x,-z
-x,-y,z
-y,x,-z
1/2+y,1/2+x,1/2-z
1/2-y,1/2-x,1/2-z
1/2-x,1/2+y,1/2+z
1/2+x,1/2-y,1/2+z
loop_
_atom_site_type_symbol
_atom_site_label
_atom_site_fract_x
_atom_site_fract_y
_atom_site_fract_z
Si Si1 0.483368 0.365684 0.209815
Si Si2 0.327993 0.326980 0.465582
Si Si3 0.605874 0.070418 0.597103
Si Si4 0.381954 0.290492 0.934523
Si Si5 0.500000 0.500000 0.500000
O O1 0.500000 0.500000 0.231575
O O2 0.398935 0.319378 0.326704
O O3 0.412178 0.347258 0.075164
O O4 0.613376 0.332209 0.165174
O O5 0.200106 0.377123 0.452270
O O6 0.308160 0.209394 0.538124
O O7 0.407151 0.409106 0.552756
O O8 0.581270 0.081270 0.750000
O O9 0.500000 0.000000 0.533071
O O10 0.720790 0.995801 0.597755
#
# Coordination Sequence:
#
# PCOD9558855 Si02
#       5
#     8   8   8   8   2
#     4  12  21  40  74 111 148 203 257 309 394 472
#     4  12  25  45  69 108 153 198 261 326 379 475
#     4  11  24  43  72 106 148 200 252 314 389 463
#     4  12  22  43  74 111 154 204 255 323 393 472
#     4  12  28  44  68  98 148 204 252 324 396 450
#
# _framework density 24.451543999999998
#
# number of rings (size 3 to 8) (size 9 to 14) (size 15 to 20)
#    0.000    0.235    5.882    4.941    0.000    0.000 
#    0.000    0.000    0.000    1.412    0.000    0.000 
#    0.000    0.000    0.000    0.000    0.000    0.000 
#
# Total GULP energy -189633.157556 kJ/mol
# GULP energy per Si atom -5577.445810 kJ/mol
# Density = 2.439589 g / cm^3
# Si number density = 24.451544 Si / 1000 Ang^3
#
#
#
# Elastic Constant Matrix: (Units=GPa)
#
#
# Indices 1 2 3 4 5 6 
#
# 1 146.7809 66.4858 31.7341 0.0000 0.0000 0.0000
# 2 66.4858 146.7809 31.7341 0.0000 0.0000 0.0000
# 3 31.7341 31.7341 85.7541 0.0000 0.0000 0.0000
# 4 0.0000 0.0000 0.0000 22.7797 0.0000 0.0000
# 5 0.0000 0.0000 0.0000 0.0000 22.7797 0.0000
# 6 0.0000 0.0000 0.0000 0.0000 0.0000 0.2661
#
#
#
# Elastic Compliance Matrix: (Units=1/GPa)
#
#
# Indices 1 2 3 4 5 6 
#
# 1 0.008862 -0.003592 -0.001950 0.000000 0.000000 0.000000
# 2 -0.003592 0.008862 -0.001950 0.000000 0.000000 0.000000
# 3 -0.001950 -0.001950 0.013104 0.000000 0.000000 0.000000
# 4 0.000000 0.000000 0.000000 0.043899 0.000000 0.000000
# 5 0.000000 0.000000 0.000000 0.000000 0.043899 0.000000
# 6 0.000000 0.000000 0.000000 0.000000 0.000000 3.758126
#
#
# Mechanical properties :
#
#
# Convention : Reuss Voigt Hill
#
# Bulk Modulus (GPa) = 63.11852 71.02487 67.07170
# Shear Modulus (GPa) = 1.28303 25.78924 13.53614
#
# Velocity S-wave (km/s) = 0.72516 3.25115 2.35540
# Velocity P-wave (km/s) = 5.15470 6.57294 5.90654
#
# Compressibility (1/GPa) = 0.01584321
#
# Stress axis : x y z
#
# Youngs Moduli (GPa) = 112.84569 112.84569 76.31002
#
# Poissons Ratio (x) = 0.40539 0.14880
# Poissons Ratio (y) = 0.40539 0.14880
# Poissons Ratio (z) = 0.22004 0.22004
#
# Static dielectric constant tensor:
#      x y z
#    x 2.090920 0.000000 0.000000 
#    y 0.000000 2.090920 0.000000 
#    z 0.000000 0.000000 1.199960 
# 
# From -- ./inp_files/3031.got.cif
#   From: 2010.05.17/outbox.cif.g08.bks.cpg/sg118_2_cif.got.tgz:3031.got - 2010.05.20 11:17:24.
