data_PCOD9558185
_publ_section_title
;
Structure prediction by ZEFSAII (Michael W. Deem and Ramdas Pophale) SiO2 
 PCOD9558185
Probable space group: P -4 B 2
;
_chemical_formula_sum "Si O2"
_cell_formula_units_Z 40
_cell_length_a 13.575626
_cell_length_b 13.575626
_cell_length_c 10.653665
_cell_angle_alpha 90.000000
_cell_angle_beta 90.000000
_cell_angle_gamma 90.000000
_cell_volume 1963.445118
_symmetry_space_group_name_H-M "P -4 B 2"
_symmetry_group_IT_number 117
_symmetry_cell_setting 'tetragonal'
loop_
_space_group_symop_operation_xyz
x,y,z
y,-x,-z
-x,-y,z
-y,x,-z
1/2+y,1/2+x,-z
1/2-y,1/2-x,-z
1/2-x,1/2+y,z
1/2+x,1/2-y,z
loop_
_atom_site_type_symbol
_atom_site_label
_atom_site_fract_x
_atom_site_fract_y
_atom_site_fract_z
Si Si1 0.444654 0.146317 0.881844
Si Si2 0.241329 0.147151 0.732370
Si Si3 0.681222 0.980160 0.530108
Si Si4 0.886147 0.663171 0.695776
Si Si5 0.451320 0.349512 0.028247
O O1 0.353266 0.141836 0.784719
O O2 0.548237 0.130626 0.813644
O O3 0.422663 0.077338 0.000000
O O4 0.443736 0.254918 0.940895
O O5 0.243867 0.094500 0.597054
O O6 0.177223 0.088059 0.834142
O O7 0.197259 0.256820 0.725571
O O8 0.583804 0.916197 0.500000
O O9 0.566840 0.156670 0.371618
O O10 0.711098 0.036185 0.403167
O O11 0.386412 0.437078 0.971177
#
# Coordination Sequence:
#
# PCOD9558185 Si02
#       5
#     8   8   8   8   8
#     4  10  22  41  67  98 128 166 222 264 322 396
#     4  11  24  42  66  95 129 170 221 268 319 397
#     4  11  25  42  67  94 129 169 221 275 326 378
#     4  11  23  43  68  94 131 172 216 273 332 379
#     4  10  21  41  63  92 133 175 208 264 332 389
#
# _framework density 20.372354999999999
#
# number of rings (size 3 to 8) (size 9 to 14) (size 15 to 20)
#    0.000    1.400    4.000    1.200    5.600    0.000 
#    0.000    7.000    0.000    0.000    0.000    0.000 
#    0.000    0.000    0.000    0.000    0.000    0.000 
#
# Total GULP energy -223615.312849 kJ/mol
# GULP energy per Si atom -5590.382821 kJ/mol
# Density = 2.032599 g / cm^3
# Si number density = 20.372355 Si / 1000 Ang^3
#
#
#
# Elastic Constant Matrix: (Units=GPa)
#
#
# Indices 1 2 3 4 5 6 
#
# 1 62.9218 24.7278 18.8328 0.0000 0.0000 0.0000
# 2 24.7278 62.9217 18.8316 0.0000 0.0000 0.0000
# 3 18.8328 18.8316 68.9762 0.0000 0.0000 0.0000
# 4 0.0000 0.0000 0.0000 22.4369 0.0000 0.0000
# 5 0.0000 0.0000 0.0000 0.0000 22.4381 0.0000
# 6 0.0000 0.0000 0.0000 0.0000 0.0000 -1.0945
#
#
#
# Elastic Compliance Matrix: (Units=1/GPa)
#
#
# Indices 1 2 3 4 5 6 
#
# 1 0.019554 -0.006628 -0.003529 0.000000 0.000000 0.000000
# 2 -0.006628 0.019554 -0.003529 0.000000 0.000000 0.000000
# 3 -0.003529 -0.003529 0.016425 0.000000 0.000000 0.000000
# 4 0.000000 0.000000 0.000000 0.044569 0.000000 0.000000
# 5 0.000000 0.000000 0.000000 0.000000 0.044567 0.000000
# 6 0.000000 0.000000 0.000000 0.000000 0.000000 -0.913660
#
#
# Mechanical properties :
#
#
# Convention : Reuss Voigt Hill
#
# Bulk Modulus (GPa) = 35.51151 35.51155 35.51153
# Shear Modulus (GPa) = -6.82844 17.58460 5.37808
#
# Velocity S-wave (km/s) = -1.83278 2.94115 1.62654
# Velocity P-wave (km/s) = 3.60420 5.38543 4.58220
#
# Compressibility (1/GPa) = 0.02815988
#
# Stress axis : x y z
#
# Youngs Moduli (GPa) = 51.14058 51.14115 60.88367
#
# Poissons Ratio (x) = 0.33898 0.21487
# Poissons Ratio (y) = 0.33897 0.21484
# Poissons Ratio (z) = 0.18049 0.18046
#
# Static dielectric constant tensor:
#      x y z
#    x 1.711790 0.000000 0.000000 
#    y 0.000000 1.711790 0.000000 
#    z 0.000000 0.000000 1.745810 
# 
# From -- ./inp_files/2639.got.cif
#   From: 2010.05.17/outbox.cif.g08.bks.cpg/sg117_2_cif.got.tgz:2639.got - 2010.05.20 11:15:09.
