data_PCOD9558921
_publ_section_title
;
Structure prediction by ZEFSAII (Michael W. Deem and Ramdas Pophale) SiO2 
 PCOD9558921
Probable space group: P -4 N 2
;
_chemical_formula_sum "Si O2"
_cell_formula_units_Z 34
_cell_length_a 7.368227
_cell_length_b 7.368227
_cell_length_c 29.267165
_cell_angle_alpha 90.000000
_cell_angle_beta 90.000000
_cell_angle_gamma 90.000000
_cell_volume 1588.936898
_symmetry_space_group_name_H-M "P -4 N 2"
_symmetry_group_IT_number 118
_symmetry_cell_setting 'tetragonal'
loop_
_space_group_symop_operation_xyz
x,y,z
y,-x,-z
-x,-y,z
-y,x,-z
1/2+y,1/2+x,1/2-z
1/2-y,1/2-x,1/2-z
1/2-x,1/2+y,1/2+z
1/2+x,1/2-y,1/2+z
loop_
_atom_site_type_symbol
_atom_site_label
_atom_site_fract_x
_atom_site_fract_y
_atom_site_fract_z
Si Si1 0.459913 0.300253 0.173296
Si Si2 0.251867 0.338672 0.398553
Si Si3 0.000000 0.500000 0.750000
Si Si4 0.827937 0.744696 0.002233
Si Si5 0.182857 0.254406 0.903315
O O1 0.500000 0.500000 0.189813
O O2 0.269999 0.308415 0.145817
O O3 0.605149 0.236910 0.135230
O O4 0.480536 0.167345 0.215564
O O5 0.169825 0.279578 0.447866
O O6 0.229514 0.555889 0.395552
O O7 0.467206 0.289951 0.402225
O O8 0.774707 0.663052 0.953505
O O9 0.047389 0.758623 0.001593
#
# Coordination Sequence:
#
# PCOD9558921 Si02
#       5
#     8   8   2   8   8
#     4  12  26  44  68  96 124 164 222 276 332 385
#     4   9  17  36  65  94 132 174 210 259 313 380
#     4  12  28  52  68  88 124 172 228 284 336 378
#     4   7  12  26  55  92 128 174 213 239 304 380
#     4   9  17  36  65  94 132 174 210 259 313 380
#
# _framework density 21.397953999999999
#
# number of rings (size 3 to 8) (size 9 to 14) (size 15 to 20)
#    0.000    2.588    2.353    2.824    0.000    2.824 
#    4.235    0.000    0.000    0.000    0.000    0.000 
#    0.000    0.000    0.000    0.000    0.000    0.000 
#
# Total GULP energy -189825.885570 kJ/mol
# GULP energy per Si atom -5583.114281 kJ/mol
# Density = 2.134925 g / cm^3
# Si number density = 21.397954 Si / 1000 Ang^3
#
#
#
# Elastic Constant Matrix: (Units=GPa)
#
#
# Indices 1 2 3 4 5 6 
#
# 1 66.9952 3.6203 53.3602 0.0000 0.0000 0.0000
# 2 3.6203 66.9952 53.3602 0.0000 0.0000 0.0000
# 3 53.3602 53.3602 195.1760 0.0000 0.0000 0.0000
# 4 0.0000 0.0000 0.0000 -175.1347 0.0000 0.0000
# 5 0.0000 0.0000 0.0000 0.0000 -175.1347 0.0000
# 6 0.0000 0.0000 0.0000 0.0000 0.0000 18.3756
#
#
#
# Elastic Compliance Matrix: (Units=1/GPa)
#
#
# Indices 1 2 3 4 5 6 
#
# 1 0.019956 0.004176 -0.006598 0.000000 0.000000 0.000000
# 2 0.004176 0.019956 -0.006598 0.000000 0.000000 0.000000
# 3 -0.006598 -0.006598 0.008731 0.000000 0.000000 0.000000
# 4 0.000000 0.000000 0.000000 -0.005710 0.000000 0.000000
# 5 0.000000 0.000000 0.000000 0.000000 -0.005710 0.000000
# 6 0.000000 0.000000 0.000000 0.000000 0.000000 0.054420
#
#
# Mechanical properties :
#
#
# Convention : Reuss Voigt Hill
#
# Bulk Modulus (GPa) = 32.67459 61.09422 46.88440
# Shear Modulus (GPa) = 41.70786 -51.79040 -5.04127
#
# Velocity S-wave (km/s) = 4.41971 -4.92504 -1.53658
# Velocity P-wave (km/s) = 6.43026 1.93078 4.33707
#
# Compressibility (1/GPa) = 0.03060482
#
# Stress axis : x y z
#
# Youngs Moduli (GPa) = 50.11127 50.11127 114.53339
#
# Poissons Ratio (x) = -0.20929 0.75564
# Poissons Ratio (y) = -0.20929 0.75564
# Poissons Ratio (z) = 0.33061 0.33061
#
# Static dielectric constant tensor:
#      x y z
#    x 1.848920 0.000000 0.000000 
#    y 0.000000 1.848920 0.000000 
#    z 0.000000 0.000000 1.776560 
# 
# From -- ./inp_files/6687.got.cif
#   From: 2010.05.17/outbox.cif.g08.bks.cpg/sg118_4_cif.got.tgz:6687.got - 2010.05.20 11:17:24.
