data_PCOD9558540
_publ_section_title
;
Structure prediction by ZEFSAII (Michael W. Deem and Ramdas Pophale) SiO2 
 PCOD9558540
Probable space group: P -4 N 2
;
_chemical_formula_sum "Si O2"
_cell_formula_units_Z 32
_cell_length_a 12.216991
_cell_length_b 12.216991
_cell_length_c 8.808875
_cell_angle_alpha 90.000000
_cell_angle_beta 90.000000
_cell_angle_gamma 90.000000
_cell_volume 1314.767485
_symmetry_space_group_name_H-M "P -4 N 2"
_symmetry_group_IT_number 118
_symmetry_cell_setting 'tetragonal'
loop_
_space_group_symop_operation_xyz
x,y,z
y,-x,-z
-x,-y,z
-y,x,-z
1/2+y,1/2+x,1/2-z
1/2-y,1/2-x,1/2-z
1/2-x,1/2+y,1/2+z
1/2+x,1/2-y,1/2+z
loop_
_atom_site_type_symbol
_atom_site_label
_atom_site_fract_x
_atom_site_fract_y
_atom_site_fract_z
Si Si1 0.753567 0.746434 0.250000
Si Si2 0.000000 0.000000 0.000000
Si Si3 0.850530 0.889925 0.504091
Si Si4 0.666127 0.645030 0.658607
Si Si5 0.000000 0.500000 0.250000
Si Si6 0.711362 0.030020 0.941448
O O1 0.768691 0.841264 0.376908
O O2 0.871972 0.758051 0.166415
O O3 0.906848 0.037539 0.116667
O O4 0.820121 0.839913 0.667941
O O5 0.977879 0.852757 0.481253
O O6 0.587390 0.729302 0.568887
O O7 0.780502 0.596476 0.598865
O O8 0.994755 0.598762 0.135158
#
# Coordination Sequence:
#
# PCOD9558540 Si02
#       6
#     4   2   8   8   2   8
#     4  11  24  43  64 106 148 196 252 311 396 459
#     4   8  16  32  66 104 140 172 242 312 368 432
#     4  11  23  41  69 106 150 198 252 325 386 465
#     4  10  20  39  70 104 137 191 247 307 371 462
#     4  10  24  48  72 110 162 202 232 326 408 454
#     4  10  23  43  71 103 146 195 245 309 382 463
#
# _framework density 24.338903999999999
#
# number of rings (size 3 to 8) (size 9 to 14) (size 15 to 20)
#    0.000    1.750    2.500    1.500    7.000    3.000 
#    0.000    0.000    0.000    6.000    0.000    0.000 
#    0.000    0.000    0.000    0.000    0.000    0.000 
#
# Total GULP energy -178256.627555 kJ/mol
# GULP energy per Si atom -5570.519611 kJ/mol
# Density = 2.428351 g / cm^3
# Si number density = 24.338904 Si / 1000 Ang^3
#
#
#
# Elastic Constant Matrix: (Units=GPa)
#
#
# Indices 1 2 3 4 5 6 
#
# 1 103.6013 48.7854 36.3631 0.0000 0.0000 0.0000
# 2 48.7854 103.6014 36.3635 0.0000 0.0000 0.0000
# 3 36.3631 36.3635 109.7416 0.0000 0.0000 0.0000
# 4 0.0000 0.0000 0.0000 34.6977 0.0000 0.0000
# 5 0.0000 0.0000 0.0000 0.0000 34.6978 0.0000
# 6 0.0000 0.0000 0.0000 0.0000 0.0000 23.8871
#
#
#
# Elastic Compliance Matrix: (Units=1/GPa)
#
#
# Indices 1 2 3 4 5 6 
#
# 1 0.013019 -0.005224 -0.002583 0.000000 0.000000 0.000000
# 2 -0.005224 0.013019 -0.002583 0.000000 0.000000 0.000000
# 3 -0.002583 -0.002583 0.010824 0.000000 0.000000 0.000000
# 4 0.000000 0.000000 0.000000 0.028820 0.000000 0.000000
# 5 0.000000 0.000000 0.000000 0.000000 0.028820 0.000000
# 6 0.000000 0.000000 0.000000 0.000000 0.000000 0.041864
#
#
# Mechanical properties :
#
#
# Convention : Reuss Voigt Hill
#
# Bulk Modulus (GPa) = 62.17996 62.21869 62.19933
# Shear Modulus (GPa) = 30.76804 31.68534 31.22669
#
# Velocity S-wave (km/s) = 3.55935 3.61202 3.58578
# Velocity P-wave (km/s) = 6.51882 6.55854 6.53871
#
# Compressibility (1/GPa) = 0.01608235
#
# Stress axis : x y z
#
# Youngs Moduli (GPa) = 76.81140 76.81130 92.38725
#
# Poissons Ratio (x) = 0.40126 0.23862
# Poissons Ratio (y) = 0.40126 0.23863
# Poissons Ratio (z) = 0.19839 0.19840
#
# Static dielectric constant tensor:
#      x y z
#    x 2.038280 0.000000 0.000000 
#    y 0.000000 2.038290 0.000000 
#    z 0.000000 0.000000 2.023900 
# 
# From -- ./inp_files/2993.got.cif
#   From: 2010.05.17/outbox.cif.g08.bks.cpg/sg118_2_cif.got.tgz:2993.got - 2010.05.20 11:17:24.
