data_PCOD9558312
_publ_section_title
;
Structure prediction by ZEFSAII (Michael W. Deem and Ramdas Pophale) SiO2 
 PCOD9558312
Probable space group: P -4 B 2
;
_chemical_formula_sum "Si O2"
_cell_formula_units_Z 40
_cell_length_a 9.269236
_cell_length_b 9.269236
_cell_length_c 20.749793
_cell_angle_alpha 90.000000
_cell_angle_beta 90.000000
_cell_angle_gamma 90.000000
_cell_volume 1782.795987
_symmetry_space_group_name_H-M "P -4 B 2"
_symmetry_group_IT_number 117
_symmetry_cell_setting 'tetragonal'
loop_
_space_group_symop_operation_xyz
x,y,z
y,-x,-z
-x,-y,z
-y,x,-z
1/2+y,1/2+x,-z
1/2-y,1/2-x,-z
1/2-x,1/2+y,z
1/2+x,1/2-y,z
loop_
_atom_site_type_symbol
_atom_site_label
_atom_site_fract_x
_atom_site_fract_y
_atom_site_fract_z
Si Si1 0.217336 0.944559 0.022732
Si Si2 0.444558 0.282666 0.477268
Si Si3 0.027239 0.172765 0.833082
Si Si4 0.727717 0.727718 0.750000
Si Si5 0.527238 0.672765 0.333082
O O1 0.229469 0.001639 0.095526
O O2 0.357838 0.857838 0.000000
O O3 0.080743 0.833426 0.020098
O O4 0.333426 0.419259 0.479901
O O5 0.357836 0.142165 0.500000
O O6 0.501641 0.270532 0.404474
O O7 0.185101 0.220687 0.812102
O O8 0.934594 0.240269 0.775062
O O9 0.000000 0.000000 0.833123
O O10 0.740269 0.565408 0.724937
O O11 0.779311 0.814901 0.687897
O O12 0.500000 0.500000 0.333123
#
# Coordination Sequence:
#
# PCOD9558312 Si02
#       5
#     8   8   8   8   8
#     4  11  24  45  72 101 137 181 229 291 351 411
#     4  11  24  45  72 101 137 181 229 291 351 411
#     4  12  24  46  69 102 145 178 231 293 348 413
#     4  12  24  44  70  98 142 188 224 282 350 408
#     4  12  24  46  69 102 145 178 231 293 348 413
#
# _framework density 22.436665999999999
#
# number of rings (size 3 to 8) (size 9 to 14) (size 15 to 20)
#    0.000    0.400    8.000    2.400    0.000    1.600 
#    0.000    4.000    0.000    0.000    0.000    0.000 
#    0.000    0.000    0.000    0.000    0.000    0.000 
#
# Total GULP energy -223363.954954 kJ/mol
# GULP energy per Si atom -5584.098874 kJ/mol
# Density = 2.238560 g / cm^3
# Si number density = 22.436666 Si / 1000 Ang^3
#
#
#
# Elastic Constant Matrix: (Units=GPa)
#
#
# Indices 1 2 3 4 5 6 
#
# 1 33.9781 24.8932 8.7718 0.0000 0.0000 0.0000
# 2 24.8932 33.9800 8.7713 0.0000 0.0000 0.0000
# 3 8.7718 8.7713 105.8202 0.0000 0.0000 0.0000
# 4 0.0000 0.0000 0.0000 18.3839 0.0000 0.0000
# 5 0.0000 0.0000 0.0000 0.0000 18.3845 0.0000
# 6 0.0000 0.0000 0.0000 0.0000 0.0000 37.8699
#
#
#
# Elastic Compliance Matrix: (Units=1/GPa)
#
#
# Indices 1 2 3 4 5 6 
#
# 1 0.063741 -0.046322 -0.001444 0.000000 0.000000 0.000000
# 2 -0.046322 0.063737 -0.001443 0.000000 0.000000 0.000000
# 3 -0.001444 -0.001443 0.009689 0.000000 0.000000 0.000000
# 4 0.000000 0.000000 0.000000 0.054396 0.000000 0.000000
# 5 0.000000 0.000000 0.000000 0.000000 0.054394 0.000000
# 6 0.000000 0.000000 0.000000 0.000000 0.000000 0.026406
#
#
# Mechanical properties :
#
#
# Convention : Reuss Voigt Hill
#
# Bulk Modulus (GPa) = 25.80845 28.73900 27.27372
# Shear Modulus (GPa) = 13.03112 23.68379 18.35745
#
# Velocity S-wave (km/s) = 2.41258 3.25250 2.86350
# Velocity P-wave (km/s) = 4.39187 5.19055 4.80782
#
# Compressibility (1/GPa) = 0.03874699
#
# Stress axis : x y z
#
# Youngs Moduli (GPa) = 15.68860 15.68956 103.20637
#
# Poissons Ratio (x) = 0.72678 0.14904
# Poissons Ratio (y) = 0.72673 0.14895
# Poissons Ratio (z) = 0.02266 0.02264
#
# Static dielectric constant tensor:
#      x y z
#    x 1.817520 0.000000 0.000000 
#    y 0.000000 1.817520 0.000000 
#    z 0.000000 0.000000 1.828640 
# 
# From -- ./inp_files/3520.got.cif
#   From: 2010.05.17/outbox.cif.g08.bks.cpg/sg117_2_cif.got.tgz:3520.got - 2010.05.20 11:15:09.
