data_PCOD9558202
_publ_section_title
;
Structure prediction by ZEFSAII (Michael W. Deem and Ramdas Pophale) SiO2 
 PCOD9558202
Probable space group: P -4 B 2
;
_chemical_formula_sum "Si O2"
_cell_formula_units_Z 58
_cell_length_a 17.673018
_cell_length_b 17.673018
_cell_length_c 9.291049
_cell_angle_alpha 90.000000
_cell_angle_beta 90.000000
_cell_angle_gamma 90.000000
_cell_volume 2901.925041
_symmetry_space_group_name_H-M "P -4 B 2"
_symmetry_group_IT_number 117
_symmetry_cell_setting 'tetragonal'
loop_
_space_group_symop_operation_xyz
x,y,z
y,-x,-z
-x,-y,z
-y,x,-z
1/2+y,1/2+x,-z
1/2-y,1/2-x,-z
1/2-x,1/2+y,z
1/2+x,1/2-y,z
loop_
_atom_site_type_symbol
_atom_site_label
_atom_site_fract_x
_atom_site_fract_y
_atom_site_fract_z
Si Si1 0.672116 0.591272 0.043443
Si Si2 0.477129 0.755128 0.714162
Si Si3 0.078641 0.538891 0.336358
Si Si4 0.935803 0.843594 0.435720
Si Si5 0.362145 0.178879 0.161315
Si Si6 0.000000 0.000000 0.500000
Si Si7 0.455613 0.330050 0.177341
Si Si8 0.850432 0.199942 0.774019
O O1 0.743450 0.577042 0.146998
O O2 0.602556 0.601775 0.153930
O O3 0.661252 0.518480 0.944391
O O4 0.668833 0.659137 0.926489
O O5 0.489534 0.843810 0.675839
O O6 0.445866 0.704928 0.580768
O O7 0.560163 0.721345 0.758804
O O8 0.064328 0.564328 0.500000
O O9 0.094671 0.613340 0.244579
O O10 0.000000 0.500000 0.288713
O O11 0.857332 0.828343 0.352958
O O12 0.004251 0.823156 0.329441
O O13 0.944253 0.935168 0.438588
O O14 0.409325 0.254255 0.157647
O O15 0.280110 0.191288 0.232382
O O16 0.347867 0.152134 0.000000
#
# Coordination Sequence:
#
# PCOD9558202 Si02
#       8
#     8   8   8   8   8   2   8   8
#     4  11  21  39  59  96 131 175 214 271 323 399
#     4  11  21  41  64  96 137 168 225 280 321 414
#     4  10  23  45  72  96 126 171 227 289 353 395
#     4  11  23  36  61  99 133 176 220 270 323 406
#     4  11  21  44  67  90 130 176 225 280 336 415
#     4  12  20  36  60  94 140 176 212 266 320 404
#     4  11  23  37  61  91 131 176 222 264 334 393
#     4  10  22  40  61  94 135 177 221 268 338 400
#
# _framework density 19.986733000000001
#
# number of rings (size 3 to 8) (size 9 to 14) (size 15 to 20)
#    0.000    1.241    4.138    2.483    0.000    0.552 
#    0.000    6.897    0.000    0.000    0.000    0.000 
#    0.000    0.000    0.000    0.000    0.000    0.000 
#
# Total GULP energy -323592.815361 kJ/mol
# GULP energy per Si atom -5579.186472 kJ/mol
# Density = 1.994124 g / cm^3
# Si number density = 19.986733 Si / 1000 Ang^3
#
#
#
# Elastic Constant Matrix: (Units=GPa)
#
#
# Indices 1 2 3 4 5 6 
#
# 1 88.9733 66.4576 37.6355 0.0000 0.0000 0.0000
# 2 66.4576 88.9716 37.6329 0.0000 0.0000 0.0000
# 3 37.6355 37.6329 80.6960 0.0000 0.0000 0.0000
# 4 0.0000 0.0000 0.0000 29.0533 0.0000 0.0000
# 5 0.0000 0.0000 0.0000 0.0000 29.0625 0.0000
# 6 0.0000 0.0000 0.0000 0.0000 0.0000 95.7132
#
#
#
# Elastic Compliance Matrix: (Units=1/GPa)
#
#
# Indices 1 2 3 4 5 6 
#
# 1 0.026363 -0.018052 -0.003877 0.000000 0.000000 0.000000
# 2 -0.018052 0.026363 -0.003875 0.000000 0.000000 0.000000
# 3 -0.003877 -0.003875 0.016007 0.000000 0.000000 0.000000
# 4 0.000000 0.000000 0.000000 0.034420 0.000000 0.000000
# 5 0.000000 0.000000 0.000000 0.000000 0.034409 0.000000
# 6 0.000000 0.000000 0.000000 0.000000 0.000000 0.010448
#
#
# Mechanical properties :
#
#
# Convention : Reuss Voigt Hill
#
# Bulk Modulus (GPa) = 58.39315 60.23256 59.31286
# Shear Modulus (GPa) = 24.35157 38.56012 31.45584
#
# Velocity S-wave (km/s) = 3.49433 4.39713 3.97146
# Velocity P-wave (km/s) = 6.74980 7.48207 7.12535
#
# Compressibility (1/GPa) = 0.01712530
#
# Stress axis : x y z
#
# Youngs Moduli (GPa) = 37.93186 37.93220 62.47129
#
# Poissons Ratio (x) = 0.68476 0.24218
# Poissons Ratio (y) = 0.68476 0.24208
# Poissons Ratio (z) = 0.14705 0.14699
#
# Static dielectric constant tensor:
#      x y z
#    x 1.794370 0.000000 0.000000 
#    y 0.000000 1.794400 0.000000 
#    z 0.000000 0.000000 1.742150 
# 
# From -- ./inp_files/2072.got.cif
#   From: 2010.05.17/outbox.cif.g08.bks.cpg/sg117_2_cif.got.tgz:2072.got - 2010.05.20 11:15:09.
