data_PCOD9558340
_publ_section_title
;
Structure prediction by ZEFSAII (Michael W. Deem and Ramdas Pophale) SiO2 
 PCOD9558340
Probable space group: P -4 B 2
;
_chemical_formula_sum "Si O2"
_cell_formula_units_Z 26
_cell_length_a 13.663716
_cell_length_b 13.663716
_cell_length_c 5.342076
_cell_angle_alpha 90.000000
_cell_angle_beta 90.000000
_cell_angle_gamma 90.000000
_cell_volume 997.350284
_symmetry_space_group_name_H-M "P -4 B 2"
_symmetry_group_IT_number 117
_symmetry_cell_setting 'tetragonal'
loop_
_space_group_symop_operation_xyz
x,y,z
y,-x,-z
-x,-y,z
-y,x,-z
1/2+y,1/2+x,-z
1/2-y,1/2-x,-z
1/2-x,1/2+y,z
1/2+x,1/2-y,z
loop_
_atom_site_type_symbol
_atom_site_label
_atom_site_fract_x
_atom_site_fract_y
_atom_site_fract_z
Si Si1 0.643748 0.440141 0.434637
Si Si2 0.957348 0.318411 0.879416
Si Si3 0.500000 0.000000 0.500000
Si Si4 0.340361 0.840361 0.000000
Si Si5 0.750035 0.749966 0.500000
O O1 0.541101 0.382034 0.426399
O O2 0.702803 0.463902 0.183347
O O3 0.725171 0.364009 0.527720
O O4 0.989821 0.399730 0.668281
O O5 0.046460 0.327894 0.067509
O O6 0.857785 0.357785 0.000000
O O7 0.290380 0.799554 0.249038
#
# Coordination Sequence:
#
# PCOD9558340 Si02
#       5
#     8   8   2   4   4
#     4  11  27  53  82 121 174 233 299 372 458 547
#     4  12  25  45  84 124 171 226 292 374 448 538
#     4  12  22  44  76 126 174 214 296 356 450 516
#     4  12  25  50  82 126 168 223 290 374 442 533
#     4  12  28  52  87 115 169 233 294 358 455 541
#
# _framework density 26.069078000000001
#
# number of rings (size 3 to 8) (size 9 to 14) (size 15 to 20)
#    0.000    0.308    6.154    1.846    2.154    2.462 
#    0.000    0.000    0.000    0.000    0.000    0.000 
#    0.000    0.000    0.000    0.000    0.000    0.000 
#
# Total GULP energy -145057.520998 kJ/mol
# GULP energy per Si atom -5579.135423 kJ/mol
# Density = 2.600974 g / cm^3
# Si number density = 26.069078 Si / 1000 Ang^3
#
#
#
# Elastic Constant Matrix: (Units=GPa)
#
#
# Indices 1 2 3 4 5 6 
#
# 1 -20.6116 241.9237 13.0448 0.0000 0.0000 0.0000
# 2 241.9237 -20.6092 13.0385 0.0000 0.0000 0.0000
# 3 13.0448 13.0385 65.8341 0.0000 0.0000 0.0000
# 4 0.0000 0.0000 0.0000 33.3371 0.0000 0.0000
# 5 0.0000 0.0000 0.0000 0.0000 33.3366 0.0000
# 6 0.0000 0.0000 0.0000 0.0000 0.0000 60.1751
#
#
#
# Elastic Compliance Matrix: (Units=1/GPa)
#
#
# Indices 1 2 3 4 5 6 
#
# 1 0.000409 0.004218 -0.000916 0.000000 0.000000 0.000000
# 2 0.004218 0.000409 -0.000917 0.000000 0.000000 0.000000
# 3 -0.000916 -0.000917 0.015553 0.000000 0.000000 0.000000
# 4 0.000000 0.000000 0.000000 0.029997 0.000000 0.000000
# 5 0.000000 0.000000 0.000000 0.000000 0.029997 0.000000
# 6 0.000000 0.000000 0.000000 0.000000 0.000000 0.016618
#
#
# Mechanical properties :
#
#
# Convention : Reuss Voigt Hill
#
# Bulk Modulus (GPa) = 47.30415 62.29193 54.79804
# Shear Modulus (GPa) = 52.48840 9.14353 30.81596
#
# Velocity S-wave (km/s) = 4.49200 1.87484 3.44188
# Velocity P-wave (km/s) = 6.71485 5.35103 6.07135
#
# Compressibility (1/GPa) = 0.02113980
#
# Stress axis : x y z
#
# Youngs Moduli (GPa) = 2446.83969 2446.31763 64.29705
#
# Poissons Ratio (x) = -10.31799 0.05892
# Poissons Ratio (y) = -10.32019 0.05894
# Poissons Ratio (z) = 2.24206 2.24253
#
# Static dielectric constant tensor:
#      x y z
#    x 2.130080 0.000000 0.000000 
#    y 0.000000 2.130080 0.000000 
#    z 0.000000 0.000000 2.279870 
# 
# From -- ./inp_files/323.got.cif
#   From: 2010.05.17/outbox.cif.g08.bks.cpg/sg117_1_cif.got.tgz:323.got - 2010.05.20 11:15:09.
