data_PCOD9558800
_publ_section_title
;
Structure prediction by ZEFSAII (Michael W. Deem and Ramdas Pophale) SiO2 
 PCOD9558800
Probable space group: P -4 N 2
;
_chemical_formula_sum "Si O2"
_cell_formula_units_Z 56
_cell_length_a 14.513218
_cell_length_b 14.513218
_cell_length_c 11.946631
_cell_angle_alpha 90.000000
_cell_angle_beta 90.000000
_cell_angle_gamma 90.000000
_cell_volume 2516.360662
_symmetry_space_group_name_H-M "P -4 N 2"
_symmetry_group_IT_number 118
_symmetry_cell_setting 'tetragonal'
loop_
_space_group_symop_operation_xyz
x,y,z
y,-x,-z
-x,-y,z
-y,x,-z
1/2+y,1/2+x,1/2-z
1/2-y,1/2-x,1/2-z
1/2-x,1/2+y,1/2+z
1/2+x,1/2-y,1/2+z
loop_
_atom_site_type_symbol
_atom_site_label
_atom_site_fract_x
_atom_site_fract_y
_atom_site_fract_z
Si Si1 0.937770 0.330551 0.893105
Si Si2 0.836444 0.558060 0.400219
Si Si3 0.434827 0.396930 0.661178
Si Si4 0.502525 0.167503 0.026508
Si Si5 0.436912 0.206247 0.789536
Si Si6 0.367172 0.631710 0.593336
Si Si7 0.090715 0.263501 0.739630
O O1 0.884553 0.236340 0.862938
O O2 0.028398 0.331099 0.816555
O O3 0.883492 0.426130 0.897169
O O4 0.969877 0.318477 0.021168
O O5 0.846389 0.519800 0.275132
O O6 0.741712 0.615832 0.406285
O O7 0.923480 0.603853 0.461303
O O8 0.441523 0.305832 0.736785
O O9 0.546022 0.420250 0.654541
O O10 0.407481 0.376843 0.532332
O O11 0.337150 0.431813 0.711545
O O12 0.448617 0.211782 0.922290
O O13 0.558734 0.231317 0.111343
O O14 0.346568 0.153433 0.750000
O O15 0.193670 0.306331 0.750000
#
# Coordination Sequence:
#
# PCOD9558800 Si02
#       7
#     8   8   8   8   8   8   8
#     4  12  23  41  67 106 138 190 243 307 367 428
#     4  11  22  40  67 104 139 185 242 303 365 425
#     4  11  22  41  68 103 130 180 234 304 361 426
#     4  12  25  41  64 102 152 196 234 300 383 455
#     4  11  22  38  65 100 140 189 248 294 364 437
#     4  11  21  43  71 101 137 166 244 307 355 415
#     4  12  25  42  67 102 146 188 239 300 380 452
#
# _framework density 22.254360999999999
#
# number of rings (size 3 to 8) (size 9 to 14) (size 15 to 20)
#    0.000    0.571    7.143    1.714    0.000    4.286 
#    0.000    8.571    0.000    0.000    0.000    0.000 
#    0.000    0.000    0.000    0.000    0.000    0.000 
#
# Total GULP energy -312298.721206 kJ/mol
# GULP energy per Si atom -5576.762879 kJ/mol
# Density = 2.220371 g / cm^3
# Si number density = 22.254361 Si / 1000 Ang^3
#
#
#
# Elastic Constant Matrix: (Units=GPa)
#
#
# Indices 1 2 3 4 5 6 
#
# 1 44.5095 80.9724 17.8888 0.0000 0.0000 0.0000
# 2 80.9724 44.5074 17.8876 0.0000 0.0000 0.0000
# 3 17.8888 17.8876 100.5538 0.0000 0.0000 0.0000
# 4 0.0000 0.0000 0.0000 16.5638 0.0000 0.0000
# 5 0.0000 0.0000 0.0000 0.0000 16.5654 0.0000
# 6 0.0000 0.0000 0.0000 0.0000 0.0000 39.0138
#
#
#
# Elastic Compliance Matrix: (Units=1/GPa)
#
#
# Indices 1 2 3 4 5 6 
#
# 1 -0.009514 0.017910 -0.001493 0.000000 0.000000 0.000000
# 2 0.017910 -0.009515 -0.001494 0.000000 0.000000 0.000000
# 3 -0.001493 -0.001494 0.010476 0.000000 0.000000 0.000000
# 4 0.000000 0.000000 0.000000 0.060373 0.000000 0.000000
# 5 0.000000 0.000000 0.000000 0.000000 0.060367 0.000000
# 6 0.000000 0.000000 0.000000 0.000000 0.000000 0.025632
#
#
# Mechanical properties :
#
#
# Convention : Reuss Voigt Hill
#
# Bulk Modulus (GPa) = 46.96441 47.00758 46.98599
# Shear Modulus (GPa) = 43.45162 19.28338 31.36750
#
# Velocity S-wave (km/s) = 4.42350 2.94683 3.75840
# Velocity P-wave (km/s) = 6.87307 5.72251 6.32401
#
# Compressibility (1/GPa) = 0.02129272
#
# Stress axis : x y z
#
# Youngs Moduli (GPa) = -105.10376 -105.09946 95.45360
#
# Poissons Ratio (x) = 1.88231 0.14254
# Poissons Ratio (y) = 1.88238 0.14257
# Poissons Ratio (z) = -0.15696 -0.15698
#
# Static dielectric constant tensor:
#      x y z
#    x 1.937560 0.000000 0.000000 
#    y 0.000000 1.937560 0.000000 
#    z 0.000000 0.000000 1.790770 
# 
# From -- ./inp_files/3410.got.cif
#   From: 2010.05.17/outbox.cif.g08.bks.cpg/sg118_2_cif.got.tgz:3410.got - 2010.05.20 11:17:24.
