data_PCOD9558057
_publ_section_title
;
Structure prediction by ZEFSAII (Michael W. Deem and Ramdas Pophale) SiO2 
 PCOD9558057
Probable space group: P -4 B 2
;
_chemical_formula_sum "Si O2"
_cell_formula_units_Z 56
_cell_length_a 13.745101
_cell_length_b 13.745101
_cell_length_c 14.337182
_cell_angle_alpha 90.000000
_cell_angle_beta 90.000000
_cell_angle_gamma 90.000000
_cell_volume 2708.692275
_symmetry_space_group_name_H-M "P -4 B 2"
_symmetry_group_IT_number 117
_symmetry_cell_setting 'tetragonal'
loop_
_space_group_symop_operation_xyz
x,y,z
y,-x,-z
-x,-y,z
-y,x,-z
1/2+y,1/2+x,-z
1/2-y,1/2-x,-z
1/2-x,1/2+y,z
1/2+x,1/2-y,z
loop_
_atom_site_type_symbol
_atom_site_label
_atom_site_fract_x
_atom_site_fract_y
_atom_site_fract_z
Si Si1 0.802318 0.043641 0.843978
Si Si2 0.082274 0.736695 0.714615
Si Si3 0.644323 0.577444 0.211799
Si Si4 0.138679 0.218322 0.970062
Si Si5 0.943777 0.592735 0.608790
Si Si6 0.223647 0.300432 0.702032
Si Si7 0.381168 0.160770 0.102196
O O1 0.771085 0.136836 0.784906
O O2 0.879406 0.963548 0.805301
O O3 0.702290 0.983139 0.860895
O O4 0.834186 0.090366 0.942180
O O5 0.180981 0.754409 0.657943
O O6 0.109381 0.676393 0.811269
O O7 0.025027 0.836604 0.738821
O O8 0.011599 0.678881 0.645760
O O9 0.702277 0.565658 0.114092
O O10 0.711016 0.656661 0.265419
O O11 0.237584 0.171908 0.927822
O O12 0.174158 0.325843 0.000000
O O13 0.927853 0.572148 0.500000
O O14 0.838671 0.621734 0.646624
O O15 0.000000 0.500000 0.649687
O O16 0.390505 0.109496 0.000000
#
# Coordination Sequence:
#
# PCOD9558057 Si02
#       7
#     8   8   8   8   8   8   8
#     4  11  20  34  61  84 124 174 224 280 331 396
#     4  11  21  41  67  93 137 174 220 292 347 421
#     4  10  22  37  56  90 123 177 230 269 346 402
#     4  10  17  32  53  80 126 172 222 278 315 382
#     4  10  24  46  71 104 131 168 225 284 346 437
#     4  11  21  41  66  92 128 170 219 280 345 413
#     4  10  19  34  56  88 127 182 227 276 332 391
#
# _framework density 20.674182999999999
#
# number of rings (size 3 to 8) (size 9 to 14) (size 15 to 20)
#    0.000    1.571    4.286    2.571    0.000    1.714 
#    2.571    2.857    0.000    0.000    0.000    0.000 
#    0.000    0.000    0.000    0.000    0.000    0.000 
#
# Total GULP energy -311738.705954 kJ/mol
# GULP energy per Si atom -5566.762606 kJ/mol
# Density = 2.062713 g / cm^3
# Si number density = 20.674183 Si / 1000 Ang^3
#
#
#
# Elastic Constant Matrix: (Units=GPa)
#
#
# Indices 1 2 3 4 5 6 
#
# 1 63.8955 47.8493 22.2842 0.0000 0.0000 0.0000
# 2 47.8493 63.8935 22.2847 0.0000 0.0000 0.0000
# 3 22.2842 22.2847 44.2627 0.0000 0.0000 0.0000
# 4 0.0000 0.0000 0.0000 -20.6930 0.0000 0.0000
# 5 0.0000 0.0000 0.0000 0.0000 -20.7402 0.0000
# 6 0.0000 0.0000 0.0000 0.0000 0.0000 31.1284
#
#
#
# Elastic Compliance Matrix: (Units=1/GPa)
#
#
# Indices 1 2 3 4 5 6 
#
# 1 0.036760 -0.025563 -0.005637 0.000000 0.000000 0.000000
# 2 -0.025563 0.036762 -0.005638 0.000000 0.000000 0.000000
# 3 -0.005637 -0.005638 0.028269 0.000000 0.000000 0.000000
# 4 0.000000 0.000000 0.000000 -0.048325 0.000000 0.000000
# 5 0.000000 0.000000 0.000000 0.000000 -0.048216 0.000000
# 6 0.000000 0.000000 0.000000 0.000000 0.000000 0.032125
#
#
# Mechanical properties :
#
#
# Convention : Reuss Voigt Hill
#
# Bulk Modulus (GPa) = 35.56948 39.65422 37.61185
# Shear Modulus (GPa) = 41.52049 3.24795 22.38422
#
# Velocity S-wave (km/s) = 4.48630 1.25476 3.29403
# Velocity P-wave (km/s) = 6.63912 4.61751 5.71836
#
# Compressibility (1/GPa) = 0.02811399
#
# Stress axis : x y z
#
# Youngs Moduli (GPa) = 27.20348 27.20220 35.37454
#
# Poissons Ratio (x) = 0.69538 0.19940
# Poissons Ratio (y) = 0.69541 0.19945
# Poissons Ratio (z) = 0.15334 0.15337
#
# Static dielectric constant tensor:
#      x y z
#    x 1.903030 0.000000 0.000000 
#    y 0.000000 1.902990 0.000000 
#    z 0.000000 0.000000 1.915790 
# 
# From -- ./inp_files/3215.got.cif
#   From: 2010.05.17/outbox.cif.g08.bks.cpg/sg117_2_cif.got.tgz:3215.got - 2010.05.20 11:15:09.
