data_PCOD9558530
_publ_section_title
;
Structure prediction by ZEFSAII (Michael W. Deem and Ramdas Pophale) SiO2 
 PCOD9558530
Probable space group: P -4 N 2
;
_chemical_formula_sum "Si O2"
_cell_formula_units_Z 30
_cell_length_a 9.822141
_cell_length_b 9.822141
_cell_length_c 16.760532
_cell_angle_alpha 90.000000
_cell_angle_beta 90.000000
_cell_angle_gamma 90.000000
_cell_volume 1616.963170
_symmetry_space_group_name_H-M "P -4 N 2"
_symmetry_group_IT_number 118
_symmetry_cell_setting 'tetragonal'
loop_
_space_group_symop_operation_xyz
x,y,z
y,-x,-z
-x,-y,z
-y,x,-z
1/2+y,1/2+x,1/2-z
1/2-y,1/2-x,1/2-z
1/2-x,1/2+y,1/2+z
1/2+x,1/2-y,1/2+z
loop_
_atom_site_type_symbol
_atom_site_label
_atom_site_fract_x
_atom_site_fract_y
_atom_site_fract_z
Si Si1 0.000000 0.000000 0.000000
Si Si2 0.261488 0.092842 0.093840
Si Si3 0.115856 0.819150 0.480515
Si Si4 0.868145 0.690678 0.666811
Si Si5 0.165418 0.665418 0.750000
O O1 0.122085 0.054884 0.052755
O O2 0.345569 0.185853 0.031669
O O3 0.231859 0.170612 0.177005
O O4 0.332873 0.951926 0.122602
O O5 0.192860 0.834522 0.396492
O O6 0.953782 0.833865 0.471797
O O7 0.788718 0.711282 0.750000
O O8 0.022440 0.680039 0.701381
#
# Coordination Sequence:
#
# PCOD9558530 Si02
#       5
#     2   8   8   8   4
#     4  12  24  36  64  96 120 166 208 268 312 364
#     4  11  21  39  59  92 122 157 209 258 305 361
#     4  11  23  38  60  94 126 160 201 257 315 365
#     4  10  20  38  65  86 115 165 215 245 301 371
#     4  10  21  40  68  86 115 176 211 248 304 384
#
# _framework density 18.5533
#
# number of rings (size 3 to 8) (size 9 to 14) (size 15 to 20)
#    0.000    1.333    5.333    3.600    0.000    0.000 
#    9.600    0.000    0.000    0.000    0.000    5.600 
#    0.000    0.000    0.000    0.000    0.000    0.000 
#
# Total GULP energy -167151.808291 kJ/mol
# GULP energy per Si atom -5571.726943 kJ/mol
# Density = 1.851107 g / cm^3
# Si number density = 18.553300 Si / 1000 Ang^3
#
#
#
# Elastic Constant Matrix: (Units=GPa)
#
#
# Indices 1 2 3 4 5 6 
#
# 1 59.8698 27.8729 48.9159 0.0000 0.0000 0.0000
# 2 27.8729 59.8698 48.9159 0.0000 0.0000 0.0000
# 3 48.9159 48.9159 160.8304 0.0000 0.0000 0.0000
# 4 0.0000 0.0000 0.0000 -37.2708 0.0000 0.0000
# 5 0.0000 0.0000 0.0000 0.0000 -37.2708 0.0000
# 6 0.0000 0.0000 0.0000 0.0000 0.0000 21.4521
#
#
#
# Elastic Compliance Matrix: (Units=1/GPa)
#
#
# Indices 1 2 3 4 5 6 
#
# 1 0.024249 -0.007004 -0.005245 0.000000 0.000000 0.000000
# 2 -0.007004 0.024249 -0.005245 0.000000 0.000000 0.000000
# 3 -0.005245 -0.005245 0.009408 0.000000 0.000000 0.000000
# 4 0.000000 0.000000 0.000000 -0.026831 0.000000 0.000000
# 5 0.000000 0.000000 0.000000 0.000000 -0.026831 0.000000
# 6 0.000000 0.000000 0.000000 0.000000 0.000000 0.046615
#
#
# Mechanical properties :
#
#
# Convention : Reuss Voigt Hill
#
# Bulk Modulus (GPa) = 43.63325 59.10883 51.37104
# Shear Modulus (GPa) = 53.48282 -0.29355 26.59464
#
# Velocity S-wave (km/s) = 5.37486 -0.39820 3.79016
# Velocity P-wave (km/s) = 7.87958 5.63176 6.84852
#
# Compressibility (1/GPa) = 0.02291830
#
# Stress axis : x y z
#
# Youngs Moduli (GPa) = 41.23873 41.23873 106.28995
#
# Poissons Ratio (x) = 0.28884 0.55749
# Poissons Ratio (y) = 0.28884 0.55749
# Poissons Ratio (z) = 0.21630 0.21630
#
# Static dielectric constant tensor:
#      x y z
#    x 1.686210 0.000000 0.000000 
#    y 0.000000 1.686210 0.000000 
#    z 0.000000 0.000000 1.674310 
# 
# From -- ./inp_files/3908.got.cif
#   From: 2010.05.17/outbox.cif.g08.bks.cpg/sg118_2_cif.got.tgz:3908.got - 2010.05.20 11:17:24.
