data_PCOD9558602
_publ_section_title
;
Structure prediction by ZEFSAII (Michael W. Deem and Ramdas Pophale) SiO2 
 PCOD9558602
Probable space group: P -4 N 2
;
_chemical_formula_sum "Si O2"
_cell_formula_units_Z 26
_cell_length_a 12.616843
_cell_length_b 12.616843
_cell_length_c 7.105237
_cell_angle_alpha 90.000000
_cell_angle_beta 90.000000
_cell_angle_gamma 90.000000
_cell_volume 1131.045214
_symmetry_space_group_name_H-M "P -4 N 2"
_symmetry_group_IT_number 118
_symmetry_cell_setting 'tetragonal'
loop_
_space_group_symop_operation_xyz
x,y,z
y,-x,-z
-x,-y,z
-y,x,-z
1/2+y,1/2+x,1/2-z
1/2-y,1/2-x,1/2-z
1/2-x,1/2+y,1/2+z
1/2+x,1/2-y,1/2+z
loop_
_atom_site_type_symbol
_atom_site_label
_atom_site_fract_x
_atom_site_fract_y
_atom_site_fract_z
Si Si1 0.481582 0.227710 0.904556
Si Si2 0.500000 0.000000 0.750000
Si Si3 0.209828 0.250364 0.474112
Si Si4 0.944315 0.845657 0.029832
O O1 0.498411 0.104003 0.873275
O O2 0.585582 0.259898 0.020456
O O3 0.499994 0.288086 0.706318
O O4 0.363494 0.242740 0.977599
O O5 0.226639 0.273362 0.250000
O O6 0.269310 0.353954 0.555860
O O7 0.115726 0.045427 0.091547
#
# Coordination Sequence:
#
# PCOD9558602 Si02
#       4
#     8   2   8   8
#     4  11  23  41  69  94 139 183 235 291 367 426
#     4  12  20  44  66  92 132 188 220 290 356 436
#     4  10  23  43  65 102 138 181 236 295 355 439
#     4  10  21  40  65  96 135 178 232 286 357 435
#
# _framework density 22.987587000000001
#
# number of rings (size 3 to 8) (size 9 to 14) (size 15 to 20)
#    0.000    1.538    4.615    1.846    0.000   10.462 
#    0.000    0.769    0.000    0.000    0.000    0.000 
#    0.000    0.000    0.000    0.000    0.000    0.000 
#
# Total GULP energy -145160.768937 kJ/mol
# GULP energy per Si atom -5583.106498 kJ/mol
# Density = 2.293527 g / cm^3
# Si number density = 22.987587 Si / 1000 Ang^3
#
#
#
# Elastic Constant Matrix: (Units=GPa)
#
#
# Indices 1 2 3 4 5 6 
#
# 1 143.1548 -18.8447 25.7572 0.0000 0.0000 0.0000
# 2 -18.8447 143.1511 25.7562 0.0000 0.0000 0.0000
# 3 25.7572 25.7562 59.2952 0.0000 0.0000 0.0000
# 4 0.0000 0.0000 0.0000 56.9690 0.0000 0.0000
# 5 0.0000 0.0000 0.0000 0.0000 56.9702 0.0000
# 6 0.0000 0.0000 0.0000 0.0000 0.0000 54.2738
#
#
#
# Elastic Compliance Matrix: (Units=1/GPa)
#
#
# Indices 1 2 3 4 5 6 
#
# 1 0.007992 0.001819 -0.004261 0.000000 0.000000 0.000000
# 2 0.001819 0.007992 -0.004261 0.000000 0.000000 0.000000
# 3 -0.004261 -0.004261 0.020567 0.000000 0.000000 0.000000
# 4 0.000000 0.000000 0.000000 0.017553 0.000000 0.000000
# 5 0.000000 0.000000 0.000000 0.000000 0.017553 0.000000
# 6 0.000000 0.000000 0.000000 0.000000 0.000000 0.018425
#
#
# Mechanical properties :
#
#
# Convention : Reuss Voigt Hill
#
# Bulk Modulus (GPa) = 43.21148 45.65985 44.43566
# Shear Modulus (GPa) = 44.96228 54.50477 49.73352
#
# Velocity S-wave (km/s) = 4.42740 4.87463 4.65638
# Velocity P-wave (km/s) = 6.70629 7.18252 6.94849
#
# Compressibility (1/GPa) = 0.02314200
#
# Stress axis : x y z
#
# Youngs Moduli (GPa) = 125.13113 125.12840 48.62161
#
# Poissons Ratio (x) = -0.22758 0.20720
# Poissons Ratio (y) = -0.22759 0.20720
# Poissons Ratio (z) = 0.53325 0.53323
#
# Static dielectric constant tensor:
#      x y z
#    x 1.788660 0.000000 0.000000 
#    y 0.000000 1.788660 0.000000 
#    z 0.000000 0.000000 1.942080 
# 
# From -- ./inp_files/1395.got.cif
#   From: 2010.05.17/outbox.cif.g08.bks.cpg/sg118_1_cif.got.tgz:1395.got - 2010.05.20 11:17:24.
