data_PCOD9558623
_publ_section_title
;
Structure prediction by ZEFSAII (Michael W. Deem and Ramdas Pophale) SiO2 
 PCOD9558623
Probable space group: P -4 N 2
;
_chemical_formula_sum "Si O2"
_cell_formula_units_Z 40
_cell_length_a 8.809756
_cell_length_b 8.809756
_cell_length_c 22.497433
_cell_angle_alpha 90.000000
_cell_angle_beta 90.000000
_cell_angle_gamma 90.000000
_cell_volume 1746.066288
_symmetry_space_group_name_H-M "P -4 N 2"
_symmetry_group_IT_number 118
_symmetry_cell_setting 'tetragonal'
loop_
_space_group_symop_operation_xyz
x,y,z
y,-x,-z
-x,-y,z
-y,x,-z
1/2+y,1/2+x,1/2-z
1/2-y,1/2-x,1/2-z
1/2-x,1/2+y,1/2+z
1/2+x,1/2-y,1/2+z
loop_
_atom_site_type_symbol
_atom_site_label
_atom_site_fract_x
_atom_site_fract_y
_atom_site_fract_z
Si Si1 0.731699 0.832797 0.311647
Si Si2 0.083820 0.160803 0.600976
Si Si3 0.829263 0.445607 0.188889
Si Si4 0.637824 0.102987 0.003820
Si Si5 0.095415 0.847383 0.912624
O O1 0.647174 0.852826 0.250000
O O2 0.643452 0.704763 0.348061
O O3 0.903419 0.772203 0.299527
O O4 0.744053 0.978434 0.353750
O O5 0.244941 0.137462 0.634353
O O6 0.092765 0.244578 0.538169
O O7 0.000000 0.000000 0.594078
O O8 0.849064 0.349064 0.250000
O O9 0.000000 0.500000 0.174126
O O10 0.500000 0.000000 0.982557
O O11 0.722840 0.004969 0.054065
O O12 0.752439 0.134781 0.950917
O O13 0.000000 0.000000 0.913227
#
# Coordination Sequence:
#
# PCOD9558623 Si02
#       5
#     8   8   8   8   8
#     4  11  24  46  71 111 153 188 247 308 379 453
#     4  10  25  45  71 106 150 193 245 312 379 446
#     4  10  21  42  67 108 139 193 253 295 364 446
#     4  12  25  50  72 107 148 191 251 311 378 451
#     4  12  27  49  75 110 146 199 254 309 379 456
#
# _framework density 22.908635
#
# number of rings (size 3 to 8) (size 9 to 14) (size 15 to 20)
#    0.000    1.000    6.000    0.000    2.800    8.000 
#    0.000    1.000    0.000    0.000    0.000    0.000 
#    0.000    0.000    0.000    0.000    0.000    0.000 
#
# Total GULP energy -224166.775239 kJ/mol
# GULP energy per Si atom -5604.169381 kJ/mol
# Density = 2.285649 g / cm^3
# Si number density = 22.908635 Si / 1000 Ang^3
#
#
#
# Elastic Constant Matrix: (Units=GPa)
#
#
# Indices 1 2 3 4 5 6 
#
# 1 85.4581 21.6418 35.3164 0.0000 0.0000 0.0000
# 2 21.6418 85.4581 35.3164 0.0000 0.0000 0.0000
# 3 35.3164 35.3164 125.0981 0.0000 0.0000 0.0000
# 4 0.0000 0.0000 0.0000 3.2498 0.0000 0.0000
# 5 0.0000 0.0000 0.0000 0.0000 3.2498 0.0000
# 6 0.0000 0.0000 0.0000 0.0000 0.0000 21.0467
#
#
#
# Elastic Compliance Matrix: (Units=1/GPa)
#
#
# Indices 1 2 3 4 5 6 
#
# 1 0.013572 -0.002098 -0.003239 0.000000 0.000000 0.000000
# 2 -0.002098 0.013572 -0.003239 0.000000 0.000000 0.000000
# 3 -0.003239 -0.003239 0.009823 0.000000 0.000000 0.000000
# 4 0.000000 0.000000 0.000000 0.307716 0.000000 0.000000
# 5 0.000000 0.000000 0.000000 0.000000 0.307716 0.000000
# 6 0.000000 0.000000 0.000000 0.000000 0.000000 0.047513
#
#
# Mechanical properties :
#
#
# Convention : Reuss Voigt Hill
#
# Bulk Modulus (GPa) = 50.47201 53.39594 51.93398
# Shear Modulus (GPa) = 6.90925 19.09190 13.00057
#
# Velocity S-wave (km/s) = 1.73855 2.88999 2.38480
# Velocity P-wave (km/s) = 5.10977 5.87323 5.50475
#
# Compressibility (1/GPa) = 0.01981296
#
# Stress axis : x y z
#
# Youngs Moduli (GPa) = 73.68330 73.68330 101.80679
#
# Poissons Ratio (x) = 0.15462 0.32975
# Poissons Ratio (y) = 0.15462 0.32975
# Poissons Ratio (z) = 0.23866 0.23866
#
# Static dielectric constant tensor:
#      x y z
#    x 1.856340 0.000000 0.000000 
#    y 0.000000 1.856340 0.000000 
#    z 0.000000 0.000000 1.818650 
# 
# From -- ./inp_files/6027.got.cif
#   From: 2010.05.17/outbox.cif.g08.bks.cpg/sg118_4_cif.got.tgz:6027.got - 2010.05.20 11:17:24.
