data_PCOD9558484
_publ_section_title
;
Structure prediction by ZEFSAII (Michael W. Deem and Ramdas Pophale) SiO2 
 PCOD9558484
Probable space group: P -4 N 2
;
_chemical_formula_sum "Si O2"
_cell_formula_units_Z 32
_cell_length_a 15.018844
_cell_length_b 15.018844
_cell_length_c 7.651855
_cell_angle_alpha 90.000000
_cell_angle_beta 90.000000
_cell_angle_gamma 90.000000
_cell_volume 1725.995839
_symmetry_space_group_name_H-M "P -4 N 2"
_symmetry_group_IT_number 118
_symmetry_cell_setting 'tetragonal'
loop_
_space_group_symop_operation_xyz
x,y,z
y,-x,-z
-x,-y,z
-y,x,-z
1/2+y,1/2+x,1/2-z
1/2-y,1/2-x,1/2-z
1/2-x,1/2+y,1/2+z
1/2+x,1/2-y,1/2+z
loop_
_atom_site_type_symbol
_atom_site_label
_atom_site_fract_x
_atom_site_fract_y
_atom_site_fract_z
Si Si1 0.206519 0.898309 0.358276
Si Si2 0.098397 0.401604 0.750000
Si Si3 0.605087 0.394910 0.500001
Si Si4 0.401602 0.098399 0.250000
Si Si5 0.293482 0.601693 0.858278
O O1 0.313362 0.896139 0.365358
O O2 0.165468 0.834532 0.499998
O O3 0.177340 0.000000 0.392567
O O4 0.168602 0.876142 0.165127
O O5 0.103150 0.500001 0.663781
O O6 0.499999 0.383343 0.547146
O O7 0.668599 0.376140 0.665130
O O8 0.396137 0.186640 0.134643
#
# Coordination Sequence:
#
# PCOD9558484 Si02
#       5
#     8   4   8   4   8
#     4  10  20  34  57  84 110 145 184 226 276 328
#     4   9  20  38  56  78 112 151 188 226 268 319
#     4   9  18  32  52  84 120 144 171 222 284 336
#     4   9  20  38  56  78 112 151 188 226 268 319
#     4  10  20  34  57  84 110 145 184 226 276 328
#
# _framework density 18.540020999999999
#
# number of rings (size 3 to 8) (size 9 to 14) (size 15 to 20)
#    0.000    2.500    0.000    1.500    3.500    2.500 
#    0.000    0.000    0.000    3.000    0.000   14.000 
#    0.000    0.000    0.000    0.000    0.000    0.000 
#
# Total GULP energy -178212.464273 kJ/mol
# GULP energy per Si atom -5569.139509 kJ/mol
# Density = 1.849782 g / cm^3
# Si number density = 18.540021 Si / 1000 Ang^3
#
#
#
# Elastic Constant Matrix: (Units=GPa)
#
#
# Indices 1 2 3 4 5 6 
#
# 1 107.0939 70.9377 58.1339 0.0000 0.0000 0.0000
# 2 70.9377 107.0939 58.1339 0.0000 0.0000 0.0000
# 3 58.1339 58.1339 62.4203 0.0000 0.0000 0.0000
# 4 0.0000 0.0000 0.0000 9.7190 0.0000 0.0000
# 5 0.0000 0.0000 0.0000 0.0000 9.7190 0.0000
# 6 0.0000 0.0000 0.0000 0.0000 0.0000 26.8856
#
#
#
# Elastic Compliance Matrix: (Units=1/GPa)
#
#
# Indices 1 2 3 4 5 6 
#
# 1 0.020998 -0.006660 -0.013353 0.000000 0.000000 0.000000
# 2 -0.006660 0.020998 -0.013353 0.000000 0.000000 0.000000
# 3 -0.013353 -0.013353 0.040892 0.000000 0.000000 0.000000
# 4 0.000000 0.000000 0.000000 0.102891 0.000000 0.000000
# 5 0.000000 0.000000 0.000000 0.000000 0.102891 0.000000
# 6 0.000000 0.000000 0.000000 0.000000 0.000000 0.037195
#
#
# Mechanical properties :
#
#
# Convention : Reuss Voigt Hill
#
# Bulk Modulus (GPa) = 61.89786 72.33548 67.11667
# Shear Modulus (GPa) = 12.56341 15.22490 13.89416
#
# Velocity S-wave (km/s) = 2.60597 2.86875 2.74051
# Velocity P-wave (km/s) = 6.52023 7.07627 6.80393
#
# Compressibility (1/GPa) = 0.01615565
#
# Stress axis : x y z
#
# Youngs Moduli (GPa) = 47.62459 47.62459 24.45450
#
# Poissons Ratio (x) = 0.31719 0.32654
# Poissons Ratio (y) = 0.31719 0.32654
# Poissons Ratio (z) = 0.63592 0.63592
#
# Static dielectric constant tensor:
#      x y z
#    x 1.679170 0.000000 0.000000 
#    y 0.000000 1.679170 0.000000 
#    z 0.000000 0.000000 1.591360 
# 
# From -- ./inp_files/1629.got.cif
#   From: 2010.05.17/outbox.cif.g08.bks.cpg/sg118_1_cif.got.tgz:1629.got - 2010.05.20 11:17:24.
