data_PCOD9558618
_publ_section_title
;
Structure prediction by ZEFSAII (Michael W. Deem and Ramdas Pophale) SiO2 
 PCOD9558618
Probable space group: P -4 N 2
;
_chemical_formula_sum "Si O2"
_cell_formula_units_Z 32
_cell_length_a 7.724236
_cell_length_b 7.724236
_cell_length_c 22.439439
_cell_angle_alpha 90.000000
_cell_angle_beta 90.000000
_cell_angle_gamma 90.000000
_cell_volume 1338.822689
_symmetry_space_group_name_H-M "P -4 N 2"
_symmetry_group_IT_number 118
_symmetry_cell_setting 'tetragonal'
loop_
_space_group_symop_operation_xyz
x,y,z
y,-x,-z
-x,-y,z
-y,x,-z
1/2+y,1/2+x,1/2-z
1/2-y,1/2-x,1/2-z
1/2-x,1/2+y,1/2+z
1/2+x,1/2-y,1/2+z
loop_
_atom_site_type_symbol
_atom_site_label
_atom_site_fract_x
_atom_site_fract_y
_atom_site_fract_z
Si Si1 0.311093 0.076185 0.690753
Si Si2 0.353951 0.750041 0.989911
Si Si3 0.238390 0.691037 0.861050
Si Si4 0.293512 0.870568 0.112416
O O1 0.304250 0.195751 0.750000
O O2 0.304061 0.203817 0.635383
O O3 0.500000 0.000000 0.690993
O O4 0.197216 0.900844 0.684048
O O5 0.290310 0.883202 0.040574
O O6 0.560763 0.725414 0.994757
O O7 0.305717 0.779722 0.921700
O O8 0.188501 0.490986 0.872855
O O9 0.043973 0.763664 0.853005
#
# Coordination Sequence:
#
# PCOD9558618 Si02
#       4
#     8   8   8   8
#     4  11  25  46  63  91 136 186 233 291 344 413
#     4   9  16  32  64 101 143 183 213 281 360 428
#     4  10  21  41  69 103 138 173 234 286 356 429
#     4  10  21  41  70 104 134 182 227 288 359 420
#
# _framework density 23.901599000000001
#
# number of rings (size 3 to 8) (size 9 to 14) (size 15 to 20)
#    0.000    2.000    2.500    0.750    0.000    3.000 
#   18.000    1.250    0.000    0.000    0.000    0.000 
#    0.000    0.000    0.000    0.000    0.000    0.000 
#
# Total GULP energy -178403.233460 kJ/mol
# GULP energy per Si atom -5575.101046 kJ/mol
# Density = 2.384720 g / cm^3
# Si number density = 23.901599 Si / 1000 Ang^3
#
#
#
# Elastic Constant Matrix: (Units=GPa)
#
#
# Indices 1 2 3 4 5 6 
#
# 1 76.6677 30.9284 30.5816 0.0000 0.0000 0.0000
# 2 30.9284 76.6676 30.5817 0.0000 0.0000 0.0000
# 3 30.5816 30.5817 77.7700 0.0000 0.0000 0.0000
# 4 0.0000 0.0000 0.0000 34.8182 0.0000 0.0000
# 5 0.0000 0.0000 0.0000 0.0000 34.8169 0.0000
# 6 0.0000 0.0000 0.0000 0.0000 0.0000 26.3552
#
#
#
# Elastic Compliance Matrix: (Units=1/GPa)
#
#
# Indices 1 2 3 4 5 6 
#
# 1 0.016916 -0.004947 -0.004707 0.000000 0.000000 0.000000
# 2 -0.004947 0.016916 -0.004707 0.000000 0.000000 0.000000
# 3 -0.004707 -0.004707 0.016560 0.000000 0.000000 0.000000
# 4 0.000000 0.000000 0.000000 0.028721 0.000000 0.000000
# 5 0.000000 0.000000 0.000000 0.000000 0.028722 0.000000
# 6 0.000000 0.000000 0.000000 0.000000 0.000000 0.037943
#
#
# Mechanical properties :
#
#
# Convention : Reuss Voigt Hill
#
# Bulk Modulus (GPa) = 46.14229 46.14319 46.14274
# Shear Modulus (GPa) = 27.51436 28.46562 27.98999
#
# Velocity S-wave (km/s) = 3.39654 3.45476 3.42577
# Velocity P-wave (km/s) = 5.89313 5.93811 5.91567
#
# Compressibility (1/GPa) = 0.02167209
#
# Stress axis : x y z
#
# Youngs Moduli (GPa) = 59.11444 59.11428 60.38576
#
# Poissons Ratio (x) = 0.29242 0.28423
# Poissons Ratio (y) = 0.29242 0.28423
# Poissons Ratio (z) = 0.27824 0.27824
#
# Static dielectric constant tensor:
#      x y z
#    x 1.922010 0.000000 0.000000 
#    y 0.000000 1.922000 0.000000 
#    z 0.000000 0.000000 2.075690 
# 
# From -- ./inp_files/5891.got.cif
#   From: 2010.05.17/outbox.cif.g08.bks.cpg/sg118_3_cif.got.tgz:5891.got - 2010.05.20 11:17:24.
