data_PCOD9558236
_publ_section_title
;
Structure prediction by ZEFSAII (Michael W. Deem and Ramdas Pophale) SiO2 
 PCOD9558236
Probable space group: P -4 B 2
;
_chemical_formula_sum "Si O2"
_cell_formula_units_Z 28
_cell_length_a 14.435299
_cell_length_b 14.435299
_cell_length_c 6.916934
_cell_angle_alpha 90.000000
_cell_angle_beta 90.000000
_cell_angle_gamma 90.000000
_cell_volume 1441.335885
_symmetry_space_group_name_H-M "P -4 B 2"
_symmetry_group_IT_number 117
_symmetry_cell_setting 'tetragonal'
loop_
_space_group_symop_operation_xyz
x,y,z
y,-x,-z
-x,-y,z
-y,x,-z
1/2+y,1/2+x,-z
1/2-y,1/2-x,-z
1/2-x,1/2+y,z
1/2+x,1/2-y,z
loop_
_atom_site_type_symbol
_atom_site_label
_atom_site_fract_x
_atom_site_fract_y
_atom_site_fract_z
Si Si1 0.000000 0.500000 0.000000
Si Si2 0.816954 0.016622 0.753652
Si Si3 0.704595 0.356895 0.441490
Si Si4 0.942834 0.309383 0.912406
Si Si5 0.500000 0.500000 0.000000
O O1 0.993860 0.407128 0.872258
O O2 0.807944 0.110892 0.632418
O O3 0.816554 0.926883 0.616320
O O4 0.914012 0.023188 0.864313
O O5 0.741228 0.999722 0.919911
O O6 0.781661 0.281661 0.500000
O O7 0.746536 0.420189 0.269231
O O8 0.844496 0.344496 0.000000
#
# Coordination Sequence:
#
# PCOD9558236 Si02
#       5
#     2   8   8   8   2
#     4   8  20  44  70  92 128 182 210 282 334 412
#     4  12  25  43  68  99 136 182 229 290 347 424
#     4  12  25  44  69 103 137 179 235 293 351 426
#     4  10  22  47  67  94 139 176 224 281 349 412
#     4  12  24  46  64  96 142 184 220 286 356 404
#
# _framework density 19.426424000000001
#
# number of rings (size 3 to 8) (size 9 to 14) (size 15 to 20)
#    0.857    0.000    5.714    1.714    0.000    2.286 
#    2.571    5.000    0.000    0.000    0.000    0.000 
#    0.000    0.000    0.000    0.000    0.000    0.000 
#
# Total GULP energy -156248.275917 kJ/mol
# GULP energy per Si atom -5580.295568 kJ/mol
# Density = 1.938221 g / cm^3
# Si number density = 19.426424 Si / 1000 Ang^3
#
#
#
# Elastic Constant Matrix: (Units=GPa)
#
#
# Indices 1 2 3 4 5 6 
#
# 1 98.4172 35.1011 35.5830 0.0000 0.0000 0.0000
# 2 35.1011 98.4172 35.5830 0.0000 0.0000 0.0000
# 3 35.5830 35.5830 80.6818 0.0000 0.0000 0.0000
# 4 0.0000 0.0000 0.0000 21.6154 0.0000 0.0000
# 5 0.0000 0.0000 0.0000 0.0000 21.6154 0.0000
# 6 0.0000 0.0000 0.0000 0.0000 0.0000 40.1225
#
#
#
# Elastic Compliance Matrix: (Units=1/GPa)
#
#
# Indices 1 2 3 4 5 6 
#
# 1 0.012793 -0.003001 -0.004318 0.000000 0.000000 0.000000
# 2 -0.003001 0.012793 -0.004318 0.000000 0.000000 0.000000
# 3 -0.004318 -0.004318 0.016203 0.000000 0.000000 0.000000
# 4 0.000000 0.000000 0.000000 0.046263 0.000000 0.000000
# 5 0.000000 0.000000 0.000000 0.000000 0.046263 0.000000
# 6 0.000000 0.000000 0.000000 0.000000 0.000000 0.024924
#
#
# Mechanical properties :
#
#
# Convention : Reuss Voigt Hill
#
# Bulk Modulus (GPa) = 54.01640 54.45004 54.23322
# Shear Modulus (GPa) = 26.49922 28.08729 27.29325
#
# Velocity S-wave (km/s) = 3.69735 3.80653 3.75234
# Velocity P-wave (km/s) = 6.78920 6.88544 6.83749
#
# Compressibility (1/GPa) = 0.01851290
#
# Stress axis : x y z
#
# Youngs Moduli (GPa) = 78.17074 78.17074 61.71580
#
# Poissons Ratio (x) = 0.23461 0.26650
# Poissons Ratio (y) = 0.23461 0.26650
# Poissons Ratio (z) = 0.33756 0.33756
#
# Static dielectric constant tensor:
#      x y z
#    x 1.727820 0.000000 0.000000 
#    y 0.000000 1.727820 0.000000 
#    z 0.000000 0.000000 1.664400 
# 
# From -- ./inp_files/320.got.cif
#   From: 2010.05.17/outbox.cif.g08.bks.cpg/sg117_1_cif.got.tgz:320.got - 2010.05.20 11:15:09.
