data_PCOD9558945
_publ_section_title
;
Structure prediction by ZEFSAII (Michael W. Deem and Ramdas Pophale) SiO2 
 PCOD9558945
Probable space group: I -4 M 2
;
_chemical_formula_sum "Si O2"
_cell_formula_units_Z 70
_cell_length_a 15.244848
_cell_length_b 15.244848
_cell_length_c 14.618686
_cell_angle_alpha 90.000000
_cell_angle_beta 90.000000
_cell_angle_gamma 90.000000
_cell_volume 3397.461429
_symmetry_space_group_name_H-M "I -4 M 2"
_symmetry_group_IT_number 119
_symmetry_cell_setting 'tetragonal'
loop_
_space_group_symop_operation_xyz
x,y,z
y,-x,-z
-x,-y,z
-y,x,-z
y,x,-z
-y,-x,-z
-x,y,z
x,-y,z
1/2+x,1/2+y,1/2+z
1/2+y,1/2-x,1/2-z
1/2-x,1/2-y,1/2+z
1/2-y,1/2+x,1/2-z
1/2+y,1/2+x,1/2-z
1/2-y,1/2-x,1/2-z
1/2-x,1/2+y,1/2+z
1/2+x,1/2-y,1/2+z
loop_
_atom_site_type_symbol
_atom_site_label
_atom_site_fract_x
_atom_site_fract_y
_atom_site_fract_z
Si Si1 0.394965 0.000000 0.904414
Si Si2 0.000000 0.500000 0.750000
Si Si3 0.000000 0.000000 0.342299
Si Si4 0.809316 0.338478 0.103009
Si Si5 0.000000 0.662464 0.882182
Si Si6 0.000000 0.809541 0.423075
Si Si7 0.000000 0.205686 0.644002
Si Si8 0.306755 0.180682 0.381687
O O1 0.357550 0.908434 0.866531
O O2 0.500000 0.000000 0.895621
O O3 0.370200 0.000000 0.012514
O O4 0.000000 0.419658 0.816788
O O5 0.000000 0.090657 0.394991
O O6 0.107243 0.000000 0.309198
O O7 0.742571 0.417843 0.117286
O O8 0.762793 0.253429 0.142105
O O9 0.808360 0.330571 0.992079
O O10 0.092968 0.705183 0.861209
O O11 0.000000 0.808865 0.533414
O O12 0.910912 0.265104 0.656470
#
# Coordination Sequence:
#
# PCOD9558945 Si02
#       8
#     8   2   4  16   8   8   8  16
#     4  10  16  26  42  65  93 129 152 186 224 281
#     4  12  20  32  48  68  84 128 176 220 232 262
#     4  12  17  18  26  48  80 114 146 178 196 258
#     4   9  16  24  38  56  86 117 155 177 226 280
#     4  10  20  30  44  59  88 120 169 203 234 255
#     4  10  15  20  28  50  77 116 147 171 196 269
#     4  10  16  19  31  47  77 110 150 173 214 259
#     4   9  17  27  37  56  80 120 151 193 225 279
#
# _framework density 20.603618000000001
#
# number of rings (size 3 to 8) (size 9 to 14) (size 15 to 20)
#    0.000    2.286    4.000    1.714    3.200    0.000 
#    0.000    0.000    0.000    0.686    0.000    4.800 
#    0.000   10.971    0.000    1.714    0.000    0.000 
#
# Total GULP energy -194957.765787 kJ/mol
# GULP energy per Si atom -5570.221880 kJ/mol
# Density = 2.055672 g / cm^3
# Si number density = 20.603618 Si / 1000 Ang^3
#
#
#
# Elastic Constant Matrix: (Units=GPa)
#
#
# Indices 1 2 3 4 5 6 
#
# 1 186.4030 95.9771 8.4048 0.0000 0.0000 0.0000
# 2 95.9771 186.4030 8.4048 0.0000 0.0000 0.0000
# 3 8.4048 8.4048 28.8111 0.0000 0.0000 0.0000
# 4 0.0000 0.0000 0.0000 -28.0095 0.0000 0.0000
# 5 0.0000 0.0000 0.0000 0.0000 -28.0095 0.0000
# 6 0.0000 0.0000 0.0000 0.0000 0.0000 78.3332
#
#
#
# Elastic Compliance Matrix: (Units=1/GPa)
#
#
# Indices 1 2 3 4 5 6 
#
# 1 0.007331 -0.003727 -0.001051 0.000000 0.000000 0.000000
# 2 -0.003727 0.007331 -0.001051 0.000000 0.000000 0.000000
# 3 -0.001051 -0.001051 0.035322 0.000000 0.000000 0.000000
# 4 0.000000 0.000000 0.000000 -0.035702 0.000000 0.000000
# 5 0.000000 0.000000 0.000000 0.000000 -0.035702 0.000000
# 6 0.000000 0.000000 0.000000 0.000000 0.000000 0.012766
#
#
# Mechanical properties :
#
#
# Convention : Reuss Voigt Hill
#
# Bulk Modulus (GPa) = 26.09280 69.68784 47.89032
# Shear Modulus (GPa) = 316.82274 23.71820 170.27047
#
# Velocity S-wave (km/s) = 12.41387 3.39657 9.10057
# Velocity P-wave (km/s) = 14.77038 7.01988 11.56380
#
# Compressibility (1/GPa) = 0.03832475
#
# Stress axis : x y z
#
# Youngs Moduli (GPa) = 136.40063 136.40063 28.31072
#
# Poissons Ratio (x) = 0.50842 0.02976
# Poissons Ratio (y) = 0.50842 0.02976
# Poissons Ratio (z) = 0.14340 0.14340
#
# Static dielectric constant tensor:
#      x y z
#    x 1.774310 0.000000 0.000000 
#    y 0.000000 1.774310 0.000000 
#    z 0.000000 0.000000 1.735270 
# 
# From -- ./inp_files/6488.got.cif
#   From: 2010.05.17/outbox.cif.g08.bks.cpg/sg119_4_cif.got.tgz:6488.got - 2010.05.20 11:21:29.
