data_PCOD9558533
_publ_section_title
;
Structure prediction by ZEFSAII (Michael W. Deem and Ramdas Pophale) SiO2 
 PCOD9558533
Probable space group: P -4 N 2
;
_chemical_formula_sum "Si O2"
_cell_formula_units_Z 64
_cell_length_a 12.175112
_cell_length_b 12.175112
_cell_length_c 22.216885
_cell_angle_alpha 90.000000
_cell_angle_beta 90.000000
_cell_angle_gamma 90.000000
_cell_volume 3293.283339
_symmetry_space_group_name_H-M "P -4 N 2"
_symmetry_group_IT_number 118
_symmetry_cell_setting 'tetragonal'
loop_
_space_group_symop_operation_xyz
x,y,z
y,-x,-z
-x,-y,z
-y,x,-z
1/2+y,1/2+x,1/2-z
1/2-y,1/2-x,1/2-z
1/2-x,1/2+y,1/2+z
1/2+x,1/2-y,1/2+z
loop_
_atom_site_type_symbol
_atom_site_label
_atom_site_fract_x
_atom_site_fract_y
_atom_site_fract_z
Si Si1 0.497706 0.875118 0.560435
Si Si2 0.261517 0.154145 0.561751
Si Si3 0.334712 0.932801 0.807054
Si Si4 0.823128 0.782085 0.691538
Si Si5 0.891446 0.746030 0.464879
Si Si6 0.027951 0.614331 0.684874
Si Si7 0.492494 0.616440 0.754338
Si Si8 0.803089 0.819060 0.343974
O O1 0.612014 0.816534 0.543529
O O2 0.491224 0.878829 0.633490
O O3 0.376314 0.838249 0.540739
O O4 0.500000 0.000000 0.537499
O O5 0.243916 0.195659 0.630256
O O6 0.159235 0.204363 0.525225
O O7 0.259092 0.022217 0.548694
O O8 0.415158 0.915158 0.750000
O O9 0.223795 0.990984 0.786359
O O10 0.302497 0.808183 0.824953
O O11 0.751749 0.748252 0.750000
O O12 0.918922 0.689837 0.687051
O O13 0.876319 0.900044 0.704754
O O14 0.849037 0.821945 0.410753
O O15 0.076855 0.576855 0.750000
O O16 0.123361 0.686518 0.656775
O O17 0.000000 0.500000 0.652726
O O18 0.500000 0.500000 0.721308
O O19 0.384653 0.624701 0.796082
#
# Coordination Sequence:
#
# PCOD9558533 Si02
#       8
#     8   8   8   8   8   8   8   8
#     4   9  20  42  63  89 127 159 211 270 319 396
#     4  11  24  43  66  98 131 166 222 273 333 402
#     4   9  19  33  59  91 119 165 209 253 333 392
#     4  12  24  39  62  95 133 169 213 279 340 389
#     4  10  23  43  67  94 128 170 215 276 330 391
#     4  11  22  40  57  86 131 174 219 268 322 401
#     4  11  20  33  57  87 129 164 206 263 321 387
#     4  10  20  39  60  86 122 170 215 263 325 394
#
# _framework density 19.433494
#
# number of rings (size 3 to 8) (size 9 to 14) (size 15 to 20)
#    0.000    1.625    3.750    1.875    3.500    0.500 
#    2.250    0.000    2.750    0.000    0.000    0.000 
#    0.000    0.000    0.000    0.000    0.000    0.000 
#
# Total GULP energy -356501.345325 kJ/mol
# GULP energy per Si atom -5570.333521 kJ/mol
# Density = 1.938926 g / cm^3
# Si number density = 19.433494 Si / 1000 Ang^3
#
#
#
# Elastic Constant Matrix: (Units=GPa)
#
#
# Indices 1 2 3 4 5 6 
#
# 1 76.2964 31.1423 13.3880 0.0000 0.0000 0.0000
# 2 31.1423 76.2963 13.3880 0.0000 0.0000 0.0000
# 3 13.3880 13.3880 57.9850 0.0000 0.0000 0.0000
# 4 0.0000 0.0000 0.0000 23.4214 0.0000 0.0000
# 5 0.0000 0.0000 0.0000 0.0000 23.4245 0.0000
# 6 0.0000 0.0000 0.0000 0.0000 0.0000 34.3635
#
#
#
# Elastic Compliance Matrix: (Units=1/GPa)
#
#
# Indices 1 2 3 4 5 6 
#
# 1 0.016011 -0.006135 -0.002280 0.000000 0.000000 0.000000
# 2 -0.006135 0.016011 -0.002280 0.000000 0.000000 0.000000
# 3 -0.002280 -0.002280 0.018299 0.000000 0.000000 0.000000
# 4 0.000000 0.000000 0.000000 0.042696 0.000000 0.000000
# 5 0.000000 0.000000 0.000000 0.000000 0.042690 0.000000
# 6 0.000000 0.000000 0.000000 0.000000 0.000000 0.029101
#
#
# Mechanical properties :
#
#
# Convention : Reuss Voigt Hill
#
# Bulk Modulus (GPa) = 34.56652 36.26826 35.41739
# Shear Modulus (GPa) = 25.53067 26.41915 25.97491
#
# Velocity S-wave (km/s) = 3.62849 3.69109 3.65993
# Velocity P-wave (km/s) = 5.94814 6.07197 6.01037
#
# Compressibility (1/GPa) = 0.02892973
#
# Stress axis : x y z
#
# Youngs Moduli (GPa) = 62.45647 62.45632 54.64845
#
# Poissons Ratio (x) = 0.38319 0.12461
# Poissons Ratio (y) = 0.38319 0.12461
# Poissons Ratio (z) = 0.14241 0.14241
#
# Static dielectric constant tensor:
#      x y z
#    x 1.715970 0.000000 0.000000 
#    y 0.000000 1.715980 0.000000 
#    z 0.000000 0.000000 1.717470 
# 
# From -- ./inp_files/6259.got.cif
#   From: 2010.05.17/outbox.cif.g08.bks.cpg/sg118_4_cif.got.tgz:6259.got - 2010.05.20 11:17:24.
