data_PCOD9558942
_publ_section_title
;
Structure prediction by ZEFSAII (Michael W. Deem and Ramdas Pophale) SiO2 
 PCOD9558942
Probable space group: P -4 N 2
;
_chemical_formula_sum "Si O2"
_cell_formula_units_Z 56
_cell_length_a 15.000000
_cell_length_b 15.000000
_cell_length_c 12.000000
_cell_angle_alpha 90.000000
_cell_angle_beta 90.000000
_cell_angle_gamma 90.000000
_cell_volume 2700.000000
_symmetry_space_group_name_H-M "P -4 N 2"
_symmetry_group_IT_number 118
_symmetry_cell_setting 'tetragonal'
loop_
_space_group_symop_operation_xyz
x,y,z
y,-x,-z
-x,-y,z
-y,x,-z
1/2+y,1/2+x,1/2-z
1/2-y,1/2-x,1/2-z
1/2-x,1/2+y,1/2+z
1/2+x,1/2-y,1/2+z
loop_
_atom_site_type_symbol
_atom_site_label
_atom_site_fract_x
_atom_site_fract_y
_atom_site_fract_z
Si Si1 0.211634 0.405621 0.170401
Si Si2 0.636131 0.468403 0.541000
Si Si3 0.693501 0.684265 0.794884
Si Si4 0.455132 0.097520 0.976844
Si Si5 0.391304 0.510867 0.794474
Si Si6 0.220597 0.139922 0.448524
Si Si7 0.277191 0.049901 0.854576
O O1 0.141979 0.358022 0.250000
O O2 0.158747 0.466484 0.079234
O O3 0.275350 0.327531 0.117815
O O4 0.251492 0.475785 0.261563
O O5 0.567185 0.404014 0.476540
O O6 0.631337 0.446218 0.672584
O O7 0.727960 0.464706 0.473115
O O8 0.793579 0.706422 0.750000
O O9 0.658726 0.583613 0.788060
O O10 0.637624 0.739911 0.704172
O O11 0.668190 0.710615 0.921921
O O12 0.381273 0.064344 0.885661
O O13 0.500000 0.000000 0.016802
O O14 0.400023 0.174886 0.052754
O O15 0.500000 0.500000 0.804891
O O16 0.344977 0.563199 0.897723
#
# Coordination Sequence:
#
# PCOD9558942 Si02
#       7
#     8   8   8   8   8   8   8
#     4  12  25  45  80 115 151 198 270 331 398 475
#     4  11  21  42  68 109 155 201 260 311 389 464
#     4  12  24  44  69 106 157 205 254 321 400 471
#     4  12  26  50  79 115 153 213 266 335 408 490
#     4  12  26  45  75 110 163 209 259 327 409 478
#     4  12  28  46  74 119 158 198 269 333 400 486
#     4  12  23  43  78 109 149 203 267 328 386 475
#
# _framework density 20.740741
#
# number of rings (size 3 to 8) (size 9 to 14) (size 15 to 20)
#    0.000    0.143    7.143    3.000    2.000    3.429 
#    2.571    0.000    0.000    0.857    0.000    0.000 
#    0.000    0.000    0.000    0.000    0.000    0.000 
#
# Total GULP energy -312001.427768 kJ/mol
# GULP energy per Si atom -5571.454067 kJ/mol
# Density = 2.069353 g / cm^3
# Si number density = 20.740741 Si / 1000 Ang^3
#
#
#
# Elastic Constant Matrix: (Units=GPa)
#
#
# Indices 1 2 3 4 5 6 
#
# 1 106.5609 30.7570 26.2895 0.0000 0.0000 0.0000
# 2 30.7570 106.5600 26.2891 0.0000 0.0000 0.0000
# 3 26.2895 26.2891 100.5257 0.0000 0.0000 0.0000
# 4 0.0000 0.0000 0.0000 36.4899 0.0000 0.0000
# 5 0.0000 0.0000 0.0000 0.0000 36.4912 0.0000
# 6 0.0000 0.0000 0.0000 0.0000 0.0000 40.7912
#
#
#
# Elastic Compliance Matrix: (Units=1/GPa)
#
#
# Indices 1 2 3 4 5 6 
#
# 1 0.010642 -0.002550 -0.002116 0.000000 0.000000 0.000000
# 2 -0.002550 0.010642 -0.002116 0.000000 0.000000 0.000000
# 3 -0.002116 -0.002116 0.011055 0.000000 0.000000 0.000000
# 4 0.000000 0.000000 0.000000 0.027405 0.000000 0.000000
# 5 0.000000 0.000000 0.000000 0.000000 0.027404 0.000000
# 6 0.000000 0.000000 0.000000 0.000000 0.000000 0.024515
#
#
# Mechanical properties :
#
#
# Convention : Reuss Voigt Hill
#
# Bulk Modulus (GPa) = 53.26354 53.36864 53.31609
# Shear Modulus (GPa) = 38.02678 38.10853 38.06766
#
# Velocity S-wave (km/s) = 4.28651 4.29111 4.28881
# Velocity P-wave (km/s) = 7.08768 7.09498 7.09133
#
# Compressibility (1/GPa) = 0.01877457
#
# Stress axis : x y z
#
# Youngs Moduli (GPa) = 93.96423 93.96359 90.45961
#
# Poissons Ratio (x) = 0.23957 0.19145
# Poissons Ratio (y) = 0.23957 0.19145
# Poissons Ratio (z) = 0.19887 0.19886
#
# Static dielectric constant tensor:
#      x y z
#    x 1.887870 0.000000 0.000000 
#    y 0.000000 1.887870 0.000000 
#    z 0.000000 0.000000 1.746700 
# 
# From -- ./inp_files/3418.got.cif
#   From: 2010.05.17/outbox.ucp.g08.bks.cvg/sg118_2_cif.got.tgz:3418.got - 2010.06.11 11:34:11.
