data_PCOD9558712
_publ_section_title
;
Structure prediction by ZEFSAII (Michael W. Deem and Ramdas Pophale) SiO2 
 PCOD9558712
Probable space group: P -4 N 2
;
_chemical_formula_sum "Si O2"
_cell_formula_units_Z 20
_cell_length_a 7.742399
_cell_length_b 7.742399
_cell_length_c 11.970648
_cell_angle_alpha 90.000000
_cell_angle_beta 90.000000
_cell_angle_gamma 90.000000
_cell_volume 717.577409
_symmetry_space_group_name_H-M "P -4 N 2"
_symmetry_group_IT_number 118
_symmetry_cell_setting 'tetragonal'
loop_
_space_group_symop_operation_xyz
x,y,z
y,-x,-z
-x,-y,z
-y,x,-z
1/2+y,1/2+x,1/2-z
1/2-y,1/2-x,1/2-z
1/2-x,1/2+y,1/2+z
1/2+x,1/2-y,1/2+z
loop_
_atom_site_type_symbol
_atom_site_label
_atom_site_fract_x
_atom_site_fract_y
_atom_site_fract_z
Si Si1 0.645661 0.862508 0.442747
Si Si2 0.500000 0.500000 0.360266
Si Si3 0.256873 0.484354 0.175790
O O1 0.579838 0.666879 0.422459
O O2 0.828562 0.868756 0.380024
O O3 0.500000 0.000000 0.406033
O O4 0.685494 0.908667 0.571532
O O5 0.362026 0.577808 0.272705
O O6 0.118522 0.381479 0.250000
#
# Coordination Sequence:
#
# PCOD9558712 Si02
#       3
#     8   4   8
#     4  11  25  48  81 124 176 230 292 362 437 532
#     4  10  24  49  81 120 170 233 290 352 445 526
#     4  10  23  45  78 119 167 224 289 361 431 516
#
# _framework density 27.871562000000001
#
# number of rings (size 3 to 8) (size 9 to 14) (size 15 to 20)
#    0.000    1.600    0.000    2.400    0.000   14.400 
#    0.000   18.000    0.000    9.600    0.000    0.000 
#    0.000    0.000    0.000    0.000    0.000    0.000 
#
# Total GULP energy -112043.744145 kJ/mol
# GULP energy per Si atom -5602.187207 kJ/mol
# Density = 2.780812 g / cm^3
# Si number density = 27.871562 Si / 1000 Ang^3
#
#
#
# Elastic Constant Matrix: (Units=GPa)
#
#
# Indices 1 2 3 4 5 6 
#
# 1 137.0338 73.2749 96.4342 0.0000 0.0000 0.0000
# 2 73.2749 137.0347 96.4351 0.0000 0.0000 0.0000
# 3 96.4342 96.4351 192.0917 0.0000 0.0000 0.0000
# 4 0.0000 0.0000 0.0000 75.3669 0.0000 0.0000
# 5 0.0000 0.0000 0.0000 0.0000 75.3667 0.0000
# 6 0.0000 0.0000 0.0000 0.0000 0.0000 81.0676
#
#
#
# Elastic Compliance Matrix: (Units=1/GPa)
#
#
# Indices 1 2 3 4 5 6 
#
# 1 0.012248 -0.003436 -0.004424 0.000000 0.000000 0.000000
# 2 -0.003436 0.012248 -0.004424 0.000000 0.000000 0.000000
# 3 -0.004424 -0.004424 0.009647 0.000000 0.000000 0.000000
# 4 0.000000 0.000000 0.000000 0.013268 0.000000 0.000000
# 5 0.000000 0.000000 0.000000 0.000000 0.013268 0.000000
# 6 0.000000 0.000000 0.000000 0.000000 0.000000 0.012335
#
#
# Mechanical properties :
#
#
# Convention : Reuss Voigt Hill
#
# Bulk Modulus (GPa) = 104.42610 110.93874 107.68242
# Shear Modulus (GPa) = 49.61563 59.69464 54.65513
#
# Velocity S-wave (km/s) = 4.22376 4.63295 4.43308
# Velocity P-wave (km/s) = 7.83167 8.27702 8.05742
#
# Compressibility (1/GPa) = 0.00957615
#
# Stress axis : x y z
#
# Youngs Moduli (GPa) = 81.64673 81.64668 103.65398
#
# Poissons Ratio (x) = 0.28055 0.45853
# Poissons Ratio (y) = 0.28055 0.45854
# Poissons Ratio (z) = 0.36118 0.36119
#
# Static dielectric constant tensor:
#      x y z
#    x 2.268270 0.000000 0.000000 
#    y 0.000000 2.268270 0.000000 
#    z 0.000000 0.000000 2.172960 
# 
# From -- ./inp_files/2566.got.cif
#   From: 2010.05.17/outbox.cif.g08.bks.cpg/sg118_2_cif.got.tgz:2566.got - 2010.05.20 11:17:24.
