data_PCOD9558174
_publ_section_title
;
Structure prediction by ZEFSAII (Michael W. Deem and Ramdas Pophale) SiO2 
 PCOD9558174
Probable space group: P -4 B 2
;
_chemical_formula_sum "Si O2"
_cell_formula_units_Z 40
_cell_length_a 11.513771
_cell_length_b 11.513771
_cell_length_c 12.293203
_cell_angle_alpha 90.000000
_cell_angle_beta 90.000000
_cell_angle_gamma 90.000000
_cell_volume 1629.672091
_symmetry_space_group_name_H-M "P -4 B 2"
_symmetry_group_IT_number 117
_symmetry_cell_setting 'tetragonal'
loop_
_space_group_symop_operation_xyz
x,y,z
y,-x,-z
-x,-y,z
-y,x,-z
1/2+y,1/2+x,-z
1/2-y,1/2-x,-z
1/2-x,1/2+y,z
1/2+x,1/2-y,z
loop_
_atom_site_type_symbol
_atom_site_label
_atom_site_fract_x
_atom_site_fract_y
_atom_site_fract_z
Si Si1 0.425419 0.324278 0.994878
Si Si2 0.574803 0.107366 0.231228
Si Si3 0.436120 0.771215 0.568807
Si Si4 0.597950 0.739025 0.372059
Si Si5 0.279311 0.234828 0.825351
O O1 0.372263 0.255810 0.096424
O O2 0.354445 0.443094 0.990581
O O3 0.400539 0.270186 0.877550
O O4 0.644130 0.046019 0.330051
O O5 0.501284 0.210373 0.291274
O O6 0.668441 0.178208 0.160762
O O7 0.500000 0.000000 0.182072
O O8 0.329570 0.829570 0.500000
O O9 0.546166 0.769976 0.489381
O O10 0.393220 0.644842 0.610431
O O11 0.707792 0.785491 0.302050
#
# Coordination Sequence:
#
# PCOD9558174 Si02
#       5
#     8   8   8   8   8
#     4  10  22  42  68  95 133 168 214 279 356 412
#     4  10  22  38  62  95 128 175 226 269 333 386
#     4   9  21  37  57  90 125 178 220 269 322 376
#     4  10  21  39  61  89 135 170 227 270 323 394
#     4  10  22  42  65 100 128 172 221 280 338 412
#
# _framework density 24.544816999999998
#
# number of rings (size 3 to 8) (size 9 to 14) (size 15 to 20)
#    0.000    2.200    0.000    1.200    5.600    3.200 
#    0.000   11.000    0.000    0.000    0.000    0.000 
#    0.000    0.000    0.000    0.000    0.000    0.000 
#
# Total GULP energy -222992.422696 kJ/mol
# GULP energy per Si atom -5574.810567 kJ/mol
# Density = 2.448895 g / cm^3
# Si number density = 24.544817 Si / 1000 Ang^3
#
#
#
# Elastic Constant Matrix: (Units=GPa)
#
#
# Indices 1 2 3 4 5 6 
#
# 1 60.2560 38.7739 30.4989 0.0000 0.0000 0.0000
# 2 38.7739 60.2560 30.4989 0.0000 0.0000 0.0000
# 3 30.4989 30.4989 112.3994 0.0000 0.0000 0.0000
# 4 0.0000 0.0000 0.0000 28.3190 0.0000 0.0000
# 5 0.0000 0.0000 0.0000 0.0000 28.3190 0.0000
# 6 0.0000 0.0000 0.0000 0.0000 0.0000 31.5232
#
#
#
# Elastic Compliance Matrix: (Units=1/GPa)
#
#
# Indices 1 2 3 4 5 6 
#
# 1 0.029337 -0.017213 -0.003290 0.000000 0.000000 0.000000
# 2 -0.017213 0.029337 -0.003290 0.000000 0.000000 0.000000
# 3 -0.003290 -0.003290 0.010682 0.000000 0.000000 0.000000
# 4 0.000000 0.000000 0.000000 0.035312 0.000000 0.000000
# 5 0.000000 0.000000 0.000000 0.000000 0.035312 0.000000
# 6 0.000000 0.000000 0.000000 0.000000 0.000000 0.031723
#
#
# Mechanical properties :
#
#
# Convention : Reuss Voigt Hill
#
# Bulk Modulus (GPa) = 45.93168 48.05052 46.99110
# Shear Modulus (GPa) = 22.07054 26.50820 24.28937
#
# Velocity S-wave (km/s) = 3.00191 3.28989 3.14919
# Velocity P-wave (km/s) = 5.54701 5.83526 5.69296
#
# Compressibility (1/GPa) = 0.02177147
#
# Stress axis : x y z
#
# Youngs Moduli (GPa) = 34.08620 34.08620 93.61346
#
# Poissons Ratio (x) = 0.58673 0.30798
# Poissons Ratio (y) = 0.58673 0.30798
# Poissons Ratio (z) = 0.11214 0.11214
#
# Static dielectric constant tensor:
#      x y z
#    x 2.001280 0.000000 0.000000 
#    y 0.000000 2.001280 0.000000 
#    z 0.000000 0.000000 1.909090 
# 
# From -- ./inp_files/3120.got.cif
#   From: 2010.05.17/outbox.cif.g08.bks.cpg/sg117_2_cif.got.tgz:3120.got - 2010.05.20 11:15:09.
