data_PCOD9558857
_publ_section_title
;
Structure prediction by ZEFSAII (Michael W. Deem and Ramdas Pophale) SiO2 
 PCOD9558857
Probable space group: P -4 N 2
;
_chemical_formula_sum "Si O2"
_cell_formula_units_Z 32
_cell_length_a 8.892090
_cell_length_b 8.892090
_cell_length_c 17.511648
_cell_angle_alpha 90.000000
_cell_angle_beta 90.000000
_cell_angle_gamma 90.000000
_cell_volume 1384.633129
_symmetry_space_group_name_H-M "P -4 N 2"
_symmetry_group_IT_number 118
_symmetry_cell_setting 'tetragonal'
loop_
_space_group_symop_operation_xyz
x,y,z
y,-x,-z
-x,-y,z
-y,x,-z
1/2+y,1/2+x,1/2-z
1/2-y,1/2-x,1/2-z
1/2-x,1/2+y,1/2+z
1/2+x,1/2-y,1/2+z
loop_
_atom_site_type_symbol
_atom_site_label
_atom_site_fract_x
_atom_site_fract_y
_atom_site_fract_z
Si Si1 0.694217 0.605992 0.340185
Si Si2 0.666370 0.787667 0.558887
Si Si3 0.178013 0.976084 0.670019
Si Si4 0.500076 0.837325 0.406310
O O1 0.720856 0.488515 0.407392
O O2 0.816402 0.740298 0.343377
O O3 0.699706 0.513583 0.261514
O O4 0.542295 0.700294 0.350819
O O5 0.620711 0.844369 0.475326
O O6 0.792291 0.659221 0.557880
O O7 0.727297 0.911486 0.617432
O O8 0.000000 0.000000 0.653771
O O9 0.500000 0.000000 0.367953
#
# Coordination Sequence:
#
# PCOD9558857 Si02
#       4
#     8   8   8   8
#     4  11  24  44  71 103 144 195 245 304 383 453
#     4  12  24  43  70 100 144 191 252 309 378 459
#     4  11  24  45  69 104 144 191 250 308 372 453
#     4  12  25  43  67 106 143 191 248 316 385 451
#
# _framework density 23.110813
#
# number of rings (size 3 to 8) (size 9 to 14) (size 15 to 20)
#    0.000    0.500    2.500    6.750    0.000    2.000 
#    0.000    7.500    0.000    0.000    0.000    0.000 
#    0.000    0.000    0.000    0.000    0.000    0.000 
#
# Total GULP energy -178911.127725 kJ/mol
# GULP energy per Si atom -5590.972741 kJ/mol
# Density = 2.305821 g / cm^3
# Si number density = 23.110813 Si / 1000 Ang^3
#
#
#
# Elastic Constant Matrix: (Units=GPa)
#
#
# Indices 1 2 3 4 5 6 
#
# 1 87.5698 6.8765 5.7517 0.0000 0.0000 0.0000
# 2 6.8765 87.5698 5.7517 0.0000 0.0000 0.0000
# 3 5.7517 5.7517 84.1293 0.0000 0.0000 0.0000
# 4 0.0000 0.0000 0.0000 34.7777 0.0000 0.0000
# 5 0.0000 0.0000 0.0000 0.0000 34.7777 0.0000
# 6 0.0000 0.0000 0.0000 0.0000 0.0000 42.3169
#
#
#
# Elastic Compliance Matrix: (Units=1/GPa)
#
#
# Indices 1 2 3 4 5 6 
#
# 1 0.011535 -0.000858 -0.000730 0.000000 0.000000 0.000000
# 2 -0.000858 0.011535 -0.000730 0.000000 0.000000 0.000000
# 3 -0.000730 -0.000730 0.011986 0.000000 0.000000 0.000000
# 4 0.000000 0.000000 0.000000 0.028754 0.000000 0.000000
# 5 0.000000 0.000000 0.000000 0.000000 0.028754 0.000000
# 6 0.000000 0.000000 0.000000 0.000000 0.000000 0.023631
#
#
# Mechanical properties :
#
#
# Convention : Reuss Voigt Hill
#
# Bulk Modulus (GPa) = 32.87275 32.89207 32.88241
# Shear Modulus (GPa) = 38.17648 38.43373 38.30510
#
# Velocity S-wave (km/s) = 4.06875 4.08244 4.07560
# Velocity P-wave (km/s) = 6.02726 6.04028 6.03377
#
# Compressibility (1/GPa) = 0.03042033
#
# Stress axis : x y z
#
# Youngs Moduli (GPa) = 86.69443 86.69443 83.42873
#
# Poissons Ratio (x) = 0.07437 0.06090
# Poissons Ratio (y) = 0.07437 0.06090
# Poissons Ratio (z) = 0.06328 0.06328
#
# Static dielectric constant tensor:
#      x y z
#    x 1.868560 0.000000 0.000000 
#    y 0.000000 1.868560 0.000000 
#    z 0.000000 0.000000 1.849590 
# 
# From -- ./inp_files/5297.got.cif
#   From: 2010.05.17/outbox.cif.g08.bks.cpg/sg118_3_cif.got.tgz:5297.got - 2010.05.20 11:17:24.
