data_PCOD9558370
_publ_section_title
;
Structure prediction by ZEFSAII (Michael W. Deem and Ramdas Pophale) SiO2 
 PCOD9558370
Probable space group: P -4 B 2
;
_chemical_formula_sum "Si O2"
_cell_formula_units_Z 34
_cell_length_a 9.000000
_cell_length_b 9.000000
_cell_length_c 21.000000
_cell_angle_alpha 90.000000
_cell_angle_beta 90.000000
_cell_angle_gamma 90.000000
_cell_volume 1701.000000
_symmetry_space_group_name_H-M "P -4 B 2"
_symmetry_group_IT_number 117
_symmetry_cell_setting 'tetragonal'
loop_
_space_group_symop_operation_xyz
x,y,z
y,-x,-z
-x,-y,z
-y,x,-z
1/2+y,1/2+x,-z
1/2-y,1/2-x,-z
1/2-x,1/2+y,z
1/2+x,1/2-y,z
loop_
_atom_site_type_symbol
_atom_site_label
_atom_site_fract_x
_atom_site_fract_y
_atom_site_fract_z
Si Si1 0.000000 0.000000 0.000000
Si Si2 0.917331 0.349657 0.790724
Si Si3 0.362462 0.884446 0.423905
Si Si4 0.128340 0.890532 0.131057
Si Si5 0.349502 0.586232 0.338748
O O1 0.096419 0.097909 0.947065
O O2 0.767292 0.378738 0.832442
O O3 0.891009 0.249486 0.726373
O O4 0.000000 0.500000 0.769072
O O5 0.029443 0.274804 0.842155
O O6 0.343006 0.843006 0.500000
O O7 0.381238 0.739272 0.378175
O O8 0.500000 0.000000 0.421782
O O9 0.231509 0.978282 0.390077
O O10 0.000000 0.000000 0.155966
O O11 0.500000 0.500000 0.319937
#
# Coordination Sequence:
#
# PCOD9558370 Si02
#       5
#     2   8   8   8   8
#     4   8  24  48  72 104 152 184 234 300 356 444
#     4  12  25  45  74 108 145 194 245 307 369 437
#     4  11  27  46  71 106 143 191 248 306 376 452
#     4  10  23  46  71 103 148 190 243 297 365 440
#     4  12  27  46  74 103 147 194 245 309 374 441
#
# _framework density 19.988242
#
# number of rings (size 3 to 8) (size 9 to 14) (size 15 to 20)
#    0.706    0.235    0.000    5.647    6.588    6.588 
#    0.000    3.529    0.000    0.000    0.000    0.000 
#    0.000    0.000    0.000    0.000    0.000    0.000 
#
# Total GULP energy -189630.264298 kJ/mol
# GULP energy per Si atom -5577.360715 kJ/mol
# Density = 1.994275 g / cm^3
# Si number density = 19.988242 Si / 1000 Ang^3
#
#
#
# Elastic Constant Matrix: (Units=GPa)
#
#
# Indices 1 2 3 4 5 6 
#
# 1 135.1700 45.3069 61.4838 0.0000 0.0000 0.0000
# 2 45.3069 135.1700 61.4838 0.0000 0.0000 0.0000
# 3 61.4838 61.4838 210.8412 0.0000 0.0000 0.0000
# 4 0.0000 0.0000 0.0000 34.2676 0.0000 0.0000
# 5 0.0000 0.0000 0.0000 0.0000 34.2676 0.0000
# 6 0.0000 0.0000 0.0000 0.0000 0.0000 39.3419
#
#
#
# Elastic Compliance Matrix: (Units=1/GPa)
#
#
# Indices 1 2 3 4 5 6 
#
# 1 0.009021 -0.002107 -0.002016 0.000000 0.000000 0.000000
# 2 -0.002107 0.009021 -0.002016 0.000000 0.000000 0.000000
# 3 -0.002016 -0.002016 0.005919 0.000000 0.000000 0.000000
# 4 0.000000 0.000000 0.000000 0.029182 0.000000 0.000000
# 5 0.000000 0.000000 0.000000 0.000000 0.029182 0.000000
# 6 0.000000 0.000000 0.000000 0.000000 0.000000 0.025418
#
#
# Mechanical properties :
#
#
# Convention : Reuss Voigt Hill
#
# Bulk Modulus (GPa) = 85.59628 90.85892 88.22760
# Shear Modulus (GPa) = 40.34949 42.43587 41.39268
#
# Velocity S-wave (km/s) = 4.49783 4.61265 4.55560
# Velocity P-wave (km/s) = 8.36004 8.59788 8.47979
#
# Compressibility (1/GPa) = 0.01168275
#
# Stress axis : x y z
#
# Youngs Moduli (GPa) = 110.84752 110.84752 168.94931
#
# Poissons Ratio (x) = 0.23352 0.34067
# Poissons Ratio (y) = 0.23352 0.34067
# Poissons Ratio (z) = 0.22352 0.22352
#
# Static dielectric constant tensor:
#      x y z
#    x 1.830270 0.000000 0.000000 
#    y 0.000000 1.830270 0.000000 
#    z 0.000000 0.000000 1.690130 
# 
# From -- ./inp_files/3434.got.cif
#   From: 2010.05.17/outbox.ucp.g08.bks.cvg/sg117_2_cif.got.tgz:3434.got - 2010.06.11 11:34:02.
