data_PCOD9558397
_publ_section_title
;
Structure prediction by ZEFSAII (Michael W. Deem and Ramdas Pophale) SiO2 
 PCOD9558397
Probable space group: P -4 N 2
;
_chemical_formula_sum "Si O2"
_cell_formula_units_Z 36
_cell_length_a 15.184855
_cell_length_b 15.184855
_cell_length_c 6.969641
_cell_angle_alpha 90.000000
_cell_angle_beta 90.000000
_cell_angle_gamma 90.000000
_cell_volume 1607.058577
_symmetry_space_group_name_H-M "P -4 N 2"
_symmetry_group_IT_number 118
_symmetry_cell_setting 'tetragonal'
loop_
_space_group_symop_operation_xyz
x,y,z
y,-x,-z
-x,-y,z
-y,x,-z
1/2+y,1/2+x,1/2-z
1/2-y,1/2-x,1/2-z
1/2-x,1/2+y,1/2+z
1/2+x,1/2-y,1/2+z
loop_
_atom_site_type_symbol
_atom_site_label
_atom_site_fract_x
_atom_site_fract_y
_atom_site_fract_z
Si Si1 0.500000 0.819152 0.517808
Si Si2 1.000000 0.202887 0.393629
Si Si3 0.500000 0.000000 0.750000
Si Si4 0.688687 0.832223 0.524964
Si Si5 0.500000 0.500000 0.000000
Si Si6 0.832223 0.688687 0.475037
O O1 0.500000 0.740192 0.674834
O O2 0.595357 0.820101 0.417590
O O3 0.404643 0.820101 0.417590
O O4 0.500000 0.914251 0.620231
O O5 0.000000 0.096701 0.397405
O O6 0.084222 0.247299 0.497779
O O7 0.915778 0.247299 0.497778
O O8 0.663282 0.836719 0.750000
O O9 0.745411 0.745411 0.500000
O O10 0.836719 0.663282 0.250000
#
# Coordination Sequence:
#
# PCOD9558397 Si02
#       6
#     8   8   2   8   2   8
#     4  10  18  32  54  80 102 132 184 223 261 299
#     4  10  18  30  51  75 105 136 172 220 250 307
#     4  12  12  28  60  80  90 128 192 248 226 288
#     4  10  19  34  53  78 107 139 177 216 264 310
#     4  12  20  28  48  84 110 128 180 216 254 312
#     4  10  19  34  53  78 107 139 177 216 264 310
#
# _framework density 22.401174000000001
#
# number of rings (size 3 to 8) (size 9 to 14) (size 15 to 20)
#    0.000    1.778    8.889    0.000    0.000    0.000 
#    0.000   11.111    0.000    0.000    0.000    3.111 
#    0.000    0.000    0.000    0.000    0.000    0.000 
#
# Total GULP energy -200595.354173 kJ/mol
# GULP energy per Si atom -5572.093171 kJ/mol
# Density = 2.235019 g / cm^3
# Si number density = 22.401174 Si / 1000 Ang^3
#
#
#
# Elastic Constant Matrix: (Units=GPa)
#
#
# Indices 1 2 3 4 5 6 
#
# 1 221.1795 79.8474 9.0855 0.0000 0.0000 0.0000
# 2 79.8474 221.1795 9.0855 0.0000 0.0000 0.0000
# 3 9.0855 9.0855 48.2873 0.0000 0.0000 0.0000
# 4 0.0000 0.0000 0.0000 22.3147 0.0000 0.0000
# 5 0.0000 0.0000 0.0000 0.0000 22.3147 0.0000
# 6 0.0000 0.0000 0.0000 0.0000 0.0000 45.2829
#
#
#
# Elastic Compliance Matrix: (Units=1/GPa)
#
#
# Indices 1 2 3 4 5 6 
#
# 1 0.005218 -0.001858 -0.000632 0.000000 0.000000 0.000000
# 2 -0.001858 0.005218 -0.000632 0.000000 0.000000 0.000000
# 3 -0.000632 -0.000632 0.020947 0.000000 0.000000 0.000000
# 4 0.000000 0.000000 0.000000 0.044814 0.000000 0.000000
# 5 0.000000 0.000000 0.000000 0.000000 0.044814 0.000000
# 6 0.000000 0.000000 0.000000 0.000000 0.000000 0.022083
#
#
# Mechanical properties :
#
#
# Convention : Reuss Voigt Hill
#
# Bulk Modulus (GPa) = 39.77937 76.29810 58.03874
# Shear Modulus (GPa) = 31.70230 44.15764 37.92997
#
# Velocity S-wave (km/s) = 3.76600 4.44466 4.11933
# Velocity P-wave (km/s) = 6.05860 7.77649 6.97067
#
# Compressibility (1/GPa) = 0.02513866
#
# Stress axis : x y z
#
# Youngs Moduli (GPa) = 191.65054 191.65054 47.73884
#
# Poissons Ratio (x) = 0.35603 0.03018
# Poissons Ratio (y) = 0.35603 0.03018
# Poissons Ratio (z) = 0.12117 0.12117
#
# Static dielectric constant tensor:
#      x y z
#    x 1.862880 0.000000 0.000000 
#    y 0.000000 1.862880 0.000000 
#    z 0.000000 0.000000 1.950650 
# 
# From -- ./inp_files/1779.got.cif
#   From: 2010.05.17/outbox.cif.g08.bks.cpg/sg118_1_cif.got.tgz:1779.got - 2010.05.20 11:17:24.
