data_PCOD9558099
_publ_section_title
;
Structure prediction by ZEFSAII (Michael W. Deem and Ramdas Pophale) SiO2 
 PCOD9558099
Probable space group: P -4 B 2
;
_chemical_formula_sum "Si O2"
_cell_formula_units_Z 24
_cell_length_a 14.600609
_cell_length_b 14.600609
_cell_length_c 5.351567
_cell_angle_alpha 90.000000
_cell_angle_beta 90.000000
_cell_angle_gamma 90.000000
_cell_volume 1140.835190
_symmetry_space_group_name_H-M "P -4 B 2"
_symmetry_group_IT_number 117
_symmetry_cell_setting 'tetragonal'
loop_
_space_group_symop_operation_xyz
x,y,z
y,-x,-z
-x,-y,z
-y,x,-z
1/2+y,1/2+x,-z
1/2-y,1/2-x,-z
1/2-x,1/2+y,z
1/2+x,1/2-y,z
loop_
_atom_site_type_symbol
_atom_site_label
_atom_site_fract_x
_atom_site_fract_y
_atom_site_fract_z
Si Si1 0.777358 0.134689 0.095924
Si Si2 0.234356 0.550057 0.910269
Si Si3 0.480752 0.835804 0.586518
O O1 0.794505 0.042891 0.936965
O O2 0.686510 0.186510 0.000000
O O3 0.745815 0.094038 0.363732
O O4 0.860316 0.204218 0.075417
O O5 0.188849 0.545633 0.640988
O O6 0.166338 0.533525 0.147134
O O7 0.424444 0.924444 0.500000
#
# Coordination Sequence:
#
# PCOD9558099 Si02
#       3
#     8   8   8
#     4  10  22  39  62  84 122 156 200 242 301 354
#     4  10  22  34  60  90 113 158 198 242 296 362
#     4  10  19  38  59  81 118 159 195 236 297 349
#
# _framework density 21.037219
#
# number of rings (size 3 to 8) (size 9 to 14) (size 15 to 20)
#    2.000    0.000    3.333    1.000    4.667    0.667 
#    0.000    0.000    0.000   11.000    0.000    0.000 
#    0.000    0.000    0.000    0.000    0.000    0.000 
#
# Total GULP energy -133614.799182 kJ/mol
# GULP energy per Si atom -5567.283299 kJ/mol
# Density = 2.098934 g / cm^3
# Si number density = 21.037219 Si / 1000 Ang^3
#
#
#
# Elastic Constant Matrix: (Units=GPa)
#
#
# Indices 1 2 3 4 5 6 
#
# 1 107.0574 19.7735 35.9398 0.0000 0.0000 0.0000
# 2 19.7735 107.0574 35.9398 0.0000 0.0000 0.0000
# 3 35.9398 35.9398 161.8683 0.0000 0.0000 0.0000
# 4 0.0000 0.0000 0.0000 27.6989 0.0000 0.0000
# 5 0.0000 0.0000 0.0000 0.0000 27.6989 0.0000
# 6 0.0000 0.0000 0.0000 0.0000 0.0000 59.3910
#
#
#
# Elastic Compliance Matrix: (Units=1/GPa)
#
#
# Indices 1 2 3 4 5 6 
#
# 1 0.010238 -0.001219 -0.002003 0.000000 0.000000 0.000000
# 2 -0.001219 0.010238 -0.002003 0.000000 0.000000 0.000000
# 3 -0.002003 -0.002003 0.007067 0.000000 0.000000 0.000000
# 4 0.000000 0.000000 0.000000 0.036102 0.000000 0.000000
# 5 0.000000 0.000000 0.000000 0.000000 0.036102 0.000000
# 6 0.000000 0.000000 0.000000 0.000000 0.000000 0.016838
#
#
# Mechanical properties :
#
#
# Convention : Reuss Voigt Hill
#
# Bulk Modulus (GPa) = 58.49439 62.14327 60.31883
# Shear Modulus (GPa) = 37.66981 41.91312 39.79146
#
# Velocity S-wave (km/s) = 4.23617 4.46840 4.35383
# Velocity P-wave (km/s) = 7.19669 7.49839 7.34909
#
# Compressibility (1/GPa) = 0.01709566
#
# Stress axis : x y z
#
# Youngs Moduli (GPa) = 97.67379 97.67379 141.49989
#
# Poissons Ratio (x) = 0.11903 0.28337
# Poissons Ratio (y) = 0.11903 0.28337
# Poissons Ratio (z) = 0.19560 0.19560
#
# Static dielectric constant tensor:
#      x y z
#    x 1.769370 0.000000 0.000000 
#    y 0.000000 1.769370 0.000000 
#    z 0.000000 0.000000 1.776300 
# 
# From -- ./inp_files/168.got.cif
#   From: 2010.05.17/outbox.cif.g08.bks.cpg/sg117_1_cif.got.tgz:168.got - 2010.05.20 11:15:09.
