data_PCOD9558309
_publ_section_title
;
Structure prediction by ZEFSAII (Michael W. Deem and Ramdas Pophale) SiO2 
 PCOD9558309
Probable space group: P -4 B 2
;
_chemical_formula_sum "Si O2"
_cell_formula_units_Z 36
_cell_length_a 9.079201
_cell_length_b 9.079201
_cell_length_c 17.171053
_cell_angle_alpha 90.000000
_cell_angle_beta 90.000000
_cell_angle_gamma 90.000000
_cell_volume 1415.442366
_symmetry_space_group_name_H-M "P -4 B 2"
_symmetry_group_IT_number 117
_symmetry_cell_setting 'tetragonal'
loop_
_space_group_symop_operation_xyz
x,y,z
y,-x,-z
-x,-y,z
-y,x,-z
1/2+y,1/2+x,-z
1/2-y,1/2-x,-z
1/2-x,1/2+y,z
1/2+x,1/2-y,z
loop_
_atom_site_type_symbol
_atom_site_label
_atom_site_fract_x
_atom_site_fract_y
_atom_site_fract_z
Si Si1 0.947965 0.835490 0.768036
Si Si2 0.941331 0.169906 0.597694
Si Si3 0.162989 0.337012 0.500000
Si Si4 0.867450 0.399457 0.812702
Si Si5 0.957750 0.231431 0.027605
O O1 0.013783 0.788285 0.684727
O O2 0.771655 0.836213 0.765215
O O3 0.030261 0.740050 0.833682
O O4 0.000000 0.000000 0.779542
O O5 0.012239 0.285292 0.537767
O O6 0.772179 0.176857 0.574038
O O7 0.000000 0.000000 0.587109
O O8 0.778699 0.479879 0.882094
O O9 0.000000 0.500000 0.778403
O O10 0.882141 0.382141 0.000000
O O11 0.103952 0.164338 0.988899
#
# Coordination Sequence:
#
# PCOD9558309 Si02
#       5
#     8   8   4   8   8
#     4  11  26  47  75 105 152 196 255 321 389 476
#     4  11  24  45  67 105 144 191 245 311 377 444
#     4  12  20  44  70  96 148 190 244 310 368 448
#     4  12  27  48  76 112 147 198 250 317 395 466
#     4  11  28  47  74 107 145 191 246 308 380 463
#
# _framework density 25.433743
#
# number of rings (size 3 to 8) (size 9 to 14) (size 15 to 20)
#    0.000    0.667    2.222    4.000   12.444    2.222 
#    4.000    0.000    0.000    0.000    0.000    0.000 
#    0.000    0.000    0.000    0.000    0.000    0.000 
#
# Total GULP energy -200924.560469 kJ/mol
# GULP energy per Si atom -5581.237791 kJ/mol
# Density = 2.537585 g / cm^3
# Si number density = 25.433743 Si / 1000 Ang^3
#
#
#
# Elastic Constant Matrix: (Units=GPa)
#
#
# Indices 1 2 3 4 5 6 
#
# 1 132.7742 67.9442 23.1182 0.0000 0.0000 0.0000
# 2 67.9442 132.7741 23.1176 0.0000 0.0000 0.0000
# 3 23.1182 23.1176 57.1634 0.0000 0.0000 0.0000
# 4 0.0000 0.0000 0.0000 11.2882 0.0000 0.0000
# 5 0.0000 0.0000 0.0000 0.0000 11.2896 0.0000
# 6 0.0000 0.0000 0.0000 0.0000 0.0000 61.9686
#
#
#
# Elastic Compliance Matrix: (Units=1/GPa)
#
#
# Indices 1 2 3 4 5 6 
#
# 1 0.010459 -0.004966 -0.002222 0.000000 0.000000 0.000000
# 2 -0.004966 0.010459 -0.002222 0.000000 0.000000 0.000000
# 3 -0.002222 -0.002222 0.019291 0.000000 0.000000 0.000000
# 4 0.000000 0.000000 0.000000 0.088588 0.000000 0.000000
# 5 0.000000 0.000000 0.000000 0.000000 0.088577 0.000000
# 6 0.000000 0.000000 0.000000 0.000000 0.000000 0.016137
#
#
# Mechanical properties :
#
#
# Convention : Reuss Voigt Hill
#
# Bulk Modulus (GPa) = 46.74800 61.23018 53.98909
# Shear Modulus (GPa) = 19.27074 30.81140 25.04107
#
# Velocity S-wave (km/s) = 2.75559 3.48435 3.14118
# Velocity P-wave (km/s) = 5.34271 6.34935 5.86766
#
# Compressibility (1/GPa) = 0.02139129
#
# Stress axis : x y z
#
# Youngs Moduli (GPa) = 95.60722 95.60753 51.83817
#
# Poissons Ratio (x) = 0.47474 0.11518
# Poissons Ratio (y) = 0.47474 0.11517
# Poissons Ratio (z) = 0.21243 0.21241
#
# Static dielectric constant tensor:
#      x y z
#    x 2.104040 0.000000 0.000000 
#    y 0.000000 2.104060 0.000000 
#    z 0.000000 0.000000 2.206850 
# 
# From -- ./inp_files/3418.got.cif
#   From: 2010.05.17/outbox.cif.g08.bks.cpg/sg117_2_cif.got.tgz:3418.got - 2010.05.20 11:15:09.
