data_PCOD9558653
_publ_section_title
;
Structure prediction by ZEFSAII (Michael W. Deem and Ramdas Pophale) SiO2 
 PCOD9558653
Probable space group: P -4 N 2
;
_chemical_formula_sum "Si O2"
_cell_formula_units_Z 52
_cell_length_a 17.013029
_cell_length_b 17.013029
_cell_length_c 7.775399
_cell_angle_alpha 90.000000
_cell_angle_beta 90.000000
_cell_angle_gamma 90.000000
_cell_volume 2250.536024
_symmetry_space_group_name_H-M "P -4 N 2"
_symmetry_group_IT_number 118
_symmetry_cell_setting 'tetragonal'
loop_
_space_group_symop_operation_xyz
x,y,z
y,-x,-z
-x,-y,z
-y,x,-z
1/2+y,1/2+x,1/2-z
1/2-y,1/2-x,1/2-z
1/2-x,1/2+y,1/2+z
1/2+x,1/2-y,1/2+z
loop_
_atom_site_type_symbol
_atom_site_label
_atom_site_fract_x
_atom_site_fract_y
_atom_site_fract_z
Si Si1 0.443991 0.401770 0.930669
Si Si2 0.000000 0.000000 0.000000
Si Si3 0.833065 0.997292 0.915203
Si Si4 0.609745 0.750055 0.062226
Si Si5 0.546915 0.164795 0.101018
Si Si6 0.746308 0.341348 0.535740
Si Si7 0.500000 0.000000 0.250000
Si Si8 0.877958 0.710980 0.969491
O O1 0.493772 0.378148 0.764552
O O2 0.407492 0.488050 0.924667
O O3 0.382320 0.334005 0.972219
O O4 0.094340 0.987672 0.045413
O O5 0.792085 0.914039 0.941132
O O6 0.763773 0.060297 0.926205
O O7 0.519676 0.776083 0.040198
O O8 0.635110 0.741070 0.262107
O O9 0.664403 0.819736 0.993364
O O10 0.504509 0.081642 0.145140
O O11 0.621658 0.144704 0.982320
O O12 0.583284 0.199914 0.279429
O O13 0.699469 0.263299 0.483875
#
# Coordination Sequence:
#
# PCOD9558653 Si02
#       8
#     8   2   8   8   8   8   2   8
#     4  11  27  43  65  98 139 183 230 296 369 435
#     4  12  24  40  70  96 140 192 226 296 348 456
#     4  12  24  42  69 102 142 188 244 294 368 445
#     4  11  25  44  66  99 142 185 233 297 372 432
#     4  10  22  39  71  98 139 179 242 296 362 434
#     4  11  24  41  70 101 138 184 245 297 362 451
#     4   8  16  36  64  96 118 168 228 280 332 418
#     4  10  22  39  65 106 134 181 244 296 356 439
#
# _framework density 23.105605000000001
#
# number of rings (size 3 to 8) (size 9 to 14) (size 15 to 20)
#    0.000    1.385    3.077    2.769    8.615    1.846 
#    0.000    0.000    0.000    0.000    0.000    0.000 
#    0.000    0.000    0.000    0.000    0.000    0.000 
#
# Total GULP energy -290152.692426 kJ/mol
# GULP energy per Si atom -5579.859470 kJ/mol
# Density = 2.305302 g / cm^3
# Si number density = 23.105605 Si / 1000 Ang^3
#
#
#
# Elastic Constant Matrix: (Units=GPa)
#
#
# Indices 1 2 3 4 5 6 
#
# 1 119.4182 41.5078 13.4884 0.0000 0.0000 0.0000
# 2 41.5078 119.4182 13.4884 0.0000 0.0000 0.0000
# 3 13.4884 13.4884 68.7457 0.0000 0.0000 0.0000
# 4 0.0000 0.0000 0.0000 35.1458 0.0000 0.0000
# 5 0.0000 0.0000 0.0000 0.0000 35.1458 0.0000
# 6 0.0000 0.0000 0.0000 0.0000 0.0000 60.9768
#
#
#
# Elastic Compliance Matrix: (Units=1/GPa)
#
#
# Indices 1 2 3 4 5 6 
#
# 1 0.009630 -0.003205 -0.001261 0.000000 0.000000 0.000000
# 2 -0.003205 0.009630 -0.001261 0.000000 0.000000 0.000000
# 3 -0.001261 -0.001261 0.015041 0.000000 0.000000 0.000000
# 4 0.000000 0.000000 0.000000 0.028453 0.000000 0.000000
# 5 0.000000 0.000000 0.000000 0.000000 0.028453 0.000000
# 6 0.000000 0.000000 0.000000 0.000000 0.000000 0.016400
#
#
# Mechanical properties :
#
#
# Convention : Reuss Voigt Hill
#
# Bulk Modulus (GPa) = 43.76557 49.39459 46.58008
# Shear Modulus (GPa) = 39.47070 42.19351 40.83211
#
# Velocity S-wave (km/s) = 4.13761 4.27794 4.20836
# Velocity P-wave (km/s) = 6.46599 6.76943 6.61945
#
# Compressibility (1/GPa) = 0.02284901
#
# Stress axis : x y z
#
# Youngs Moduli (GPa) = 103.83873 103.83873 66.48457
#
# Poissons Ratio (x) = 0.33280 0.08382
# Poissons Ratio (y) = 0.33280 0.08382
# Poissons Ratio (z) = 0.13091 0.13091
#
# Static dielectric constant tensor:
#      x y z
#    x 1.879330 0.000000 0.000000 
#    y 0.000000 1.879330 0.000000 
#    z 0.000000 0.000000 2.006820 
# 
# From -- ./inp_files/2216.got.cif
#   From: 2010.05.17/outbox.cif.g08.bks.cpg/sg118_2_cif.got.tgz:2216.got - 2010.05.20 11:17:24.
