data_PCOD9558367
_publ_section_title
;
Structure prediction by ZEFSAII (Michael W. Deem and Ramdas Pophale) SiO2 
 PCOD9558367
Probable space group: P -4 B 2
;
_chemical_formula_sum "Si O2"
_cell_formula_units_Z 24
_cell_length_a 13.230619
_cell_length_b 13.230619
_cell_length_c 4.520665
_cell_angle_alpha 90.000000
_cell_angle_beta 90.000000
_cell_angle_gamma 90.000000
_cell_volume 791.339149
_symmetry_space_group_name_H-M "P -4 B 2"
_symmetry_group_IT_number 117
_symmetry_cell_setting 'tetragonal'
loop_
_space_group_symop_operation_xyz
x,y,z
y,-x,-z
-x,-y,z
-y,x,-z
1/2+y,1/2+x,-z
1/2-y,1/2-x,-z
1/2-x,1/2+y,z
1/2+x,1/2-y,z
loop_
_atom_site_type_symbol
_atom_site_label
_atom_site_fract_x
_atom_site_fract_y
_atom_site_fract_z
Si Si1 0.801843 0.478660 0.893730
Si Si2 0.000000 0.500000 0.500000
Si Si3 0.806590 0.693411 0.000000
Si Si4 0.312512 0.608332 0.349749
Si Si5 0.500000 0.500000 0.000000
O O1 0.714565 0.435250 0.671645
O O2 0.901836 0.499446 0.709869
O O3 0.786455 0.579475 0.097058
O O4 0.791723 0.404910 0.168905
O O5 0.818813 0.773226 0.271777
O O6 0.408099 0.547825 0.202935
#
# Coordination Sequence:
#
# PCOD9558367 Si02
#       5
#     8   2   4   8   2
#     4  12  29  50  79 119 161 223 281 363 441 543
#     4  12  28  50  80 110 168 206 288 346 452 518
#     4  12  28  51  86 119 174 222 300 364 464 544
#     4  12  29  50  82 120 166 222 287 360 450 543
#     4  12  28  54  80 122 172 230 280 374 452 534
#
# _framework density 30.328332
#
# number of rings (size 3 to 8) (size 9 to 14) (size 15 to 20)
#    0.000    0.000    3.333    4.000    4.667    8.667 
#    0.000    0.000    0.000    0.000    0.000    0.000 
#    0.000    0.000    0.000    0.000    0.000    0.000 
#
# Total GULP energy -133811.415220 kJ/mol
# GULP energy per Si atom -5575.475634 kJ/mol
# Density = 3.025930 g / cm^3
# Si number density = 30.328332 Si / 1000 Ang^3
#
#
#
# Elastic Constant Matrix: (Units=GPa)
#
#
# Indices 1 2 3 4 5 6 
#
# 1 157.9580 16.3827 48.4879 0.0000 0.0000 0.0000
# 2 16.3827 157.9593 48.4907 0.0000 0.0000 0.0000
# 3 48.4879 48.4907 161.2472 0.0000 0.0000 0.0000
# 4 0.0000 0.0000 0.0000 58.9287 0.0000 0.0000
# 5 0.0000 0.0000 0.0000 0.0000 58.9286 0.0000
# 6 0.0000 0.0000 0.0000 0.0000 0.0000 47.8270
#
#
#
# Elastic Compliance Matrix: (Units=1/GPa)
#
#
# Indices 1 2 3 4 5 6 
#
# 1 0.006976 -0.000088 -0.002071 0.000000 0.000000 0.000000
# 2 -0.000088 0.006976 -0.002071 0.000000 0.000000 0.000000
# 3 -0.002071 -0.002071 0.007447 0.000000 0.000000 0.000000
# 4 0.000000 0.000000 0.000000 0.016970 0.000000 0.000000
# 5 0.000000 0.000000 0.000000 0.000000 0.016970 0.000000
# 6 0.000000 0.000000 0.000000 0.000000 0.000000 0.020909
#
#
# Mechanical properties :
#
#
# Convention : Reuss Voigt Hill
#
# Bulk Modulus (GPa) = 77.29050 78.20970 77.75010
# Shear Modulus (GPa) = 56.16699 57.39040 56.77869
#
# Velocity S-wave (km/s) = 4.30811 4.35478 4.33151
# Velocity P-wave (km/s) = 7.09129 7.15046 7.12094
#
# Compressibility (1/GPa) = 0.01293820
#
# Stress axis : x y z
#
# Youngs Moduli (GPa) = 143.35480 143.35447 134.27473
#
# Poissons Ratio (x) = 0.01256 0.27812
# Poissons Ratio (y) = 0.01256 0.27814
# Poissons Ratio (z) = 0.29693 0.29694
#
# Static dielectric constant tensor:
#      x y z
#    x 3.262580 0.000000 0.000000 
#    y 0.000000 3.262510 0.000000 
#    z 0.000000 0.000000 2.236180 
# 
# From -- ./inp_files/240.got.cif
#   From: 2010.05.17/outbox.cif.g08.bks.cpg/sg117_1_cif.got.tgz:240.got - 2010.05.20 11:15:09.
