data_PCOD9558755
_publ_section_title
;
Structure prediction by ZEFSAII (Michael W. Deem and Ramdas Pophale) SiO2 
 PCOD9558755
Probable space group: P -4 N 2
;
_chemical_formula_sum "Si O2"
_cell_formula_units_Z 32
_cell_length_a 12.003309
_cell_length_b 12.003309
_cell_length_c 10.109129
_cell_angle_alpha 90.000000
_cell_angle_beta 90.000000
_cell_angle_gamma 90.000000
_cell_volume 1456.517513
_symmetry_space_group_name_H-M "P -4 N 2"
_symmetry_group_IT_number 118
_symmetry_cell_setting 'tetragonal'
loop_
_space_group_symop_operation_xyz
x,y,z
y,-x,-z
-x,-y,z
-y,x,-z
1/2+y,1/2+x,1/2-z
1/2-y,1/2-x,1/2-z
1/2-x,1/2+y,1/2+z
1/2+x,1/2-y,1/2+z
loop_
_atom_site_type_symbol
_atom_site_label
_atom_site_fract_x
_atom_site_fract_y
_atom_site_fract_z
Si Si1 0.276212 0.776212 0.750000
Si Si2 0.282870 0.523909 0.320081
Si Si3 0.121374 0.642308 0.946690
Si Si4 0.000000 0.000000 0.000000
Si Si5 0.962320 0.171226 0.460050
Si Si6 0.000000 0.500000 0.750000
O O1 0.407973 0.759849 0.740120
O O2 0.200760 0.729889 0.871070
O O3 0.192396 0.577857 0.416529
O O4 0.391648 0.504700 0.408422
O O5 0.318094 0.588104 0.187138
O O6 0.021463 0.602903 0.850854
O O7 0.206980 0.541280 0.975272
O O8 0.083232 0.114258 0.461405
#
# Coordination Sequence:
#
# PCOD9558755 Si02
#       6
#     4   8   8   2   8   2
#     4  11  24  47  69  99 146 178 248 299 358 442
#     4  12  25  44  74 104 144 190 244 303 366 449
#     4  11  25  48  69 105 141 193 238 305 369 430
#     4  12  24  44  70 108 132 196 240 286 376 440
#     4  11  24  45  72 104 143 189 242 306 363 438
#     4  10  28  44  70  94 144 190 240 298 360 440
#
# _framework density 21.970212
#
# number of rings (size 3 to 8) (size 9 to 14) (size 15 to 20)
#    0.000    0.750    5.000    2.250    3.500    0.000 
#    4.500    0.000    0.000    0.000    0.000    0.000 
#    0.000    0.000    0.000    0.000    0.000    0.000 
#
# Total GULP energy -178584.940262 kJ/mol
# GULP energy per Si atom -5580.779383 kJ/mol
# Density = 2.192021 g / cm^3
# Si number density = 21.970212 Si / 1000 Ang^3
#
#
#
# Elastic Constant Matrix: (Units=GPa)
#
#
# Indices 1 2 3 4 5 6 
#
# 1 67.5802 41.0560 23.5828 0.0000 0.0000 0.0000
# 2 41.0560 67.5802 23.5828 0.0000 0.0000 0.0000
# 3 23.5828 23.5828 132.8935 0.0000 0.0000 0.0000
# 4 0.0000 0.0000 0.0000 36.0448 0.0000 0.0000
# 5 0.0000 0.0000 0.0000 0.0000 36.0448 0.0000
# 6 0.0000 0.0000 0.0000 0.0000 0.0000 22.0043
#
#
#
# Elastic Compliance Matrix: (Units=1/GPa)
#
#
# Indices 1 2 3 4 5 6 
#
# 1 0.023837 -0.013864 -0.001770 0.000000 0.000000 0.000000
# 2 -0.013864 0.023837 -0.001770 0.000000 0.000000 0.000000
# 3 -0.001770 -0.001770 0.008153 0.000000 0.000000 0.000000
# 4 0.000000 0.000000 0.000000 0.027743 0.000000 0.000000
# 5 0.000000 0.000000 0.000000 0.000000 0.027743 0.000000
# 6 0.000000 0.000000 0.000000 0.000000 0.000000 0.045446
#
#
# Mechanical properties :
#
#
# Convention : Reuss Voigt Hill
#
# Bulk Modulus (GPa) = 47.57274 49.38855 48.48064
# Shear Modulus (GPa) = 25.17952 30.80760 27.99356
#
# Velocity S-wave (km/s) = 3.38905 3.74872 3.57341
# Velocity P-wave (km/s) = 6.08395 6.42384 6.25621
#
# Compressibility (1/GPa) = 0.02102044
#
# Stress axis : x y z
#
# Youngs Moduli (GPa) = 41.95085 41.95085 122.65481
#
# Poissons Ratio (x) = 0.58161 0.21708
# Poissons Ratio (y) = 0.58161 0.21708
# Poissons Ratio (z) = 0.07425 0.07425
#
# Static dielectric constant tensor:
#      x y z
#    x 1.792880 0.000000 0.000000 
#    y 0.000000 1.792880 0.000000 
#    z 0.000000 0.000000 1.846750 
# 
# From -- ./inp_files/2977.got.cif
#   From: 2010.05.17/outbox.cif.g08.bks.cpg/sg118_2_cif.got.tgz:2977.got - 2010.05.20 11:17:24.
