data_PCOD9558990
_publ_section_title
;
Structure prediction by ZEFSAII (Michael W. Deem and Ramdas Pophale) SiO2 
 PCOD9558990
Probable space group: I -4 M 2
;
_chemical_formula_sum "Si O2"
_cell_formula_units_Z 112
_cell_length_a 15.006213
_cell_length_b 15.006213
_cell_length_c 26.038379
_cell_angle_alpha 90.000000
_cell_angle_beta 90.000000
_cell_angle_gamma 90.000000
_cell_volume 5863.489574
_symmetry_space_group_name_H-M "I -4 M 2"
_symmetry_group_IT_number 119
_symmetry_cell_setting 'tetragonal'
loop_
_space_group_symop_operation_xyz
x,y,z
y,-x,-z
-x,-y,z
-y,x,-z
y,x,-z
-y,-x,-z
-x,y,z
x,-y,z
1/2+x,1/2+y,1/2+z
1/2+y,1/2-x,1/2-z
1/2-x,1/2-y,1/2+z
1/2-y,1/2+x,1/2-z
1/2+y,1/2+x,1/2-z
1/2-y,1/2-x,1/2-z
1/2-x,1/2+y,1/2+z
1/2+x,1/2-y,1/2+z
loop_
_atom_site_type_symbol
_atom_site_label
_atom_site_fract_x
_atom_site_fract_y
_atom_site_fract_z
Si Si1 0.607835 0.722807 0.645828
Si Si2 0.897531 0.108493 0.354237
Si Si3 0.204330 0.897921 0.455798
Si Si4 0.360274 0.898750 0.018022
Si Si5 0.598625 0.892941 0.897635
Si Si6 0.108660 0.103019 0.240218
Si Si7 0.344383 0.596121 0.553135
O O1 0.500000 0.725404 0.648554
O O2 0.641500 0.823636 0.639132
O O3 0.639882 0.667517 0.694903
O O4 0.631947 0.671268 0.593657
O O5 0.835920 0.134028 0.401758
O O6 0.866185 0.134921 0.297359
O O7 0.000000 0.136825 0.362690
O O8 0.898422 0.000000 0.352804
O O9 0.166472 0.833529 0.500000
O O10 0.311448 0.899429 0.455186
O O11 0.173416 0.000000 0.465664
O O12 0.257457 0.898185 0.034632
O O13 0.393909 0.000000 0.028482
O O14 0.374017 0.882379 0.957228
O O15 0.500000 0.855679 0.889309
O O16 0.594090 0.000000 0.890067
O O17 0.000000 0.102088 0.239902
O O18 0.136910 0.000000 0.232312
O O19 0.396893 0.603108 0.500000
O O20 0.361331 0.500000 0.577866
#
# Coordination Sequence:
#
# PCOD9558990 Si02
#       7
#    16  16  16  16  16  16  16
#     4  10  18  28  46  76 108 143 186 229 273 330
#     4   8  15  30  51  77 114 151 178 216 275 339
#     4  11  22  34  55  86 115 146 183 230 283 337
#     4  10  21  37  52  71 106 151 193 228 268 326
#     4   9  17  30  47  67  98 144 191 230 269 312
#     4   8  14  26  46  74 110 149 182 213 262 338
#     4  11  20  30  45  69 107 148 179 223 279 329
#
# _framework density 19.101254999999998
#
# number of rings (size 3 to 8) (size 9 to 14) (size 15 to 20)
#    0.000    2.429    1.429    3.000    0.000    3.143 
#    0.000    0.000    0.000    0.857    0.000    1.000 
#    0.000    4.571    0.000   15.714    0.000    0.000 
#
# Total GULP energy -312327.770660 kJ/mol
# GULP energy per Si atom -5577.281619 kJ/mol
# Density = 1.905778 g / cm^3
# Si number density = 19.101255 Si / 1000 Ang^3
#
#
#
# Elastic Constant Matrix: (Units=GPa)
#
#
# Indices 1 2 3 4 5 6 
#
# 1 75.5989 18.1501 48.5452 0.0000 0.0000 0.0000
# 2 18.1501 75.5959 48.5461 0.0000 0.0000 0.0000
# 3 48.5452 48.5461 137.9423 0.0000 0.0000 0.0000
# 4 0.0000 0.0000 0.0000 5.3443 0.0000 0.0000
# 5 0.0000 0.0000 0.0000 0.0000 5.3447 0.0000
# 6 0.0000 0.0000 0.0000 0.0000 0.0000 11.9199
#
#
#
# Elastic Compliance Matrix: (Units=1/GPa)
#
#
# Indices 1 2 3 4 5 6 
#
# 1 0.017095 -0.000311 -0.005907 0.000000 0.000000 0.000000
# 2 -0.000311 0.017096 -0.005907 0.000000 0.000000 0.000000
# 3 -0.005907 -0.005907 0.011407 0.000000 0.000000 0.000000
# 4 0.000000 0.000000 0.000000 0.187114 0.000000 0.000000
# 5 0.000000 0.000000 0.000000 0.000000 0.187101 0.000000
# 6 0.000000 0.000000 0.000000 0.000000 0.000000 0.083894
#
#
# Mechanical properties :
#
#
# Convention : Reuss Voigt Hill
#
# Bulk Modulus (GPa) = 46.84187 57.73553 52.28870
# Shear Modulus (GPa) = 9.34450 16.11483 12.72966
#
# Velocity S-wave (km/s) = 2.21421 2.90772 2.58433
# Velocity P-wave (km/s) = 5.57791 6.44708 6.02818
#
# Compressibility (1/GPa) = 0.02134842
#
# Stress axis : x y z
#
# Youngs Moduli (GPa) = 58.49527 58.49165 87.66508
#
# Poissons Ratio (x) = 0.01821 0.51781
# Poissons Ratio (y) = 0.01821 0.51786
# Poissons Ratio (z) = 0.34551 0.34552
#
# Static dielectric constant tensor:
#      x y z
#    x 1.712550 0.000000 0.000000 
#    y 0.000000 1.712550 0.000000 
#    z 0.000000 0.000000 1.637520 
# 
# From -- ./inp_files/8806.got.cif
#   From: 2010.05.17/outbox.cif.g08.bks.cpg/sg119_5_cif.got.tgz:8806.got - 2010.05.20 11:21:29.
