data_PCOD9558276
_publ_section_title
;
Structure prediction by ZEFSAII (Michael W. Deem and Ramdas Pophale) SiO2 
 PCOD9558276
Probable space group: P -4 B 2
;
_chemical_formula_sum "Si O2"
_cell_formula_units_Z 58
_cell_length_a 17.904771
_cell_length_b 17.904771
_cell_length_c 8.537390
_cell_angle_alpha 90.000000
_cell_angle_beta 90.000000
_cell_angle_gamma 90.000000
_cell_volume 2736.923526
_symmetry_space_group_name_H-M "P -4 B 2"
_symmetry_group_IT_number 117
_symmetry_cell_setting 'tetragonal'
loop_
_space_group_symop_operation_xyz
x,y,z
y,-x,-z
-x,-y,z
-y,x,-z
1/2+y,1/2+x,-z
1/2-y,1/2-x,-z
1/2-x,1/2+y,z
1/2+x,1/2-y,z
loop_
_atom_site_type_symbol
_atom_site_label
_atom_site_fract_x
_atom_site_fract_y
_atom_site_fract_z
Si Si1 0.870624 0.145128 0.667637
Si Si2 0.500000 0.000000 0.500000
Si Si3 0.819027 0.299668 0.805596
Si Si4 0.845590 0.478537 0.327070
Si Si5 0.056395 0.901828 0.964378
Si Si6 0.562007 0.735565 0.185712
Si Si7 0.373824 0.997795 0.994098
Si Si8 0.203602 0.983401 0.501696
O O1 0.823325 0.214982 0.740734
O O2 0.889570 0.094475 0.817189
O O3 0.953839 0.169167 0.612569
O O4 0.831871 0.097931 0.529262
O O5 0.495155 0.071651 0.612678
O O6 0.890927 0.333933 0.712983
O O7 0.752577 0.353994 0.756565
O O8 0.813092 0.313092 0.000000
O O9 0.829281 0.509898 0.155681
O O10 0.789529 0.515014 0.449228
O O11 0.064136 0.821024 0.041173
O O12 0.969981 0.918182 0.924622
O O13 0.519562 0.700065 0.328286
O O14 0.520414 0.812871 0.135435
O O15 0.433853 0.066148 0.000000
O O16 0.424112 0.924112 0.000000
#
# Coordination Sequence:
#
# PCOD9558276 Si02
#       8
#     8   2   8   8   8   8   8   8
#     4  11  25  47  69 103 137 185 230 289 367 422
#     4  12  24  36  70 100 148 188 222 276 344 428
#     4  11  20  41  74  97 131 181 233 283 342 424
#     4  11  22  39  62 104 139 184 225 280 342 419
#     4  11  24  42  71 101 130 173 242 297 341 404
#     4  12  21  43  68 103 134 182 232 286 344 423
#     4  11  22  39  69 102 136 183 238 281 330 407
#     4  11  27  43  69  98 142 178 233 290 357 434
#
# _framework density 21.191676999999999
#
# number of rings (size 3 to 8) (size 9 to 14) (size 15 to 20)
#    0.000    0.828    5.517    2.483    3.862    1.931 
#    0.000    3.448    0.000    0.000    0.000    0.000 
#    0.000    0.000    0.000    0.000    0.000    0.000 
#
# Total GULP energy -323037.936553 kJ/mol
# GULP energy per Si atom -5569.619596 kJ/mol
# Density = 2.114344 g / cm^3
# Si number density = 21.191677 Si / 1000 Ang^3
#
#
#
# Elastic Constant Matrix: (Units=GPa)
#
#
# Indices 1 2 3 4 5 6 
#
# 1 81.9070 59.6366 13.0851 0.0000 0.0000 0.0000
# 2 59.6366 81.9066 13.0851 0.0000 0.0000 0.0000
# 3 13.0851 13.0851 58.6470 0.0000 0.0000 0.0000
# 4 0.0000 0.0000 0.0000 27.6094 0.0000 0.0000
# 5 0.0000 0.0000 0.0000 0.0000 27.6099 0.0000
# 6 0.0000 0.0000 0.0000 0.0000 0.0000 26.9477
#
#
#
# Elastic Compliance Matrix: (Units=1/GPa)
#
#
# Indices 1 2 3 4 5 6 
#
# 1 0.026136 -0.018767 -0.001644 0.000000 0.000000 0.000000
# 2 -0.018767 0.026136 -0.001644 0.000000 0.000000 0.000000
# 3 -0.001644 -0.001644 0.017785 0.000000 0.000000 0.000000
# 4 0.000000 0.000000 0.000000 0.036220 0.000000 0.000000
# 5 0.000000 0.000000 0.000000 0.000000 0.036219 0.000000
# 6 0.000000 0.000000 0.000000 0.000000 0.000000 0.037109
#
#
# Mechanical properties :
#
#
# Convention : Reuss Voigt Hill
#
# Bulk Modulus (GPa) = 38.54128 43.78603 41.16365
# Shear Modulus (GPa) = 21.51800 25.54365 23.53083
#
# Velocity S-wave (km/s) = 3.18999 3.47560 3.33585
# Velocity P-wave (km/s) = 5.63866 6.06738 5.85695
#
# Compressibility (1/GPa) = 0.02594621
#
# Stress axis : x y z
#
# Youngs Moduli (GPa) = 38.26152 38.26129 56.22767
#
# Poissons Ratio (x) = 0.71805 0.09244
# Poissons Ratio (y) = 0.71806 0.09245
# Poissons Ratio (z) = 0.06291 0.06291
#
# Static dielectric constant tensor:
#      x y z
#    x 1.924320 0.000000 0.000000 
#    y 0.000000 1.924290 0.000000 
#    z 0.000000 0.000000 1.818080 
# 
# From -- ./inp_files/2077.got.cif
#   From: 2010.05.17/outbox.cif.g08.bks.cpg/sg117_2_cif.got.tgz:2077.got - 2010.05.20 11:15:09.
