data_PCOD9558438
_publ_section_title
;
Structure prediction by ZEFSAII (Michael W. Deem and Ramdas Pophale) SiO2 
 PCOD9558438
Probable space group: P -4 N 2
;
_chemical_formula_sum "Si O2"
_cell_formula_units_Z 56
_cell_length_a 14.008761
_cell_length_b 14.008761
_cell_length_c 14.077507
_cell_angle_alpha 90.000000
_cell_angle_beta 90.000000
_cell_angle_gamma 90.000000
_cell_volume 2762.645778
_symmetry_space_group_name_H-M "P -4 N 2"
_symmetry_group_IT_number 118
_symmetry_cell_setting 'tetragonal'
loop_
_space_group_symop_operation_xyz
x,y,z
y,-x,-z
-x,-y,z
-y,x,-z
1/2+y,1/2+x,1/2-z
1/2-y,1/2-x,1/2-z
1/2-x,1/2+y,1/2+z
1/2+x,1/2-y,1/2+z
loop_
_atom_site_type_symbol
_atom_site_label
_atom_site_fract_x
_atom_site_fract_y
_atom_site_fract_z
Si Si1 0.924546 0.615778 0.642649
Si Si2 0.086001 0.618690 0.942412
Si Si3 0.652706 0.912992 0.656431
Si Si4 0.711031 0.593692 0.203964
Si Si5 0.727615 0.257027 0.076806
Si Si6 0.409235 0.385732 0.036946
Si Si7 0.713162 0.700365 0.389516
O O1 0.917348 0.582653 0.750000
O O2 0.888128 0.526171 0.580324
O O3 0.860259 0.707491 0.626403
O O4 0.033010 0.635460 0.615102
O O5 0.132596 0.716509 0.901283
O O6 0.101145 0.589625 0.053447
O O7 0.587140 0.912861 0.750000
O O8 0.702385 0.808465 0.649020
O O9 0.726946 0.000426 0.674825
O O10 0.612539 0.593832 0.146194
O O11 0.692606 0.615405 0.315004
O O12 0.761899 0.686669 0.156108
O O13 0.696905 0.346403 0.009776
O O14 0.768358 0.180602 0.000907
O O15 0.374175 0.480703 0.983272
#
# Coordination Sequence:
#
# PCOD9558438 Si02
#       7
#     8   8   8   8   8   8   8
#     4  11  24  37  62  89 127 159 217 244 325 387
#     4  10  22  41  59  91 123 167 196 270 309 382
#     4  11  23  41  61  87 131 166 204 261 327 374
#     4  10  20  35  57  89 112 161 202 253 304 379
#     4  10  21  38  59  87 121 166 203 258 314 376
#     4  10  19  33  57  88 121 156 204 263 312 358
#     4   9  21  35  61  82 121 152 211 250 315 361
#
# _framework density 20.270423999999998
#
# number of rings (size 3 to 8) (size 9 to 14) (size 15 to 20)
#    0.000    1.857    1.429    3.000   10.000    0.000 
#    2.571    0.000    0.000    0.000    0.000    0.000 
#    0.000    0.000    0.000    0.000    0.000    0.000 
#
# Total GULP energy -311769.827523 kJ/mol
# GULP energy per Si atom -5567.318349 kJ/mol
# Density = 2.022429 g / cm^3
# Si number density = 20.270424 Si / 1000 Ang^3
#
#
#
# Elastic Constant Matrix: (Units=GPa)
#
#
# Indices 1 2 3 4 5 6 
#
# 1 31.1731 11.8348 26.3370 0.0000 0.0000 0.0000
# 2 11.8348 31.1721 26.3371 0.0000 0.0000 0.0000
# 3 26.3370 26.3371 148.5497 0.0000 0.0000 0.0000
# 4 0.0000 0.0000 0.0000 26.7619 0.0000 0.0000
# 5 0.0000 0.0000 0.0000 0.0000 26.7612 0.0000
# 6 0.0000 0.0000 0.0000 0.0000 0.0000 23.8250
#
#
#
# Elastic Compliance Matrix: (Units=1/GPa)
#
#
# Indices 1 2 3 4 5 6 
#
# 1 0.040706 -0.011005 -0.005266 0.000000 0.000000 0.000000
# 2 -0.011005 0.040708 -0.005266 0.000000 0.000000 0.000000
# 3 -0.005266 -0.005266 0.008599 0.000000 0.000000 0.000000
# 4 0.000000 0.000000 0.000000 0.037367 0.000000 0.000000
# 5 0.000000 0.000000 0.000000 0.000000 0.037368 0.000000
# 6 0.000000 0.000000 0.000000 0.000000 0.000000 0.041973
#
#
# Mechanical properties :
#
#
# Convention : Reuss Voigt Hill
#
# Bulk Modulus (GPa) = 21.30463 37.76807 29.53635
# Shear Modulus (GPa) = 18.83666 25.22868 22.03267
#
# Velocity S-wave (km/s) = 3.05170 3.53172 3.30045
# Velocity P-wave (km/s) = 4.79063 5.94166 5.39692
#
# Compressibility (1/GPa) = 0.04693815
#
# Stress axis : x y z
#
# Youngs Moduli (GPa) = 24.56643 24.56544 116.29284
#
# Poissons Ratio (x) = 0.27035 0.61237
# Poissons Ratio (y) = 0.27036 0.61241
# Poissons Ratio (z) = 0.12936 0.12936
#
# Static dielectric constant tensor:
#      x y z
#    x 1.648060 0.000000 0.000000 
#    y 0.000000 1.648010 0.000000 
#    z 0.000000 0.000000 1.803130 
# 
# From -- ./inp_files/4264.got.cif
#   From: 2010.05.17/outbox.cif.g08.bks.cpg/sg118_3_cif.got.tgz:4264.got - 2010.05.20 11:17:24.
