data_PCOD9558967
_publ_section_title
;
Structure prediction by ZEFSAII (Michael W. Deem and Ramdas Pophale) SiO2 
 PCOD9558967
Probable space group: I -4 M 2
;
_chemical_formula_sum "Si O2"
_cell_formula_units_Z 72
_cell_length_a 12.438461
_cell_length_b 12.438461
_cell_length_c 24.974623
_cell_angle_alpha 90.000000
_cell_angle_beta 90.000000
_cell_angle_gamma 90.000000
_cell_volume 3863.956591
_symmetry_space_group_name_H-M "I -4 M 2"
_symmetry_group_IT_number 119
_symmetry_cell_setting 'tetragonal'
loop_
_space_group_symop_operation_xyz
x,y,z
y,-x,-z
-x,-y,z
-y,x,-z
y,x,-z
-y,-x,-z
-x,y,z
x,-y,z
1/2+x,1/2+y,1/2+z
1/2+y,1/2-x,1/2-z
1/2-x,1/2-y,1/2+z
1/2-y,1/2+x,1/2-z
1/2+y,1/2+x,1/2-z
1/2-y,1/2-x,1/2-z
1/2-x,1/2+y,1/2+z
1/2+x,1/2-y,1/2+z
loop_
_atom_site_type_symbol
_atom_site_label
_atom_site_fract_x
_atom_site_fract_y
_atom_site_fract_z
Si Si1 0.629161 0.000000 0.957861
Si Si2 0.202404 0.761389 0.060063
Si Si3 0.194512 0.723748 0.671038
Si Si4 0.883862 0.500000 0.654822
Si Si5 0.784830 0.000000 0.061165
Si Si6 0.875075 0.874778 0.238079
O O1 0.675090 0.891486 0.930902
O O2 0.500000 0.000000 0.962990
O O3 0.695615 0.000000 0.013970
O O4 0.289285 0.757197 0.107853
O O5 0.156686 0.884992 0.060012
O O6 0.250535 0.749466 0.000000
O O7 0.128262 0.614394 0.683517
O O8 0.144313 0.820426 0.704312
O O9 0.311216 0.697926 0.695929
O O10 0.784836 0.500000 0.614618
O O11 0.000000 0.500000 0.627286
O O12 0.000000 0.849337 0.239262
O O13 0.861862 0.000000 0.223260
#
# Coordination Sequence:
#
# PCOD9558967 Si02
#       6
#     8  16  16   8   8  16
#     4  10  19  31  49  76 109 147 185 226 277 327
#     4   9  19  34  53  79 111 142 185 229 283 347
#     4  10  20  35  55  81 108 143 183 227 282 334
#     4  10  17  30  54  84 110 130 168 228 287 343
#     4   8  17  33  50  75 108 146 176 221 280 339
#     4  10  21  37  55  76 108 148 186 228 278 329
#
# _framework density 18.633749999999999
#
# number of rings (size 3 to 8) (size 9 to 14) (size 15 to 20)
#    0.000    2.444    1.111    1.000    1.556    1.333 
#    0.000    3.333    0.000    1.333    0.000    1.556 
#    0.000    3.556    0.000    0.000    0.000    0.000 
#
# Total GULP energy -200490.761669 kJ/mol
# GULP energy per Si atom -5569.187824 kJ/mol
# Density = 1.859134 g / cm^3
# Si number density = 18.633750 Si / 1000 Ang^3
#
#
#
# Elastic Constant Matrix: (Units=GPa)
#
#
# Indices 1 2 3 4 5 6 
#
# 1 84.2575 25.5259 2.5078 0.0000 0.0000 0.0000
# 2 25.5259 84.2575 2.5077 0.0000 0.0000 0.0000
# 3 2.5078 2.5077 83.7582 0.0000 0.0000 0.0000
# 4 0.0000 0.0000 0.0000 19.0277 0.0000 0.0000
# 5 0.0000 0.0000 0.0000 0.0000 19.0277 0.0000
# 6 0.0000 0.0000 0.0000 0.0000 0.0000 22.6190
#
#
#
# Elastic Compliance Matrix: (Units=1/GPa)
#
#
# Indices 1 2 3 4 5 6 
#
# 1 0.013074 -0.003953 -0.000273 0.000000 0.000000 0.000000
# 2 -0.003953 0.013074 -0.000273 0.000000 0.000000 0.000000
# 3 -0.000273 -0.000273 0.011955 0.000000 0.000000 0.000000
# 4 0.000000 0.000000 0.000000 0.052555 0.000000 0.000000
# 5 0.000000 0.000000 0.000000 0.000000 0.052555 0.000000
# 6 0.000000 0.000000 0.000000 0.000000 0.000000 0.044211
#
#
# Mechanical properties :
#
#
# Convention : Reuss Voigt Hill
#
# Bulk Modulus (GPa) = 34.35748 34.81733 34.58740
# Shear Modulus (GPa) = 24.25729 26.91699 25.58714
#
# Velocity S-wave (km/s) = 3.61195 3.80482 3.70964
# Velocity P-wave (km/s) = 5.98943 6.16667 6.07870
#
# Compressibility (1/GPa) = 0.02910575
#
# Stress axis : x y z
#
# Youngs Moduli (GPa) = 76.48783 76.48783 83.64365
#
# Poissons Ratio (x) = 0.30233 0.02284
# Poissons Ratio (y) = 0.30233 0.02284
# Poissons Ratio (z) = 0.02089 0.02089
#
# Static dielectric constant tensor:
#      x y z
#    x 1.660620 0.000000 0.000000 
#    y 0.000000 1.660620 0.000000 
#    z 0.000000 0.000000 1.693230 
# 
# From -- ./inp_files/9421.got.cif
#   From: 2010.05.17/outbox.cif.g08.bks.cpg/sg119_5_cif.got.tgz:9421.got - 2010.05.20 11:21:29.
