data_PCOD9558897
_publ_section_title
;
Structure prediction by ZEFSAII (Michael W. Deem and Ramdas Pophale) SiO2 
 PCOD9558897
Probable space group: P -4 N 2
;
_chemical_formula_sum "Si O2"
_cell_formula_units_Z 14
_cell_length_a 5.203478
_cell_length_b 5.203478
_cell_length_c 21.454627
_cell_angle_alpha 90.000000
_cell_angle_beta 90.000000
_cell_angle_gamma 90.000000
_cell_volume 580.909413
_symmetry_space_group_name_H-M "P -4 N 2"
_symmetry_group_IT_number 118
_symmetry_cell_setting 'tetragonal'
loop_
_space_group_symop_operation_xyz
x,y,z
y,-x,-z
-x,-y,z
-y,x,-z
1/2+y,1/2+x,1/2-z
1/2-y,1/2-x,1/2-z
1/2-x,1/2+y,1/2+z
1/2+x,1/2-y,1/2+z
loop_
_atom_site_type_symbol
_atom_site_label
_atom_site_fract_x
_atom_site_fract_y
_atom_site_fract_z
Si Si1 0.000000 0.500000 0.582791
Si Si2 0.749602 0.826579 0.677867
Si Si3 0.000000 0.000000 0.500000
O O1 0.777331 0.593821 0.629832
O O2 0.938496 0.253642 0.540391
O O3 0.756761 0.743240 0.750000
O O4 0.500000 0.000000 0.667948
O O5 0.000000 0.000000 0.667735
#
# Coordination Sequence:
#
# PCOD9558897 Si02
#       3
#     4   8   2
#     4  12  29  56  76 118 157 218 262 340 378 488
#     4  11  28  49  83 119 156 201 258 331 407 473
#     4  12  32  48  84 108 160 216 280 306 404 460
#
# _framework density 24.100148000000001
#
# number of rings (size 3 to 8) (size 9 to 14) (size 15 to 20)
#    0.000    0.571    2.857    0.857   20.000    5.714 
#    0.000    0.000    0.000    0.000    0.000    0.000 
#    0.000    0.000    0.000    0.000    0.000    0.000 
#
# Total GULP energy -78493.878380 kJ/mol
# GULP energy per Si atom -5606.705599 kJ/mol
# Density = 2.404530 g / cm^3
# Si number density = 24.100148 Si / 1000 Ang^3
#
#
#
# Elastic Constant Matrix: (Units=GPa)
#
#
# Indices 1 2 3 4 5 6 
#
# 1 185.9990 71.4618 95.1514 0.0000 0.0000 0.0000
# 2 71.4618 185.9994 95.1514 0.0000 0.0000 0.0000
# 3 95.1514 95.1514 194.1458 0.0000 0.0000 0.0000
# 4 0.0000 0.0000 0.0000 26.5375 0.0000 0.0000
# 5 0.0000 0.0000 0.0000 0.0000 26.5377 0.0000
# 6 0.0000 0.0000 0.0000 0.0000 0.0000 31.1881
#
#
#
# Elastic Compliance Matrix: (Units=1/GPa)
#
#
# Indices 1 2 3 4 5 6 
#
# 1 0.007411 -0.001320 -0.002985 0.000000 0.000000 0.000000
# 2 -0.001320 0.007411 -0.002985 0.000000 0.000000 0.000000
# 3 -0.002985 -0.002985 0.008077 0.000000 0.000000 0.000000
# 4 0.000000 0.000000 0.000000 0.037682 0.000000 0.000000
# 5 0.000000 0.000000 0.000000 0.000000 0.037682 0.000000
# 6 0.000000 0.000000 0.000000 0.000000 0.000000 0.032063
#
#
# Mechanical properties :
#
#
# Convention : Reuss Voigt Hill
#
# Bulk Modulus (GPa) = 120.22536 121.07482 120.65009
# Shear Modulus (GPa) = 33.85733 37.14466 35.50099
#
# Velocity S-wave (km/s) = 3.75221 3.93015 3.84221
# Velocity P-wave (km/s) = 8.29254 8.42271 8.35788
#
# Compressibility (1/GPa) = 0.00831771
#
# Stress axis : x y z
#
# Youngs Moduli (GPa) = 134.94196 134.94241 123.81446
#
# Poissons Ratio (x) = 0.17815 0.36958
# Poissons Ratio (y) = 0.17815 0.36958
# Poissons Ratio (z) = 0.40279 0.40279
#
# Static dielectric constant tensor:
#      x y z
#    x 1.914680 0.000000 0.000000 
#    y 0.000000 1.914680 0.000000 
#    z 0.000000 0.000000 1.961930 
# 
# From -- ./inp_files/5077.got.cif
#   From: 2010.05.17/outbox.cif.g08.bks.cpg/sg118_3_cif.got.tgz:5077.got - 2010.05.20 11:17:24.
