data_PCOD9558345
_publ_section_title
;
Structure prediction by ZEFSAII (Michael W. Deem and Ramdas Pophale) SiO2 
 PCOD9558345
Probable space group: P -4 B 2
;
_chemical_formula_sum "Si O2"
_cell_formula_units_Z 40
_cell_length_a 9.090684
_cell_length_b 9.090684
_cell_length_c 20.837544
_cell_angle_alpha 90.000000
_cell_angle_beta 90.000000
_cell_angle_gamma 90.000000
_cell_volume 1722.025796
_symmetry_space_group_name_H-M "P -4 B 2"
_symmetry_group_IT_number 117
_symmetry_cell_setting 'tetragonal'
loop_
_space_group_symop_operation_xyz
x,y,z
y,-x,-z
-x,-y,z
-y,x,-z
1/2+y,1/2+x,-z
1/2-y,1/2-x,-z
1/2-x,1/2+y,z
1/2+x,1/2-y,z
loop_
_atom_site_type_symbol
_atom_site_label
_atom_site_fract_x
_atom_site_fract_y
_atom_site_fract_z
Si Si1 0.657839 0.515715 0.548953
Si Si2 0.436080 0.835914 0.330392
Si Si3 0.831304 0.838786 0.748951
Si Si4 0.055214 0.777857 0.974780
Si Si5 0.828158 0.445764 0.168005
O O1 0.379207 0.350037 0.500419
O O2 0.500000 0.500000 0.586396
O O3 0.788607 0.532077 0.597152
O O4 0.266279 0.818615 0.313278
O O5 0.508528 0.719388 0.281168
O O6 0.500000 0.000000 0.318603
O O7 0.722678 0.824356 0.810036
O O8 0.979839 0.777794 0.779323
O O9 0.026189 0.746258 0.900483
O O10 0.130542 0.630542 0.000000
O O11 0.911237 0.829648 0.013293
O O12 0.000000 0.500000 0.168778
#
# Coordination Sequence:
#
# PCOD9558345 Si02
#       5
#     8   8   8   8   8
#     4   6  18  40  74 101 131 195 237 282 360 424
#     4  12  24  46  74 108 148 186 244 296 368 436
#     4  12  25  46  73 110 142 197 236 306 365 434
#     4  11  28  49  75 110 144 203 249 307 377 438
#     4  12  27  49  72 109 153 185 253 304 367 442
#
# _framework density 23.228455
#
# number of rings (size 3 to 8) (size 9 to 14) (size 15 to 20)
#    1.200    0.200    4.000    1.200    8.400    3.200 
#    0.000    1.000    4.400    0.000    0.000    0.000 
#    0.000    0.000    0.000    0.000    0.000    0.000 
#
# Total GULP energy -222917.675365 kJ/mol
# GULP energy per Si atom -5572.941884 kJ/mol
# Density = 2.317559 g / cm^3
# Si number density = 23.228455 Si / 1000 Ang^3
#
#
#
# Elastic Constant Matrix: (Units=GPa)
#
#
# Indices 1 2 3 4 5 6 
#
# 1 51.8744 50.6110 29.8609 0.0000 0.0000 0.0000
# 2 50.6110 51.8744 29.8609 0.0000 0.0000 0.0000
# 3 29.8609 29.8609 126.6454 0.0000 0.0000 0.0000
# 4 0.0000 0.0000 0.0000 28.9250 0.0000 0.0000
# 5 0.0000 0.0000 0.0000 0.0000 28.9250 0.0000
# 6 0.0000 0.0000 0.0000 0.0000 0.0000 29.9775
#
#
#
# Elastic Compliance Matrix: (Units=1/GPa)
#
#
# Indices 1 2 3 4 5 6 
#
# 1 0.401417 -0.390105 -0.002667 0.000000 0.000000 0.000000
# 2 -0.390105 0.401417 -0.002667 0.000000 0.000000 0.000000
# 3 -0.002667 -0.002667 0.009154 0.000000 0.000000 0.000000
# 4 0.000000 0.000000 0.000000 0.034572 0.000000 0.000000
# 5 0.000000 0.000000 0.000000 0.000000 0.034572 0.000000
# 6 0.000000 0.000000 0.000000 0.000000 0.000000 0.033358
#
#
# Mechanical properties :
#
#
# Convention : Reuss Voigt Hill
#
# Bulk Modulus (GPa) = 47.37370 50.11773 48.74572
# Shear Modulus (GPa) = 2.91987 25.56961 14.24474
#
# Velocity S-wave (km/s) = 1.12239 3.32141 2.47907
# Velocity P-wave (km/s) = 4.70304 6.02759 5.40604
#
# Compressibility (1/GPa) = 0.02110876
#
# Stress axis : x y z
#
# Youngs Moduli (GPa) = 2.49118 2.49118 109.24442
#
# Poissons Ratio (x) = 0.97182 0.29137
# Poissons Ratio (y) = 0.97182 0.29137
# Poissons Ratio (z) = 0.00664 0.00664
#
# Static dielectric constant tensor:
#      x y z
#    x 1.966450 0.000000 0.000000 
#    y 0.000000 1.966450 0.000000 
#    z 0.000000 0.000000 1.866600 
# 
# From -- ./inp_files/3529.got.cif
#   From: 2010.05.17/outbox.cif.g08.bks.cpg/sg117_2_cif.got.tgz:3529.got - 2010.05.20 11:15:09.
