data_PCOD9558327
_publ_section_title
;
Structure prediction by ZEFSAII (Michael W. Deem and Ramdas Pophale) SiO2 
 PCOD9558327
Probable space group: P -4 B 2
;
_chemical_formula_sum "Si O2"
_cell_formula_units_Z 56
_cell_length_a 14.891303
_cell_length_b 14.891303
_cell_length_c 11.433422
_cell_angle_alpha 90.000000
_cell_angle_beta 90.000000
_cell_angle_gamma 90.000000
_cell_volume 2535.371676
_symmetry_space_group_name_H-M "P -4 B 2"
_symmetry_group_IT_number 117
_symmetry_cell_setting 'tetragonal'
loop_
_space_group_symop_operation_xyz
x,y,z
y,-x,-z
-x,-y,z
-y,x,-z
1/2+y,1/2+x,-z
1/2-y,1/2-x,-z
1/2-x,1/2+y,z
1/2+x,1/2-y,z
loop_
_atom_site_type_symbol
_atom_site_label
_atom_site_fract_x
_atom_site_fract_y
_atom_site_fract_z
Si Si1 0.642897 0.793022 0.626780
Si Si2 0.089208 0.056137 0.678312
Si Si3 0.669603 0.978252 0.982432
Si Si4 0.441636 0.849572 0.588054
Si Si5 0.720891 0.339567 0.833192
Si Si6 0.627390 0.158274 0.841560
Si Si7 0.326471 0.405370 0.554569
O O1 0.680569 0.819432 0.500000
O O2 0.542132 0.829125 0.629055
O O3 0.704238 0.831248 0.730630
O O4 0.646248 0.685169 0.620523
O O5 0.129685 0.121341 0.775366
O O6 0.075380 0.108521 0.556257
O O7 0.166256 0.984756 0.647195
O O8 0.000000 0.000000 0.708393
O O9 0.741839 0.907589 0.931516
O O10 0.654356 0.062266 0.895383
O O11 0.579548 0.920453 0.000000
O O12 0.687865 0.031432 0.102765
O O13 0.432040 0.932040 0.500000
O O14 0.382481 0.853837 0.703851
O O15 0.406132 0.768526 0.507672
O O16 0.696964 0.237994 0.869358
#
# Coordination Sequence:
#
# PCOD9558327 Si02
#       7
#     8   8   8   8   8   8   8
#     4  12  24  41  64 105 152 194 243 303 379 450
#     4  12  22  40  67 104 152 199 238 291 380 465
#     4  11  28  54  80 102 145 199 255 318 387 455
#     4  12  25  41  68 107 148 187 245 310 369 454
#     4  12  27  47  76 113 146 193 257 324 379 458
#     4  11  25  50  77 109 142 196 257 309 383 461
#     4  12  20  40  65 100 154 200 237 286 380 468
#
# _framework density 22.087489999999999
#
# number of rings (size 3 to 8) (size 9 to 14) (size 15 to 20)
#    0.000    0.286    5.714    3.000    8.000    0.286 
#    2.571    0.000    0.000    0.000    0.000    0.000 
#    0.000    0.000    0.000    0.000    0.000    0.000 
#
# Total GULP energy -313269.654015 kJ/mol
# GULP energy per Si atom -5594.100965 kJ/mol
# Density = 2.203722 g / cm^3
# Si number density = 22.087490 Si / 1000 Ang^3
#
#
#
# Elastic Constant Matrix: (Units=GPa)
#
#
# Indices 1 2 3 4 5 6 
#
# 1 123.8042 32.6515 33.8860 0.0000 0.0000 0.0000
# 2 32.6515 123.8052 33.8865 0.0000 0.0000 0.0000
# 3 33.8860 33.8865 99.3540 0.0000 0.0000 0.0000
# 4 0.0000 0.0000 0.0000 7.2409 0.0000 0.0000
# 5 0.0000 0.0000 0.0000 0.0000 7.2422 0.0000
# 6 0.0000 0.0000 0.0000 0.0000 0.0000 46.8722
#
#
#
# Elastic Compliance Matrix: (Units=1/GPa)
#
#
# Indices 1 2 3 4 5 6 
#
# 1 0.009235 -0.001735 -0.002558 0.000000 0.000000 0.000000
# 2 -0.001735 0.009235 -0.002558 0.000000 0.000000 0.000000
# 3 -0.002558 -0.002558 0.011810 0.000000 0.000000 0.000000
# 4 0.000000 0.000000 0.000000 0.138104 0.000000 0.000000
# 5 0.000000 0.000000 0.000000 0.000000 0.138080 0.000000
# 6 0.000000 0.000000 0.000000 0.000000 0.000000 0.021335
#
#
# Mechanical properties :
#
#
# Convention : Reuss Voigt Hill
#
# Bulk Modulus (GPa) = 60.32256 60.86793 60.59525
# Shear Modulus (GPa) = 14.40813 28.70703 21.55758
#
# Velocity S-wave (km/s) = 2.55683 3.60904 3.12750
# Velocity P-wave (km/s) = 6.00721 6.70704 6.36675
#
# Compressibility (1/GPa) = 0.01657754
#
# Stress axis : x y z
#
# Youngs Moduli (GPa) = 108.28288 108.28345 84.67543
#
# Poissons Ratio (x) = 0.18793 0.21658
# Poissons Ratio (y) = 0.18792 0.21659
# Poissons Ratio (z) = 0.27697 0.27697
#
# Static dielectric constant tensor:
#      x y z
#    x 1.873870 0.000000 0.000000 
#    y 0.000000 1.873870 0.000000 
#    z 0.000000 0.000000 1.783490 
# 
# From -- ./inp_files/2875.got.cif
#   From: 2010.05.17/outbox.cif.g08.bks.cpg/sg117_2_cif.got.tgz:2875.got - 2010.05.20 11:15:09.
