data_PCOD9558949
_publ_section_title
;
Structure prediction by ZEFSAII (Michael W. Deem and Ramdas Pophale) SiO2 
 PCOD9558949
Probable space group: I -4 M 2
;
_chemical_formula_sum "Si O2"
_cell_formula_units_Z 128
_cell_length_a 20.641652
_cell_length_b 20.641652
_cell_length_c 18.555364
_cell_angle_alpha 90.000000
_cell_angle_beta 90.000000
_cell_angle_gamma 90.000000
_cell_volume 7906.028621
_symmetry_space_group_name_H-M "I -4 M 2"
_symmetry_group_IT_number 119
_symmetry_cell_setting 'tetragonal'
loop_
_space_group_symop_operation_xyz
x,y,z
y,-x,-z
-x,-y,z
-y,x,-z
y,x,-z
-y,-x,-z
-x,y,z
x,-y,z
1/2+x,1/2+y,1/2+z
1/2+y,1/2-x,1/2-z
1/2-x,1/2-y,1/2+z
1/2-y,1/2+x,1/2-z
1/2+y,1/2+x,1/2-z
1/2-y,1/2-x,1/2-z
1/2-x,1/2+y,1/2+z
1/2+x,1/2-y,1/2+z
loop_
_atom_site_type_symbol
_atom_site_label
_atom_site_fract_x
_atom_site_fract_y
_atom_site_fract_z
Si Si1 0.270845 0.924528 0.253231
Si Si2 0.207377 0.070900 0.725311
Si Si3 0.793667 0.252318 0.330226
Si Si4 0.166995 0.673512 0.636095
Si Si5 0.928927 0.116873 0.767431
Si Si6 0.641740 0.605963 0.574479
Si Si7 0.747374 0.884760 0.880487
Si Si8 0.928365 0.288537 0.967717
O O1 0.303647 0.899899 0.327248
O O2 0.298348 0.875720 0.192852
O O3 0.192819 0.917218 0.252432
O O4 0.284794 0.000000 0.238781
O O5 0.225619 0.134250 0.679497
O O6 0.130493 0.076224 0.738002
O O7 0.239876 0.080018 0.804619
O O8 0.224682 0.000000 0.696508
O O9 0.764177 0.264177 0.250000
O O10 0.740140 0.207835 0.369056
O O11 0.795688 0.322058 0.366494
O O12 0.169269 0.630526 0.564162
O O13 0.926934 0.113821 0.854488
O O14 0.000000 0.098050 0.741556
O O15 0.601777 0.601777 0.500000
O O16 0.641652 0.682323 0.593653
O O17 0.714765 0.581828 0.561221
O O18 0.718402 0.924679 0.946179
O O19 0.000000 0.310957 0.945582
#
# Coordination Sequence:
#
# PCOD9558949 Si02
#       8
#    16  16  16  16  16  16  16  16
#     4  10  18  28  45  69  94 124 167 213 251 289
#     4  10  19  31  47  70 100 131 160 207 258 292
#     4  10  16  30  49  69  93 125 164 211 248 285
#     4  11  17  28  47  68  95 126 167 209 250 286
#     4  10  17  28  44  63  92 133 170 204 243 291
#     4   9  16  25  39  63  94 128 168 205 234 272
#     4   9  18  30  46  68  98 128 163 200 244 289
#     4  11  19  27  44  72 101 129 161 201 246 299
#
# _framework density 16.190176999999998
#
# number of rings (size 3 to 8) (size 9 to 14) (size 15 to 20)
#    0.000    2.000    5.000    1.875    0.000    0.250 
#    0.000    0.625    0.000    7.125    0.000    0.000 
#    0.000   29.250    0.000    0.000    0.250    0.000 
#
# Total GULP energy -356545.601528 kJ/mol
# GULP energy per Si atom -5571.025024 kJ/mol
# Density = 1.615333 g / cm^3
# Si number density = 16.190177 Si / 1000 Ang^3
#
#
#
# Elastic Constant Matrix: (Units=GPa)
#
#
# Indices 1 2 3 4 5 6 
#
# 1 81.2340 36.0491 18.9695 0.0000 0.0000 0.0000
# 2 36.0491 81.2340 18.9695 0.0000 0.0000 0.0000
# 3 18.9695 18.9695 31.3139 0.0000 0.0000 0.0000
# 4 0.0000 0.0000 0.0000 9.7011 0.0000 0.0000
# 5 0.0000 0.0000 0.0000 0.0000 9.7011 0.0000
# 6 0.0000 0.0000 0.0000 0.0000 0.0000 1.1422
#
#
#
# Elastic Compliance Matrix: (Units=1/GPa)
#
#
# Indices 1 2 3 4 5 6 
#
# 1 0.016368 -0.005763 -0.006424 0.000000 0.000000 0.000000
# 2 -0.005763 0.016368 -0.006424 0.000000 0.000000 0.000000
# 3 -0.006424 -0.006424 0.039718 0.000000 0.000000 0.000000
# 4 0.000000 0.000000 0.000000 0.103081 0.000000 0.000000
# 5 0.000000 0.000000 0.000000 0.000000 0.103081 0.000000
# 6 0.000000 0.000000 0.000000 0.000000 0.000000 0.875515
#
#
# Mechanical properties :
#
#
# Convention : Reuss Voigt Hill
#
# Bulk Modulus (GPa) = 28.38437 37.97314 33.17875
# Shear Modulus (GPa) = 4.15594 12.09513 8.12554
#
# Velocity S-wave (km/s) = 1.60391 2.73622 2.24270
# Velocity P-wave (km/s) = 4.58257 5.78687 5.21957
#
# Compressibility (1/GPa) = 0.03523066
#
# Stress axis : x y z
#
# Youngs Moduli (GPa) = 61.09525 61.09525 25.17756
#
# Poissons Ratio (x) = 0.35212 0.16174
# Poissons Ratio (y) = 0.35212 0.16174
# Poissons Ratio (z) = 0.39248 0.39248
#
# Static dielectric constant tensor:
#      x y z
#    x 1.549210 0.000000 0.000000 
#    y 0.000000 1.549210 0.000000 
#    z 0.000000 0.000000 1.579340 
# 
# From -- ./inp_files/6930.got.cif
#   From: 2010.05.17/outbox.cif.g08.bks.cpg/sg119_4_cif.got.tgz:6930.got - 2010.05.20 11:21:29.
