data_PCOD9558171
_publ_section_title
;
Structure prediction by ZEFSAII (Michael W. Deem and Ramdas Pophale) SiO2 
 PCOD9558171
Probable space group: P -4 B 2
;
_chemical_formula_sum "Si O2"
_cell_formula_units_Z 58
_cell_length_a 18.058759
_cell_length_b 18.058759
_cell_length_c 8.800564
_cell_angle_alpha 90.000000
_cell_angle_beta 90.000000
_cell_angle_gamma 90.000000
_cell_volume 2870.029165
_symmetry_space_group_name_H-M "P -4 B 2"
_symmetry_group_IT_number 117
_symmetry_cell_setting 'tetragonal'
loop_
_space_group_symop_operation_xyz
x,y,z
y,-x,-z
-x,-y,z
-y,x,-z
1/2+y,1/2+x,-z
1/2-y,1/2-x,-z
1/2-x,1/2+y,z
1/2+x,1/2-y,z
loop_
_atom_site_type_symbol
_atom_site_label
_atom_site_fract_x
_atom_site_fract_y
_atom_site_fract_z
Si Si1 0.645603 0.121795 0.174257
Si Si2 0.363639 0.420414 0.853964
Si Si3 0.067027 0.793020 0.682356
Si Si4 0.440342 0.306578 0.327291
Si Si5 0.500000 0.500000 0.000000
Si Si6 0.532904 0.870075 0.695070
Si Si7 0.495338 0.146111 0.342154
Si Si8 0.598926 0.307566 0.811962
O O1 0.575981 0.153253 0.267509
O O2 0.729011 0.135799 0.231537
O O3 0.635432 0.033239 0.186792
O O4 0.643677 0.143677 0.000000
O O5 0.376160 0.341383 0.778278
O O6 0.334718 0.481004 0.735846
O O7 0.444480 0.450048 0.903667
O O8 0.315277 0.414248 0.006745
O O9 0.070325 0.816773 0.506944
O O10 0.080376 0.705296 0.702976
O O11 0.982487 0.808191 0.736359
O O12 0.446349 0.218352 0.306717
O O13 0.376006 0.350493 0.240198
O O14 0.498649 0.864883 0.524349
O O15 0.577408 0.945704 0.712271
#
# Coordination Sequence:
#
# PCOD9558171 Si02
#       8
#     8   8   8   8   2   8   8   8
#     4  11  23  39  62  91 125 161 209 257 300 373
#     4  12  20  37  60  87 126 170 206 252 319 375
#     4  10  21  38  64  94 120 160 214 261 307 366
#     4  11  22  38  63  90 127 161 209 263 303 374
#     4  12  20  32  62  80 112 176 214 236 304 384
#     4   9  21  41  67  89 124 158 212 263 309 367
#     4  10  21  42  64  91 120 169 205 256 320 364
#     4  11  22  40  58  90 129 162 203 256 312 373
#
# _framework density 20.208852
#
# number of rings (size 3 to 8) (size 9 to 14) (size 15 to 20)
#    0.000    1.379    2.759    2.483    0.000    3.310 
#    4.966    2.759   12.138    0.000    0.000    0.000 
#    0.000    0.000    0.000    0.000    0.000    0.000 
#
# Total GULP energy -323919.345788 kJ/mol
# GULP energy per Si atom -5584.816307 kJ/mol
# Density = 2.016286 g / cm^3
# Si number density = 20.208852 Si / 1000 Ang^3
#
#
#
# Elastic Constant Matrix: (Units=GPa)
#
#
# Indices 1 2 3 4 5 6 
#
# 1 68.9444 21.4709 4.4677 0.0000 0.0000 0.0000
# 2 21.4709 68.9444 4.4677 0.0000 0.0000 0.0000
# 3 4.4677 4.4677 31.7802 0.0000 0.0000 0.0000
# 4 0.0000 0.0000 0.0000 24.6664 0.0000 0.0000
# 5 0.0000 0.0000 0.0000 0.0000 24.6664 0.0000
# 6 0.0000 0.0000 0.0000 0.0000 0.0000 18.3335
#
#
#
# Elastic Compliance Matrix: (Units=1/GPa)
#
#
# Indices 1 2 3 4 5 6 
#
# 1 0.016140 -0.004924 -0.001577 0.000000 0.000000 0.000000
# 2 -0.004924 0.016140 -0.001577 0.000000 0.000000 0.000000
# 3 -0.001577 -0.001577 0.031909 0.000000 0.000000 0.000000
# 4 0.000000 0.000000 0.000000 0.040541 0.000000 0.000000
# 5 0.000000 0.000000 0.000000 0.000000 0.040541 0.000000
# 6 0.000000 0.000000 0.000000 0.000000 0.000000 0.054545
#
#
# Mechanical properties :
#
#
# Convention : Reuss Voigt Hill
#
# Bulk Modulus (GPa) = 20.81848 25.60907 23.21377
# Shear Modulus (GPa) = 21.55324 22.81743 22.18533
#
# Velocity S-wave (km/s) = 3.26931 3.36383 3.31691
# Velocity P-wave (km/s) = 4.95734 5.27132 5.11674
#
# Compressibility (1/GPa) = 0.04803425
#
# Stress axis : x y z
#
# Youngs Moduli (GPa) = 61.95730 61.95730 31.33866
#
# Poissons Ratio (x) = 0.30509 0.04941
# Poissons Ratio (y) = 0.30509 0.04941
# Poissons Ratio (z) = 0.09769 0.09769
#
# Static dielectric constant tensor:
#      x y z
#    x 1.725700 0.000000 0.000000 
#    y 0.000000 1.725700 0.000000 
#    z 0.000000 0.000000 1.702830 
# 
# From -- ./inp_files/2055.got.cif
#   From: 2010.05.17/outbox.cif.g08.bks.cpg/sg117_2_cif.got.tgz:2055.got - 2010.05.20 11:15:09.
