data_PCOD9558867
_publ_section_title
;
Structure prediction by ZEFSAII (Michael W. Deem and Ramdas Pophale) SiO2 
 PCOD9558867
Probable space group: P -4 N 2
;
_chemical_formula_sum "Si O2"
_cell_formula_units_Z 26
_cell_length_a 10.556053
_cell_length_b 10.556053
_cell_length_c 10.106316
_cell_angle_alpha 90.000000
_cell_angle_beta 90.000000
_cell_angle_gamma 90.000000
_cell_volume 1126.149368
_symmetry_space_group_name_H-M "P -4 N 2"
_symmetry_group_IT_number 118
_symmetry_cell_setting 'tetragonal'
loop_
_space_group_symop_operation_xyz
x,y,z
y,-x,-z
-x,-y,z
-y,x,-z
1/2+y,1/2+x,1/2-z
1/2-y,1/2-x,1/2-z
1/2-x,1/2+y,1/2+z
1/2+x,1/2-y,1/2+z
loop_
_atom_site_type_symbol
_atom_site_label
_atom_site_fract_x
_atom_site_fract_y
_atom_site_fract_z
Si Si1 0.000000 0.500000 0.750000
Si Si2 0.230613 0.934459 0.698177
Si Si3 0.725067 0.922819 0.425134
Si Si4 0.179126 0.086407 0.955741
O O1 0.996531 0.378122 0.658483
O O2 0.348681 0.848681 0.750000
O O3 0.113130 0.840166 0.671896
O O4 0.207758 0.042211 0.806900
O O5 0.247591 0.997079 0.555426
O O6 0.666242 0.790427 0.477707
O O7 0.159882 0.953050 0.031981
#
# Coordination Sequence:
#
# PCOD9558867 Si02
#       4
#     2   8   8   8
#     4  12  24  44  74 104 154 202 260 318 392 464
#     4  12  26  51  73 116 151 194 273 315 399 473
#     4  12  27  48  78 111 153 208 256 331 390 474
#     4  11  24  47  76 107 155 204 254 326 387 473
#
# _framework density 23.087523999999998
#
# number of rings (size 3 to 8) (size 9 to 14) (size 15 to 20)
#    0.000    0.308    4.615    2.769    0.000    9.231 
#    0.000    0.000    0.000    0.000    0.000    0.000 
#    0.000    0.000    0.000    0.000    0.000    0.000 
#
# Total GULP energy -145776.642389 kJ/mol
# GULP energy per Si atom -5606.793938 kJ/mol
# Density = 2.303498 g / cm^3
# Si number density = 23.087524 Si / 1000 Ang^3
#
#
#
# Elastic Constant Matrix: (Units=GPa)
#
#
# Indices 1 2 3 4 5 6 
#
# 1 -41.4079 98.9214 0.6024 0.0000 0.0000 0.0000
# 2 98.9214 -41.4079 0.6024 0.0000 0.0000 0.0000
# 3 0.6024 0.6024 111.3622 0.0000 0.0000 0.0000
# 4 0.0000 0.0000 0.0000-1357.9977 0.0000 0.0000
# 5 0.0000 0.0000 0.0000 0.0000-1357.9977 0.0000
# 6 0.0000 0.0000 0.0000 0.0000 0.0000 37.4995
#
#
#
# Elastic Compliance Matrix: (Units=1/GPa)
#
#
# Indices 1 2 3 4 5 6 
#
# 1 0.005132 0.012258 -0.000094 0.000000 0.000000 0.000000
# 2 0.012258 0.005132 -0.000094 0.000000 0.000000 0.000000
# 3 -0.000094 -0.000094 0.008981 0.000000 0.000000 0.000000
# 4 0.000000 0.000000 0.000000 -0.000736 0.000000 0.000000
# 5 0.000000 0.000000 0.000000 0.000000 -0.000736 0.000000
# 6 0.000000 0.000000 0.000000 0.000000 0.000000 0.026667
#
#
# Mechanical properties :
#
#
# Convention : Reuss Voigt Hill
#
# Bulk Modulus (GPa) = 23.05057 25.42208 24.23633
# Shear Modulus (GPa) = 143.84340 -540.47118 -198.31389
#
# Velocity S-wave (km/s) = 7.90182 -15.31682 -9.27809
# Velocity P-wave (km/s) = 9.65699 17.37157 10.21063
#
# Compressibility (1/GPa) = 0.04338287
#
# Stress axis : x y z
#
# Youngs Moduli (GPa) = 194.87295 194.87295 111.34960
#
# Poissons Ratio (x) = -2.38868 0.01047
# Poissons Ratio (y) = -2.38868 0.01047
# Poissons Ratio (z) = 0.01833 0.01833
#
# Static dielectric constant tensor:
#      x y z
#    x 2.480550 0.000000 0.000000 
#    y 0.000000 2.480550 0.000000 
#    z 0.000000 0.000000 1.860520 
# 
# From -- ./inp_files/1401.got.cif
#   From: 2010.05.17/outbox.cif.g08.bks.cpg/sg118_1_cif.got.tgz:1401.got - 2010.05.20 11:17:24.
