data_PCOD9558232
_publ_section_title
;
Structure prediction by ZEFSAII (Michael W. Deem and Ramdas Pophale) SiO2 
 PCOD9558232
Probable space group: P -4 B 2
;
_chemical_formula_sum "Si O2"
_cell_formula_units_Z 30
_cell_length_a 9.543447
_cell_length_b 9.543447
_cell_length_c 16.179931
_cell_angle_alpha 90.000000
_cell_angle_beta 90.000000
_cell_angle_gamma 90.000000
_cell_volume 1473.625734
_symmetry_space_group_name_H-M "P -4 B 2"
_symmetry_group_IT_number 117
_symmetry_cell_setting 'tetragonal'
loop_
_space_group_symop_operation_xyz
x,y,z
y,-x,-z
-x,-y,z
-y,x,-z
1/2+y,1/2+x,-z
1/2-y,1/2-x,-z
1/2-x,1/2+y,z
1/2+x,1/2-y,z
loop_
_atom_site_type_symbol
_atom_site_label
_atom_site_fract_x
_atom_site_fract_y
_atom_site_fract_z
Si Si1 0.851402 0.576498 0.215306
Si Si2 0.605983 0.612599 0.842975
Si Si3 0.000000 0.000000 0.000000
Si Si4 0.011141 0.669527 0.600810
Si Si5 0.260501 0.760501 0.500000
O O1 0.749879 0.490294 0.155330
O O2 0.863690 0.742167 0.196803
O O3 0.797372 0.544318 0.308142
O O4 0.000000 0.500000 0.210284
O O5 0.500000 0.500000 0.800046
O O6 0.617835 0.553540 0.936356
O O7 0.165881 0.718250 0.577804
O O8 0.000000 0.500000 0.592687
O O9 0.918339 0.747655 0.532273
#
# Coordination Sequence:
#
# PCOD9558232 Si02
#       5
#     8   8   2   8   4
#     4  11  23  42  70  96 135 182 231 278 352 411
#     4  10  22  45  65 102 134 175 224 283 342 424
#     4   8  24  44  68  96 152 150 228 276 332 440
#     4  11  24  42  61  95 133 169 227 284 321 411
#     4  12  20  44  62  88 132 172 220 278 334 368
#
# _framework density 20.357949999999999
#
# number of rings (size 3 to 8) (size 9 to 14) (size 15 to 20)
#    0.800    0.533    2.667    3.200    0.000    3.733 
#    4.800    1.333    0.000    0.000    0.000    0.000 
#    0.000    0.000    0.000    0.000    0.000    0.000 
#
# Total GULP energy -167077.183552 kJ/mol
# GULP energy per Si atom -5569.239452 kJ/mol
# Density = 2.031161 g / cm^3
# Si number density = 20.357950 Si / 1000 Ang^3
#
#
#
# Elastic Constant Matrix: (Units=GPa)
#
#
# Indices 1 2 3 4 5 6 
#
# 1 77.6606 53.7733 14.5442 0.0000 0.0000 0.0000
# 2 53.7733 77.6606 14.5442 0.0000 0.0000 0.0000
# 3 14.5442 14.5442 79.4706 0.0000 0.0000 0.0000
# 4 0.0000 0.0000 0.0000 16.3207 0.0000 0.0000
# 5 0.0000 0.0000 0.0000 0.0000 16.3207 0.0000
# 6 0.0000 0.0000 0.0000 0.0000 0.0000 37.8128
#
#
#
# Elastic Compliance Matrix: (Units=1/GPa)
#
#
# Indices 1 2 3 4 5 6 
#
# 1 0.024896 -0.016967 -0.001451 0.000000 0.000000 0.000000
# 2 -0.016967 0.024896 -0.001451 0.000000 0.000000 0.000000
# 3 -0.001451 -0.001451 0.013114 0.000000 0.000000 0.000000
# 4 0.000000 0.000000 0.000000 0.061272 0.000000 0.000000
# 5 0.000000 0.000000 0.000000 0.000000 0.061272 0.000000
# 6 0.000000 0.000000 0.000000 0.000000 0.000000 0.026446
#
#
# Mechanical properties :
#
#
# Convention : Reuss Voigt Hill
#
# Bulk Modulus (GPa) = 43.16163 44.50166 43.83164
# Shear Modulus (GPa) = 19.27836 24.21952 21.74894
#
# Velocity S-wave (km/s) = 3.08063 3.45292 3.27207
# Velocity P-wave (km/s) = 5.82246 6.14849 5.98770
#
# Compressibility (1/GPa) = 0.02316873
#
# Stress axis : x y z
#
# Youngs Moduli (GPa) = 40.16653 40.16653 76.25172
#
# Poissons Ratio (x) = 0.68150 0.11066
# Poissons Ratio (y) = 0.68150 0.11066
# Poissons Ratio (z) = 0.05829 0.05829
#
# Static dielectric constant tensor:
#      x y z
#    x 1.742560 0.000000 0.000000 
#    y 0.000000 1.742560 0.000000 
#    z 0.000000 0.000000 1.793070 
# 
# From -- ./inp_files/3400.got.cif
#   From: 2010.05.17/outbox.cif.g08.bks.cpg/sg117_2_cif.got.tgz:3400.got - 2010.05.20 11:15:09.
