data_PCOD9558664
_publ_section_title
;
Structure prediction by ZEFSAII (Michael W. Deem and Ramdas Pophale) SiO2 
 PCOD9558664
Probable space group: P -4 N 2
;
_chemical_formula_sum "Si O2"
_cell_formula_units_Z 48
_cell_length_a 9.046692
_cell_length_b 9.046692
_cell_length_c 28.797975
_cell_angle_alpha 90.000000
_cell_angle_beta 90.000000
_cell_angle_gamma 90.000000
_cell_volume 2356.902190
_symmetry_space_group_name_H-M "P -4 N 2"
_symmetry_group_IT_number 118
_symmetry_cell_setting 'tetragonal'
loop_
_space_group_symop_operation_xyz
x,y,z
y,-x,-z
-x,-y,z
-y,x,-z
1/2+y,1/2+x,1/2-z
1/2-y,1/2-x,1/2-z
1/2-x,1/2+y,1/2+z
1/2+x,1/2-y,1/2+z
loop_
_atom_site_type_symbol
_atom_site_label
_atom_site_fract_x
_atom_site_fract_y
_atom_site_fract_z
Si Si1 0.848928 0.198823 0.706828
Si Si2 0.804636 0.859634 0.708770
Si Si3 0.628947 0.611979 0.887298
Si Si4 0.553693 0.727254 0.982080
Si Si5 0.385050 0.129915 0.112104
Si Si6 0.436395 0.274304 0.481113
O O1 0.783739 0.283739 0.750000
O O2 0.827583 0.290908 0.659047
O O3 0.023054 0.177286 0.716928
O O4 0.779724 0.035249 0.705815
O O5 0.711421 0.788579 0.750000
O O6 0.792407 0.806847 0.655040
O O7 0.500000 0.500000 0.869686
O O8 0.561739 0.712092 0.926815
O O9 0.747981 0.498797 0.908590
O O10 0.668362 0.604848 0.002395
O O11 0.620376 0.882431 0.997005
O O12 0.262760 0.079937 0.074204
O O13 0.500000 0.000000 0.124533
O O14 0.328882 0.403995 0.501030
#
# Coordination Sequence:
#
# PCOD9558664 Si02
#       6
#     8   8   8   8   8   8
#     4  10  23  41  65  97 126 165 225 279 328 412
#     4  10  22  41  64  91 132 168 209 276 340 388
#     4  11  18  38  62  94 126 160 214 278 321 385
#     4  11  20  34  67  96 121 164 223 269 320 392
#     4  11  22  39  66  92 125 173 226 276 328 395
#     4  11  25  43  58  91 141 176 210 271 340 395
#
# _framework density 20.365715000000002
#
# number of rings (size 3 to 8) (size 9 to 14) (size 15 to 20)
#    0.000    1.333    6.667    1.000    4.667    0.333 
#    3.000    1.667    0.000    0.000    0.000    0.000 
#    0.000    0.000    0.000    0.000    0.000    0.000 
#
# Total GULP energy -267524.992435 kJ/mol
# GULP energy per Si atom -5573.437342 kJ/mol
# Density = 2.031936 g / cm^3
# Si number density = 20.365715 Si / 1000 Ang^3
#
#
#
# Elastic Constant Matrix: (Units=GPa)
#
#
# Indices 1 2 3 4 5 6 
#
# 1 69.1887 52.9912 43.9330 0.0000 0.0000 0.0000
# 2 52.9912 69.1895 43.9331 0.0000 0.0000 0.0000
# 3 43.9330 43.9331 157.1190 0.0000 0.0000 0.0000
# 4 0.0000 0.0000 0.0000 28.3804 0.0000 0.0000
# 5 0.0000 0.0000 0.0000 0.0000 28.3805 0.0000
# 6 0.0000 0.0000 0.0000 0.0000 0.0000 39.3004
#
#
#
# Elastic Compliance Matrix: (Units=1/GPa)
#
#
# Indices 1 2 3 4 5 6 
#
# 1 0.035991 -0.025746 -0.002865 0.000000 0.000000 0.000000
# 2 -0.025746 0.035990 -0.002865 0.000000 0.000000 0.000000
# 3 -0.002865 -0.002865 0.007967 0.000000 0.000000 0.000000
# 4 0.000000 0.000000 0.000000 0.035236 0.000000 0.000000
# 5 0.000000 0.000000 0.000000 0.000000 0.035236 0.000000
# 6 0.000000 0.000000 0.000000 0.000000 0.000000 0.025445
#
#
# Mechanical properties :
#
#
# Convention : Reuss Voigt Hill
#
# Bulk Modulus (GPa) = 58.83174 64.13464 61.48319
# Shear Modulus (GPa) = 20.45160 29.52158 24.98659
#
# Velocity S-wave (km/s) = 3.17238 3.81146 3.50651
# Velocity P-wave (km/s) = 6.50915 7.13649 6.83002
#
# Compressibility (1/GPa) = 0.01699763
#
# Stress axis : x y z
#
# Youngs Moduli (GPa) = 27.78490 27.78525 125.52444
#
# Poissons Ratio (x) = 0.71535 0.35958
# Poissons Ratio (y) = 0.71535 0.35957
# Poissons Ratio (z) = 0.07959 0.07959
#
# Static dielectric constant tensor:
#      x y z
#    x 1.763140 0.000000 0.000000 
#    y 0.000000 1.763140 0.000000 
#    z 0.000000 0.000000 1.766090 
# 
# From -- ./inp_files/6877.got.cif
#   From: 2010.05.17/outbox.cif.g08.bks.cpg/sg118_4_cif.got.tgz:6877.got - 2010.05.20 11:17:24.
