data_PCOD9558015
_publ_section_title
;
Structure prediction by ZEFSAII (Michael W. Deem and Ramdas Pophale) SiO2 
 PCOD9558015
Probable space group: P -4 C 2
;
_chemical_formula_sum "Si O2"
_cell_formula_units_Z 22
_cell_length_a 8.935564
_cell_length_b 8.935564
_cell_length_c 11.850443
_cell_angle_alpha 90.000000
_cell_angle_beta 90.000000
_cell_angle_gamma 90.000000
_cell_volume 946.190373
_symmetry_space_group_name_H-M "P -4 C 2"
_symmetry_group_IT_number 116
_symmetry_cell_setting 'tetragonal'
loop_
_space_group_symop_operation_xyz
x,y,z
y,-x,-z
-x,-y,z
-y,x,-z
y,x,1/2-z
-y,-x,1/2-z
-x,y,1/2+z
x,-y,1/2+z
loop_
_atom_site_type_symbol
_atom_site_label
_atom_site_fract_x
_atom_site_fract_y
_atom_site_fract_z
Si Si1 0.273936 0.412231 0.025333
Si Si2 0.772119 0.227882 0.750000
Si Si3 0.000000 0.000000 0.500000
Si Si4 0.247104 0.894163 0.149728
O O1 0.244876 0.347412 0.149400
O O2 0.320193 0.584111 0.023392
O O3 0.143300 0.378547 0.936266
O O4 0.937922 0.247805 0.801942
O O5 0.905246 0.888382 0.576094
O O6 0.223780 0.776221 0.250000
#
# Coordination Sequence:
#
# PCOD9558015 Si02
#       4
#     8   4   2   8
#     4  11  29  51  72 105 154 203 248 300 376 448
#     4  12  25  47  74 108 146 190 254 310 372 438
#     4  12  18  44  64 110 152 186 232 320 378 420
#     4  12  22  43  73 105 147 190 244 307 371 431
#
# _framework density 23.251135000000001
#
# number of rings (size 3 to 8) (size 9 to 14) (size 15 to 20)
#    0.000    0.364    7.273    0.000    5.091    2.909 
#    0.000    0.000    0.000    0.000    0.000    0.000 
#    0.000    0.000    0.000    0.000    0.000    0.000 
#
# Total GULP energy -123209.832981 kJ/mol
# GULP energy per Si atom -5600.446954 kJ/mol
# Density = 2.319821 g / cm^3
# Si number density = 23.251135 Si / 1000 Ang^3
#
#
#
# Elastic Constant Matrix: (Units=GPa)
#
#
# Indices 1 2 3 4 5 6 
#
# 1 58.8622 47.2101 43.5407 0.0000 0.0000 0.0000
# 2 47.2101 58.8635 43.5411 0.0000 0.0000 0.0000
# 3 43.5407 43.5411 160.4727 0.0000 0.0000 0.0000
# 4 0.0000 0.0000 0.0000 11.7157 0.0000 0.0000
# 5 0.0000 0.0000 0.0000 0.0000 11.7145 0.0000
# 6 0.0000 0.0000 0.0000 0.0000 0.0000 36.5414
#
#
#
# Elastic Compliance Matrix: (Units=1/GPa)
#
#
# Indices 1 2 3 4 5 6 
#
# 1 0.048974 -0.036844 -0.003291 0.000000 0.000000 0.000000
# 2 -0.036844 0.048973 -0.003291 0.000000 0.000000 0.000000
# 3 -0.003291 -0.003291 0.008017 0.000000 0.000000 0.000000
# 4 0.000000 0.000000 0.000000 0.085356 0.000000 0.000000
# 5 0.000000 0.000000 0.000000 0.000000 0.085364 0.000000
# 6 0.000000 0.000000 0.000000 0.000000 0.000000 0.027366
#
#
# Mechanical properties :
#
#
# Convention : Reuss Voigt Hill
#
# Bulk Modulus (GPa) = 52.32328 60.75358 56.53843
# Shear Modulus (GPa) = 12.58583 21.58807 17.08695
#
# Velocity S-wave (km/s) = 2.32911 3.05039 2.71382
# Velocity P-wave (km/s) = 5.45760 6.21229 5.84713
#
# Compressibility (1/GPa) = 0.01911195
#
# Stress axis : x y z
#
# Youngs Moduli (GPa) = 20.41914 20.41961 124.72729
#
# Poissons Ratio (x) = 0.75234 0.41049
# Poissons Ratio (y) = 0.75232 0.41047
# Poissons Ratio (z) = 0.06720 0.06720
#
# Static dielectric constant tensor:
#      x y z
#    x 1.885880 0.000000 0.000000 
#    y 0.000000 1.885880 0.000000 
#    z 0.000000 0.000000 1.912930 
# 
# From -- ./inp_files/2291.got.cif
#   From: 2010.05.17/outbox.cif.g08.bks.cpg/sg116_2_cif.got.tgz:2291.got - 2010.05.20 11:11:43.
