data_PCOD9558193
_publ_section_title
;
Structure prediction by ZEFSAII (Michael W. Deem and Ramdas Pophale) SiO2 
 PCOD9558193
Probable space group: P -4 B 2
;
_chemical_formula_sum "Si O2"
_cell_formula_units_Z 52
_cell_length_a 22.024151
_cell_length_b 22.024151
_cell_length_c 5.193761
_cell_angle_alpha 90.000000
_cell_angle_beta 90.000000
_cell_angle_gamma 90.000000
_cell_volume 2519.302472
_symmetry_space_group_name_H-M "P -4 B 2"
_symmetry_group_IT_number 117
_symmetry_cell_setting 'tetragonal'
loop_
_space_group_symop_operation_xyz
x,y,z
y,-x,-z
-x,-y,z
-y,x,-z
1/2+y,1/2+x,-z
1/2-y,1/2-x,-z
1/2-x,1/2+y,z
1/2+x,1/2-y,z
loop_
_atom_site_type_symbol
_atom_site_label
_atom_site_fract_x
_atom_site_fract_y
_atom_site_fract_z
Si Si1 0.829021 0.670980 0.000000
Si Si2 0.192156 0.865928 0.860097
Si Si3 0.512638 0.843693 0.332984
Si Si4 0.321451 0.623221 0.647416
Si Si5 0.126078 0.626078 0.000000
Si Si6 0.728542 0.919688 0.301024
Si Si7 0.791904 0.993525 0.902036
Si Si8 0.615827 0.115827 0.500000
O O1 0.843539 0.737971 0.115554
O O2 0.839908 0.628321 0.253642
O O3 0.159007 0.854331 0.585767
O O4 0.186767 0.937822 0.917434
O O5 0.158445 0.831297 0.090003
O O6 0.534864 0.824328 0.614714
O O7 0.502125 0.777548 0.203011
O O8 0.449761 0.877099 0.369505
O O9 0.568185 0.876461 0.191100
O O10 0.253016 0.617735 0.541424
O O11 0.331659 0.551867 0.723842
O O12 0.193317 0.623399 0.113866
O O13 0.782052 0.958123 0.170732
#
# Coordination Sequence:
#
# PCOD9558193 Si02
#       8
#     4   8   8   8   4   8   8   4
#     4  12  26  45  68 105 143 180 221 295 362 399
#     4  12  25  44  70 105 141 175 232 287 342 422
#     4  10  22  40  69  93 133 183 241 282 344 411
#     4  11  25  42  68 107 131 183 224 279 349 416
#     4  10  22  41  65  96 133 190 239 296 344 398
#     4  10  21  44  64  99 132 185 231 279 351 415
#     4  10  22  45  71  95 141 183 229 273 353 430
#     4  12  24  44  71 100 134 186 238 288 348 427
#
# _framework density 20.640633999999999
#
# number of rings (size 3 to 8) (size 9 to 14) (size 15 to 20)
#    0.000    1.231    3.077    2.308    6.462    0.615 
#    8.308    2.308    0.000    2.769    0.000    0.000 
#    0.000    0.000    0.000    0.000    0.000    0.000 
#
# Total GULP energy -289732.344441 kJ/mol
# GULP energy per Si atom -5571.775855 kJ/mol
# Density = 2.059365 g / cm^3
# Si number density = 20.640634 Si / 1000 Ang^3
#
#
#
# Elastic Constant Matrix: (Units=GPa)
#
#
# Indices 1 2 3 4 5 6 
#
# 1 66.1985 53.1505 27.4115 0.0000 0.0000 0.0000
# 2 53.1505 66.1983 27.4113 0.0000 0.0000 0.0000
# 3 27.4115 27.4113 104.0720 0.0000 0.0000 0.0000
# 4 0.0000 0.0000 0.0000 25.8699 0.0000 0.0000
# 5 0.0000 0.0000 0.0000 0.0000 25.8698 0.0000
# 6 0.0000 0.0000 0.0000 0.0000 0.0000 16.7480
#
#
#
# Elastic Compliance Matrix: (Units=1/GPa)
#
#
# Indices 1 2 3 4 5 6 
#
# 1 0.043086 -0.033554 -0.002511 0.000000 0.000000 0.000000
# 2 -0.033554 0.043086 -0.002511 0.000000 0.000000 0.000000
# 3 -0.002511 -0.002511 0.010931 0.000000 0.000000 0.000000
# 4 0.000000 0.000000 0.000000 0.038655 0.000000 0.000000
# 5 0.000000 0.000000 0.000000 0.000000 0.038655 0.000000
# 6 0.000000 0.000000 0.000000 0.000000 0.000000 0.059709
#
#
# Mechanical properties :
#
#
# Convention : Reuss Voigt Hill
#
# Bulk Modulus (GPa) = 50.11819 50.26839 50.19329
# Shear Modulus (GPa) = 15.72698 22.26389 18.99544
#
# Velocity S-wave (km/s) = 2.76333 3.28783 3.03692
# Velocity P-wave (km/s) = 5.87497 6.23058 6.05539
#
# Compressibility (1/GPa) = 0.01995283
#
# Stress axis : x y z
#
# Youngs Moduli (GPa) = 23.20923 23.20919 91.48061
#
# Poissons Ratio (x) = 0.77877 0.22968
# Poissons Ratio (y) = 0.77877 0.22967
# Poissons Ratio (z) = 0.05827 0.05827
#
# Static dielectric constant tensor:
#      x y z
#    x 1.762930 0.000000 0.000000 
#    y 0.000000 1.762930 0.000000 
#    z 0.000000 0.000000 1.893680 
# 
# From -- ./inp_files/880.got.cif
#   From: 2010.05.17/outbox.cif.g08.bks.cpg/sg117_1_cif.got.tgz:880.got - 2010.05.20 11:15:09.
