data_PCOD9558881
_publ_section_title
;
Structure prediction by ZEFSAII (Michael W. Deem and Ramdas Pophale) SiO2 
 PCOD9558881
Probable space group: P -4 N 2
;
_chemical_formula_sum "Si O2"
_cell_formula_units_Z 20
_cell_length_a 9.855936
_cell_length_b 9.855936
_cell_length_c 8.629183
_cell_angle_alpha 90.000000
_cell_angle_beta 90.000000
_cell_angle_gamma 90.000000
_cell_volume 838.234301
_symmetry_space_group_name_H-M "P -4 N 2"
_symmetry_group_IT_number 118
_symmetry_cell_setting 'tetragonal'
loop_
_space_group_symop_operation_xyz
x,y,z
y,-x,-z
-x,-y,z
-y,x,-z
1/2+y,1/2+x,1/2-z
1/2-y,1/2-x,1/2-z
1/2-x,1/2+y,1/2+z
1/2+x,1/2-y,1/2+z
loop_
_atom_site_type_symbol
_atom_site_label
_atom_site_fract_x
_atom_site_fract_y
_atom_site_fract_z
Si Si1 0.268695 0.950571 0.362868
Si Si2 0.249214 0.528482 0.204521
Si Si3 0.750667 0.250667 0.750000
O O1 0.379072 0.879072 0.250000
O O2 0.126809 0.877279 0.319200
O O3 0.285167 0.944626 0.547901
O O4 0.265504 0.111853 0.347559
O O5 0.124843 0.624843 0.250000
O O6 0.271752 0.401880 0.318466
#
# Coordination Sequence:
#
# PCOD9558881 Si02
#       3
#     8   8   4
#     4  11  25  49  75 107 156 204 251 317 389 456
#     4  11  25  49  75 107 156 204 251 317 389 456
#     4  12  24  40  78 108 142 204 250 318 374 458
#
# _framework density 23.859676
#
# number of rings (size 3 to 8) (size 9 to 14) (size 15 to 20)
#    0.000    0.800    4.000    2.400    0.000    6.400 
#    0.000    0.000    8.800    0.000    0.000    0.000 
#    0.000    0.000    0.000    0.000    0.000    0.000 
#
# Total GULP energy -111436.354793 kJ/mol
# GULP energy per Si atom -5571.817740 kJ/mol
# Density = 2.380537 g / cm^3
# Si number density = 23.859676 Si / 1000 Ang^3
#
#
#
# Elastic Constant Matrix: (Units=GPa)
#
#
# Indices 1 2 3 4 5 6 
#
# 1 92.6327 45.9443 40.6524 0.0000 0.0000 0.0000
# 2 45.9443 92.6327 40.6524 0.0000 0.0000 0.0000
# 3 40.6524 40.6524 33.9960 0.0000 0.0000 0.0000
# 4 0.0000 0.0000 0.0000 22.4946 0.0000 0.0000
# 5 0.0000 0.0000 0.0000 0.0000 22.4946 0.0000
# 6 0.0000 0.0000 0.0000 0.0000 0.0000 49.8634
#
#
#
# Elastic Compliance Matrix: (Units=1/GPa)
#
#
# Indices 1 2 3 4 5 6 
#
# 1 0.022800 0.001382 -0.028917 0.000000 0.000000 0.000000
# 2 0.001382 0.022800 -0.028917 0.000000 0.000000 0.000000
# 3 -0.028917 -0.028917 0.098574 0.000000 0.000000 0.000000
# 4 0.000000 0.000000 0.000000 0.044455 0.000000 0.000000
# 5 0.000000 0.000000 0.000000 0.000000 0.044455 0.000000
# 6 0.000000 0.000000 0.000000 0.000000 0.000000 0.020055
#
#
# Mechanical properties :
#
#
# Convention : Reuss Voigt Hill
#
# Bulk Modulus (GPa) = 31.98009 52.63996 42.31003
# Shear Modulus (GPa) = 13.28132 25.10465 19.19299
#
# Velocity S-wave (km/s) = 2.36189 3.24725 2.83929
# Velocity P-wave (km/s) = 4.56843 6.01413 5.34042
#
# Compressibility (1/GPa) = 0.03126946
#
# Stress axis : x y z
#
# Youngs Moduli (GPa) = 43.85873 43.85874 10.14467
#
# Poissons Ratio (x) = -0.06061 0.29336
# Poissons Ratio (y) = -0.06061 0.29336
# Poissons Ratio (z) = 1.26828 1.26828
#
# Static dielectric constant tensor:
#      x y z
#    x 2.027150 0.000000 0.000000 
#    y 0.000000 2.027150 0.000000 
#    z 0.000000 0.000000 2.108190 
# 
# From -- ./inp_files/2467.got.cif
#   From: 2010.05.17/outbox.cif.g08.bks.cpg/sg118_2_cif.got.tgz:2467.got - 2010.05.20 11:17:24.
