data_PCOD9558705
_publ_section_title
;
Structure prediction by ZEFSAII (Michael W. Deem and Ramdas Pophale) SiO2 
 PCOD9558705
Probable space group: P -4 N 2
;
_chemical_formula_sum "Si O2"
_cell_formula_units_Z 42
_cell_length_a 14.331536
_cell_length_b 14.331536
_cell_length_c 8.951583
_cell_angle_alpha 90.000000
_cell_angle_beta 90.000000
_cell_angle_gamma 90.000000
_cell_volume 1838.591808
_symmetry_space_group_name_H-M "P -4 N 2"
_symmetry_group_IT_number 118
_symmetry_cell_setting 'tetragonal'
loop_
_space_group_symop_operation_xyz
x,y,z
y,-x,-z
-x,-y,z
-y,x,-z
1/2+y,1/2+x,1/2-z
1/2-y,1/2-x,1/2-z
1/2-x,1/2+y,1/2+z
1/2+x,1/2-y,1/2+z
loop_
_atom_site_type_symbol
_atom_site_label
_atom_site_fract_x
_atom_site_fract_y
_atom_site_fract_z
Si Si1 0.375400 0.081864 0.414749
Si Si2 0.269868 0.099765 0.842533
Si Si3 0.609894 0.390973 0.522663
Si Si4 0.686733 0.067389 0.633557
Si Si5 0.129950 0.841804 0.639519
Si Si6 0.000000 0.000000 0.500000
O O1 0.418448 0.081553 0.250000
O O2 0.420272 0.165447 0.512748
O O3 0.264284 0.104170 0.397136
O O4 0.375207 0.986741 0.511182
O O5 0.327572 0.172428 0.750000
O O6 0.261762 0.011842 0.733511
O O7 0.174007 0.146142 0.891614
O O8 0.502180 0.373625 0.493870
O O9 0.646854 0.359060 0.682099
O O10 0.624364 0.124364 0.750000
O O11 0.770342 0.130066 0.569221
O O12 0.051719 0.917674 0.591894
#
# Coordination Sequence:
#
# PCOD9558705 Si02
#       6
#     8   8   8   8   8   2
#     4  11  23  43  71 101 135 177 234 298 343 411
#     4  10  23  42  66  93 131 183 228 276 346 413
#     4  11  22  38  64  96 135 178 221 279 350 420
#     4  11  25  46  69  97 136 191 234 282 353 426
#     4  12  23  40  69 103 141 174 230 294 361 414
#     4  12  24  40  66 108 140 180 224 298 360 432
#
# _framework density 22.843568000000001
#
# number of rings (size 3 to 8) (size 9 to 14) (size 15 to 20)
#    0.000    0.952    5.714    1.714    0.000    3.429 
#    0.000    1.905    0.000    0.000    0.000    0.000 
#    0.000    0.000    0.000    0.000    0.000    0.000 
#
# Total GULP energy -234947.015679 kJ/mol
# GULP energy per Si atom -5593.976564 kJ/mol
# Density = 2.279158 g / cm^3
# Si number density = 22.843568 Si / 1000 Ang^3
#
#
#
# Elastic Constant Matrix: (Units=GPa)
#
#
# Indices 1 2 3 4 5 6 
#
# 1 53.7014 15.9271 6.1620 0.0000 0.0000 0.0000
# 2 15.9271 53.7060 6.1636 0.0000 0.0000 0.0000
# 3 6.1620 6.1636 86.2727 0.0000 0.0000 0.0000
# 4 0.0000 0.0000 0.0000 29.7804 0.0000 0.0000
# 5 0.0000 0.0000 0.0000 0.0000 29.7798 0.0000
# 6 0.0000 0.0000 0.0000 0.0000 0.0000 27.1862
#
#
#
# Elastic Compliance Matrix: (Units=1/GPa)
#
#
# Indices 1 2 3 4 5 6 
#
# 1 0.020509 -0.005963 -0.001039 0.000000 0.000000 0.000000
# 2 -0.005963 0.020508 -0.001039 0.000000 0.000000 0.000000
# 3 -0.001039 -0.001039 0.011740 0.000000 0.000000 0.000000
# 4 0.000000 0.000000 0.000000 0.033579 0.000000 0.000000
# 5 0.000000 0.000000 0.000000 0.000000 0.033580 0.000000
# 6 0.000000 0.000000 0.000000 0.000000 0.000000 0.036783
#
#
# Mechanical properties :
#
#
# Convention : Reuss Voigt Hill
#
# Bulk Modulus (GPa) = 27.26710 27.79839 27.53275
# Shear Modulus (GPa) = 27.02622 28.37779 27.70200
#
# Velocity S-wave (km/s) = 3.44335 3.52840 3.48614
# Velocity P-wave (km/s) = 5.26985 5.36609 5.31819
#
# Compressibility (1/GPa) = 0.03667423
#
# Stress axis : x y z
#
# Youngs Moduli (GPa) = 48.75848 48.76256 85.18180
#
# Poissons Ratio (x) = 0.29077 0.08849
# Poissons Ratio (y) = 0.29075 0.08852
# Poissons Ratio (z) = 0.05065 0.05068
#
# Static dielectric constant tensor:
#      x y z
#    x 1.910310 0.000000 0.000000 
#    y 0.000000 1.910310 0.000000 
#    z 0.000000 0.000000 1.899950 
# 
# From -- ./inp_files/1925.got.cif
#   From: 2010.05.17/outbox.cif.g08.bks.cpg/sg118_1_cif.got.tgz:1925.got - 2010.05.20 11:17:24.
