data_PCOD9558718
_publ_section_title
;
Structure prediction by ZEFSAII (Michael W. Deem and Ramdas Pophale) SiO2 
 PCOD9558718
Probable space group: P -4 N 2
;
_chemical_formula_sum "Si O2"
_cell_formula_units_Z 32
_cell_length_a 7.732382
_cell_length_b 7.732382
_cell_length_c 21.876803
_cell_angle_alpha 90.000000
_cell_angle_beta 90.000000
_cell_angle_gamma 90.000000
_cell_volume 1308.008175
_symmetry_space_group_name_H-M "P -4 N 2"
_symmetry_group_IT_number 118
_symmetry_cell_setting 'tetragonal'
loop_
_space_group_symop_operation_xyz
x,y,z
y,-x,-z
-x,-y,z
-y,x,-z
1/2+y,1/2+x,1/2-z
1/2-y,1/2-x,1/2-z
1/2-x,1/2+y,1/2+z
1/2+x,1/2-y,1/2+z
loop_
_atom_site_type_symbol
_atom_site_label
_atom_site_fract_x
_atom_site_fract_y
_atom_site_fract_z
Si Si1 0.918267 0.321906 0.819515
Si Si2 0.340035 0.870062 0.984055
Si Si3 0.802032 0.862062 0.894121
Si Si4 0.448355 0.691586 0.875586
O O1 0.875015 0.375015 0.750000
O O2 0.729670 0.266012 0.842239
O O3 0.000000 0.500000 0.846404
O O4 0.059372 0.179492 0.840946
O O5 0.399476 0.702656 0.947088
O O6 0.500000 0.000000 0.988231
O O7 0.207115 0.965135 0.936618
O O8 0.272462 0.835193 0.050804
O O9 0.611132 0.819309 0.867488
O O10 0.500000 0.500000 0.856811
#
# Coordination Sequence:
#
# PCOD9558718 Si02
#       4
#     8   8   8   8
#     4  11  24  46  70 101 140 193 252 306 366 448
#     4  10  24  40  68 107 141 182 228 302 383 454
#     4  11  23  44  70 103 147 178 239 304 379 456
#     4  11  24  42  69  99 137 190 239 295 372 448
#
# _framework density 24.464679
#
# number of rings (size 3 to 8) (size 9 to 14) (size 15 to 20)
#    0.000    1.250    2.500    2.250    7.000    3.500 
#    4.500    0.000    0.000    0.000    0.000    0.000 
#    0.000    0.000    0.000    0.000    0.000    0.000 
#
# Total GULP energy -178651.735923 kJ/mol
# GULP energy per Si atom -5582.866748 kJ/mol
# Density = 2.440900 g / cm^3
# Si number density = 24.464679 Si / 1000 Ang^3
#
#
#
# Elastic Constant Matrix: (Units=GPa)
#
#
# Indices 1 2 3 4 5 6 
#
# 1 126.9361 26.6121 40.2924 0.0000 0.0000 0.0000
# 2 26.6121 126.9361 40.2924 0.0000 0.0000 0.0000
# 3 40.2924 40.2924 109.5779 0.0000 0.0000 0.0000
# 4 0.0000 0.0000 0.0000 27.9889 0.0000 0.0000
# 5 0.0000 0.0000 0.0000 0.0000 27.9889 0.0000
# 6 0.0000 0.0000 0.0000 0.0000 0.0000 34.4826
#
#
#
# Elastic Compliance Matrix: (Units=1/GPa)
#
#
# Indices 1 2 3 4 5 6 
#
# 1 0.009019 -0.000949 -0.002967 0.000000 0.000000 0.000000
# 2 -0.000949 0.009019 -0.002967 0.000000 0.000000 0.000000
# 3 -0.002967 -0.002967 0.011308 0.000000 0.000000 0.000000
# 4 0.000000 0.000000 0.000000 0.035728 0.000000 0.000000
# 5 0.000000 0.000000 0.000000 0.000000 0.035728 0.000000
# 6 0.000000 0.000000 0.000000 0.000000 0.000000 0.029000
#
#
# Mechanical properties :
#
#
# Convention : Reuss Voigt Hill
#
# Bulk Modulus (GPa) = 64.19068 64.20489 64.19779
# Shear Modulus (GPa) = 33.61055 35.17564 34.39309
#
# Velocity S-wave (km/s) = 3.71056 3.79596 3.75350
# Velocity P-wave (km/s) = 6.68227 6.74636 6.71439
#
# Compressibility (1/GPa) = 0.01557858
#
# Stress axis : x y z
#
# Youngs Moduli (GPa) = 110.87926 110.87926 88.43167
#
# Poissons Ratio (x) = 0.10521 0.26241
# Poissons Ratio (y) = 0.10521 0.26241
# Poissons Ratio (z) = 0.32902 0.32902
#
# Static dielectric constant tensor:
#      x y z
#    x 2.085110 0.000000 0.000000 
#    y 0.000000 2.085110 0.000000 
#    z 0.000000 0.000000 1.955290 
# 
# From -- ./inp_files/5302.got.cif
#   From: 2010.05.17/outbox.cif.g08.bks.cpg/sg118_3_cif.got.tgz:5302.got - 2010.05.20 11:17:24.
