data_PCOD9558395
_publ_section_title
;
Structure prediction by ZEFSAII (Michael W. Deem and Ramdas Pophale) SiO2 
 PCOD9558395
Probable space group: P -4 N 2
;
_chemical_formula_sum "Si O2"
_cell_formula_units_Z 44
_cell_length_a 14.273364
_cell_length_b 14.273364
_cell_length_c 11.084458
_cell_angle_alpha 90.000000
_cell_angle_beta 90.000000
_cell_angle_gamma 90.000000
_cell_volume 2258.224656
_symmetry_space_group_name_H-M "P -4 N 2"
_symmetry_group_IT_number 118
_symmetry_cell_setting 'tetragonal'
loop_
_space_group_symop_operation_xyz
x,y,z
y,-x,-z
-x,-y,z
-y,x,-z
1/2+y,1/2+x,1/2-z
1/2-y,1/2-x,1/2-z
1/2-x,1/2+y,1/2+z
1/2+x,1/2-y,1/2+z
loop_
_atom_site_type_symbol
_atom_site_label
_atom_site_fract_x
_atom_site_fract_y
_atom_site_fract_z
Si Si1 0.964622 0.877527 0.575143
Si Si2 0.016120 0.690934 0.672835
Si Si3 0.136298 0.149066 0.072530
Si Si4 0.500000 0.500000 0.300375
Si Si5 0.000000 0.500000 0.961654
Si Si6 0.217069 0.717069 0.750000
Si Si7 0.209274 0.503000 0.538393
O O1 0.958797 0.768616 0.599870
O O2 0.899963 0.931413 0.479134
O O3 0.073111 0.954043 0.294317
O O4 0.128003 0.707359 0.660397
O O5 0.993148 0.591304 0.620459
O O6 0.001751 0.697995 0.816214
O O7 0.059454 0.074131 0.121770
O O8 0.185748 0.201179 0.184075
O O9 0.220753 0.090319 0.011317
O O10 0.086311 0.228486 0.995857
O O11 0.993038 0.395040 0.019593
#
# Coordination Sequence:
#
# PCOD9558395 Si02
#       7
#     8   8   8   4   4   4   8
#     4   9  20  35  57  91 118 152 193 242 306 360
#     4  11  19  39  59  84 119 157 203 250 293 352
#     4  11  21  36  61  94 118 157 195 249 307 359
#     4  10  17  37  58  84 130 146 184 250 304 358
#     4  12  23  42  62  81 124 167 208 256 288 351
#     4  10  20  35  60  83 122 154 202 238 296 359
#     4  11  22  35  61  92 119 153 201 249 306 355
#
# _framework density 19.484331999999998
#
# number of rings (size 3 to 8) (size 9 to 14) (size 15 to 20)
#    0.000    1.636    7.273    2.182    0.000    1.455 
#    0.000    0.000    0.000    0.545    0.000    0.000 
#    0.000    0.000    0.000    0.000    0.000    0.000 
#
# Total GULP energy -245148.072591 kJ/mol
# GULP energy per Si atom -5571.547104 kJ/mol
# Density = 1.943998 g / cm^3
# Si number density = 19.484332 Si / 1000 Ang^3
#
#
#
# Elastic Constant Matrix: (Units=GPa)
#
#
# Indices 1 2 3 4 5 6 
#
# 1 130.0549 41.8489 24.4727 0.0000 0.0000 0.0000
# 2 41.8489 130.0549 24.4727 0.0000 0.0000 0.0000
# 3 24.4727 24.4727 25.2990 0.0000 0.0000 0.0000
# 4 0.0000 0.0000 0.0000 24.0947 0.0000 0.0000
# 5 0.0000 0.0000 0.0000 0.0000 24.0947 0.0000
# 6 0.0000 0.0000 0.0000 0.0000 0.0000 30.8479
#
#
#
# Elastic Compliance Matrix: (Units=1/GPa)
#
#
# Indices 1 2 3 4 5 6 
#
# 1 0.009683 -0.001654 -0.007766 0.000000 0.000000 0.000000
# 2 -0.001654 0.009683 -0.007766 0.000000 0.000000 0.000000
# 3 -0.007766 -0.007766 0.054552 0.000000 0.000000 0.000000
# 4 0.000000 0.000000 0.000000 0.041503 0.000000 0.000000
# 5 0.000000 0.000000 0.000000 0.000000 0.041503 0.000000
# 6 0.000000 0.000000 0.000000 0.000000 0.000000 0.032417
#
#
# Mechanical properties :
#
#
# Convention : Reuss Voigt Hill
#
# Bulk Modulus (GPa) = 25.28805 51.88861 38.58833
# Shear Modulus (GPa) = 21.10631 28.78176 24.94404
#
# Velocity S-wave (km/s) = 3.29484 3.84757 3.58188
# Velocity P-wave (km/s) = 5.24228 6.81375 6.07901
#
# Compressibility (1/GPa) = 0.03954438
#
# Stress axis : x y z
#
# Youngs Moduli (GPa) = 103.27610 103.27610 18.33099
#
# Poissons Ratio (x) = 0.17085 0.14236
# Poissons Ratio (y) = 0.17085 0.14236
# Poissons Ratio (z) = 0.80207 0.80207
#
# Static dielectric constant tensor:
#      x y z
#    x 1.746020 0.000000 0.000000 
#    y 0.000000 1.746020 0.000000 
#    z 0.000000 0.000000 1.670940 
# 
# From -- ./inp_files/3286.got.cif
#   From: 2010.05.17/outbox.cif.g08.bks.cpg/sg118_2_cif.got.tgz:3286.got - 2010.05.20 11:17:24.
