data_PCOD9558476
_publ_section_title
;
Structure prediction by ZEFSAII (Michael W. Deem and Ramdas Pophale) SiO2 
 PCOD9558476
Probable space group: P -4 N 2
;
_chemical_formula_sum "Si O2"
_cell_formula_units_Z 34
_cell_length_a 9.303790
_cell_length_b 9.303790
_cell_length_c 21.987975
_cell_angle_alpha 90.000000
_cell_angle_beta 90.000000
_cell_angle_gamma 90.000000
_cell_volume 1903.290294
_symmetry_space_group_name_H-M "P -4 N 2"
_symmetry_group_IT_number 118
_symmetry_cell_setting 'tetragonal'
loop_
_space_group_symop_operation_xyz
x,y,z
y,-x,-z
-x,-y,z
-y,x,-z
1/2+y,1/2+x,1/2-z
1/2-y,1/2-x,1/2-z
1/2-x,1/2+y,1/2+z
1/2+x,1/2-y,1/2+z
loop_
_atom_site_type_symbol
_atom_site_label
_atom_site_fract_x
_atom_site_fract_y
_atom_site_fract_z
Si Si1 0.500000 0.500000 0.000000
Si Si2 0.825042 0.768501 0.815999
Si Si3 0.053141 0.349090 0.182848
Si Si4 0.658907 0.543374 0.882181
Si Si5 0.306160 0.153862 0.176923
O O1 0.526340 0.368582 0.046129
O O2 0.803384 0.696617 0.750000
O O3 0.708762 0.699367 0.861571
O O4 0.989944 0.741613 0.834472
O O5 0.771730 0.931291 0.809902
O O6 0.105064 0.394937 0.250000
O O7 0.186810 0.267187 0.154121
O O8 0.000000 0.500000 0.154381
O O9 0.500000 0.500000 0.855519
O O10 0.788192 0.447380 0.856215
O O11 0.329178 0.170823 0.250000
#
# Coordination Sequence:
#
# PCOD9558476 Si02
#       5
#     2   8   8   8   8
#     4   8  24  44  68  80 116 180 248 250 276 388
#     4  12  21  33  56  95 132 159 200 269 343 391
#     4  10  20  33  50  83 128 171 202 233 313 406
#     4  10  22  40  63  83 120 168 223 263 305 382
#     4  11  22  32  58  94 131 160 191 269 349 388
#
# _framework density 17.863800000000001
#
# number of rings (size 3 to 8) (size 9 to 14) (size 15 to 20)
#    0.706    0.706    4.706    2.824    3.294    0.000 
#    0.000    0.000   10.353    0.000    0.000    0.000 
#    0.000    0.000    0.000    0.000    0.000    0.000 
#
# Total GULP energy -189281.525156 kJ/mol
# GULP energy per Si atom -5567.103681 kJ/mol
# Density = 1.782314 g / cm^3
# Si number density = 17.863800 Si / 1000 Ang^3
#
#
#
# Elastic Constant Matrix: (Units=GPa)
#
#
# Indices 1 2 3 4 5 6 
#
# 1 318.8093 -236.2975 4.1068 0.0000 0.0000 0.0000
# 2 -236.2975 318.7000 4.1099 0.0000 0.0000 0.0000
# 3 4.1068 4.1099 69.9879 0.0000 0.0000 0.0000
# 4 0.0000 0.0000 0.0000 13.1722 0.0000 0.0000
# 5 0.0000 0.0000 0.0000 0.0000 13.1720 0.0000
# 6 0.0000 0.0000 0.0000 0.0000 0.0000 41.8864
#
#
#
# Elastic Compliance Matrix: (Units=1/GPa)
#
#
# Indices 1 2 3 4 5 6 
#
# 1 0.006999 0.005199 -0.000716 0.000000 0.000000 0.000000
# 2 0.005199 0.007001 -0.000716 0.000000 0.000000 0.000000
# 3 -0.000716 -0.000716 0.014372 0.000000 0.000000 0.000000
# 4 0.000000 0.000000 0.000000 0.075918 0.000000 0.000000
# 5 0.000000 0.000000 0.000000 0.000000 0.075918 0.000000
# 6 0.000000 0.000000 0.000000 0.000000 0.000000 0.023874
#
#
# Mechanical properties :
#
#
# Convention : Reuss Voigt Hill
#
# Bulk Modulus (GPa) = 27.85077 27.92618 27.88848
# Shear Modulus (GPa) = 23.97868 76.01799 49.99834
#
# Velocity S-wave (km/s) = 3.66772 6.53044 5.29617
# Velocity P-wave (km/s) = 5.79316 8.51639 7.28319
#
# Compressibility (1/GPa) = 0.03590565
#
# Stress axis : x y z
#
# Youngs Moduli (GPa) = 142.87668 142.82750 69.57848
#
# Poissons Ratio (x) = -0.74251 0.04982
# Poissons Ratio (y) = -0.74276 0.04983
# Poissons Ratio (z) = 0.10230 0.10229
#
# Static dielectric constant tensor:
#      x y z
#    x 1.719000 0.000000 0.000000 
#    y 0.000000 1.719010 0.000000 
#    z 0.000000 0.000000 1.488390 
# 
# From -- ./inp_files/6375.got.cif
#   From: 2010.05.17/outbox.cif.g08.bks.cpg/sg118_4_cif.got.tgz:6375.got - 2010.05.20 11:17:24.
