data_PCOD9558152
_publ_section_title
;
Structure prediction by ZEFSAII (Michael W. Deem and Ramdas Pophale) SiO2 
 PCOD9558152
Probable space group: P -4 B 2
;
_chemical_formula_sum "Si O2"
_cell_formula_units_Z 52
_cell_length_a 17.003178
_cell_length_b 17.003178
_cell_length_c 8.196846
_cell_angle_alpha 90.000000
_cell_angle_beta 90.000000
_cell_angle_gamma 90.000000
_cell_volume 2369.774262
_symmetry_space_group_name_H-M "P -4 B 2"
_symmetry_group_IT_number 117
_symmetry_cell_setting 'tetragonal'
loop_
_space_group_symop_operation_xyz
x,y,z
y,-x,-z
-x,-y,z
-y,x,-z
1/2+y,1/2+x,-z
1/2-y,1/2-x,-z
1/2-x,1/2+y,z
1/2+x,1/2-y,z
loop_
_atom_site_type_symbol
_atom_site_label
_atom_site_fract_x
_atom_site_fract_y
_atom_site_fract_z
Si Si1 0.478598 0.400308 0.391597
Si Si2 0.613409 0.392089 0.141375
Si Si3 0.359839 0.320178 0.201105
Si Si4 0.384860 0.782159 0.099300
Si Si5 0.376171 0.807632 0.658940
Si Si6 0.340972 0.159029 0.000000
Si Si7 0.275730 0.019985 0.175139
O O1 0.410548 0.460379 0.457347
O O2 0.534804 0.417888 0.234639
O O3 0.429366 0.324843 0.334306
O O4 0.624748 0.300371 0.189496
O O5 0.689264 0.442479 0.189481
O O6 0.617734 0.384853 0.943515
O O7 0.277482 0.344887 0.280428
O O8 0.350509 0.238292 0.106813
O O9 0.381450 0.853621 0.223722
O O10 0.305713 0.805713 0.000000
O O11 0.458005 0.776518 0.977355
O O12 0.330482 0.830482 0.500000
O O13 0.469443 0.798130 0.667537
O O14 0.336029 0.087527 0.125798
#
# Coordination Sequence:
#
# PCOD9558152 Si02
#       7
#     8   8   8   8   8   4   8
#     4  11  29  42  60 106 165 198 227 284 387 470
#     4  11  21  41  72  97 145 191 250 298 352 449
#     4  11  23  45  73 106 140 206 256 298 359 451
#     4  10  20  41  67 102 135 183 245 305 363 443
#     4  11  24  41  69 100 139 192 240 300 380 443
#     4  10  22  46  77 110 134 179 278 326 344 422
#     4  10  22  38  73 105 132 182 249 312 373 426
#
# _framework density 21.943017000000001
#
# number of rings (size 3 to 8) (size 9 to 14) (size 15 to 20)
#    0.000    1.385    3.077    3.692    7.538    0.000 
#    0.000    3.462    0.000    0.923    0.000    0.000 
#    0.000    0.000    0.000    0.000    0.000    0.000 
#
# Total GULP energy -289562.035239 kJ/mol
# GULP energy per Si atom -5568.500678 kJ/mol
# Density = 2.189307 g / cm^3
# Si number density = 21.943017 Si / 1000 Ang^3
#
#
#
# Elastic Constant Matrix: (Units=GPa)
#
#
# Indices 1 2 3 4 5 6 
#
# 1 104.1401 58.4746 45.3962 0.0000 0.0000 0.0000
# 2 58.4746 104.1413 45.3963 0.0000 0.0000 0.0000
# 3 45.3962 45.3963 84.0786 0.0000 0.0000 0.0000
# 4 0.0000 0.0000 0.0000 39.1593 0.0000 0.0000
# 5 0.0000 0.0000 0.0000 0.0000 39.1593 0.0000
# 6 0.0000 0.0000 0.0000 0.0000 0.0000 33.4012
#
#
#
# Elastic Compliance Matrix: (Units=1/GPa)
#
#
# Indices 1 2 3 4 5 6 
#
# 1 0.015351 -0.006547 -0.004753 0.000000 0.000000 0.000000
# 2 -0.006547 0.015351 -0.004753 0.000000 0.000000 0.000000
# 3 -0.004753 -0.004753 0.017026 0.000000 0.000000 0.000000
# 4 0.000000 0.000000 0.000000 0.025537 0.000000 0.000000
# 5 0.000000 0.000000 0.000000 0.000000 0.025537 0.000000
# 6 0.000000 0.000000 0.000000 0.000000 0.000000 0.029939
#
#
# Mechanical properties :
#
#
# Convention : Reuss Voigt Hill
#
# Bulk Modulus (GPa) = 64.01894 65.65490 64.83692
# Shear Modulus (GPa) = 30.11063 31.88347 30.99705
#
# Velocity S-wave (km/s) = 3.70837 3.81597 3.76256
# Velocity P-wave (km/s) = 6.89742 7.02859 6.96332
#
# Compressibility (1/GPa) = 0.01562038
#
# Stress axis : x y z
#
# Youngs Moduli (GPa) = 65.14318 65.14405 58.73263
#
# Poissons Ratio (x) = 0.42653 0.27917
# Poissons Ratio (y) = 0.42652 0.27916
# Poissons Ratio (z) = 0.30964 0.30964
#
# Static dielectric constant tensor:
#      x y z
#    x 1.831290 0.000000 0.000000 
#    y 0.000000 1.831290 0.000000 
#    z 0.000000 0.000000 1.949260 
# 
# From -- ./inp_files/2007.got.cif
#   From: 2010.05.17/outbox.cif.g08.bks.cpg/sg117_2_cif.got.tgz:2007.got - 2010.05.20 11:15:09.
