data_PCOD9558936
_publ_section_title
;
Structure prediction by ZEFSAII (Michael W. Deem and Ramdas Pophale) SiO2 
 PCOD9558936
Probable space group: P -4 N 2
;
_chemical_formula_sum "Si O2"
_cell_formula_units_Z 40
_cell_length_a 15.000000
_cell_length_b 15.000000
_cell_length_c 9.000000
_cell_angle_alpha 90.000000
_cell_angle_beta 90.000000
_cell_angle_gamma 90.000000
_cell_volume 2025.000000
_symmetry_space_group_name_H-M "P -4 N 2"
_symmetry_group_IT_number 118
_symmetry_cell_setting 'tetragonal'
loop_
_space_group_symop_operation_xyz
x,y,z
y,-x,-z
-x,-y,z
-y,x,-z
1/2+y,1/2+x,1/2-z
1/2-y,1/2-x,1/2-z
1/2-x,1/2+y,1/2+z
1/2+x,1/2-y,1/2+z
loop_
_atom_site_type_symbol
_atom_site_label
_atom_site_fract_x
_atom_site_fract_y
_atom_site_fract_z
Si Si1 0.572777 0.128270 0.085839
Si Si2 0.912586 0.883773 0.965042
Si Si3 0.303735 0.332392 0.828955
Si Si4 0.099219 0.282514 0.153864
Si Si5 0.315676 0.066410 0.635819
O O1 0.585348 0.085348 0.250000
O O2 0.601155 0.233663 0.094144
O O3 0.644772 0.082895 0.976240
O O4 0.478237 0.129844 0.000264
O O5 0.883067 0.858934 0.798974
O O6 0.876343 0.808673 0.074796
O O7 0.019033 0.881175 0.985717
O O8 0.236386 0.263615 0.750000
O O9 0.371946 0.267484 0.915052
O O10 0.179820 0.320181 0.250000
O O11 0.014557 0.278634 0.262411
O O12 0.377473 0.122528 0.750000
#
# Coordination Sequence:
#
# PCOD9558936 Si02
#       5
#     8   8   8   8   8
#     4  10  20  38  64  90 122 165 203 267 307 367
#     4  11  21  37  61  89 123 162 207 260 311 371
#     4  10  19  38  62  83 123 164 205 254 310 370
#     4  10  20  38  62  87 120 164 209 250 317 369
#     4  10  22  40  63  89 122 168 211 254 316 384
#
# _framework density 19.753086
#
# number of rings (size 3 to 8) (size 9 to 14) (size 15 to 20)
#    0.000    1.800    6.000    0.000    0.000    3.600 
#    7.200    2.000    0.000    0.000    0.000    0.000 
#    0.000    0.000    0.000    0.000    0.000    0.000 
#
# Total GULP energy -223113.678998 kJ/mol
# GULP energy per Si atom -5577.841975 kJ/mol
# Density = 1.970813 g / cm^3
# Si number density = 19.753086 Si / 1000 Ang^3
#
#
#
# Elastic Constant Matrix: (Units=GPa)
#
#
# Indices 1 2 3 4 5 6 
#
# 1 59.5591 24.4851 13.8909 0.0000 0.0000 0.0000
# 2 24.4851 59.5609 13.8908 0.0000 0.0000 0.0000
# 3 13.8909 13.8908 81.2672 0.0000 0.0000 0.0000
# 4 0.0000 0.0000 0.0000 29.2612 0.0000 0.0000
# 5 0.0000 0.0000 0.0000 0.0000 29.2630 0.0000
# 6 0.0000 0.0000 0.0000 0.0000 0.0000 31.2684
#
#
#
# Elastic Compliance Matrix: (Units=1/GPa)
#
#
# Indices 1 2 3 4 5 6 
#
# 1 0.020561 -0.007950 -0.002156 0.000000 0.000000 0.000000
# 2 -0.007950 0.020560 -0.002155 0.000000 0.000000 0.000000
# 3 -0.002156 -0.002155 0.013042 0.000000 0.000000 0.000000
# 4 0.000000 0.000000 0.000000 0.034175 0.000000 0.000000
# 5 0.000000 0.000000 0.000000 0.000000 0.034173 0.000000
# 6 0.000000 0.000000 0.000000 0.000000 0.000000 0.031981
#
#
# Mechanical properties :
#
#
# Convention : Reuss Voigt Hill
#
# Bulk Modulus (GPa) = 33.73643 33.88010 33.80826
# Shear Modulus (GPa) = 26.46978 27.83320 27.15149
#
# Velocity S-wave (km/s) = 3.66462 3.75781 3.71151
# Velocity P-wave (km/s) = 5.91794 6.00144 5.95983
#
# Compressibility (1/GPa) = 0.02964155
#
# Stress axis : x y z
#
# Youngs Moduli (GPa) = 48.63572 48.63735 76.67543
#
# Poissons Ratio (x) = 0.38666 0.16528
# Poissons Ratio (y) = 0.38664 0.16527
# Poissons Ratio (z) = 0.10484 0.10484
#
# Static dielectric constant tensor:
#      x y z
#    x 1.726390 0.000000 0.000000 
#    y 0.000000 1.726390 0.000000 
#    z 0.000000 0.000000 1.699350 
# 
# From -- ./inp_files/1892.got.cif
#   From: 2010.05.17/outbox.ucp.g08.bks.cvg/sg118_1_cif.got.tgz:1892.got - 2010.06.11 11:34:11.
