data_PCOD9558600
_publ_section_title
;
Structure prediction by ZEFSAII (Michael W. Deem and Ramdas Pophale) SiO2 
 PCOD9558600
Probable space group: P -4 N 2
;
_chemical_formula_sum "Si O2"
_cell_formula_units_Z 28
_cell_length_a 13.253518
_cell_length_b 13.253518
_cell_length_c 7.570257
_cell_angle_alpha 90.000000
_cell_angle_beta 90.000000
_cell_angle_gamma 90.000000
_cell_volume 1329.759091
_symmetry_space_group_name_H-M "P -4 N 2"
_symmetry_group_IT_number 118
_symmetry_cell_setting 'tetragonal'
loop_
_space_group_symop_operation_xyz
x,y,z
y,-x,-z
-x,-y,z
-y,x,-z
1/2+y,1/2+x,1/2-z
1/2-y,1/2-x,1/2-z
1/2-x,1/2+y,1/2+z
1/2+x,1/2-y,1/2+z
loop_
_atom_site_type_symbol
_atom_site_label
_atom_site_fract_x
_atom_site_fract_y
_atom_site_fract_z
Si Si1 0.779329 0.498331 0.861248
Si Si2 0.944748 0.158085 0.991876
Si Si3 0.670284 0.365392 0.145917
Si Si4 0.000000 0.500000 0.750000
Si Si5 0.500000 0.500000 0.000000
O O1 0.731606 0.462094 0.673679
O O2 0.740068 0.614105 0.890974
O O3 0.898418 0.499957 0.861063
O O4 0.741840 0.416067 0.002874
O O5 0.884154 0.207740 0.155660
O O6 0.056595 0.119532 0.050040
O O7 0.570749 0.435788 0.124905
#
# Coordination Sequence:
#
# PCOD9558600 Si02
#       5
#     8   8   8   2   2
#     4  10  21  40  61  88 129 167 201 257 318 368
#     4   9  15  29  61 100 122 146 207 273 305 351
#     4   9  16  33  64  92 115 162 215 252 298 381
#     4  12  28  48  54  88 152 170 184 272 338 352
#     4   8  12  24  58  96 128 134 192 284 318 316
#
# _framework density 21.056443999999999
#
# number of rings (size 3 to 8) (size 9 to 14) (size 15 to 20)
#    0.000    2.571    0.000    6.857    0.000    0.000 
#   10.286    2.857    0.000    0.000    0.000    0.000 
#    0.000    0.000    0.000    0.000    0.000    0.000 
#
# Total GULP energy -156142.871006 kJ/mol
# GULP energy per Si atom -5576.531107 kJ/mol
# Density = 2.100852 g / cm^3
# Si number density = 21.056444 Si / 1000 Ang^3
#
#
#
# Elastic Constant Matrix: (Units=GPa)
#
#
# Indices 1 2 3 4 5 6 
#
# 1 111.0395 37.7000 31.4570 0.0000 0.0000 0.0000
# 2 37.7000 111.0395 31.4570 0.0000 0.0000 0.0000
# 3 31.4570 31.4570 88.2859 0.0000 0.0000 0.0000
# 4 0.0000 0.0000 0.0000 2.3211 0.0000 0.0000
# 5 0.0000 0.0000 0.0000 0.0000 2.3211 0.0000
# 6 0.0000 0.0000 0.0000 0.0000 0.0000 12.1390
#
#
#
# Elastic Compliance Matrix: (Units=1/GPa)
#
#
# Indices 1 2 3 4 5 6 
#
# 1 0.010776 -0.002859 -0.002821 0.000000 0.000000 0.000000
# 2 -0.002859 0.010776 -0.002821 0.000000 0.000000 0.000000
# 3 -0.002821 -0.002821 0.013337 0.000000 0.000000 0.000000
# 4 0.000000 0.000000 0.000000 0.430836 0.000000 0.000000
# 5 0.000000 0.000000 0.000000 0.000000 0.430836 0.000000
# 6 0.000000 0.000000 0.000000 0.000000 0.000000 0.082379
#
#
# Mechanical properties :
#
#
# Convention : Reuss Voigt Hill
#
# Bulk Modulus (GPa) = 55.90698 56.84362 56.37530
# Shear Modulus (GPa) = 4.99050 17.33962 11.16506
#
# Velocity S-wave (km/s) = 1.54117 2.87275 2.30520
# Velocity P-wave (km/s) = 5.45670 6.16912 5.82381
#
# Compressibility (1/GPa) = 0.01788685
#
# Stress axis : x y z
#
# Youngs Moduli (GPa) = 92.80119 92.80119 74.98024
#
# Poissons Ratio (x) = 0.26536 0.21149
# Poissons Ratio (y) = 0.26536 0.21149
# Poissons Ratio (z) = 0.26176 0.26176
#
# Static dielectric constant tensor:
#      x y z
#    x 1.823790 0.000000 0.000000 
#    y 0.000000 1.823790 0.000000 
#    z 0.000000 0.000000 1.813660 
# 
# From -- ./inp_files/1509.got.cif
#   From: 2010.05.17/outbox.cif.g08.bks.cpg/sg118_1_cif.got.tgz:1509.got - 2010.05.20 11:17:24.
