data_PCOD9558372
_publ_section_title
;
Structure prediction by ZEFSAII (Michael W. Deem and Ramdas Pophale) SiO2 
 PCOD9558372
Probable space group: P -4 N 2
;
_chemical_formula_sum "Si O2"
_cell_formula_units_Z 32
_cell_length_a 13.345119
_cell_length_b 13.345119
_cell_length_c 7.690521
_cell_angle_alpha 90.000000
_cell_angle_beta 90.000000
_cell_angle_gamma 90.000000
_cell_volume 1369.621813
_symmetry_space_group_name_H-M "P -4 N 2"
_symmetry_group_IT_number 118
_symmetry_cell_setting 'tetragonal'
loop_
_space_group_symop_operation_xyz
x,y,z
y,-x,-z
-x,-y,z
-y,x,-z
1/2+y,1/2+x,1/2-z
1/2-y,1/2-x,1/2-z
1/2-x,1/2+y,1/2+z
1/2+x,1/2-y,1/2+z
loop_
_atom_site_type_symbol
_atom_site_label
_atom_site_fract_x
_atom_site_fract_y
_atom_site_fract_z
Si Si1 0.043141 0.109956 0.767078
Si Si2 0.710269 0.402161 0.962595
Si Si3 0.993304 0.662297 0.257495
Si Si4 0.660838 0.737014 0.576575
O O1 0.948301 0.176951 0.718525
O O2 0.113223 0.107107 0.590647
O O3 0.118120 0.154879 0.909882
O O4 0.000000 0.000000 0.801623
O O5 0.774663 0.301225 0.943292
O O6 0.482672 0.219936 0.935737
O O7 0.882141 0.617860 0.250000
O O8 0.068099 0.568099 0.250000
O O9 0.045392 0.728936 0.107612
O O10 0.720932 0.779069 0.750000
#
# Coordination Sequence:
#
# PCOD9558372 Si02
#       4
#     8   8   8   8
#     4  10  14  22  37  58  93 119 159 204 247 296
#     4   9  14  22  35  58  91 109 153 207 246 304
#     4   7  11  20  32  48  78 103 132 186 240 292
#     4   7  15  22  32  56  90 111 142 209 244 299
#
# _framework density 23.364114000000001
#
# number of rings (size 3 to 8) (size 9 to 14) (size 15 to 20)
#    0.000    4.750    2.500    0.000    0.000    0.000 
#    0.000    0.000    0.000    0.000    0.000    0.000 
#  472.500    0.000    0.000    0.000    0.000    0.000 
#
# Total GULP energy -178173.546921 kJ/mol
# GULP energy per Si atom -5567.923341 kJ/mol
# Density = 2.331094 g / cm^3
# Si number density = 23.364114 Si / 1000 Ang^3
#
#
#
# Elastic Constant Matrix: (Units=GPa)
#
#
# Indices 1 2 3 4 5 6 
#
# 1 132.2469 96.5111 43.6251 0.0000 0.0000 0.0000
# 2 96.5111 132.2456 43.6251 0.0000 0.0000 0.0000
# 3 43.6251 43.6251 72.9606 0.0000 0.0000 0.0000
# 4 0.0000 0.0000 0.0000 29.1074 0.0000 0.0000
# 5 0.0000 0.0000 0.0000 0.0000 29.1083 0.0000
# 6 0.0000 0.0000 0.0000 0.0000 0.0000 60.8971
#
#
#
# Elastic Compliance Matrix: (Units=1/GPa)
#
#
# Indices 1 2 3 4 5 6 
#
# 1 0.016823 -0.011160 -0.003386 0.000000 0.000000 0.000000
# 2 -0.011160 0.016823 -0.003386 0.000000 0.000000 0.000000
# 3 -0.003386 -0.003386 0.017755 0.000000 0.000000 0.000000
# 4 0.000000 0.000000 0.000000 0.034355 0.000000 0.000000
# 5 0.000000 0.000000 0.000000 0.000000 0.034354 0.000000
# 6 0.000000 0.000000 0.000000 0.000000 0.000000 0.016421
#
#
# Mechanical properties :
#
#
# Convention : Reuss Voigt Hill
#
# Bulk Modulus (GPa) = 64.36251 78.33062 71.34657
# Shear Modulus (GPa) = 28.15689 34.06869 31.11279
#
# Velocity S-wave (km/s) = 3.47527 3.82273 3.65313
# Velocity P-wave (km/s) = 6.61141 7.28582 6.95679
#
# Compressibility (1/GPa) = 0.01553699
#
# Stress axis : x y z
#
# Youngs Moduli (GPa) = 59.44191 59.44118 56.32156
#
# Poissons Ratio (x) = 0.66338 0.19070
# Poissons Ratio (y) = 0.66339 0.19071
# Poissons Ratio (z) = 0.20127 0.20127
#
# Static dielectric constant tensor:
#      x y z
#    x 1.928470 0.000000 0.000000 
#    y 0.000000 1.928470 0.000000 
#    z 0.000000 0.000000 1.971510 
# 
# From -- ./inp_files/2896.got.cif
#   From: 2010.05.17/outbox.cif.g08.bks.cpg/sg118_2_cif.got.tgz:2896.got - 2010.05.20 11:17:24.
