data_PCOD9558227
_publ_section_title
;
Structure prediction by ZEFSAII (Michael W. Deem and Ramdas Pophale) SiO2 
 PCOD9558227
Probable space group: P -4 B 2
;
_chemical_formula_sum "Si O2"
_cell_formula_units_Z 34
_cell_length_a 9.139572
_cell_length_b 9.139572
_cell_length_c 18.781244
_cell_angle_alpha 90.000000
_cell_angle_beta 90.000000
_cell_angle_gamma 90.000000
_cell_volume 1568.830673
_symmetry_space_group_name_H-M "P -4 B 2"
_symmetry_group_IT_number 117
_symmetry_cell_setting 'tetragonal'
loop_
_space_group_symop_operation_xyz
x,y,z
y,-x,-z
-x,-y,z
-y,x,-z
1/2+y,1/2+x,-z
1/2-y,1/2-x,-z
1/2-x,1/2+y,z
1/2+x,1/2-y,z
loop_
_atom_site_type_symbol
_atom_site_label
_atom_site_fract_x
_atom_site_fract_y
_atom_site_fract_z
Si Si1 0.440980 0.720827 0.028376
Si Si2 0.830741 0.557522 0.813207
Si Si3 0.837506 0.448269 0.365026
Si Si4 0.000000 0.500000 0.500000
Si Si5 0.164666 0.832935 0.281725
O O1 0.462310 0.750205 0.111570
O O2 0.588065 0.671505 0.988232
O O3 0.368178 0.868178 0.000000
O O4 0.832442 0.722452 0.784511
O O5 0.725902 0.479636 0.755572
O O6 0.000000 0.500000 0.818055
O O7 0.860808 0.491314 0.447193
O O8 0.817166 0.280094 0.347153
O O9 0.704787 0.518938 0.321695
O O10 0.000000 0.500000 0.336123
#
# Coordination Sequence:
#
# PCOD9558227 Si02
#       5
#     8   8   8   2   8
#     4  11  28  48  68 102 139 186 235 292 357 429
#     4  12  26  45  71 100 140 180 231 293 356 405
#     4  10  22  43  65  99 141 175 218 279 338 404
#     4   8  20  48  60 100 152 184 202 284 352 408
#     4  12  21  45  70 102 133 182 227 288 338 405
#
# _framework density 21.672191999999999
#
# number of rings (size 3 to 8) (size 9 to 14) (size 15 to 20)
#    0.706    0.235    4.706    1.412    6.588    5.647 
#    0.000    0.000    0.000    2.824    0.000    0.000 
#    0.000    0.000    0.000    0.000    0.000    0.000 
#
# Total GULP energy -189357.805840 kJ/mol
# GULP energy per Si atom -5569.347231 kJ/mol
# Density = 2.162286 g / cm^3
# Si number density = 21.672192 Si / 1000 Ang^3
#
#
#
# Elastic Constant Matrix: (Units=GPa)
#
#
# Indices 1 2 3 4 5 6 
#
# 1 31.8584 30.9300 21.5107 0.0000 0.0000 0.0000
# 2 30.9300 31.8584 21.5107 0.0000 0.0000 0.0000
# 3 21.5107 21.5107 152.1250 0.0000 0.0000 0.0000
# 4 0.0000 0.0000 0.0000 -30.9951 0.0000 0.0000
# 5 0.0000 0.0000 0.0000 0.0000 -30.9951 0.0000
# 6 0.0000 0.0000 0.0000 0.0000 0.0000 29.0112
#
#
#
# Elastic Compliance Matrix: (Units=1/GPa)
#
#
# Indices 1 2 3 4 5 6 
#
# 1 0.547356 -0.529721 -0.002494 0.000000 0.000000 0.000000
# 2 -0.529721 0.547356 -0.002494 0.000000 0.000000 0.000000
# 3 -0.002494 -0.002494 0.007279 0.000000 0.000000 0.000000
# 4 0.000000 0.000000 0.000000 -0.032263 0.000000 0.000000
# 5 0.000000 0.000000 0.000000 0.000000 -0.032263 0.000000
# 6 0.000000 0.000000 0.000000 0.000000 0.000000 0.034469
#
#
# Mechanical properties :
#
#
# Convention : Reuss Voigt Hill
#
# Bulk Modulus (GPa) = 30.69894 40.41608 35.55751
# Shear Modulus (GPa) = 2.32319 2.86356 2.59338
#
# Velocity S-wave (km/s) = 1.03648 1.15073 1.09510
# Velocity P-wave (km/s) = 3.95326 4.52271 4.24754
#
# Compressibility (1/GPa) = 0.03257442
#
# Stress axis : x y z
#
# Youngs Moduli (GPa) = 1.82696 1.82696 137.38624
#
# Poissons Ratio (x) = 0.96778 0.34259
# Poissons Ratio (y) = 0.96778 0.34259
# Poissons Ratio (z) = 0.00456 0.00456
#
# Static dielectric constant tensor:
#      x y z
#    x 2.116440 0.000000 0.000000 
#    y 0.000000 2.116440 0.000000 
#    z 0.000000 0.000000 1.810270 
# 
# From -- ./inp_files/3441.got.cif
#   From: 2010.05.17/outbox.cif.g08.bks.cpg/sg117_2_cif.got.tgz:3441.got - 2010.05.20 11:15:09.
