data_PCOD9558068
_publ_section_title
;
Structure prediction by ZEFSAII (Michael W. Deem and Ramdas Pophale) SiO2 
 PCOD9558068
Probable space group: P -4 B 2
;
_chemical_formula_sum "Si O2"
_cell_formula_units_Z 48
_cell_length_a 15.532543
_cell_length_b 15.532543
_cell_length_c 11.200309
_cell_angle_alpha 90.000000
_cell_angle_beta 90.000000
_cell_angle_gamma 90.000000
_cell_volume 2702.185340
_symmetry_space_group_name_H-M "P -4 B 2"
_symmetry_group_IT_number 117
_symmetry_cell_setting 'tetragonal'
loop_
_space_group_symop_operation_xyz
x,y,z
y,-x,-z
-x,-y,z
-y,x,-z
1/2+y,1/2+x,-z
1/2-y,1/2-x,-z
1/2-x,1/2+y,z
1/2+x,1/2-y,z
loop_
_atom_site_type_symbol
_atom_site_label
_atom_site_fract_x
_atom_site_fract_y
_atom_site_fract_z
Si Si1 0.697668 0.085797 0.587943
Si Si2 0.922572 0.310757 0.576312
Si Si3 0.912871 0.469755 0.749063
Si Si4 0.913480 0.112962 0.987155
Si Si5 0.330532 0.313234 0.745943
Si Si6 0.350365 0.225072 0.122081
O O1 0.655726 0.155726 0.500000
O O2 0.777389 0.124121 0.660391
O O3 0.714870 0.000553 0.509272
O O4 0.629180 0.051526 0.684767
O O5 0.837702 0.337702 0.500000
O O6 0.940602 0.399318 0.648675
O O7 0.902783 0.235539 0.668891
O O8 0.838449 0.421698 0.822572
O O9 0.000000 0.500000 0.813922
O O10 0.869797 0.139987 0.861772
O O11 0.885816 0.182111 0.086671
O O12 0.016768 0.113926 0.977731
O O13 0.272152 0.233341 0.793173
O O14 0.318570 0.181431 0.000000
#
# Coordination Sequence:
#
# PCOD9558068 Si02
#       6
#     8   8   8   8   8   8
#     4  11  20  32  56  83 112 148 190 224 273 348
#     4   9  19  34  53  78 116 151 177 223 280 332
#     4  10  18  33  56  83 114 153 181 218 283 342
#     4  10  21  40  62  79 105 151 196 238 290 341
#     4  10  21  37  55  83 112 145 188 236 286 330
#     4   9  20  38  57  81 117 144 184 242 283 332
#
# _framework density 17.763401000000002
#
# number of rings (size 3 to 8) (size 9 to 14) (size 15 to 20)
#    0.000    2.167    1.667    1.500    0.000    1.667 
#    3.000    3.333    0.000    0.000    0.000    0.000 
#    0.000    0.000    0.000    0.000    0.000    0.000 
#
# Total GULP energy -267611.152190 kJ/mol
# GULP energy per Si atom -5575.232337 kJ/mol
# Density = 1.772297 g / cm^3
# Si number density = 17.763401 Si / 1000 Ang^3
#
#
#
# Elastic Constant Matrix: (Units=GPa)
#
#
# Indices 1 2 3 4 5 6 
#
# 1 84.8985 51.8356 33.2311 0.0000 0.0000 0.0000
# 2 51.8356 84.8987 33.2309 0.0000 0.0000 0.0000
# 3 33.2311 33.2309 64.3994 0.0000 0.0000 0.0000
# 4 0.0000 0.0000 0.0000 26.8396 0.0000 0.0000
# 5 0.0000 0.0000 0.0000 0.0000 26.8401 0.0000
# 6 0.0000 0.0000 0.0000 0.0000 0.0000 17.4475
#
#
#
# Elastic Compliance Matrix: (Units=1/GPa)
#
#
# Indices 1 2 3 4 5 6 
#
# 1 0.020004 -0.010242 -0.005037 0.000000 0.000000 0.000000
# 2 -0.010242 0.020004 -0.005037 0.000000 0.000000 0.000000
# 3 -0.005037 -0.005037 0.020727 0.000000 0.000000 0.000000
# 4 0.000000 0.000000 0.000000 0.037258 0.000000 0.000000
# 5 0.000000 0.000000 0.000000 0.000000 0.037258 0.000000
# 6 0.000000 0.000000 0.000000 0.000000 0.000000 0.057315
#
#
# Mechanical properties :
#
#
# Convention : Reuss Voigt Hill
#
# Bulk Modulus (GPa) = 49.74779 52.31022 51.02900
# Shear Modulus (GPa) = 20.84220 21.95203 21.39711
#
# Velocity S-wave (km/s) = 3.42910 3.51921 3.47444
# Velocity P-wave (km/s) = 6.61399 6.78420 6.69963
#
# Compressibility (1/GPa) = 0.02010140
#
# Stress axis : x y z
#
# Youngs Moduli (GPa) = 49.99083 49.99108 48.24689
#
# Poissons Ratio (x) = 0.51199 0.24304
# Poissons Ratio (y) = 0.51199 0.24303
# Poissons Ratio (z) = 0.25182 0.25182
#
# Static dielectric constant tensor:
#      x y z
#    x 1.603620 0.000000 0.000000 
#    y 0.000000 1.603620 0.000000 
#    z 0.000000 0.000000 1.616650 
# 
# From -- ./inp_files/2761.got.cif
#   From: 2010.05.17/outbox.cif.g08.bks.cpg/sg117_2_cif.got.tgz:2761.got - 2010.05.20 11:15:09.
