data_PCOD9558349
_publ_section_title
;
Structure prediction by ZEFSAII (Michael W. Deem and Ramdas Pophale) SiO2 
 PCOD9558349
Probable space group: P -4 B 2
;
_chemical_formula_sum "Si O2"
_cell_formula_units_Z 42
_cell_length_a 14.127327
_cell_length_b 14.127327
_cell_length_c 8.833983
_cell_angle_alpha 90.000000
_cell_angle_beta 90.000000
_cell_angle_gamma 90.000000
_cell_volume 1763.098413
_symmetry_space_group_name_H-M "P -4 B 2"
_symmetry_group_IT_number 117
_symmetry_cell_setting 'tetragonal'
loop_
_space_group_symop_operation_xyz
x,y,z
y,-x,-z
-x,-y,z
-y,x,-z
1/2+y,1/2+x,-z
1/2-y,1/2-x,-z
1/2-x,1/2+y,z
1/2+x,1/2-y,z
loop_
_atom_site_type_symbol
_atom_site_label
_atom_site_fract_x
_atom_site_fract_y
_atom_site_fract_z
Si Si1 0.076321 0.214732 0.607702
Si Si2 0.686459 0.949543 0.922584
Si Si3 0.000000 0.000000 0.000000
Si Si4 0.087070 0.845702 0.825331
Si Si5 0.736578 0.903829 0.586765
Si Si6 0.164501 0.297714 0.166318
O O1 0.160390 0.143628 0.564274
O O2 0.127555 0.289360 0.719997
O O3 0.996705 0.161855 0.705986
O O4 0.012089 0.260533 0.475251
O O5 0.713817 0.899849 0.764908
O O6 0.675235 0.058236 0.877616
O O7 0.594382 0.905619 0.000000
O O8 0.768154 0.934302 0.046379
O O9 0.921430 0.051324 0.900168
O O10 0.192468 0.831582 0.765837
O O11 0.657321 0.842680 0.500000
O O12 0.212045 0.287956 0.000000
#
# Coordination Sequence:
#
# PCOD9558349 Si02
#       6
#     8   8   2   8   8   8
#     4  12  28  50  78 115 160 215 265 325 407 481
#     4  12  26  49  78 116 152 208 271 329 394 472
#     4  12  20  36  76 122 148 196 268 342 392 468
#     4  12  24  46  79 118 154 199 269 334 396 464
#     4  12  30  52  78 114 167 214 261 331 403 484
#     4  12  25  48  82 115 160 209 263 341 400 466
#
# _framework density 23.8217
#
# number of rings (size 3 to 8) (size 9 to 14) (size 15 to 20)
#    0.000    0.000    3.810    6.286    5.333    0.762 
#    0.000    0.952    0.000    0.000    0.000    0.000 
#    0.000    0.000    0.000    0.000    0.000    0.000 
#
# Total GULP energy -235443.432128 kJ/mol
# GULP energy per Si atom -5605.796003 kJ/mol
# Density = 2.376748 g / cm^3
# Si number density = 23.821700 Si / 1000 Ang^3
#
#
#
# Elastic Constant Matrix: (Units=GPa)
#
#
# Indices 1 2 3 4 5 6 
#
# 1 138.7610 45.0847 34.9844 0.0000 0.0000 0.0000
# 2 45.0847 138.7577 34.9824 0.0000 0.0000 0.0000
# 3 34.9844 34.9824 126.6256 0.0000 0.0000 0.0000
# 4 0.0000 0.0000 0.0000 39.2017 0.0000 0.0000
# 5 0.0000 0.0000 0.0000 0.0000 39.2022 0.0000
# 6 0.0000 0.0000 0.0000 0.0000 0.0000 21.2206
#
#
#
# Elastic Compliance Matrix: (Units=1/GPa)
#
#
# Indices 1 2 3 4 5 6 
#
# 1 0.008377 -0.002298 -0.001679 0.000000 0.000000 0.000000
# 2 -0.002298 0.008377 -0.001679 0.000000 0.000000 0.000000
# 3 -0.001679 -0.001679 0.008825 0.000000 0.000000 0.000000
# 4 0.000000 0.000000 0.000000 0.025509 0.000000 0.000000
# 5 0.000000 0.000000 0.000000 0.000000 0.025509 0.000000
# 6 0.000000 0.000000 0.000000 0.000000 0.000000 0.047124
#
#
# Mechanical properties :
#
#
# Convention : Reuss Voigt Hill
#
# Bulk Modulus (GPa) = 70.10220 70.47192 70.28706
# Shear Modulus (GPa) = 35.76797 39.19776 37.48286
#
# Velocity S-wave (km/s) = 3.87911 4.06083 3.97101
# Velocity P-wave (km/s) = 7.03953 7.18571 7.11300
#
# Compressibility (1/GPa) = 0.01426489
#
# Stress axis : x y z
#
# Youngs Moduli (GPa) = 119.37727 119.37523 113.31171
#
# Poissons Ratio (x) = 0.27437 0.19030
# Poissons Ratio (y) = 0.27437 0.19028
# Poissons Ratio (z) = 0.20048 0.20046
#
# Static dielectric constant tensor:
#      x y z
#    x 1.894120 0.000000 0.000000 
#    y 0.000000 1.894120 0.000000 
#    z 0.000000 0.000000 1.991670 
# 
# From -- ./inp_files/1773.got.cif
#   From: 2010.05.17/outbox.cif.g08.bks.cpg/sg117_1_cif.got.tgz:1773.got - 2010.05.20 11:15:09.
