data_PCOD9558063
_publ_section_title
;
Structure prediction by ZEFSAII (Michael W. Deem and Ramdas Pophale) SiO2 
 PCOD9558063
Probable space group: P -4 B 2
;
_chemical_formula_sum "Si O2"
_cell_formula_units_Z 34
_cell_length_a 13.029228
_cell_length_b 13.029228
_cell_length_c 10.168077
_cell_angle_alpha 90.000000
_cell_angle_beta 90.000000
_cell_angle_gamma 90.000000
_cell_volume 1726.140706
_symmetry_space_group_name_H-M "P -4 B 2"
_symmetry_group_IT_number 117
_symmetry_cell_setting 'tetragonal'
loop_
_space_group_symop_operation_xyz
x,y,z
y,-x,-z
-x,-y,z
-y,x,-z
1/2+y,1/2+x,-z
1/2-y,1/2-x,-z
1/2-x,1/2+y,z
1/2+x,1/2-y,z
loop_
_atom_site_type_symbol
_atom_site_label
_atom_site_fract_x
_atom_site_fract_y
_atom_site_fract_z
Si Si1 0.626967 0.873034 0.000000
Si Si2 0.000000 0.500000 0.500000
Si Si3 0.240893 0.259108 0.500000
Si Si4 0.404885 0.810730 0.879869
Si Si5 0.361679 0.288153 0.235327
Si Si6 0.449016 0.800418 0.343515
O O1 0.643843 0.794738 0.119039
O O2 0.650036 0.985641 0.064169
O O3 0.104005 0.503215 0.584693
O O4 0.306826 0.247395 0.368492
O O5 0.251469 0.375782 0.549589
O O6 0.389266 0.696718 0.818947
O O7 0.359914 0.882892 0.765950
O O8 0.326994 0.826994 0.000000
O O9 0.480170 0.284920 0.276660
#
# Coordination Sequence:
#
# PCOD9558063 Si02
#       6
#     4   2   4   8   8   8
#     4  12  23  38  68  95 130 166 212 277 332 390
#     4  10  18  32  58  96 118 158 210 248 330 366
#     4   9  23  39  58  89 123 159 214 260 313 391
#     4  11  22  37  59  97 126 160 210 264 328 384
#     4  11  22  38  64  91 127 169 212 267 331 387
#     4  10  20  36  60  89 124 158 207 265 311 384
#
# _framework density 19.697118
#
# number of rings (size 3 to 8) (size 9 to 14) (size 15 to 20)
#    0.000    1.412    3.529    2.471    0.000    3.765 
#    0.000    0.000    0.000   21.176    0.000    0.000 
#    0.000    0.000    0.000    0.000    0.000    0.000 
#
# Total GULP energy -189325.489238 kJ/mol
# GULP energy per Si atom -5568.396742 kJ/mol
# Density = 1.965229 g / cm^3
# Si number density = 19.697118 Si / 1000 Ang^3
#
#
#
# Elastic Constant Matrix: (Units=GPa)
#
#
# Indices 1 2 3 4 5 6 
#
# 1 49.4447 69.1340 28.5603 0.0000 0.0000 0.0000
# 2 69.1340 49.4438 28.5594 0.0000 0.0000 0.0000
# 3 28.5603 28.5594 125.6543 0.0000 0.0000 0.0000
# 4 0.0000 0.0000 0.0000 34.4845 0.0000 0.0000
# 5 0.0000 0.0000 0.0000 0.0000 34.4856 0.0000
# 6 0.0000 0.0000 0.0000 0.0000 0.0000 29.5750
#
#
#
# Elastic Compliance Matrix: (Units=1/GPa)
#
#
# Indices 1 2 3 4 5 6 
#
# 1 -0.020659 0.030129 -0.002152 0.000000 0.000000 0.000000
# 2 0.030129 -0.020659 -0.002153 0.000000 0.000000 0.000000
# 3 -0.002152 -0.002153 0.008937 0.000000 0.000000 0.000000
# 4 0.000000 0.000000 0.000000 0.028999 0.000000 0.000000
# 5 0.000000 0.000000 0.000000 0.000000 0.028998 0.000000
# 6 0.000000 0.000000 0.000000 0.000000 0.000000 0.033812
#
#
# Mechanical properties :
#
#
# Convention : Reuss Voigt Hill
#
# Bulk Modulus (GPa) = 51.90169 53.00557 52.45363
# Shear Modulus (GPa) = 352.07246 26.26162 189.16704
#
# Velocity S-wave (km/s) = 13.38399 3.65536 9.81053
# Velocity P-wave (km/s) = 16.28646 6.69211 12.45056
#
# Compressibility (1/GPa) = 0.01926720
#
# Stress axis : x y z
#
# Youngs Moduli (GPa) = -48.40551 -48.40494 111.89685
#
# Poissons Ratio (x) = 1.45839 0.24084
# Poissons Ratio (y) = 1.45841 0.24087
# Poissons Ratio (z) = -0.10418 -0.10420
#
# Static dielectric constant tensor:
#      x y z
#    x 1.718550 0.000000 0.000000 
#    y 0.000000 1.718550 0.000000 
#    z 0.000000 0.000000 1.644670 
# 
# From -- ./inp_files/2587.got.cif
#   From: 2010.05.17/outbox.cif.g08.bks.cpg/sg117_2_cif.got.tgz:2587.got - 2010.05.20 11:15:09.
