data_PCOD9558868
_publ_section_title
;
Structure prediction by ZEFSAII (Michael W. Deem and Ramdas Pophale) SiO2 
 PCOD9558868
Probable space group: P -4 N 2
;
_chemical_formula_sum "Si O2"
_cell_formula_units_Z 24
_cell_length_a 8.534553
_cell_length_b 8.534553
_cell_length_c 12.546969
_cell_angle_alpha 90.000000
_cell_angle_beta 90.000000
_cell_angle_gamma 90.000000
_cell_volume 913.903592
_symmetry_space_group_name_H-M "P -4 N 2"
_symmetry_group_IT_number 118
_symmetry_cell_setting 'tetragonal'
loop_
_space_group_symop_operation_xyz
x,y,z
y,-x,-z
-x,-y,z
-y,x,-z
1/2+y,1/2+x,1/2-z
1/2-y,1/2-x,1/2-z
1/2-x,1/2+y,1/2+z
1/2+x,1/2-y,1/2+z
loop_
_atom_site_type_symbol
_atom_site_label
_atom_site_fract_x
_atom_site_fract_y
_atom_site_fract_z
Si Si1 0.696245 0.227723 0.420617
Si Si2 0.799710 0.957682 0.259436
Si Si3 0.466107 0.826087 0.878259
O O1 0.563314 0.315606 0.349343
O O2 0.653071 0.174837 0.538519
O O3 0.868614 0.297585 0.434884
O O4 0.746694 0.077343 0.350611
O O5 0.649630 0.850371 0.250000
O O6 0.927431 0.825269 0.300968
O O7 0.500000 0.000000 0.840145
#
# Coordination Sequence:
#
# PCOD9558868 Si02
#       3
#     8   8   8
#     4  11  24  48  77 116 163 225 288 356 435 513
#     4  11  25  46  79 112 164 220 279 361 432 518
#     4  12  26  46  81 117 165 228 290 353 442 525
#
# _framework density 26.260974000000001
#
# number of rings (size 3 to 8) (size 9 to 14) (size 15 to 20)
#    0.000    0.667    3.333    5.000    0.000    8.667 
#    0.000    0.000    0.000    0.000    0.000    0.000 
#    0.000    0.000    0.000    0.000    0.000    0.000 
#
# Total GULP energy -133701.184778 kJ/mol
# GULP energy per Si atom -5570.882699 kJ/mol
# Density = 2.620120 g / cm^3
# Si number density = 26.260974 Si / 1000 Ang^3
#
#
#
# Elastic Constant Matrix: (Units=GPa)
#
#
# Indices 1 2 3 4 5 6 
#
# 1 123.6716 18.3385 43.6927 0.0000 0.0000 0.0000
# 2 18.3385 123.6709 43.6917 0.0000 0.0000 0.0000
# 3 43.6927 43.6917 146.5209 0.0000 0.0000 0.0000
# 4 0.0000 0.0000 0.0000 -10.5828 0.0000 0.0000
# 5 0.0000 0.0000 0.0000 0.0000 -10.5792 0.0000
# 6 0.0000 0.0000 0.0000 0.0000 0.0000 57.9162
#
#
#
# Elastic Compliance Matrix: (Units=1/GPa)
#
#
# Indices 1 2 3 4 5 6 
#
# 1 0.009059 -0.000435 -0.002572 0.000000 0.000000 0.000000
# 2 -0.000435 0.009059 -0.002572 0.000000 0.000000 0.000000
# 3 -0.002572 -0.002572 0.008359 0.000000 0.000000 0.000000
# 4 0.000000 0.000000 0.000000 -0.094493 0.000000 0.000000
# 5 0.000000 0.000000 0.000000 0.000000 -0.094525 0.000000
# 6 0.000000 0.000000 0.000000 0.000000 0.000000 0.017266
#
#
# Mechanical properties :
#
#
# Convention : Reuss Voigt Hill
#
# Bulk Modulus (GPa) = 65.27278 67.25657 66.26467
# Shear Modulus (GPa) = -38.75605 26.56022 -6.09792
#
# Velocity S-wave (km/s) = -3.84579 3.18369 -1.52548
# Velocity P-wave (km/s) = 2.27800 6.25947 4.71011
#
# Compressibility (1/GPa) = 0.01532032
#
# Stress axis : x y z
#
# Youngs Moduli (GPa) = 110.38758 110.38751 119.63528
#
# Poissons Ratio (x) = 0.04799 0.30767
# Poissons Ratio (y) = 0.04799 0.30767
# Poissons Ratio (z) = 0.28389 0.28388
#
# Static dielectric constant tensor:
#      x y z
#    x 2.293380 0.000000 0.000000 
#    y 0.000000 2.293410 0.000000 
#    z 0.000000 0.000000 2.052030 
# 
# From -- ./inp_files/4477.got.cif
#   From: 2010.05.17/outbox.cif.g08.bks.cpg/sg118_3_cif.got.tgz:4477.got - 2010.05.20 11:17:24.
