data_PCOD9558448
_publ_section_title
;
Structure prediction by ZEFSAII (Michael W. Deem and Ramdas Pophale) SiO2 
 PCOD9558448
Probable space group: P -4 N 2
;
_chemical_formula_sum "Si O2"
_cell_formula_units_Z 36
_cell_length_a 11.925288
_cell_length_b 11.925288
_cell_length_c 14.417108
_cell_angle_alpha 90.000000
_cell_angle_beta 90.000000
_cell_angle_gamma 90.000000
_cell_volume 2050.292883
_symmetry_space_group_name_H-M "P -4 N 2"
_symmetry_group_IT_number 118
_symmetry_cell_setting 'tetragonal'
loop_
_space_group_symop_operation_xyz
x,y,z
y,-x,-z
-x,-y,z
-y,x,-z
1/2+y,1/2+x,1/2-z
1/2-y,1/2-x,1/2-z
1/2-x,1/2+y,1/2+z
1/2+x,1/2-y,1/2+z
loop_
_atom_site_type_symbol
_atom_site_label
_atom_site_fract_x
_atom_site_fract_y
_atom_site_fract_z
Si Si1 0.118228 0.643129 0.357470
Si Si2 0.358489 0.892263 0.900532
Si Si3 0.877412 0.946565 0.351278
Si Si4 0.245952 0.745952 0.750000
Si Si5 0.205799 0.855936 0.466891
O O1 0.154709 0.654709 0.250000
O O2 0.159317 0.523941 0.396040
O O3 0.159069 0.741294 0.424410
O O4 0.982902 0.634302 0.360460
O O5 0.273156 0.828587 0.834594
O O6 0.349131 0.833523 0.999613
O O7 0.794075 0.874677 0.284993
O O8 0.894184 0.865722 0.441837
O O9 0.809649 0.051753 0.389099
O O10 0.000000 0.000000 0.321794
#
# Coordination Sequence:
#
# PCOD9558448 Si02
#       5
#     8   8   8   4   8
#     4  11  20  35  58  85 114 148 200 246 295 361
#     4  10  19  35  56  85 112 153 193 249 295 358
#     4  11  19  34  59  93 119 156 203 256 304 368
#     4  10  20  33  58  92 123 144 204 258 306 355
#     4  11  19  35  60  85 115 153 203 246 302 363
#
# _framework density 17.558468000000001
#
# number of rings (size 3 to 8) (size 9 to 14) (size 15 to 20)
#    0.000    1.333    6.667    2.000    0.000    0.000 
#    0.000    4.444    0.000    0.000    0.000    0.000 
#    0.000    0.000    0.000    0.000    0.000    0.000 
#
# Total GULP energy -200463.872588 kJ/mol
# GULP energy per Si atom -5568.440905 kJ/mol
# Density = 1.751850 g / cm^3
# Si number density = 17.558468 Si / 1000 Ang^3
#
#
#
# Elastic Constant Matrix: (Units=GPa)
#
#
# Indices 1 2 3 4 5 6 
#
# 1 88.9962 31.6843 30.5673 0.0000 0.0000 0.0000
# 2 31.6843 88.9962 30.5673 0.0000 0.0000 0.0000
# 3 30.5673 30.5673 45.5651 0.0000 0.0000 0.0000
# 4 0.0000 0.0000 0.0000 14.7592 0.0000 0.0000
# 5 0.0000 0.0000 0.0000 0.0000 14.7592 0.0000
# 6 0.0000 0.0000 0.0000 0.0000 0.0000 22.0275
#
#
#
# Elastic Compliance Matrix: (Units=1/GPa)
#
#
# Indices 1 2 3 4 5 6 
#
# 1 0.015000 -0.002448 -0.008421 0.000000 0.000000 0.000000
# 2 -0.002448 0.015000 -0.008421 0.000000 0.000000 0.000000
# 3 -0.008421 -0.008421 0.033244 0.000000 0.000000 0.000000
# 4 0.000000 0.000000 0.000000 0.067754 0.000000 0.000000
# 5 0.000000 0.000000 0.000000 0.000000 0.067754 0.000000
# 6 0.000000 0.000000 0.000000 0.000000 0.000000 0.045398
#
#
# Mechanical properties :
#
#
# Convention : Reuss Voigt Hill
#
# Bulk Modulus (GPa) = 40.54096 45.46615 43.00355
# Shear Modulus (GPa) = 17.18497 19.02508 18.10503
#
# Velocity S-wave (km/s) = 3.13186 3.29527 3.21460
# Velocity P-wave (km/s) = 6.01808 6.35836 6.19056
#
# Compressibility (1/GPa) = 0.02466641
#
# Stress axis : x y z
#
# Youngs Moduli (GPa) = 66.66570 66.66570 30.08021
#
# Poissons Ratio (x) = 0.16321 0.25329
# Poissons Ratio (y) = 0.16321 0.25329
# Poissons Ratio (z) = 0.56136 0.56136
#
# Static dielectric constant tensor:
#      x y z
#    x 1.626450 0.000000 0.000000 
#    y 0.000000 1.626450 0.000000 
#    z 0.000000 0.000000 1.659810 
# 
# From -- ./inp_files/3053.got.cif
#   From: 2010.05.17/outbox.cif.g08.bks.cpg/sg118_2_cif.got.tgz:3053.got - 2010.05.20 11:17:24.
