data_PCOD9558146
_publ_section_title
;
Structure prediction by ZEFSAII (Michael W. Deem and Ramdas Pophale) SiO2 
 PCOD9558146
Probable space group: P -4 B 2
;
_chemical_formula_sum "Si O2"
_cell_formula_units_Z 28
_cell_length_a 13.991518
_cell_length_b 13.991518
_cell_length_c 5.556958
_cell_angle_alpha 90.000000
_cell_angle_beta 90.000000
_cell_angle_gamma 90.000000
_cell_volume 1087.844412
_symmetry_space_group_name_H-M "P -4 B 2"
_symmetry_group_IT_number 117
_symmetry_cell_setting 'tetragonal'
loop_
_space_group_symop_operation_xyz
x,y,z
y,-x,-z
-x,-y,z
-y,x,-z
1/2+y,1/2+x,-z
1/2-y,1/2-x,-z
1/2-x,1/2+y,z
1/2+x,1/2-y,z
loop_
_atom_site_type_symbol
_atom_site_label
_atom_site_fract_x
_atom_site_fract_y
_atom_site_fract_z
Si Si1 0.765050 0.734951 0.500000
Si Si2 0.713152 0.009327 0.896980
Si Si3 0.500000 0.000000 0.000000
Si Si4 0.500000 0.500000 0.500000
Si Si5 0.711726 0.513747 0.397967
Si Si6 0.733624 0.233624 0.000000
O O1 0.747891 0.622054 0.449101
O O2 0.726489 0.773412 0.751681
O O3 0.737288 0.971316 0.163574
O O4 0.743507 0.120207 0.945311
O O5 0.599476 0.003135 0.854335
O O6 0.767951 0.970880 0.663258
O O7 0.598542 0.506732 0.353410
#
# Coordination Sequence:
#
# PCOD9558146 Si02
#       6
#     4   8   2   2   8   4
#     4   8  14  32  56  79 112 155 210 276 330 378
#     4   9  19  35  60  98 134 169 226 291 353 422
#     4  10  20  38  76 108 140 188 236 300 380 440
#     4  12  28  46  72  98 144 206 248 286 356 434
#     4  10  22  40  62  93 134 185 237 291 348 416
#     4   7  12  25  50  79 114 157 194 250 328 385
#
# _framework density 25.738973999999999
#
# number of rings (size 3 to 8) (size 9 to 14) (size 15 to 20)
#    0.000    2.857    0.000    1.714    0.000    5.714 
#    0.000    2.857    0.000    6.857    0.000    0.000 
#    0.000    0.000    0.000    0.000    0.000    0.000 
#
# Total GULP energy -156048.904968 kJ/mol
# GULP energy per Si atom -5573.175177 kJ/mol
# Density = 2.568039 g / cm^3
# Si number density = 25.738974 Si / 1000 Ang^3
#
#
#
# Elastic Constant Matrix: (Units=GPa)
#
#
# Indices 1 2 3 4 5 6 
#
# 1 146.5009 14.9506 31.1639 0.0000 0.0000 0.0000
# 2 14.9506 146.4998 31.1642 0.0000 0.0000 0.0000
# 3 31.1639 31.1642 291.0902 0.0000 0.0000 0.0000
# 4 0.0000 0.0000 0.0000 -25.6616 0.0000 0.0000
# 5 0.0000 0.0000 0.0000 0.0000 -25.6625 0.0000
# 6 0.0000 0.0000 0.0000 0.0000 0.0000 18.6943
#
#
#
# Elastic Compliance Matrix: (Units=1/GPa)
#
#
# Indices 1 2 3 4 5 6 
#
# 1 0.007031 -0.000570 -0.000692 0.000000 0.000000 0.000000
# 2 -0.000570 0.007031 -0.000692 0.000000 0.000000 0.000000
# 3 -0.000692 -0.000692 0.003583 0.000000 0.000000 0.000000
# 4 0.000000 0.000000 0.000000 -0.038969 0.000000 0.000000
# 5 0.000000 0.000000 0.000000 0.000000 -0.038967 0.000000
# 6 0.000000 0.000000 0.000000 0.000000 0.000000 0.053492
#
#
# Mechanical properties :
#
#
# Convention : Reuss Voigt Hill
#
# Bulk Modulus (GPa) = 72.78870 82.07203 77.43037
# Shear Modulus (GPa) = 2960.03712 27.26153 1493.64933
#
# Velocity S-wave (km/s) = 33.94876 3.25799 24.11569
# Velocity P-wave (km/s) = 39.56048 6.79030 28.38256
#
# Compressibility (1/GPa) = 0.01373840
#
# Stress axis : x y z
#
# Youngs Moduli (GPa) = 142.22230 142.22109 279.05935
#
# Poissons Ratio (x) = 0.08113 0.19302
# Poissons Ratio (y) = 0.08113 0.19303
# Poissons Ratio (z) = 0.09837 0.09838
#
# Static dielectric constant tensor:
#      x y z
#    x 1.594580 0.000000 0.000000 
#    y 0.000000 1.594580 0.000000 
#    z 0.000000 0.000000 1.900480 
# 
# From -- ./inp_files/453.got.cif
#   From: 2010.05.17/outbox.cif.g08.bks.cpg/sg117_1_cif.got.tgz:453.got - 2010.05.20 11:15:09.
