data_PCOD9558610
_publ_section_title
;
Structure prediction by ZEFSAII (Michael W. Deem and Ramdas Pophale) SiO2 
 PCOD9558610
Probable space group: P -4 N 2
;
_chemical_formula_sum "Si O2"
_cell_formula_units_Z 26
_cell_length_a 8.149418
_cell_length_b 8.149418
_cell_length_c 21.922284
_cell_angle_alpha 90.000000
_cell_angle_beta 90.000000
_cell_angle_gamma 90.000000
_cell_volume 1455.924948
_symmetry_space_group_name_H-M "P -4 N 2"
_symmetry_group_IT_number 118
_symmetry_cell_setting 'tetragonal'
loop_
_space_group_symop_operation_xyz
x,y,z
y,-x,-z
-x,-y,z
-y,x,-z
1/2+y,1/2+x,1/2-z
1/2-y,1/2-x,1/2-z
1/2-x,1/2+y,1/2+z
1/2+x,1/2-y,1/2+z
loop_
_atom_site_type_symbol
_atom_site_label
_atom_site_fract_x
_atom_site_fract_y
_atom_site_fract_z
Si Si1 0.317412 0.806442 0.936692
Si Si2 0.000000 0.500000 0.750000
Si Si3 1.000000 0.685203 0.868880
Si Si4 0.682588 0.806442 0.936692
O O1 0.166355 0.767923 0.892040
O O2 0.500000 0.766923 0.912638
O O3 0.311766 1.000000 0.950637
O O4 0.287099 0.712901 1.000000
O O5 0.000000 0.346678 0.796252
O O6 0.000000 0.500000 0.895706
O O7 0.833645 0.767923 0.892040
#
# Coordination Sequence:
#
# PCOD9558610 Si02
#       4
#     8   2   8   8
#     4  11  22  36  59  95 133 166 208 269 333 388
#     4   8  24  44  64  84 128 184 220 262 300 408
#     4  10  21  41  62  88 123 169 222 256 319 385
#     4  11  22  36  59  95 133 166 208 269 333 388
#
# _framework density 17.858060999999999
#
# number of rings (size 3 to 8) (size 9 to 14) (size 15 to 20)
#    0.923    0.615    3.077    2.769    0.000    4.308 
#    0.000    6.154    0.000    3.692    0.000    0.000 
#    0.000    0.000    0.000    0.000    0.000    0.000 
#
# Total GULP energy -144885.911563 kJ/mol
# GULP energy per Si atom -5572.535060 kJ/mol
# Density = 1.781742 g / cm^3
# Si number density = 17.858061 Si / 1000 Ang^3
#
#
#
# Elastic Constant Matrix: (Units=GPa)
#
#
# Indices 1 2 3 4 5 6 
#
# 1 124.6387 48.2825 35.6699 0.0000 0.0000 0.0000
# 2 48.2825 124.6387 35.6699 0.0000 0.0000 0.0000
# 3 35.6699 35.6699 95.2108 0.0000 0.0000 0.0000
# 4 0.0000 0.0000 0.0000 21.6676 0.0000 0.0000
# 5 0.0000 0.0000 0.0000 0.0000 21.6676 0.0000
# 6 0.0000 0.0000 0.0000 0.0000 0.0000 16.2371
#
#
#
# Elastic Compliance Matrix: (Units=1/GPa)
#
#
# Indices 1 2 3 4 5 6 
#
# 1 0.009968 -0.003128 -0.002563 0.000000 0.000000 0.000000
# 2 -0.003128 0.009968 -0.002563 0.000000 0.000000 0.000000
# 3 -0.002563 -0.002563 0.012423 0.000000 0.000000 0.000000
# 4 0.000000 0.000000 0.000000 0.046152 0.000000 0.000000
# 5 0.000000 0.000000 0.000000 0.000000 0.046152 0.000000
# 6 0.000000 0.000000 0.000000 0.000000 0.000000 0.061587
#
#
# Mechanical properties :
#
#
# Convention : Reuss Voigt Hill
#
# Bulk Modulus (GPa) = 63.07930 64.85919 63.96924
# Shear Modulus (GPa) = 24.03363 26.90554 25.46959
#
# Velocity S-wave (km/s) = 3.67251 3.88575 3.78063
# Velocity P-wave (km/s) = 7.30633 7.51866 7.41325
#
# Compressibility (1/GPa) = 0.01585306
#
# Stress axis : x y z
#
# Youngs Moduli (GPa) = 100.31744 100.31744 80.49492
#
# Poissons Ratio (x) = 0.31381 0.20628
# Poissons Ratio (y) = 0.31381 0.20628
# Poissons Ratio (z) = 0.25708 0.25708
#
# Static dielectric constant tensor:
#      x y z
#    x 1.635270 0.000000 0.000000 
#    y 0.000000 1.635270 0.000000 
#    z 0.000000 0.000000 1.583230 
# 
# From -- ./inp_files/4491.got.cif
#   From: 2010.05.17/outbox.cif.g08.bks.cpg/sg118_3_cif.got.tgz:4491.got - 2010.05.20 11:17:24.
