data_PCOD9558752
_publ_section_title
;
Structure prediction by ZEFSAII (Michael W. Deem and Ramdas Pophale) SiO2 
 PCOD9558752
Probable space group: P -4 N 2
;
_chemical_formula_sum "Si O2"
_cell_formula_units_Z 28
_cell_length_a 10.101893
_cell_length_b 10.101893
_cell_length_c 10.488281
_cell_angle_alpha 90.000000
_cell_angle_beta 90.000000
_cell_angle_gamma 90.000000
_cell_volume 1070.310640
_symmetry_space_group_name_H-M "P -4 N 2"
_symmetry_group_IT_number 118
_symmetry_cell_setting 'tetragonal'
loop_
_space_group_symop_operation_xyz
x,y,z
y,-x,-z
-x,-y,z
-y,x,-z
1/2+y,1/2+x,1/2-z
1/2-y,1/2-x,1/2-z
1/2-x,1/2+y,1/2+z
1/2+x,1/2-y,1/2+z
loop_
_atom_site_type_symbol
_atom_site_label
_atom_site_fract_x
_atom_site_fract_y
_atom_site_fract_z
Si Si1 0.000000 0.500000 0.750000
Si Si2 0.342500 0.526332 0.357062
Si Si3 0.657216 0.691633 0.155494
Si Si4 0.299899 0.867789 0.067978
Si Si5 0.000000 0.000000 0.500000
O O1 0.903141 0.566293 0.861281
O O2 0.500000 0.500000 0.369014
O O3 0.295514 0.428211 0.247000
O O4 0.336233 0.681130 0.335318
O O5 0.257990 0.491156 0.483288
O O6 0.677621 0.822380 0.250000
O O7 0.527407 0.626212 0.091125
O O8 0.753544 0.702614 0.036750
#
# Coordination Sequence:
#
# PCOD9558752 Si02
#       5
#     2   8   8   8   2
#     4  12  32  48  70 120 154 202 248 338 376 448
#     4  11  21  48  80 110 148 204 252 316 392 463
#     4  10  26  47  76 117 153 201 263 321 382 478
#     4  11  25  48  72 114 154 199 253 318 388 458
#     4  12  24  48  80 118 144 216 260 316 410 444
#
# _framework density 26.160630000000001
#
# number of rings (size 3 to 8) (size 9 to 14) (size 15 to 20)
#    0.000    1.143    4.286    0.000    4.000    4.571 
#    2.571    5.000    0.000    0.000    0.000    0.000 
#    0.000    0.000    0.000    0.000    0.000    0.000 
#
# Total GULP energy -156076.218357 kJ/mol
# GULP energy per Si atom -5574.150656 kJ/mol
# Density = 2.610109 g / cm^3
# Si number density = 26.160630 Si / 1000 Ang^3
#
#
#
# Elastic Constant Matrix: (Units=GPa)
#
#
# Indices 1 2 3 4 5 6 
#
# 1 103.3066 25.6691 37.7200 0.0000 0.0000 0.0000
# 2 25.6691 103.3079 37.7205 0.0000 0.0000 0.0000
# 3 37.7200 37.7205 118.2534 0.0000 0.0000 0.0000
# 4 0.0000 0.0000 0.0000 59.8904 0.0000 0.0000
# 5 0.0000 0.0000 0.0000 0.0000 59.8904 0.0000
# 6 0.0000 0.0000 0.0000 0.0000 0.0000 42.6697
#
#
#
# Elastic Compliance Matrix: (Units=1/GPa)
#
#
# Indices 1 2 3 4 5 6 
#
# 1 0.011206 -0.001674 -0.003040 0.000000 0.000000 0.000000
# 2 -0.001674 0.011206 -0.003040 0.000000 0.000000 0.000000
# 3 -0.003040 -0.003040 0.010396 0.000000 0.000000 0.000000
# 4 0.000000 0.000000 0.000000 0.016697 0.000000 0.000000
# 5 0.000000 0.000000 0.000000 0.000000 0.016697 0.000000
# 6 0.000000 0.000000 0.000000 0.000000 0.000000 0.023436
#
#
# Mechanical properties :
#
#
# Convention : Reuss Voigt Hill
#
# Bulk Modulus (GPa) = 57.81049 58.56522 58.18785
# Shear Modulus (GPa) = 45.07980 47.40731 46.24355
#
# Velocity S-wave (km/s) = 4.15564 4.26157 4.20894
# Velocity P-wave (km/s) = 6.72101 6.83008 6.77577
#
# Compressibility (1/GPa) = 0.01729790
#
# Stress axis : x y z
#
# Youngs Moduli (GPa) = 89.23744 89.23825 96.19015
#
# Poissons Ratio (x) = 0.14941 0.29246
# Poissons Ratio (y) = 0.14941 0.29246
# Poissons Ratio (z) = 0.27132 0.27132
#
# Static dielectric constant tensor:
#      x y z
#    x 2.006090 0.000000 0.000000 
#    y 0.000000 2.006090 0.000000 
#    z 0.000000 0.000000 2.041490 
# 
# From -- ./inp_files/2811.got.cif
#   From: 2010.05.17/outbox.cif.g08.bks.cpg/sg118_2_cif.got.tgz:2811.got - 2010.05.20 11:17:24.
