data_PCOD9558576
_publ_section_title
;
Structure prediction by ZEFSAII (Michael W. Deem and Ramdas Pophale) SiO2 
 PCOD9558576
Probable space group: P -4 N 2
;
_chemical_formula_sum "Si O2"
_cell_formula_units_Z 40
_cell_length_a 15.129572
_cell_length_b 15.129572
_cell_length_c 8.996792
_cell_angle_alpha 90.000000
_cell_angle_beta 90.000000
_cell_angle_gamma 90.000000
_cell_volume 2059.401216
_symmetry_space_group_name_H-M "P -4 N 2"
_symmetry_group_IT_number 118
_symmetry_cell_setting 'tetragonal'
loop_
_space_group_symop_operation_xyz
x,y,z
y,-x,-z
-x,-y,z
-y,x,-z
1/2+y,1/2+x,1/2-z
1/2-y,1/2-x,1/2-z
1/2-x,1/2+y,1/2+z
1/2+x,1/2-y,1/2+z
loop_
_atom_site_type_symbol
_atom_site_label
_atom_site_fract_x
_atom_site_fract_y
_atom_site_fract_z
Si Si1 0.504729 0.863258 0.193356
Si Si2 0.319482 0.470786 0.644146
Si Si3 0.104066 0.710075 0.447980
Si Si4 0.777515 0.900377 0.881762
Si Si5 0.939388 0.112391 0.581557
O O1 0.598012 0.901989 0.250000
O O2 0.478029 0.770921 0.263837
O O3 0.432493 0.932493 0.250000
O O4 0.525109 0.847633 0.020053
O O5 0.347862 0.369605 0.630791
O O6 0.300509 0.517379 0.487466
O O7 0.387845 0.525905 0.748958
O O8 0.079776 0.742835 0.283592
O O9 0.196343 0.657356 0.446808
O O10 0.112792 0.798121 0.548056
O O11 0.026562 0.112232 0.475229
#
# Coordination Sequence:
#
# PCOD9558576 Si02
#       5
#     8   8   8   8   8
#     4  10  21  42  70  95 125 174 229 275 326 404
#     4  11  24  39  65  94 132 171 224 271 348 401
#     4  10  22  42  63  92 132 171 218 275 341 395
#     4  11  24  40  63  94 134 174 213 286 338 410
#     4  10  21  37  61  93 125 172 221 272 333 412
#
# _framework density 19.423120000000001
#
# number of rings (size 3 to 8) (size 9 to 14) (size 15 to 20)
#    0.000    1.600    4.000    0.000    5.600    0.400 
#    0.000    1.000    8.800    0.000    0.000    0.000 
#    0.000    0.000    0.000    0.000    0.000    0.000 
#
# Total GULP energy -223043.184347 kJ/mol
# GULP energy per Si atom -5576.079609 kJ/mol
# Density = 1.937891 g / cm^3
# Si number density = 19.423120 Si / 1000 Ang^3
#
#
#
# Elastic Constant Matrix: (Units=GPa)
#
#
# Indices 1 2 3 4 5 6 
#
# 1 88.5683 38.1905 63.4074 0.0000 0.0000 0.0000
# 2 38.1905 88.5700 63.4067 0.0000 0.0000 0.0000
# 3 63.4074 63.4067 124.9946 0.0000 0.0000 0.0000
# 4 0.0000 0.0000 0.0000 33.2674 0.0000 0.0000
# 5 0.0000 0.0000 0.0000 0.0000 33.2673 0.0000
# 6 0.0000 0.0000 0.0000 0.0000 0.0000 27.3113
#
#
#
# Elastic Compliance Matrix: (Units=1/GPa)
#
#
# Indices 1 2 3 4 5 6 
#
# 1 0.017934 -0.001916 -0.008126 0.000000 0.000000 0.000000
# 2 -0.001916 0.017933 -0.008125 0.000000 0.000000 0.000000
# 3 -0.008126 -0.008125 0.016244 0.000000 0.000000 0.000000
# 4 0.000000 0.000000 0.000000 0.030059 0.000000 0.000000
# 5 0.000000 0.000000 0.000000 0.000000 0.030060 0.000000
# 6 0.000000 0.000000 0.000000 0.000000 0.000000 0.036615
#
#
# Mechanical properties :
#
#
# Convention : Reuss Voigt Hill
#
# Bulk Modulus (GPa) = 63.37980 70.23802 66.80891
# Shear Modulus (GPa) = 26.25508 27.91108 27.08308
#
# Velocity S-wave (km/s) = 3.68060 3.79489 3.73818
# Velocity P-wave (km/s) = 7.12491 7.44595 7.28720
#
# Compressibility (1/GPa) = 0.01577790
#
# Stress axis : x y z
#
# Youngs Moduli (GPa) = 55.75918 55.76159 61.56018
#
# Poissons Ratio (x) = 0.10683 0.50023
# Poissons Ratio (y) = 0.10682 0.50020
# Poissons Ratio (z) = 0.45309 0.45308
#
# Static dielectric constant tensor:
#      x y z
#    x 1.690390 0.000000 0.000000 
#    y 0.000000 1.690390 0.000000 
#    z 0.000000 0.000000 1.730160 
# 
# From -- ./inp_files/1907.got.cif
#   From: 2010.05.17/outbox.cif.g08.bks.cpg/sg118_1_cif.got.tgz:1907.got - 2010.05.20 11:17:24.
