data_PCOD9558675
_publ_section_title
;
Structure prediction by ZEFSAII (Michael W. Deem and Ramdas Pophale) SiO2 
 PCOD9558675
Probable space group: P -4 N 2
;
_chemical_formula_sum "Si O2"
_cell_formula_units_Z 48
_cell_length_a 8.313138
_cell_length_b 8.313138
_cell_length_c 31.385506
_cell_angle_alpha 90.000000
_cell_angle_beta 90.000000
_cell_angle_gamma 90.000000
_cell_volume 2168.997816
_symmetry_space_group_name_H-M "P -4 N 2"
_symmetry_group_IT_number 118
_symmetry_cell_setting 'tetragonal'
loop_
_space_group_symop_operation_xyz
x,y,z
y,-x,-z
-x,-y,z
-y,x,-z
1/2+y,1/2+x,1/2-z
1/2-y,1/2-x,1/2-z
1/2-x,1/2+y,1/2+z
1/2+x,1/2-y,1/2+z
loop_
_atom_site_type_symbol
_atom_site_label
_atom_site_fract_x
_atom_site_fract_y
_atom_site_fract_z
Si Si1 0.288510 0.798339 0.533371
Si Si2 0.313002 0.896283 0.201972
Si Si3 0.500000 0.500000 0.060424
Si Si4 0.194302 0.694302 0.750000
Si Si5 0.458598 0.689680 0.446931
Si Si6 0.000000 0.500000 0.403160
Si Si7 0.000000 0.000000 0.229187
Si Si8 0.710903 0.709562 0.878771
O O1 0.356156 0.755595 0.486863
O O2 0.224432 0.630529 0.551855
O O3 0.425739 0.866860 0.564753
O O4 0.149137 0.928524 0.534642
O O5 0.334343 0.834343 0.250000
O O6 0.361548 0.776674 0.165133
O O7 0.360795 0.085929 0.208799
O O8 0.119225 0.902978 0.198812
O O9 0.574026 0.365979 0.091511
O O10 0.378749 0.627779 0.753342
O O11 0.500000 0.500000 0.452029
O O12 0.363482 0.720712 0.404107
O O13 0.080553 0.645041 0.376727
#
# Coordination Sequence:
#
# PCOD9558675 Si02
#       8
#     8   8   4   4   8   4   4   8
#     4  11  22  45  69 104 144 190 241 293 362 440
#     4  10  22  45  69  97 141 190 241 296 378 448
#     4  10  28  48  68 107 152 194 234 317 372 422
#     4   8  19  44  69  98 132 180 235 294 367 444
#     4  12  22  41  75 104 134 189 247 291 353 449
#     4  10  22  42  69  96 156 186 231 312 366 426
#     4   8  20  39  70 103 132 177 230 302 370 435
#     4  11  25  45  69 108 143 193 245 308 369 440
#
# _framework density 22.130037999999999
#
# number of rings (size 3 to 8) (size 9 to 14) (size 15 to 20)
#    1.000    0.667    3.333    0.250    1.167    6.000 
#    9.000    0.000    0.000    0.000    0.000    0.000 
#    0.000    0.000    0.000    0.000    0.000    0.000 
#
# Total GULP energy -267482.728349 kJ/mol
# GULP energy per Si atom -5572.556841 kJ/mol
# Density = 2.207967 g / cm^3
# Si number density = 22.130038 Si / 1000 Ang^3
#
#
#
# Elastic Constant Matrix: (Units=GPa)
#
#
# Indices 1 2 3 4 5 6 
#
# 1 76.2702 26.6342 41.0009 0.0000 0.0000 0.0000
# 2 26.6342 76.2702 41.0009 0.0000 0.0000 0.0000
# 3 41.0009 41.0009 107.3452 0.0000 0.0000 0.0000
# 4 0.0000 0.0000 0.0000 25.8295 0.0000 0.0000
# 5 0.0000 0.0000 0.0000 0.0000 25.8295 0.0000
# 6 0.0000 0.0000 0.0000 0.0000 0.0000 40.6661
#
#
#
# Elastic Compliance Matrix: (Units=1/GPa)
#
#
# Indices 1 2 3 4 5 6 
#
# 1 0.017058 -0.003088 -0.005336 0.000000 0.000000 0.000000
# 2 -0.003088 0.017058 -0.005336 0.000000 0.000000 0.000000
# 3 -0.005336 -0.005336 0.013392 0.000000 0.000000 0.000000
# 4 0.000000 0.000000 0.000000 0.038715 0.000000 0.000000
# 5 0.000000 0.000000 0.000000 0.000000 0.038715 0.000000
# 6 0.000000 0.000000 0.000000 0.000000 0.000000 0.024591
#
#
# Mechanical properties :
#
#
# Convention : Reuss Voigt Hill
#
# Bulk Modulus (GPa) = 50.02984 53.01750 51.52367
# Shear Modulus (GPa) = 27.21647 28.54831 27.88239
#
# Velocity S-wave (km/s) = 3.51072 3.59559 3.55341
# Velocity P-wave (km/s) = 6.25218 6.42238 6.33785
#
# Compressibility (1/GPa) = 0.01998807
#
# Stress axis : x y z
#
# Youngs Moduli (GPa) = 58.62294 58.62294 74.67269
#
# Poissons Ratio (x) = 0.18106 0.39844
# Poissons Ratio (y) = 0.18106 0.39844
# Poissons Ratio (z) = 0.31280 0.31280
#
# Static dielectric constant tensor:
#      x y z
#    x 1.933370 0.000000 0.000000 
#    y 0.000000 1.933370 0.000000 
#    z 0.000000 0.000000 1.784710 
# 
# From -- ./inp_files/6938.got.cif
#   From: 2010.05.17/outbox.cif.g08.bks.cpg/sg118_4_cif.got.tgz:6938.got - 2010.05.20 11:17:24.
