data_PCOD9558989
_publ_section_title
;
Structure prediction by ZEFSAII (Michael W. Deem and Ramdas Pophale) SiO2 
 PCOD9558989
Probable space group: I -4 M 2
;
_chemical_formula_sum "Si O2"
_cell_formula_units_Z 112
_cell_length_a 26.117245
_cell_length_b 26.117245
_cell_length_c 7.340833
_cell_angle_alpha 90.000000
_cell_angle_beta 90.000000
_cell_angle_gamma 90.000000
_cell_volume 5007.259168
_symmetry_space_group_name_H-M "I -4 M 2"
_symmetry_group_IT_number 119
_symmetry_cell_setting 'tetragonal'
loop_
_space_group_symop_operation_xyz
x,y,z
y,-x,-z
-x,-y,z
-y,x,-z
y,x,-z
-y,-x,-z
-x,y,z
x,-y,z
1/2+x,1/2+y,1/2+z
1/2+y,1/2-x,1/2-z
1/2-x,1/2-y,1/2+z
1/2-y,1/2+x,1/2-z
1/2+y,1/2+x,1/2-z
1/2-y,1/2-x,1/2-z
1/2-x,1/2+y,1/2+z
1/2+x,1/2-y,1/2+z
loop_
_atom_site_type_symbol
_atom_site_label
_atom_site_fract_x
_atom_site_fract_y
_atom_site_fract_z
Si Si1 0.643584 0.557891 0.032331
Si Si2 0.792249 0.292249 0.466073
Si Si3 0.361757 0.055847 0.528329
Si Si4 0.638243 0.944153 0.971672
Si Si5 0.254158 0.097327 0.972367
Si Si6 0.597327 0.754158 0.972365
Si Si7 0.442109 0.643585 0.532329
O O1 0.633834 0.500000 0.964958
O O2 0.698467 0.579077 0.964370
O O3 0.648498 0.554508 0.250001
O O4 0.597906 0.597906 0.000000
O O5 0.750001 0.250000 0.500000
O O6 0.799963 0.299963 0.250000
O O7 0.770535 0.346047 0.534811
O O8 0.846047 0.270534 0.534810
O O9 0.362382 0.057452 0.750000
O O10 0.397751 0.102249 0.466439
O O11 0.302614 0.062799 0.475307
O O12 0.380827 0.000000 0.472286
O O13 0.697385 0.937201 0.024695
O O14 0.619173 0.000000 0.027715
O O15 0.251969 0.097668 0.750001
O O16 0.198467 0.079078 0.035632
O O17 0.402095 0.597906 0.500000
O O18 0.500000 0.633835 0.464954
#
# Coordination Sequence:
#
# PCOD9558989 Si02
#       7
#    16  16  16  16  16  16  16
#     4  10  21  36  54  75  99 130 167 206 249 297
#     4  10  18  28  46  70  97 127 157 193 238 286
#     4   9  15  23  37  59  90 128 166 200 235 279
#     4   9  15  23  37  59  90 128 166 200 235 279
#     4   9  16  29  46  67  94 125 162 200 240 289
#     4   9  16  29  46  67  94 125 162 200 240 289
#     4  10  21  36  54  75  99 130 167 206 249 297
#
# _framework density 22.367525000000001
#
# number of rings (size 3 to 8) (size 9 to 14) (size 15 to 20)
#    0.000    2.571    1.429    1.714    0.000    4.571 
#    0.000    2.857    0.000    0.000    0.000    0.000 
#    0.000    0.000    0.000    0.000    0.000    2.571 
#
# Total GULP energy -312739.351587 kJ/mol
# GULP energy per Si atom -5584.631278 kJ/mol
# Density = 2.231662 g / cm^3
# Si number density = 22.367525 Si / 1000 Ang^3
#
#
#
# Elastic Constant Matrix: (Units=GPa)
#
#
# Indices 1 2 3 4 5 6 
#
# 1 199.7438 119.4608 3.9398 0.0000 0.0000 0.0000
# 2 119.4608 199.7425 3.9399 0.0000 0.0000 0.0000
# 3 3.9398 3.9399 85.0493 0.0000 0.0000 0.0000
# 4 0.0000 0.0000 0.0000 -2.0147 0.0000 0.0000
# 5 0.0000 0.0000 0.0000 0.0000 -2.0148 0.0000
# 6 0.0000 0.0000 0.0000 0.0000 0.0000 14.5940
#
#
#
# Elastic Compliance Matrix: (Units=1/GPa)
#
#
# Indices 1 2 3 4 5 6 
#
# 1 0.007796 -0.004660 -0.000145 0.000000 0.000000 0.000000
# 2 -0.004660 0.007796 -0.000145 0.000000 0.000000 0.000000
# 3 -0.000145 -0.000145 0.011771 0.000000 0.000000 0.000000
# 4 0.000000 0.000000 0.000000 -0.496353 0.000000 0.000000
# 5 0.000000 0.000000 0.000000 0.000000 -0.496328 0.000000
# 6 0.000000 0.000000 0.000000 0.000000 0.000000 0.068522
#
#
# Mechanical properties :
#
#
# Convention : Reuss Voigt Hill
#
# Bulk Modulus (GPa) = 57.26411 82.13518 69.69965
# Shear Modulus (GPa) = -5.67489 25.92590 10.12550
#
# Velocity S-wave (km/s) = -1.59456 3.40823 2.12995
# Velocity P-wave (km/s) = 4.71878 7.23108 6.10554
#
# Compressibility (1/GPa) = 0.01746294
#
# Stress axis : x y z
#
# Youngs Moduli (GPa) = 128.26793 128.26704 84.95205
#
# Poissons Ratio (x) = 0.59770 0.01234
# Poissons Ratio (y) = 0.59771 0.01234
# Poissons Ratio (z) = 0.01864 0.01864
#
# Static dielectric constant tensor:
#      x y z
#    x 1.795120 0.000000 0.000000 
#    y 0.000000 1.795120 0.000000 
#    z 0.000000 0.000000 1.919620 
# 
# From -- ./inp_files/4383.got.cif
#   From: 2010.05.17/outbox.cif.g08.bks.cpg/sg119_3_cif.got.tgz:4383.got - 2010.05.20 11:21:29.
