data_PCOD9558444
_publ_section_title
;
Structure prediction by ZEFSAII (Michael W. Deem and Ramdas Pophale) SiO2 
 PCOD9558444
Probable space group: P -4 N 2
;
_chemical_formula_sum "Si O2"
_cell_formula_units_Z 56
_cell_length_a 12.464582
_cell_length_b 12.464582
_cell_length_c 21.032333
_cell_angle_alpha 90.000000
_cell_angle_beta 90.000000
_cell_angle_gamma 90.000000
_cell_volume 3267.705336
_symmetry_space_group_name_H-M "P -4 N 2"
_symmetry_group_IT_number 118
_symmetry_cell_setting 'tetragonal'
loop_
_space_group_symop_operation_xyz
x,y,z
y,-x,-z
-x,-y,z
-y,x,-z
1/2+y,1/2+x,1/2-z
1/2-y,1/2-x,1/2-z
1/2-x,1/2+y,1/2+z
1/2+x,1/2-y,1/2+z
loop_
_atom_site_type_symbol
_atom_site_label
_atom_site_fract_x
_atom_site_fract_y
_atom_site_fract_z
Si Si1 0.630189 0.500000 0.249601
Si Si2 0.266735 0.627796 0.797910
Si Si3 0.123502 0.625738 0.920326
Si Si4 0.627797 0.266735 0.202090
Si Si5 0.678943 0.321057 0.500000
Si Si6 0.125738 0.376498 0.579674
Si Si7 0.872699 1.000000 0.896179
O O1 0.500000 0.500000 0.251414
O O2 0.660636 0.609618 0.213320
O O3 0.660636 0.390382 0.213320
O O4 0.669527 0.500000 0.323441
O O5 0.193500 0.693500 0.750000
O O6 0.212092 0.645836 0.866149
O O7 0.259229 0.500000 0.785035
O O8 0.126203 0.500000 0.935861
O O9 0.000000 0.650561 0.899369
O O10 0.153424 0.701244 0.978510
O O11 0.693500 0.193500 0.250000
O O12 0.645836 0.212092 0.133851
O O13 0.653424 0.201244 0.478510
O O14 0.602753 0.345318 0.560386
O O15 0.654682 0.397247 0.439614
O O16 0.000000 0.000000 0.889697
#
# Coordination Sequence:
#
# PCOD9558444 Si02
#       7
#     8   8   8   8   8   8   8
#     4   9  20  34  54  82 116 148 178 224 278 338
#     4  10  19  34  55  83 112 147 184 229 282 329
#     4  10  21  36  55  80 112 144 186 233 283 339
#     4  10  19  34  55  83 112 147 184 229 282 329
#     4  12  19  34  54  81 112 144 186 238 290 331
#     4  10  21  36  55  80 112 144 186 233 283 339
#     4  11  18  30  53  87 113 137 182 233 287 333
#
# _framework density 17.137408000000001
#
# number of rings (size 3 to 8) (size 9 to 14) (size 15 to 20)
#    0.000    1.714    2.857    2.571    0.000    3.714 
#    2.571    0.000    0.000    0.429    0.000    0.000 
#    0.000    0.000    0.000    0.000    0.000    0.000 
#
# Total GULP energy -312132.494797 kJ/mol
# GULP energy per Si atom -5573.794550 kJ/mol
# Density = 1.709840 g / cm^3
# Si number density = 17.137408 Si / 1000 Ang^3
#
#
#
# Elastic Constant Matrix: (Units=GPa)
#
#
# Indices 1 2 3 4 5 6 
#
# 1 46.3572 60.0714 57.1899 0.0000 0.0000 0.0000
# 2 60.0714 46.3572 57.1899 0.0000 0.0000 0.0000
# 3 57.1899 57.1899 73.2000 0.0000 0.0000 0.0000
# 4 0.0000 0.0000 0.0000 13.3714 0.0000 0.0000
# 5 0.0000 0.0000 0.0000 0.0000 13.3714 0.0000
# 6 0.0000 0.0000 0.0000 0.0000 0.0000 20.1513
#
#
#
# Elastic Compliance Matrix: (Units=1/GPa)
#
#
# Indices 1 2 3 4 5 6 
#
# 1 -0.007160 0.065757 -0.045781 0.000000 0.000000 0.000000
# 2 0.065757 -0.007160 -0.045781 0.000000 0.000000 0.000000
# 3 -0.045781 -0.045781 0.085197 0.000000 0.000000 0.000000
# 4 0.000000 0.000000 0.000000 0.074787 0.000000 0.000000
# 5 0.000000 0.000000 0.000000 0.000000 0.074787 0.000000
# 6 0.000000 0.000000 0.000000 0.000000 0.000000 0.049625
#
#
# Mechanical properties :
#
#
# Convention : Reuss Voigt Hill
#
# Bulk Modulus (GPa) = 51.90096 57.20187 54.55142
# Shear Modulus (GPa) = 15.23885 8.80969 12.02427
#
# Velocity S-wave (km/s) = 2.98521 2.26975 2.65172
# Velocity P-wave (km/s) = 6.49868 6.34979 6.42467
#
# Compressibility (1/GPa) = 0.01926747
#
# Stress axis : x y z
#
# Youngs Moduli (GPa) = -139.66985 -139.66985 11.73745
#
# Poissons Ratio (x) = 9.18430 0.53735
# Poissons Ratio (y) = 9.18430 0.53735
# Poissons Ratio (z) = -6.39425 -6.39425
#
# Static dielectric constant tensor:
#      x y z
#    x 1.586330 0.000000 0.000000 
#    y 0.000000 1.586330 0.000000 
#    z 0.000000 0.000000 1.585100 
# 
# From -- ./inp_files/5735.got.cif
#   From: 2010.05.17/outbox.cif.g08.bks.cpg/sg118_3_cif.got.tgz:5735.got - 2010.05.20 11:17:24.
