data_PCOD9558904
_publ_section_title
;
Structure prediction by ZEFSAII (Michael W. Deem and Ramdas Pophale) SiO2 
 PCOD9558904
Probable space group: P -4 N 2
;
_chemical_formula_sum "Si O2"
_cell_formula_units_Z 26
_cell_length_a 6.937835
_cell_length_b 6.937835
_cell_length_c 18.583592
_cell_angle_alpha 90.000000
_cell_angle_beta 90.000000
_cell_angle_gamma 90.000000
_cell_volume 894.494338
_symmetry_space_group_name_H-M "P -4 N 2"
_symmetry_group_IT_number 118
_symmetry_cell_setting 'tetragonal'
loop_
_space_group_symop_operation_xyz
x,y,z
y,-x,-z
-x,-y,z
-y,x,-z
1/2+y,1/2+x,1/2-z
1/2-y,1/2-x,1/2-z
1/2-x,1/2+y,1/2+z
1/2+x,1/2-y,1/2+z
loop_
_atom_site_type_symbol
_atom_site_label
_atom_site_fract_x
_atom_site_fract_y
_atom_site_fract_z
Si Si1 0.763597 0.359576 0.167424
Si Si2 0.325552 0.226557 0.988499
Si Si3 0.284058 0.182948 0.358140
Si Si4 0.000000 0.500000 0.750000
O O1 0.810614 0.310614 0.250000
O O2 0.851620 0.285953 0.090843
O O3 0.793689 0.591986 0.163164
O O4 0.538358 0.298392 0.150848
O O5 0.247990 0.442595 0.003604
O O6 0.272065 0.129207 0.063761
O O7 0.459004 0.181489 0.302364
#
# Coordination Sequence:
#
# PCOD9558904 Si02
#       4
#     8   8   8   2
#     4   9  15  30  55  78 100 140 182 227 271 329
#     4   7  12  25  47  73  99 130 175 222 264 326
#     4   9  18  29  49  79 107 136 181 222 276 330
#     4  12  20  32  50  76 106 138 176 230 264 332
#
# _framework density 29.066703
#
# number of rings (size 3 to 8) (size 9 to 14) (size 15 to 20)
#    0.000    3.385    1.538    3.692    0.000    0.000 
#    0.000    0.769   20.308    0.000    0.000    4.308 
#    0.000    0.000    0.000    0.000    0.000    0.000 
#
# Total GULP energy -144936.946058 kJ/mol
# GULP energy per Si atom -5574.497925 kJ/mol
# Density = 2.900055 g / cm^3
# Si number density = 29.066703 Si / 1000 Ang^3
#
#
#
# Elastic Constant Matrix: (Units=GPa)
#
#
# Indices 1 2 3 4 5 6 
#
# 1 112.4309 11.6526 53.9738 0.0000 0.0000 0.0000
# 2 11.6526 112.4309 53.9738 0.0000 0.0000 0.0000
# 3 53.9738 53.9738 422.4168 0.0000 0.0000 0.0000
# 4 0.0000 0.0000 0.0000 38.3549 0.0000 0.0000
# 5 0.0000 0.0000 0.0000 0.0000 38.3549 0.0000
# 6 0.0000 0.0000 0.0000 0.0000 0.0000 12.1522
#
#
#
# Elastic Compliance Matrix: (Units=1/GPa)
#
#
# Indices 1 2 3 4 5 6 
#
# 1 0.009495 -0.000428 -0.001159 0.000000 0.000000 0.000000
# 2 -0.000428 0.009495 -0.001159 0.000000 0.000000 0.000000
# 3 -0.001159 -0.001159 0.002663 0.000000 0.000000 0.000000
# 4 0.000000 0.000000 0.000000 0.026072 0.000000 0.000000
# 5 0.000000 0.000000 0.000000 0.000000 0.026072 0.000000
# 6 0.000000 0.000000 0.000000 0.000000 0.000000 0.082290
#
#
# Mechanical properties :
#
#
# Convention : Reuss Voigt Hill
#
# Bulk Modulus (GPa) = 61.86887 98.49766 80.18327
# Shear Modulus (GPa) = 29.94636 52.95095 41.44866
#
# Velocity S-wave (km/s) = 3.21325 4.27277 3.78032
# Velocity P-wave (km/s) = 5.92436 7.63560 6.83376
#
# Compressibility (1/GPa) = 0.01616322
#
# Stress axis : x y z
#
# Youngs Moduli (GPa) = 105.32013 105.32013 375.46179
#
# Poissons Ratio (x) = 0.04507 0.43498
# Poissons Ratio (y) = 0.04507 0.43498
# Poissons Ratio (z) = 0.12202 0.12202
#
# Static dielectric constant tensor:
#      x y z
#    x 2.431830 0.000000 0.000000 
#    y 0.000000 2.431830 0.000000 
#    z 0.000000 0.000000 2.349040 
# 
# From -- ./inp_files/4503.got.cif
#   From: 2010.05.17/outbox.cif.g08.bks.cpg/sg118_3_cif.got.tgz:4503.got - 2010.05.20 11:17:24.
