data_PCOD9558905
_publ_section_title
;
Structure prediction by ZEFSAII (Michael W. Deem and Ramdas Pophale) SiO2 
 PCOD9558905
Probable space group: P -4 N 2
;
_chemical_formula_sum "Si O2"
_cell_formula_units_Z 20
_cell_length_a 7.763488
_cell_length_b 7.763488
_cell_length_c 16.080813
_cell_angle_alpha 90.000000
_cell_angle_beta 90.000000
_cell_angle_gamma 90.000000
_cell_volume 969.218675
_symmetry_space_group_name_H-M "P -4 N 2"
_symmetry_group_IT_number 118
_symmetry_cell_setting 'tetragonal'
loop_
_space_group_symop_operation_xyz
x,y,z
y,-x,-z
-x,-y,z
-y,x,-z
1/2+y,1/2+x,1/2-z
1/2-y,1/2-x,1/2-z
1/2-x,1/2+y,1/2+z
1/2+x,1/2-y,1/2+z
loop_
_atom_site_type_symbol
_atom_site_label
_atom_site_fract_x
_atom_site_fract_y
_atom_site_fract_z
Si Si1 0.386519 0.846011 0.951976
Si Si2 0.000000 0.000000 0.500000
Si Si3 0.500000 0.000000 0.250000
Si Si4 0.024317 0.791496 0.885250
O O1 0.227507 0.777749 0.900135
O O2 0.500000 0.000000 0.915983
O O3 0.514726 0.684773 0.957757
O O4 0.297687 0.922893 0.036833
O O5 0.671238 0.010724 0.193370
O O6 0.000000 0.000000 0.880650
#
# Coordination Sequence:
#
# PCOD9558905 Si02
#       4
#     8   2   2   8
#     4  12  21  41  75 105 134 191 251 288 349 443
#     4  12  20  32  64 112 128 164 240 298 332 408
#     4  12  28  48  66 110 152 186 228 318 386 412
#     4  12  23  48  71 101 148 191 237 306 365 432
#
# _framework density 20.635176999999999
#
# number of rings (size 3 to 8) (size 9 to 14) (size 15 to 20)
#    0.000    0.000   10.000    0.000    0.000    0.000 
#   21.600    0.000    0.000    0.000    0.000    0.000 
#    0.000    0.000    0.000    0.000    0.000    0.000 
#
# Total GULP energy -111459.006595 kJ/mol
# GULP energy per Si atom -5572.950330 kJ/mol
# Density = 2.058821 g / cm^3
# Si number density = 20.635177 Si / 1000 Ang^3
#
#
#
# Elastic Constant Matrix: (Units=GPa)
#
#
# Indices 1 2 3 4 5 6 
#
# 1 113.1820 -3.1642 10.1313 0.0000 0.0000 0.0000
# 2 -3.1642 113.1820 10.1313 0.0000 0.0000 0.0000
# 3 10.1313 10.1313 63.9421 0.0000 0.0000 0.0000
# 4 0.0000 0.0000 0.0000 13.7178 0.0000 0.0000
# 5 0.0000 0.0000 0.0000 0.0000 13.7178 0.0000
# 6 0.0000 0.0000 0.0000 0.0000 0.0000 53.4719
#
#
#
# Elastic Compliance Matrix: (Units=1/GPa)
#
#
# Indices 1 2 3 4 5 6 
#
# 1 0.008979 0.000384 -0.001483 0.000000 0.000000 0.000000
# 2 0.000384 0.008979 -0.001483 0.000000 0.000000 0.000000
# 3 -0.001483 -0.001483 0.016109 0.000000 0.000000 0.000000
# 4 0.000000 0.000000 0.000000 0.072898 0.000000 0.000000
# 5 0.000000 0.000000 0.000000 0.000000 0.072898 0.000000
# 6 0.000000 0.000000 0.000000 0.000000 0.000000 0.018701
#
#
# Mechanical properties :
#
#
# Convention : Reuss Voigt Hill
#
# Bulk Modulus (GPa) = 34.60123 36.05587 35.32855
# Shear Modulus (GPa) = 23.43414 34.39535 28.91475
#
# Velocity S-wave (km/s) = 3.37358 4.08711 3.74737
# Velocity P-wave (km/s) = 5.65502 6.30742 5.99011
#
# Compressibility (1/GPa) = 0.02890070
#
# Stress axis : x y z
#
# Youngs Moduli (GPa) = 111.37291 111.37291 62.07616
#
# Poissons Ratio (x) = -0.04275 0.09209
# Poissons Ratio (y) = -0.04275 0.09209
# Poissons Ratio (z) = 0.16522 0.16522
#
# Static dielectric constant tensor:
#      x y z
#    x 1.955310 0.000000 0.000000 
#    y 0.000000 1.955310 0.000000 
#    z 0.000000 0.000000 1.770280 
# 
# From -- ./inp_files/2503.got.cif
#   From: 2010.05.17/outbox.cif.g08.bks.cpg/sg118_2_cif.got.tgz:2503.got - 2010.05.20 11:17:24.
