data_PCOD9558733
_publ_section_title
;
Structure prediction by ZEFSAII (Michael W. Deem and Ramdas Pophale) SiO2 
 PCOD9558733
Probable space group: P -4 N 2
;
_chemical_formula_sum "Si O2"
_cell_formula_units_Z 26
_cell_length_a 11.424437
_cell_length_b 11.424437
_cell_length_c 7.658082
_cell_angle_alpha 90.000000
_cell_angle_beta 90.000000
_cell_angle_gamma 90.000000
_cell_volume 999.515714
_symmetry_space_group_name_H-M "P -4 N 2"
_symmetry_group_IT_number 118
_symmetry_cell_setting 'tetragonal'
loop_
_space_group_symop_operation_xyz
x,y,z
y,-x,-z
-x,-y,z
-y,x,-z
1/2+y,1/2+x,1/2-z
1/2-y,1/2-x,1/2-z
1/2-x,1/2+y,1/2+z
1/2+x,1/2-y,1/2+z
loop_
_atom_site_type_symbol
_atom_site_label
_atom_site_fract_x
_atom_site_fract_y
_atom_site_fract_z
Si Si1 0.739360 0.939590 0.079014
Si Si2 0.500000 0.000000 0.250000
Si Si3 0.167423 0.952727 0.726504
Si Si4 0.791825 0.185923 0.418934
O O1 0.845721 0.920065 0.217657
O O2 0.621152 0.994990 0.147160
O O3 0.701347 0.812613 0.008960
O O4 0.783505 0.013620 0.915172
O O5 0.248680 0.897967 0.575326
O O6 0.139136 0.080174 0.642948
O O7 0.714274 0.214274 0.250000
#
# Coordination Sequence:
#
# PCOD9558733 Si02
#       4
#     8   2   8   8
#     4  11  26  49  79 118 163 215 274 347 414 514
#     4  12  24  52  78 128 160 214 272 336 426 500
#     4  11  25  50  77 117 166 214 282 337 428 491
#     4  10  24  48  77 116 158 215 276 341 415 502
#
# _framework density 26.012599000000002
#
# number of rings (size 3 to 8) (size 9 to 14) (size 15 to 20)
#    0.000    1.231    3.077    0.000    0.000   13.538 
#   11.077    5.385    0.000    0.000    0.000    0.000 
#    0.000    0.000    0.000    0.000    0.000    0.000 
#
# Total GULP energy -145423.387018 kJ/mol
# GULP energy per Si atom -5593.207193 kJ/mol
# Density = 2.595339 g / cm^3
# Si number density = 26.012599 Si / 1000 Ang^3
#
#
#
# Elastic Constant Matrix: (Units=GPa)
#
#
# Indices 1 2 3 4 5 6 
#
# 1 79.7992 143.2560 64.4763 0.0000 0.0000 0.0000
# 2 143.2560 79.7992 64.4763 0.0000 0.0000 0.0000
# 3 64.4763 64.4763 143.1733 0.0000 0.0000 0.0000
# 4 0.0000 0.0000 0.0000 49.2303 0.0000 0.0000
# 5 0.0000 0.0000 0.0000 0.0000 49.2303 0.0000
# 6 0.0000 0.0000 0.0000 0.0000 0.0000 39.0915
#
#
#
# Elastic Compliance Matrix: (Units=1/GPa)
#
#
# Indices 1 2 3 4 5 6 
#
# 1 -0.004849 0.010910 -0.002730 0.000000 0.000000 0.000000
# 2 0.010910 -0.004849 -0.002730 0.000000 0.000000 0.000000
# 3 -0.002730 -0.002730 0.009443 0.000000 0.000000 0.000000
# 4 0.000000 0.000000 0.000000 0.020313 0.000000 0.000000
# 5 0.000000 0.000000 0.000000 0.000000 0.020313 0.000000
# 6 0.000000 0.000000 0.000000 0.000000 0.000000 0.025581
#
#
# Mechanical properties :
#
#
# Convention : Reuss Voigt Hill
#
# Bulk Modulus (GPa) = 93.92239 94.13210 94.02725
# Shear Modulus (GPa) = 85.32520 29.54796 57.43658
#
# Velocity S-wave (km/s) = 5.73347 3.37398 4.70406
# Velocity P-wave (km/s) = 8.94512 7.17245 8.10738
#
# Compressibility (1/GPa) = 0.01064709
#
# Stress axis : x y z
#
# Youngs Moduli (GPa) = -206.23802 -206.23802 105.89824
#
# Poissons Ratio (x) = 2.25006 0.28906
# Poissons Ratio (y) = 2.25006 0.28906
# Poissons Ratio (z) = -0.56295 -0.56295
#
# Static dielectric constant tensor:
#      x y z
#    x 2.097890 0.000000 0.000000 
#    y 0.000000 2.097890 0.000000 
#    z 0.000000 0.000000 2.001610 
# 
# From -- ./inp_files/1419.got.cif
#   From: 2010.05.17/outbox.cif.g08.bks.cpg/sg118_1_cif.got.tgz:1419.got - 2010.05.20 11:17:24.
