data_PCOD9558993
_publ_section_title
;
Structure prediction by ZEFSAII (Michael W. Deem and Ramdas Pophale) SiO2 
 PCOD9558993
Probable space group: I -4 M 2
;
_chemical_formula_sum "Si O2"
_cell_formula_units_Z 112
_cell_length_a 18.037496
_cell_length_b 18.037496
_cell_length_c 20.093359
_cell_angle_alpha 90.000000
_cell_angle_beta 90.000000
_cell_angle_gamma 90.000000
_cell_volume 6537.399707
_symmetry_space_group_name_H-M "I -4 M 2"
_symmetry_group_IT_number 119
_symmetry_cell_setting 'tetragonal'
loop_
_space_group_symop_operation_xyz
x,y,z
y,-x,-z
-x,-y,z
-y,x,-z
y,x,-z
-y,-x,-z
-x,y,z
x,-y,z
1/2+x,1/2+y,1/2+z
1/2+y,1/2-x,1/2-z
1/2-x,1/2-y,1/2+z
1/2-y,1/2+x,1/2-z
1/2+y,1/2+x,1/2-z
1/2-y,1/2-x,1/2-z
1/2-x,1/2+y,1/2+z
1/2+x,1/2-y,1/2+z
loop_
_atom_site_type_symbol
_atom_site_label
_atom_site_fract_x
_atom_site_fract_y
_atom_site_fract_z
Si Si1 0.083434 0.587938 0.930805
Si Si2 0.083877 0.914995 0.081051
Si Si3 0.414362 0.179638 0.804141
Si Si4 0.587473 0.145454 0.577423
Si Si5 0.287841 0.712598 0.186013
Si Si6 0.214277 0.813902 0.922220
Si Si7 0.683076 0.087899 0.302786
O O1 0.081453 0.500000 0.943223
O O2 0.141923 0.600580 0.873064
O O3 0.000000 0.610886 0.909842
O O4 0.100950 0.625831 0.000534
O O5 0.151430 0.863098 0.102651
O O6 0.000000 0.890683 0.099935
O O7 0.093271 0.000000 0.102120
O O8 0.085880 0.914121 0.000000
O O9 0.500000 0.187912 0.785549
O O10 0.369147 0.130854 0.750000
O O11 0.405852 0.133964 0.872799
O O12 0.371379 0.257789 0.813544
O O13 0.500000 0.139427 0.590425
O O14 0.618838 0.227774 0.586693
O O15 0.248869 0.748869 0.250000
O O16 0.252452 0.753557 0.121857
O O17 0.373060 0.736561 0.192687
O O18 0.207080 0.792921 0.000000
O O19 0.632168 0.132168 0.250000
O O20 0.685367 0.000000 0.289159
#
# Coordination Sequence:
#
# PCOD9558993 Si02
#       7
#    16  16  16  16  16  16  16
#     4   9  17  28  43  68 101 129 154 192 241 286
#     4   8  14  25  41  63  93 127 161 195 227 262
#     4  10  20  34  53  74  97 127 161 193 229 280
#     4  10  19  29  44  69  99 127 156 196 244 286
#     4   9  20  36  49  69  97 124 153 192 240 281
#     4  10  18  29  46  66  91 125 166 202 233 280
#     4  10  19  33  53  73  95 126 163 198 235 285
#
# _framework density 17.132193999999998
#
# number of rings (size 3 to 8) (size 9 to 14) (size 15 to 20)
#    0.000    2.571    0.000    3.000    0.000    2.857 
#    0.000    4.286    0.000    0.429    0.000    0.000 
#    0.000    0.000    0.000    6.857    0.000    0.000 
#
# Total GULP energy -312012.646744 kJ/mol
# GULP energy per Si atom -5571.654406 kJ/mol
# Density = 1.709320 g / cm^3
# Si number density = 17.132194 Si / 1000 Ang^3
#
#
#
# Elastic Constant Matrix: (Units=GPa)
#
#
# Indices 1 2 3 4 5 6 
#
# 1 76.5087 57.7314 19.1931 0.0000 0.0000 0.0000
# 2 57.7314 76.5094 19.1934 0.0000 0.0000 0.0000
# 3 19.1931 19.1934 33.7867 0.0000 0.0000 0.0000
# 4 0.0000 0.0000 0.0000 15.1189 0.0000 0.0000
# 5 0.0000 0.0000 0.0000 0.0000 15.1193 0.0000
# 6 0.0000 0.0000 0.0000 0.0000 0.0000 17.9613
#
#
#
# Elastic Compliance Matrix: (Units=1/GPa)
#
#
# Indices 1 2 3 4 5 6 
#
# 1 0.031075 -0.022180 -0.005052 0.000000 0.000000 0.000000
# 2 -0.022180 0.031074 -0.005053 0.000000 0.000000 0.000000
# 3 -0.005052 -0.005053 0.035338 0.000000 0.000000 0.000000
# 4 0.000000 0.000000 0.000000 0.066142 0.000000 0.000000
# 5 0.000000 0.000000 0.000000 0.000000 0.066141 0.000000
# 6 0.000000 0.000000 0.000000 0.000000 0.000000 0.055675
#
#
# Mechanical properties :
#
#
# Convention : Reuss Voigt Hill
#
# Bulk Modulus (GPa) = 30.38027 42.11560 36.24793
# Shear Modulus (GPa) = 13.85088 15.68569 14.76829
#
# Velocity S-wave (km/s) = 2.84645 3.02912 2.93920
# Velocity P-wave (km/s) = 5.34550 6.07208 5.72034
#
# Compressibility (1/GPa) = 0.03291610
#
# Stress axis : x y z
#
# Youngs Moduli (GPa) = 32.18067 32.18083 28.29830
#
# Poissons Ratio (x) = 0.71378 0.14297
# Poissons Ratio (y) = 0.71378 0.14298
# Poissons Ratio (z) = 0.16259 0.16260
#
# Static dielectric constant tensor:
#      x y z
#    x 1.595890 0.000000 0.000000 
#    y 0.000000 1.595890 0.000000 
#    z 0.000000 0.000000 1.583670 
# 
# From -- ./inp_files/8024.got.cif
#   From: 2010.05.17/outbox.cif.g08.bks.cpg/sg119_5_cif.got.tgz:8024.got - 2010.05.20 11:21:29.
