data_PCOD9558746
_publ_section_title
;
Structure prediction by ZEFSAII (Michael W. Deem and Ramdas Pophale) SiO2 
 PCOD9558746
Probable space group: P -4 N 2
;
_chemical_formula_sum "Si O2"
_cell_formula_units_Z 18
_cell_length_a 5.340913
_cell_length_b 5.340913
_cell_length_c 25.537649
_cell_angle_alpha 90.000000
_cell_angle_beta 90.000000
_cell_angle_gamma 90.000000
_cell_volume 728.470419
_symmetry_space_group_name_H-M "P -4 N 2"
_symmetry_group_IT_number 118
_symmetry_cell_setting 'tetragonal'
loop_
_space_group_symop_operation_xyz
x,y,z
y,-x,-z
-x,-y,z
-y,x,-z
1/2+y,1/2+x,1/2-z
1/2-y,1/2-x,1/2-z
1/2-x,1/2+y,1/2+z
1/2+x,1/2-y,1/2+z
loop_
_atom_site_type_symbol
_atom_site_label
_atom_site_fract_x
_atom_site_fract_y
_atom_site_fract_z
Si Si1 0.338299 0.252670 0.192746
Si Si2 0.243312 0.337138 0.077439
Si Si3 0.500000 0.500000 0.500000
O O1 0.500000 0.500000 0.187660
O O2 0.216170 0.283831 0.250000
O O3 0.199180 0.244418 0.137381
O O4 0.500000 0.000000 0.194558
O O5 0.500000 0.500000 0.072928
O O6 0.000000 0.500000 0.065345
O O7 0.216850 0.106675 0.037822
#
# Coordination Sequence:
#
# PCOD9558746 Si02
#       3
#     8   8   2
#     4  10  25  48  80 115 156 201 258 325 402 479
#     4  11  30  51  78 117 157 211 269 329 405 479
#     4  12  32  48  84 108 176 208 288 328 410 484
#
# _framework density 24.709312000000001
#
# number of rings (size 3 to 8) (size 9 to 14) (size 15 to 20)
#    0.000    1.333    0.000    0.000   21.778    8.000 
#    0.000    0.000    0.000    0.000    0.000    0.000 
#    0.000    0.000    0.000    0.000    0.000    0.000 
#
# Total GULP energy -100631.103852 kJ/mol
# GULP energy per Si atom -5590.616881 kJ/mol
# Density = 2.465307 g / cm^3
# Si number density = 24.709312 Si / 1000 Ang^3
#
#
#
# Elastic Constant Matrix: (Units=GPa)
#
#
# Indices 1 2 3 4 5 6 
#
# 1 124.6366 39.1379 42.7986 0.0000 0.0000 0.0000
# 2 39.1379 124.6365 42.7985 0.0000 0.0000 0.0000
# 3 42.7986 42.7985 262.0631 0.0000 0.0000 0.0000
# 4 0.0000 0.0000 0.0000 45.4911 0.0000 0.0000
# 5 0.0000 0.0000 0.0000 0.0000 45.4912 0.0000
# 6 0.0000 0.0000 0.0000 0.0000 0.0000 41.9351
#
#
#
# Elastic Compliance Matrix: (Units=1/GPa)
#
#
# Indices 1 2 3 4 5 6 
#
# 1 0.009186 -0.002510 -0.001090 0.000000 0.000000 0.000000
# 2 -0.002510 0.009186 -0.001090 0.000000 0.000000 0.000000
# 3 -0.001090 -0.001090 0.004172 0.000000 0.000000 0.000000
# 4 0.000000 0.000000 0.000000 0.021982 0.000000 0.000000
# 5 0.000000 0.000000 0.000000 0.000000 0.021982 0.000000
# 6 0.000000 0.000000 0.000000 0.000000 0.000000 0.023846
#
#
# Mechanical properties :
#
#
# Convention : Reuss Voigt Hill
#
# Bulk Modulus (GPa) = 75.97315 84.53404 80.25360
# Shear Modulus (GPa) = 48.01984 52.35690 50.18837
#
# Velocity S-wave (km/s) = 4.41317 4.60816 4.51172
# Velocity P-wave (km/s) = 7.53536 7.91197 7.72596
#
# Compressibility (1/GPa) = 0.01316254
#
# Stress axis : x y z
#
# Youngs Moduli (GPa) = 108.86214 108.86202 239.69436
#
# Poissons Ratio (x) = 0.27326 0.26133
# Poissons Ratio (y) = 0.27326 0.26133
# Poissons Ratio (z) = 0.11869 0.11869
#
# Static dielectric constant tensor:
#      x y z
#    x 1.966870 0.000000 0.000000 
#    y 0.000000 1.966860 0.000000 
#    z 0.000000 0.000000 2.092370 
# 
# From -- ./inp_files/5781.got.cif
#   From: 2010.05.17/outbox.cif.g08.bks.cpg/sg118_3_cif.got.tgz:5781.got - 2010.05.20 11:17:24.
