data_PCOD9558591
_publ_section_title
;
Structure prediction by ZEFSAII (Michael W. Deem and Ramdas Pophale) SiO2 
 PCOD9558591
Probable space group: P -4 N 2
;
_chemical_formula_sum "Si O2"
_cell_formula_units_Z 52
_cell_length_a 20.179310
_cell_length_b 20.179310
_cell_length_c 5.134298
_cell_angle_alpha 90.000000
_cell_angle_beta 90.000000
_cell_angle_gamma 90.000000
_cell_volume 2090.709517
_symmetry_space_group_name_H-M "P -4 N 2"
_symmetry_group_IT_number 118
_symmetry_cell_setting 'tetragonal'
loop_
_space_group_symop_operation_xyz
x,y,z
y,-x,-z
-x,-y,z
-y,x,-z
1/2+y,1/2+x,1/2-z
1/2-y,1/2-x,1/2-z
1/2-x,1/2+y,1/2+z
1/2+x,1/2-y,1/2+z
loop_
_atom_site_type_symbol
_atom_site_label
_atom_site_fract_x
_atom_site_fract_y
_atom_site_fract_z
Si Si1 0.257618 0.656825 0.156818
Si Si2 0.134835 0.121432 0.039731
Si Si3 0.643314 0.941891 0.556781
Si Si4 0.875907 0.778145 0.387223
Si Si5 0.014472 0.168046 0.739032
Si Si6 0.987076 0.681973 0.946902
Si Si7 0.346812 0.846812 0.250000
O O1 0.224939 0.724939 0.250000
O O2 0.296231 0.617834 0.381492
O O3 0.196921 0.616778 0.037512
O O4 0.315531 0.672819 0.960561
O O5 0.129360 0.203317 0.085483
O O6 0.136837 0.058856 0.237510
O O7 0.066559 0.117941 0.876072
O O8 0.585206 0.914795 0.750000
O O9 0.638812 0.970075 0.264422
O O10 0.675464 0.995425 0.750416
O O11 0.945315 0.811252 0.476236
O O12 0.856570 0.712321 0.538510
O O13 0.006285 0.242002 0.860062
O O14 0.913280 0.656607 0.915384
#
# Coordination Sequence:
#
# PCOD9558591 Si02
#       7
#     8   8   8   8   8   8   4
#     4  10  21  39  62 102 132 171 228 296 353 421
#     4  11  23  42  67  93 140 181 238 289 362 428
#     4  11  24  44  74 102 141 186 238 286 366 426
#     4  10  22  42  64  98 135 177 239 294 362 429
#     4  10  24  41  64  99 134 190 230 292 355 429
#     4  11  24  46  68 103 143 187 232 296 358 433
#     4  10  24  44  65 102 136 190 238 293 368 428
#
# _framework density 24.871939999999999
#
# number of rings (size 3 to 8) (size 9 to 14) (size 15 to 20)
#    0.000    1.538    2.308    1.385    4.308    4.000 
#    5.538    2.308    0.000    0.000    0.000    0.000 
#    0.000    0.000    0.000    0.000    0.000    0.000 
#
# Total GULP energy -289666.887620 kJ/mol
# GULP energy per Si atom -5570.517070 kJ/mol
# Density = 2.481533 g / cm^3
# Si number density = 24.871940 Si / 1000 Ang^3
#
#
#
# Elastic Constant Matrix: (Units=GPa)
#
#
# Indices 1 2 3 4 5 6 
#
# 1 90.5501 34.9147 14.4760 0.0000 0.0000 0.0000
# 2 34.9147 90.5486 14.4760 0.0000 0.0000 0.0000
# 3 14.4760 14.4760 52.6812 0.0000 0.0000 0.0000
# 4 0.0000 0.0000 0.0000 -91.4497 0.0000 0.0000
# 5 0.0000 0.0000 0.0000 0.0000 -91.4368 0.0000
# 6 0.0000 0.0000 0.0000 0.0000 0.0000 25.9384
#
#
#
# Elastic Compliance Matrix: (Units=1/GPa)
#
#
# Indices 1 2 3 4 5 6 
#
# 1 0.013242 -0.004732 -0.002338 0.000000 0.000000 0.000000
# 2 -0.004732 0.013242 -0.002338 0.000000 0.000000 0.000000
# 3 -0.002338 -0.002338 0.020267 0.000000 0.000000 0.000000
# 4 0.000000 0.000000 0.000000 -0.010935 0.000000 0.000000
# 5 0.000000 0.000000 0.000000 0.000000 -0.010937 0.000000
# 6 0.000000 0.000000 0.000000 0.000000 0.000000 0.038553
#
#
# Mechanical properties :
#
#
# Convention : Reuss Voigt Hill
#
# Bulk Modulus (GPa) = 35.79922 40.16814 37.98368
# Shear Modulus (GPa) = 54.60759 -20.06208 17.27275
#
# Velocity S-wave (km/s) = 4.69075 -2.84318 2.63813
# Velocity P-wave (km/s) = 6.61530 2.32526 4.95828
#
# Compressibility (1/GPa) = 0.02793357
#
# Stress axis : x y z
#
# Youngs Moduli (GPa) = 75.51670 75.51547 49.34076
#
# Poissons Ratio (x) = 0.35735 0.11538
# Poissons Ratio (y) = 0.35736 0.11538
# Poissons Ratio (z) = 0.17659 0.17659
#
# Static dielectric constant tensor:
#      x y z
#    x 2.066700 0.000000 0.000000 
#    y 0.000000 2.066700 0.000000 
#    z 0.000000 0.000000 4.479510 
# 
# From -- ./inp_files/892.got.cif
#   From: 2010.05.17/outbox.cif.g08.bks.cpg/sg118_1_cif.got.tgz:892.got - 2010.05.20 11:17:24.
