data_PCOD9558772
_publ_section_title
;
Structure prediction by ZEFSAII (Michael W. Deem and Ramdas Pophale) SiO2 
 PCOD9558772
Probable space group: P -4 N 2
;
_chemical_formula_sum "Si O2"
_cell_formula_units_Z 40
_cell_length_a 14.038299
_cell_length_b 14.038299
_cell_length_c 8.202793
_cell_angle_alpha 90.000000
_cell_angle_beta 90.000000
_cell_angle_gamma 90.000000
_cell_volume 1616.555906
_symmetry_space_group_name_H-M "P -4 N 2"
_symmetry_group_IT_number 118
_symmetry_cell_setting 'tetragonal'
loop_
_space_group_symop_operation_xyz
x,y,z
y,-x,-z
-x,-y,z
-y,x,-z
1/2+y,1/2+x,1/2-z
1/2-y,1/2-x,1/2-z
1/2-x,1/2+y,1/2+z
1/2+x,1/2-y,1/2+z
loop_
_atom_site_type_symbol
_atom_site_label
_atom_site_fract_x
_atom_site_fract_y
_atom_site_fract_z
Si Si1 0.267684 0.076447 0.291064
Si Si2 0.053841 0.404797 0.556816
Si Si3 0.114314 0.891563 0.502102
Si Si4 0.285201 0.634792 0.312319
Si Si5 0.757844 0.062373 0.981698
O O1 0.351080 0.148921 0.250000
O O2 0.175576 0.134723 0.346213
O O3 0.314790 0.015192 0.438419
O O4 0.245713 0.006587 0.142379
O O5 0.078393 0.421608 0.750000
O O6 0.151897 0.395952 0.462359
O O7 0.000000 0.500000 0.501647
O O8 0.160985 0.852549 0.340019
O O9 0.001859 0.875939 0.475326
O O10 0.187376 0.687376 0.250000
O O11 0.346503 0.677376 0.466134
O O12 0.277304 0.521062 0.348009
#
# Coordination Sequence:
#
# PCOD9558772 Si02
#       5
#     8   8   8   8   8
#     4  11  19  40  71  99 130 183 237 288 352 428
#     4   9  16  34  64  98 125 169 228 280 345 418
#     4  11  26  45  66  95 142 183 231 289 354 430
#     4  12  27  47  70 106 145 182 243 305 355 437
#     4  11  24  41  72 100 139 185 235 295 365 432
#
# _framework density 24.743963999999998
#
# number of rings (size 3 to 8) (size 9 to 14) (size 15 to 20)
#    0.000    1.200    6.000    3.000    2.800    0.400 
#    0.000    1.000    0.000    0.000    0.000    0.000 
#    0.000    0.000    0.000    0.000    0.000    0.000 
#
# Total GULP energy -223274.977331 kJ/mol
# GULP energy per Si atom -5581.874433 kJ/mol
# Density = 2.468765 g / cm^3
# Si number density = 24.743964 Si / 1000 Ang^3
#
#
#
# Elastic Constant Matrix: (Units=GPa)
#
#
# Indices 1 2 3 4 5 6 
#
# 1 101.3115 11.3045 1.6210 0.0000 0.0000 0.0000
# 2 11.3045 101.3129 1.6215 0.0000 0.0000 0.0000
# 3 1.6210 1.6215 67.3745 0.0000 0.0000 0.0000
# 4 0.0000 0.0000 0.0000 24.8575 0.0000 0.0000
# 5 0.0000 0.0000 0.0000 0.0000 24.8597 0.0000
# 6 0.0000 0.0000 0.0000 0.0000 0.0000 0.6881
#
#
#
# Elastic Compliance Matrix: (Units=1/GPa)
#
#
# Indices 1 2 3 4 5 6 
#
# 1 0.009998 -0.001112 -0.000214 0.000000 0.000000 0.000000
# 2 -0.001112 0.009998 -0.000214 0.000000 0.000000 0.000000
# 3 -0.000214 -0.000214 0.014853 0.000000 0.000000 0.000000
# 4 0.000000 0.000000 0.000000 0.040229 0.000000 0.000000
# 5 0.000000 0.000000 0.000000 0.000000 0.040226 0.000000
# 6 0.000000 0.000000 0.000000 0.000000 0.000000 1.453379
#
#
# Mechanical properties :
#
#
# Convention : Reuss Voigt Hill
#
# Bulk Modulus (GPa) = 31.47715 33.23255 32.35485
# Shear Modulus (GPa) = 3.15985 27.11119 15.13552
#
# Velocity S-wave (km/s) = 1.13128 3.31368 2.47591
# Velocity P-wave (km/s) = 3.80199 5.30098 4.61278
#
# Compressibility (1/GPa) = 0.03176907
#
# Stress axis : x y z
#
# Youngs Moduli (GPa) = 100.01936 100.02074 67.32783
#
# Poissons Ratio (x) = 0.11124 0.01439
# Poissons Ratio (y) = 0.11124 0.01440
# Poissons Ratio (z) = 0.02138 0.02139
#
# Static dielectric constant tensor:
#      x y z
#    x 1.971410 0.000000 0.000000 
#    y 0.000000 1.971410 0.000000 
#    z 0.000000 0.000000 1.982660 
# 
# From -- ./inp_files/1913.got.cif
#   From: 2010.05.17/outbox.cif.g08.bks.cpg/sg118_1_cif.got.tgz:1913.got - 2010.05.20 11:17:24.
