data_PCOD9558669
_publ_section_title
;
Structure prediction by ZEFSAII (Michael W. Deem and Ramdas Pophale) SiO2 
 PCOD9558669
Probable space group: P -4 N 2
;
_chemical_formula_sum "Si O2"
_cell_formula_units_Z 28
_cell_length_a 14.105775
_cell_length_b 14.105775
_cell_length_c 7.408492
_cell_angle_alpha 90.000000
_cell_angle_beta 90.000000
_cell_angle_gamma 90.000000
_cell_volume 1474.089052
_symmetry_space_group_name_H-M "P -4 N 2"
_symmetry_group_IT_number 118
_symmetry_cell_setting 'tetragonal'
loop_
_space_group_symop_operation_xyz
x,y,z
y,-x,-z
-x,-y,z
-y,x,-z
1/2+y,1/2+x,1/2-z
1/2-y,1/2-x,1/2-z
1/2-x,1/2+y,1/2+z
1/2+x,1/2-y,1/2+z
loop_
_atom_site_type_symbol
_atom_site_label
_atom_site_fract_x
_atom_site_fract_y
_atom_site_fract_z
Si Si1 0.799302 0.452839 0.242169
Si Si2 0.359605 0.254054 0.128365
Si Si3 0.357553 0.563760 0.533104
Si Si4 0.324140 0.824140 0.750000
O O1 0.899659 0.399659 0.250000
O O2 0.727907 0.415508 0.395556
O O3 0.808415 0.564745 0.273223
O O4 0.759343 0.422330 0.046849
O O5 0.340498 0.159503 0.250000
O O6 0.406300 0.328019 0.266375
O O7 0.251148 0.290681 0.095386
O O8 0.452545 0.618329 0.476508
#
# Coordination Sequence:
#
# PCOD9558669 Si02
#       4
#     8   8   8   4
#     4  12  23  42  69  93 136 178 212 283 339 391
#     4  10  22  42  63  94 130 170 220 269 329 404
#     4  11  23  40  65  97 130 168 223 278 333 400
#     4  10  23  44  64  98 135 166 228 274 328 411
#
# _framework density 18.994782000000001
#
# number of rings (size 3 to 8) (size 9 to 14) (size 15 to 20)
#    0.857    0.286    5.714    0.429    4.000    0.000 
#    0.000    4.286    0.000    0.000    0.000    0.000 
#    0.000    0.000    0.000    0.000    0.000    0.000 
#
# Total GULP energy -155994.787982 kJ/mol
# GULP energy per Si atom -5571.242428 kJ/mol
# Density = 1.895155 g / cm^3
# Si number density = 18.994782 Si / 1000 Ang^3
#
#
#
# Elastic Constant Matrix: (Units=GPa)
#
#
# Indices 1 2 3 4 5 6 
#
# 1 101.3513 43.7502 48.3135 0.0000 0.0000 0.0000
# 2 43.7502 101.3519 48.3135 0.0000 0.0000 0.0000
# 3 48.3135 48.3135 101.4980 0.0000 0.0000 0.0000
# 4 0.0000 0.0000 0.0000 15.2097 0.0000 0.0000
# 5 0.0000 0.0000 0.0000 0.0000 15.2091 0.0000
# 6 0.0000 0.0000 0.0000 0.0000 0.0000 30.4338
#
#
#
# Elastic Compliance Matrix: (Units=1/GPa)
#
#
# Indices 1 2 3 4 5 6 
#
# 1 0.013725 -0.003635 -0.004803 0.000000 0.000000 0.000000
# 2 -0.003635 0.013725 -0.004803 0.000000 0.000000 0.000000
# 3 -0.004803 -0.004803 0.014425 0.000000 0.000000 0.000000
# 4 0.000000 0.000000 0.000000 0.065748 0.000000 0.000000
# 5 0.000000 0.000000 0.000000 0.000000 0.065750 0.000000
# 6 0.000000 0.000000 0.000000 0.000000 0.000000 0.032858
#
#
# Mechanical properties :
#
#
# Convention : Reuss Voigt Hill
#
# Bulk Modulus (GPa) = 64.96325 64.99508 64.97916
# Shear Modulus (GPa) = 21.02209 23.09212 22.05710
#
# Velocity S-wave (km/s) = 3.33036 3.49048 3.41136
# Velocity P-wave (km/s) = 7.00452 7.10889 7.05689
#
# Compressibility (1/GPa) = 0.01539332
#
# Stress axis : x y z
#
# Youngs Moduli (GPa) = 72.85734 72.85786 69.32478
#
# Poissons Ratio (x) = 0.26486 0.33296
# Poissons Ratio (y) = 0.26486 0.33296
# Poissons Ratio (z) = 0.34993 0.34993
#
# Static dielectric constant tensor:
#      x y z
#    x 1.686540 0.000000 0.000000 
#    y 0.000000 1.686540 0.000000 
#    z 0.000000 0.000000 1.645190 
# 
# From -- ./inp_files/1500.got.cif
#   From: 2010.05.17/outbox.cif.g08.bks.cpg/sg118_1_cif.got.tgz:1500.got - 2010.05.20 11:17:24.
