data_PCOD9558389
_publ_section_title
;
Structure prediction by ZEFSAII (Michael W. Deem and Ramdas Pophale) SiO2 
 PCOD9558389
Probable space group: P -4 N 2
;
_chemical_formula_sum "Si O2"
_cell_formula_units_Z 48
_cell_length_a 8.234483
_cell_length_b 8.234483
_cell_length_c 32.578290
_cell_angle_alpha 90.000000
_cell_angle_beta 90.000000
_cell_angle_gamma 90.000000
_cell_volume 2209.026671
_symmetry_space_group_name_H-M "P -4 N 2"
_symmetry_group_IT_number 118
_symmetry_cell_setting 'tetragonal'
loop_
_space_group_symop_operation_xyz
x,y,z
y,-x,-z
-x,-y,z
-y,x,-z
1/2+y,1/2+x,1/2-z
1/2-y,1/2-x,1/2-z
1/2-x,1/2+y,1/2+z
1/2+x,1/2-y,1/2+z
loop_
_atom_site_type_symbol
_atom_site_label
_atom_site_fract_x
_atom_site_fract_y
_atom_site_fract_z
Si Si1 0.803214 0.314334 0.702648
Si Si2 0.178860 0.344504 0.674384
Si Si3 0.082430 0.163789 0.434312
Si Si4 0.916973 0.656613 0.581638
Si Si5 0.300908 0.499315 0.153634
Si Si6 0.150945 0.226760 0.996553
O O1 0.775932 0.275932 0.750000
O O2 0.739122 0.495771 0.693022
O O3 0.742513 0.166753 0.674305
O O4 0.998306 0.328115 0.694019
O O5 0.157449 0.379233 0.625758
O O6 0.255036 0.164790 0.675899
O O7 0.990251 0.238168 0.395080
O O8 0.151282 0.281891 0.468693
O O9 0.230908 0.072597 0.411504
O O10 0.000000 0.000000 0.452273
O O11 0.790000 0.712181 0.547469
O O12 0.000000 0.500000 0.562354
O O13 0.500000 0.500000 0.156150
O O14 0.955776 0.214771 0.996540
#
# Coordination Sequence:
#
# PCOD9558389 Si02
#       6
#     8   8   8   8   8   8
#     4  10  18  30  55  91 120 159 203 257 319 379
#     4  10  17  32  56  88 119 157 205 262 311 375
#     4  11  21  38  61  87 113 153 215 261 309 369
#     4  12  20  36  61  87 116 160 211 258 314 367
#     4   9  17  33  55  87 121 154 201 263 308 378
#     4  11  27  42  57  86 130 169 205 264 328 388
#
# _framework density 21.729026999999999
#
# number of rings (size 3 to 8) (size 9 to 14) (size 15 to 20)
#    0.000    1.500    8.333    1.000    2.333    0.000 
#    0.000    0.000    0.000    8.000    0.000    0.000 
#    0.000    0.000    0.000    0.000    0.000    0.000 
#
# Total GULP energy -267612.047171 kJ/mol
# GULP energy per Si atom -5575.250983 kJ/mol
# Density = 2.167957 g / cm^3
# Si number density = 21.729027 Si / 1000 Ang^3
#
#
#
# Elastic Constant Matrix: (Units=GPa)
#
#
# Indices 1 2 3 4 5 6 
#
# 1 76.3939 8.8820 18.6921 0.0000 0.0000 0.0000
# 2 8.8820 76.3939 18.6921 0.0000 0.0000 0.0000
# 3 18.6921 18.6921 125.5813 0.0000 0.0000 0.0000
# 4 0.0000 0.0000 0.0000 -8.9933 0.0000 0.0000
# 5 0.0000 0.0000 0.0000 0.0000 -8.9933 0.0000
# 6 0.0000 0.0000 0.0000 0.0000 0.0000 15.3697
#
#
#
# Elastic Compliance Matrix: (Units=1/GPa)
#
#
# Indices 1 2 3 4 5 6 
#
# 1 0.013679 -0.001133 -0.001867 0.000000 0.000000 0.000000
# 2 -0.001133 0.013679 -0.001867 0.000000 0.000000 0.000000
# 3 -0.001867 -0.001867 0.008519 0.000000 0.000000 0.000000
# 4 0.000000 0.000000 0.000000 -0.111193 0.000000 0.000000
# 5 0.000000 0.000000 0.000000 0.000000 -0.111193 0.000000
# 6 0.000000 0.000000 0.000000 0.000000 0.000000 0.065063
#
#
# Mechanical properties :
#
#
# Convention : Reuss Voigt Hill
#
# Bulk Modulus (GPa) = 38.25530 41.21127 39.73328
# Shear Modulus (GPa) = -48.54459 14.95014 -16.79722
#
# Velocity S-wave (km/s) = -4.73174 2.62587 -2.78336
# Velocity P-wave (km/s) = 3.49409 5.31044 2.82773
#
# Compressibility (1/GPa) = 0.02614017
#
# Stress axis : x y z
#
# Youngs Moduli (GPa) = 73.10625 73.10625 117.38684
#
# Poissons Ratio (x) = 0.08286 0.21920
# Poissons Ratio (y) = 0.08286 0.21920
# Poissons Ratio (z) = 0.13651 0.13651
#
# Static dielectric constant tensor:
#      x y z
#    x 1.910480 0.000000 0.000000 
#    y 0.000000 1.910480 0.000000 
#    z 0.000000 0.000000 1.758130 
# 
# From -- ./inp_files/6849.got.cif
#   From: 2010.05.17/outbox.cif.g08.bks.cpg/sg118_4_cif.got.tgz:6849.got - 2010.05.20 11:17:24.
