data_PCOD9558279
_publ_section_title
;
Structure prediction by ZEFSAII (Michael W. Deem and Ramdas Pophale) SiO2 
 PCOD9558279
Probable space group: P -4 B 2
;
_chemical_formula_sum "Si O2"
_cell_formula_units_Z 56
_cell_length_a 14.892520
_cell_length_b 14.892520
_cell_length_c 11.519166
_cell_angle_alpha 90.000000
_cell_angle_beta 90.000000
_cell_angle_gamma 90.000000
_cell_volume 2554.803020
_symmetry_space_group_name_H-M "P -4 B 2"
_symmetry_group_IT_number 117
_symmetry_cell_setting 'tetragonal'
loop_
_space_group_symop_operation_xyz
x,y,z
y,-x,-z
-x,-y,z
-y,x,-z
1/2+y,1/2+x,-z
1/2-y,1/2-x,-z
1/2-x,1/2+y,z
1/2+x,1/2-y,z
loop_
_atom_site_type_symbol
_atom_site_label
_atom_site_fract_x
_atom_site_fract_y
_atom_site_fract_z
Si Si1 0.746066 0.599995 0.753770
Si Si2 0.234900 0.845694 0.342092
Si Si3 0.675614 0.344345 0.031548
Si Si4 0.530528 0.905363 0.874067
Si Si5 0.874750 0.075697 0.539013
Si Si6 0.783432 0.389052 0.800237
Si Si7 0.030105 0.218613 0.865955
O O1 0.816377 0.662616 0.683038
O O2 0.732261 0.657687 0.872339
O O3 0.657098 0.587072 0.672607
O O4 0.771785 0.497020 0.786900
O O5 0.203829 0.874092 0.468414
O O6 0.168685 0.767566 0.295710
O O7 0.208953 0.930040 0.260765
O O8 0.690329 0.429790 0.111094
O O9 0.747362 0.354866 0.926200
O O10 0.586098 0.340211 0.955695
O O11 0.611381 0.869360 0.796845
O O12 0.461251 0.825323 0.892082
O O13 0.500000 0.000000 0.823490
O O14 0.569333 0.930667 0.000000
O O15 0.970982 0.117464 0.500660
#
# Coordination Sequence:
#
# PCOD9558279 Si02
#       7
#     8   8   8   8   8   8   8
#     4  12  23  43  69  94 134 181 223 286 351 415
#     4  11  25  42  68  99 132 178 230 287 340 418
#     4  11  22  41  60  96 136 174 220 269 332 410
#     4  11  21  37  61  91 133 178 222 268 330 411
#     4  11  24  46  70  97 129 172 232 289 350 418
#     4  11  23  42  63  97 136 172 231 275 338 414
#     4  11  23  38  61  95 133 177 221 271 338 399
#
# _framework density 21.919498999999998
#
# number of rings (size 3 to 8) (size 9 to 14) (size 15 to 20)
#    0.000    0.857    4.286    3.000    0.000    3.143 
#    0.000    0.000    0.000    0.000    0.000    3.000 
#    0.000    0.000    0.000    0.000    0.000    0.000 
#
# Total GULP energy -312433.758055 kJ/mol
# GULP energy per Si atom -5579.174251 kJ/mol
# Density = 2.186961 g / cm^3
# Si number density = 21.919499 Si / 1000 Ang^3
#
#
#
# Elastic Constant Matrix: (Units=GPa)
#
#
# Indices 1 2 3 4 5 6 
#
# 1 71.1376 23.9511 9.8160 0.0000 0.0000 0.0000
# 2 23.9511 71.1384 9.8165 0.0000 0.0000 0.0000
# 3 9.8160 9.8165 87.8434 0.0000 0.0000 0.0000
# 4 0.0000 0.0000 0.0000 18.7793 0.0000 0.0000
# 5 0.0000 0.0000 0.0000 0.0000 18.7794 0.0000
# 6 0.0000 0.0000 0.0000 0.0000 0.0000 37.8578
#
#
#
# Elastic Compliance Matrix: (Units=1/GPa)
#
#
# Indices 1 2 3 4 5 6 
#
# 1 0.015979 -0.005214 -0.001203 0.000000 0.000000 0.000000
# 2 -0.005214 0.015978 -0.001203 0.000000 0.000000 0.000000
# 3 -0.001203 -0.001203 0.011653 0.000000 0.000000 0.000000
# 4 0.000000 0.000000 0.000000 0.053250 0.000000 0.000000
# 5 0.000000 0.000000 0.000000 0.000000 0.053250 0.000000
# 6 0.000000 0.000000 0.000000 0.000000 0.000000 0.026415
#
#
# Mechanical properties :
#
#
# Convention : Reuss Voigt Hill
#
# Bulk Modulus (GPa) = 35.24771 35.25405 35.25088
# Shear Modulus (GPa) = 24.84836 27.51903 26.18370
#
# Velocity S-wave (km/s) = 3.37058 3.54709 3.45996
# Velocity P-wave (km/s) = 5.59135 5.73534 5.66380
#
# Compressibility (1/GPa) = 0.02837064
#
# Stress axis : x y z
#
# Youngs Moduli (GPa) = 62.58353 62.58410 85.81672
#
# Poissons Ratio (x) = 0.32630 0.10323
# Poissons Ratio (y) = 0.32630 0.10324
# Poissons Ratio (z) = 0.07528 0.07529
#
# Static dielectric constant tensor:
#      x y z
#    x 1.846720 0.000000 0.000000 
#    y 0.000000 1.846720 0.000000 
#    z 0.000000 0.000000 1.796080 
# 
# From -- ./inp_files/2858.got.cif
#   From: 2010.05.17/outbox.cif.g08.bks.cpg/sg117_2_cif.got.tgz:2858.got - 2010.05.20 11:15:09.
