data_PCOD9558933
_publ_section_title
;
Structure prediction by ZEFSAII (Michael W. Deem and Ramdas Pophale) SiO2 
 PCOD9558933
Probable space group: P -4 N 2
;
_chemical_formula_sum "Si O2"
_cell_formula_units_Z 24
_cell_length_a 7.132578
_cell_length_b 7.132578
_cell_length_c 18.020480
_cell_angle_alpha 90.000000
_cell_angle_beta 90.000000
_cell_angle_gamma 90.000000
_cell_volume 916.767933
_symmetry_space_group_name_H-M "P -4 N 2"
_symmetry_group_IT_number 118
_symmetry_cell_setting 'tetragonal'
loop_
_space_group_symop_operation_xyz
x,y,z
y,-x,-z
-x,-y,z
-y,x,-z
1/2+y,1/2+x,1/2-z
1/2-y,1/2-x,1/2-z
1/2-x,1/2+y,1/2+z
1/2+x,1/2-y,1/2+z
loop_
_atom_site_type_symbol
_atom_site_label
_atom_site_fract_x
_atom_site_fract_y
_atom_site_fract_z
Si Si1 0.309527 0.444679 0.800343
Si Si2 0.722595 0.832915 0.923946
Si Si3 0.749630 0.830743 0.088810
O O1 0.500000 0.500000 0.758173
O O2 0.166006 0.333995 0.750000
O O3 0.373516 0.300009 0.864601
O O4 0.214634 0.617263 0.842616
O O5 0.946002 0.787293 0.916987
O O6 0.719447 0.054289 0.907746
O O7 0.660958 0.790883 0.007908
#
# Coordination Sequence:
#
# PCOD9558933 Si02
#       3
#     8   8   8
#     4  12  29  48  72 111 163 215 268 328 414 488
#     4   9  21  45  77 118 144 194 265 324 396 482
#     4   9  21  45  80 109 152 196 256 333 392 477
#
# _framework density 26.178923999999999
#
# number of rings (size 3 to 8) (size 9 to 14) (size 15 to 20)
#    0.000    2.000    0.000    3.000    9.333    4.000 
#    0.000    1.667    0.000    0.000    0.000    0.000 
#    0.000    0.000    0.000    0.000    0.000    0.000 
#
# Total GULP energy -134735.961425 kJ/mol
# GULP energy per Si atom -5613.998393 kJ/mol
# Density = 2.611934 g / cm^3
# Si number density = 26.178924 Si / 1000 Ang^3
#
#
#
# Elastic Constant Matrix: (Units=GPa)
#
#
# Indices 1 2 3 4 5 6 
#
# 1 119.9585 37.4078 40.0599 0.0000 0.0000 0.0000
# 2 37.4078 119.9589 40.0606 0.0000 0.0000 0.0000
# 3 40.0599 40.0606 113.2928 0.0000 0.0000 0.0000
# 4 0.0000 0.0000 0.0000 31.4064 0.0000 0.0000
# 5 0.0000 0.0000 0.0000 0.0000 31.4049 0.0000
# 6 0.0000 0.0000 0.0000 0.0000 0.0000 40.6049
#
#
#
# Elastic Compliance Matrix: (Units=1/GPa)
#
#
# Indices 1 2 3 4 5 6 
#
# 1 0.009932 -0.002182 -0.002740 0.000000 0.000000 0.000000
# 2 -0.002182 0.009932 -0.002740 0.000000 0.000000 0.000000
# 3 -0.002740 -0.002740 0.010765 0.000000 0.000000 0.000000
# 4 0.000000 0.000000 0.000000 0.031841 0.000000 0.000000
# 5 0.000000 0.000000 0.000000 0.000000 0.031842 0.000000
# 6 0.000000 0.000000 0.000000 0.000000 0.000000 0.024628
#
#
# Mechanical properties :
#
#
# Convention : Reuss Voigt Hill
#
# Bulk Modulus (GPa) = 65.34700 65.36300 65.35500
# Shear Modulus (GPa) = 35.87708 36.39536 36.13622
#
# Velocity S-wave (km/s) = 3.70598 3.73266 3.71934
# Velocity P-wave (km/s) = 6.58242 6.60295 6.59270
#
# Compressibility (1/GPa) = 0.01530292
#
# Stress axis : x y z
#
# Youngs Moduli (GPa) = 100.68714 100.68709 92.89673
#
# Poissons Ratio (x) = 0.21970 0.25456
# Poissons Ratio (y) = 0.21970 0.25457
# Poissons Ratio (z) = 0.27591 0.27592
#
# Static dielectric constant tensor:
#      x y z
#    x 2.063450 0.000000 0.000000 
#    y 0.000000 2.063450 0.000000 
#    z 0.000000 0.000000 2.018060 
# 
# From -- ./inp_files/4467.got.cif
#   From: 2010.05.17/outbox.cif.g08.bks.cpg/sg118_3_cif.got.tgz:4467.got - 2010.05.20 11:17:24.
