data_PCOD9558398
_publ_section_title
;
Structure prediction by ZEFSAII (Michael W. Deem and Ramdas Pophale) SiO2 
 PCOD9558398
Probable space group: P -4 N 2
;
_chemical_formula_sum "Si O2"
_cell_formula_units_Z 64
_cell_length_a 19.964140
_cell_length_b 19.964140
_cell_length_c 9.864113
_cell_angle_alpha 90.000000
_cell_angle_beta 90.000000
_cell_angle_gamma 90.000000
_cell_volume 3931.508801
_symmetry_space_group_name_H-M "P -4 N 2"
_symmetry_group_IT_number 118
_symmetry_cell_setting 'tetragonal'
loop_
_space_group_symop_operation_xyz
x,y,z
y,-x,-z
-x,-y,z
-y,x,-z
1/2+y,1/2+x,1/2-z
1/2-y,1/2-x,1/2-z
1/2-x,1/2+y,1/2+z
1/2+x,1/2-y,1/2+z
loop_
_atom_site_type_symbol
_atom_site_label
_atom_site_fract_x
_atom_site_fract_y
_atom_site_fract_z
Si Si1 0.672949 0.184866 0.596091
Si Si2 0.174946 0.825052 0.500001
Si Si3 0.663400 0.336601 0.499999
Si Si4 0.421969 0.844056 0.353329
Si Si5 0.194304 0.920738 0.250596
Si Si6 0.078030 0.655943 0.853328
Si Si7 0.172949 0.684864 0.096091
Si Si8 0.420739 0.305695 0.249405
O O1 0.662578 0.162578 0.750000
O O2 0.749822 0.169726 0.558559
O O3 0.662468 0.265033 0.577709
O O4 0.623425 0.152544 0.486885
O O5 0.169368 0.878600 0.379266
O O6 0.169721 0.749821 0.441441
O O7 0.121400 0.830632 0.620737
O O8 0.606192 0.339544 0.387056
O O9 0.734969 0.337529 0.422291
O O10 0.660459 0.393810 0.612940
O O11 0.402067 0.902067 0.250000
O O12 0.406271 0.773473 0.276999
O O13 0.500000 0.843658 0.387531
O O14 0.186039 1.000000 0.268972
O O15 0.097931 0.597931 0.750000
O O16 0.093728 0.726525 0.776996
O O17 0.123424 0.652544 0.986884
O O18 0.162577 0.662577 0.250000
#
# Coordination Sequence:
#
# PCOD9558398 Si02
#       8
#     8   8   8   8   8   8   8   8
#     4  10  18  30  54  83 105 139 186 225 269 318
#     4  11  18  32  56  81 108 142 180 229 276 316
#     4   9  18  30  52  79 106 142 176 221 274 324
#     4  10  20  35  53  80 115 148 181 219 264 321
#     4  10  20  34  54  83 111 137 181 230 272 322
#     4  10  20  35  53  80 115 148 181 219 264 321
#     4  10  18  30  54  83 105 139 186 225 269 318
#     4  10  20  34  54  83 111 137 181 230 272 322
#
# _framework density 16.278738000000001
#
# number of rings (size 3 to 8) (size 9 to 14) (size 15 to 20)
#    0.000    2.000    5.000    0.000    0.000    0.250 
#    0.000    3.750    0.000    2.250    0.000    0.000 
#    0.000    0.000    0.000    0.000    0.000    0.000 
#
# Total GULP energy -356875.319256 kJ/mol
# GULP energy per Si atom -5576.176863 kJ/mol
# Density = 1.624169 g / cm^3
# Si number density = 16.278738 Si / 1000 Ang^3
#
#
#
# Elastic Constant Matrix: (Units=GPa)
#
#
# Indices 1 2 3 4 5 6 
#
# 1 63.2367 24.6649 56.3071 0.0000 0.0000 0.0000
# 2 24.6649 63.2367 56.3071 0.0000 0.0000 0.0000
# 3 56.3071 56.3071 149.4140 0.0000 0.0000 0.0000
# 4 0.0000 0.0000 0.0000 24.9286 0.0000 0.0000
# 5 0.0000 0.0000 0.0000 0.0000 24.9286 0.0000
# 6 0.0000 0.0000 0.0000 0.0000 0.0000 14.0195
#
#
#
# Elastic Compliance Matrix: (Units=1/GPa)
#
#
# Indices 1 2 3 4 5 6 
#
# 1 0.023961 -0.001965 -0.008289 0.000000 0.000000 0.000000
# 2 -0.001965 0.023961 -0.008289 0.000000 0.000000 0.000000
# 3 -0.008289 -0.008289 0.012941 0.000000 0.000000 0.000000
# 4 0.000000 0.000000 0.000000 0.040115 0.000000 0.000000
# 5 0.000000 0.000000 0.000000 0.000000 0.040115 0.000000
# 6 0.000000 0.000000 0.000000 0.000000 0.000000 0.071329
#
#
# Mechanical properties :
#
#
# Convention : Reuss Voigt Hill
#
# Bulk Modulus (GPa) = 42.06008 61.16063 51.61036
# Shear Modulus (GPa) = 19.42255 22.01587 20.71921
#
# Velocity S-wave (km/s) = 3.45791 3.68153 3.57147
# Velocity P-wave (km/s) = 6.46810 7.46485 6.98428
#
# Compressibility (1/GPa) = 0.02377551
#
# Stress axis : x y z
#
# Youngs Moduli (GPa) = 41.73466 41.73466 77.27671
#
# Poissons Ratio (x) = 0.08200 0.64057
# Poissons Ratio (y) = 0.08200 0.64057
# Poissons Ratio (z) = 0.34595 0.34595
#
# Static dielectric constant tensor:
#      x y z
#    x 1.543860 0.000000 0.000000 
#    y 0.000000 1.543860 0.000000 
#    z 0.000000 0.000000 1.535580 
# 
# From -- ./inp_files/2347.got.cif
#   From: 2010.05.17/outbox.cif.g08.bks.cpg/sg118_2_cif.got.tgz:2347.got - 2010.05.20 11:17:24.
