data_PCOD9558284
_publ_section_title
;
Structure prediction by ZEFSAII (Michael W. Deem and Ramdas Pophale) SiO2 
 PCOD9558284
Probable space group: P -4 B 2
;
_chemical_formula_sum "Si O2"
_cell_formula_units_Z 56
_cell_length_a 13.899750
_cell_length_b 13.899750
_cell_length_c 12.687245
_cell_angle_alpha 90.000000
_cell_angle_beta 90.000000
_cell_angle_gamma 90.000000
_cell_volume 2451.214431
_symmetry_space_group_name_H-M "P -4 B 2"
_symmetry_group_IT_number 117
_symmetry_cell_setting 'tetragonal'
loop_
_space_group_symop_operation_xyz
x,y,z
y,-x,-z
-x,-y,z
-y,x,-z
1/2+y,1/2+x,-z
1/2-y,1/2-x,-z
1/2-x,1/2+y,z
1/2+x,1/2-y,z
loop_
_atom_site_type_symbol
_atom_site_label
_atom_site_fract_x
_atom_site_fract_y
_atom_site_fract_z
Si Si1 0.939060 0.403930 0.273521
Si Si2 0.842293 0.133599 0.759577
Si Si3 0.192699 0.249154 0.621107
Si Si4 0.798065 0.406558 0.086909
Si Si5 0.524242 0.707761 0.368891
Si Si6 0.486067 0.841949 0.560609
Si Si7 0.345578 0.481426 0.971085
O O1 0.891099 0.409405 0.159978
O O2 0.988434 0.302375 0.294100
O O3 0.870262 0.418229 0.376834
O O4 0.000000 0.500000 0.284211
O O5 0.764612 0.201036 0.702113
O O6 0.899818 0.214521 0.824080
O O7 0.826596 0.061016 0.856917
O O8 0.868128 0.056641 0.667269
O O9 0.226036 0.273965 0.500000
O O10 0.180614 0.135575 0.637178
O O11 0.091772 0.301567 0.641232
O O12 0.822279 0.322279 0.000000
O O13 0.757357 0.497128 0.022900
O O14 0.503770 0.753715 0.482254
O O15 0.428556 0.928556 0.500000
O O16 0.405756 0.582429 0.970678
#
# Coordination Sequence:
#
# PCOD9558284 Si02
#       7
#     8   8   8   8   8   8   8
#     4  12  23  39  65 101 139 185 224 295 364 420
#     4  11  22  43  69  97 136 185 236 292 364 425
#     4  11  22  42  67 103 144 190 238 289 364 443
#     4  11  25  45  67  99 139 185 250 299 368 427
#     4  12  23  39  69  98 143 183 237 287 355 442
#     4  11  22  39  62  98 143 183 232 279 357 443
#     4   9  21  43  69  94 130 184 245 298 355 432
#
# _framework density 22.845818000000001
#
# number of rings (size 3 to 8) (size 9 to 14) (size 15 to 20)
#    0.000    1.000    5.714    2.143    0.000    1.429 
#    7.714    0.000    0.000    0.429    0.000    0.000 
#    0.000    0.000    0.000    0.000    0.000    0.000 
#
# Total GULP energy -312005.664171 kJ/mol
# GULP energy per Si atom -5571.529717 kJ/mol
# Density = 2.279382 g / cm^3
# Si number density = 22.845818 Si / 1000 Ang^3
#
#
#
# Elastic Constant Matrix: (Units=GPa)
#
#
# Indices 1 2 3 4 5 6 
#
# 1 45.3192 1.4132 5.7694 0.0000 0.0000 0.0000
# 2 1.4132 45.3193 5.7696 0.0000 0.0000 0.0000
# 3 5.7694 5.7696 72.4001 0.0000 0.0000 0.0000
# 4 0.0000 0.0000 0.0000 27.8292 0.0000 0.0000
# 5 0.0000 0.0000 0.0000 0.0000 27.8292 0.0000
# 6 0.0000 0.0000 0.0000 0.0000 0.0000 29.7503
#
#
#
# Elastic Compliance Matrix: (Units=1/GPa)
#
#
# Indices 1 2 3 4 5 6 
#
# 1 0.022302 -0.000474 -0.001739 0.000000 0.000000 0.000000
# 2 -0.000474 0.022302 -0.001739 0.000000 0.000000 0.000000
# 3 -0.001739 -0.001739 0.014089 0.000000 0.000000 0.000000
# 4 0.000000 0.000000 0.000000 0.035933 0.000000 0.000000
# 5 0.000000 0.000000 0.000000 0.000000 0.035933 0.000000
# 6 0.000000 0.000000 0.000000 0.000000 0.000000 0.033613
#
#
# Mechanical properties :
#
#
# Convention : Reuss Voigt Hill
#
# Bulk Modulus (GPa) = 19.68991 20.99366 20.34178
# Shear Modulus (GPa) = 26.45389 27.08751 26.77070
#
# Velocity S-wave (km/s) = 3.40653 3.44709 3.42687
# Velocity P-wave (km/s) = 4.91019 5.00524 4.95794
#
# Compressibility (1/GPa) = 0.05078744
#
# Stress axis : x y z
#
# Youngs Moduli (GPa) = 44.83913 44.83921 70.97552
#
# Poissons Ratio (x) = 0.02125 0.12346
# Poissons Ratio (y) = 0.02125 0.12346
# Poissons Ratio (z) = 0.07799 0.07800
#
# Static dielectric constant tensor:
#      x y z
#    x 1.908670 0.000000 0.000000 
#    y 0.000000 1.908670 0.000000 
#    z 0.000000 0.000000 1.878720 
# 
# From -- ./inp_files/2852.got.cif
#   From: 2010.05.17/outbox.cif.g08.bks.cpg/sg117_2_cif.got.tgz:2852.got - 2010.05.20 11:15:09.
