data_PCOD9558581
_publ_section_title
;
Structure prediction by ZEFSAII (Michael W. Deem and Ramdas Pophale) SiO2 
 PCOD9558581
Probable space group: P -4 N 2
;
_chemical_formula_sum "Si O2"
_cell_formula_units_Z 44
_cell_length_a 13.946547
_cell_length_b 13.946547
_cell_length_c 12.925940
_cell_angle_alpha 90.000000
_cell_angle_beta 90.000000
_cell_angle_gamma 90.000000
_cell_volume 2514.175125
_symmetry_space_group_name_H-M "P -4 N 2"
_symmetry_group_IT_number 118
_symmetry_cell_setting 'tetragonal'
loop_
_space_group_symop_operation_xyz
x,y,z
y,-x,-z
-x,-y,z
-y,x,-z
1/2+y,1/2+x,1/2-z
1/2-y,1/2-x,1/2-z
1/2-x,1/2+y,1/2+z
1/2+x,1/2-y,1/2+z
loop_
_atom_site_type_symbol
_atom_site_label
_atom_site_fract_x
_atom_site_fract_y
_atom_site_fract_z
Si Si1 0.500000 0.500000 0.500000
Si Si2 0.500000 0.500000 0.000000
Si Si3 0.808770 0.697814 0.373025
Si Si4 0.838424 0.905913 0.130013
Si Si5 0.037713 0.619289 0.861150
Si Si6 0.671774 0.422649 0.869163
Si Si7 0.456792 0.850682 0.053857
O O1 0.471490 0.408519 0.433656
O O2 0.443372 0.421855 0.065388
O O3 0.823781 0.676219 0.250000
O O4 0.706234 0.650401 0.398653
O O5 0.793860 0.812957 0.385965
O O6 0.894731 0.667517 0.450351
O O7 0.727634 0.934311 0.121083
O O8 0.858008 0.923039 0.250357
O O9 0.080551 0.580551 0.750000
O O10 0.088036 0.555357 0.950409
O O11 0.923408 0.604396 0.873203
O O12 0.751823 0.503183 0.896414
#
# Coordination Sequence:
#
# PCOD9558581 Si02
#       7
#     2   2   8   8   8   8   8
#     4  12  26  40  60  82 128 168 202 244 324 366
#     4  12  22  36  56  98 124 156 206 256 300 354
#     4  10  21  38  59  86 126 165 199 244 313 371
#     4  11  22  41  57  87 118 167 199 251 304 382
#     4  11  21  36  64  89 115 146 206 260 301 355
#     4  11  21  35  61  86 124 157 206 251 301 360
#     4  11  20  34  58  94 111 150 202 256 300 355
#
# _framework density 17.500768999999998
#
# number of rings (size 3 to 8) (size 9 to 14) (size 15 to 20)
#    0.000    1.091    5.455    3.273    0.000    0.000 
#    0.000    1.818    0.000    0.000    0.000    0.000 
#    0.000    0.000    0.000    0.000    0.000    0.000 
#
# Total GULP energy -245073.130597 kJ/mol
# GULP energy per Si atom -5569.843877 kJ/mol
# Density = 1.746094 g / cm^3
# Si number density = 17.500769 Si / 1000 Ang^3
#
#
#
# Elastic Constant Matrix: (Units=GPa)
#
#
# Indices 1 2 3 4 5 6 
#
# 1 87.4294 33.4928 62.4059 0.0000 0.0000 0.0000
# 2 33.4928 87.4295 62.4060 0.0000 0.0000 0.0000
# 3 62.4059 62.4060 93.5032 0.0000 0.0000 0.0000
# 4 0.0000 0.0000 0.0000 36.9623 0.0000 0.0000
# 5 0.0000 0.0000 0.0000 0.0000 36.9627 0.0000
# 6 0.0000 0.0000 0.0000 0.0000 0.0000 28.5288
#
#
#
# Elastic Compliance Matrix: (Units=1/GPa)
#
#
# Indices 1 2 3 4 5 6 
#
# 1 0.022561 0.004021 -0.017741 0.000000 0.000000 0.000000
# 2 0.004021 0.022561 -0.017741 0.000000 0.000000 0.000000
# 3 -0.017741 -0.017741 0.034376 0.000000 0.000000 0.000000
# 4 0.000000 0.000000 0.000000 0.027055 0.000000 0.000000
# 5 0.000000 0.000000 0.000000 0.000000 0.027054 0.000000
# 6 0.000000 0.000000 0.000000 0.000000 0.000000 0.035052
#
#
# Mechanical properties :
#
#
# Convention : Reuss Voigt Hill
#
# Bulk Modulus (GPa) = 60.33141 64.99683 62.66412
# Shear Modulus (GPa) = 21.08754 27.82792 24.45773
#
# Velocity S-wave (km/s) = 3.47500 3.99193 3.74240
# Velocity P-wave (km/s) = 7.11683 7.64640 7.38636
#
# Compressibility (1/GPa) = 0.01657511
#
# Stress axis : x y z
#
# Youngs Moduli (GPa) = 44.32459 44.32460 29.08989
#
# Poissons Ratio (x) = -0.17821 0.51608
# Poissons Ratio (y) = -0.17821 0.51608
# Poissons Ratio (z) = 0.78636 0.78636
#
# Static dielectric constant tensor:
#      x y z
#    x 1.630120 0.000000 0.000000 
#    y 0.000000 1.630120 0.000000 
#    z 0.000000 0.000000 1.598960 
# 
# From -- ./inp_files/3270.got.cif
#   From: 2010.05.17/outbox.cif.g08.bks.cpg/sg118_2_cif.got.tgz:3270.got - 2010.05.20 11:17:24.
