data_PCOD9558889
_publ_section_title
;
Structure prediction by ZEFSAII (Michael W. Deem and Ramdas Pophale) SiO2 
 PCOD9558889
Probable space group: P -4 N 2
;
_chemical_formula_sum "Si O2"
_cell_formula_units_Z 26
_cell_length_a 10.678562
_cell_length_b 10.678562
_cell_length_c 8.333108
_cell_angle_alpha 90.000000
_cell_angle_beta 90.000000
_cell_angle_gamma 90.000000
_cell_volume 950.238358
_symmetry_space_group_name_H-M "P -4 N 2"
_symmetry_group_IT_number 118
_symmetry_cell_setting 'tetragonal'
loop_
_space_group_symop_operation_xyz
x,y,z
y,-x,-z
-x,-y,z
-y,x,-z
1/2+y,1/2+x,1/2-z
1/2-y,1/2-x,1/2-z
1/2-x,1/2+y,1/2+z
1/2+x,1/2-y,1/2+z
loop_
_atom_site_type_symbol
_atom_site_label
_atom_site_fract_x
_atom_site_fract_y
_atom_site_fract_z
Si Si1 0.500000 0.500000 0.000000
Si Si2 0.725971 0.406054 0.150455
Si Si3 0.181519 0.921252 0.939769
Si Si4 0.057469 0.376825 0.566661
O O1 0.579210 0.402271 0.107810
O O2 0.801619 0.301619 0.250000
O O3 0.719968 0.528062 0.266014
O O4 0.789536 0.442731 0.983601
O O5 0.304026 0.848613 0.000216
O O6 0.051532 0.845465 0.960158
O O7 0.088319 0.411682 0.750000
O O8 0.000000 0.500000 0.483477
#
# Coordination Sequence:
#
# PCOD9558889 Si02
#       4
#     2   8   8   8
#     4  12  32  48  86 128 160 224 290 340 432 508
#     4  12  28  53  82 119 170 221 282 356 428 510
#     4  11  26  47  77 112 159 212 278 348 426 495
#     4  11  26  49  78 112 157 214 281 343 419 502
#
# _framework density 27.361553000000001
#
# number of rings (size 3 to 8) (size 9 to 14) (size 15 to 20)
#    0.000    0.615    3.077    2.769   12.923    0.000 
#    5.538    0.000    0.000    0.000    0.000    0.000 
#    0.000    0.000    0.000    0.000    0.000    0.000 
#
# Total GULP energy -145058.084345 kJ/mol
# GULP energy per Si atom -5579.157090 kJ/mol
# Density = 2.729928 g / cm^3
# Si number density = 27.361553 Si / 1000 Ang^3
#
#
#
# Elastic Constant Matrix: (Units=GPa)
#
#
# Indices 1 2 3 4 5 6 
#
# 1 129.5036 66.3184 26.2402 0.0000 0.0000 0.0000
# 2 66.3184 129.5037 26.2403 0.0000 0.0000 0.0000
# 3 26.2402 26.2403 88.8367 0.0000 0.0000 0.0000
# 4 0.0000 0.0000 0.0000 28.3168 0.0000 0.0000
# 5 0.0000 0.0000 0.0000 0.0000 28.3168 0.0000
# 6 0.0000 0.0000 0.0000 0.0000 0.0000 69.1246
#
#
#
# Elastic Compliance Matrix: (Units=1/GPa)
#
#
# Indices 1 2 3 4 5 6 
#
# 1 0.010686 -0.005140 -0.001638 0.000000 0.000000 0.000000
# 2 -0.005140 0.010686 -0.001638 0.000000 0.000000 0.000000
# 3 -0.001638 -0.001638 0.012224 0.000000 0.000000 0.000000
# 4 0.000000 0.000000 0.000000 0.035315 0.000000 0.000000
# 5 0.000000 0.000000 0.000000 0.000000 0.035315 0.000000
# 6 0.000000 0.000000 0.000000 0.000000 0.000000 0.014467
#
#
# Mechanical properties :
#
#
# Convention : Reuss Voigt Hill
#
# Bulk Modulus (GPa) = 59.65375 65.04910 62.35143
# Shear Modulus (GPa) = 35.43250 40.42131 37.92690
#
# Velocity S-wave (km/s) = 3.60248 3.84774 3.72713
# Velocity P-wave (km/s) = 6.25725 6.60043 6.43113
#
# Compressibility (1/GPa) = 0.01676341
#
# Stress axis : x y z
#
# Youngs Moduli (GPa) = 93.57971 93.57973 81.80431
#
# Poissons Ratio (x) = 0.48104 0.13400
# Poissons Ratio (y) = 0.48104 0.13400
# Poissons Ratio (z) = 0.15329 0.15329
#
# Static dielectric constant tensor:
#      x y z
#    x 2.269270 0.000000 0.000000 
#    y 0.000000 2.269270 0.000000 
#    z 0.000000 0.000000 2.172860 
# 
# From -- ./inp_files/1423.got.cif
#   From: 2010.05.17/outbox.cif.g08.bks.cpg/sg118_1_cif.got.tgz:1423.got - 2010.05.20 11:17:24.
