data_PCOD9558807
_publ_section_title
;
Structure prediction by ZEFSAII (Michael W. Deem and Ramdas Pophale) SiO2 
 PCOD9558807
Probable space group: P -4 N 2
;
_chemical_formula_sum "Si O2"
_cell_formula_units_Z 34
_cell_length_a 14.271442
_cell_length_b 14.271442
_cell_length_c 8.624092
_cell_angle_alpha 90.000000
_cell_angle_beta 90.000000
_cell_angle_gamma 90.000000
_cell_volume 1756.503804
_symmetry_space_group_name_H-M "P -4 N 2"
_symmetry_group_IT_number 118
_symmetry_cell_setting 'tetragonal'
loop_
_space_group_symop_operation_xyz
x,y,z
y,-x,-z
-x,-y,z
-y,x,-z
1/2+y,1/2+x,1/2-z
1/2-y,1/2-x,1/2-z
1/2-x,1/2+y,1/2+z
1/2+x,1/2-y,1/2+z
loop_
_atom_site_type_symbol
_atom_site_label
_atom_site_fract_x
_atom_site_fract_y
_atom_site_fract_z
Si Si1 0.500000 0.500000 0.500000
Si Si2 0.903858 0.258467 0.315170
Si Si3 0.240903 0.598263 0.815683
Si Si4 0.584163 0.314814 0.654328
Si Si5 0.111015 0.244877 0.809971
O O1 0.537413 0.413553 0.601804
O O2 0.847829 0.347829 0.250000
O O3 0.909575 0.263327 0.499785
O O4 0.840959 0.168822 0.265267
O O5 0.005024 0.245478 0.238802
O O6 0.148615 0.648615 0.750000
O O7 0.328884 0.661414 0.763470
O O8 0.255346 0.496602 0.740023
O O9 0.617591 0.266836 0.495051
O O10 0.162248 0.337752 0.750000
#
# Coordination Sequence:
#
# PCOD9558807 Si02
#       5
#     2   8   8   8   8
#     4  12  20  36  66  96 124 168 198 268 320 360
#     4  11  23  40  63  95 128 163 209 259 316 382
#     4  12  24  40  63  92 124 170 215 258 311 377
#     4  12  21  40  66  93 128 165 208 263 318 375
#     4  11  22  40  62  90 125 164 204 263 321 374
#
# _framework density 19.356634
#
# number of rings (size 3 to 8) (size 9 to 14) (size 15 to 20)
#    0.000    0.471    4.706    5.647    0.000    0.471 
#    0.000    2.353    0.000    4.941    0.000    0.000 
#    0.000    0.000    0.000    0.000    0.000    0.000 
#
# Total GULP energy -190272.657650 kJ/mol
# GULP energy per Si atom -5596.254637 kJ/mol
# Density = 1.931258 g / cm^3
# Si number density = 19.356634 Si / 1000 Ang^3
#
#
#
# Elastic Constant Matrix: (Units=GPa)
#
#
# Indices 1 2 3 4 5 6 
#
# 1 53.4571 30.5798 11.8841 0.0000 0.0000 0.0000
# 2 30.5798 53.4535 11.8830 0.0000 0.0000 0.0000
# 3 11.8841 11.8830 124.7678 0.0000 0.0000 0.0000
# 4 0.0000 0.0000 0.0000 28.2671 0.0000 0.0000
# 5 0.0000 0.0000 0.0000 0.0000 28.2711 0.0000
# 6 0.0000 0.0000 0.0000 0.0000 0.0000 29.2905
#
#
#
# Elastic Compliance Matrix: (Units=1/GPa)
#
#
# Indices 1 2 3 4 5 6 
#
# 1 0.027971 -0.015743 -0.001165 0.000000 0.000000 0.000000
# 2 -0.015743 0.027973 -0.001165 0.000000 0.000000 0.000000
# 3 -0.001165 -0.001165 0.008237 0.000000 0.000000 0.000000
# 4 0.000000 0.000000 0.000000 0.035377 0.000000 0.000000
# 5 0.000000 0.000000 0.000000 0.000000 0.035372 0.000000
# 6 0.000000 0.000000 0.000000 0.000000 0.000000 0.034141
#
#
# Mechanical properties :
#
#
# Convention : Reuss Voigt Hill
#
# Bulk Modulus (GPa) = 35.66832 37.81914 36.74373
# Shear Modulus (GPa) = 23.30346 28.98784 26.14565
#
# Velocity S-wave (km/s) = 3.47349 3.87404 3.67922
# Velocity P-wave (km/s) = 5.87825 6.29217 6.08873
#
# Compressibility (1/GPa) = 0.02803608
#
# Stress axis : x y z
#
# Youngs Moduli (GPa) = 35.75111 35.74881 121.40681
#
# Poissons Ratio (x) = 0.56279 0.14143
# Poissons Ratio (y) = 0.56282 0.14140
# Poissons Ratio (z) = 0.04165 0.04164
#
# Static dielectric constant tensor:
#      x y z
#    x 1.666210 0.000000 0.000000 
#    y 0.000000 1.666210 0.000000 
#    z 0.000000 0.000000 1.640050 
# 
# From -- ./inp_files/1657.got.cif
#   From: 2010.05.17/outbox.cif.g08.bks.cpg/sg118_1_cif.got.tgz:1657.got - 2010.05.20 11:17:24.
