data_PCOD9558080
_publ_section_title
;
Structure prediction by ZEFSAII (Michael W. Deem and Ramdas Pophale) SiO2 
 PCOD9558080
Probable space group: P -4 B 2
;
_chemical_formula_sum "Si O2"
_cell_formula_units_Z 42
_cell_length_a 14.563868
_cell_length_b 14.563868
_cell_length_c 8.423669
_cell_angle_alpha 90.000000
_cell_angle_beta 90.000000
_cell_angle_gamma 90.000000
_cell_volume 1786.712852
_symmetry_space_group_name_H-M "P -4 B 2"
_symmetry_group_IT_number 117
_symmetry_cell_setting 'tetragonal'
loop_
_space_group_symop_operation_xyz
x,y,z
y,-x,-z
-x,-y,z
-y,x,-z
1/2+y,1/2+x,-z
1/2-y,1/2-x,-z
1/2-x,1/2+y,z
1/2+x,1/2-y,z
loop_
_atom_site_type_symbol
_atom_site_label
_atom_site_fract_x
_atom_site_fract_y
_atom_site_fract_z
Si Si1 0.850124 0.787593 0.305994
Si Si2 0.102306 0.396406 0.808016
Si Si3 0.956976 0.262774 0.810727
Si Si4 0.462707 0.240720 0.182398
Si Si5 0.882564 0.846024 0.656204
Si Si6 0.500000 0.500000 0.500000
O O1 0.827747 0.684170 0.248933
O O2 0.944916 0.802894 0.206750
O O3 0.872859 0.790072 0.492047
O O4 0.777184 0.867025 0.271996
O O5 0.004287 0.358314 0.756399
O O6 0.143798 0.494685 0.757689
O O7 0.102317 0.397684 0.000000
O O8 0.042134 0.194708 0.775676
O O9 0.938961 0.267643 0.998050
O O10 0.378623 0.285745 0.272983
O O11 0.929404 0.940898 0.599922
#
# Coordination Sequence:
#
# PCOD9558080 Si02
#       6
#     8   8   8   8   8   2
#     4  10  19  33  47  77 105 135 178 213 265 321
#     4   8  19  36  49  72 107 134 179 223 250 319
#     4  11  19  32  56  69 101 148 168 215 270 310
#     4   9  19  33  48  75 104 134 180 205 259 334
#     4  12  19  30  48  74 108 140 171 211 265 334
#     4  12  16  28  38  64 112 136 150 212 236 328
#
# _framework density 23.506854000000001
#
# number of rings (size 3 to 8) (size 9 to 14) (size 15 to 20)
#    1.143    0.762    3.810    1.143    0.000    0.762 
#    0.000    1.905    0.000    0.000    0.000    1.333 
#    0.000    3.048    0.000    0.000    0.000    0.000 
#
# Total GULP energy -234169.618572 kJ/mol
# GULP energy per Si atom -5575.467109 kJ/mol
# Density = 2.345335 g / cm^3
# Si number density = 23.506854 Si / 1000 Ang^3
#
#
#
# Elastic Constant Matrix: (Units=GPa)
#
#
# Indices 1 2 3 4 5 6 
#
# 1 58.1779 82.6608 5.0548 0.0000 0.0000 0.0000
# 2 82.6608 58.1779 5.0543 0.0000 0.0000 0.0000
# 3 5.0548 5.0543 39.8024 0.0000 0.0000 0.0000
# 4 0.0000 0.0000 0.0000 9.8479 0.0000 0.0000
# 5 0.0000 0.0000 0.0000 0.0000 9.8475 0.0000
# 6 0.0000 0.0000 0.0000 0.0000 0.0000 64.2179
#
#
#
# Elastic Compliance Matrix: (Units=1/GPa)
#
#
# Indices 1 2 3 4 5 6 
#
# 1 -0.016840 0.024005 -0.000910 0.000000 0.000000 0.000000
# 2 0.024005 -0.016840 -0.000910 0.000000 0.000000 0.000000
# 3 -0.000910 -0.000910 0.025355 0.000000 0.000000 0.000000
# 4 0.000000 0.000000 0.000000 0.101545 0.000000 0.000000
# 5 0.000000 0.000000 0.000000 0.000000 0.101549 0.000000
# 6 0.000000 0.000000 0.000000 0.000000 0.000000 0.015572
#
#
# Mechanical properties :
#
#
# Convention : Reuss Voigt Hill
#
# Bulk Modulus (GPa) = 27.74183 37.96644 32.85414
# Shear Modulus (GPa) = 28.09197 21.00854 24.55026
#
# Velocity S-wave (km/s) = 3.46071 2.99276 3.23520
# Velocity P-wave (km/s) = 5.27218 5.30362 5.28792
#
# Compressibility (1/GPa) = 0.03604665
#
# Stress axis : x y z
#
# Youngs Moduli (GPa) = -59.38384 -59.38393 39.43956
#
# Poissons Ratio (x) = 1.42552 0.03588
# Poissons Ratio (y) = 1.42552 0.03590
# Poissons Ratio (z) = -0.05402 -0.05405
#
# Static dielectric constant tensor:
#      x y z
#    x 3.028790 0.000000 0.000000 
#    y 0.000000 3.028470 0.000000 
#    z 0.000000 0.000000 1.804390 
# 
# From -- ./inp_files/1889.got.cif
#   From: 2010.05.17/outbox.cif.g08.bks.cpg/sg117_1_cif.got.tgz:1889.got - 2010.05.20 11:15:09.
