data_PCOD9558974
_publ_section_title
;
Structure prediction by ZEFSAII (Michael W. Deem and Ramdas Pophale) SiO2 
 PCOD9558974
Probable space group: I -4 M 2
;
_chemical_formula_sum "Si O2"
_cell_formula_units_Z 84
_cell_length_a 12.032959
_cell_length_b 12.032959
_cell_length_c 30.909304
_cell_angle_alpha 90.000000
_cell_angle_beta 90.000000
_cell_angle_gamma 90.000000
_cell_volume 4475.423107
_symmetry_space_group_name_H-M "I -4 M 2"
_symmetry_group_IT_number 119
_symmetry_cell_setting 'tetragonal'
loop_
_space_group_symop_operation_xyz
x,y,z
y,-x,-z
-x,-y,z
-y,x,-z
y,x,-z
-y,-x,-z
-x,y,z
x,-y,z
1/2+x,1/2+y,1/2+z
1/2+y,1/2-x,1/2-z
1/2-x,1/2-y,1/2+z
1/2-y,1/2+x,1/2-z
1/2+y,1/2+x,1/2-z
1/2-y,1/2-x,1/2-z
1/2-x,1/2+y,1/2+z
1/2+x,1/2-y,1/2+z
loop_
_atom_site_type_symbol
_atom_site_label
_atom_site_fract_x
_atom_site_fract_y
_atom_site_fract_z
Si Si1 0.366746 0.000000 0.989113
Si Si2 0.500000 0.500000 0.584934
Si Si3 0.734329 0.632527 0.785515
Si Si4 0.761427 0.245792 0.876348
Si Si5 0.254784 0.866593 0.539390
Si Si6 0.240552 0.000000 0.077982
Si Si7 0.500000 0.632854 0.742067
Si Si8 0.218321 0.000000 0.855149
O O1 0.330777 0.115605 0.967077
O O2 0.500000 0.000000 0.988758
O O3 0.324138 0.000000 0.038201
O O4 0.614748 0.500000 0.559353
O O5 0.500000 0.394300 0.616574
O O6 0.745191 0.500000 0.787950
O O7 0.818123 0.681878 0.750000
O O8 0.752798 0.686274 0.832247
O O9 0.610753 0.660224 0.768452
O O10 0.683905 0.286426 0.915401
O O11 0.888588 0.251383 0.893555
O O12 0.727340 0.117820 0.866472
O O13 0.185629 0.814372 0.500000
O O14 0.248726 0.000000 0.538860
O O15 0.500000 0.500000 0.734280
O O16 0.500000 0.690285 0.695527
#
# Coordination Sequence:
#
# PCOD9558974 Si02
#       8
#     8   4  16  16  16   8   8   8
#     4  10  21  41  64  92 126 163 203 249 321 373
#     4   8  18  28  56  99 116 152 198 248 307 362
#     4  11  25  41  64  94 126 164 207 256 310 368
#     4  11  23  39  63  93 126 160 208 256 313 366
#     4  11  24  43  65  90 125 166 209 257 309 368
#     4  10  20  37  63  92 125 158 199 256 317 374
#     4  10  20  39  63  88 124 165 205 248 303 365
#     4  10  17  34  62  89 121 164 198 247 308 369
#
# _framework density 18.769176999999999
#
# number of rings (size 3 to 8) (size 9 to 14) (size 15 to 20)
#    0.000    1.524    4.286    0.571    2.667    1.905 
#    0.000    0.952    0.000    1.429    0.000    0.000 
#    0.000    0.000    0.000    0.000    0.000    0.000 
#
# Total GULP energy -234530.532146 kJ/mol
# GULP energy per Si atom -5584.060289 kJ/mol
# Density = 1.872646 g / cm^3
# Si number density = 18.769177 Si / 1000 Ang^3
#
#
#
# Elastic Constant Matrix: (Units=GPa)
#
#
# Indices 1 2 3 4 5 6 
#
# 1 65.4143 29.0205 39.1232 0.0000 0.0000 0.0000
# 2 29.0205 65.4184 39.1249 0.0000 0.0000 0.0000
# 3 39.1232 39.1249 139.7516 0.0000 0.0000 0.0000
# 4 0.0000 0.0000 0.0000 17.2095 0.0000 0.0000
# 5 0.0000 0.0000 0.0000 0.0000 17.2104 0.0000
# 6 0.0000 0.0000 0.0000 0.0000 0.0000 22.2927
#
#
#
# Elastic Compliance Matrix: (Units=1/GPa)
#
#
# Indices 1 2 3 4 5 6 
#
# 1 0.020632 -0.006844 -0.003860 0.000000 0.000000 0.000000
# 2 -0.006844 0.020631 -0.003860 0.000000 0.000000 0.000000
# 3 -0.003860 -0.003860 0.009317 0.000000 0.000000 0.000000
# 4 0.000000 0.000000 0.000000 0.058107 0.000000 0.000000
# 5 0.000000 0.000000 0.000000 0.000000 0.058105 0.000000
# 6 0.000000 0.000000 0.000000 0.000000 0.000000 0.044858
#
#
# Mechanical properties :
#
#
# Convention : Reuss Voigt Hill
#
# Bulk Modulus (GPa) = 46.61580 53.90239 50.25909
# Shear Modulus (GPa) = 20.16718 22.23022 21.19870
#
# Velocity S-wave (km/s) = 3.28149 3.44525 3.36436
# Velocity P-wave (km/s) = 6.26481 6.67886 6.47515
#
# Compressibility (1/GPa) = 0.02145195
#
# Stress axis : x y z
#
# Youngs Moduli (GPa) = 48.46827 48.47105 107.33431
#
# Poissons Ratio (x) = 0.33175 0.41429
# Poissons Ratio (y) = 0.33173 0.41429
# Poissons Ratio (z) = 0.18708 0.18709
#
# Static dielectric constant tensor:
#      x y z
#    x 1.652780 0.000000 0.000000 
#    y 0.000000 1.652780 0.000000 
#    z 0.000000 0.000000 1.606520 
# 
# From -- ./inp_files/10308.got.cif
#   From: 2010.05.17/outbox.cif.g08.bks.cpg/sg119_6_cif.got.tgz:10308.got - 2010.05.20 11:21:29.
