data_PCOD9558308
_publ_section_title
;
Structure prediction by ZEFSAII (Michael W. Deem and Ramdas Pophale) SiO2 
 PCOD9558308
Probable space group: P -4 B 2
;
_chemical_formula_sum "Si O2"
_cell_formula_units_Z 36
_cell_length_a 9.381224
_cell_length_b 9.381224
_cell_length_c 18.601464
_cell_angle_alpha 90.000000
_cell_angle_beta 90.000000
_cell_angle_gamma 90.000000
_cell_volume 1637.065808
_symmetry_space_group_name_H-M "P -4 B 2"
_symmetry_group_IT_number 117
_symmetry_cell_setting 'tetragonal'
loop_
_space_group_symop_operation_xyz
x,y,z
y,-x,-z
-x,-y,z
-y,x,-z
1/2+y,1/2+x,-z
1/2-y,1/2-x,-z
1/2-x,1/2+y,z
1/2+x,1/2-y,z
loop_
_atom_site_type_symbol
_atom_site_label
_atom_site_fract_x
_atom_site_fract_y
_atom_site_fract_z
Si Si1 0.082598 0.794095 0.970818
Si Si2 0.235175 0.735175 0.500000
Si Si3 0.877318 0.113615 0.807566
Si Si4 0.152087 0.576012 0.746219
Si Si5 0.516776 0.172576 0.410220
O O1 0.094189 0.820238 0.885846
O O2 0.147461 0.647461 0.000000
O O3 0.920614 0.824671 0.992964
O O4 0.246087 0.574054 0.526814
O O5 0.325884 0.780673 0.430998
O O6 0.858122 0.254460 0.758459
O O7 0.741086 0.010244 0.805591
O O8 0.000000 0.000000 0.787309
O O9 0.216691 0.537317 0.668156
O O10 0.000000 0.500000 0.746499
O O11 0.500000 0.000000 0.414523
#
# Coordination Sequence:
#
# PCOD9558308 Si02
#       5
#     8   4   8   8   8
#     4  11  24  44  67  99 138 175 229 288 343 414
#     4  12  20  44  70  90 138 174 216 286 336 406
#     4  12  24  46  69 102 138 181 234 290 356 427
#     4  11  26  44  71  98 139 185 232 291 354 429
#     4  11  24  45  64 101 136 171 227 283 341 408
#
# _framework density 21.990561
#
# number of rings (size 3 to 8) (size 9 to 14) (size 15 to 20)
#    0.000    0.667    4.444    4.000    3.111    2.667 
#    4.000    0.000    0.000    0.000    0.000    0.000 
#    0.000    0.000    0.000    0.000    0.000    0.000 
#
# Total GULP energy -201071.843954 kJ/mol
# GULP energy per Si atom -5585.328999 kJ/mol
# Density = 2.194051 g / cm^3
# Si number density = 21.990561 Si / 1000 Ang^3
#
#
#
# Elastic Constant Matrix: (Units=GPa)
#
#
# Indices 1 2 3 4 5 6 
#
# 1 51.1040 42.9868 2.4089 0.0000 0.0000 0.0000
# 2 42.9868 51.1040 2.4089 0.0000 0.0000 0.0000
# 3 2.4089 2.4089 74.2830 0.0000 0.0000 0.0000
# 4 0.0000 0.0000 0.0000 19.0188 0.0000 0.0000
# 5 0.0000 0.0000 0.0000 0.0000 19.0188 0.0000
# 6 0.0000 0.0000 0.0000 0.0000 0.0000 43.0163
#
#
#
# Elastic Compliance Matrix: (Units=1/GPa)
#
#
# Indices 1 2 3 4 5 6 
#
# 1 0.066921 -0.056275 -0.000345 0.000000 0.000000 0.000000
# 2 -0.056275 0.066921 -0.000345 0.000000 0.000000 0.000000
# 3 -0.000345 -0.000345 0.013484 0.000000 0.000000 0.000000
# 4 0.000000 0.000000 0.000000 0.052580 0.000000 0.000000
# 5 0.000000 0.000000 0.000000 0.000000 0.052580 0.000000
# 6 0.000000 0.000000 0.000000 0.000000 0.000000 0.023247
#
#
# Mechanical properties :
#
#
# Convention : Reuss Voigt Hill
#
# Bulk Modulus (GPa) = 29.94467 30.23336 30.08901
# Shear Modulus (GPa) = 12.47525 24.78988 18.63256
#
# Velocity S-wave (km/s) = 2.38439 3.36117 2.91400
# Velocity P-wave (km/s) = 4.60728 5.37042 5.00342
#
# Compressibility (1/GPa) = 0.03339493
#
# Stress axis : x y z
#
# Youngs Moduli (GPa) = 14.94310 14.94310 74.15964
#
# Poissons Ratio (x) = 0.84092 0.02560
# Poissons Ratio (y) = 0.84092 0.02560
# Poissons Ratio (z) = 0.00516 0.00516
#
# Static dielectric constant tensor:
#      x y z
#    x 1.828300 0.000000 0.000000 
#    y 0.000000 1.828300 0.000000 
#    z 0.000000 0.000000 1.863550 
# 
# From -- ./inp_files/3438.got.cif
#   From: 2010.05.17/outbox.cif.g08.bks.cpg/sg117_2_cif.got.tgz:3438.got - 2010.05.20 11:15:09.
