data_PCOD9558957
_publ_section_title
;
Structure prediction by ZEFSAII (Michael W. Deem and Ramdas Pophale) SiO2 
 PCOD9558957
Probable space group: I -4 M 2
;
_chemical_formula_sum "Si O2"
_cell_formula_units_Z 96
_cell_length_a 14.322199
_cell_length_b 14.322199
_cell_length_c 32.455603
_cell_angle_alpha 90.000000
_cell_angle_beta 90.000000
_cell_angle_gamma 90.000000
_cell_volume 6657.468035
_symmetry_space_group_name_H-M "I -4 M 2"
_symmetry_group_IT_number 119
_symmetry_cell_setting 'tetragonal'
loop_
_space_group_symop_operation_xyz
x,y,z
y,-x,-z
-x,-y,z
-y,x,-z
y,x,-z
-y,-x,-z
-x,y,z
x,-y,z
1/2+x,1/2+y,1/2+z
1/2+y,1/2-x,1/2-z
1/2-x,1/2-y,1/2+z
1/2-y,1/2+x,1/2-z
1/2+y,1/2+x,1/2-z
1/2-y,1/2-x,1/2-z
1/2-x,1/2+y,1/2+z
1/2+x,1/2-y,1/2+z
loop_
_atom_site_type_symbol
_atom_site_label
_atom_site_fract_x
_atom_site_fract_y
_atom_site_fract_z
Si Si1 0.208547 0.611514 0.211853
Si Si2 0.392245 0.391118 0.165418
Si Si3 0.219692 0.612541 0.045295
Si Si4 0.393680 0.886848 0.626708
Si Si5 0.887226 0.605856 0.536037
Si Si6 0.109773 0.212609 0.579498
O O1 0.195082 0.500000 0.219029
O O2 0.168625 0.668625 0.250000
O O3 0.316970 0.627822 0.200741
O O4 0.153529 0.637657 0.169990
O O5 0.500000 0.381689 0.178404
O O6 0.377327 0.500000 0.152508
O O7 0.377014 0.326809 0.125484
O O8 0.226335 0.500000 0.044405
O O9 0.165397 0.641759 0.086935
O O10 0.322187 0.655442 0.049627
O O11 0.158799 0.642263 0.005869
O O12 0.500000 0.853530 0.624408
O O13 0.395366 0.000000 0.625552
O O14 0.851257 0.500000 0.539582
O O15 0.866933 0.678245 0.572867
O O16 0.000000 0.599134 0.533763
O O17 0.000000 0.199823 0.569077
#
# Coordination Sequence:
#
# PCOD9558957 Si02
#       6
#    16  16  16  16  16  16
#     4  10  18  28  43  66  93 120 148 183 224 269
#     4   9  17  30  47  67  93 125 154 179 219 277
#     4  10  17  27  42  63  92 123 150 178 216 263
#     4   9  16  25  38  59  89 124 154 177 210 259
#     4   9  18  30  42  58  84 119 154 186 218 253
#     4  10  18  28  44  65  89 118 152 188 219 259
#
# _framework density 14.419897000000001
#
# number of rings (size 3 to 8) (size 9 to 14) (size 15 to 20)
#    0.000    2.500    1.667    2.000    0.000    3.833 
#    0.000    0.833    0.000    7.000    0.000    0.000 
#    0.000   11.333    0.000    0.000    0.000    0.000 
#
# Total GULP energy -267289.622437 kJ/mol
# GULP energy per Si atom -5568.533801 kJ/mol
# Density = 1.438708 g / cm^3
# Si number density = 14.419897 Si / 1000 Ang^3
#
#
#
# Elastic Constant Matrix: (Units=GPa)
#
#
# Indices 1 2 3 4 5 6 
#
# 1 77.4864 36.4025 43.7943 0.0000 0.0000 0.0000
# 2 36.4025 77.4864 43.7943 0.0000 0.0000 0.0000
# 3 43.7943 43.7943 87.4742 0.0000 0.0000 0.0000
# 4 0.0000 0.0000 0.0000 22.3366 0.0000 0.0000
# 5 0.0000 0.0000 0.0000 0.0000 22.3366 0.0000
# 6 0.0000 0.0000 0.0000 0.0000 0.0000 10.5796
#
#
#
# Elastic Compliance Matrix: (Units=1/GPa)
#
#
# Indices 1 2 3 4 5 6 
#
# 1 0.019309 -0.005031 -0.007148 0.000000 0.000000 0.000000
# 2 -0.005031 0.019309 -0.007148 0.000000 0.000000 0.000000
# 3 -0.007148 -0.007148 0.018590 0.000000 0.000000 0.000000
# 4 0.000000 0.000000 0.000000 0.044770 0.000000 0.000000
# 5 0.000000 0.000000 0.000000 0.000000 0.044770 0.000000
# 6 0.000000 0.000000 0.000000 0.000000 0.000000 0.094522
#
#
# Mechanical properties :
#
#
# Convention : Reuss Voigt Hill
#
# Bulk Modulus (GPa) = 53.90156 54.49212 54.19684
# Shear Modulus (GPa) = 17.47584 18.94759 18.21172
#
# Velocity S-wave (km/s) = 3.48505 3.62883 3.55767
# Velocity P-wave (km/s) = 7.32497 7.44510 7.38528
#
# Compressibility (1/GPa) = 0.01855234
#
# Stress axis : x y z
#
# Youngs Moduli (GPa) = 51.78855 51.78855 53.79321
#
# Poissons Ratio (x) = 0.26056 0.38454
# Poissons Ratio (y) = 0.26056 0.38454
# Poissons Ratio (z) = 0.37021 0.37021
#
# Static dielectric constant tensor:
#      x y z
#    x 1.485200 0.000000 0.000000 
#    y 0.000000 1.485200 0.000000 
#    z 0.000000 0.000000 1.473130 
# 
# From -- ./inp_files/10343.got.cif
#   From: 2010.05.17/outbox.cif.g08.bks.cpg/sg119_6_cif.got.tgz:10343.got - 2010.05.20 11:21:29.
