data_PCOD9558305
_publ_section_title
;
Structure prediction by ZEFSAII (Michael W. Deem and Ramdas Pophale) SiO2 
 PCOD9558305
Probable space group: P -4 B 2
;
_chemical_formula_sum "Si O2"
_cell_formula_units_Z 40
_cell_length_a 9.703844
_cell_length_b 9.703844
_cell_length_c 20.444830
_cell_angle_alpha 90.000000
_cell_angle_beta 90.000000
_cell_angle_gamma 90.000000
_cell_volume 1925.179001
_symmetry_space_group_name_H-M "P -4 B 2"
_symmetry_group_IT_number 117
_symmetry_cell_setting 'tetragonal'
loop_
_space_group_symop_operation_xyz
x,y,z
y,-x,-z
-x,-y,z
-y,x,-z
1/2+y,1/2+x,-z
1/2-y,1/2-x,-z
1/2-x,1/2+y,z
1/2+x,1/2-y,z
loop_
_atom_site_type_symbol
_atom_site_label
_atom_site_fract_x
_atom_site_fract_y
_atom_site_fract_z
Si Si1 0.441082 0.345487 0.714144
Si Si2 0.732377 0.188227 0.369165
Si Si3 0.358034 0.585811 0.136040
Si Si4 0.626471 0.101621 0.077844
Si Si5 0.645243 0.971342 0.567979
O O1 0.500000 0.500000 0.713962
O O2 0.290731 0.332999 0.683475
O O3 0.544557 0.262029 0.666888
O O4 0.426303 0.301862 0.789507
O O5 0.875402 0.250219 0.394429
O O6 0.627329 0.198093 0.430398
O O7 0.500000 0.500000 0.134818
O O8 0.371590 0.746620 0.112990
O O9 0.257421 0.493718 0.092556
O O10 0.500000 0.000000 0.096893
O O11 0.623611 0.123611 0.000000
O O12 0.600526 0.899475 0.500000
O O13 0.500000 0.000000 0.604097
#
# Coordination Sequence:
#
# PCOD9558305 Si02
#       5
#     8   8   8   8   8
#     4  11  24  43  69 103 135 184 234 286 359 412
#     4  12  23  45  70  98 140 179 226 289 343 425
#     4  11  25  45  70 102 144 189 246 303 355 435
#     4  11  26  44  71 107 143 193 245 296 373 432
#     4  11  26  43  68 102 135 176 228 278 350 413
#
# _framework density 20.777289
#
# number of rings (size 3 to 8) (size 9 to 14) (size 15 to 20)
#    0.000    0.800    4.000    2.400    8.400    1.600 
#    3.600    0.000    0.000    0.000    0.000    0.000 
#    0.000    0.000    0.000    0.000    0.000    0.000 
#
# Total GULP energy -222953.940972 kJ/mol
# GULP energy per Si atom -5573.848524 kJ/mol
# Density = 2.073000 g / cm^3
# Si number density = 20.777289 Si / 1000 Ang^3
#
#
#
# Elastic Constant Matrix: (Units=GPa)
#
#
# Indices 1 2 3 4 5 6 
#
# 1 98.6086 24.7588 32.7728 0.0000 0.0000 0.0000
# 2 24.7588 98.6086 32.7728 0.0000 0.0000 0.0000
# 3 32.7728 32.7728 110.5356 0.0000 0.0000 0.0000
# 4 0.0000 0.0000 0.0000 20.3951 0.0000 0.0000
# 5 0.0000 0.0000 0.0000 0.0000 20.3950 0.0000
# 6 0.0000 0.0000 0.0000 0.0000 0.0000 33.4485
#
#
#
# Elastic Compliance Matrix: (Units=1/GPa)
#
#
# Indices 1 2 3 4 5 6 
#
# 1 0.011581 -0.001960 -0.002853 0.000000 0.000000 0.000000
# 2 -0.001960 0.011581 -0.002853 0.000000 0.000000 0.000000
# 3 -0.002853 -0.002853 0.010738 0.000000 0.000000 0.000000
# 4 0.000000 0.000000 0.000000 0.049031 0.000000 0.000000
# 5 0.000000 0.000000 0.000000 0.000000 0.049032 0.000000
# 6 0.000000 0.000000 0.000000 0.000000 0.000000 0.029897
#
#
# Mechanical properties :
#
#
# Convention : Reuss Voigt Hill
#
# Bulk Modulus (GPa) = 53.84821 54.26239 54.05530
# Shear Modulus (GPa) = 27.26562 29.34428 28.30495
#
# Velocity S-wave (km/s) = 3.62647 3.76217 3.69494
# Velocity P-wave (km/s) = 6.59607 6.71154 6.65406
#
# Compressibility (1/GPa) = 0.01857072
#
# Stress axis : x y z
#
# Youngs Moduli (GPa) = 86.34638 86.34635 93.12326
#
# Poissons Ratio (x) = 0.16922 0.26565
# Poissons Ratio (y) = 0.16922 0.26565
# Poissons Ratio (z) = 0.24632 0.24632
#
# Static dielectric constant tensor:
#      x y z
#    x 1.846680 0.000000 0.000000 
#    y 0.000000 1.846680 0.000000 
#    z 0.000000 0.000000 1.774150 
# 
# From -- ./inp_files/3525.got.cif
#   From: 2010.05.17/outbox.cif.g08.bks.cpg/sg117_2_cif.got.tgz:3525.got - 2010.05.20 11:15:09.
