data_PCOD9558515
_publ_section_title
;
Structure prediction by ZEFSAII (Michael W. Deem and Ramdas Pophale) SiO2 
 PCOD9558515
Probable space group: P -4 N 2
;
_chemical_formula_sum "Si O2"
_cell_formula_units_Z 54
_cell_length_a 14.420117
_cell_length_b 14.420117
_cell_length_c 13.283520
_cell_angle_alpha 90.000000
_cell_angle_beta 90.000000
_cell_angle_gamma 90.000000
_cell_volume 2762.172151
_symmetry_space_group_name_H-M "P -4 N 2"
_symmetry_group_IT_number 118
_symmetry_cell_setting 'tetragonal'
loop_
_space_group_symop_operation_xyz
x,y,z
y,-x,-z
-x,-y,z
-y,x,-z
1/2+y,1/2+x,1/2-z
1/2-y,1/2-x,1/2-z
1/2-x,1/2+y,1/2+z
1/2+x,1/2-y,1/2+z
loop_
_atom_site_type_symbol
_atom_site_label
_atom_site_fract_x
_atom_site_fract_y
_atom_site_fract_z
Si Si1 0.811721 0.353025 0.578329
Si Si2 0.517576 0.891493 0.926986
Si Si3 0.716861 0.706965 0.605356
Si Si4 0.094658 0.234567 0.519215
Si Si5 0.672324 0.496354 0.651499
Si Si6 0.357474 0.142527 0.750000
Si Si7 0.910522 0.177422 0.637744
Si Si8 0.500000 0.500000 0.500000
O O1 0.897168 0.376093 0.504249
O O2 0.727512 0.313685 0.509438
O O3 0.767400 0.442358 0.627340
O O4 0.852337 0.272959 0.649385
O O5 0.431581 0.831607 0.966194
O O6 0.551616 0.855375 0.818665
O O7 0.500000 0.000000 0.920470
O O8 0.822295 0.745903 0.598537
O O9 0.701350 0.604221 0.645877
O O10 0.653499 0.771997 0.674655
O O11 0.119251 0.158162 0.434380
O O12 0.003017 0.200255 0.575271
O O13 0.639819 0.449151 0.756519
O O14 0.590177 0.485741 0.570211
#
# Coordination Sequence:
#
# PCOD9558515 Si02
#       8
#     8   8   8   8   8   4   8   2
#     4   9  20  39  59  84 120 158 201 260 311 375
#     4  10  20  38  62  90 121 160 208 263 315 374
#     4  10  20  37  62  81 124 167 201 261 314 381
#     4  10  22  42  62  95 122 166 212 266 324 381
#     4  12  22  41  59  91 124 167 211 259 318 385
#     4  10  21  36  58  92 119 162 214 252 318 376
#     4  10  23  39  66  88 125 162 214 261 321 382
#     4  12  28  36  56  94 132 164 212 256 324 390
#
# _framework density 19.54983
#
# number of rings (size 3 to 8) (size 9 to 14) (size 15 to 20)
#    0.000    1.778    1.481    3.333    0.000    2.667 
#    0.000    2.963    0.000    2.667    0.000    0.000 
#    0.000    0.000    0.000    0.000    0.000    0.000 
#
# Total GULP energy -300986.907254 kJ/mol
# GULP energy per Si atom -5573.831616 kJ/mol
# Density = 1.950533 g / cm^3
# Si number density = 19.549830 Si / 1000 Ang^3
#
#
#
# Elastic Constant Matrix: (Units=GPa)
#
#
# Indices 1 2 3 4 5 6 
#
# 1 80.8365 24.8521 33.7378 0.0000 0.0000 0.0000
# 2 24.8521 80.8365 33.7376 0.0000 0.0000 0.0000
# 3 33.7378 33.7376 95.9546 0.0000 0.0000 0.0000
# 4 0.0000 0.0000 0.0000 17.3754 0.0000 0.0000
# 5 0.0000 0.0000 0.0000 0.0000 17.3753 0.0000
# 6 0.0000 0.0000 0.0000 0.0000 0.0000 27.7087
#
#
#
# Elastic Compliance Matrix: (Units=1/GPa)
#
#
# Indices 1 2 3 4 5 6 
#
# 1 0.015031 -0.002831 -0.004290 0.000000 0.000000 0.000000
# 2 -0.002831 0.015031 -0.004290 0.000000 0.000000 0.000000
# 3 -0.004290 -0.004290 0.013438 0.000000 0.000000 0.000000
# 4 0.000000 0.000000 0.000000 0.057553 0.000000 0.000000
# 5 0.000000 0.000000 0.000000 0.000000 0.057553 0.000000
# 6 0.000000 0.000000 0.000000 0.000000 0.000000 0.036090
#
#
# Mechanical properties :
#
#
# Convention : Reuss Voigt Hill
#
# Bulk Modulus (GPa) = 48.35530 49.14253 48.74891
# Shear Modulus (GPa) = 22.28068 23.51190 22.89629
#
# Velocity S-wave (km/s) = 3.37959 3.47171 3.42596
# Velocity P-wave (km/s) = 6.32589 6.42355 6.37491
#
# Compressibility (1/GPa) = 0.02068026
#
# Stress axis : x y z
#
# Youngs Moduli (GPa) = 66.52788 66.52794 74.41528
#
# Poissons Ratio (x) = 0.18833 0.31922
# Poissons Ratio (y) = 0.18833 0.31922
# Poissons Ratio (z) = 0.28538 0.28538
#
# Static dielectric constant tensor:
#      x y z
#    x 1.692810 0.000000 0.000000 
#    y 0.000000 1.692810 0.000000 
#    z 0.000000 0.000000 1.724030 
# 
# From -- ./inp_files/3467.got.cif
#   From: 2010.05.17/outbox.cif.g08.bks.cpg/sg118_2_cif.got.tgz:3467.got - 2010.05.20 11:17:24.
