data_PCOD9558639
_publ_section_title
;
Structure prediction by ZEFSAII (Michael W. Deem and Ramdas Pophale) SiO2 
 PCOD9558639
Probable space group: P -4 N 2
;
_chemical_formula_sum "Si O2"
_cell_formula_units_Z 18
_cell_length_a 5.330010
_cell_length_b 5.330010
_cell_length_c 25.163066
_cell_angle_alpha 90.000000
_cell_angle_beta 90.000000
_cell_angle_gamma 90.000000
_cell_volume 714.857708
_symmetry_space_group_name_H-M "P -4 N 2"
_symmetry_group_IT_number 118
_symmetry_cell_setting 'tetragonal'
loop_
_space_group_symop_operation_xyz
x,y,z
y,-x,-z
-x,-y,z
-y,x,-z
1/2+y,1/2+x,1/2-z
1/2-y,1/2-x,1/2-z
1/2-x,1/2+y,1/2+z
1/2+x,1/2-y,1/2+z
loop_
_atom_site_type_symbol
_atom_site_label
_atom_site_fract_x
_atom_site_fract_y
_atom_site_fract_z
Si Si1 0.763702 0.843638 0.922869
Si Si2 0.000000 0.000000 0.500000
Si Si3 0.744981 0.335525 0.191667
O O1 0.709379 0.611420 0.961081
O O2 0.824113 0.767651 0.861877
O O3 0.500000 0.000000 0.922459
O O4 0.000000 0.000000 0.941544
O O5 0.500000 0.500000 0.183215
O O6 0.715914 0.215914 0.250000
O O7 0.000000 0.500000 0.193815
#
# Coordination Sequence:
#
# PCOD9558639 Si02
#       3
#     8   2   8
#     4  11  27  48  75 111 154 207 265 330 405 482
#     4  12  28  48  76 112 160 208 280 328 418 484
#     4  10  21  45  74 112 152 201 258 327 397 477
#
# _framework density 25.179834
#
# number of rings (size 3 to 8) (size 9 to 14) (size 15 to 20)
#    0.000    1.333    2.222    1.333    6.222    0.000 
#    0.000   17.778    0.000    0.000    0.000    0.000 
#    0.000    0.000    0.000    0.000    0.000    0.000 
#
# Total GULP energy -100847.021472 kJ/mol
# GULP energy per Si atom -5602.612304 kJ/mol
# Density = 2.512252 g / cm^3
# Si number density = 25.179834 Si / 1000 Ang^3
#
#
#
# Elastic Constant Matrix: (Units=GPa)
#
#
# Indices 1 2 3 4 5 6 
#
# 1 129.6413 47.2466 36.4311 0.0000 0.0000 0.0000
# 2 47.2466 129.6413 36.4311 0.0000 0.0000 0.0000
# 3 36.4311 36.4311 252.4362 0.0000 0.0000 0.0000
# 4 0.0000 0.0000 0.0000 485.3783 0.0000 0.0000
# 5 0.0000 0.0000 0.0000 0.0000 485.3783 0.0000
# 6 0.0000 0.0000 0.0000 0.0000 0.0000 65.6166
#
#
#
# Elastic Compliance Matrix: (Units=1/GPa)
#
#
# Indices 1 2 3 4 5 6 
#
# 1 0.009074 -0.003063 -0.000867 0.000000 0.000000 0.000000
# 2 -0.003063 0.009074 -0.000867 0.000000 0.000000 0.000000
# 3 -0.000867 -0.000867 0.004212 0.000000 0.000000 0.000000
# 4 0.000000 0.000000 0.000000 0.002060 0.000000 0.000000
# 5 0.000000 0.000000 0.000000 0.000000 0.002060 0.000000
# 6 0.000000 0.000000 0.000000 0.000000 0.000000 0.015240
#
#
# Mechanical properties :
#
#
# Convention : Reuss Voigt Hill
#
# Bulk Modulus (GPa) = 78.35009 83.54850 80.94930
# Shear Modulus (GPa) = 89.97676 233.38196 161.67936
#
# Velocity S-wave (km/s) = 5.98425 9.63780 8.02180
# Velocity P-wave (km/s) = 8.88437 12.53405 10.86357
#
# Compressibility (1/GPa) = 0.01276323
#
# Stress axis : x y z
#
# Youngs Moduli (GPa) = 110.20912 110.20912 237.42974
#
# Poissons Ratio (x) = 0.33758 0.20596
# Poissons Ratio (y) = 0.33758 0.20596
# Poissons Ratio (z) = 0.09560 0.09560
#
# Static dielectric constant tensor:
#      x y z
#    x 0.370160 0.000000 0.000000 
#    y 0.000000 0.370160 0.000000 
#    z 0.000000 0.000000 2.080800 
# 
# From -- ./inp_files/5805.got.cif
#   From: 2010.05.17/outbox.cif.g08.bks.cpg/sg118_3_cif.got.tgz:5805.got - 2010.05.20 11:17:24.
