data_PCOD9558042
_publ_section_title
;
Structure prediction by ZEFSAII (Michael W. Deem and Ramdas Pophale) SiO2 
 PCOD9558042
Probable space group: P -4 C 2
;
_chemical_formula_sum "Si O2"
_cell_formula_units_Z 56
_cell_length_a 15.000000
_cell_length_b 15.000000
_cell_length_c 15.000000
_cell_angle_alpha 90.000000
_cell_angle_beta 90.000000
_cell_angle_gamma 90.000000
_cell_volume 3375.000000
_symmetry_space_group_name_H-M "P -4 C 2"
_symmetry_group_IT_number 116
_symmetry_cell_setting 'tetragonal'
loop_
_space_group_symop_operation_xyz
x,y,z
y,-x,-z
-x,-y,z
-y,x,-z
y,x,1/2-z
-y,-x,1/2-z
-x,y,1/2+z
x,-y,1/2+z
loop_
_atom_site_type_symbol
_atom_site_label
_atom_site_fract_x
_atom_site_fract_y
_atom_site_fract_z
Si Si1 0.592469 0.361069 0.594969
Si Si2 0.384813 0.852489 0.103030
Si Si3 0.924913 0.573724 0.072253
Si Si4 0.640881 0.616311 0.890920
Si Si5 0.744319 0.508307 0.164786
Si Si6 0.608681 0.996780 0.238570
Si Si7 0.578507 0.826350 0.151608
O O1 0.490130 0.371606 0.630246
O O2 0.598495 0.378404 0.489861
O O3 0.664159 0.424147 0.641436
O O4 0.622751 0.258809 0.607602
O O5 0.363758 0.747085 0.108001
O O6 0.492922 0.855412 0.095662
O O7 0.360377 0.912342 0.189833
O O8 0.361145 0.899823 0.009589
O O9 0.830884 0.525607 0.101676
O O10 0.968469 0.624196 0.158701
O O11 0.000000 0.500000 0.048892
O O12 0.586504 0.692672 0.837598
O O13 0.786250 0.533985 0.258915
O O14 0.635052 0.912002 0.178037
O O15 0.500000 0.000000 0.235117
#
# Coordination Sequence:
#
# PCOD9558042 Si02
#       7
#     8   8   8   8   8   8   8
#     4  11  19  31  44  63  93 135 173 213 242 294
#     4  10  18  32  47  67  91 119 161 216 259 304
#     4  10  18  31  52  68  87 124 166 216 268 302
#     4  11  21  31  49  65  99 139 179 213 254 296
#     4  11  20  32  46  69  96 134 176 214 254 300
#     4   8  16  30  47  67  86 110 160 215 257 308
#     4   9  19  30  45  64  89 119 165 214 258 294
#
# _framework density 16.592593000000001
#
# number of rings (size 3 to 8) (size 9 to 14) (size 15 to 20)
#    0.000    2.000    2.857    3.857    0.000    2.286 
#    0.000    2.857    0.000    0.000    0.000    0.000 
#    0.000    0.000    0.000    1.286    3.714   57.714 
#
# Total GULP energy -311780.560942 kJ/mol
# GULP energy per Si atom -5567.510017 kJ/mol
# Density = 1.655483 g / cm^3
# Si number density = 16.592593 Si / 1000 Ang^3
#
#
#
# Elastic Constant Matrix: (Units=GPa)
#
#
# Indices 1 2 3 4 5 6 
#
# 1 84.3938 19.9706 17.5483 0.0000 0.0000 0.0000
# 2 19.9706 84.3938 17.5483 0.0000 0.0000 0.0000
# 3 17.5483 17.5483 54.4972 0.0000 0.0000 0.0000
# 4 0.0000 0.0000 0.0000 23.1173 0.0000 0.0000
# 5 0.0000 0.0000 0.0000 0.0000 23.1173 0.0000
# 6 0.0000 0.0000 0.0000 0.0000 0.0000 5.0637
#
#
#
# Elastic Compliance Matrix: (Units=1/GPa)
#
#
# Indices 1 2 3 4 5 6 
#
# 1 0.013134 -0.002388 -0.003460 0.000000 0.000000 0.000000
# 2 -0.002388 0.013134 -0.003460 0.000000 0.000000 0.000000
# 3 -0.003460 -0.003460 0.020578 0.000000 0.000000 0.000000
# 4 0.000000 0.000000 0.000000 0.043258 0.000000 0.000000
# 5 0.000000 0.000000 0.000000 0.000000 0.043258 0.000000
# 6 0.000000 0.000000 0.000000 0.000000 0.000000 0.197486
#
#
# Mechanical properties :
#
#
# Convention : Reuss Voigt Hill
#
# Bulk Modulus (GPa) = 35.42526 37.04656 36.23591
# Shear Modulus (GPa) = 13.93249 21.47415 17.70332
#
# Velocity S-wave (km/s) = 2.90087 3.60140 3.26995
# Velocity P-wave (km/s) = 5.71108 6.29834 6.01189
#
# Compressibility (1/GPa) = 0.02822844
#
# Stress axis : x y z
#
# Youngs Moduli (GPa) = 76.13896 76.13896 48.59587
#
# Poissons Ratio (x) = 0.18186 0.16814
# Poissons Ratio (y) = 0.18186 0.16814
# Poissons Ratio (z) = 0.26345 0.26345
#
# Static dielectric constant tensor:
#      x y z
#    x 1.579360 0.000000 0.000000 
#    y 0.000000 1.579360 0.000000 
#    z 0.000000 0.000000 1.710330 
# 
# From -- ./inp_files/2721.got.cif
#   From: 2010.05.17/outbox.ucp.g08.bks.cvg/sg116_2_cif.got.tgz:2721.got - 2010.06.11 11:33:53.
