data_PCOD9558679
_publ_section_title
;
Structure prediction by ZEFSAII (Michael W. Deem and Ramdas Pophale) SiO2 
 PCOD9558679
Probable space group: P -4 N 2
;
_chemical_formula_sum "Si O2"
_cell_formula_units_Z 20
_cell_length_a 8.759123
_cell_length_b 8.759123
_cell_length_c 11.301563
_cell_angle_alpha 90.000000
_cell_angle_beta 90.000000
_cell_angle_gamma 90.000000
_cell_volume 867.081181
_symmetry_space_group_name_H-M "P -4 N 2"
_symmetry_group_IT_number 118
_symmetry_cell_setting 'tetragonal'
loop_
_space_group_symop_operation_xyz
x,y,z
y,-x,-z
-x,-y,z
-y,x,-z
1/2+y,1/2+x,1/2-z
1/2-y,1/2-x,1/2-z
1/2-x,1/2+y,1/2+z
1/2+x,1/2-y,1/2+z
loop_
_atom_site_type_symbol
_atom_site_label
_atom_site_fract_x
_atom_site_fract_y
_atom_site_fract_z
Si Si1 0.738355 0.526307 0.965846
Si Si2 0.577735 0.290575 0.554477
Si Si3 0.187256 0.687256 0.750000
O O1 0.801863 0.445064 0.848112
O O2 0.654245 0.396083 0.044365
O O3 0.875114 0.619489 0.024804
O O4 0.403388 0.335907 0.538408
O O5 0.653854 0.325017 0.679623
#
# Coordination Sequence:
#
# PCOD9558679 Si02
#       3
#     8   8   4
#     4   9  20  39  66  94 124 167 220 263 322 402
#     4  10  23  40  63  98 132 168 223 274 327 403
#     4  10  22  43  66  89 132 176 206 277 342 379
#
# _framework density 23.06589
#
# number of rings (size 3 to 8) (size 9 to 14) (size 15 to 20)
#    0.000    2.400    0.000    0.000    0.000   22.400 
#    0.000    8.000    0.000   60.000    0.000    0.000 
#    0.000    0.000    0.000    0.000    0.000    0.000 
#
# Total GULP energy -111595.092621 kJ/mol
# GULP energy per Si atom -5579.754631 kJ/mol
# Density = 2.301339 g / cm^3
# Si number density = 23.065890 Si / 1000 Ang^3
#
#
#
# Elastic Constant Matrix: (Units=GPa)
#
#
# Indices 1 2 3 4 5 6 
#
# 1 80.7220 58.1793 5.5879 0.0000 0.0000 0.0000
# 2 58.1793 80.7220 5.5879 0.0000 0.0000 0.0000
# 3 5.5879 5.5879 60.8065 0.0000 0.0000 0.0000
# 4 0.0000 0.0000 0.0000 29.6363 0.0000 0.0000
# 5 0.0000 0.0000 0.0000 0.0000 29.6363 0.0000
# 6 0.0000 0.0000 0.0000 0.0000 0.0000 65.1524
#
#
#
# Elastic Compliance Matrix: (Units=1/GPa)
#
#
# Indices 1 2 3 4 5 6 
#
# 1 0.025807 -0.018554 -0.000667 0.000000 0.000000 0.000000
# 2 -0.018554 0.025807 -0.000667 0.000000 0.000000 0.000000
# 3 -0.000667 -0.000667 0.016568 0.000000 0.000000 0.000000
# 4 0.000000 0.000000 0.000000 0.033742 0.000000 0.000000
# 5 0.000000 0.000000 0.000000 0.000000 0.033742 0.000000
# 6 0.000000 0.000000 0.000000 0.000000 0.000000 0.015349
#
#
# Mechanical properties :
#
#
# Convention : Reuss Voigt Hill
#
# Bulk Modulus (GPa) = 35.20135 40.10673 37.65404
# Shear Modulus (GPa) = 24.96787 35.07803 30.02295
#
# Velocity S-wave (km/s) = 3.29364 3.90394 3.61171
# Velocity P-wave (km/s) = 5.45513 6.14383 5.80970
#
# Compressibility (1/GPa) = 0.02840800
#
# Stress axis : x y z
#
# Youngs Moduli (GPa) = 38.74978 38.74978 60.35692
#
# Poissons Ratio (x) = 0.71895 0.04023
# Poissons Ratio (y) = 0.71895 0.04023
# Poissons Ratio (z) = 0.02583 0.02583
#
# Static dielectric constant tensor:
#      x y z
#    x 1.927670 0.000000 0.000000 
#    y 0.000000 1.927670 0.000000 
#    z 0.000000 0.000000 1.741610 
# 
# From -- ./inp_files/2482.got.cif
#   From: 2010.05.17/outbox.cif.g08.bks.cpg/sg118_2_cif.got.tgz:2482.got - 2010.05.20 11:17:24.
