data_PCOD9558764
_publ_section_title
;
Structure prediction by ZEFSAII (Michael W. Deem and Ramdas Pophale) SiO2 
 PCOD9558764
Probable space group: P -4 N 2
;
_chemical_formula_sum "Si O2"
_cell_formula_units_Z 40
_cell_length_a 8.750053
_cell_length_b 8.750053
_cell_length_c 22.740656
_cell_angle_alpha 90.000000
_cell_angle_beta 90.000000
_cell_angle_gamma 90.000000
_cell_volume 1741.102567
_symmetry_space_group_name_H-M "P -4 N 2"
_symmetry_group_IT_number 118
_symmetry_cell_setting 'tetragonal'
loop_
_space_group_symop_operation_xyz
x,y,z
y,-x,-z
-x,-y,z
-y,x,-z
1/2+y,1/2+x,1/2-z
1/2-y,1/2-x,1/2-z
1/2-x,1/2+y,1/2+z
1/2+x,1/2-y,1/2+z
loop_
_atom_site_type_symbol
_atom_site_label
_atom_site_fract_x
_atom_site_fract_y
_atom_site_fract_z
Si Si1 0.950557 0.236649 0.287207
Si Si2 0.970443 0.221578 0.756436
Si Si3 0.886469 0.621164 0.398525
Si Si4 0.613835 0.630954 0.625064
Si Si5 0.345059 0.703537 0.494073
O O1 0.873597 0.373597 0.250000
O O2 0.022014 0.286274 0.349174
O O3 0.089325 0.155228 0.253139
O O4 0.820402 0.104247 0.290015
O O5 0.879817 0.379817 0.750000
O O6 0.053358 0.192541 0.818951
O O7 0.765367 0.509397 0.365781
O O8 0.804017 0.711957 0.451146
O O9 0.000000 0.500000 0.427933
O O10 0.500000 0.500000 0.600273
O O11 0.732089 0.684651 0.574983
O O12 0.529327 0.709826 0.498753
#
# Coordination Sequence:
#
# PCOD9558764 Si02
#       5
#     8   8   8   8   8
#     4  11  25  39  64 101 140 177 230 289 350 435
#     4  11  25  40  64 100 142 184 224 285 370 427
#     4  11  23  36  65  99 129 171 232 295 347 417
#     4  11  18  37  65  95 126 173 236 288 344 424
#     4   9  17  33  60  88 117 164 223 284 331 396
#
# _framework density 22.973949000000001
#
# number of rings (size 3 to 8) (size 9 to 14) (size 15 to 20)
#    0.000    1.400    6.000    2.400    2.800    0.400 
#    0.000    0.000   13.200    0.000    0.000    0.000 
#    0.000    0.000    0.000    0.000    0.000    0.000 
#
# Total GULP energy -223087.449596 kJ/mol
# GULP energy per Si atom -5577.186240 kJ/mol
# Density = 2.292166 g / cm^3
# Si number density = 22.973949 Si / 1000 Ang^3
#
#
#
# Elastic Constant Matrix: (Units=GPa)
#
#
# Indices 1 2 3 4 5 6 
#
# 1 94.3779 65.0221 58.6984 0.0000 0.0000 0.0000
# 2 65.0221 94.3779 58.6984 0.0000 0.0000 0.0000
# 3 58.6984 58.6984 179.1037 0.0000 0.0000 0.0000
# 4 0.0000 0.0000 0.0000 28.6726 0.0000 0.0000
# 5 0.0000 0.0000 0.0000 0.0000 28.6726 0.0000
# 6 0.0000 0.0000 0.0000 0.0000 0.0000 63.7045
#
#
#
# Elastic Compliance Matrix: (Units=1/GPa)
#
#
# Indices 1 2 3 4 5 6 
#
# 1 0.021167 -0.012898 -0.002710 0.000000 0.000000 0.000000
# 2 -0.012898 0.021167 -0.002710 0.000000 0.000000 0.000000
# 3 -0.002710 -0.002710 0.007360 0.000000 0.000000 0.000000
# 4 0.000000 0.000000 0.000000 0.034876 0.000000 0.000000
# 5 0.000000 0.000000 0.000000 0.000000 0.034876 0.000000
# 6 0.000000 0.000000 0.000000 0.000000 0.000000 0.015697
#
#
# Mechanical properties :
#
#
# Convention : Reuss Voigt Hill
#
# Bulk Modulus (GPa) = 76.58089 81.41084 78.99586
# Shear Modulus (GPa) = 28.38755 36.57266 32.48010
#
# Velocity S-wave (km/s) = 3.51898 3.99421 3.76411
# Velocity P-wave (km/s) = 7.06521 7.53557 7.30417
#
# Compressibility (1/GPa) = 0.01305809
#
# Stress axis : x y z
#
# Youngs Moduli (GPa) = 47.24285 47.24285 135.87278
#
# Poissons Ratio (x) = 0.60932 0.36825
# Poissons Ratio (y) = 0.60932 0.36825
# Poissons Ratio (z) = 0.12804 0.12804
#
# Static dielectric constant tensor:
#      x y z
#    x 1.928990 0.000000 0.000000 
#    y 0.000000 1.928990 0.000000 
#    z 0.000000 0.000000 1.977370 
# 
# From -- ./inp_files/6046.got.cif
#   From: 2010.05.17/outbox.cif.g08.bks.cpg/sg118_4_cif.got.tgz:6046.got - 2010.05.20 11:17:24.
