data_PCOD9558211
_publ_section_title
;
Structure prediction by ZEFSAII (Michael W. Deem and Ramdas Pophale) SiO2 
 PCOD9558211
Probable space group: P -4 B 2
;
_chemical_formula_sum "Si O2"
_cell_formula_units_Z 34
_cell_length_a 10.039203
_cell_length_b 10.039203
_cell_length_c 18.308384
_cell_angle_alpha 90.000000
_cell_angle_beta 90.000000
_cell_angle_gamma 90.000000
_cell_volume 1845.221409
_symmetry_space_group_name_H-M "P -4 B 2"
_symmetry_group_IT_number 117
_symmetry_cell_setting 'tetragonal'
loop_
_space_group_symop_operation_xyz
x,y,z
y,-x,-z
-x,-y,z
-y,x,-z
1/2+y,1/2+x,-z
1/2-y,1/2-x,-z
1/2-x,1/2+y,z
1/2+x,1/2-y,z
loop_
_atom_site_type_symbol
_atom_site_label
_atom_site_fract_x
_atom_site_fract_y
_atom_site_fract_z
Si Si1 0.770137 0.755060 0.721834
Si Si2 0.518912 0.850641 0.641552
Si Si3 0.500000 0.000000 0.500000
Si Si4 0.839358 0.007182 0.810573
Si Si5 0.102370 0.181423 0.026210
O O1 0.663700 0.802001 0.662370
O O2 0.909986 0.738488 0.681089
O O3 0.783619 0.864566 0.785447
O O4 0.717616 0.617729 0.755647
O O5 0.499614 0.874906 0.555123
O O6 0.500000 0.000000 0.672704
O O7 0.797221 0.051504 0.891516
O O8 0.000000 0.000000 0.808043
O O9 0.205065 0.294936 0.000000
O O10 0.965650 0.170086 0.979103
#
# Coordination Sequence:
#
# PCOD9558211 Si02
#       5
#     8   8   2   8   8
#     4  12  23  40  67  94 127 164 210 267 318 373
#     4  10  22  41  61  95 128 163 209 258 315 377
#     4   8  20  44  60  92 132 172 202 264 304 392
#     4  12  23  39  66  94 124 165 212 262 322 373
#     4  11  24  44  61  89 126 164 209 261 313 385
#
# _framework density 18.425974
#
# number of rings (size 3 to 8) (size 9 to 14) (size 15 to 20)
#    0.706    0.235    7.059    1.412    0.000    1.412 
#    0.000    0.000    0.000    0.000    0.000    0.000 
#    0.000    0.000    0.000    0.000    0.000    0.000 
#
# Total GULP energy -189655.309506 kJ/mol
# GULP energy per Si atom -5578.097338 kJ/mol
# Density = 1.838404 g / cm^3
# Si number density = 18.425974 Si / 1000 Ang^3
#
#
#
# Elastic Constant Matrix: (Units=GPa)
#
#
# Indices 1 2 3 4 5 6 
#
# 1 86.9290 43.9453 28.1572 0.0000 0.0000 0.0000
# 2 43.9453 86.9282 28.1583 0.0000 0.0000 0.0000
# 3 28.1572 28.1583 92.7342 0.0000 0.0000 0.0000
# 4 0.0000 0.0000 0.0000 18.8228 0.0000 0.0000
# 5 0.0000 0.0000 0.0000 0.0000 18.8227 0.0000
# 6 0.0000 0.0000 0.0000 0.0000 0.0000 31.3592
#
#
#
# Elastic Compliance Matrix: (Units=1/GPa)
#
#
# Indices 1 2 3 4 5 6 
#
# 1 0.016027 -0.007238 -0.002669 0.000000 0.000000 0.000000
# 2 -0.007238 0.016027 -0.002669 0.000000 0.000000 0.000000
# 3 -0.002669 -0.002669 0.012404 0.000000 0.000000 0.000000
# 4 0.000000 0.000000 0.000000 0.053127 0.000000 0.000000
# 5 0.000000 0.000000 0.000000 0.000000 0.053127 0.000000
# 6 0.000000 0.000000 0.000000 0.000000 0.000000 0.031889
#
#
# Mechanical properties :
#
#
# Convention : Reuss Voigt Hill
#
# Bulk Modulus (GPa) = 51.79274 51.90144 51.84709
# Shear Modulus (GPa) = 23.34400 24.88966 24.11683
#
# Velocity S-wave (km/s) = 3.56323 3.67930 3.62173
# Velocity P-wave (km/s) = 6.71553 6.80282 6.75932
#
# Compressibility (1/GPa) = 0.01930772
#
# Stress axis : x y z
#
# Youngs Moduli (GPa) = 62.39502 62.39381 80.61788
#
# Poissons Ratio (x) = 0.45159 0.21514
# Poissons Ratio (y) = 0.45160 0.21517
# Poissons Ratio (z) = 0.16651 0.16653
#
# Static dielectric constant tensor:
#      x y z
#    x 1.658910 0.000000 0.000000 
#    y 0.000000 1.658900 0.000000 
#    z 0.000000 0.000000 1.626850 
# 
# From -- ./inp_files/3419.got.cif
#   From: 2010.05.17/outbox.cif.g08.bks.cpg/sg117_2_cif.got.tgz:3419.got - 2010.05.20 11:15:09.
