data_PCOD9558076
_publ_section_title
;
Structure prediction by ZEFSAII (Michael W. Deem and Ramdas Pophale) SiO2 
 PCOD9558076
Probable space group: P -4 B 2
;
_chemical_formula_sum "Si O2"
_cell_formula_units_Z 56
_cell_length_a 25.354209
_cell_length_b 25.354209
_cell_length_c 4.975326
_cell_angle_alpha 90.000000
_cell_angle_beta 90.000000
_cell_angle_gamma 90.000000
_cell_volume 3198.318237
_symmetry_space_group_name_H-M "P -4 B 2"
_symmetry_group_IT_number 117
_symmetry_cell_setting 'tetragonal'
loop_
_space_group_symop_operation_xyz
x,y,z
y,-x,-z
-x,-y,z
-y,x,-z
1/2+y,1/2+x,-z
1/2-y,1/2-x,-z
1/2-x,1/2+y,z
1/2+x,1/2-y,z
loop_
_atom_site_type_symbol
_atom_site_label
_atom_site_fract_x
_atom_site_fract_y
_atom_site_fract_z
Si Si1 0.626450 0.215100 0.526431
Si Si2 0.228382 0.969453 0.579212
Si Si3 0.686130 0.760787 0.249842
Si Si4 0.672010 0.260848 0.023860
Si Si5 0.712929 0.412833 0.523149
Si Si6 0.845207 0.039135 0.088453
Si Si7 0.138089 0.080630 0.033217
O O1 0.662017 0.162017 0.500000
O O2 0.566179 0.219372 0.438708
O O3 0.628857 0.236332 0.828341
O O4 0.653439 0.258771 0.328140
O O5 0.182924 0.949488 0.372503
O O6 0.238166 0.029466 0.494131
O O7 0.201617 0.966010 0.870353
O O8 0.725277 0.774723 0.500000
O O9 0.691939 0.702063 0.120086
O O10 0.629179 0.756772 0.386855
O O11 0.700019 0.799981 0.000000
O O12 0.718361 0.218361 0.000000
O O13 0.668881 0.419197 0.752792
O O14 0.679454 0.399133 0.258065
O O15 0.884106 0.085840 0.996998
O O16 0.872361 0.981269 0.102656
#
# Coordination Sequence:
#
# PCOD9558076 Si02
#       7
#     8   8   8   8   8   8   8
#     4  10  19  31  47  70  97 127 159 196 238 293
#     4  10  21  35  50  72  99 131 165 203 255 306
#     4  11  21  34  50  73  99 130 167 204 246 298
#     4   9  18  29  42  69  97 119 156 193 237 283
#     4  10  22  36  51  72 101 130 165 209 254 306
#     4  10  21  35  51  70  93 127 172 214 259 302
#     4  10  21  36  51  72  94 128 172 215 262 300
#
# _framework density 17.509201999999998
#
# number of rings (size 3 to 8) (size 9 to 14) (size 15 to 20)
#    0.000    2.000    0.000    4.714    6.000    0.286 
#    2.571    0.000    0.000    5.143    0.000    0.000 
#    0.000    0.571    0.000    2.571    0.000    0.000 
#
# Total GULP energy -311942.245825 kJ/mol
# GULP energy per Si atom -5570.397247 kJ/mol
# Density = 1.746935 g / cm^3
# Si number density = 17.509202 Si / 1000 Ang^3
#
#
#
# Elastic Constant Matrix: (Units=GPa)
#
#
# Indices 1 2 3 4 5 6 
#
# 1 60.1393 30.7571 9.6721 0.0000 0.0000 0.0000
# 2 30.7571 60.1393 9.6721 0.0000 0.0000 0.0000
# 3 9.6721 9.6721 96.0402 0.0000 0.0000 0.0000
# 4 0.0000 0.0000 0.0000 21.9211 0.0000 0.0000
# 5 0.0000 0.0000 0.0000 0.0000 21.9211 0.0000
# 6 0.0000 0.0000 0.0000 0.0000 0.0000 26.7200
#
#
#
# Elastic Compliance Matrix: (Units=1/GPa)
#
#
# Indices 1 2 3 4 5 6 
#
# 1 0.022638 -0.011396 -0.001132 0.000000 0.000000 0.000000
# 2 -0.011396 0.022638 -0.001132 0.000000 0.000000 0.000000
# 3 -0.001132 -0.001132 0.010640 0.000000 0.000000 0.000000
# 4 0.000000 0.000000 0.000000 0.045618 0.000000 0.000000
# 5 0.000000 0.000000 0.000000 0.000000 0.045618 0.000000
# 6 0.000000 0.000000 0.000000 0.000000 0.000000 0.037425
#
#
# Mechanical properties :
#
#
# Convention : Reuss Voigt Hill
#
# Bulk Modulus (GPa) = 34.96934 35.16902 35.06918
# Shear Modulus (GPa) = 22.58037 25.19360 23.88699
#
# Velocity S-wave (km/s) = 3.59504 3.79737 3.69759
# Velocity P-wave (km/s) = 6.10309 6.27346 6.18886
#
# Compressibility (1/GPa) = 0.02859648
#
# Stress axis : x y z
#
# Youngs Moduli (GPa) = 44.17289 44.17289 93.98179
#
# Poissons Ratio (x) = 0.50339 0.10641
# Poissons Ratio (y) = 0.50339 0.10641
# Poissons Ratio (z) = 0.05001 0.05001
#
# Static dielectric constant tensor:
#      x y z
#    x 1.667570 0.000000 0.000000 
#    y 0.000000 1.667570 0.000000 
#    z 0.000000 0.000000 1.644030 
# 
# From -- ./inp_files/958.got.cif
#   From: 2010.05.17/outbox.cif.g08.bks.cpg/sg117_1_cif.got.tgz:958.got - 2010.05.20 11:15:09.
