data_PCOD9558273
_publ_section_title
;
Structure prediction by ZEFSAII (Michael W. Deem and Ramdas Pophale) SiO2 
 PCOD9558273
Probable space group: P -4 B 2
;
_chemical_formula_sum "Si O2"
_cell_formula_units_Z 56
_cell_length_a 14.447325
_cell_length_b 14.447325
_cell_length_c 11.962539
_cell_angle_alpha 90.000000
_cell_angle_beta 90.000000
_cell_angle_gamma 90.000000
_cell_volume 2496.883341
_symmetry_space_group_name_H-M "P -4 B 2"
_symmetry_group_IT_number 117
_symmetry_cell_setting 'tetragonal'
loop_
_space_group_symop_operation_xyz
x,y,z
y,-x,-z
-x,-y,z
-y,x,-z
1/2+y,1/2+x,-z
1/2-y,1/2-x,-z
1/2-x,1/2+y,z
1/2+x,1/2-y,z
loop_
_atom_site_type_symbol
_atom_site_label
_atom_site_fract_x
_atom_site_fract_y
_atom_site_fract_z
Si Si1 0.734438 0.809626 0.288018
Si Si2 0.296163 0.332798 0.947964
Si Si3 0.825675 0.960824 0.425302
Si Si4 0.958344 0.396398 0.229117
Si Si5 0.496765 0.145502 0.469753
Si Si6 0.633775 0.395963 0.672594
Si Si7 0.778639 0.965482 0.900842
O O1 0.796085 0.794730 0.178390
O O2 0.797921 0.860715 0.378558
O O3 0.651716 0.881724 0.251958
O O4 0.684989 0.713874 0.327887
O O5 0.313375 0.441210 0.955563
O O6 0.199303 0.300698 0.000000
O O7 0.376431 0.286242 0.021304
O O8 0.732492 0.015734 0.455717
O O9 0.863866 0.947242 0.551404
O O10 0.870319 0.024973 0.330127
O O11 0.000992 0.344820 0.337721
O O12 0.980247 0.329805 0.126945
O O13 0.000000 0.500000 0.224853
O O14 0.395251 0.104750 0.500000
O O15 0.567744 0.067744 0.500000
O O16 0.664930 0.448436 0.785069
#
# Coordination Sequence:
#
# PCOD9558273 Si02
#       7
#     8   8   8   8   8   8   8
#     4  11  24  45  74 107 151 188 245 314 376 434
#     4  12  27  53  79 105 145 193 258 324 372 461
#     4  12  24  42  70 104 153 198 236 295 370 440
#     4  11  20  39  71 107 147 183 238 313 377 439
#     4  11  18  34  62 103 147 185 230 286 365 452
#     4  11  26  47  70 109 155 194 254 307 364 463
#     4  11  28  51  74 106 150 194 260 313 388 452
#
# _framework density 22.427961
#
# number of rings (size 3 to 8) (size 9 to 14) (size 15 to 20)
#    0.000    0.714    8.571    0.429    4.000    5.143 
#    0.000    0.714    0.000    0.000    0.000    0.000 
#    0.000    0.000    0.000    0.000    0.000    0.000 
#
# Total GULP energy -312458.189396 kJ/mol
# GULP energy per Si atom -5579.610525 kJ/mol
# Density = 2.237691 g / cm^3
# Si number density = 22.427961 Si / 1000 Ang^3
#
#
#
# Elastic Constant Matrix: (Units=GPa)
#
#
# Indices 1 2 3 4 5 6 
#
# 1 43.9958 -3.4647 15.0073 0.0000 0.0000 0.0000
# 2 -3.4647 43.9950 15.0076 0.0000 0.0000 0.0000
# 3 15.0073 15.0076 71.3835 0.0000 0.0000 0.0000
# 4 0.0000 0.0000 0.0000 25.3941 0.0000 0.0000
# 5 0.0000 0.0000 0.0000 0.0000 25.3936 0.0000
# 6 0.0000 0.0000 0.0000 0.0000 0.0000 15.8146
#
#
#
# Elastic Compliance Matrix: (Units=1/GPa)
#
#
# Indices 1 2 3 4 5 6 
#
# 1 0.025146 0.004076 -0.006143 0.000000 0.000000 0.000000
# 2 0.004076 0.025147 -0.006144 0.000000 0.000000 0.000000
# 3 -0.006143 -0.006144 0.016592 0.000000 0.000000 0.000000
# 4 0.000000 0.000000 0.000000 0.039379 0.000000 0.000000
# 5 0.000000 0.000000 0.000000 0.000000 0.039380 0.000000
# 6 0.000000 0.000000 0.000000 0.000000 0.000000 0.063233
#
#
# Mechanical properties :
#
#
# Convention : Reuss Voigt Hill
#
# Bulk Modulus (GPa) = 19.81682 23.60829 21.71256
# Shear Modulus (GPa) = 20.65094 22.17540 21.41317
#
# Velocity S-wave (km/s) = 3.03771 3.14783 3.09326
# Velocity P-wave (km/s) = 4.59984 4.87452 4.73917
#
# Compressibility (1/GPa) = 0.05046219
#
# Stress axis : x y z
#
# Youngs Moduli (GPa) = 39.76774 39.76689 60.26987
#
# Poissons Ratio (x) = -0.16209 0.37027
# Poissons Ratio (y) = -0.16209 0.37028
# Poissons Ratio (z) = 0.24431 0.24431
#
# Static dielectric constant tensor:
#      x y z
#    x 1.920900 0.000000 0.000000 
#    y 0.000000 1.920910 0.000000 
#    z 0.000000 0.000000 1.833400 
# 
# From -- ./inp_files/2864.got.cif
#   From: 2010.05.17/outbox.cif.g08.bks.cpg/sg117_2_cif.got.tgz:2864.got - 2010.05.20 11:15:09.
