data_PCOD9558637
_publ_section_title
;
Structure prediction by ZEFSAII (Michael W. Deem and Ramdas Pophale) SiO2 
 PCOD9558637
Probable space group: P -4 N 2
;
_chemical_formula_sum "Si O2"
_cell_formula_units_Z 48
_cell_length_a 8.694470
_cell_length_b 8.694470
_cell_length_c 30.889377
_cell_angle_alpha 90.000000
_cell_angle_beta 90.000000
_cell_angle_gamma 90.000000
_cell_volume 2335.045652
_symmetry_space_group_name_H-M "P -4 N 2"
_symmetry_group_IT_number 118
_symmetry_cell_setting 'tetragonal'
loop_
_space_group_symop_operation_xyz
x,y,z
y,-x,-z
-x,-y,z
-y,x,-z
1/2+y,1/2+x,1/2-z
1/2-y,1/2-x,1/2-z
1/2-x,1/2+y,1/2+z
1/2+x,1/2-y,1/2+z
loop_
_atom_site_type_symbol
_atom_site_label
_atom_site_fract_x
_atom_site_fract_y
_atom_site_fract_z
Si Si1 0.323876 0.451979 0.670365
Si Si2 0.647682 0.760425 0.206250
Si Si3 0.324947 0.824947 0.250000
Si Si4 0.208069 0.234566 0.595656
Si Si5 0.522904 0.723857 0.017789
Si Si6 0.770351 0.921895 0.983222
Si Si7 0.000000 0.000000 0.351099
O O1 0.500000 0.500000 0.662603
O O2 0.228624 0.607390 0.678751
O O3 0.307428 0.345237 0.713808
O O4 0.243786 0.362045 0.631372
O O5 0.750831 0.749170 0.250000
O O6 0.481674 0.816672 0.223001
O O7 0.602732 0.611927 0.178938
O O8 0.363926 0.239872 0.565950
O O9 0.128749 0.092034 0.621096
O O10 0.078153 0.257321 0.559244
O O11 0.652700 0.588569 0.019575
O O12 0.614169 0.874057 0.005749
O O13 0.906238 0.822122 0.006186
#
# Coordination Sequence:
#
# PCOD9558637 Si02
#       7
#     8   8   4   8   8   8   4
#     4  11  24  40  70 102 140 177 223 289 337 405
#     4  10  23  41  69  99 132 184 228 272 336 412
#     4  10  21  44  68  99 132 177 236 258 335 414
#     4  11  24  42  68 101 134 178 233 288 336 406
#     4   9  19  40  66  88 125 170 227 277 331 404
#     4  10  23  41  63  96 137 179 220 283 358 410
#     4  12  24  42  71 104 136 176 240 294 333 398
#
# _framework density 20.556345
#
# number of rings (size 3 to 8) (size 9 to 14) (size 15 to 20)
#    0.000    1.667    1.667    4.250    7.000    5.333 
#    0.000    0.833   11.000    4.000    0.000    0.000 
#    0.000    0.000    0.000    0.000    0.000    0.000 
#
# Total GULP energy -267318.893650 kJ/mol
# GULP energy per Si atom -5569.143618 kJ/mol
# Density = 2.050956 g / cm^3
# Si number density = 20.556345 Si / 1000 Ang^3
#
#
#
# Elastic Constant Matrix: (Units=GPa)
#
#
# Indices 1 2 3 4 5 6 
#
# 1 84.0157 75.4972 67.8888 0.0000 0.0000 0.0000
# 2 75.4972 84.0163 67.8889 0.0000 0.0000 0.0000
# 3 67.8888 67.8889 140.1145 0.0000 0.0000 0.0000
# 4 0.0000 0.0000 0.0000 -4.1530 0.0000 0.0000
# 5 0.0000 0.0000 0.0000 0.0000 -4.1532 0.0000
# 6 0.0000 0.0000 0.0000 0.0000 0.0000 39.7386
#
#
#
# Elastic Compliance Matrix: (Units=1/GPa)
#
#
# Indices 1 2 3 4 5 6 
#
# 1 0.064029 -0.053359 -0.005170 0.000000 0.000000 0.000000
# 2 -0.053359 0.064028 -0.005170 0.000000 0.000000 0.000000
# 3 -0.005170 -0.005170 0.012147 0.000000 0.000000 0.000000
# 4 0.000000 0.000000 0.000000 -0.240790 0.000000 0.000000
# 5 0.000000 0.000000 0.000000 0.000000 -0.240779 0.000000
# 6 0.000000 0.000000 0.000000 0.000000 0.000000 0.025164
#
#
# Mechanical properties :
#
#
# Convention : Reuss Voigt Hill
#
# Bulk Modulus (GPa) = 78.08175 81.18848 79.63511
# Shear Modulus (GPa) = -27.09498 12.74459 -7.17520
#
# Velocity S-wave (km/s) = -3.63448 2.49265 -1.87032
# Velocity P-wave (km/s) = 4.52262 6.91850 5.84465
#
# Compressibility (1/GPa) = 0.01280709
#
# Stress axis : x y z
#
# Youngs Moduli (GPa) = 15.61800 15.61813 82.32740
#
# Poissons Ratio (x) = 0.83337 0.42561
# Poissons Ratio (y) = 0.83336 0.42559
# Poissons Ratio (z) = 0.08074 0.08074
#
# Static dielectric constant tensor:
#      x y z
#    x 1.764930 0.000000 0.000000 
#    y 0.000000 1.764930 0.000000 
#    z 0.000000 0.000000 1.826610 
# 
# From -- ./inp_files/6895.got.cif
#   From: 2010.05.17/outbox.cif.g08.bks.cpg/sg118_4_cif.got.tgz:6895.got - 2010.05.20 11:17:24.
