data_PCOD9558144
_publ_section_title
;
Structure prediction by ZEFSAII (Michael W. Deem and Ramdas Pophale) SiO2 
 PCOD9558144
Probable space group: P -4 B 2
;
_chemical_formula_sum "Si O2"
_cell_formula_units_Z 40
_cell_length_a 13.554688
_cell_length_b 13.554688
_cell_length_c 9.735699
_cell_angle_alpha 90.000000
_cell_angle_beta 90.000000
_cell_angle_gamma 90.000000
_cell_volume 1788.735760
_symmetry_space_group_name_H-M "P -4 B 2"
_symmetry_group_IT_number 117
_symmetry_cell_setting 'tetragonal'
loop_
_space_group_symop_operation_xyz
x,y,z
y,-x,-z
-x,-y,z
-y,x,-z
1/2+y,1/2+x,-z
1/2-y,1/2-x,-z
1/2-x,1/2+y,z
1/2+x,1/2-y,z
loop_
_atom_site_type_symbol
_atom_site_label
_atom_site_fract_x
_atom_site_fract_y
_atom_site_fract_z
Si Si1 0.166456 0.634689 0.155191
Si Si2 0.361206 0.440687 0.520982
Si Si3 0.747280 0.689448 0.303475
Si Si4 0.225721 0.464852 0.767146
Si Si5 0.075586 0.266002 0.943484
O O1 0.226301 0.696075 0.269808
O O2 0.196867 0.522258 0.133150
O O3 0.052872 0.650579 0.199516
O O4 0.178312 0.678312 0.000000
O O5 0.391169 0.536394 0.432025
O O6 0.296813 0.361366 0.437115
O O7 0.301476 0.487288 0.646604
O O8 0.864408 0.674986 0.286438
O O9 0.704247 0.635541 0.167791
O O10 0.283152 0.447584 0.910570
O O11 0.141810 0.358191 0.000000
#
# Coordination Sequence:
#
# PCOD9558144 Si02
#       5
#     8   8   8   8   8
#     4  10  20  38  66  94 131 166 212 271 333 397
#     4  11  24  43  62  87 132 183 224 273 333 398
#     4  11  22  40  64  97 130 169 222 274 330 403
#     4  10  21  40  64  93 127 168 219 266 336 405
#     4   9  21  39  67  97 132 164 217 279 340 396
#
# _framework density 22.362164
#
# number of rings (size 3 to 8) (size 9 to 14) (size 15 to 20)
#    0.000    1.800    2.000    2.400    2.800    9.200 
#    0.000    1.000    0.000    7.200    0.000    0.000 
#    0.000    0.000    0.000    0.000    0.000    0.000 
#
# Total GULP energy -223092.653205 kJ/mol
# GULP energy per Si atom -5577.316330 kJ/mol
# Density = 2.231127 g / cm^3
# Si number density = 22.362164 Si / 1000 Ang^3
#
#
#
# Elastic Constant Matrix: (Units=GPa)
#
#
# Indices 1 2 3 4 5 6 
#
# 1 66.7661 18.3162 32.1228 0.0000 0.0000 0.0000
# 2 18.3162 66.7657 32.1227 0.0000 0.0000 0.0000
# 3 32.1228 32.1227 91.8471 0.0000 0.0000 0.0000
# 4 0.0000 0.0000 0.0000 32.8522 0.0000 0.0000
# 5 0.0000 0.0000 0.0000 0.0000 32.8522 0.0000
# 6 0.0000 0.0000 0.0000 0.0000 0.0000 20.8717
#
#
#
# Elastic Compliance Matrix: (Units=1/GPa)
#
#
# Indices 1 2 3 4 5 6 
#
# 1 0.018306 -0.002334 -0.005586 0.000000 0.000000 0.000000
# 2 -0.002334 0.018306 -0.005586 0.000000 0.000000 0.000000
# 3 -0.005586 -0.005586 0.014795 0.000000 0.000000 0.000000
# 4 0.000000 0.000000 0.000000 0.030439 0.000000 0.000000
# 5 0.000000 0.000000 0.000000 0.000000 0.030439 0.000000
# 6 0.000000 0.000000 0.000000 0.000000 0.000000 0.047912
#
#
# Mechanical properties :
#
#
# Convention : Reuss Voigt Hill
#
# Bulk Modulus (GPa) = 40.99361 43.38914 42.19138
# Shear Modulus (GPa) = 25.59643 26.83636 26.21639
#
# Velocity S-wave (km/s) = 3.38691 3.46797 3.42768
# Velocity P-wave (km/s) = 5.80227 5.95658 5.87993
#
# Compressibility (1/GPa) = 0.02439404
#
# Stress axis : x y z
#
# Youngs Moduli (GPa) = 54.62833 54.62797 67.59120
#
# Poissons Ratio (x) = 0.12752 0.37755
# Poissons Ratio (y) = 0.12752 0.37755
# Poissons Ratio (z) = 0.30514 0.30514
#
# Static dielectric constant tensor:
#      x y z
#    x 1.880570 0.000000 0.000000 
#    y 0.000000 1.880580 0.000000 
#    z 0.000000 0.000000 1.893130 
# 
# From -- ./inp_files/1736.got.cif
#   From: 2010.05.17/outbox.cif.g08.bks.cpg/sg117_1_cif.got.tgz:1736.got - 2010.05.20 11:15:09.
