data_PCOD9558917
_publ_section_title
;
Structure prediction by ZEFSAII (Michael W. Deem and Ramdas Pophale) SiO2 
 PCOD9558917
Probable space group: P -4 N 2
;
_chemical_formula_sum "Si O2"
_cell_formula_units_Z 34
_cell_length_a 10.988392
_cell_length_b 10.988392
_cell_length_c 11.866727
_cell_angle_alpha 90.000000
_cell_angle_beta 90.000000
_cell_angle_gamma 90.000000
_cell_volume 1432.845089
_symmetry_space_group_name_H-M "P -4 N 2"
_symmetry_group_IT_number 118
_symmetry_cell_setting 'tetragonal'
loop_
_space_group_symop_operation_xyz
x,y,z
y,-x,-z
-x,-y,z
-y,x,-z
1/2+y,1/2+x,1/2-z
1/2-y,1/2-x,1/2-z
1/2-x,1/2+y,1/2+z
1/2+x,1/2-y,1/2+z
loop_
_atom_site_type_symbol
_atom_site_label
_atom_site_fract_x
_atom_site_fract_y
_atom_site_fract_z
Si Si1 0.721785 0.772613 0.007524
Si Si2 0.500000 0.500000 0.676698
Si Si3 0.000000 0.500000 0.750000
Si Si4 0.690055 0.190055 0.750000
Si Si5 0.420899 0.265169 0.805645
Si Si6 0.487303 0.765232 0.411644
O O1 0.740919 0.744652 0.139646
O O2 0.698494 0.916833 0.992673
O O3 0.611531 0.716544 0.937097
O O4 0.849307 0.736536 0.951667
O O5 0.442195 0.395532 0.751725
O O6 0.624521 0.467851 0.610600
O O7 0.872826 0.501457 0.680204
O O8 0.547163 0.203602 0.772886
O O9 0.309652 0.190349 0.750000
#
# Coordination Sequence:
#
# PCOD9558917 Si02
#       6
#     8   4   2   4   8   8
#     4  12  26  48  81 112 163 219 281 345 437 527
#     4  12  24  49  85 114 162 208 287 357 428 532
#     4  12  30  48  82 118 170 206 288 374 448 524
#     4  12  28  48  73 115 168 212 269 347 435 514
#     4  12  26  49  79 117 161 211 284 354 427 527
#     4  12  25  49  78 118 155 223 274 356 438 534
#
# _framework density 23.729015
#
# number of rings (size 3 to 8) (size 9 to 14) (size 15 to 20)
#    0.000    0.000    4.706    5.294    3.294    1.882 
#    0.000    0.000    0.000    0.000    0.000    0.000 
#    0.000    0.000    0.000    0.000    0.000    0.000 
#
# Total GULP energy -189801.881718 kJ/mol
# GULP energy per Si atom -5582.408286 kJ/mol
# Density = 2.367501 g / cm^3
# Si number density = 23.729015 Si / 1000 Ang^3
#
#
#
# Elastic Constant Matrix: (Units=GPa)
#
#
# Indices 1 2 3 4 5 6 
#
# 1 87.9109 2.5802 40.2420 0.0000 0.0000 0.0000
# 2 2.5802 87.9064 40.2398 0.0000 0.0000 0.0000
# 3 40.2420 40.2398 138.3802 0.0000 0.0000 0.0000
# 4 0.0000 0.0000 0.0000 38.9659 0.0000 0.0000
# 5 0.0000 0.0000 0.0000 0.0000 38.9652 0.0000
# 6 0.0000 0.0000 0.0000 0.0000 0.0000 25.6997
#
#
#
# Elastic Compliance Matrix: (Units=1/GPa)
#
#
# Indices 1 2 3 4 5 6 
#
# 1 0.013313 0.001594 -0.004335 0.000000 0.000000 0.000000
# 2 0.001594 0.013313 -0.004335 0.000000 0.000000 0.000000
# 3 -0.004335 -0.004335 0.009748 0.000000 0.000000 0.000000
# 4 0.000000 0.000000 0.000000 0.025663 0.000000 0.000000
# 5 0.000000 0.000000 0.000000 0.000000 0.025664 0.000000
# 6 0.000000 0.000000 0.000000 0.000000 0.000000 0.038911
#
#
# Mechanical properties :
#
#
# Convention : Reuss Voigt Hill
#
# Bulk Modulus (GPa) = 45.00168 53.36905 49.18537
# Shear Modulus (GPa) = 33.74476 36.13519 34.93998
#
# Velocity S-wave (km/s) = 3.77515 3.90658 3.84143
# Velocity P-wave (km/s) = 6.16509 6.54892 6.35990
#
# Compressibility (1/GPa) = 0.02222139
#
# Stress axis : x y z
#
# Youngs Moduli (GPa) = 75.11632 75.11312 102.58948
#
# Poissons Ratio (x) = -0.11970 0.44471
# Poissons Ratio (y) = -0.11970 0.44470
# Poissons Ratio (z) = 0.32562 0.32560
#
# Static dielectric constant tensor:
#      x y z
#    x 1.619950 0.000000 0.000000 
#    y 0.000000 1.619910 0.000000 
#    z 0.000000 0.000000 1.945550 
# 
# From -- ./inp_files/3094.got.cif
#   From: 2010.05.17/outbox.cif.g08.bks.cpg/sg118_2_cif.got.tgz:3094.got - 2010.05.20 11:17:24.
