data_PCOD9558609
_publ_section_title
;
Structure prediction by ZEFSAII (Michael W. Deem and Ramdas Pophale) SiO2 
 PCOD9558609
Probable space group: P -4 N 2
;
_chemical_formula_sum "Si O2"
_cell_formula_units_Z 36
_cell_length_a 10.812036
_cell_length_b 10.812036
_cell_length_c 15.245541
_cell_angle_alpha 90.000000
_cell_angle_beta 90.000000
_cell_angle_gamma 90.000000
_cell_volume 1782.205610
_symmetry_space_group_name_H-M "P -4 N 2"
_symmetry_group_IT_number 118
_symmetry_cell_setting 'tetragonal'
loop_
_space_group_symop_operation_xyz
x,y,z
y,-x,-z
-x,-y,z
-y,x,-z
1/2+y,1/2+x,1/2-z
1/2-y,1/2-x,1/2-z
1/2-x,1/2+y,1/2+z
1/2+x,1/2-y,1/2+z
loop_
_atom_site_type_symbol
_atom_site_label
_atom_site_fract_x
_atom_site_fract_y
_atom_site_fract_z
Si Si1 0.000000 0.000000 0.792223
Si Si2 0.889674 0.140744 0.949847
Si Si3 0.000000 0.500000 0.603777
Si Si4 0.622705 0.122705 0.250000
Si Si5 0.104420 0.746582 0.532174
Si Si6 0.600825 0.368611 0.140461
O O1 0.945166 0.104057 0.855625
O O2 0.103072 0.041590 0.723360
O O3 0.794423 0.254140 0.948480
O O4 0.012509 0.166531 0.009800
O O5 0.110280 0.483547 0.675423
O O6 0.026606 0.620470 0.546743
O O7 0.622274 0.240070 0.189016
O O8 0.103034 0.802087 0.435078
O O9 0.033650 0.847311 0.593292
#
# Coordination Sequence:
#
# PCOD9558609 Si02
#       6
#     4   8   4   4   8   8
#     4  10  21  41  60  90 126 172 212 259 323 366
#     4   9  22  40  64  91 121 168 217 261 312 386
#     4   9  20  38  60  87 120 158 220 253 310 374
#     4   9  20  36  60  89 110 162 206 267 288 372
#     4  11  23  39  63  92 129 165 211 261 328 386
#     4  11  23  37  62  92 128 161 207 263 322 378
#
# _framework density 20.19969
#
# number of rings (size 3 to 8) (size 9 to 14) (size 15 to 20)
#    0.000    2.222    0.000    2.667   12.444    2.667 
#    0.000    0.000    0.000    0.667    0.000    0.000 
#    0.000    0.000    0.000    0.000    0.000    0.000 
#
# Total GULP energy -200445.731455 kJ/mol
# GULP energy per Si atom -5567.936985 kJ/mol
# Density = 2.015371 g / cm^3
# Si number density = 20.199690 Si / 1000 Ang^3
#
#
#
# Elastic Constant Matrix: (Units=GPa)
#
#
# Indices 1 2 3 4 5 6 
#
# 1 57.2366 30.9524 57.5266 0.0000 0.0000 0.0000
# 2 30.9524 57.2366 57.5266 0.0000 0.0000 0.0000
# 3 57.5266 57.5266 182.1153 0.0000 0.0000 0.0000
# 4 0.0000 0.0000 0.0000 26.3323 0.0000 0.0000
# 5 0.0000 0.0000 0.0000 0.0000 26.3323 0.0000
# 6 0.0000 0.0000 0.0000 0.0000 0.0000 34.0905
#
#
#
# Elastic Compliance Matrix: (Units=1/GPa)
#
#
# Indices 1 2 3 4 5 6 
#
# 1 0.028667 -0.009379 -0.006093 0.000000 0.000000 0.000000
# 2 -0.009379 0.028667 -0.006093 0.000000 0.000000 0.000000
# 3 -0.006093 -0.006093 0.009340 0.000000 0.000000 0.000000
# 4 0.000000 0.000000 0.000000 0.037976 0.000000 0.000000
# 5 0.000000 0.000000 0.000000 0.000000 0.037976 0.000000
# 6 0.000000 0.000000 0.000000 0.000000 0.000000 0.029334
#
#
# Mechanical properties :
#
#
# Convention : Reuss Voigt Hill
#
# Bulk Modulus (GPa) = 42.47135 65.39995 53.93565
# Shear Modulus (GPa) = 22.42791 27.38989 24.90890
#
# Velocity S-wave (km/s) = 3.33575 3.68633 3.51541
# Velocity P-wave (km/s) = 5.99230 7.11095 6.57546
#
# Compressibility (1/GPa) = 0.02354529
#
# Stress axis : x y z
#
# Youngs Moduli (GPa) = 34.88356 34.88356 107.06488
#
# Poissons Ratio (x) = 0.32717 0.65231
# Poissons Ratio (y) = 0.32717 0.65231
# Poissons Ratio (z) = 0.21253 0.21253
#
# Static dielectric constant tensor:
#      x y z
#    x 1.763420 0.000000 0.000000 
#    y 0.000000 1.763420 0.000000 
#    z 0.000000 0.000000 1.691330 
# 
# From -- ./inp_files/3105.got.cif
#   From: 2010.05.17/outbox.cif.g08.bks.cpg/sg118_2_cif.got.tgz:3105.got - 2010.05.20 11:17:24.
