data_PCOD9558561
_publ_section_title
;
Structure prediction by ZEFSAII (Michael W. Deem and Ramdas Pophale) SiO2 
 PCOD9558561
Probable space group: P -4 N 2
;
_chemical_formula_sum "Si O2"
_cell_formula_units_Z 42
_cell_length_a 8.785170
_cell_length_b 8.785170
_cell_length_c 27.068255
_cell_angle_alpha 90.000000
_cell_angle_beta 90.000000
_cell_angle_gamma 90.000000
_cell_volume 2089.106589
_symmetry_space_group_name_H-M "P -4 N 2"
_symmetry_group_IT_number 118
_symmetry_cell_setting 'tetragonal'
loop_
_space_group_symop_operation_xyz
x,y,z
y,-x,-z
-x,-y,z
-y,x,-z
1/2+y,1/2+x,1/2-z
1/2-y,1/2-x,1/2-z
1/2-x,1/2+y,1/2+z
1/2+x,1/2-y,1/2+z
loop_
_atom_site_type_symbol
_atom_site_label
_atom_site_fract_x
_atom_site_fract_y
_atom_site_fract_z
Si Si1 0.500000 0.000000 0.750000
Si Si2 0.470046 0.820782 0.055264
Si Si3 0.000000 0.000000 0.500000
Si Si4 0.504770 0.755640 0.835040
Si Si5 0.500000 0.000000 0.920236
Si Si6 0.577264 0.272518 0.504023
Si Si7 0.000000 0.500000 0.750000
Si Si8 0.985643 0.247757 0.666231
O O1 0.492843 0.142102 0.786509
O O2 0.500889 0.822813 0.112687
O O3 0.500000 0.000000 0.038868
O O4 0.529787 0.658429 0.031472
O O5 0.295858 0.815376 0.038314
O O6 0.629983 0.624826 0.831789
O O7 0.343474 0.671644 0.835696
O O8 0.529842 0.858167 0.883621
O O9 0.648506 0.045194 0.953134
O O10 0.422093 0.332322 0.478776
O O11 0.995818 0.357379 0.712950
#
# Coordination Sequence:
#
# PCOD9558561 Si02
#       8
#     2   8   2   8   4   8   2   8
#     4  10  20  44  64  94 116 168 216 278 340 430
#     4  12  25  42  68 103 141 184 244 291 357 436
#     4  12  28  44  76 108 148 204 244 300 372 442
#     4  10  23  41  66  91 126 164 226 276 348 423
#     4  11  24  40  66  92 126 180 222 283 350 426
#     4  11  25  42  61  94 137 179 227 286 354 425
#     4  12  24  42  64  98 132 174 220 284 372 410
#     4  11  24  41  64  96 130 173 221 290 347 424
#
# _framework density 20.104289000000001
#
# number of rings (size 3 to 8) (size 9 to 14) (size 15 to 20)
#    0.000    0.952    1.905    4.571    8.000    0.000 
#    0.000    0.000    0.000    9.143    0.000    0.000 
#    0.000    0.000    0.000    0.000    0.000    0.000 
#
# Total GULP energy -234054.261734 kJ/mol
# GULP energy per Si atom -5572.720517 kJ/mol
# Density = 2.005853 g / cm^3
# Si number density = 20.104289 Si / 1000 Ang^3
#
#
#
# Elastic Constant Matrix: (Units=GPa)
#
#
# Indices 1 2 3 4 5 6 
#
# 1 112.3922 29.8018 62.8870 0.0000 0.0000 0.0000
# 2 29.8018 112.3922 62.8870 0.0000 0.0000 0.0000
# 3 62.8870 62.8870 162.0799 0.0000 0.0000 0.0000
# 4 0.0000 0.0000 0.0000 18.3227 0.0000 0.0000
# 5 0.0000 0.0000 0.0000 0.0000 18.3227 0.0000
# 6 0.0000 0.0000 0.0000 0.0000 0.0000 24.4439
#
#
#
# Elastic Compliance Matrix: (Units=1/GPa)
#
#
# Indices 1 2 3 4 5 6 
#
# 1 0.011408 -0.000700 -0.004154 0.000000 0.000000 0.000000
# 2 -0.000700 0.011408 -0.004154 0.000000 0.000000 0.000000
# 3 -0.004154 -0.004154 0.009394 0.000000 0.000000 0.000000
# 4 0.000000 0.000000 0.000000 0.054577 0.000000 0.000000
# 5 0.000000 0.000000 0.000000 0.000000 0.054577 0.000000
# 6 0.000000 0.000000 0.000000 0.000000 0.000000 0.040910
#
#
# Mechanical properties :
#
#
# Convention : Reuss Voigt Hill
#
# Bulk Modulus (GPa) = 70.46939 77.55729 74.01334
# Shear Modulus (GPa) = 24.38768 27.63711 26.01240
#
# Velocity S-wave (km/s) = 3.48668 3.71170 3.60095
# Velocity P-wave (km/s) = 7.16500 7.55183 7.36096
#
# Compressibility (1/GPa) = 0.01419056
#
# Stress axis : x y z
#
# Youngs Moduli (GPa) = 87.66045 87.66045 106.45488
#
# Poissons Ratio (x) = 0.06139 0.44226
# Poissons Ratio (y) = 0.06139 0.44226
# Poissons Ratio (z) = 0.36418 0.36418
#
# Static dielectric constant tensor:
#      x y z
#    x 1.795010 0.000000 0.000000 
#    y 0.000000 1.795010 0.000000 
#    z 0.000000 0.000000 1.668000 
# 
# From -- ./inp_files/6555.got.cif
#   From: 2010.05.17/outbox.cif.g08.bks.cpg/sg118_4_cif.got.tgz:6555.got - 2010.05.20 11:17:24.
