data_PCOD9558689
_publ_section_title
;
Structure prediction by ZEFSAII (Michael W. Deem and Ramdas Pophale) SiO2 
 PCOD9558689
Probable space group: P -4 N 2
;
_chemical_formula_sum "Si O2"
_cell_formula_units_Z 40
_cell_length_a 8.970318
_cell_length_b 8.970318
_cell_length_c 22.858495
_cell_angle_alpha 90.000000
_cell_angle_beta 90.000000
_cell_angle_gamma 90.000000
_cell_volume 1839.345489
_symmetry_space_group_name_H-M "P -4 N 2"
_symmetry_group_IT_number 118
_symmetry_cell_setting 'tetragonal'
loop_
_space_group_symop_operation_xyz
x,y,z
y,-x,-z
-x,-y,z
-y,x,-z
1/2+y,1/2+x,1/2-z
1/2-y,1/2-x,1/2-z
1/2-x,1/2+y,1/2+z
1/2+x,1/2-y,1/2+z
loop_
_atom_site_type_symbol
_atom_site_label
_atom_site_fract_x
_atom_site_fract_y
_atom_site_fract_z
Si Si1 0.123421 0.601984 0.883968
Si Si2 0.872901 0.884306 0.587349
Si Si3 0.344665 0.070775 0.982068
Si Si4 0.865311 0.382459 0.184025
Si Si5 0.434466 0.662074 0.612195
O O1 0.248885 0.479326 0.895052
O O2 0.173101 0.766042 0.862477
O O3 0.000000 0.500000 0.851886
O O4 0.063119 0.651505 0.948199
O O5 0.742993 0.843632 0.540425
O O6 0.776121 0.932705 0.644776
O O7 0.000000 0.000000 0.567388
O O8 0.500000 0.000000 0.960247
O O9 0.225384 0.960442 0.953175
O O10 0.832136 0.332136 0.250000
O O11 0.000000 0.500000 0.186549
O O12 0.944541 0.250766 0.149582
O O13 0.500000 0.500000 0.612066
#
# Coordination Sequence:
#
# PCOD9558689 Si02
#       5
#     8   8   8   8   8
#     4  11  24  36  58  91 130 168 211 260 321 381
#     4  11  22  37  59  89 124 157 207 271 317 373
#     4  10  23  37  56  85 126 179 215 248 313 401
#     4  10  22  44  69  91 119 167 221 270 333 407
#     4  11  23  40  63  90 130 170 220 269 321 390
#
# _framework density 21.746865
#
# number of rings (size 3 to 8) (size 9 to 14) (size 15 to 20)
#    0.000    1.400    0.000    7.200   11.200    0.800 
#    0.000    0.000    0.000    4.200    0.000    0.000 
#    0.000    0.000    0.000    0.000    0.000    0.000 
#
# Total GULP energy -223061.433118 kJ/mol
# GULP energy per Si atom -5576.535828 kJ/mol
# Density = 2.169737 g / cm^3
# Si number density = 21.746865 Si / 1000 Ang^3
#
#
#
# Elastic Constant Matrix: (Units=GPa)
#
#
# Indices 1 2 3 4 5 6 
#
# 1 127.2343 17.2215 -14.9214 0.0000 0.0000 0.0000
# 2 17.2215 127.2343 -14.9214 0.0000 0.0000 0.0000
# 3 -14.9214 -14.9214 67.8537 0.0000 0.0000 0.0000
# 4 0.0000 0.0000 0.0000 9.7294 0.0000 0.0000
# 5 0.0000 0.0000 0.0000 0.0000 9.7294 0.0000
# 6 0.0000 0.0000 0.0000 0.0000 0.0000 43.2405
#
#
#
# Elastic Compliance Matrix: (Units=1/GPa)
#
#
# Indices 1 2 3 4 5 6 
#
# 1 0.008171 -0.000919 0.001595 0.000000 0.000000 0.000000
# 2 -0.000919 0.008171 0.001595 0.000000 0.000000 0.000000
# 3 0.001595 0.001595 0.015439 0.000000 0.000000 0.000000
# 4 0.000000 0.000000 0.000000 0.102781 0.000000 0.000000
# 5 0.000000 0.000000 0.000000 0.000000 0.102781 0.000000
# 6 0.000000 0.000000 0.000000 0.000000 0.000000 0.023126
#
#
# Mechanical properties :
#
#
# Convention : Reuss Voigt Hill
#
# Bulk Modulus (GPa) = 27.53155 33.00885 30.27020
# Shear Modulus (GPa) = 18.65419 34.86942 26.76180
#
# Velocity S-wave (km/s) = 2.93198 4.00862 3.51180
# Velocity P-wave (km/s) = 4.91421 6.05285 5.51301
#
# Compressibility (1/GPa) = 0.03632196
#
# Stress axis : x y z
#
# Youngs Moduli (GPa) = 122.38522 122.38522 64.77114
#
# Poissons Ratio (x) = 0.11246 -0.10329
# Poissons Ratio (y) = 0.11246 -0.10329
# Poissons Ratio (z) = -0.19517 -0.19517
#
# Static dielectric constant tensor:
#      x y z
#    x 1.867880 0.000000 0.000000 
#    y 0.000000 1.867880 0.000000 
#    z 0.000000 0.000000 1.855620 
# 
# From -- ./inp_files/5992.got.cif
#   From: 2010.05.17/outbox.cif.g08.bks.cpg/sg118_3_cif.got.tgz:5992.got - 2010.05.20 11:17:24.
