data_PCOD9558716
_publ_section_title
;
Structure prediction by ZEFSAII (Michael W. Deem and Ramdas Pophale) SiO2 
 PCOD9558716
Probable space group: P -4 N 2
;
_chemical_formula_sum "Si O2"
_cell_formula_units_Z 38
_cell_length_a 11.283910
_cell_length_b 11.283910
_cell_length_c 14.398663
_cell_angle_alpha 90.000000
_cell_angle_beta 90.000000
_cell_angle_gamma 90.000000
_cell_volume 1833.333163
_symmetry_space_group_name_H-M "P -4 N 2"
_symmetry_group_IT_number 118
_symmetry_cell_setting 'tetragonal'
loop_
_space_group_symop_operation_xyz
x,y,z
y,-x,-z
-x,-y,z
-y,x,-z
1/2+y,1/2+x,1/2-z
1/2-y,1/2-x,1/2-z
1/2-x,1/2+y,1/2+z
1/2+x,1/2-y,1/2+z
loop_
_atom_site_type_symbol
_atom_site_label
_atom_site_fract_x
_atom_site_fract_y
_atom_site_fract_z
Si Si1 0.112272 0.331383 0.456955
Si Si2 0.500000 0.000000 0.250000
Si Si3 0.827815 0.672186 0.250000
Si Si4 0.870668 0.953803 0.271477
Si Si5 0.498137 0.780125 0.388953
Si Si6 0.385724 0.232989 0.056384
O O1 0.125529 0.370171 0.349957
O O2 0.189271 0.411686 0.526797
O O3 0.155277 0.194730 0.469623
O O4 0.975280 0.327771 0.485751
O O5 0.494343 0.888602 0.317069
O O6 0.858786 0.812746 0.251937
O O7 0.832929 0.020630 0.176762
O O8 0.775521 0.964233 0.355309
O O9 0.000000 0.000000 0.299677
O O10 0.634160 0.787115 0.421254
#
# Coordination Sequence:
#
# PCOD9558716 Si02
#       6
#     8   2   4   8   8   8
#     4  11  24  39  71  94 135 189 228 286 354 420
#     4  12  18  40  72  90 130 170 234 284 342 402
#     4  10  23  48  57 101 157 174 220 306 361 403
#     4  11  22  41  70 100 138 182 227 301 364 410
#     4  12  20  43  69  97 132 180 232 288 347 416
#     4  11  23  42  66 100 133 180 234 284 347 425
#
# _framework density 20.727273
#
# number of rings (size 3 to 8) (size 9 to 14) (size 15 to 20)
#    0.000    0.842    8.421    0.000    5.895    1.684 
#    0.000    2.105    4.632    0.000    0.000    0.000 
#    0.000    0.000    0.000    0.000    0.000    0.000 
#
# Total GULP energy -211885.717776 kJ/mol
# GULP energy per Si atom -5575.939941 kJ/mol
# Density = 2.068010 g / cm^3
# Si number density = 20.727273 Si / 1000 Ang^3
#
#
#
# Elastic Constant Matrix: (Units=GPa)
#
#
# Indices 1 2 3 4 5 6 
#
# 1 43.0297 14.2216 26.9505 0.0000 0.0000 0.0000
# 2 14.2216 43.0299 26.9513 0.0000 0.0000 0.0000
# 3 26.9505 26.9513 158.2900 0.0000 0.0000 0.0000
# 4 0.0000 0.0000 0.0000 30.5463 0.0000 0.0000
# 5 0.0000 0.0000 0.0000 0.0000 30.5460 0.0000
# 6 0.0000 0.0000 0.0000 0.0000 0.0000 21.2461
#
#
#
# Elastic Compliance Matrix: (Units=1/GPa)
#
#
# Indices 1 2 3 4 5 6 
#
# 1 0.027757 -0.006956 -0.003542 0.000000 0.000000 0.000000
# 2 -0.006956 0.027757 -0.003542 0.000000 0.000000 0.000000
# 3 -0.003542 -0.003542 0.007524 0.000000 0.000000 0.000000
# 4 0.000000 0.000000 0.000000 0.032737 0.000000 0.000000
# 5 0.000000 0.000000 0.000000 0.000000 0.032737 0.000000
# 6 0.000000 0.000000 0.000000 0.000000 0.000000 0.047068
#
#
# Mechanical properties :
#
#
# Convention : Reuss Voigt Hill
#
# Bulk Modulus (GPa) = 28.60462 42.28848 35.44655
# Shear Modulus (GPa) = 23.22230 28.21610 25.71920
#
# Velocity S-wave (km/s) = 3.35083 3.69359 3.52638
# Velocity P-wave (km/s) = 5.36667 6.21585 5.80680
#
# Compressibility (1/GPa) = 0.03495939
#
# Stress axis : x y z
#
# Youngs Moduli (GPa) = 36.02725 36.02716 132.91601
#
# Poissons Ratio (x) = 0.25059 0.47073
# Poissons Ratio (y) = 0.25059 0.47076
# Poissons Ratio (z) = 0.12759 0.12760
#
# Static dielectric constant tensor:
#      x y z
#    x 1.755820 0.000000 0.000000 
#    y 0.000000 1.755820 0.000000 
#    z 0.000000 0.000000 1.941490 
# 
# From -- ./inp_files/4104.got.cif
#   From: 2010.05.17/outbox.cif.g08.bks.cpg/sg118_3_cif.got.tgz:4104.got - 2010.05.20 11:17:24.
