data_PCOD9558098
_publ_section_title
;
Structure prediction by ZEFSAII (Michael W. Deem and Ramdas Pophale) SiO2 
 PCOD9558098
Probable space group: P -4 B 2
;
_chemical_formula_sum "Si O2"
_cell_formula_units_Z 64
_cell_length_a 23.075577
_cell_length_b 23.075577
_cell_length_c 5.519126
_cell_angle_alpha 90.000000
_cell_angle_beta 90.000000
_cell_angle_gamma 90.000000
_cell_volume 2938.836652
_symmetry_space_group_name_H-M "P -4 B 2"
_symmetry_group_IT_number 117
_symmetry_cell_setting 'tetragonal'
loop_
_space_group_symop_operation_xyz
x,y,z
y,-x,-z
-x,-y,z
-y,x,-z
1/2+y,1/2+x,-z
1/2-y,1/2-x,-z
1/2-x,1/2+y,z
1/2+x,1/2-y,z
loop_
_atom_site_type_symbol
_atom_site_label
_atom_site_fract_x
_atom_site_fract_y
_atom_site_fract_z
Si Si1 0.329394 0.259461 0.988019
Si Si2 0.334320 0.528208 0.580325
Si Si3 0.140734 0.158283 0.671438
Si Si4 0.744228 0.165126 0.672909
Si Si5 0.138821 0.409969 0.757351
Si Si6 0.306933 0.032621 0.628327
Si Si7 0.716908 0.943897 0.128160
Si Si8 0.321738 0.472044 0.080560
O O1 0.281373 0.294336 0.842409
O O2 0.390622 0.261693 0.851635
O O3 0.304815 0.195186 0.000000
O O4 0.335038 0.292928 0.240148
O O5 0.361615 0.592227 0.585796
O O6 0.263390 0.529185 0.591876
O O7 0.349440 0.496734 0.329532
O O8 0.348774 0.495799 0.832279
O O9 0.128483 0.209145 0.480742
O O10 0.096657 0.170979 0.891495
O O11 0.706031 0.206031 0.500000
O O12 0.698301 0.125007 0.806594
O O13 0.113003 0.386998 0.500000
O O14 0.159696 0.474351 0.696447
O O15 0.100115 0.399886 0.000000
O O16 0.323811 0.053130 0.360386
O O17 0.313387 0.069189 0.872210
O O18 0.755412 0.002608 0.093607
#
# Coordination Sequence:
#
# PCOD9558098 Si02
#       8
#     8   8   8   8   8   8   8   8
#     4  12  24  38  59  90 135 168 206 264 325 401
#     4  10  22  40  57  87 111 160 217 262 311 375
#     4  12  24  39  63  89 121 168 223 262 324 398
#     4  11  23  34  53  84 127 168 201 245 319 392
#     4  11  24  38  58  91 131 166 209 260 318 390
#     4  10  19  38  59  79 118 165 209 254 298 364
#     4  10  21  38  58  86 117 167 218 253 305 377
#     4  10  22  37  62  83 112 156 213 268 313 364
#
# _framework density 21.777325000000001
#
# number of rings (size 3 to 8) (size 9 to 14) (size 15 to 20)
#    0.000    1.250    3.750    4.125    7.000    0.000 
#    0.000    0.000    0.000    2.250    0.000    0.000 
#    0.000    7.500    0.000    0.000    0.000    0.000 
#
# Total GULP energy -357125.928503 kJ/mol
# GULP energy per Si atom -5580.092633 kJ/mol
# Density = 2.172776 g / cm^3
# Si number density = 21.777325 Si / 1000 Ang^3
#
#
#
# Elastic Constant Matrix: (Units=GPa)
#
#
# Indices 1 2 3 4 5 6 
#
# 1 52.8224 1.0737 8.7478 0.0000 0.0000 0.0000
# 2 1.0737 52.8226 8.7468 0.0000 0.0000 0.0000
# 3 8.7478 8.7468 135.4456 0.0000 0.0000 0.0000
# 4 0.0000 0.0000 0.0000 18.5313 0.0000 0.0000
# 5 0.0000 0.0000 0.0000 0.0000 18.5292 0.0000
# 6 0.0000 0.0000 0.0000 0.0000 0.0000 10.1042
#
#
#
# Elastic Compliance Matrix: (Units=1/GPa)
#
#
# Indices 1 2 3 4 5 6 
#
# 1 0.019138 -0.000186 -0.001224 0.000000 0.000000 0.000000
# 2 -0.000186 0.019138 -0.001224 0.000000 0.000000 0.000000
# 3 -0.001224 -0.001224 0.007541 0.000000 0.000000 0.000000
# 4 0.000000 0.000000 0.000000 0.053963 0.000000 0.000000
# 5 0.000000 0.000000 0.000000 0.000000 0.053969 0.000000
# 6 0.000000 0.000000 0.000000 0.000000 0.000000 0.098969
#
#
# Mechanical properties :
#
#
# Convention : Reuss Voigt Hill
#
# Bulk Modulus (GPa) = 24.66187 30.91412 27.78800
# Shear Modulus (GPa) = 18.41612 24.26776 21.34194
#
# Velocity S-wave (km/s) = 2.91117 3.34182 3.13390
# Velocity P-wave (km/s) = 4.75910 5.39599 5.08752
#
# Compressibility (1/GPa) = 0.04054842
#
# Stress axis : x y z
#
# Youngs Moduli (GPa) = 52.25243 52.25279 132.60623
#
# Poissons Ratio (x) = 0.00974 0.16231
# Poissons Ratio (y) = 0.00974 0.16229
# Poissons Ratio (z) = 0.06396 0.06395
#
# Static dielectric constant tensor:
#      x y z
#    x 1.861000 0.000000 0.000000 
#    y 0.000000 1.861000 0.000000 
#    z 0.000000 0.000000 1.957950 
# 
# From -- ./inp_files/972.got.cif
#   From: 2010.05.17/outbox.cif.g08.bks.cpg/sg117_1_cif.got.tgz:972.got - 2010.05.20 11:15:09.
