data_PCOD9558362
_publ_section_title
;
Structure prediction by ZEFSAII (Michael W. Deem and Ramdas Pophale) SiO2 
 PCOD9558362
Probable space group: P -4 B 2
;
_chemical_formula_sum "Si O2"
_cell_formula_units_Z 26
_cell_length_a 15.197327
_cell_length_b 15.197327
_cell_length_c 4.769419
_cell_angle_alpha 90.000000
_cell_angle_beta 90.000000
_cell_angle_gamma 90.000000
_cell_volume 1101.539041
_symmetry_space_group_name_H-M "P -4 B 2"
_symmetry_group_IT_number 117
_symmetry_cell_setting 'tetragonal'
loop_
_space_group_symop_operation_xyz
x,y,z
y,-x,-z
-x,-y,z
-y,x,-z
1/2+y,1/2+x,-z
1/2-y,1/2-x,-z
1/2-x,1/2+y,z
1/2+x,1/2-y,z
loop_
_atom_site_type_symbol
_atom_site_label
_atom_site_fract_x
_atom_site_fract_y
_atom_site_fract_z
Si Si1 0.500000 0.500000 0.500000
Si Si2 0.206159 0.381267 0.745955
Si Si3 0.110741 0.832491 0.456715
Si Si4 0.713930 0.928211 0.022501
O O1 0.415717 0.549954 0.632526
O O2 0.135017 0.364984 0.500000
O O3 0.300022 0.364254 0.601299
O O4 0.205804 0.476504 0.885955
O O5 0.183713 0.316288 0.000000
O O6 0.127328 0.777643 0.179809
O O7 0.067610 0.764293 0.680231
O O8 0.621488 0.878513 0.000000
#
# Coordination Sequence:
#
# PCOD9558362 Si02
#       4
#     2   8   8   8
#     4  12  28  46  80 114 140 182 232 314 360 434
#     4  12  26  46  75 105 145 193 240 293 354 425
#     4  12  26  47  73 109 147 182 236 300 373 420
#     4  12  27  48  73 105 146 194 240 293 355 429
#
# _framework density 23.603342999999999
#
# number of rings (size 3 to 8) (size 9 to 14) (size 15 to 20)
#    0.000    0.000    3.077    7.385    4.308    1.846 
#    0.000    1.538    0.000    0.000    0.000    0.000 
#    0.000    0.000    0.000    0.000    0.000    0.000 
#
# Total GULP energy -145516.788515 kJ/mol
# GULP energy per Si atom -5596.799558 kJ/mol
# Density = 2.354962 g / cm^3
# Si number density = 23.603343 Si / 1000 Ang^3
#
#
#
# Elastic Constant Matrix: (Units=GPa)
#
#
# Indices 1 2 3 4 5 6 
#
# 1 95.8750 52.8551 15.4413 0.0000 0.0000 0.0000
# 2 52.8551 95.8620 15.4411 0.0000 0.0000 0.0000
# 3 15.4413 15.4411 110.7288 0.0000 0.0000 0.0000
# 4 0.0000 0.0000 0.0000 21.1476 0.0000 0.0000
# 5 0.0000 0.0000 0.0000 0.0000 21.1603 0.0000
# 6 0.0000 0.0000 0.0000 0.0000 0.0000 31.5509
#
#
#
# Elastic Compliance Matrix: (Units=1/GPa)
#
#
# Indices 1 2 3 4 5 6 
#
# 1 0.015085 -0.008162 -0.000965 0.000000 0.000000 0.000000
# 2 -0.008162 0.015088 -0.000966 0.000000 0.000000 0.000000
# 3 -0.000965 -0.000966 0.009300 0.000000 0.000000 0.000000
# 4 0.000000 0.000000 0.000000 0.047287 0.000000 0.000000
# 5 0.000000 0.000000 0.000000 0.000000 0.047258 0.000000
# 6 0.000000 0.000000 0.000000 0.000000 0.000000 0.031695
#
#
# Mechanical properties :
#
#
# Convention : Reuss Voigt Hill
#
# Bulk Modulus (GPa) = 51.84914 52.21565 52.03239
# Shear Modulus (GPa) = 25.99717 29.35365 27.67541
#
# Velocity S-wave (km/s) = 3.32236 3.53033 3.42792
# Velocity P-wave (km/s) = 6.06069 6.22799 6.14491
#
# Compressibility (1/GPa) = 0.01928672
#
# Stress axis : x y z
#
# Youngs Moduli (GPa) = 66.28907 66.27988 107.52242
#
# Poissons Ratio (x) = 0.54098 0.10381
# Poissons Ratio (y) = 0.54106 0.10384
# Poissons Ratio (z) = 0.06400 0.06401
#
# Static dielectric constant tensor:
#      x y z
#    x 1.923600 0.000000 0.000000 
#    y 0.000000 1.923610 0.000000 
#    z 0.000000 0.000000 1.911500 
# 
# From -- ./inp_files/303.got.cif
#   From: 2010.05.17/outbox.cif.g08.bks.cpg/sg117_1_cif.got.tgz:303.got - 2010.05.20 11:15:09.
