data_PCOD9558710
_publ_section_title
;
Structure prediction by ZEFSAII (Michael W. Deem and Ramdas Pophale) SiO2 
 PCOD9558710
Probable space group: P -4 N 2
;
_chemical_formula_sum "Si O2"
_cell_formula_units_Z 40
_cell_length_a 12.115023
_cell_length_b 12.115023
_cell_length_c 12.677350
_cell_angle_alpha 90.000000
_cell_angle_beta 90.000000
_cell_angle_gamma 90.000000
_cell_volume 1860.702609
_symmetry_space_group_name_H-M "P -4 N 2"
_symmetry_group_IT_number 118
_symmetry_cell_setting 'tetragonal'
loop_
_space_group_symop_operation_xyz
x,y,z
y,-x,-z
-x,-y,z
-y,x,-z
1/2+y,1/2+x,1/2-z
1/2-y,1/2-x,1/2-z
1/2-x,1/2+y,1/2+z
1/2+x,1/2-y,1/2+z
loop_
_atom_site_type_symbol
_atom_site_label
_atom_site_fract_x
_atom_site_fract_y
_atom_site_fract_z
Si Si1 0.385789 0.990375 0.554257
Si Si2 0.794541 0.735732 0.000813
Si Si3 0.611372 0.828919 0.364153
Si Si4 0.381010 0.446009 0.633973
Si Si5 0.777744 0.876340 0.680360
O O1 0.397047 0.077621 0.456411
O O2 0.280055 0.021400 0.623479
O O3 0.500000 0.000000 0.616170
O O4 0.374891 0.865025 0.518766
O O5 0.856143 0.843183 0.953357
O O6 0.708657 0.694689 0.912896
O O7 0.731495 0.774178 0.104987
O O8 0.615422 0.884579 0.250000
O O9 0.523828 0.727716 0.359553
O O10 0.500000 0.500000 0.612868
O O11 0.396117 0.380014 0.743680
O O12 0.684836 0.815165 0.750000
#
# Coordination Sequence:
#
# PCOD9558710 Si02
#       5
#     8   8   8   8   8
#     4  11  22  43  69  97 134 178 226 283 339 407
#     4  10  23  43  66  96 138 173 227 285 341 402
#     4  11  25  41  67 101 132 181 235 277 344 410
#     4  11  24  41  70  97 135 178 225 283 344 408
#     4   9  22  43  64  95 134 175 215 278 341 403
#
# _framework density 21.497257999999999
#
# number of rings (size 3 to 8) (size 9 to 14) (size 15 to 20)
#    0.000    1.600    2.000    1.200    5.600    2.400 
#    0.000    0.000    0.000    0.000    0.000    0.000 
#    0.000    0.000    0.000    0.000    0.000    0.000 
#
# Total GULP energy -223264.319450 kJ/mol
# GULP energy per Si atom -5581.607986 kJ/mol
# Density = 2.144833 g / cm^3
# Si number density = 21.497258 Si / 1000 Ang^3
#
#
#
# Elastic Constant Matrix: (Units=GPa)
#
#
# Indices 1 2 3 4 5 6 
#
# 1 81.5796 28.1910 17.8409 0.0000 0.0000 0.0000
# 2 28.1910 81.5789 17.8406 0.0000 0.0000 0.0000
# 3 17.8409 17.8406 83.8274 0.0000 0.0000 0.0000
# 4 0.0000 0.0000 0.0000 5.3481 0.0000 0.0000
# 5 0.0000 0.0000 0.0000 0.0000 5.3492 0.0000
# 6 0.0000 0.0000 0.0000 0.0000 0.0000 43.0227
#
#
#
# Elastic Compliance Matrix: (Units=1/GPa)
#
#
# Indices 1 2 3 4 5 6 
#
# 1 0.014259 -0.004472 -0.002083 0.000000 0.000000 0.000000
# 2 -0.004472 0.014259 -0.002083 0.000000 0.000000 0.000000
# 3 -0.002083 -0.002083 0.012816 0.000000 0.000000 0.000000
# 4 0.000000 0.000000 0.000000 0.186984 0.000000 0.000000
# 5 0.000000 0.000000 0.000000 0.000000 0.186943 0.000000
# 6 0.000000 0.000000 0.000000 0.000000 0.000000 0.023244
#
#
# Mechanical properties :
#
#
# Convention : Reuss Voigt Hill
#
# Bulk Modulus (GPa) = 41.56596 41.63675 41.60136
# Shear Modulus (GPa) = 10.78054 22.95156 16.86605
#
# Velocity S-wave (km/s) = 2.24181 3.27104 2.80405
# Velocity P-wave (km/s) = 5.10670 5.80316 5.46604
#
# Compressibility (1/GPa) = 0.02405815
#
# Stress axis : x y z
#
# Youngs Moduli (GPa) = 70.13208 70.13159 78.02818
#
# Poissons Ratio (x) = 0.31362 0.16253
# Poissons Ratio (y) = 0.31362 0.16253
# Poissons Ratio (z) = 0.14608 0.14608
#
# Static dielectric constant tensor:
#      x y z
#    x 1.839050 0.000000 0.000000 
#    y 0.000000 1.839040 0.000000 
#    z 0.000000 0.000000 1.776490 
# 
# From -- ./inp_files/4095.got.cif
#   From: 2010.05.17/outbox.cif.g08.bks.cpg/sg118_3_cif.got.tgz:4095.got - 2010.05.20 11:17:24.
