data_PCOD9558961
_publ_section_title
;
Structure prediction by ZEFSAII (Michael W. Deem and Ramdas Pophale) SiO2 
 PCOD9558961
Probable space group: I -4 M 2
;
_chemical_formula_sum "Si O2"
_cell_formula_units_Z 128
_cell_length_a 17.629125
_cell_length_b 17.629125
_cell_length_c 24.965603
_cell_angle_alpha 90.000000
_cell_angle_beta 90.000000
_cell_angle_gamma 90.000000
_cell_volume 7758.961099
_symmetry_space_group_name_H-M "I -4 M 2"
_symmetry_group_IT_number 119
_symmetry_cell_setting 'tetragonal'
loop_
_space_group_symop_operation_xyz
x,y,z
y,-x,-z
-x,-y,z
-y,x,-z
y,x,-z
-y,-x,-z
-x,y,z
x,-y,z
1/2+x,1/2+y,1/2+z
1/2+y,1/2-x,1/2-z
1/2-x,1/2-y,1/2+z
1/2-y,1/2+x,1/2-z
1/2+y,1/2+x,1/2-z
1/2-y,1/2-x,1/2-z
1/2-x,1/2+y,1/2+z
1/2+x,1/2-y,1/2+z
loop_
_atom_site_type_symbol
_atom_site_label
_atom_site_fract_x
_atom_site_fract_y
_atom_site_fract_z
Si Si1 0.912866 0.291666 0.524627
Si Si2 0.911837 0.696557 0.927854
Si Si3 0.917167 0.120525 0.561003
Si Si4 0.744319 0.365883 0.090925
Si Si5 0.298422 0.706139 0.626310
Si Si6 0.844367 0.416878 0.182041
Si Si7 0.414572 0.690455 0.529026
Si Si8 0.913844 0.262875 0.209159
O O1 0.875195 0.359363 0.557808
O O2 0.913524 0.212072 0.556340
O O3 0.866374 0.272286 0.470546
O O4 0.000000 0.308790 0.510133
O O5 0.867757 0.746758 0.883300
O O6 0.000000 0.680926 0.915051
O O7 0.910753 0.746194 0.982666
O O8 0.909434 0.090567 0.500000
O O9 0.840130 0.099685 0.591225
O O10 0.000000 0.098214 0.582051
O O11 0.748513 0.281675 0.116168
O O12 0.802989 0.413457 0.125593
O O13 0.359182 0.707638 0.577893
O O14 0.348110 0.714420 0.680339
O O15 0.877259 0.500000 0.192491
O O16 0.902765 0.347874 0.185263
O O17 0.779982 0.403094 0.227744
O O18 0.385428 0.614573 0.500000
O O19 0.500000 0.684334 0.548466
O O20 0.000000 0.235941 0.199878
#
# Coordination Sequence:
#
# PCOD9558961 Si02
#       8
#    16  16  16  16  16  16  16  16
#     4  10  18  29  45  68  94 126 159 186 228 281
#     4  10  19  30  44  66  92 122 156 195 239 280
#     4   9  18  29  45  67  92 122 157 190 220 264
#     4  10  17  29  50  65  91 127 159 191 230 275
#     4  10  17  29  49  64  86 121 161 197 229 279
#     4   9  18  31  46  71  99 123 157 196 237 282
#     4   9  17  26  40  60  84 113 149 188 227 270
#     4   9  18  31  49  70  93 125 161 197 239 280
#
# _framework density 16.497053000000001
#
# number of rings (size 3 to 8) (size 9 to 14) (size 15 to 20)
#    0.000    2.500    2.500    0.750    0.000    1.250 
#    0.000    1.250    0.000    3.375    0.000    1.750 
#    0.000    0.000    0.000    0.000    0.250    0.000 
#
# Total GULP energy -356330.560333 kJ/mol
# GULP energy per Si atom -5567.665005 kJ/mol
# Density = 1.645951 g / cm^3
# Si number density = 16.497053 Si / 1000 Ang^3
#
#
#
# Elastic Constant Matrix: (Units=GPa)
#
#
# Indices 1 2 3 4 5 6 
#
# 1 70.4155 6.0554 -3.7346 0.0000 0.0000 0.0000
# 2 6.0554 70.4159 -3.7349 0.0000 0.0000 0.0000
# 3 -3.7346 -3.7349 18.9607 0.0000 0.0000 0.0000
# 4 0.0000 0.0000 0.0000 13.0459 0.0000 0.0000
# 5 0.0000 0.0000 0.0000 0.0000 13.0458 0.0000
# 6 0.0000 0.0000 0.0000 0.0000 0.0000 0.2907
#
#
#
# Elastic Compliance Matrix: (Units=1/GPa)
#
#
# Indices 1 2 3 4 5 6 
#
# 1 0.014435 -0.001102 0.002626 0.000000 0.000000 0.000000
# 2 -0.001102 0.014435 0.002626 0.000000 0.000000 0.000000
# 3 0.002626 0.002626 0.053775 0.000000 0.000000 0.000000
# 4 0.000000 0.000000 0.000000 0.076652 0.000000 0.000000
# 5 0.000000 0.000000 0.000000 0.000000 0.076653 0.000000
# 6 0.000000 0.000000 0.000000 0.000000 0.000000 3.439717
#
#
# Mechanical properties :
#
#
# Convention : Reuss Voigt Hill
#
# Bulk Modulus (GPa) = 10.99539 17.44043 14.21791
# Shear Modulus (GPa) = 1.35220 16.02358 8.68789
#
# Velocity S-wave (km/s) = 0.90633 3.11995 2.29734
# Velocity P-wave (km/s) = 2.78833 4.85526 3.95906
#
# Compressibility (1/GPa) = 0.09094724
#
# Stress axis : x y z
#
# Youngs Moduli (GPa) = 69.27378 69.27402 18.59594
#
# Poissons Ratio (x) = 0.07635 -0.04884
# Poissons Ratio (y) = 0.07635 -0.04884
# Poissons Ratio (z) = -0.18193 -0.18194
#
# Static dielectric constant tensor:
#      x y z
#    x 1.576330 0.000000 0.000000 
#    y 0.000000 1.576330 0.000000 
#    z 0.000000 0.000000 1.550990 
# 
# From -- ./inp_files/9043.got.cif
#   From: 2010.05.17/outbox.cif.g08.bks.cpg/sg119_5_cif.got.tgz:9043.got - 2010.05.20 11:21:29.
