data_PCOD9558035
_publ_section_title
;
Structure prediction by ZEFSAII (Michael W. Deem and Ramdas Pophale) SiO2 
 PCOD9558035
Probable space group: P -4 C 2
;
_chemical_formula_sum "Si O2"
_cell_formula_units_Z 40
_cell_length_a 7.392171
_cell_length_b 7.392171
_cell_length_c 28.985049
_cell_angle_alpha 90.000000
_cell_angle_beta 90.000000
_cell_angle_gamma 90.000000
_cell_volume 1583.864585
_symmetry_space_group_name_H-M "P -4 C 2"
_symmetry_group_IT_number 116
_symmetry_cell_setting 'tetragonal'
loop_
_space_group_symop_operation_xyz
x,y,z
y,-x,-z
-x,-y,z
-y,x,-z
y,x,1/2-z
-y,-x,1/2-z
-x,y,1/2+z
x,-y,1/2+z
loop_
_atom_site_type_symbol
_atom_site_label
_atom_site_fract_x
_atom_site_fract_y
_atom_site_fract_z
Si Si1 0.175172 0.257674 0.042377
Si Si2 0.671010 0.902690 0.715944
Si Si3 0.860300 0.237016 0.444294
Si Si4 0.709152 0.461076 0.116462
Si Si5 0.664707 0.718742 0.196266
O O1 0.191368 0.416212 0.078587
O O2 0.970142 0.184418 0.041858
O O3 0.278439 0.074420 0.058979
O O4 0.213942 0.331211 0.990892
O O5 0.806506 0.806506 0.750000
O O6 0.549794 0.760385 0.686841
O O7 0.500000 0.000000 0.741970
O O8 0.751796 0.080109 0.690894
O O9 0.746061 0.259556 0.397861
O O10 0.500000 0.500000 0.108005
O O11 0.748194 0.564759 0.164624
O O12 0.667885 0.667885 0.250000
#
# Coordination Sequence:
#
# PCOD9558035 Si02
#       5
#     8   8   8   8   8
#     4   9  21  45  66  99 142 188 247 299 360 439
#     4   8  20  40  69  92 133 186 233 300 380 439
#     4   9  21  44  71  93 143 196 235 305 367 425
#     4  12  26  37  66 107 142 185 242 292 375 445
#     4   9  23  43  63  95 136 180 239 305 366 445
#
# _framework density 25.254684999999998
#
# number of rings (size 3 to 8) (size 9 to 14) (size 15 to 20)
#    1.200    1.200    0.000    1.800    5.600    4.400 
#    7.200    2.000    0.000    0.000    0.000    0.000 
#    0.000    0.000    0.000    0.000    0.000    0.000 
#
# Total GULP energy -222857.644201 kJ/mol
# GULP energy per Si atom -5571.441105 kJ/mol
# Density = 2.519720 g / cm^3
# Si number density = 25.254685 Si / 1000 Ang^3
#
#
#
# Elastic Constant Matrix: (Units=GPa)
#
#
# Indices 1 2 3 4 5 6 
#
# 1 76.6563 7.3933 25.5682 0.0000 0.0000 0.0000
# 2 7.3933 76.6563 25.5682 0.0000 0.0000 0.0000
# 3 25.5682 25.5682 145.4936 0.0000 0.0000 0.0000
# 4 0.0000 0.0000 0.0000 37.4756 0.0000 0.0000
# 5 0.0000 0.0000 0.0000 0.0000 37.4756 0.0000
# 6 0.0000 0.0000 0.0000 0.0000 0.0000 27.7776
#
#
#
# Elastic Compliance Matrix: (Units=1/GPa)
#
#
# Indices 1 2 3 4 5 6 
#
# 1 0.013880 -0.000558 -0.002341 0.000000 0.000000 0.000000
# 2 -0.000558 0.013880 -0.002341 0.000000 0.000000 0.000000
# 3 -0.002341 -0.002341 0.007696 0.000000 0.000000 0.000000
# 4 0.000000 0.000000 0.000000 0.026684 0.000000 0.000000
# 5 0.000000 0.000000 0.000000 0.000000 0.026684 0.000000
# 6 0.000000 0.000000 0.000000 0.000000 0.000000 0.036000
#
#
# Mechanical properties :
#
#
# Convention : Reuss Voigt Hill
#
# Bulk Modulus (GPa) = 40.03905 46.20729 43.12317
# Shear Modulus (GPa) = 34.81176 36.56417 35.68796
#
# Velocity S-wave (km/s) = 3.71675 3.80915 3.76323
# Velocity P-wave (km/s) = 5.85726 6.13860 5.99958
#
# Compressibility (1/GPa) = 0.02497562
#
# Stress axis : x y z
#
# Youngs Moduli (GPa) = 72.04653 72.04653 129.93777
#
# Poissons Ratio (x) = 0.04019 0.30420
# Poissons Ratio (y) = 0.04019 0.30420
# Poissons Ratio (z) = 0.16867 0.16867
#
# Static dielectric constant tensor:
#      x y z
#    x 2.139600 0.000000 0.000000 
#    y 0.000000 2.139600 0.000000 
#    z 0.000000 0.000000 2.071790 
# 
# From -- ./inp_files/4848.got.cif
#   From: 2010.05.17/outbox.cif.g08.bks.cpg/sg116_3_cif.got.tgz:4848.got - 2010.05.20 11:11:43.
