data_PCOD9558577
_publ_section_title
;
Structure prediction by ZEFSAII (Michael W. Deem and Ramdas Pophale) SiO2 
 PCOD9558577
Probable space group: P -4 N 2
;
_chemical_formula_sum "Si O2"
_cell_formula_units_Z 52
_cell_length_a 15.615022
_cell_length_b 15.615022
_cell_length_c 8.585628
_cell_angle_alpha 90.000000
_cell_angle_beta 90.000000
_cell_angle_gamma 90.000000
_cell_volume 2093.424335
_symmetry_space_group_name_H-M "P -4 N 2"
_symmetry_group_IT_number 118
_symmetry_cell_setting 'tetragonal'
loop_
_space_group_symop_operation_xyz
x,y,z
y,-x,-z
-x,-y,z
-y,x,-z
1/2+y,1/2+x,1/2-z
1/2-y,1/2-x,1/2-z
1/2-x,1/2+y,1/2+z
1/2+x,1/2-y,1/2+z
loop_
_atom_site_type_symbol
_atom_site_label
_atom_site_fract_x
_atom_site_fract_y
_atom_site_fract_z
Si Si1 0.266413 0.683391 0.393786
Si Si2 0.288045 0.525344 0.694212
Si Si3 0.397132 0.385400 0.847286
Si Si4 0.106838 0.552432 0.420459
Si Si5 0.907018 0.729844 0.083597
Si Si6 0.356340 0.408382 0.173656
Si Si7 0.598761 0.901240 0.250000
O O1 0.244397 0.744397 0.250000
O O2 0.328326 0.616759 0.304821
O O3 0.183453 0.625806 0.433180
O O4 0.313229 0.744671 0.519383
O O5 0.331121 0.463049 0.820941
O O6 0.278374 0.469483 0.539620
O O7 0.360018 0.597565 0.684117
O O8 0.198715 0.569450 0.739882
O O9 0.499108 0.398656 0.854398
O O10 0.368819 0.352890 0.017848
O O11 0.068621 0.568621 0.250000
O O12 0.138624 0.453710 0.424531
O O13 0.060556 0.569312 0.584283
O O14 0.917809 0.761390 0.260876
#
# Coordination Sequence:
#
# PCOD9558577 Si02
#       7
#     8   8   8   8   8   8   4
#     4  10  22  41  60  85 123 163 207 264 319 378
#     4  10  23  36  56  81 120 159 207 249 307 371
#     4  11  23  37  55  85 120 162 202 251 311 387
#     4  10  21  37  62  86 123 161 204 263 317 380
#     4  10  21  39  55  86 119 158 209 256 315 387
#     4  12  22  36  52  84 123 163 201 245 306 388
#     4  10  22  38  58  86 117 160 219 260 304 370
#
# _framework density 24.839683999999998
#
# number of rings (size 3 to 8) (size 9 to 14) (size 15 to 20)
#    0.000    1.538    3.077    2.308    8.615    0.000 
#    0.000    0.000    0.000    0.000    0.000   43.615 
#    0.000    0.000    0.000    0.000    0.000    0.000 
#
# Total GULP energy -289831.878429 kJ/mol
# GULP energy per Si atom -5573.689970 kJ/mol
# Density = 2.478315 g / cm^3
# Si number density = 24.839684 Si / 1000 Ang^3
#
#
#
# Elastic Constant Matrix: (Units=GPa)
#
#
# Indices 1 2 3 4 5 6 
#
# 1 69.3561 45.6621 40.7264 0.0000 0.0000 0.0000
# 2 45.6621 69.3554 40.7266 0.0000 0.0000 0.0000
# 3 40.7264 40.7266 147.6969 0.0000 0.0000 0.0000
# 4 0.0000 0.0000 0.0000 9.2104 0.0000 0.0000
# 5 0.0000 0.0000 0.0000 0.0000 9.2106 0.0000
# 6 0.0000 0.0000 0.0000 0.0000 0.0000 37.0216
#
#
#
# Elastic Compliance Matrix: (Units=1/GPa)
#
#
# Indices 1 2 3 4 5 6 
#
# 1 0.026505 -0.015701 -0.002979 0.000000 0.000000 0.000000
# 2 -0.015701 0.026505 -0.002979 0.000000 0.000000 0.000000
# 3 -0.002979 -0.002979 0.008414 0.000000 0.000000 0.000000
# 4 0.000000 0.000000 0.000000 0.108573 0.000000 0.000000
# 5 0.000000 0.000000 0.000000 0.000000 0.108570 0.000000
# 6 0.000000 0.000000 0.000000 0.000000 0.000000 0.027011
#
#
# Mechanical properties :
#
#
# Convention : Reuss Voigt Hill
#
# Bulk Modulus (GPa) = 55.23301 60.07095 57.65198
# Shear Modulus (GPa) = 14.08727 21.70809 17.89768
#
# Velocity S-wave (km/s) = 2.38403 2.95943 2.68718
# Velocity P-wave (km/s) = 5.46463 5.99280 5.73480
#
# Compressibility (1/GPa) = 0.01810512
#
# Stress axis : x y z
#
# Youngs Moduli (GPa) = 37.72941 37.72887 118.85536
#
# Poissons Ratio (x) = 0.59237 0.35408
# Poissons Ratio (y) = 0.59238 0.35410
# Poissons Ratio (z) = 0.11240 0.11240
#
# Static dielectric constant tensor:
#      x y z
#    x 2.099140 0.000000 0.000000 
#    y 0.000000 2.099140 0.000000 
#    z 0.000000 0.000000 1.993830 
# 
# From -- ./inp_files/2183.got.cif
#   From: 2010.05.17/outbox.cif.g08.bks.cpg/sg118_2_cif.got.tgz:2183.got - 2010.05.20 11:17:24.
