data_PCOD9558924
_publ_section_title
;
Structure prediction by ZEFSAII (Michael W. Deem and Ramdas Pophale) SiO2 
 PCOD9558924
Probable space group: P -4 N 2
;
_chemical_formula_sum "Si O2"
_cell_formula_units_Z 20
_cell_length_a 5.180869
_cell_length_b 5.180869
_cell_length_c 32.571021
_cell_angle_alpha 90.000000
_cell_angle_beta 90.000000
_cell_angle_gamma 90.000000
_cell_volume 874.251920
_symmetry_space_group_name_H-M "P -4 N 2"
_symmetry_group_IT_number 118
_symmetry_cell_setting 'tetragonal'
loop_
_space_group_symop_operation_xyz
x,y,z
y,-x,-z
-x,-y,z
-y,x,-z
1/2+y,1/2+x,1/2-z
1/2-y,1/2-x,1/2-z
1/2-x,1/2+y,1/2+z
1/2+x,1/2-y,1/2+z
loop_
_atom_site_type_symbol
_atom_site_label
_atom_site_fract_x
_atom_site_fract_y
_atom_site_fract_z
Si Si1 0.162853 0.234829 0.064349
Si Si2 0.500000 0.500000 0.000000
Si Si3 0.500000 0.500000 0.192342
Si Si4 0.000000 0.500000 0.250000
Si Si5 0.500000 0.000000 0.363704
O O1 0.379310 0.296676 0.031079
O O2 0.000000 0.500000 0.071045
O O3 0.283830 0.118144 0.105941
O O4 0.000000 0.000000 0.047416
O O5 0.250282 0.480202 0.221128
O O6 0.443308 0.753106 0.164694
#
# Coordination Sequence:
#
# PCOD9558924 Si02
#       5
#     8   2   4   2   4
#     4  12  29  49  78 112 158 218 271 344 401 472
#     4  12  30  48  68 120 156 216 288 336 404 464
#     4  12  27  50  86 117 168 202 260 329 390 504
#     4  12  28  52  80 130 154 210 252 316 416 478
#     4  12  28  51  78 119 152 216 264 331 398 475
#
# _framework density 22.876704
#
# number of rings (size 3 to 8) (size 9 to 14) (size 15 to 20)
#    0.000    0.000    0.000    8.400   16.800    0.000 
#    0.000    0.000    0.000    0.000    0.000    0.000 
#    0.000    0.000    0.000    0.000    0.000    0.000 
#
# Total GULP energy -112003.984890 kJ/mol
# GULP energy per Si atom -5600.199244 kJ/mol
# Density = 2.282464 g / cm^3
# Si number density = 22.876704 Si / 1000 Ang^3
#
#
#
# Elastic Constant Matrix: (Units=GPa)
#
#
# Indices 1 2 3 4 5 6 
#
# 1 183.1217 66.2540 88.3071 0.0000 0.0000 0.0000
# 2 66.2540 183.1217 88.3071 0.0000 0.0000 0.0000
# 3 88.3071 88.3071 178.7876 0.0000 0.0000 0.0000
# 4 0.0000 0.0000 0.0000 -24.9591 0.0000 0.0000
# 5 0.0000 0.0000 0.0000 0.0000 -24.9591 0.0000
# 6 0.0000 0.0000 0.0000 0.0000 0.0000 63.3707
#
#
#
# Elastic Compliance Matrix: (Units=1/GPa)
#
#
# Indices 1 2 3 4 5 6 
#
# 1 0.007362 -0.001195 -0.003046 0.000000 0.000000 0.000000
# 2 -0.001195 0.007362 -0.003046 0.000000 0.000000 0.000000
# 3 -0.003046 -0.003046 0.008602 0.000000 0.000000 0.000000
# 4 0.000000 0.000000 0.000000 -0.040066 0.000000 0.000000
# 5 0.000000 0.000000 0.000000 0.000000 -0.040066 0.000000
# 6 0.000000 0.000000 0.000000 0.000000 0.000000 0.015780
#
#
# Mechanical properties :
#
#
# Convention : Reuss Voigt Hill
#
# Bulk Modulus (GPa) = 114.25472 114.52970 114.39221
# Shear Modulus (GPa) = -212.47028 22.83467 -94.81780
#
# Velocity S-wave (km/s) = -9.64769 3.16280 -6.44494
# Velocity P-wave (km/s) = 8.60533 7.96934 2.29580
#
# Compressibility (1/GPa) = 0.00875237
#
# Stress axis : x y z
#
# Youngs Moduli (GPa) = 135.83155 135.83155 116.24625
#
# Poissons Ratio (x) = 0.16227 0.35411
# Poissons Ratio (y) = 0.16227 0.35411
# Poissons Ratio (z) = 0.41377 0.41377
#
# Static dielectric constant tensor:
#      x y z
#    x 1.837040 0.000000 0.000000 
#    y 0.000000 1.837040 0.000000 
#    z 0.000000 0.000000 1.835970 
# 
# From -- ./inp_files/6340.got.cif
#   From: 2010.05.17/outbox.cif.g08.bks.cpg/sg118_4_cif.got.tgz:6340.got - 2010.05.20 11:17:24.
