data_PCOD9558626
_publ_section_title
;
Structure prediction by ZEFSAII (Michael W. Deem and Ramdas Pophale) SiO2 
 PCOD9558626
Probable space group: P -4 N 2
;
_chemical_formula_sum "Si O2"
_cell_formula_units_Z 34
_cell_length_a 10.973650
_cell_length_b 10.973650
_cell_length_c 13.118800
_cell_angle_alpha 90.000000
_cell_angle_beta 90.000000
_cell_angle_gamma 90.000000
_cell_volume 1579.778940
_symmetry_space_group_name_H-M "P -4 N 2"
_symmetry_group_IT_number 118
_symmetry_cell_setting 'tetragonal'
loop_
_space_group_symop_operation_xyz
x,y,z
y,-x,-z
-x,-y,z
-y,x,-z
1/2+y,1/2+x,1/2-z
1/2-y,1/2-x,1/2-z
1/2-x,1/2+y,1/2+z
1/2+x,1/2-y,1/2+z
loop_
_atom_site_type_symbol
_atom_site_label
_atom_site_fract_x
_atom_site_fract_y
_atom_site_fract_z
Si Si1 0.541719 0.370568 0.779547
Si Si2 0.500000 0.000000 0.250000
Si Si3 0.744725 0.375559 0.078182
Si Si4 0.506290 0.747671 0.140499
Si Si5 0.662631 0.433682 0.443550
O O1 0.500000 0.500000 0.830698
O O2 0.492687 0.258365 0.846168
O O3 0.682940 0.403245 0.777640
O O4 0.482788 0.363663 0.669355
O O5 0.501110 0.115123 0.175931
O O6 0.633567 0.296961 0.125843
O O7 0.861097 0.288660 0.065565
O O8 0.721045 0.428186 0.966570
O O9 0.552388 0.346616 0.483002
#
# Coordination Sequence:
#
# PCOD9558626 Si02
#       5
#     8   2   8   8   8
#     4  10  21  42  68  95 132 182 241 273 358 430
#     4  12  32  40  72 112 160 166 244 316 372 400
#     4  11  24  43  71  97 135 185 243 285 348 438
#     4  11  26  46  69 103 138 190 232 302 352 442
#     4  11  24  40  68 105 141 183 230 299 361 431
#
# _framework density 21.521996000000001
#
# number of rings (size 3 to 8) (size 9 to 14) (size 15 to 20)
#    0.000    1.176    4.706    0.706   13.176    0.000 
#    0.000    0.000    0.000    0.000    0.000    0.000 
#    0.000    0.000    0.000    0.000    0.000    0.000 
#
# Total GULP energy -189519.001495 kJ/mol
# GULP energy per Si atom -5574.088279 kJ/mol
# Density = 2.147301 g / cm^3
# Si number density = 21.521996 Si / 1000 Ang^3
#
#
#
# Elastic Constant Matrix: (Units=GPa)
#
#
# Indices 1 2 3 4 5 6 
#
# 1 53.1163 36.1112 15.9727 0.0000 0.0000 0.0000
# 2 36.1112 53.1163 15.9727 0.0000 0.0000 0.0000
# 3 15.9727 15.9727 92.3953 0.0000 0.0000 0.0000
# 4 0.0000 0.0000 0.0000 23.7829 0.0000 0.0000
# 5 0.0000 0.0000 0.0000 0.0000 23.7829 0.0000
# 6 0.0000 0.0000 0.0000 0.0000 0.0000 32.2562
#
#
#
# Elastic Compliance Matrix: (Units=1/GPa)
#
#
# Indices 1 2 3 4 5 6 
#
# 1 0.035376 -0.023430 -0.002065 0.000000 0.000000 0.000000
# 2 -0.023430 0.035376 -0.002065 0.000000 0.000000 0.000000
# 3 -0.002065 -0.002065 0.011537 0.000000 0.000000 0.000000
# 4 0.000000 0.000000 0.000000 0.042047 0.000000 0.000000
# 5 0.000000 0.000000 0.000000 0.000000 0.042047 0.000000
# 6 0.000000 0.000000 0.000000 0.000000 0.000000 0.031002
#
#
# Mechanical properties :
#
#
# Convention : Reuss Voigt Hill
#
# Bulk Modulus (GPa) = 36.80601 37.19346 36.99973
# Shear Modulus (GPa) = 19.11591 24.66915 21.89253
#
# Velocity S-wave (km/s) = 2.98351 3.38927 3.19284
# Velocity P-wave (km/s) = 5.38583 5.71274 5.55169
#
# Compressibility (1/GPa) = 0.02716947
#
# Stress axis : x y z
#
# Youngs Moduli (GPa) = 28.26756 28.26756 86.67676
#
# Poissons Ratio (x) = 0.66230 0.17901
# Poissons Ratio (y) = 0.66230 0.17901
# Poissons Ratio (z) = 0.05838 0.05838
#
# Static dielectric constant tensor:
#      x y z
#    x 1.908700 0.000000 0.000000 
#    y 0.000000 1.908700 0.000000 
#    z 0.000000 0.000000 1.782240 
# 
# From -- ./inp_files/3027.got.cif
#   From: 2010.05.17/outbox.cif.g08.bks.cpg/sg118_2_cif.got.tgz:3027.got - 2010.05.20 11:17:24.
