data_PCOD9558900
_publ_section_title
;
Structure prediction by ZEFSAII (Michael W. Deem and Ramdas Pophale) SiO2 
 PCOD9558900
Probable space group: P -4 N 2
;
_chemical_formula_sum "Si O2"
_cell_formula_units_Z 20
_cell_length_a 5.200155
_cell_length_b 5.200155
_cell_length_c 28.466616
_cell_angle_alpha 90.000000
_cell_angle_beta 90.000000
_cell_angle_gamma 90.000000
_cell_volume 769.783186
_symmetry_space_group_name_H-M "P -4 N 2"
_symmetry_group_IT_number 118
_symmetry_cell_setting 'tetragonal'
loop_
_space_group_symop_operation_xyz
x,y,z
y,-x,-z
-x,-y,z
-y,x,-z
1/2+y,1/2+x,1/2-z
1/2-y,1/2-x,1/2-z
1/2-x,1/2+y,1/2+z
1/2+x,1/2-y,1/2+z
loop_
_atom_site_type_symbol
_atom_site_label
_atom_site_fract_x
_atom_site_fract_y
_atom_site_fract_z
Si Si1 0.256433 0.328819 0.571105
Si Si2 0.000000 0.000000 0.500000
Si Si3 0.749922 0.178133 0.320601
Si Si4 0.500000 0.000000 0.750000
O O1 0.500000 0.500000 0.560197
O O2 0.218797 0.099500 0.534861
O O3 0.266319 0.242015 0.625275
O O4 0.000000 0.500000 0.567309
O O5 0.777126 0.427173 0.287460
O O6 0.500000 0.000000 0.312770
O O7 0.000000 0.000000 0.311593
#
# Coordination Sequence:
#
# PCOD9558900 Si02
#       4
#     8   2   8   2
#     4  11  29  52  85 120 174 224 287 355 428 512
#     4  12  28  52  84 132 168 228 292 344 448 502
#     4  11  28  53  81 124 168 228 283 355 426 510
#     4  12  30  44  94 114 176 216 296 340 440 502
#
# _framework density 25.981345000000001
#
# number of rings (size 3 to 8) (size 9 to 14) (size 15 to 20)
#    0.000    0.800    2.000    0.600   22.400    0.000 
#    0.000    0.000    0.000    0.000    0.000    0.000 
#    0.000    0.000    0.000    0.000    0.000    0.000 
#
# Total GULP energy -112123.815311 kJ/mol
# GULP energy per Si atom -5606.190766 kJ/mol
# Density = 2.592221 g / cm^3
# Si number density = 25.981345 Si / 1000 Ang^3
#
#
#
# Elastic Constant Matrix: (Units=GPa)
#
#
# Indices 1 2 3 4 5 6 
#
# 1 177.0563 78.7832 66.4174 0.0000 0.0000 0.0000
# 2 78.7832 177.0563 66.4174 0.0000 0.0000 0.0000
# 3 66.4174 66.4174 229.9415 0.0000 0.0000 0.0000
# 4 0.0000 0.0000 0.0000 48.1054 0.0000 0.0000
# 5 0.0000 0.0000 0.0000 0.0000 48.1054 0.0000
# 6 0.0000 0.0000 0.0000 0.0000 0.0000 64.4435
#
#
#
# Elastic Compliance Matrix: (Units=1/GPa)
#
#
# Indices 1 2 3 4 5 6 
#
# 1 0.007387 -0.002789 -0.001328 0.000000 0.000000 0.000000
# 2 -0.002789 0.007387 -0.001328 0.000000 0.000000 0.000000
# 3 -0.001328 -0.001328 0.005116 0.000000 0.000000 0.000000
# 4 0.000000 0.000000 0.000000 0.020788 0.000000 0.000000
# 5 0.000000 0.000000 0.000000 0.000000 0.020788 0.000000
# 6 0.000000 0.000000 0.000000 0.000000 0.000000 0.015517
#
#
# Mechanical properties :
#
#
# Convention : Reuss Voigt Hill
#
# Bulk Modulus (GPa) = 111.11044 111.92112 111.51578
# Shear Modulus (GPa) = 55.02163 56.95993 55.99078
#
# Velocity S-wave (km/s) = 4.60688 4.68732 4.64727
# Velocity P-wave (km/s) = 8.43541 8.51268 8.47413
#
# Compressibility (1/GPa) = 0.00900005
#
# Stress axis : x y z
#
# Youngs Moduli (GPa) = 135.37259 135.37259 195.45681
#
# Poissons Ratio (x) = 0.37751 0.25961
# Poissons Ratio (y) = 0.37751 0.25961
# Poissons Ratio (z) = 0.17980 0.17980
#
# Static dielectric constant tensor:
#      x y z
#    x 2.013970 0.000000 0.000000 
#    y 0.000000 2.013970 0.000000 
#    z 0.000000 0.000000 1.999490 
# 
# From -- ./inp_files/6322.got.cif
#   From: 2010.05.17/outbox.cif.g08.bks.cpg/sg118_4_cif.got.tgz:6322.got - 2010.05.20 11:17:24.
