data_PCOD9558953
_publ_section_title
;
Structure prediction by ZEFSAII (Michael W. Deem and Ramdas Pophale) SiO2 
 PCOD9558953
Probable space group: I -4 M 2
;
_chemical_formula_sum "Si O2"
_cell_formula_units_Z 88
_cell_length_a 15.254976
_cell_length_b 15.254976
_cell_length_c 18.838663
_cell_angle_alpha 90.000000
_cell_angle_beta 90.000000
_cell_angle_gamma 90.000000
_cell_volume 4384.026137
_symmetry_space_group_name_H-M "I -4 M 2"
_symmetry_group_IT_number 119
_symmetry_cell_setting 'tetragonal'
loop_
_space_group_symop_operation_xyz
x,y,z
y,-x,-z
-x,-y,z
-y,x,-z
y,x,-z
-y,-x,-z
-x,y,z
x,-y,z
1/2+x,1/2+y,1/2+z
1/2+y,1/2-x,1/2-z
1/2-x,1/2-y,1/2+z
1/2-y,1/2+x,1/2-z
1/2+y,1/2+x,1/2-z
1/2-y,1/2-x,1/2-z
1/2-x,1/2+y,1/2+z
1/2+x,1/2-y,1/2+z
loop_
_atom_site_type_symbol
_atom_site_label
_atom_site_fract_x
_atom_site_fract_y
_atom_site_fract_z
Si Si1 0.899148 0.500000 0.518329
Si Si2 0.902353 0.198494 0.783792
Si Si3 0.401262 0.192322 0.029360
Si Si4 0.757429 0.803159 0.346618
Si Si5 0.098730 0.000000 0.825146
Si Si6 0.601944 0.169726 0.858736
Si Si7 0.500000 0.205914 0.625544
O O1 0.891750 0.592077 0.557897
O O2 0.828190 0.500000 0.455691
O O3 0.000000 0.500000 0.487092
O O4 0.884831 0.240677 0.706734
O O5 0.824165 0.239213 0.830609
O O6 0.000000 0.221002 0.809686
O O7 0.897439 0.092378 0.783417
O O8 0.500000 0.223045 0.042709
O O9 0.334571 0.250929 0.072809
O O10 0.392421 0.182529 0.944631
O O11 0.846493 0.752082 0.328631
O O12 0.189147 0.000000 0.870132
O O13 0.000000 0.000000 0.859626
O O14 0.500000 0.161987 0.839772
O O15 0.659545 0.084783 0.840667
#
# Coordination Sequence:
#
# PCOD9558953 Si02
#       7
#     8  16  16  16   8  16   8
#     4   8  16  30  54  88 114 146 185 223 289 350
#     4  10  23  39  55  79 108 148 194 233 274 328
#     4   9  18  33  54  82 115 144 177 224 283 342
#     4  11  21  35  59  82 108 146 187 232 277 330
#     4  10  20  38  58  76 108 154 195 233 275 332
#     4  10  20  34  56  87 114 141 181 231 286 342
#     4  10  16  34  56  80 112 150 178 228 284 336
#
# _framework density 20.072872
#
# number of rings (size 3 to 8) (size 9 to 14) (size 15 to 20)
#    0.000    2.182    1.818    3.000    2.545    0.000 
#    0.000    0.000    0.000    1.091    9.455    2.545 
#    0.000    0.000    0.000    0.000    0.000    0.000 
#
# Total GULP energy -245159.076015 kJ/mol
# GULP energy per Si atom -5571.797182 kJ/mol
# Density = 2.002719 g / cm^3
# Si number density = 20.072872 Si / 1000 Ang^3
#
#
#
# Elastic Constant Matrix: (Units=GPa)
#
#
# Indices 1 2 3 4 5 6 
#
# 1 119.8273 43.0785 12.6844 0.0000 0.0000 0.0000
# 2 43.0785 119.8273 12.6844 0.0000 0.0000 0.0000
# 3 12.6844 12.6844 29.1484 0.0000 0.0000 0.0000
# 4 0.0000 0.0000 0.0000 20.9108 0.0000 0.0000
# 5 0.0000 0.0000 0.0000 0.0000 20.9108 0.0000
# 6 0.0000 0.0000 0.0000 0.0000 0.0000 30.6139
#
#
#
# Elastic Compliance Matrix: (Units=1/GPa)
#
#
# Indices 1 2 3 4 5 6 
#
# 1 0.009807 -0.003222 -0.002865 0.000000 0.000000 0.000000
# 2 -0.003222 0.009807 -0.002865 0.000000 0.000000 0.000000
# 3 -0.002865 -0.002865 0.036801 0.000000 0.000000 0.000000
# 4 0.000000 0.000000 0.000000 0.047822 0.000000 0.000000
# 5 0.000000 0.000000 0.000000 0.000000 0.047822 0.000000
# 6 0.000000 0.000000 0.000000 0.000000 0.000000 0.032665
#
#
# Mechanical properties :
#
#
# Convention : Reuss Voigt Hill
#
# Bulk Modulus (GPa) = 25.96811 45.07751 35.52281
# Shear Modulus (GPa) = 23.20539 27.84418 25.52478
#
# Velocity S-wave (km/s) = 3.40377 3.72849 3.56983
# Velocity P-wave (km/s) = 5.33034 6.40634 5.89295
#
# Compressibility (1/GPa) = 0.03850877
#
# Stress axis : x y z
#
# Youngs Moduli (GPa) = 101.96664 101.96664 27.17312
#
# Poissons Ratio (x) = 0.32858 0.07786
# Poissons Ratio (y) = 0.32858 0.07786
# Poissons Ratio (z) = 0.29218 0.29218
#
# Static dielectric constant tensor:
#      x y z
#    x 1.728250 0.000000 0.000000 
#    y 0.000000 1.728250 0.000000 
#    z 0.000000 0.000000 1.723920 
# 
# From -- ./inp_files/7739.got.cif
#   From: 2010.05.17/outbox.cif.g08.bks.cpg/sg119_4_cif.got.tgz:7739.got - 2010.05.20 11:21:29.
