data_PCOD9558314
_publ_section_title
;
Structure prediction by ZEFSAII (Michael W. Deem and Ramdas Pophale) SiO2 
 PCOD9558314
Probable space group: P -4 B 2
;
_chemical_formula_sum "Si O2"
_cell_formula_units_Z 34
_cell_length_a 12.929629
_cell_length_b 12.929629
_cell_length_c 9.868253
_cell_angle_alpha 90.000000
_cell_angle_beta 90.000000
_cell_angle_gamma 90.000000
_cell_volume 1649.728216
_symmetry_space_group_name_H-M "P -4 B 2"
_symmetry_group_IT_number 117
_symmetry_cell_setting 'tetragonal'
loop_
_space_group_symop_operation_xyz
x,y,z
y,-x,-z
-x,-y,z
-y,x,-z
1/2+y,1/2+x,-z
1/2-y,1/2-x,-z
1/2-x,1/2+y,z
1/2+x,1/2-y,z
loop_
_atom_site_type_symbol
_atom_site_label
_atom_site_fract_x
_atom_site_fract_y
_atom_site_fract_z
Si Si1 0.799506 0.700495 0.500000
Si Si2 0.964759 0.612855 0.290973
Si Si3 0.500000 0.500000 0.500000
Si Si4 0.371113 0.871113 0.000000
Si Si5 0.681339 0.410952 0.660299
Si Si6 0.636287 0.577119 0.053067
O O1 0.871750 0.662439 0.377067
O O2 0.684301 0.689000 0.442959
O O3 0.000000 0.500000 0.342582
O O4 0.050250 0.703460 0.302853
O O5 0.926085 0.594230 0.137860
O O6 0.603826 0.492638 0.589880
O O7 0.249456 0.892601 0.006928
O O8 0.623741 0.380610 0.798825
O O9 0.621766 0.453504 0.044474
#
# Coordination Sequence:
#
# PCOD9558314 Si02
#       6
#     4   8   2   4   8   8
#     4  12  27  48  71 110 146 196 244 306 383 450
#     4  12  28  50  74 108 151 199 249 311 384 456
#     4  12  24  44  74 104 148 184 248 298 352 448
#     4  12  25  48  72 109 146 192 260 308 387 448
#     4  12  26  46  75 108 146 196 247 308 373 448
#     4  11  24  45  73 105 148 196 253 316 372 444
#
# _framework density 20.609456000000002
#
# number of rings (size 3 to 8) (size 9 to 14) (size 15 to 20)
#    0.000    0.235    7.059    2.118    3.294    1.882 
#    0.000    0.000    0.000    0.000    0.000    0.000 
#    0.000    0.000    0.000    0.000    0.000    0.000 
#
# Total GULP energy -190019.222076 kJ/mol
# GULP energy per Si atom -5588.800649 kJ/mol
# Density = 2.056255 g / cm^3
# Si number density = 20.609456 Si / 1000 Ang^3
#
#
#
# Elastic Constant Matrix: (Units=GPa)
#
#
# Indices 1 2 3 4 5 6 
#
# 1 135.6761 63.9685 38.2731 0.0000 0.0000 0.0000
# 2 63.9685 135.6766 38.2734 0.0000 0.0000 0.0000
# 3 38.2731 38.2734 108.1175 0.0000 0.0000 0.0000
# 4 0.0000 0.0000 0.0000 25.6762 0.0000 0.0000
# 5 0.0000 0.0000 0.0000 0.0000 25.6730 0.0000
# 6 0.0000 0.0000 0.0000 0.0000 0.0000 25.4800
#
#
#
# Elastic Compliance Matrix: (Units=1/GPa)
#
#
# Indices 1 2 3 4 5 6 
#
# 1 0.009871 -0.004075 -0.002052 0.000000 0.000000 0.000000
# 2 -0.004075 0.009870 -0.002052 0.000000 0.000000 0.000000
# 3 -0.002052 -0.002052 0.010702 0.000000 0.000000 0.000000
# 4 0.000000 0.000000 0.000000 0.038947 0.000000 0.000000
# 5 0.000000 0.000000 0.000000 0.000000 0.038951 0.000000
# 6 0.000000 0.000000 0.000000 0.000000 0.000000 0.039246
#
#
# Mechanical properties :
#
#
# Convention : Reuss Voigt Hill
#
# Bulk Modulus (GPa) = 70.99069 73.38892 72.18980
# Shear Modulus (GPa) = 29.64914 31.29618 30.47266
#
# Velocity S-wave (km/s) = 3.79703 3.90107 3.84940
# Velocity P-wave (km/s) = 7.33101 7.48183 7.40680
#
# Compressibility (1/GPa) = 0.01408635
#
# Stress axis : x y z
#
# Youngs Moduli (GPa) = 101.31197 101.31227 93.44297
#
# Poissons Ratio (x) = 0.41285 0.19171
# Poissons Ratio (y) = 0.41284 0.19171
# Poissons Ratio (z) = 0.20785 0.20785
#
# Static dielectric constant tensor:
#      x y z
#    x 1.743800 0.000000 0.000000 
#    y 0.000000 1.743800 0.000000 
#    z 0.000000 0.000000 1.740530 
# 
# From -- ./inp_files/2602.got.cif
#   From: 2010.05.17/outbox.cif.g08.bks.cpg/sg117_2_cif.got.tgz:2602.got - 2010.05.20 11:15:09.
