data_PCOD9558630
_publ_section_title
;
Structure prediction by ZEFSAII (Michael W. Deem and Ramdas Pophale) SiO2 
 PCOD9558630
Probable space group: P -4 N 2
;
_chemical_formula_sum "Si O2"
_cell_formula_units_Z 38
_cell_length_a 17.731743
_cell_length_b 17.731743
_cell_length_c 5.638091
_cell_angle_alpha 90.000000
_cell_angle_beta 90.000000
_cell_angle_gamma 90.000000
_cell_volume 1772.698746
_symmetry_space_group_name_H-M "P -4 N 2"
_symmetry_group_IT_number 118
_symmetry_cell_setting 'tetragonal'
loop_
_space_group_symop_operation_xyz
x,y,z
y,-x,-z
-x,-y,z
-y,x,-z
1/2+y,1/2+x,1/2-z
1/2-y,1/2-x,1/2-z
1/2-x,1/2+y,1/2+z
1/2+x,1/2-y,1/2+z
loop_
_atom_site_type_symbol
_atom_site_label
_atom_site_fract_x
_atom_site_fract_y
_atom_site_fract_z
Si Si1 0.201172 0.701172 0.750000
Si Si2 0.000000 0.000000 0.500000
Si Si3 0.842129 0.539031 0.137046
Si Si4 0.363081 0.726204 0.612378
Si Si5 0.435413 0.588947 0.384347
Si Si6 0.356668 0.856668 0.250000
Si Si7 0.635958 0.864043 0.750000
O O1 0.292112 0.691640 0.748555
O O2 0.172613 0.665901 0.499220
O O3 0.063910 0.046718 0.637101
O O4 0.910572 0.589429 0.250000
O O5 0.761766 0.571658 0.225552
O O6 0.850411 0.453250 0.212621
O O7 0.846922 0.559898 0.858182
O O8 0.394316 0.665598 0.428712
O O9 0.338506 0.798471 0.457996
O O10 0.524715 0.595638 0.438582
#
# Coordination Sequence:
#
# PCOD9558630 Si02
#       7
#     4   2   8   8   8   4   4
#     4  12  28  50  69 109 160 182 246 308 376 452
#     4   8  18  44  56 106 132 176 254 316 364 422
#     4  10  24  47  73 103 142 197 246 306 378 452
#     4  11  23  45  67  98 146 195 236 297 380 444
#     4   9  21  39  62  95 130 182 243 298 356 440
#     4  10  21  42  75 100 136 200 246 288 378 454
#     4  12  30  48  76 118 146 191 255 322 368 442
#
# _framework density 21.436242
#
# number of rings (size 3 to 8) (size 9 to 14) (size 15 to 20)
#    0.000    1.895    3.158    0.947    8.842    3.368 
#    0.000    0.000    0.000    0.000    0.000    0.000 
#    0.000    0.000    0.000    0.000    0.000    0.000 
#
# Total GULP energy -211778.153208 kJ/mol
# GULP energy per Si atom -5573.109295 kJ/mol
# Density = 2.138745 g / cm^3
# Si number density = 21.436242 Si / 1000 Ang^3
#
#
#
# Elastic Constant Matrix: (Units=GPa)
#
#
# Indices 1 2 3 4 5 6 
#
# 1 80.6343 75.2293 37.7958 0.0000 0.0000 0.0000
# 2 75.2293 80.6360 37.7964 0.0000 0.0000 0.0000
# 3 37.7958 37.7964 109.6452 0.0000 0.0000 0.0000
# 4 0.0000 0.0000 0.0000 19.9257 0.0000 0.0000
# 5 0.0000 0.0000 0.0000 0.0000 19.9257 0.0000
# 6 0.0000 0.0000 0.0000 0.0000 0.0000 24.4517
#
#
#
# Elastic Compliance Matrix: (Units=1/GPa)
#
#
# Indices 1 2 3 4 5 6 
#
# 1 0.096345 -0.088640 -0.002655 0.000000 0.000000 0.000000
# 2 -0.088640 0.096343 -0.002656 0.000000 0.000000 0.000000
# 3 -0.002655 -0.002656 0.010951 0.000000 0.000000 0.000000
# 4 0.000000 0.000000 0.000000 0.050187 0.000000 0.000000
# 5 0.000000 0.000000 0.000000 0.000000 0.050186 0.000000
# 6 0.000000 0.000000 0.000000 0.000000 0.000000 0.040897
#
#
# Mechanical properties :
#
#
# Convention : Reuss Voigt Hill
#
# Bulk Modulus (GPa) = 63.54721 63.61760 63.58240
# Shear Modulus (GPa) = 9.29272 20.86690 15.07981
#
# Velocity S-wave (km/s) = 2.08434 3.12339 2.65518
# Velocity P-wave (km/s) = 5.95833 6.53830 6.25504
#
# Compressibility (1/GPa) = 0.01573633
#
# Stress axis : x y z
#
# Youngs Moduli (GPa) = 10.37942 10.37961 91.31466
#
# Poissons Ratio (x) = 0.92005 0.24247
# Poissons Ratio (y) = 0.92003 0.24251
# Poissons Ratio (z) = 0.02756 0.02757
#
# Static dielectric constant tensor:
#      x y z
#    x 1.792550 0.000000 0.000000 
#    y 0.000000 1.792540 0.000000 
#    z 0.000000 0.000000 1.954550 
# 
# From -- ./inp_files/690.got.cif
#   From: 2010.05.17/outbox.cif.g08.bks.cpg/sg118_1_cif.got.tgz:690.got - 2010.05.20 11:17:24.
