data_PCOD9558437
_publ_section_title
;
Structure prediction by ZEFSAII (Michael W. Deem and Ramdas Pophale) SiO2 
 PCOD9558437
Probable space group: P -4 N 2
;
_chemical_formula_sum "Si O2"
_cell_formula_units_Z 54
_cell_length_a 13.862234
_cell_length_b 13.862234
_cell_length_c 14.239422
_cell_angle_alpha 90.000000
_cell_angle_beta 90.000000
_cell_angle_gamma 90.000000
_cell_volume 2736.269139
_symmetry_space_group_name_H-M "P -4 N 2"
_symmetry_group_IT_number 118
_symmetry_cell_setting 'tetragonal'
loop_
_space_group_symop_operation_xyz
x,y,z
y,-x,-z
-x,-y,z
-y,x,-z
1/2+y,1/2+x,1/2-z
1/2-y,1/2-x,1/2-z
1/2-x,1/2+y,1/2+z
1/2+x,1/2-y,1/2+z
loop_
_atom_site_type_symbol
_atom_site_label
_atom_site_fract_x
_atom_site_fract_y
_atom_site_fract_z
Si Si1 0.500000 0.000000 0.750000
Si Si2 0.840008 0.675247 0.525416
Si Si3 0.487054 0.300315 0.754669
Si Si4 0.000000 0.000000 0.652340
Si Si5 0.267935 0.165913 0.610633
Si Si6 0.695001 0.283976 0.840027
Si Si7 0.667596 0.991041 0.906633
Si Si8 0.034186 0.797056 0.554705
O O1 0.410692 0.991567 0.822830
O O2 0.773800 0.725257 0.606003
O O3 0.792273 0.719349 0.431372
O O4 0.847134 0.562784 0.495088
O O5 0.944007 0.726235 0.541286
O O6 0.476427 0.411685 0.778621
O O7 0.392208 0.245300 0.792469
O O8 0.581370 0.275148 0.816246
O O9 0.505680 0.268792 0.648092
O O10 0.012179 0.905850 0.587338
O O11 0.377182 0.160866 0.573349
O O12 0.205718 0.098138 0.539689
O O13 0.747526 0.247526 0.750000
O O14 0.731550 0.390387 0.864547
#
# Coordination Sequence:
#
# PCOD9558437 Si02
#       8
#     2   8   8   4   8   8   8   8
#     4  12  20  32  64  92 120 148 194 264 316 388
#     4  11  21  36  57  87 125 157 203 257 319 380
#     4  11  19  36  58  88 121 156 197 262 312 372
#     4  10  22  35  62  96 121 150 204 256 327 376
#     4  11  22  36  55  89 121 163 200 254 321 379
#     4  10  19  33  56  89 123 154 194 245 322 381
#     4  12  23  37  60  89 124 160 208 260 323 380
#     4  10  21  33  58  89 126 154 195 259 320 380
#
# _framework density 19.734902000000002
#
# number of rings (size 3 to 8) (size 9 to 14) (size 15 to 20)
#    0.000    1.185    5.926    1.778    0.000    0.593 
#    0.000    1.481    0.000    0.000    0.000    0.000 
#    0.000    0.000    0.000    0.000    0.000    0.000 
#
# Total GULP energy -300958.493877 kJ/mol
# GULP energy per Si atom -5573.305442 kJ/mol
# Density = 1.968998 g / cm^3
# Si number density = 19.734902 Si / 1000 Ang^3
#
#
#
# Elastic Constant Matrix: (Units=GPa)
#
#
# Indices 1 2 3 4 5 6 
#
# 1 107.8245 36.3814 22.4457 0.0000 0.0000 0.0000
# 2 36.3814 107.8245 22.4457 0.0000 0.0000 0.0000
# 3 22.4457 22.4457 40.8652 0.0000 0.0000 0.0000
# 4 0.0000 0.0000 0.0000 34.4568 0.0000 0.0000
# 5 0.0000 0.0000 0.0000 0.0000 34.4568 0.0000
# 6 0.0000 0.0000 0.0000 0.0000 0.0000 22.3288
#
#
#
# Elastic Compliance Matrix: (Units=1/GPa)
#
#
# Indices 1 2 3 4 5 6 
#
# 1 0.011181 -0.002816 -0.004594 0.000000 0.000000 0.000000
# 2 -0.002816 0.011181 -0.004594 0.000000 0.000000 0.000000
# 3 -0.004594 -0.004594 0.029518 0.000000 0.000000 0.000000
# 4 0.000000 0.000000 0.000000 0.029022 0.000000 0.000000
# 5 0.000000 0.000000 0.000000 0.000000 0.029022 0.000000
# 6 0.000000 0.000000 0.000000 0.000000 0.000000 0.044785
#
#
# Mechanical properties :
#
#
# Convention : Reuss Voigt Hill
#
# Bulk Modulus (GPa) = 35.88147 46.56223 41.22185
# Shear Modulus (GPa) = 26.59450 29.93122 28.26286
#
# Velocity S-wave (km/s) = 3.67493 3.89866 3.78845
# Velocity P-wave (km/s) = 6.01897 6.62655 6.33006
#
# Compressibility (1/GPa) = 0.02786954
#
# Stress axis : x y z
#
# Youngs Moduli (GPa) = 89.43767 89.43767 33.87784
#
# Poissons Ratio (x) = 0.25187 0.15565
# Poissons Ratio (y) = 0.25187 0.15565
# Poissons Ratio (z) = 0.41092 0.41092
#
# Static dielectric constant tensor:
#      x y z
#    x 1.759080 0.000000 0.000000 
#    y 0.000000 1.759080 0.000000 
#    z 0.000000 0.000000 1.703180 
# 
# From -- ./inp_files/4277.got.cif
#   From: 2010.05.17/outbox.cif.g08.bks.cpg/sg118_3_cif.got.tgz:4277.got - 2010.05.20 11:17:24.
