data_PCOD9558554
_publ_section_title
;
Structure prediction by ZEFSAII (Michael W. Deem and Ramdas Pophale) SiO2 
 PCOD9558554
Probable space group: P -4 N 2
;
_chemical_formula_sum "Si O2"
_cell_formula_units_Z 38
_cell_length_a 15.318653
_cell_length_b 15.318653
_cell_length_c 7.186727
_cell_angle_alpha 90.000000
_cell_angle_beta 90.000000
_cell_angle_gamma 90.000000
_cell_volume 1686.445477
_symmetry_space_group_name_H-M "P -4 N 2"
_symmetry_group_IT_number 118
_symmetry_cell_setting 'tetragonal'
loop_
_space_group_symop_operation_xyz
x,y,z
y,-x,-z
-x,-y,z
-y,x,-z
1/2+y,1/2+x,1/2-z
1/2-y,1/2-x,1/2-z
1/2-x,1/2+y,1/2+z
1/2+x,1/2-y,1/2+z
loop_
_atom_site_type_symbol
_atom_site_label
_atom_site_fract_x
_atom_site_fract_y
_atom_site_fract_z
Si Si1 0.053919 0.417302 0.528451
Si Si2 0.387115 0.398252 0.758564
Si Si3 0.000000 0.000000 0.000000
Si Si4 0.958183 0.233578 0.549785
Si Si5 0.273819 0.841911 0.050226
Si Si6 0.289681 0.210320 0.250000
O O1 0.064433 0.435568 0.750000
O O2 0.153353 0.404608 0.461988
O O3 0.000000 0.500000 0.455578
O O4 0.008054 0.323369 0.498918
O O5 0.472256 0.425607 0.644849
O O6 0.341617 0.474059 0.883322
O O7 0.315717 0.387005 0.598730
O O8 0.406728 0.313012 0.881295
O O9 0.890355 0.265569 0.709898
O O10 0.309747 0.809747 0.250000
O O11 0.250405 0.761242 0.923256
#
# Coordination Sequence:
#
# PCOD9558554 Si02
#       6
#     8   8   2   8   8   4
#     4  10  20  41  72 103 140 188 243 307 368 440
#     4  12  25  46  69 107 147 195 246 319 373 457
#     4  12  28  46  72 108 144 202 260 316 386 456
#     4  12  23  41  75 105 149 192 248 311 381 459
#     4  11  22  46  68  97 149 184 243 299 363 444
#     4  12  24  40  74 106 136 206 234 298 384 442
#
# _framework density 22.532601
#
# number of rings (size 3 to 8) (size 9 to 14) (size 15 to 20)
#    0.000    0.632    6.316    3.789    0.000    1.684 
#    0.000    0.526    9.263    0.000    0.000    0.000 
#    0.000    0.000    0.000    0.000    0.000    0.000 
#
# Total GULP energy -212148.577363 kJ/mol
# GULP energy per Si atom -5582.857299 kJ/mol
# Density = 2.248132 g / cm^3
# Si number density = 22.532601 Si / 1000 Ang^3
#
#
#
# Elastic Constant Matrix: (Units=GPa)
#
#
# Indices 1 2 3 4 5 6 
#
# 1 102.3907 41.6629 37.5655 0.0000 0.0000 0.0000
# 2 41.6629 102.3888 37.5650 0.0000 0.0000 0.0000
# 3 37.5655 37.5650 73.5883 0.0000 0.0000 0.0000
# 4 0.0000 0.0000 0.0000 5.1407 0.0000 0.0000
# 5 0.0000 0.0000 0.0000 0.0000 5.1406 0.0000
# 6 0.0000 0.0000 0.0000 0.0000 0.0000 33.4612
#
#
#
# Elastic Compliance Matrix: (Units=1/GPa)
#
#
# Indices 1 2 3 4 5 6 
#
# 1 0.012964 -0.003503 -0.004829 0.000000 0.000000 0.000000
# 2 -0.003503 0.012964 -0.004830 0.000000 0.000000 0.000000
# 3 -0.004829 -0.004830 0.018520 0.000000 0.000000 0.000000
# 4 0.000000 0.000000 0.000000 0.194526 0.000000 0.000000
# 5 0.000000 0.000000 0.000000 0.000000 0.194532 0.000000
# 6 0.000000 0.000000 0.000000 0.000000 0.000000 0.029885
#
#
# Mechanical properties :
#
#
# Convention : Reuss Voigt Hill
#
# Bulk Modulus (GPa) = 55.17764 56.88386 56.03075
# Shear Modulus (GPa) = 10.08560 19.52011 14.80285
#
# Velocity S-wave (km/s) = 2.11795 2.94650 2.56589
# Velocity P-wave (km/s) = 5.52468 6.07254 5.80507
#
# Compressibility (1/GPa) = 0.01812328
#
# Stress axis : x y z
#
# Youngs Moduli (GPa) = 77.13758 77.13631 53.99617
#
# Poissons Ratio (x) = 0.27023 0.26077
# Poissons Ratio (y) = 0.27023 0.26077
# Poissons Ratio (z) = 0.37254 0.37253
#
# Static dielectric constant tensor:
#      x y z
#    x 1.953240 0.000000 0.000000 
#    y 0.000000 1.953230 0.000000 
#    z 0.000000 0.000000 1.746040 
# 
# From -- ./inp_files/1817.got.cif
#   From: 2010.05.17/outbox.cif.g08.bks.cpg/sg118_1_cif.got.tgz:1817.got - 2010.05.20 11:17:24.
