data_PCOD9558468
_publ_section_title
;
Structure prediction by ZEFSAII (Michael W. Deem and Ramdas Pophale) SiO2 
 PCOD9558468
Probable space group: P -4 N 2
;
_chemical_formula_sum "Si O2"
_cell_formula_units_Z 30
_cell_length_a 17.108336
_cell_length_b 17.108336
_cell_length_c 5.315331
_cell_angle_alpha 90.000000
_cell_angle_beta 90.000000
_cell_angle_gamma 90.000000
_cell_volume 1555.771661
_symmetry_space_group_name_H-M "P -4 N 2"
_symmetry_group_IT_number 118
_symmetry_cell_setting 'tetragonal'
loop_
_space_group_symop_operation_xyz
x,y,z
y,-x,-z
-x,-y,z
-y,x,-z
1/2+y,1/2+x,1/2-z
1/2-y,1/2-x,1/2-z
1/2-x,1/2+y,1/2+z
1/2+x,1/2-y,1/2+z
loop_
_atom_site_type_symbol
_atom_site_label
_atom_site_fract_x
_atom_site_fract_y
_atom_site_fract_z
Si Si1 0.810054 0.988337 0.806805
Si Si2 0.191034 0.691034 0.750000
Si Si3 0.348120 0.608380 0.809301
Si Si4 0.000000 0.500000 0.750000
Si Si5 0.045433 0.638705 0.068893
O O1 0.840699 0.933512 0.579697
O O2 0.715075 0.993336 0.809395
O O3 0.850699 0.070613 0.753745
O O4 0.831589 0.952674 0.080784
O O5 0.279464 0.672496 0.814130
O O6 0.169179 0.628844 0.534441
O O7 0.910696 0.499937 0.638907
O O8 0.068397 0.568397 0.250000
#
# Coordination Sequence:
#
# PCOD9558468 Si02
#       5
#     8   4   8   2   8
#     4  11  24  41  67  92 127 169 213 263 321 377
#     4   9  20  39  62  84 123 170 207 248 316 388
#     4  11  23  42  63  94 124 167 213 263 317 377
#     4  10  22  36  64  98 132 164 212 264 320 390
#     4  10  19  40  63  88 127 170 205 258 328 384
#
# _framework density 19.283034000000001
#
# number of rings (size 3 to 8) (size 9 to 14) (size 15 to 20)
#    0.000    1.600    2.667    2.000    0.000    3.200 
#    4.800    0.000    0.000    0.000    0.000    0.000 
#    0.000    0.000    0.000    0.000    0.000    0.000 
#
# Total GULP energy -167046.870334 kJ/mol
# GULP energy per Si atom -5568.229011 kJ/mol
# Density = 1.923915 g / cm^3
# Si number density = 19.283034 Si / 1000 Ang^3
#
#
#
# Elastic Constant Matrix: (Units=GPa)
#
#
# Indices 1 2 3 4 5 6 
#
# 1 80.5406 78.8443 8.6997 0.0000 0.0000 0.0000
# 2 78.8443 80.5406 8.6997 0.0000 0.0000 0.0000
# 3 8.6997 8.6997 59.7809 0.0000 0.0000 0.0000
# 4 0.0000 0.0000 0.0000 3.0538 0.0000 0.0000
# 5 0.0000 0.0000 0.0000 0.0000 3.0538 0.0000
# 6 0.0000 0.0000 0.0000 0.0000 0.0000 34.1117
#
#
#
# Elastic Compliance Matrix: (Units=1/GPa)
#
#
# Indices 1 2 3 4 5 6 
#
# 1 0.297953 -0.291577 -0.000928 0.000000 0.000000 0.000000
# 2 -0.291577 0.297953 -0.000928 0.000000 0.000000 0.000000
# 3 -0.000928 -0.000928 0.016998 0.000000 0.000000 0.000000
# 4 0.000000 0.000000 0.000000 0.327461 0.000000 0.000000
# 5 0.000000 0.000000 0.000000 0.000000 0.327461 0.000000
# 6 0.000000 0.000000 0.000000 0.000000 0.000000 0.029315
#
#
# Mechanical properties :
#
#
# Convention : Reuss Voigt Hill
#
# Bulk Modulus (GPa) = 38.40620 45.92770 42.16695
# Shear Modulus (GPa) = 2.64175 16.35175 9.49675
#
# Velocity S-wave (km/s) = 1.17173 2.91518 2.22162
# Velocity P-wave (km/s) = 4.66808 5.93299 5.33813
#
# Compressibility (1/GPa) = 0.02603746
#
# Stress axis : x y z
#
# Youngs Moduli (GPa) = 3.35624 3.35624 58.83115
#
# Poissons Ratio (x) = 0.97860 0.05458
# Poissons Ratio (y) = 0.97860 0.05458
# Poissons Ratio (z) = 0.00311 0.00311
#
# Static dielectric constant tensor:
#      x y z
#    x 1.775690 0.000000 0.000000 
#    y 0.000000 1.775690 0.000000 
#    z 0.000000 0.000000 1.447420 
# 
# From -- ./inp_files/474.got.cif
#   From: 2010.05.17/outbox.cif.g08.bks.cpg/sg118_1_cif.got.tgz:474.got - 2010.05.20 11:17:24.
