data_PCOD9558839
_publ_section_title
;
Structure prediction by ZEFSAII (Michael W. Deem and Ramdas Pophale) SiO2 
 PCOD9558839
Probable space group: P -4 N 2
;
_chemical_formula_sum "Si O2"
_cell_formula_units_Z 40
_cell_length_a 8.757169
_cell_length_b 8.757169
_cell_length_c 22.382950
_cell_angle_alpha 90.000000
_cell_angle_beta 90.000000
_cell_angle_gamma 90.000000
_cell_volume 1716.503869
_symmetry_space_group_name_H-M "P -4 N 2"
_symmetry_group_IT_number 118
_symmetry_cell_setting 'tetragonal'
loop_
_space_group_symop_operation_xyz
x,y,z
y,-x,-z
-x,-y,z
-y,x,-z
1/2+y,1/2+x,1/2-z
1/2-y,1/2-x,1/2-z
1/2-x,1/2+y,1/2+z
1/2+x,1/2-y,1/2+z
loop_
_atom_site_type_symbol
_atom_site_label
_atom_site_fract_x
_atom_site_fract_y
_atom_site_fract_z
Si Si1 0.224968 0.950975 0.768132
Si Si2 0.890304 0.630345 0.898469
Si Si3 0.622674 0.377773 0.603204
Si Si4 0.946535 0.764226 0.718259
Si Si5 0.802760 0.170003 0.505985
O O1 0.387045 0.887045 0.750000
O O2 0.203347 0.954486 0.839673
O O3 0.104597 0.830407 0.740303
O O4 0.173752 0.105097 0.736287
O O5 0.775052 0.556921 0.851414
O O6 0.000000 0.500000 0.925225
O O7 0.008428 0.748695 0.870008
O O8 0.792749 0.715935 0.947839
O O9 0.500000 0.500000 0.576240
O O10 0.714001 0.259201 0.559845
O O11 0.886876 0.613125 0.750000
O O12 0.982888 0.206691 0.495783
#
# Coordination Sequence:
#
# PCOD9558839 Si02
#       5
#     8   8   8   8   8
#     4  11  24  42  72 108 147 196 241 313 393 460
#     4  12  25  45  73 107 145 202 257 318 397 471
#     4  12  25  48  72 110 153 198 260 319 394 479
#     4  11  23  43  67 105 144 185 248 306 380 463
#     4  11  28  48  75 109 152 203 266 334 396 464
#
# _framework density 23.303179
#
# number of rings (size 3 to 8) (size 9 to 14) (size 15 to 20)
#    0.000    0.600    6.000    1.200    5.600    2.000 
#    0.000    0.000    0.000    0.000    0.000    0.000 
#    0.000    0.000    0.000    0.000    0.000    0.000 
#
# Total GULP energy -223374.986408 kJ/mol
# GULP energy per Si atom -5584.374660 kJ/mol
# Density = 2.325014 g / cm^3
# Si number density = 23.303179 Si / 1000 Ang^3
#
#
#
# Elastic Constant Matrix: (Units=GPa)
#
#
# Indices 1 2 3 4 5 6 
#
# 1 84.7526 110.3357 35.6805 0.0000 0.0000 0.0000
# 2 110.3357 84.7551 35.6802 0.0000 0.0000 0.0000
# 3 35.6805 35.6802 129.1812 0.0000 0.0000 0.0000
# 4 0.0000 0.0000 0.0000 8.8003 0.0000 0.0000
# 5 0.0000 0.0000 0.0000 0.0000 8.7985 0.0000
# 6 0.0000 0.0000 0.0000 0.0000 0.0000 56.5116
#
#
#
# Elastic Compliance Matrix: (Units=1/GPa)
#
#
# Indices 1 2 3 4 5 6 
#
# 1 -0.016694 0.022396 -0.001575 0.000000 0.000000 0.000000
# 2 0.022396 -0.016694 -0.001575 0.000000 0.000000 0.000000
# 3 -0.001575 -0.001575 0.008611 0.000000 0.000000 0.000000
# 4 0.000000 0.000000 0.000000 0.113633 0.000000 0.000000
# 5 0.000000 0.000000 0.000000 0.000000 0.113655 0.000000
# 6 0.000000 0.000000 0.000000 0.000000 0.000000 0.017695
#
#
# Mechanical properties :
#
#
# Convention : Reuss Voigt Hill
#
# Bulk Modulus (GPa) = 72.91117 73.56463 73.23790
# Shear Modulus (GPa) = 26.84057 22.62159 24.73108
#
# Velocity S-wave (km/s) = 3.39750 3.11907 3.26126
# Velocity P-wave (km/s) = 6.83715 6.67896 6.75852
#
# Compressibility (1/GPa) = 0.01371532
#
# Stress axis : x y z
#
# Youngs Moduli (GPa) = -59.90003 -59.90214 116.12985
#
# Poissons Ratio (x) = 1.34158 0.18288
# Poissons Ratio (y) = 1.34153 0.18291
# Poissons Ratio (z) = -0.09433 -0.09435
#
# Static dielectric constant tensor:
#      x y z
#    x 1.891680 0.000000 0.000000 
#    y 0.000000 1.891680 0.000000 
#    z 0.000000 0.000000 1.876820 
# 
# From -- ./inp_files/6053.got.cif
#   From: 2010.05.17/outbox.cif.g08.bks.cpg/sg118_4_cif.got.tgz:6053.got - 2010.05.20 11:17:24.
