data_PCOD9558986
_publ_section_title
;
Structure prediction by ZEFSAII (Michael W. Deem and Ramdas Pophale) SiO2 
 PCOD9558986
Probable space group: I -4 M 2
;
_chemical_formula_sum "Si O2"
_cell_formula_units_Z 96
_cell_length_a 19.342714
_cell_length_b 19.342714
_cell_length_c 16.358890
_cell_angle_alpha 90.000000
_cell_angle_beta 90.000000
_cell_angle_gamma 90.000000
_cell_volume 6120.524673
_symmetry_space_group_name_H-M "I -4 M 2"
_symmetry_group_IT_number 119
_symmetry_cell_setting 'tetragonal'
loop_
_space_group_symop_operation_xyz
x,y,z
y,-x,-z
-x,-y,z
-y,x,-z
y,x,-z
-y,-x,-z
-x,y,z
x,-y,z
1/2+x,1/2+y,1/2+z
1/2+y,1/2-x,1/2-z
1/2-x,1/2-y,1/2+z
1/2-y,1/2+x,1/2-z
1/2+y,1/2+x,1/2-z
1/2-y,1/2-x,1/2-z
1/2-x,1/2+y,1/2+z
1/2+x,1/2-y,1/2+z
loop_
_atom_site_type_symbol
_atom_site_label
_atom_site_fract_x
_atom_site_fract_y
_atom_site_fract_z
Si Si1 0.582138 0.917863 0.750000
Si Si2 0.653801 0.081375 0.322320
Si Si3 0.416827 0.193068 0.620375
Si Si4 0.579513 0.420488 0.500000
Si Si5 0.689372 0.083637 0.066893
Si Si6 0.417659 0.713102 0.281136
Si Si7 0.918771 0.843600 0.171073
O O1 0.500000 0.907113 0.762475
O O2 0.605467 0.873889 0.671222
O O3 0.600167 0.100167 0.250000
O O4 0.626312 0.124970 0.398031
O O5 0.728826 0.102658 0.285760
O O6 0.654843 0.000000 0.337590
O O7 0.500000 0.189407 0.615580
O O8 0.394664 0.200618 0.526466
O O9 0.401264 0.262780 0.669253
O O10 0.500000 0.411964 0.471093
O O11 0.628257 0.411539 0.422188
O O12 0.752252 0.097199 0.129881
O O13 0.677260 0.000000 0.070679
O O14 0.500000 0.705099 0.275798
O O15 0.382566 0.638674 0.276213
O O16 0.000000 0.853762 0.193150
#
# Coordination Sequence:
#
# PCOD9558986 Si02
#       7
#     8  16  16   8  16  16  16
#     4   9  18  34  50  62  84 114 146 190 239 274
#     4   9  17  28  42  63  92 124 153 184 220 261
#     4   9  18  31  46  66  87 112 149 189 229 269
#     4   9  16  24  38  64  92 118 148 180 220 266
#     4   9  17  29  45  65  92 122 152 186 222 268
#     4   9  17  29  43  62  93 126 151 181 222 266
#     4  10  18  28  44  63  87 119 153 189 223 266
#
# _framework density 15.68493
#
# number of rings (size 3 to 8) (size 9 to 14) (size 15 to 20)
#    0.000    2.833    0.000    3.000    0.000    5.500 
#    4.500    1.667    0.000    0.000    0.000    0.000 
#    0.000    0.000    0.000    1.500    0.000   35.333 
#
# Total GULP energy -267244.611691 kJ/mol
# GULP energy per Si atom -5567.596077 kJ/mol
# Density = 1.564923 g / cm^3
# Si number density = 15.684930 Si / 1000 Ang^3
#
#
#
# Elastic Constant Matrix: (Units=GPa)
#
#
# Indices 1 2 3 4 5 6 
#
# 1 63.8586 41.1608 16.5637 0.0000 0.0000 0.0000
# 2 41.1608 63.8602 16.5636 0.0000 0.0000 0.0000
# 3 16.5637 16.5636 28.1813 0.0000 0.0000 0.0000
# 4 0.0000 0.0000 0.0000 14.9863 0.0000 0.0000
# 5 0.0000 0.0000 0.0000 0.0000 14.9863 0.0000
# 6 0.0000 0.0000 0.0000 0.0000 0.0000 20.8652
#
#
#
# Elastic Compliance Matrix: (Units=1/GPa)
#
#
# Indices 1 2 3 4 5 6 
#
# 1 0.027873 -0.016183 -0.006871 0.000000 0.000000 0.000000
# 2 -0.016183 0.027872 -0.006870 0.000000 0.000000 0.000000
# 3 -0.006871 -0.006870 0.043561 0.000000 0.000000 0.000000
# 4 0.000000 0.000000 0.000000 0.066728 0.000000 0.000000
# 5 0.000000 0.000000 0.000000 0.000000 0.066727 0.000000
# 6 0.000000 0.000000 0.000000 0.000000 0.000000 0.047927
#
#
# Mechanical properties :
#
#
# Convention : Reuss Voigt Hill
#
# Bulk Modulus (GPa) = 25.34367 33.83071 29.58719
# Shear Modulus (GPa) = 14.13677 15.60836 14.87256
#
# Velocity S-wave (km/s) = 3.00542 3.15797 3.08264
# Velocity P-wave (km/s) = 5.31380 5.90871 5.61913
#
# Compressibility (1/GPa) = 0.03945759
#
# Stress axis : x y z
#
# Youngs Moduli (GPa) = 35.87723 35.87843 22.95648
#
# Poissons Ratio (x) = 0.58063 0.15773
# Poissons Ratio (y) = 0.58061 0.15771
# Poissons Ratio (z) = 0.24650 0.24648
#
# Static dielectric constant tensor:
#      x y z
#    x 1.537720 0.000000 0.000000 
#    y 0.000000 1.537720 0.000000 
#    z 0.000000 0.000000 1.522760 
# 
# From -- ./inp_files/6678.got.cif
#   From: 2010.05.17/outbox.cif.g08.bks.cpg/sg119_4_cif.got.tgz:6678.got - 2010.05.20 11:21:29.
