data_PCOD9558743
_publ_section_title
;
Structure prediction by ZEFSAII (Michael W. Deem and Ramdas Pophale) SiO2 
 PCOD9558743
Probable space group: P -4 N 2
;
_chemical_formula_sum "Si O2"
_cell_formula_units_Z 18
_cell_length_a 5.219972
_cell_length_b 5.219972
_cell_length_c 25.949735
_cell_angle_alpha 90.000000
_cell_angle_beta 90.000000
_cell_angle_gamma 90.000000
_cell_volume 707.081174
_symmetry_space_group_name_H-M "P -4 N 2"
_symmetry_group_IT_number 118
_symmetry_cell_setting 'tetragonal'
loop_
_space_group_symop_operation_xyz
x,y,z
y,-x,-z
-x,-y,z
-y,x,-z
1/2+y,1/2+x,1/2-z
1/2-y,1/2-x,1/2-z
1/2-x,1/2+y,1/2+z
1/2+x,1/2-y,1/2+z
loop_
_atom_site_type_symbol
_atom_site_label
_atom_site_fract_x
_atom_site_fract_y
_atom_site_fract_z
Si Si1 0.751950 0.819420 0.917646
Si Si2 0.000000 0.000000 0.500000
Si Si3 0.745270 0.326148 0.306796
O O1 0.714832 0.618507 0.963020
O O2 0.747357 0.680274 0.861286
O O3 0.500000 0.000000 0.918798
O O4 0.000000 0.000000 0.923638
O O5 0.500000 0.500000 0.313077
O O6 0.709525 0.209525 0.250000
O O7 0.000000 0.500000 0.304796
#
# Coordination Sequence:
#
# PCOD9558743 Si02
#       3
#     8   2   8
#     4  10  25  45  69 106 146 195 253 310 383 455
#     4  12  28  40  76 104 152 200 260 316 386 460
#     4   9  19  40  69 101 141 186 240 307 373 449
#
# _framework density 25.456768
#
# number of rings (size 3 to 8) (size 9 to 14) (size 15 to 20)
#    0.000    2.222    0.000    0.000    9.333    0.000 
#    0.000    4.444    0.000    0.000    0.000    0.000 
#    0.000    0.000    0.000    0.000    0.000    0.000 
#
# Total GULP energy -100680.552647 kJ/mol
# GULP energy per Si atom -5593.364036 kJ/mol
# Density = 2.539883 g / cm^3
# Si number density = 25.456768 Si / 1000 Ang^3
#
#
#
# Elastic Constant Matrix: (Units=GPa)
#
#
# Indices 1 2 3 4 5 6 
#
# 1 131.3704 42.6083 47.3724 0.0000 0.0000 0.0000
# 2 42.6083 131.3704 47.3724 0.0000 0.0000 0.0000
# 3 47.3724 47.3724 308.6841 0.0000 0.0000 0.0000
# 4 0.0000 0.0000 0.0000-2083.6706 0.0000 0.0000
# 5 0.0000 0.0000 0.0000 0.0000-2083.6706 0.0000
# 6 0.0000 0.0000 0.0000 0.0000 0.0000 54.5136
#
#
#
# Elastic Compliance Matrix: (Units=1/GPa)
#
#
# Indices 1 2 3 4 5 6 
#
# 1 0.008769 -0.002497 -0.000963 0.000000 0.000000 0.000000
# 2 -0.002497 0.008769 -0.000963 0.000000 0.000000 0.000000
# 3 -0.000963 -0.000963 0.003535 0.000000 0.000000 0.000000
# 4 0.000000 0.000000 0.000000 -0.000480 0.000000 0.000000
# 5 0.000000 0.000000 0.000000 0.000000 -0.000480 0.000000
# 6 0.000000 0.000000 0.000000 0.000000 0.000000 0.018344
#
#
# Mechanical properties :
#
#
# Convention : Reuss Voigt Hill
#
# Bulk Modulus (GPa) = 81.77384 94.01456 87.89420
# Shear Modulus (GPa) = 97.31838 -793.62738 -348.15450
#
# Velocity S-wave (km/s) = 6.18966 -17.67574 -11.70726
# Velocity P-wave (km/s) = 9.12551 19.48241 12.17147
#
# Compressibility (1/GPa) = 0.01222885
#
# Stress axis : x y z
#
# Youngs Moduli (GPa) = 114.03763 114.03763 282.88622
#
# Poissons Ratio (x) = 0.28476 0.27229
# Poissons Ratio (y) = 0.28476 0.27229
# Poissons Ratio (z) = 0.10977 0.10977
#
# Static dielectric constant tensor:
#      x y z
#    x 2.242050 0.000000 0.000000 
#    y 0.000000 2.242050 0.000000 
#    z 0.000000 0.000000 2.193080 
# 
# From -- ./inp_files/5806.got.cif
#   From: 2010.05.17/outbox.cif.g08.bks.cpg/sg118_3_cif.got.tgz:5806.got - 2010.05.20 11:17:24.
