data_PCOD9558085
_publ_section_title
;
Structure prediction by ZEFSAII (Michael W. Deem and Ramdas Pophale) SiO2 
 PCOD9558085
Probable space group: P -4 B 2
;
_chemical_formula_sum "Si O2"
_cell_formula_units_Z 56
_cell_length_a 13.584285
_cell_length_b 13.584285
_cell_length_c 17.346972
_cell_angle_alpha 90.000000
_cell_angle_beta 90.000000
_cell_angle_gamma 90.000000
_cell_volume 3201.085297
_symmetry_space_group_name_H-M "P -4 B 2"
_symmetry_group_IT_number 117
_symmetry_cell_setting 'tetragonal'
loop_
_space_group_symop_operation_xyz
x,y,z
y,-x,-z
-x,-y,z
-y,x,-z
1/2+y,1/2+x,-z
1/2-y,1/2-x,-z
1/2-x,1/2+y,z
1/2+x,1/2-y,z
loop_
_atom_site_type_symbol
_atom_site_label
_atom_site_fract_x
_atom_site_fract_y
_atom_site_fract_z
Si Si1 0.744201 0.902499 0.034551
Si Si2 0.254463 0.914112 0.770305
Si Si3 0.239423 0.090034 0.210590
Si Si4 0.099652 0.548592 0.412005
Si Si5 0.902774 0.728896 0.050832
Si Si6 0.626138 0.766279 0.302819
Si Si7 0.095021 0.274187 0.678645
O O1 0.737956 0.936733 0.122764
O O2 0.825302 0.816775 0.037522
O O3 0.646286 0.853715 0.000000
O O4 0.767104 0.993749 0.980569
O O5 0.146867 0.863357 0.776233
O O6 0.293441 0.911813 0.858383
O O7 0.331693 0.854352 0.717106
O O8 0.243833 0.020449 0.732606
O O9 0.313941 0.176891 0.235879
O O10 0.249592 0.993338 0.262342
O O11 0.076395 0.576395 0.500000
O O12 0.121994 0.650115 0.368543
O O13 0.182009 0.464975 0.394756
O O14 0.000000 0.500000 0.378585
O O15 0.862290 0.637711 0.000000
O O16 0.681931 0.668387 0.331622
#
# Coordination Sequence:
#
# PCOD9558085 Si02
#       7
#     8   8   8   8   8   8   8
#     4  10  20  35  49  73 104 141 185 236 280 336
#     4  10  19  34  54  78 105 146 190 235 283 337
#     4   9  20  33  53  77 106 144 188 230 287 333
#     4  10  20  39  62  86 114 146 181 222 271 334
#     4  10  21  34  51  73 105 143 187 236 286 331
#     4  10  20  36  58  83 110 145 183 228 278 334
#     4  10  20  37  57  84 113 144 183 232 276 338
#
# _framework density 17.494066
#
# number of rings (size 3 to 8) (size 9 to 14) (size 15 to 20)
#    0.000    2.143    1.429    1.714    0.000    4.571 
#    2.571    5.714    0.000    0.000    0.000    0.000 
#    0.000    0.000    0.000    0.000    0.000    0.000 
#
# Total GULP energy -311971.215221 kJ/mol
# GULP energy per Si atom -5570.914558 kJ/mol
# Density = 1.745425 g / cm^3
# Si number density = 17.494066 Si / 1000 Ang^3
#
#
#
# Elastic Constant Matrix: (Units=GPa)
#
#
# Indices 1 2 3 4 5 6 
#
# 1 84.3489 38.5001 30.1654 0.0000 0.0000 0.0000
# 2 38.5001 84.3480 30.1660 0.0000 0.0000 0.0000
# 3 30.1654 30.1660 67.9029 0.0000 0.0000 0.0000
# 4 0.0000 0.0000 0.0000 14.5143 0.0000 0.0000
# 5 0.0000 0.0000 0.0000 0.0000 14.5148 0.0000
# 6 0.0000 0.0000 0.0000 0.0000 0.0000 17.4338
#
#
#
# Elastic Compliance Matrix: (Units=1/GPa)
#
#
# Indices 1 2 3 4 5 6 
#
# 1 0.016111 -0.005700 -0.004625 0.000000 0.000000 0.000000
# 2 -0.005700 0.016111 -0.004626 0.000000 0.000000 0.000000
# 3 -0.004625 -0.004626 0.018836 0.000000 0.000000 0.000000
# 4 0.000000 0.000000 0.000000 0.068897 0.000000 0.000000
# 5 0.000000 0.000000 0.000000 0.000000 0.068895 0.000000
# 6 0.000000 0.000000 0.000000 0.000000 0.000000 0.057360
#
#
# Mechanical properties :
#
#
# Convention : Reuss Voigt Hill
#
# Bulk Modulus (GPa) = 47.26255 48.25141 47.75698
# Shear Modulus (GPa) = 17.65755 18.47715 18.06735
#
# Velocity S-wave (km/s) = 3.18047 3.25344 3.21716
# Velocity P-wave (km/s) = 6.36884 6.46178 6.41548
#
# Compressibility (1/GPa) = 0.02115840
#
# Stress axis : x y z
#
# Youngs Moduli (GPa) = 62.06875 62.06749 53.08843
#
# Poissons Ratio (x) = 0.35377 0.24554
# Poissons Ratio (y) = 0.35377 0.24556
# Poissons Ratio (z) = 0.28708 0.28709
#
# Static dielectric constant tensor:
#      x y z
#    x 1.604320 0.000000 0.000000 
#    y 0.000000 1.604320 0.000000 
#    z 0.000000 0.000000 1.596330 
# 
# From -- ./inp_files/3238.got.cif
#   From: 2010.05.17/outbox.cif.g08.bks.cpg/sg117_2_cif.got.tgz:3238.got - 2010.05.20 11:15:09.
