data_PCOD9558537
_publ_section_title
;
Structure prediction by ZEFSAII (Michael W. Deem and Ramdas Pophale) SiO2 
 PCOD9558537
Probable space group: P -4 N 2
;
_chemical_formula_sum "Si O2"
_cell_formula_units_Z 54
_cell_length_a 15.819003
_cell_length_b 15.819003
_cell_length_c 10.638411
_cell_angle_alpha 90.000000
_cell_angle_beta 90.000000
_cell_angle_gamma 90.000000
_cell_volume 2662.165074
_symmetry_space_group_name_H-M "P -4 N 2"
_symmetry_group_IT_number 118
_symmetry_cell_setting 'tetragonal'
loop_
_space_group_symop_operation_xyz
x,y,z
y,-x,-z
-x,-y,z
-y,x,-z
1/2+y,1/2+x,1/2-z
1/2-y,1/2-x,1/2-z
1/2-x,1/2+y,1/2+z
1/2+x,1/2-y,1/2+z
loop_
_atom_site_type_symbol
_atom_site_label
_atom_site_fract_x
_atom_site_fract_y
_atom_site_fract_z
Si Si1 0.710447 0.875708 0.480531
Si Si2 0.817505 0.012421 0.365061
Si Si3 0.163811 0.534841 0.227802
Si Si4 0.270491 0.827899 0.474605
Si Si5 0.240666 0.087477 0.966819
Si Si6 0.162464 0.337537 0.250000
Si Si7 0.500000 0.500000 0.000000
Si Si8 0.589792 0.290493 0.406789
O O1 0.683210 0.943658 0.584365
O O2 0.770346 0.810091 0.554001
O O3 0.631328 0.814719 0.449249
O O4 0.765893 0.924051 0.376381
O O5 0.762301 0.079233 0.445325
O O6 0.819106 0.052970 0.227049
O O7 0.912397 0.002050 0.420005
O O8 0.069995 0.569995 0.250000
O O9 0.222792 0.585794 0.325073
O O10 0.175090 0.437728 0.260051
O O11 0.291623 0.812346 0.621652
O O12 0.352437 0.794184 0.400607
O O13 0.154573 0.141135 0.965144
O O14 0.224678 0.992380 0.009300
#
# Coordination Sequence:
#
# PCOD9558537 Si02
#       8
#     8   8   8   8   8   4   2   8
#     4  10  22  41  65  92 133 174 220 280 339 406
#     4  12  24  44  68  98 137 179 226 282 348 409
#     4  10  20  39  65  93 125 169 220 278 328 394
#     4  11  23  42  66 101 132 181 227 275 344 414
#     4  10  23  42  65  96 129 176 231 272 346 411
#     4  12  21  36  72  96 132 168 231 286 320 410
#     4  12  28  44  68 106 128 180 244 280 338 420
#     4  11  25  43  68  95 138 179 225 284 349 413
#
# _framework density 20.284243
#
# number of rings (size 3 to 8) (size 9 to 14) (size 15 to 20)
#    0.000    1.185    4.444    1.556    0.000    6.815 
#    0.000    0.741    0.000    1.778    0.000    0.000 
#    0.000    0.000    0.000    0.000    0.000    0.000 
#
# Total GULP energy -301223.323426 kJ/mol
# GULP energy per Si atom -5578.209693 kJ/mol
# Density = 2.023807 g / cm^3
# Si number density = 20.284243 Si / 1000 Ang^3
#
#
#
# Elastic Constant Matrix: (Units=GPa)
#
#
# Indices 1 2 3 4 5 6 
#
# 1 119.7065 50.6739 24.8118 0.0000 0.0000 0.0000
# 2 50.6739 119.7075 24.8119 0.0000 0.0000 0.0000
# 3 24.8118 24.8119 71.4911 0.0000 0.0000 0.0000
# 4 0.0000 0.0000 0.0000 24.0031 0.0000 0.0000
# 5 0.0000 0.0000 0.0000 0.0000 24.0031 0.0000
# 6 0.0000 0.0000 0.0000 0.0000 0.0000 33.9901
#
#
#
# Elastic Compliance Matrix: (Units=1/GPa)
#
#
# Indices 1 2 3 4 5 6 
#
# 1 0.010508 -0.003978 -0.002266 0.000000 0.000000 0.000000
# 2 -0.003978 0.010507 -0.002266 0.000000 0.000000 0.000000
# 3 -0.002266 -0.002266 0.015561 0.000000 0.000000 0.000000
# 4 0.000000 0.000000 0.000000 0.041661 0.000000 0.000000
# 5 0.000000 0.000000 0.000000 0.000000 0.041661 0.000000
# 6 0.000000 0.000000 0.000000 0.000000 0.000000 0.029420
#
#
# Mechanical properties :
#
#
# Convention : Reuss Voigt Hill
#
# Bulk Modulus (GPa) = 51.13805 56.83336 53.98571
# Shear Modulus (GPa) = 28.92552 30.43974 29.68263
#
# Velocity S-wave (km/s) = 3.78035 3.87804 3.82951
# Velocity P-wave (km/s) = 6.65734 6.93769 6.79896
#
# Compressibility (1/GPa) = 0.01955491
#
# Stress axis : x y z
#
# Youngs Moduli (GPa) = 95.16972 95.17050 64.26462
#
# Poissons Ratio (x) = 0.37862 0.14563
# Poissons Ratio (y) = 0.37861 0.14563
# Poissons Ratio (z) = 0.21566 0.21566
#
# Static dielectric constant tensor:
#      x y z
#    x 1.735140 0.000000 0.000000 
#    y 0.000000 1.735140 0.000000 
#    z 0.000000 0.000000 1.734340 
# 
# From -- ./inp_files/3456.got.cif
#   From: 2010.05.17/outbox.cif.g08.bks.cpg/sg118_2_cif.got.tgz:3456.got - 2010.05.20 11:17:24.
