data_PCOD9558688
_publ_section_title
;
Structure prediction by ZEFSAII (Michael W. Deem and Ramdas Pophale) SiO2 
 PCOD9558688
Probable space group: P -4 N 2
;
_chemical_formula_sum "Si O2"
_cell_formula_units_Z 28
_cell_length_a 9.033855
_cell_length_b 9.033855
_cell_length_c 15.451692
_cell_angle_alpha 90.000000
_cell_angle_beta 90.000000
_cell_angle_gamma 90.000000
_cell_volume 1261.020869
_symmetry_space_group_name_H-M "P -4 N 2"
_symmetry_group_IT_number 118
_symmetry_cell_setting 'tetragonal'
loop_
_space_group_symop_operation_xyz
x,y,z
y,-x,-z
-x,-y,z
-y,x,-z
1/2+y,1/2+x,1/2-z
1/2-y,1/2-x,1/2-z
1/2-x,1/2+y,1/2+z
1/2+x,1/2-y,1/2+z
loop_
_atom_site_type_symbol
_atom_site_label
_atom_site_fract_x
_atom_site_fract_y
_atom_site_fract_z
Si Si1 0.737317 0.584943 0.140868
Si Si2 0.500000 0.000000 0.750000
Si Si3 0.000000 0.500000 0.897449
Si Si4 0.771620 0.084636 0.987319
Si Si5 0.000000 0.000000 0.500000
Si Si6 0.829272 0.329272 0.750000
O O1 0.647878 0.659538 0.220038
O O2 0.859681 0.487052 0.186871
O O3 0.832982 0.718831 0.098914
O O4 0.637970 0.516760 0.065513
O O5 0.915124 0.620654 0.955904
O O6 0.910035 0.395890 0.832847
O O7 0.914509 0.173912 0.023272
#
# Coordination Sequence:
#
# PCOD9558688 Si02
#       6
#     8   2   4   8   2   4
#     4  11  24  48  70 109 144 190 244 298 368 442
#     4  10  26  46  74  98 156 182 232 326 374 414
#     4  11  21  44  71  99 140 188 234 297 361 426
#     4  11  24  44  74 104 139 193 241 298 363 454
#     4  12  28  48  80 108 144 206 256 288 364 480
#     4  10  22  44  68 102 144 172 238 302 350 428
#
# _framework density 22.204232000000001
#
# number of rings (size 3 to 8) (size 9 to 14) (size 15 to 20)
#    0.000    1.143    2.857    2.571    4.000    0.000 
#   10.286    0.000    0.000    0.000    0.000    0.000 
#    0.000    0.000    0.000    0.000    0.000    0.000 
#
# Total GULP energy -156100.878388 kJ/mol
# GULP energy per Si atom -5575.031371 kJ/mol
# Density = 2.215369 g / cm^3
# Si number density = 22.204232 Si / 1000 Ang^3
#
#
#
# Elastic Constant Matrix: (Units=GPa)
#
#
# Indices 1 2 3 4 5 6 
#
# 1 75.4234 84.5330 71.5940 0.0000 0.0000 0.0000
# 2 84.5330 75.4234 71.5940 0.0000 0.0000 0.0000
# 3 71.5940 71.5940 134.6929 0.0000 0.0000 0.0000
# 4 0.0000 0.0000 0.0000 11.1125 0.0000 0.0000
# 5 0.0000 0.0000 0.0000 0.0000 11.1125 0.0000
# 6 0.0000 0.0000 0.0000 0.0000 0.0000 36.0943
#
#
#
# Elastic Compliance Matrix: (Units=1/GPa)
#
#
# Indices 1 2 3 4 5 6 
#
# 1 -0.048924 0.060851 -0.006339 0.000000 0.000000 0.000000
# 2 0.060851 -0.048924 -0.006339 0.000000 0.000000 0.000000
# 3 -0.006339 -0.006339 0.014163 0.000000 0.000000 0.000000
# 4 0.000000 0.000000 0.000000 0.089989 0.000000 0.000000
# 5 0.000000 0.000000 0.000000 0.000000 0.089989 0.000000
# 6 0.000000 0.000000 0.000000 0.000000 0.000000 0.027705
#
#
# Mechanical properties :
#
#
# Convention : Reuss Voigt Hill
#
# Bulk Modulus (GPa) = 78.99483 82.33131 80.66307
# Shear Modulus (GPa) = 156.87024 15.51842 86.19433
#
# Velocity S-wave (km/s) = 8.41440 2.64653 6.23724
# Velocity P-wave (km/s) = 11.40424 6.81898 9.39561
#
# Compressibility (1/GPa) = 0.01265906
#
# Stress axis : x y z
#
# Youngs Moduli (GPa) = -20.43971 -20.43971 70.60410
#
# Poissons Ratio (x) = 1.24377 0.44758
# Poissons Ratio (y) = 1.24377 0.44758
# Poissons Ratio (z) = -0.12957 -0.12957
#
# Static dielectric constant tensor:
#      x y z
#    x 1.876030 0.000000 0.000000 
#    y 0.000000 1.876030 0.000000 
#    z 0.000000 0.000000 1.817760 
# 
# From -- ./inp_files/4671.got.cif
#   From: 2010.05.17/outbox.cif.g08.bks.cpg/sg118_3_cif.got.tgz:4671.got - 2010.05.20 11:17:24.
