data_PCOD9558612
_publ_section_title
;
Structure prediction by ZEFSAII (Michael W. Deem and Ramdas Pophale) SiO2 
 PCOD9558612
Probable space group: P -4 N 2
;
_chemical_formula_sum "Si O2"
_cell_formula_units_Z 56
_cell_length_a 14.272907
_cell_length_b 14.272907
_cell_length_c 11.637609
_cell_angle_alpha 90.000000
_cell_angle_beta 90.000000
_cell_angle_gamma 90.000000
_cell_volume 2370.765691
_symmetry_space_group_name_H-M "P -4 N 2"
_symmetry_group_IT_number 118
_symmetry_cell_setting 'tetragonal'
loop_
_space_group_symop_operation_xyz
x,y,z
y,-x,-z
-x,-y,z
-y,x,-z
1/2+y,1/2+x,1/2-z
1/2-y,1/2-x,1/2-z
1/2-x,1/2+y,1/2+z
1/2+x,1/2-y,1/2+z
loop_
_atom_site_type_symbol
_atom_site_label
_atom_site_fract_x
_atom_site_fract_y
_atom_site_fract_z
Si Si1 0.689865 0.788138 0.872892
Si Si2 0.441217 0.300564 0.506018
Si Si3 0.087972 0.942521 0.811931
Si Si4 0.495506 0.893503 0.439833
Si Si5 0.797990 0.397459 0.894087
Si Si6 0.787103 0.601277 0.899118
Si Si7 0.751808 0.140074 0.664460
O O1 0.667775 0.832226 0.750000
O O2 0.775569 0.841038 0.937576
O O3 0.721314 0.681933 0.851029
O O4 0.608149 0.793698 0.966080
O O5 0.493272 0.374040 0.584982
O O6 0.434135 0.344592 0.378715
O O7 0.495850 0.201323 0.513501
O O8 0.172829 0.928129 0.723546
O O9 0.000000 0.000000 0.762300
O O10 0.592182 0.886666 0.368939
O O11 0.397228 0.885805 0.375780
O O12 0.500000 0.000000 0.490255
O O13 0.760007 0.497989 0.858655
O O14 0.734836 0.312390 0.854716
O O15 0.779321 0.608579 0.038226
O O16 0.667730 0.167730 0.750000
#
# Coordination Sequence:
#
# PCOD9558612 Si02
#       7
#     8   8   8   8   8   8   8
#     4  10  22  37  62  90 124 174 211 263 336 400
#     4  11  20  40  62  92 135 166 217 289 340 398
#     4  12  24  40  65 103 134 178 234 286 351 420
#     4   9  18  36  66  84 116 166 206 268 330 389
#     4   9  21  42  60  88 129 159 206 271 323 393
#     4  10  21  41  62  91 124 162 211 266 331 389
#     4  11  23  42  67  94 125 182 221 264 342 416
#
# _framework density 23.621061000000001
#
# number of rings (size 3 to 8) (size 9 to 14) (size 15 to 20)
#    0.000    1.714    1.429    4.286    2.000    1.143 
#    5.143    0.000    0.000    0.000    0.000    0.000 
#    0.000    0.000    0.000    0.000    0.000    0.000 
#
# Total GULP energy -312893.490538 kJ/mol
# GULP energy per Si atom -5587.383760 kJ/mol
# Density = 2.356730 g / cm^3
# Si number density = 23.621061 Si / 1000 Ang^3
#
#
#
# Elastic Constant Matrix: (Units=GPa)
#
#
# Indices 1 2 3 4 5 6 
#
# 1 78.1884 29.6508 7.0132 0.0000 0.0000 0.0000
# 2 29.6508 78.1882 7.0133 0.0000 0.0000 0.0000
# 3 7.0132 7.0133 90.7961 0.0000 0.0000 0.0000
# 4 0.0000 0.0000 0.0000 13.5973 0.0000 0.0000
# 5 0.0000 0.0000 0.0000 0.0000 13.5975 0.0000
# 6 0.0000 0.0000 0.0000 0.0000 0.0000 44.7677
#
#
#
# Elastic Compliance Matrix: (Units=1/GPa)
#
#
# Indices 1 2 3 4 5 6 
#
# 1 0.014985 -0.005618 -0.000724 0.000000 0.000000 0.000000
# 2 -0.005618 0.014985 -0.000724 0.000000 0.000000 0.000000
# 3 -0.000724 -0.000724 0.011125 0.000000 0.000000 0.000000
# 4 0.000000 0.000000 0.000000 0.073544 0.000000 0.000000
# 5 0.000000 0.000000 0.000000 0.000000 0.073543 0.000000
# 6 0.000000 0.000000 0.000000 0.000000 0.000000 0.022338
#
#
# Mechanical properties :
#
#
# Convention : Reuss Voigt Hill
#
# Bulk Modulus (GPa) = 37.08417 37.16970 37.12694
# Shear Modulus (GPa) = 21.40064 27.95886 24.67975
#
# Velocity S-wave (km/s) = 3.01325 3.44414 3.23587
# Velocity P-wave (km/s) = 5.27635 5.62015 5.45097
#
# Compressibility (1/GPa) = 0.02696568
#
# Stress axis : x y z
#
# Youngs Moduli (GPa) = 66.73387 66.73375 89.88394
#
# Poissons Ratio (x) = 0.37489 0.06503
# Poissons Ratio (y) = 0.37489 0.06504
# Poissons Ratio (z) = 0.04828 0.04829
#
# Static dielectric constant tensor:
#      x y z
#    x 1.917690 0.000000 0.000000 
#    y 0.000000 1.917690 0.000000 
#    z 0.000000 0.000000 1.923400 
# 
# From -- ./inp_files/3434.got.cif
#   From: 2010.05.17/outbox.cif.g08.bks.cpg/sg118_2_cif.got.tgz:3434.got - 2010.05.20 11:17:24.
