data_PCOD9558460
_publ_section_title
;
Structure prediction by ZEFSAII (Michael W. Deem and Ramdas Pophale) SiO2 
 PCOD9558460
Probable space group: P -4 N 2
;
_chemical_formula_sum "Si O2"
_cell_formula_units_Z 44
_cell_length_a 8.126988
_cell_length_b 8.126988
_cell_length_c 32.183347
_cell_angle_alpha 90.000000
_cell_angle_beta 90.000000
_cell_angle_gamma 90.000000
_cell_volume 2125.643577
_symmetry_space_group_name_H-M "P -4 N 2"
_symmetry_group_IT_number 118
_symmetry_cell_setting 'tetragonal'
loop_
_space_group_symop_operation_xyz
x,y,z
y,-x,-z
-x,-y,z
-y,x,-z
1/2+y,1/2+x,1/2-z
1/2-y,1/2-x,1/2-z
1/2-x,1/2+y,1/2+z
1/2+x,1/2-y,1/2+z
loop_
_atom_site_type_symbol
_atom_site_label
_atom_site_fract_x
_atom_site_fract_y
_atom_site_fract_z
Si Si1 0.309945 0.463503 0.871706
Si Si2 0.675237 0.092661 0.058228
Si Si3 0.706595 0.687591 0.398935
Si Si4 0.836021 0.615128 0.702534
Si Si5 0.862697 0.775394 0.483747
Si Si6 0.500000 0.500000 0.339279
O O1 0.500000 0.500000 0.876010
O O2 0.243306 0.358042 0.910585
O O3 0.223383 0.642096 0.873463
O O4 0.261265 0.372667 0.829750
O O5 0.500000 0.000000 0.056390
O O6 0.799632 0.965284 0.077218
O O7 0.727545 0.147310 0.013113
O O8 0.841227 0.714194 0.436265
O O9 0.665760 0.541141 0.366848
O O10 0.826568 0.673433 0.750000
O O11 0.665575 0.532197 0.687355
O O12 0.000000 0.500000 0.699736
O O13 0.046275 0.788325 0.503702
#
# Coordination Sequence:
#
# PCOD9558460 Si02
#       6
#     8   8   8   8   8   4
#     4  11  20  41  69  97 134 182 225 281 358 422
#     4  10  19  37  56  84 128 176 228 277 333 411
#     4  11  23  40  64  94 135 185 225 292 342 412
#     4  11  24  46  78 106 137 182 226 286 364 439
#     4  11  21  35  61  95 129 179 237 286 340 403
#     4  12  24  46  73 106 142 180 246 285 358 444
#
# _framework density 20.699614
#
# number of rings (size 3 to 8) (size 9 to 14) (size 15 to 20)
#    0.000    1.091    7.273    1.636    1.273    1.455 
#    0.000    0.909    0.000    1.091    0.000    0.000 
#    0.000    0.000    0.000    0.000    0.000    0.000 
#
# Total GULP energy -245215.229720 kJ/mol
# GULP energy per Si atom -5573.073403 kJ/mol
# Density = 2.065250 g / cm^3
# Si number density = 20.699614 Si / 1000 Ang^3
#
#
#
# Elastic Constant Matrix: (Units=GPa)
#
#
# Indices 1 2 3 4 5 6 
#
# 1 85.2799 7.3533 35.5760 0.0000 0.0000 0.0000
# 2 7.3533 85.2799 35.5760 0.0000 0.0000 0.0000
# 3 35.5760 35.5760 144.1008 0.0000 0.0000 0.0000
# 4 0.0000 0.0000 0.0000 23.6790 0.0000 0.0000
# 5 0.0000 0.0000 0.0000 0.0000 23.6789 0.0000
# 6 0.0000 0.0000 0.0000 0.0000 0.0000 13.4258
#
#
#
# Elastic Compliance Matrix: (Units=1/GPa)
#
#
# Indices 1 2 3 4 5 6 
#
# 1 0.013077 0.000244 -0.003289 0.000000 0.000000 0.000000
# 2 0.000244 0.013077 -0.003289 0.000000 0.000000 0.000000
# 3 -0.003289 -0.003289 0.008563 0.000000 0.000000 0.000000
# 4 0.000000 0.000000 0.000000 0.042232 0.000000 0.000000
# 5 0.000000 0.000000 0.000000 0.000000 0.042232 0.000000
# 6 0.000000 0.000000 0.000000 0.000000 0.000000 0.074483
#
#
# Mechanical properties :
#
#
# Convention : Reuss Voigt Hill
#
# Bulk Modulus (GPa) = 45.34936 52.40792 48.87864
# Shear Modulus (GPa) = 23.39937 27.90042 25.64989
#
# Velocity S-wave (km/s) = 3.36583 3.67532 3.52397
# Velocity P-wave (km/s) = 6.08777 6.58665 6.34211
#
# Compressibility (1/GPa) = 0.02205103
#
# Stress axis : x y z
#
# Youngs Moduli (GPa) = 76.47012 76.47005 116.77472
#
# Poissons Ratio (x) = -0.01869 0.38405
# Poissons Ratio (y) = -0.01869 0.38405
# Poissons Ratio (z) = 0.25150 0.25150
#
# Static dielectric constant tensor:
#      x y z
#    x 1.828240 0.000000 0.000000 
#    y 0.000000 1.828240 0.000000 
#    z 0.000000 0.000000 1.784730 
# 
# From -- ./inp_files/6761.got.cif
#   From: 2010.05.17/outbox.cif.g08.bks.cpg/sg118_4_cif.got.tgz:6761.got - 2010.05.20 11:17:24.
