data_PCOD9558685
_publ_section_title
;
Structure prediction by ZEFSAII (Michael W. Deem and Ramdas Pophale) SiO2 
 PCOD9558685
Probable space group: P -4 N 2
;
_chemical_formula_sum "Si O2"
_cell_formula_units_Z 48
_cell_length_a 8.631340
_cell_length_b 8.631340
_cell_length_c 31.092262
_cell_angle_alpha 90.000000
_cell_angle_beta 90.000000
_cell_angle_gamma 90.000000
_cell_volume 2316.374458
_symmetry_space_group_name_H-M "P -4 N 2"
_symmetry_group_IT_number 118
_symmetry_cell_setting 'tetragonal'
loop_
_space_group_symop_operation_xyz
x,y,z
y,-x,-z
-x,-y,z
-y,x,-z
1/2+y,1/2+x,1/2-z
1/2-y,1/2-x,1/2-z
1/2-x,1/2+y,1/2+z
1/2+x,1/2-y,1/2+z
loop_
_atom_site_type_symbol
_atom_site_label
_atom_site_fract_x
_atom_site_fract_y
_atom_site_fract_z
Si Si1 0.842932 0.599510 0.091982
Si Si2 0.871741 0.108889 0.360676
Si Si3 0.906453 0.656967 0.799662
Si Si4 0.149980 0.213544 0.004034
Si Si5 0.373002 0.890588 0.424966
Si Si6 0.425603 0.336675 0.364242
O O1 0.724224 0.473644 0.110710
O O2 0.813555 0.687663 0.046561
O O3 0.846808 0.744247 0.125444
O O4 0.000000 0.500000 0.088001
O O5 0.753627 0.177080 0.325882
O O6 0.753031 0.028107 0.394422
O O7 0.000000 0.000000 0.339624
O O8 0.862656 0.637345 0.750000
O O9 0.000000 0.500000 0.811866
O O10 0.024506 0.789105 0.815930
O O11 0.213677 0.296342 0.961635
O O12 0.963931 0.204759 0.996259
O O13 0.479135 0.782564 0.394466
O O14 0.500000 0.000000 0.446184
O O15 0.500000 0.500000 0.375439
#
# Coordination Sequence:
#
# PCOD9558685 Si02
#       6
#     8   8   8   8   8   8
#     4  12  23  38  61  95 130 175 219 277 338 388
#     4  11  23  40  61  92 133 166 205 277 345 396
#     4  10  22  43  72 100 126 169 225 269 328 424
#     4  11  22  38  62  89 122 172 236 284 316 389
#     4  11  22  39  61  85 123 178 228 273 325 400
#     4  11  21  40  65  92 129 177 224 268 337 407
#
# _framework density 20.722037
#
# number of rings (size 3 to 8) (size 9 to 14) (size 15 to 20)
#    0.000    1.000    1.667    8.500    0.000    0.667 
#    0.000    0.000    0.000    3.500    0.000    0.000 
#    0.000    0.000    0.000    0.000    0.000    0.000 
#
# Total GULP energy -267814.032207 kJ/mol
# GULP energy per Si atom -5579.459004 kJ/mol
# Density = 2.067487 g / cm^3
# Si number density = 20.722037 Si / 1000 Ang^3
#
#
#
# Elastic Constant Matrix: (Units=GPa)
#
#
# Indices 1 2 3 4 5 6 
#
# 1 88.4452 25.0034 29.9060 0.0000 0.0000 0.0000
# 2 25.0034 88.4452 29.9060 0.0000 0.0000 0.0000
# 3 29.9060 29.9060 110.1619 0.0000 0.0000 0.0000
# 4 0.0000 0.0000 0.0000 27.5400 0.0000 0.0000
# 5 0.0000 0.0000 0.0000 0.0000 27.5400 0.0000
# 6 0.0000 0.0000 0.0000 0.0000 0.0000 37.4388
#
#
#
# Elastic Compliance Matrix: (Units=1/GPa)
#
#
# Indices 1 2 3 4 5 6 
#
# 1 0.013025 -0.002738 -0.002793 0.000000 0.000000 0.000000
# 2 -0.002738 0.013025 -0.002793 0.000000 0.000000 0.000000
# 3 -0.002793 -0.002793 0.010594 0.000000 0.000000 0.000000
# 4 0.000000 0.000000 0.000000 0.036311 0.000000 0.000000
# 5 0.000000 0.000000 0.000000 0.000000 0.036311 0.000000
# 6 0.000000 0.000000 0.000000 0.000000 0.000000 0.026710
#
#
# Mechanical properties :
#
#
# Convention : Reuss Voigt Hill
#
# Bulk Modulus (GPa) = 50.00727 50.74257 50.37492
# Shear Modulus (GPa) = 31.38992 31.98622 31.68807
#
# Velocity S-wave (km/s) = 3.89628 3.93311 3.91474
# Velocity P-wave (km/s) = 6.66529 6.72058 6.69299
#
# Compressibility (1/GPa) = 0.01999709
#
# Stress axis : x y z
#
# Youngs Moduli (GPa) = 76.77738 76.77734 94.39501
#
# Poissons Ratio (x) = 0.21020 0.26361
# Poissons Ratio (y) = 0.21020 0.26361
# Poissons Ratio (z) = 0.21441 0.21441
#
# Static dielectric constant tensor:
#      x y z
#    x 1.774000 0.000000 0.000000 
#    y 0.000000 1.774000 0.000000 
#    z 0.000000 0.000000 1.754700 
# 
# From -- ./inp_files/6875.got.cif
#   From: 2010.05.17/outbox.cif.g08.bks.cpg/sg118_4_cif.got.tgz:6875.got - 2010.05.20 11:17:24.
