data_PCOD9558420
_publ_section_title
;
Structure prediction by ZEFSAII (Michael W. Deem and Ramdas Pophale) SiO2 
 PCOD9558420
Probable space group: P -4 N 2
;
_chemical_formula_sum "Si O2"
_cell_formula_units_Z 36
_cell_length_a 9.547779
_cell_length_b 9.547779
_cell_length_c 19.795667
_cell_angle_alpha 90.000000
_cell_angle_beta 90.000000
_cell_angle_gamma 90.000000
_cell_volume 1804.574663
_symmetry_space_group_name_H-M "P -4 N 2"
_symmetry_group_IT_number 118
_symmetry_cell_setting 'tetragonal'
loop_
_space_group_symop_operation_xyz
x,y,z
y,-x,-z
-x,-y,z
-y,x,-z
1/2+y,1/2+x,1/2-z
1/2-y,1/2-x,1/2-z
1/2-x,1/2+y,1/2+z
1/2+x,1/2-y,1/2+z
loop_
_atom_site_type_symbol
_atom_site_label
_atom_site_fract_x
_atom_site_fract_y
_atom_site_fract_z
Si Si1 0.000000 0.500000 0.250000
Si Si2 0.587240 0.783406 0.644622
Si Si3 0.216434 0.921796 0.317178
Si Si4 0.500000 0.000000 0.970960
Si Si5 0.206341 0.979884 0.466461
Si Si6 0.000000 0.500000 0.750000
Si Si7 0.000000 0.000000 0.198552
O O1 0.865958 0.494046 0.296665
O O2 0.753415 0.782150 0.665809
O O3 0.517634 0.631507 0.648457
O O4 0.554446 0.874067 0.577797
O O5 0.172809 0.990844 0.387525
O O6 0.123447 0.966567 0.252924
O O7 0.367209 0.982376 0.298251
O O8 0.542077 0.131536 0.016927
O O9 0.117347 0.852336 0.496937
#
# Coordination Sequence:
#
# PCOD9558420 Si02
#       7
#     2   8   8   4   8   2   4
#     4  10  18  38  66  90 126 174 198 264 332 396
#     4  11  23  43  66  98 139 164 223 279 330 405
#     4  12  24  44  64 100 139 171 223 282 330 407
#     4  11  25  47  70  97 133 185 222 282 332 387
#     4  11  24  45  71  97 130 182 233 271 324 404
#     4  12  24  42  66  94 144 172 206 284 352 386
#     4  12  22  42  69 101 136 172 214 284 344 390
#
# _framework density 19.949300999999998
#
# number of rings (size 3 to 8) (size 9 to 14) (size 15 to 20)
#    0.000    0.667    6.667    2.000    0.000    2.667 
#    4.000    0.000    0.000    0.000    0.000    0.000 
#    0.000    0.000    0.000    0.000    0.000    0.000 
#
# Total GULP energy -200697.062457 kJ/mol
# GULP energy per Si atom -5574.918402 kJ/mol
# Density = 1.990390 g / cm^3
# Si number density = 19.949301 Si / 1000 Ang^3
#
#
#
# Elastic Constant Matrix: (Units=GPa)
#
#
# Indices 1 2 3 4 5 6 
#
# 1 124.6707 20.4538 3.1402 0.0000 0.0000 0.0000
# 2 20.4538 124.6707 3.1402 0.0000 0.0000 0.0000
# 3 3.1402 3.1402 69.0660 0.0000 0.0000 0.0000
# 4 0.0000 0.0000 0.0000 -1.5009 0.0000 0.0000
# 5 0.0000 0.0000 0.0000 0.0000 -1.5009 0.0000
# 6 0.0000 0.0000 0.0000 0.0000 0.0000 27.1862
#
#
#
# Elastic Compliance Matrix: (Units=1/GPa)
#
#
# Indices 1 2 3 4 5 6 
#
# 1 0.008250 -0.001346 -0.000314 0.000000 0.000000 0.000000
# 2 -0.001346 0.008250 -0.000314 0.000000 0.000000 0.000000
# 3 -0.000314 -0.000314 0.014507 0.000000 0.000000 0.000000
# 4 0.000000 0.000000 0.000000 -0.666284 0.000000 0.000000
# 5 0.000000 0.000000 0.000000 0.000000 -0.666284 0.000000
# 6 0.000000 0.000000 0.000000 0.000000 0.000000 0.036783
#
#
# Mechanical properties :
#
#
# Convention : Reuss Voigt Hill
#
# Bulk Modulus (GPa) = 36.95459 41.31954 39.13707
# Shear Modulus (GPa) = -3.99421 24.28177 10.14378
#
# Velocity S-wave (km/s) = -1.41652 3.49259 2.25739
# Velocity P-wave (km/s) = 3.98611 6.08453 5.14347
#
# Compressibility (1/GPa) = 0.02706024
#
# Stress axis : x y z
#
# Youngs Moduli (GPa) = 121.21512 121.21512 68.93006
#
# Poissons Ratio (x) = 0.16310 0.02164
# Poissons Ratio (y) = 0.16310 0.02164
# Poissons Ratio (z) = 0.03805 0.03805
#
# Static dielectric constant tensor:
#      x y z
#    x 1.741110 0.000000 0.000000 
#    y 0.000000 1.741110 0.000000 
#    z 0.000000 0.000000 1.656820 
# 
# From -- ./inp_files/5546.got.cif
#   From: 2010.05.17/outbox.cif.g08.bks.cpg/sg118_3_cif.got.tgz:5546.got - 2010.05.20 11:17:24.
