data_PCOD9558204
_publ_section_title
;
Structure prediction by ZEFSAII (Michael W. Deem and Ramdas Pophale) SiO2 
 PCOD9558204
Probable space group: P -4 B 2
;
_chemical_formula_sum "Si O2"
_cell_formula_units_Z 30
_cell_length_a 10.670578
_cell_length_b 10.670578
_cell_length_c 11.643992
_cell_angle_alpha 90.000000
_cell_angle_beta 90.000000
_cell_angle_gamma 90.000000
_cell_volume 1325.799308
_symmetry_space_group_name_H-M "P -4 B 2"
_symmetry_group_IT_number 117
_symmetry_cell_setting 'tetragonal'
loop_
_space_group_symop_operation_xyz
x,y,z
y,-x,-z
-x,-y,z
-y,x,-z
1/2+y,1/2+x,-z
1/2-y,1/2-x,-z
1/2-x,1/2+y,z
1/2+x,1/2-y,z
loop_
_atom_site_type_symbol
_atom_site_label
_atom_site_fract_x
_atom_site_fract_y
_atom_site_fract_z
Si Si1 0.000000 0.000000 0.500000
Si Si2 0.500000 0.000000 0.345974
Si Si3 0.195087 0.059960 0.022785
Si Si4 0.342223 0.179431 0.203795
Si Si5 0.241771 0.867281 0.396945
O O1 0.883968 0.055043 0.425937
O O2 0.546018 0.880596 0.275352
O O3 0.365235 0.956511 0.397465
O O4 0.279790 0.097588 0.915794
O O5 0.244587 0.077380 0.152633
O O6 0.078651 0.151564 0.004214
O O7 0.278267 0.287082 0.280426
O O8 0.268848 0.768848 0.500000
#
# Coordination Sequence:
#
# PCOD9558204 Si02
#       5
#     2   4   8   8   8
#     4  12  28  48  76 108 150 196 252 312 380 458
#     4  12  25  43  70 102 142 183 237 298 362 438
#     4  10  22  40  64  95 133 178 231 291 355 426
#     4  11  24  42  67  98 137 183 235 295 360 432
#     4  12  26  47  73 106 144 190 243 307 375 449
#
# _framework density 22.627856999999999
#
# number of rings (size 3 to 8) (size 9 to 14) (size 15 to 20)
#    0.000    0.800    0.000    6.800    0.000    8.533 
#    0.000    0.000    0.000    0.000    0.000    0.000 
#    0.000    0.000    0.000    0.000    0.000    0.000 
#
# Total GULP energy -167361.079225 kJ/mol
# GULP energy per Si atom -5578.702641 kJ/mol
# Density = 2.257635 g / cm^3
# Si number density = 22.627857 Si / 1000 Ang^3
#
#
#
# Elastic Constant Matrix: (Units=GPa)
#
#
# Indices 1 2 3 4 5 6 
#
# 1 97.2787 28.3139 23.9781 0.0000 0.0000 0.0000
# 2 28.3139 97.2787 23.9781 0.0000 0.0000 0.0000
# 3 23.9781 23.9781 72.7295 0.0000 0.0000 0.0000
# 4 0.0000 0.0000 0.0000 263.4507 0.0000 0.0000
# 5 0.0000 0.0000 0.0000 0.0000 263.4507 0.0000
# 6 0.0000 0.0000 0.0000 0.0000 0.0000 55.1756
#
#
#
# Elastic Compliance Matrix: (Units=1/GPa)
#
#
# Indices 1 2 3 4 5 6 
#
# 1 0.011805 -0.002696 -0.003003 0.000000 0.000000 0.000000
# 2 -0.002696 0.011805 -0.003003 0.000000 0.000000 0.000000
# 3 -0.003003 -0.003003 0.015730 0.000000 0.000000 0.000000
# 4 0.000000 0.000000 0.000000 0.003796 0.000000 0.000000
# 5 0.000000 0.000000 0.000000 0.000000 0.003796 0.000000
# 6 0.000000 0.000000 0.000000 0.000000 0.000000 0.018124
#
#
# Mechanical properties :
#
#
# Convention : Reuss Voigt Hill
#
# Bulk Modulus (GPa) = 45.58883 46.64747 46.11815
# Shear Modulus (GPa) = 55.69802 129.14984 92.42393
#
# Velocity S-wave (km/s) = 4.96671 7.56304 6.39796
# Velocity P-wave (km/s) = 7.28574 9.84509 8.66048
#
# Compressibility (1/GPa) = 0.02193520
#
# Stress axis : x y z
#
# Youngs Moduli (GPa) = 84.71306 84.71306 63.57371
#
# Poissons Ratio (x) = 0.22835 0.19092
# Poissons Ratio (y) = 0.22835 0.19092
# Poissons Ratio (z) = 0.25440 0.25440
#
# Static dielectric constant tensor:
#      x y z
#    x 1.817810 0.000000 0.000000 
#    y 0.000000 1.817810 0.000000 
#    z 0.000000 0.000000 1.846270 
# 
# From -- ./inp_files/2314.got.cif
#   From: 2010.05.17/outbox.cif.g08.bks.cpg/sg117_2_cif.got.tgz:2314.got - 2010.05.20 11:15:09.
