data_PCOD9558306
_publ_section_title
;
Structure prediction by ZEFSAII (Michael W. Deem and Ramdas Pophale) SiO2 
 PCOD9558306
Probable space group: P -4 B 2
;
_chemical_formula_sum "Si O2"
_cell_formula_units_Z 34
_cell_length_a 8.889184
_cell_length_b 8.889184
_cell_length_c 17.542329
_cell_angle_alpha 90.000000
_cell_angle_beta 90.000000
_cell_angle_gamma 90.000000
_cell_volume 1386.152599
_symmetry_space_group_name_H-M "P -4 B 2"
_symmetry_group_IT_number 117
_symmetry_cell_setting 'tetragonal'
loop_
_space_group_symop_operation_xyz
x,y,z
y,-x,-z
-x,-y,z
-y,x,-z
1/2+y,1/2+x,-z
1/2-y,1/2-x,-z
1/2-x,1/2+y,z
1/2+x,1/2-y,z
loop_
_atom_site_type_symbol
_atom_site_label
_atom_site_fract_x
_atom_site_fract_y
_atom_site_fract_z
Si Si1 0.731980 0.542350 0.470667
Si Si2 0.500000 0.500000 0.000000
Si Si3 0.983855 0.319630 0.093645
Si Si4 0.454037 0.667406 0.695623
Si Si5 0.786082 0.223859 0.800769
O O1 0.667757 0.400235 0.516871
O O2 0.881959 0.618042 0.500000
O O3 0.755292 0.511413 0.381287
O O4 0.666751 0.513931 0.957484
O O5 0.075496 0.299543 0.172669
O O6 0.000000 0.500000 0.073465
O O7 0.815365 0.293736 0.121415
O O8 0.500000 0.500000 0.673001
O O9 0.289127 0.700139 0.727002
O O10 0.547553 0.693315 0.772456
#
# Coordination Sequence:
#
# PCOD9558306 Si02
#       5
#     8   2   8   8   8
#     4  11  24  44  65 103 153 200 258 323 390 474
#     4  12  32  60  88 124 168 220 266 340 420 508
#     4  12  28  56  80 120 161 205 267 331 407 497
#     4  12  23  42  75 107 149 204 257 327 404 460
#     4  12  25  48  77 112 153 197 263 330 388 486
#
# _framework density 24.528323
#
# number of rings (size 3 to 8) (size 9 to 14) (size 15 to 20)
#    0.000    0.235    7.059    2.824    0.000    1.412 
#    4.235    0.000    0.000    0.000    0.000    0.000 
#    0.000    0.000    0.000    0.000    0.000    0.000 
#
# Total GULP energy -189509.211635 kJ/mol
# GULP energy per Si atom -5573.800342 kJ/mol
# Density = 2.447250 g / cm^3
# Si number density = 24.528323 Si / 1000 Ang^3
#
#
#
# Elastic Constant Matrix: (Units=GPa)
#
#
# Indices 1 2 3 4 5 6 
#
# 1 72.1528 34.5263 25.8009 0.0000 0.0000 0.0000
# 2 34.5263 72.1535 25.8010 0.0000 0.0000 0.0000
# 3 25.8009 25.8010 110.6735 0.0000 0.0000 0.0000
# 4 0.0000 0.0000 0.0000 40.2636 0.0000 0.0000
# 5 0.0000 0.0000 0.0000 0.0000 40.2638 0.0000
# 6 0.0000 0.0000 0.0000 0.0000 0.0000 34.6586
#
#
#
# Elastic Compliance Matrix: (Units=1/GPa)
#
#
# Indices 1 2 3 4 5 6 
#
# 1 0.018571 -0.008006 -0.002463 0.000000 0.000000 0.000000
# 2 -0.008006 0.018571 -0.002463 0.000000 0.000000 0.000000
# 3 -0.002463 -0.002463 0.010184 0.000000 0.000000 0.000000
# 4 0.000000 0.000000 0.000000 0.024836 0.000000 0.000000
# 5 0.000000 0.000000 0.000000 0.000000 0.024836 0.000000
# 6 0.000000 0.000000 0.000000 0.000000 0.000000 0.028853
#
#
# Mechanical properties :
#
#
# Convention : Reuss Voigt Hill
#
# Bulk Modulus (GPa) = 46.59320 47.47068 47.03194
# Shear Modulus (GPa) = 31.47242 34.29396 32.88319
#
# Velocity S-wave (km/s) = 3.58593 3.74322 3.66542
# Velocity P-wave (km/s) = 6.01516 6.17072 6.09343
#
# Compressibility (1/GPa) = 0.02146236
#
# Stress axis : x y z
#
# Youngs Moduli (GPa) = 53.84706 53.84767 98.19331
#
# Poissons Ratio (x) = 0.43109 0.24186
# Poissons Ratio (y) = 0.43108 0.24185
# Poissons Ratio (z) = 0.13263 0.13263
#
# Static dielectric constant tensor:
#      x y z
#    x 1.980010 0.000000 0.000000 
#    y 0.000000 1.980010 0.000000 
#    z 0.000000 0.000000 1.985440 
# 
# From -- ./inp_files/3443.got.cif
#   From: 2010.05.17/outbox.cif.g08.bks.cpg/sg117_2_cif.got.tgz:3443.got - 2010.05.20 11:15:09.
