data_PCOD9558018
_publ_section_title
;
Structure prediction by ZEFSAII (Michael W. Deem and Ramdas Pophale) SiO2 
 PCOD9558018
Probable space group: P -4 C 2
;
_chemical_formula_sum "Si O2"
_cell_formula_units_Z 38
_cell_length_a 9.744538
_cell_length_b 9.744538
_cell_length_c 13.911453
_cell_angle_alpha 90.000000
_cell_angle_beta 90.000000
_cell_angle_gamma 90.000000
_cell_volume 1320.976221
_symmetry_space_group_name_H-M "P -4 C 2"
_symmetry_group_IT_number 116
_symmetry_cell_setting 'tetragonal'
loop_
_space_group_symop_operation_xyz
x,y,z
y,-x,-z
-x,-y,z
-y,x,-z
y,x,1/2-z
-y,-x,1/2-z
-x,y,1/2+z
x,-y,1/2+z
loop_
_atom_site_type_symbol
_atom_site_label
_atom_site_fract_x
_atom_site_fract_y
_atom_site_fract_z
Si Si1 0.308584 0.047671 0.310483
Si Si2 0.000000 0.000000 0.250000
Si Si3 0.000000 0.000000 0.500000
Si Si4 0.500000 0.500000 0.500000
Si Si5 0.779976 0.450110 0.967701
Si Si6 0.234068 0.554024 0.201715
Si Si7 0.297909 0.042428 0.538182
O O1 0.395390 0.183296 0.278986
O O2 0.328451 0.045388 0.424761
O O3 0.148177 0.018935 0.299474
O O4 0.371045 0.908037 0.267818
O O5 0.053870 0.862854 0.447126
O O6 0.441175 0.623589 0.563464
O O7 0.765195 0.431829 0.084058
O O8 0.840095 0.595912 0.933184
O O9 0.890499 0.342185 0.929841
O O10 0.363911 0.636089 0.250000
#
# Coordination Sequence:
#
# PCOD9558018 Si02
#       7
#     8   2   2   2   8   8   8
#     4   9  19  32  56  78 110 144 183 223 281 338
#     4  12  18  32  50  86 104 146 166 230 276 330
#     4  12  18  28  60  86 108 136 190 240 252 326
#     4  12  20  36  54  84 100 144 184 230 272 312
#     4   9  20  36  57  73 112 146 180 221 282 334
#     4   9  17  38  57  76 105 153 187 224 277 342
#     4   9  19  36  52  80 105 147 179 220 276 328
#
# _framework density 28.766607
#
# number of rings (size 3 to 8) (size 9 to 14) (size 15 to 20)
#    0.000    2.526    1.053    4.421    0.000    0.000 
#    7.579    0.000    0.000    2.526    0.000    0.000 
#    0.000    0.000    0.000    0.000    0.000    0.000 
#
# Total GULP energy -212204.874971 kJ/mol
# GULP energy per Si atom -5584.338815 kJ/mol
# Density = 2.870113 g / cm^3
# Si number density = 28.766607 Si / 1000 Ang^3
#
#
#
# Elastic Constant Matrix: (Units=GPa)
#
#
# Indices 1 2 3 4 5 6 
#
# 1 200.2417 81.1324 25.3324 0.0000 0.0000 0.0000
# 2 81.1324 200.2425 25.3323 0.0000 0.0000 0.0000
# 3 25.3324 25.3323 121.0436 0.0000 0.0000 0.0000
# 4 0.0000 0.0000 0.0000 18.2691 0.0000 0.0000
# 5 0.0000 0.0000 0.0000 0.0000 18.2690 0.0000
# 6 0.0000 0.0000 0.0000 0.0000 0.0000 68.6027
#
#
#
# Elastic Compliance Matrix: (Units=1/GPa)
#
#
# Indices 1 2 3 4 5 6 
#
# 1 0.006044 -0.002351 -0.000773 0.000000 0.000000 0.000000
# 2 -0.002351 0.006044 -0.000773 0.000000 0.000000 0.000000
# 3 -0.000773 -0.000773 0.008585 0.000000 0.000000 0.000000
# 4 0.000000 0.000000 0.000000 0.054737 0.000000 0.000000
# 5 0.000000 0.000000 0.000000 0.000000 0.054738 0.000000
# 6 0.000000 0.000000 0.000000 0.000000 0.000000 0.014577
#
#
# Mechanical properties :
#
#
# Convention : Reuss Voigt Hill
#
# Bulk Modulus (GPa) = 77.64185 87.23579 82.43882
# Shear Modulus (GPa) = 31.88519 47.01021 39.44770
#
# Velocity S-wave (km/s) = 3.33289 4.04690 3.70713
# Velocity P-wave (km/s) = 6.46991 7.22688 6.85884
#
# Compressibility (1/GPa) = 0.01287965
#
# Stress axis : x y z
#
# Youngs Moduli (GPa) = 165.44237 165.44311 116.48221
#
# Poissons Ratio (x) = 0.38900 0.09003
# Poissons Ratio (y) = 0.38899 0.09003
# Poissons Ratio (z) = 0.12787 0.12787
#
# Static dielectric constant tensor:
#      x y z
#    x 2.231080 0.000000 0.000000 
#    y 0.000000 2.231080 0.000000 
#    z 0.000000 0.000000 2.526900 
# 
# From -- ./inp_files/4518.got.cif
#   From: 2010.05.17/outbox.cif.g08.bks.cpg/sg116_3_cif.got.tgz:4518.got - 2010.05.20 11:11:43.
