data_PCOD9558929
_publ_section_title
;
Structure prediction by ZEFSAII (Michael W. Deem and Ramdas Pophale) SiO2 
 PCOD9558929
Probable space group: P -4 N 2
;
_chemical_formula_sum "Si O2"
_cell_formula_units_Z 28
_cell_length_a 7.047561
_cell_length_b 7.047561
_cell_length_c 22.242044
_cell_angle_alpha 90.000000
_cell_angle_beta 90.000000
_cell_angle_gamma 90.000000
_cell_volume 1104.720423
_symmetry_space_group_name_H-M "P -4 N 2"
_symmetry_group_IT_number 118
_symmetry_cell_setting 'tetragonal'
loop_
_space_group_symop_operation_xyz
x,y,z
y,-x,-z
-x,-y,z
-y,x,-z
1/2+y,1/2+x,1/2-z
1/2-y,1/2-x,1/2-z
1/2-x,1/2+y,1/2+z
1/2+x,1/2-y,1/2+z
loop_
_atom_site_type_symbol
_atom_site_label
_atom_site_fract_x
_atom_site_fract_y
_atom_site_fract_z
Si Si1 0.500000 0.500000 0.000000
Si Si2 0.000000 0.000000 0.000000
Si Si3 0.691937 0.384239 0.193395
Si Si4 0.445884 0.788157 0.408102
Si Si5 0.869721 0.671710 0.410368
O O1 0.345945 0.413636 0.045421
O O2 0.175667 0.144167 0.103254
O O3 0.500000 0.500000 0.210463
O O4 0.800875 0.300875 0.250000
O O5 0.706046 0.183596 0.354458
O O6 0.795889 0.542651 0.155106
O O7 0.379690 0.658595 0.463713
O O8 0.500000 0.000000 0.425937
O O9 0.000000 0.500000 0.433581
#
# Coordination Sequence:
#
# PCOD9558929 Si02
#       5
#     2   2   8   8   8
#     4  12  28  52  78 120 180 216 280 350 440 536
#     4  12  32  44  86 124 168 220 280 346 436 552
#     4  12  29  57  81 117 166 222 295 369 439 531
#     4  12  28  53  80 122 167 222 281 355 442 519
#     4  12  29  50  82 123 166 224 283 357 439 527
#
# _framework density 25.345780000000001
#
# number of rings (size 3 to 8) (size 9 to 14) (size 15 to 20)
#    0.000    0.000    4.286    1.714   18.000    1.143 
#    0.000    0.000    0.000    0.000    0.000    0.000 
#    0.000    0.000    0.000    0.000    0.000    0.000 
#
# Total GULP energy -156510.170585 kJ/mol
# GULP energy per Si atom -5589.648949 kJ/mol
# Density = 2.528809 g / cm^3
# Si number density = 25.345780 Si / 1000 Ang^3
#
#
#
# Elastic Constant Matrix: (Units=GPa)
#
#
# Indices 1 2 3 4 5 6 
#
# 1 170.8323 53.1326 49.8836 0.0000 0.0000 0.0000
# 2 53.1326 170.8323 49.8836 0.0000 0.0000 0.0000
# 3 49.8836 49.8836 138.3090 0.0000 0.0000 0.0000
# 4 0.0000 0.0000 0.0000 14.3249 0.0000 0.0000
# 5 0.0000 0.0000 0.0000 0.0000 14.3249 0.0000
# 6 0.0000 0.0000 0.0000 0.0000 0.0000 32.1732
#
#
#
# Elastic Compliance Matrix: (Units=1/GPa)
#
#
# Indices 1 2 3 4 5 6 
#
# 1 0.006908 -0.001588 -0.001919 0.000000 0.000000 0.000000
# 2 -0.001588 0.006908 -0.001919 0.000000 0.000000 0.000000
# 3 -0.001919 -0.001919 0.008614 0.000000 0.000000 0.000000
# 4 0.000000 0.000000 0.000000 0.069808 0.000000 0.000000
# 5 0.000000 0.000000 0.000000 0.000000 0.069808 0.000000
# 6 0.000000 0.000000 0.000000 0.000000 0.000000 0.031082
#
#
# Mechanical properties :
#
#
# Convention : Reuss Voigt Hill
#
# Bulk Modulus (GPa) = 86.36354 87.30813 86.83583
# Shear Modulus (GPa) = 24.05705 33.96953 29.01329
#
# Velocity S-wave (km/s) = 3.08418 3.66491 3.38701
# Velocity P-wave (km/s) = 6.84331 7.24088 7.04490
#
# Compressibility (1/GPa) = 0.01157896
#
# Stress axis : x y z
#
# Youngs Moduli (GPa) = 144.76122 144.76122 116.08792
#
# Poissons Ratio (x) = 0.22992 0.22273
# Poissons Ratio (y) = 0.22992 0.22273
# Poissons Ratio (z) = 0.27774 0.27774
#
# Static dielectric constant tensor:
#      x y z
#    x 2.108570 0.000000 0.000000 
#    y 0.000000 2.108570 0.000000 
#    z 0.000000 0.000000 2.073070 
# 
# From -- ./inp_files/4651.got.cif
#   From: 2010.05.17/outbox.cif.g08.bks.cpg/sg118_3_cif.got.tgz:4651.got - 2010.05.20 11:17:24.
