data_PCOD9558595
_publ_section_title
;
Structure prediction by ZEFSAII (Michael W. Deem and Ramdas Pophale) SiO2 
 PCOD9558595
Probable space group: P -4 N 2
;
_chemical_formula_sum "Si O2"
_cell_formula_units_Z 34
_cell_length_a 9.739540
_cell_length_b 9.739540
_cell_length_c 13.394238
_cell_angle_alpha 90.000000
_cell_angle_beta 90.000000
_cell_angle_gamma 90.000000
_cell_volume 1270.559193
_symmetry_space_group_name_H-M "P -4 N 2"
_symmetry_group_IT_number 118
_symmetry_cell_setting 'tetragonal'
loop_
_space_group_symop_operation_xyz
x,y,z
y,-x,-z
-x,-y,z
-y,x,-z
1/2+y,1/2+x,1/2-z
1/2-y,1/2-x,1/2-z
1/2-x,1/2+y,1/2+z
1/2+x,1/2-y,1/2+z
loop_
_atom_site_type_symbol
_atom_site_label
_atom_site_fract_x
_atom_site_fract_y
_atom_site_fract_z
Si Si1 0.509174 0.794699 0.704428
Si Si2 0.702199 0.425646 0.714520
Si Si3 0.625814 0.816131 0.496232
Si Si4 0.000000 0.000000 0.500000
Si Si5 0.745851 0.098521 0.400580
O O1 0.397954 0.897954 0.750000
O O2 0.448657 0.643363 0.723370
O O3 0.522404 0.823428 0.587779
O O4 0.653986 0.846015 0.750000
O O5 0.805065 0.305065 0.750000
O O6 0.738083 0.437813 0.598373
O O7 0.748237 0.552051 0.784230
O O8 0.753930 0.729811 0.545119
O O9 0.668799 0.968988 0.455142
O O10 0.084526 0.095170 0.570827
#
# Coordination Sequence:
#
# PCOD9558595 Si02
#       5
#     8   8   8   2   8
#     4  10  23  38  66  93 129 178 222 281 352 431
#     4   9  20  40  63  93 135 172 223 288 344 415
#     4  10  21  39  65 100 129 178 229 280 353 420
#     4   8  16  28  52  88 118 168 224 264 320 394
#     4   9  19  34  64  93 129 170 225 280 332 411
#
# _framework density 26.759872000000001
#
# number of rings (size 3 to 8) (size 9 to 14) (size 15 to 20)
#    0.000    2.588    0.000    0.000   19.765    0.000 
#    4.235    0.000    0.000    0.000    0.000    0.000 
#    0.000    0.000    0.000    0.000    0.000    0.000 
#
# Total GULP energy -189773.454386 kJ/mol
# GULP energy per Si atom -5581.572188 kJ/mol
# Density = 2.669897 g / cm^3
# Si number density = 26.759872 Si / 1000 Ang^3
#
#
#
# Elastic Constant Matrix: (Units=GPa)
#
#
# Indices 1 2 3 4 5 6 
#
# 1 133.6768 54.5462 80.8821 0.0000 0.0000 0.0000
# 2 54.5462 133.6773 80.8816 0.0000 0.0000 0.0000
# 3 80.8821 80.8816 266.6307 0.0000 0.0000 0.0000
# 4 0.0000 0.0000 0.0000 13.2204 0.0000 0.0000
# 5 0.0000 0.0000 0.0000 0.0000 13.2197 0.0000
# 6 0.0000 0.0000 0.0000 0.0000 0.0000 24.3018
#
#
#
# Elastic Compliance Matrix: (Units=1/GPa)
#
#
# Indices 1 2 3 4 5 6 
#
# 1 0.009912 -0.002725 -0.002180 0.000000 0.000000 0.000000
# 2 -0.002725 0.009912 -0.002180 0.000000 0.000000 0.000000
# 3 -0.002180 -0.002180 0.005073 0.000000 0.000000 0.000000
# 4 0.000000 0.000000 0.000000 0.075641 0.000000 0.000000
# 5 0.000000 0.000000 0.000000 0.000000 0.075645 0.000000
# 6 0.000000 0.000000 0.000000 0.000000 0.000000 0.041149
#
#
# Mechanical properties :
#
#
# Convention : Reuss Voigt Hill
#
# Bulk Modulus (GPa) = 93.23202 107.40052 100.31627
# Shear Modulus (GPa) = 21.26958 31.32671 26.29815
#
# Velocity S-wave (km/s) = 2.82233 3.42520 3.13828
# Velocity P-wave (km/s) = 6.74808 7.47427 7.12044
#
# Compressibility (1/GPa) = 0.01072593
#
# Stress axis : x y z
#
# Youngs Moduli (GPa) = 100.88921 100.88992 197.11888
#
# Poissons Ratio (x) = 0.27497 0.42972
# Poissons Ratio (y) = 0.27497 0.42971
# Poissons Ratio (z) = 0.21994 0.21993
#
# Static dielectric constant tensor:
#      x y z
#    x 2.161490 0.000000 0.000000 
#    y 0.000000 2.161490 0.000000 
#    z 0.000000 0.000000 2.090010 
# 
# From -- ./inp_files/3042.got.cif
#   From: 2010.05.17/outbox.cif.g08.bks.cpg/sg118_2_cif.got.tgz:3042.got - 2010.05.20 11:17:24.
