data_PCOD9558142
_publ_section_title
;
Structure prediction by ZEFSAII (Michael W. Deem and Ramdas Pophale) SiO2 
 PCOD9558142
Probable space group: P -4 B 2
;
_chemical_formula_sum "Si O2"
_cell_formula_units_Z 50
_cell_length_a 18.991681
_cell_length_b 18.991681
_cell_length_c 6.483475
_cell_angle_alpha 90.000000
_cell_angle_beta 90.000000
_cell_angle_gamma 90.000000
_cell_volume 2338.485355
_symmetry_space_group_name_H-M "P -4 B 2"
_symmetry_group_IT_number 117
_symmetry_cell_setting 'tetragonal'
loop_
_space_group_symop_operation_xyz
x,y,z
y,-x,-z
-x,-y,z
-y,x,-z
1/2+y,1/2+x,-z
1/2-y,1/2-x,-z
1/2-x,1/2+y,z
1/2+x,1/2-y,z
loop_
_atom_site_type_symbol
_atom_site_label
_atom_site_fract_x
_atom_site_fract_y
_atom_site_fract_z
Si Si1 0.439214 0.717914 0.139892
Si Si2 0.745271 0.460457 0.238416
Si Si3 0.428373 0.818596 0.512030
Si Si4 0.693709 0.724243 0.866306
Si Si5 0.789851 0.191975 0.360429
Si Si6 0.054538 0.862006 0.397810
Si Si7 0.500000 0.500000 0.500000
O O1 0.432180 0.786805 0.283013
O O2 0.360607 0.692181 0.100540
O O3 0.487780 0.665067 0.269572
O O4 0.483256 0.733019 0.938383
O O5 0.804996 0.496304 0.382318
O O6 0.759102 0.384019 0.140860
O O7 0.675740 0.453316 0.380127
O O8 0.396136 0.896136 0.500000
O O9 0.369119 0.770030 0.630124
O O10 0.707805 0.717573 0.601849
O O11 0.718773 0.737394 0.143116
O O12 0.868623 0.162263 0.328472
O O13 0.050275 0.945752 0.385760
#
# Coordination Sequence:
#
# PCOD9558142 Si02
#       7
#     8   8   8   8   8   8   2
#     4  11  23  38  60  92 130 168 219 263 333 400
#     4  11  23  38  58  94 132 161 220 271 331 404
#     4  10  20  38  64  91 121 162 214 277 335 394
#     4  12  23  39  64  93 128 178 220 284 330 388
#     4  11  19  39  64  86 123 169 231 275 314 387
#     4  11  23  41  61  93 133 181 213 267 337 399
#     4  12  24  40  66  88 148 186 208 268 346 428
#
# _framework density 21.381359
#
# number of rings (size 3 to 8) (size 9 to 14) (size 15 to 20)
#    0.000    0.960    4.800    4.800    0.000    1.280 
#    0.000    0.800    0.000    0.000    0.000   28.000 
#    0.000    0.000    0.000    0.000    0.000    0.000 
#
# Total GULP energy -278829.201503 kJ/mol
# GULP energy per Si atom -5576.584030 kJ/mol
# Density = 2.133269 g / cm^3
# Si number density = 21.381359 Si / 1000 Ang^3
#
#
#
# Elastic Constant Matrix: (Units=GPa)
#
#
# Indices 1 2 3 4 5 6 
#
# 1 190.0122 178.4853 -18.5141 0.0000 0.0000 0.0000
# 2 178.4853 190.0122 -18.5141 0.0000 0.0000 0.0000
# 3 -18.5141 -18.5141 160.0729 0.0000 0.0000 0.0000
# 4 0.0000 0.0000 0.0000 41.4643 0.0000 0.0000
# 5 0.0000 0.0000 0.0000 0.0000 41.4643 0.0000
# 6 0.0000 0.0000 0.0000 0.0000 0.0000 20.1383
#
#
#
# Elastic Compliance Matrix: (Units=1/GPa)
#
#
# Indices 1 2 3 4 5 6 
#
# 1 0.044750 -0.042004 0.000318 0.000000 0.000000 0.000000
# 2 -0.042004 0.044750 0.000318 0.000000 0.000000 0.000000
# 3 0.000318 0.000318 0.006321 0.000000 0.000000 0.000000
# 4 0.000000 0.000000 0.000000 0.024117 0.000000 0.000000
# 5 0.000000 0.000000 0.000000 0.000000 0.024117 0.000000
# 6 0.000000 0.000000 0.000000 0.000000 0.000000 0.049657
#
#
# Mechanical properties :
#
#
# Convention : Reuss Voigt Hill
#
# Bulk Modulus (GPa) = 76.44021 91.44572 83.94297
# Shear Modulus (GPa) = 17.80567 47.18939 32.49753
#
# Velocity S-wave (km/s) = 2.88890 4.70300 3.90282
# Velocity P-wave (km/s) = 6.85245 8.50604 7.72363
#
# Compressibility (1/GPa) = 0.01308212
#
# Stress axis : x y z
#
# Youngs Moduli (GPa) = 22.34654 22.34654 158.21257
#
# Poissons Ratio (x) = 0.93864 -0.05024
# Poissons Ratio (y) = 0.93864 -0.05024
# Poissons Ratio (z) = -0.00710 -0.00710
#
# Static dielectric constant tensor:
#      x y z
#    x 1.957220 0.000000 0.000000 
#    y 0.000000 1.957220 0.000000 
#    z 0.000000 0.000000 1.962080 
# 
# From -- ./inp_files/836.got.cif
#   From: 2010.05.17/outbox.cif.g08.bks.cpg/sg117_1_cif.got.tgz:836.got - 2010.05.20 11:15:09.
