data_PCOD9558559
_publ_section_title
;
Structure prediction by ZEFSAII (Michael W. Deem and Ramdas Pophale) SiO2 
 PCOD9558559
Probable space group: P -4 N 2
;
_chemical_formula_sum "Si O2"
_cell_formula_units_Z 46
_cell_length_a 11.957252
_cell_length_b 11.957252
_cell_length_c 15.026739
_cell_angle_alpha 90.000000
_cell_angle_beta 90.000000
_cell_angle_gamma 90.000000
_cell_volume 2148.461163
_symmetry_space_group_name_H-M "P -4 N 2"
_symmetry_group_IT_number 118
_symmetry_cell_setting 'tetragonal'
loop_
_space_group_symop_operation_xyz
x,y,z
y,-x,-z
-x,-y,z
-y,x,-z
1/2+y,1/2+x,1/2-z
1/2-y,1/2-x,1/2-z
1/2-x,1/2+y,1/2+z
1/2+x,1/2-y,1/2+z
loop_
_atom_site_type_symbol
_atom_site_label
_atom_site_fract_x
_atom_site_fract_y
_atom_site_fract_z
Si Si1 0.281218 0.060338 0.639450
Si Si2 0.429619 0.112704 0.488331
Si Si3 0.218986 0.281015 0.750000
Si Si4 0.500000 0.000000 0.750000
Si Si5 0.391010 0.430871 0.243391
Si Si6 0.006756 0.161889 0.051511
Si Si7 0.963609 0.306877 0.797093
O O1 0.315136 0.082132 0.538031
O O2 0.236487 0.176810 0.682813
O O3 0.394493 0.016594 0.685992
O O4 0.196264 0.965419 0.668736
O O5 0.494636 0.205026 0.546880
O O6 0.419626 0.178226 0.396405
O O7 0.500000 0.000000 0.474065
O O8 0.217326 0.403366 0.704164
O O9 0.500000 0.500000 0.219238
O O10 0.363729 0.471428 0.344781
O O11 0.410198 0.299652 0.249463
O O12 0.894467 0.101261 0.012355
O O13 0.917790 0.417790 0.750000
#
# Coordination Sequence:
#
# PCOD9558559 Si02
#       7
#     8   8   4   2   8   8   8
#     4  11  25  41  72 108 146 188 234 316 385 444
#     4  12  26  45  70 107 149 188 243 312 379 448
#     4  11  23  45  73 100 148 190 247 305 379 445
#     4  10  20  44  62 104 148 182 226 288 384 454
#     4  12  23  44  73 104 142 188 245 304 373 452
#     4  11  21  39  72 111 134 175 252 310 359 424
#     4  12  27  47  72 102 142 201 251 304 367 457
#
# _framework density 21.410674
#
# number of rings (size 3 to 8) (size 9 to 14) (size 15 to 20)
#    0.000    0.522    6.087    3.391    3.652    0.000 
#    0.000    0.000    0.000    0.000    0.000    0.000 
#    0.000    0.000    0.000    0.000    0.000    0.000 
#
# Total GULP energy -256925.134444 kJ/mol
# GULP energy per Si atom -5585.329010 kJ/mol
# Density = 2.136194 g / cm^3
# Si number density = 21.410674 Si / 1000 Ang^3
#
#
#
# Elastic Constant Matrix: (Units=GPa)
#
#
# Indices 1 2 3 4 5 6 
#
# 1 120.1790 59.2755 24.1451 0.0000 0.0000 0.0000
# 2 59.2755 120.1784 24.1451 0.0000 0.0000 0.0000
# 3 24.1451 24.1451 64.3695 0.0000 0.0000 0.0000
# 4 0.0000 0.0000 0.0000 1.9879 0.0000 0.0000
# 5 0.0000 0.0000 0.0000 0.0000 1.9869 0.0000
# 6 0.0000 0.0000 0.0000 0.0000 0.0000 40.3590
#
#
#
# Elastic Compliance Matrix: (Units=1/GPa)
#
#
# Indices 1 2 3 4 5 6 
#
# 1 0.011309 -0.005111 -0.002325 0.000000 0.000000 0.000000
# 2 -0.005111 0.011309 -0.002325 0.000000 0.000000 0.000000
# 3 -0.002325 -0.002325 0.017279 0.000000 0.000000 0.000000
# 4 0.000000 0.000000 0.000000 0.503042 0.000000 0.000000
# 5 0.000000 0.000000 0.000000 0.000000 0.503302 0.000000
# 6 0.000000 0.000000 0.000000 0.000000 0.000000 0.024778
#
#
# Mechanical properties :
#
#
# Convention : Reuss Voigt Hill
#
# Bulk Modulus (GPa) = 49.07742 57.76205 53.41973
# Shear Modulus (GPa) = 4.55651 22.01083 13.28367
#
# Velocity S-wave (km/s) = 1.46040 3.20977 2.49353
# Velocity P-wave (km/s) = 5.08088 6.38542 5.77014
#
# Compressibility (1/GPa) = 0.02037597
#
# Stress axis : x y z
#
# Youngs Moduli (GPa) = 88.42708 88.42660 57.87222
#
# Poissons Ratio (x) = 0.45192 0.13455
# Poissons Ratio (y) = 0.45193 0.13455
# Poissons Ratio (z) = 0.20558 0.20558
#
# Static dielectric constant tensor:
#      x y z
#    x 1.715620 0.000000 0.000000 
#    y 0.000000 1.715620 0.000000 
#    z 0.000000 0.000000 1.826740 
# 
# From -- ./inp_files/4970.got.cif
#   From: 2010.05.17/outbox.cif.g08.bks.cpg/sg118_3_cif.got.tgz:4970.got - 2010.05.20 11:17:24.
