data_PCOD9558470
_publ_section_title
;
Structure prediction by ZEFSAII (Michael W. Deem and Ramdas Pophale) SiO2 
 PCOD9558470
Probable space group: P -4 N 2
;
_chemical_formula_sum "Si O2"
_cell_formula_units_Z 56
_cell_length_a 13.923931
_cell_length_b 13.923931
_cell_length_c 12.590597
_cell_angle_alpha 90.000000
_cell_angle_beta 90.000000
_cell_angle_gamma 90.000000
_cell_volume 2441.012752
_symmetry_space_group_name_H-M "P -4 N 2"
_symmetry_group_IT_number 118
_symmetry_cell_setting 'tetragonal'
loop_
_space_group_symop_operation_xyz
x,y,z
y,-x,-z
-x,-y,z
-y,x,-z
1/2+y,1/2+x,1/2-z
1/2-y,1/2-x,1/2-z
1/2-x,1/2+y,1/2+z
1/2+x,1/2-y,1/2+z
loop_
_atom_site_type_symbol
_atom_site_label
_atom_site_fract_x
_atom_site_fract_y
_atom_site_fract_z
Si Si1 0.725191 0.374173 0.510426
Si Si2 0.318045 0.036428 0.708152
Si Si3 0.392424 0.388662 0.017133
Si Si4 0.750282 0.070332 0.913818
Si Si5 0.787130 0.769428 0.649585
Si Si6 0.545476 0.106108 0.008607
Si Si7 0.395795 0.192029 0.141793
O O1 0.654591 0.326869 0.594725
O O2 0.702573 0.479996 0.473314
O O3 0.723724 0.302742 0.411587
O O4 0.832498 0.362910 0.552983
O O5 0.416771 0.083230 0.750000
O O6 0.247118 0.126678 0.695047
O O7 0.284413 0.963519 0.798515
O O8 0.335152 0.991089 0.593964
O O9 0.390018 0.306187 0.109937
O O10 0.381866 0.502387 0.039984
O O11 0.305302 0.362064 0.938204
O O12 0.658870 0.097803 0.986798
O O13 0.800300 0.699701 0.750000
O O14 0.500000 0.000000 0.002879
O O15 0.502676 0.153886 0.115729
O O16 0.347124 0.152877 0.250000
#
# Coordination Sequence:
#
# PCOD9558470 Si02
#       7
#     8   8   8   8   8   8   8
#     4  11  24  45  61  98 146 179 235 287 363 426
#     4  11  18  37  71 104 124 164 234 307 353 395
#     4  10  23  45  74 104 145 191 241 304 370 441
#     4  12  25  40  70 103 137 190 228 303 362 428
#     4  10  19  41  73  96 135 178 235 297 350 428
#     4  12  21  40  71 101 135 170 235 300 358 405
#     4  11  25  45  67 100 147 184 234 298 357 444
#
# _framework density 22.941296999999999
#
# number of rings (size 3 to 8) (size 9 to 14) (size 15 to 20)
#    0.000    1.000    8.571    0.429    4.000    2.857 
#    2.571    0.000    0.000    0.000    0.000    0.000 
#    0.000    0.000    0.000    0.000    0.000    0.000 
#
# Total GULP energy -312623.096229 kJ/mol
# GULP energy per Si atom -5582.555290 kJ/mol
# Density = 2.288908 g / cm^3
# Si number density = 22.941297 Si / 1000 Ang^3
#
#
#
# Elastic Constant Matrix: (Units=GPa)
#
#
# Indices 1 2 3 4 5 6 
#
# 1 101.5487 42.9328 31.8204 0.0000 0.0000 0.0000
# 2 42.9328 101.5488 31.8203 0.0000 0.0000 0.0000
# 3 31.8204 31.8203 101.3388 0.0000 0.0000 0.0000
# 4 0.0000 0.0000 0.0000 30.5195 0.0000 0.0000
# 5 0.0000 0.0000 0.0000 0.0000 30.5192 0.0000
# 6 0.0000 0.0000 0.0000 0.0000 0.0000 34.8407
#
#
#
# Elastic Compliance Matrix: (Units=1/GPa)
#
#
# Indices 1 2 3 4 5 6 
#
# 1 0.012546 -0.004514 -0.002522 0.000000 0.000000 0.000000
# 2 -0.004514 0.012546 -0.002522 0.000000 0.000000 0.000000
# 3 -0.002522 -0.002522 0.011452 0.000000 0.000000 0.000000
# 4 0.000000 0.000000 0.000000 0.032766 0.000000 0.000000
# 5 0.000000 0.000000 0.000000 0.000000 0.032766 0.000000
# 6 0.000000 0.000000 0.000000 0.000000 0.000000 0.028702
#
#
# Mechanical properties :
#
#
# Convention : Reuss Voigt Hill
#
# Bulk Modulus (GPa) = 57.37973 57.50929 57.44451
# Shear Modulus (GPa) = 32.11218 32.36674 32.23946
#
# Velocity S-wave (km/s) = 3.74539 3.76020 3.75280
# Velocity P-wave (km/s) = 6.61587 6.63134 6.62361
#
# Compressibility (1/GPa) = 0.01742776
#
# Stress axis : x y z
#
# Youngs Moduli (GPa) = 79.70524 79.70536 87.32270
#
# Poissons Ratio (x) = 0.35979 0.22024
# Poissons Ratio (y) = 0.35979 0.22024
# Poissons Ratio (z) = 0.20103 0.20103
#
# Static dielectric constant tensor:
#      x y z
#    x 1.890790 0.000000 0.000000 
#    y 0.000000 1.890790 0.000000 
#    z 0.000000 0.000000 1.903610 
# 
# From -- ./inp_files/3424.got.cif
#   From: 2010.05.17/outbox.cif.g08.bks.cpg/sg118_2_cif.got.tgz:3424.got - 2010.05.20 11:17:24.
