data_PCOD9558219
_publ_section_title
;
Structure prediction by ZEFSAII (Michael W. Deem and Ramdas Pophale) SiO2 
 PCOD9558219
Probable space group: P -4 B 2
;
_chemical_formula_sum "Si O2"
_cell_formula_units_Z 34
_cell_length_a 16.576566
_cell_length_b 16.576566
_cell_length_c 6.467350
_cell_angle_alpha 90.000000
_cell_angle_beta 90.000000
_cell_angle_gamma 90.000000
_cell_volume 1777.114862
_symmetry_space_group_name_H-M "P -4 B 2"
_symmetry_group_IT_number 117
_symmetry_cell_setting 'tetragonal'
loop_
_space_group_symop_operation_xyz
x,y,z
y,-x,-z
-x,-y,z
-y,x,-z
1/2+y,1/2+x,-z
1/2-y,1/2-x,-z
1/2-x,1/2+y,z
1/2+x,1/2-y,z
loop_
_atom_site_type_symbol
_atom_site_label
_atom_site_fract_x
_atom_site_fract_y
_atom_site_fract_z
Si Si1 0.505050 0.286260 0.647961
Si Si2 0.503481 0.875735 0.411257
Si Si3 0.500000 0.500000 0.000000
Si Si4 0.295236 0.075052 0.953852
Si Si5 0.631505 0.417654 0.709682
O O1 0.519811 0.210831 0.499999
O O2 0.462442 0.245856 0.844164
O O3 0.585560 0.333179 0.706016
O O4 0.452664 0.352218 0.519961
O O5 0.437924 0.937924 0.500000
O O6 0.588172 0.911829 0.500000
O O7 0.517123 0.858995 0.167829
O O8 0.475171 0.424770 0.146982
O O9 0.344313 0.155688 0.000000
O O10 0.219862 0.091397 0.805259
#
# Coordination Sequence:
#
# PCOD9558219 Si02
#       5
#     8   8   2   8   8
#     4  11  23  43  64  96 130 175 218 282 335 407
#     4  10  22  42  66  95 128 172 226 277 328 405
#     4  12  20  42  64  96 126 180 232 286 332 408
#     4  11  23  43  67  93 135 177 216 276 352 400
#     4  11  24  39  66  94 133 171 227 275 341 405
#
# _framework density 19.132135000000002
#
# number of rings (size 3 to 8) (size 9 to 14) (size 15 to 20)
#    0.000    1.176    4.706    1.412    0.000    0.941 
#    8.471    0.000    0.000    0.000    0.000    0.000 
#    0.000    0.000    0.000    0.000    0.000    0.000 
#
# Total GULP energy -189586.744284 kJ/mol
# GULP energy per Si atom -5576.080714 kJ/mol
# Density = 1.908859 g / cm^3
# Si number density = 19.132135 Si / 1000 Ang^3
#
#
#
# Elastic Constant Matrix: (Units=GPa)
#
#
# Indices 1 2 3 4 5 6 
#
# 1 103.4106 49.6736 44.0907 0.0000 0.0000 0.0000
# 2 49.6736 103.4099 44.0898 0.0000 0.0000 0.0000
# 3 44.0907 44.0898 111.9139 0.0000 0.0000 0.0000
# 4 0.0000 0.0000 0.0000 35.3670 0.0000 0.0000
# 5 0.0000 0.0000 0.0000 0.0000 35.3707 0.0000
# 6 0.0000 0.0000 0.0000 0.0000 0.0000 41.6440
#
#
#
# Elastic Compliance Matrix: (Units=1/GPa)
#
#
# Indices 1 2 3 4 5 6 
#
# 1 0.013530 -0.005080 -0.003329 0.000000 0.000000 0.000000
# 2 -0.005080 0.013530 -0.003329 0.000000 0.000000 0.000000
# 3 -0.003329 -0.003329 0.011558 0.000000 0.000000 0.000000
# 4 0.000000 0.000000 0.000000 0.028275 0.000000 0.000000
# 5 0.000000 0.000000 0.000000 0.000000 0.028272 0.000000
# 6 0.000000 0.000000 0.000000 0.000000 0.000000 0.024013
#
#
# Mechanical properties :
#
#
# Convention : Reuss Voigt Hill
#
# Bulk Modulus (GPa) = 66.03973 66.04918 66.04446
# Shear Modulus (GPa) = 33.85230 34.53502 34.19366
#
# Velocity S-wave (km/s) = 4.21098 4.25323 4.23216
# Velocity P-wave (km/s) = 7.63124 7.66274 7.64700
#
# Compressibility (1/GPa) = 0.01514240
#
# Stress axis : x y z
#
# Youngs Moduli (GPa) = 73.91192 73.91197 86.51665
#
# Poissons Ratio (x) = 0.37545 0.28802
# Poissons Ratio (y) = 0.37545 0.28801
# Poissons Ratio (z) = 0.24606 0.24605
#
# Static dielectric constant tensor:
#      x y z
#    x 1.650390 0.000000 0.000000 
#    y 0.000000 1.650390 0.000000 
#    z 0.000000 0.000000 1.765720 
# 
# From -- ./inp_files/507.got.cif
#   From: 2010.05.17/outbox.cif.g08.bks.cpg/sg117_1_cif.got.tgz:507.got - 2010.05.20 11:15:09.
