data_PCOD9558334
_publ_section_title
;
Structure prediction by ZEFSAII (Michael W. Deem and Ramdas Pophale) SiO2 
 PCOD9558334
Probable space group: P -4 B 2
;
_chemical_formula_sum "Si O2"
_cell_formula_units_Z 26
_cell_length_a 13.445591
_cell_length_b 13.445591
_cell_length_c 6.996671
_cell_angle_alpha 90.000000
_cell_angle_beta 90.000000
_cell_angle_gamma 90.000000
_cell_volume 1264.885592
_symmetry_space_group_name_H-M "P -4 B 2"
_symmetry_group_IT_number 117
_symmetry_cell_setting 'tetragonal'
loop_
_space_group_symop_operation_xyz
x,y,z
y,-x,-z
-x,-y,z
-y,x,-z
1/2+y,1/2+x,-z
1/2-y,1/2-x,-z
1/2-x,1/2+y,z
1/2+x,1/2-y,z
loop_
_atom_site_type_symbol
_atom_site_label
_atom_site_fract_x
_atom_site_fract_y
_atom_site_fract_z
Si Si1 0.246327 0.409464 0.417327
Si Si2 0.177093 0.060316 0.735375
Si Si3 0.500000 0.500000 0.000000
Si Si4 0.505310 0.160330 0.960111
O O1 0.152410 0.347591 0.500000
O O2 0.327399 0.329282 0.342617
O O3 0.304018 0.479721 0.568637
O O4 0.205939 0.482427 0.250447
O O5 0.259222 0.031731 0.890220
O O6 0.076605 0.050026 0.855845
O O7 0.427758 0.072243 0.000000
O O8 0.614162 0.114162 0.000000
#
# Coordination Sequence:
#
# PCOD9558334 Si02
#       4
#     8   8   2   8
#     4  12  27  46  73 111 145 191 250 303 369 444
#     4  12  26  45  72 105 146 193 241 307 363 440
#     4  12  24  46  72 100 154 192 248 302 376 424
#     4  11  26  49  73 104 144 188 241 306 369 435
#
# _framework density 20.555218
#
# number of rings (size 3 to 8) (size 9 to 14) (size 15 to 20)
#    0.000    0.308    6.154    1.846    4.308    1.231 
#    0.000    0.000    0.000    0.000    0.000    0.000 
#    0.000    0.000    0.000    0.000    0.000    0.000 
#
# Total GULP energy -145092.020507 kJ/mol
# GULP energy per Si atom -5580.462327 kJ/mol
# Density = 2.050843 g / cm^3
# Si number density = 20.555218 Si / 1000 Ang^3
#
#
#
# Elastic Constant Matrix: (Units=GPa)
#
#
# Indices 1 2 3 4 5 6 
#
# 1 69.6744 4.4441 33.4976 0.0000 0.0000 0.0000
# 2 4.4441 69.6726 33.4968 0.0000 0.0000 0.0000
# 3 33.4976 33.4968 129.4341 0.0000 0.0000 0.0000
# 4 0.0000 0.0000 0.0000 399.8980 0.0000 0.0000
# 5 0.0000 0.0000 0.0000 0.0000 400.9093 0.0000
# 6 0.0000 0.0000 0.0000 0.0000 0.0000 33.8846
#
#
#
# Elastic Compliance Matrix: (Units=1/GPa)
#
#
# Indices 1 2 3 4 5 6 
#
# 1 0.016471 0.001141 -0.004558 0.000000 0.000000 0.000000
# 2 0.001141 0.016471 -0.004558 0.000000 0.000000 0.000000
# 3 -0.004558 -0.004558 0.010085 0.000000 0.000000 0.000000
# 4 0.000000 0.000000 0.000000 0.002501 0.000000 0.000000
# 5 0.000000 0.000000 0.000000 0.000000 0.002494 0.000000
# 6 0.000000 0.000000 0.000000 0.000000 0.000000 0.029512
#
#
# Mechanical properties :
#
#
# Convention : Reuss Voigt Hill
#
# Bulk Modulus (GPa) = 36.93133 45.73980 41.33556
# Shear Modulus (GPa) = 48.77552 180.09456 114.43504
#
# Velocity S-wave (km/s) = 4.87653 9.37044 7.46946
# Velocity P-wave (km/s) = 7.05076 11.80568 9.72336
#
# Compressibility (1/GPa) = 0.02707728
#
# Stress axis : x y z
#
# Youngs Moduli (GPa) = 60.71267 60.71119 99.15625
#
# Poissons Ratio (x) = -0.06925 0.45195
# Poissons Ratio (y) = -0.06926 0.45195
# Poissons Ratio (z) = 0.27672 0.27672
#
# Static dielectric constant tensor:
#      x y z
#    x 0.288800 0.000000 0.000000 
#    y 0.000000 0.292980 0.000000 
#    z 0.000000 0.000000 1.736880 
# 
# From -- ./inp_files/291.got.cif
#   From: 2010.05.17/outbox.cif.g08.bks.cpg/sg117_1_cif.got.tgz:291.got - 2010.05.20 11:15:09.
