data_PCOD9558160
_publ_section_title
;
Structure prediction by ZEFSAII (Michael W. Deem and Ramdas Pophale) SiO2 
 PCOD9558160
Probable space group: P -4 B 2
;
_chemical_formula_sum "Si O2"
_cell_formula_units_Z 36
_cell_length_a 14.788710
_cell_length_b 14.788710
_cell_length_c 8.538085
_cell_angle_alpha 90.000000
_cell_angle_beta 90.000000
_cell_angle_gamma 90.000000
_cell_volume 1867.329935
_symmetry_space_group_name_H-M "P -4 B 2"
_symmetry_group_IT_number 117
_symmetry_cell_setting 'tetragonal'
loop_
_space_group_symop_operation_xyz
x,y,z
y,-x,-z
-x,-y,z
-y,x,-z
1/2+y,1/2+x,-z
1/2-y,1/2-x,-z
1/2-x,1/2+y,z
1/2+x,1/2-y,z
loop_
_atom_site_type_symbol
_atom_site_label
_atom_site_fract_x
_atom_site_fract_y
_atom_site_fract_z
Si Si1 0.866541 0.940560 0.038289
Si Si2 0.177109 0.589993 0.864658
Si Si3 0.828725 0.671276 0.500000
Si Si4 0.221363 0.152974 0.321122
Si Si5 0.329030 0.027009 0.536735
O O1 0.847410 0.900972 0.210848
O O2 0.774662 0.922443 0.943096
O O3 0.953239 0.890217 0.964550
O O4 0.169597 0.686133 0.775058
O O5 0.170591 0.517637 0.724670
O O6 0.100763 0.600763 0.000000
O O7 0.814468 0.750237 0.374568
O O8 0.820431 0.567415 0.448118
O O9 0.250712 0.093244 0.471496
O O10 0.422129 0.077872 0.500000
#
# Coordination Sequence:
#
# PCOD9558160 Si02
#       5
#     8   8   4   8   8
#     4  10  21  35  55  84 119 158 202 250 308 366
#     4   9  18  37  58  78 121 154 188 250 299 360
#     4  12  21  36  66  87 114 166 200 254 326 365
#     4  10  21  37  57  87 115 158 202 251 306 376
#     4  10  21  38  59  88 122 151 206 254 307 374
#
# _framework density 19.278863999999999
#
# number of rings (size 3 to 8) (size 9 to 14) (size 15 to 20)
#    0.000    2.000    3.333    1.667    3.111    0.000 
#    0.000    0.000    0.000   13.333    0.000    0.000 
#    0.000    0.000    0.000    0.000    0.000    0.000 
#
# Total GULP energy -200589.519179 kJ/mol
# GULP energy per Si atom -5571.931088 kJ/mol
# Density = 1.923498 g / cm^3
# Si number density = 19.278864 Si / 1000 Ang^3
#
#
#
# Elastic Constant Matrix: (Units=GPa)
#
#
# Indices 1 2 3 4 5 6 
#
# 1 82.2638 13.9993 24.7908 0.0000 0.0000 0.0000
# 2 13.9993 82.2631 24.7918 0.0000 0.0000 0.0000
# 3 24.7908 24.7918 96.0297 0.0000 0.0000 0.0000
# 4 0.0000 0.0000 0.0000 21.9328 0.0000 0.0000
# 5 0.0000 0.0000 0.0000 0.0000 21.9316 0.0000
# 6 0.0000 0.0000 0.0000 0.0000 0.0000 25.1028
#
#
#
# Elastic Compliance Matrix: (Units=1/GPa)
#
#
# Indices 1 2 3 4 5 6 
#
# 1 0.013315 -0.001334 -0.003093 0.000000 0.000000 0.000000
# 2 -0.001334 0.013315 -0.003093 0.000000 0.000000 0.000000
# 3 -0.003093 -0.003093 0.012011 0.000000 0.000000 0.000000
# 4 0.000000 0.000000 0.000000 0.045594 0.000000 0.000000
# 5 0.000000 0.000000 0.000000 0.000000 0.045596 0.000000
# 6 0.000000 0.000000 0.000000 0.000000 0.000000 0.039836
#
#
# Mechanical properties :
#
#
# Convention : Reuss Voigt Hill
#
# Bulk Modulus (GPa) = 42.37152 43.08005 42.72579
# Shear Modulus (GPa) = 25.96402 26.92510 26.44456
#
# Velocity S-wave (km/s) = 3.67381 3.74118 3.70765
# Velocity P-wave (km/s) = 6.32627 6.40751 6.36702
#
# Compressibility (1/GPa) = 0.02360076
#
# Stress axis : x y z
#
# Youngs Moduli (GPa) = 75.10269 75.10147 83.26031
#
# Poissons Ratio (x) = 0.10017 0.25753
# Poissons Ratio (y) = 0.10017 0.25755
# Poissons Ratio (z) = 0.23230 0.23231
#
# Static dielectric constant tensor:
#      x y z
#    x 1.669020 0.000000 0.000000 
#    y 0.000000 1.669020 0.000000 
#    z 0.000000 0.000000 1.729740 
# 
# From -- ./inp_files/1575.got.cif
#   From: 2010.05.17/outbox.cif.g08.bks.cpg/sg117_1_cif.got.tgz:1575.got - 2010.05.20 11:15:09.
