data_PCOD9558745
_publ_section_title
;
Structure prediction by ZEFSAII (Michael W. Deem and Ramdas Pophale) SiO2 
 PCOD9558745
Probable space group: P -4 N 2
;
_chemical_formula_sum "Si O2"
_cell_formula_units_Z 20
_cell_length_a 5.159601
_cell_length_b 5.159601
_cell_length_c 28.778244
_cell_angle_alpha 90.000000
_cell_angle_beta 90.000000
_cell_angle_gamma 90.000000
_cell_volume 766.119518
_symmetry_space_group_name_H-M "P -4 N 2"
_symmetry_group_IT_number 118
_symmetry_cell_setting 'tetragonal'
loop_
_space_group_symop_operation_xyz
x,y,z
y,-x,-z
-x,-y,z
-y,x,-z
1/2+y,1/2+x,1/2-z
1/2-y,1/2-x,1/2-z
1/2-x,1/2+y,1/2+z
1/2+x,1/2-y,1/2+z
loop_
_atom_site_type_symbol
_atom_site_label
_atom_site_fract_x
_atom_site_fract_y
_atom_site_fract_z
Si Si1 0.315783 0.247193 0.821084
Si Si2 0.678721 0.746867 0.927532
Si Si3 0.000000 0.500000 0.750000
Si Si4 0.500000 0.500000 0.500000
O O1 0.500000 0.500000 0.813997
O O2 0.222568 0.253391 0.874471
O O3 0.071592 0.275836 0.787034
O O4 0.500000 0.000000 0.813267
O O5 0.500000 0.500000 0.934853
O O6 0.500000 0.000000 0.931649
O O7 0.898661 0.779399 0.965599
#
# Coordination Sequence:
#
# PCOD9558745 Si02
#       4
#     8   8   2   2
#     4  10  25  48  73 110 158 206 265 333 401 476
#     4  10  26  49  75 113 161 209 267 336 406 481
#     4  12  26  40  82 106 156 208 274 314 408 476
#     4  12  28  44  84 112 160 212 276 320 412 482
#
# _framework density 26.105585999999999
#
# number of rings (size 3 to 8) (size 9 to 14) (size 15 to 20)
#    0.000    1.600    0.000    0.600   11.200    9.600 
#    0.000    0.000    0.000    0.000    0.000    0.000 
#    0.000    0.000    0.000    0.000    0.000    0.000 
#
# Total GULP energy -112084.417016 kJ/mol
# GULP energy per Si atom -5604.220851 kJ/mol
# Density = 2.604617 g / cm^3
# Si number density = 26.105586 Si / 1000 Ang^3
#
#
#
# Elastic Constant Matrix: (Units=GPa)
#
#
# Indices 1 2 3 4 5 6 
#
# 1 167.0563 65.6035 80.6120 0.0000 0.0000 0.0000
# 2 65.6035 167.0563 80.6120 0.0000 0.0000 0.0000
# 3 80.6120 80.6120 234.9024 0.0000 0.0000 0.0000
# 4 0.0000 0.0000 0.0000 -55.4365 0.0000 0.0000
# 5 0.0000 0.0000 0.0000 0.0000 -55.4365 0.0000
# 6 0.0000 0.0000 0.0000 0.0000 0.0000 47.3793
#
#
#
# Elastic Compliance Matrix: (Units=1/GPa)
#
#
# Indices 1 2 3 4 5 6 
#
# 1 0.007748 -0.002109 -0.001935 0.000000 0.000000 0.000000
# 2 -0.002109 0.007748 -0.001935 0.000000 0.000000 0.000000
# 3 -0.001935 -0.001935 0.005585 0.000000 0.000000 0.000000
# 4 0.000000 0.000000 0.000000 -0.018039 0.000000 0.000000
# 5 0.000000 0.000000 0.000000 0.000000 -0.018039 0.000000
# 6 0.000000 0.000000 0.000000 0.000000 0.000000 0.021106
#
#
# Mechanical properties :
#
#
# Convention : Reuss Voigt Hill
#
# Bulk Modulus (GPa) = 109.61564 113.63002 111.62283
# Shear Modulus (GPa) = 236.85963 10.11376 123.48670
#
# Velocity S-wave (km/s) = 9.53564 1.97043 6.88516
# Velocity P-wave (km/s) = 12.77961 6.98558 10.29846
#
# Compressibility (1/GPa) = 0.00912279
#
# Stress axis : x y z
#
# Youngs Moduli (GPa) = 129.06610 129.06610 179.04145
#
# Poissons Ratio (x) = 0.27218 0.34648
# Poissons Ratio (y) = 0.27218 0.34648
# Poissons Ratio (z) = 0.24977 0.24977
#
# Static dielectric constant tensor:
#      x y z
#    x 1.953810 0.000000 0.000000 
#    y 0.000000 1.953810 0.000000 
#    z 0.000000 0.000000 2.021580 
# 
# From -- ./inp_files/6318.got.cif
#   From: 2010.05.17/outbox.cif.g08.bks.cpg/sg118_4_cif.got.tgz:6318.got - 2010.05.20 11:17:24.
