data_PCOD9558239
_publ_section_title
;
Structure prediction by ZEFSAII (Michael W. Deem and Ramdas Pophale) SiO2 
 PCOD9558239
Probable space group: P -4 B 2
;
_chemical_formula_sum "Si O2"
_cell_formula_units_Z 34
_cell_length_a 11.184528
_cell_length_b 11.184528
_cell_length_c 11.458976
_cell_angle_alpha 90.000000
_cell_angle_beta 90.000000
_cell_angle_gamma 90.000000
_cell_volume 1433.445323
_symmetry_space_group_name_H-M "P -4 B 2"
_symmetry_group_IT_number 117
_symmetry_cell_setting 'tetragonal'
loop_
_space_group_symop_operation_xyz
x,y,z
y,-x,-z
-x,-y,z
-y,x,-z
1/2+y,1/2+x,-z
1/2-y,1/2-x,-z
1/2-x,1/2+y,z
1/2+x,1/2-y,z
loop_
_atom_site_type_symbol
_atom_site_label
_atom_site_fract_x
_atom_site_fract_y
_atom_site_fract_z
Si Si1 0.932135 0.297600 0.899332
Si Si2 0.180804 0.306481 0.162685
Si Si3 0.957329 0.377038 0.314271
Si Si4 0.000000 0.000000 0.500000
Si Si5 0.825103 0.816426 0.593340
O O1 0.825608 0.199318 0.892516
O O2 0.921690 0.352249 0.770357
O O3 0.075206 0.283504 0.912734
O O4 0.887604 0.387604 0.000000
O O5 0.264943 0.319208 0.276863
O O6 0.050882 0.321455 0.221242
O O7 0.916411 0.278836 0.404706
O O8 0.000000 0.500000 0.369340
O O9 0.053038 0.112063 0.571071
O O10 0.784369 0.715632 0.500000
#
# Coordination Sequence:
#
# PCOD9558239 Si02
#       5
#     8   8   8   2   8
#     4  10  23  40  68 100 129 182 221 292 355 433
#     4  10  23  43  66  95 141 172 239 287 357 425
#     4   9  21  40  66  93 130 176 229 288 343 424
#     4  12  28  40  68  96 138 184 232 288 352 420
#     4  11  25  42  66  99 137 188 235 294 357 424
#
# _framework density 23.719076000000001
#
# number of rings (size 3 to 8) (size 9 to 14) (size 15 to 20)
#    0.000    1.882    0.000    1.412   16.471    3.765 
#    0.000    0.000    0.000    0.000    0.000    0.000 
#    0.000    0.000    0.000    0.000    0.000    0.000 
#
# Total GULP energy -189648.323991 kJ/mol
# GULP energy per Si atom -5577.891882 kJ/mol
# Density = 2.366509 g / cm^3
# Si number density = 23.719076 Si / 1000 Ang^3
#
#
#
# Elastic Constant Matrix: (Units=GPa)
#
#
# Indices 1 2 3 4 5 6 
#
# 1 86.1425 44.8047 14.5068 0.0000 0.0000 0.0000
# 2 44.8047 86.1428 14.5068 0.0000 0.0000 0.0000
# 3 14.5068 14.5068 63.4247 0.0000 0.0000 0.0000
# 4 0.0000 0.0000 0.0000 37.8827 0.0000 0.0000
# 5 0.0000 0.0000 0.0000 0.0000 37.8825 0.0000
# 6 0.0000 0.0000 0.0000 0.0000 0.0000 40.7976
#
#
#
# Elastic Compliance Matrix: (Units=1/GPa)
#
#
# Indices 1 2 3 4 5 6 
#
# 1 0.016118 -0.008073 -0.001840 0.000000 0.000000 0.000000
# 2 -0.008073 0.016118 -0.001840 0.000000 0.000000 0.000000
# 3 -0.001840 -0.001840 0.016608 0.000000 0.000000 0.000000
# 4 0.000000 0.000000 0.000000 0.026397 0.000000 0.000000
# 5 0.000000 0.000000 0.000000 0.000000 0.026397 0.000000
# 6 0.000000 0.000000 0.000000 0.000000 0.000000 0.024511
#
#
# Mechanical properties :
#
#
# Convention : Reuss Voigt Hill
#
# Bulk Modulus (GPa) = 39.46748 42.59407 41.03078
# Shear Modulus (GPa) = 31.62525 34.10536 32.86530
#
# Velocity S-wave (km/s) = 3.65543 3.79606 3.72641
# Velocity P-wave (km/s) = 5.87298 6.10001 5.98758
#
# Compressibility (1/GPa) = 0.02533731
#
# Stress axis : x y z
#
# Youngs Moduli (GPa) = 62.04390 62.04412 60.21046
#
# Poissons Ratio (x) = 0.50090 0.11078
# Poissons Ratio (y) = 0.50090 0.11078
# Poissons Ratio (z) = 0.11416 0.11416
#
# Static dielectric constant tensor:
#      x y z
#    x 2.020780 0.000000 0.000000 
#    y 0.000000 2.020780 0.000000 
#    z 0.000000 0.000000 1.908710 
# 
# From -- ./inp_files/2429.got.cif
#   From: 2010.05.17/outbox.cif.g08.bks.cpg/sg117_2_cif.got.tgz:2429.got - 2010.05.20 11:15:09.
