data_PCOD9558090
_publ_section_title
;
Structure prediction by ZEFSAII (Michael W. Deem and Ramdas Pophale) SiO2 
 PCOD9558090
Probable space group: P -4 B 2
;
_chemical_formula_sum "Si O2"
_cell_formula_units_Z 60
_cell_length_a 14.797233
_cell_length_b 14.797233
_cell_length_c 14.848385
_cell_angle_alpha 90.000000
_cell_angle_beta 90.000000
_cell_angle_gamma 90.000000
_cell_volume 3251.174234
_symmetry_space_group_name_H-M "P -4 B 2"
_symmetry_group_IT_number 117
_symmetry_cell_setting 'tetragonal'
loop_
_space_group_symop_operation_xyz
x,y,z
y,-x,-z
-x,-y,z
-y,x,-z
1/2+y,1/2+x,-z
1/2-y,1/2-x,-z
1/2-x,1/2+y,z
1/2+x,1/2-y,z
loop_
_atom_site_type_symbol
_atom_site_label
_atom_site_fract_x
_atom_site_fract_y
_atom_site_fract_z
Si Si1 0.151637 0.016214 0.499685
Si Si2 0.134337 0.860534 0.186096
Si Si3 0.251066 0.496817 0.310598
Si Si4 0.996200 0.249897 0.316138
Si Si5 0.576217 0.066940 0.759196
Si Si6 0.500000 0.500000 0.839157
Si Si7 0.858972 0.857241 0.226381
Si Si8 0.819185 0.699615 0.104300
O O1 0.212843 0.007796 0.411304
O O2 0.212175 0.033031 0.587714
O O3 0.094438 0.923513 0.511204
O O4 0.186006 0.922329 0.260236
O O5 0.215133 0.813616 0.133509
O O6 0.069495 0.791724 0.239447
O O7 0.072541 0.927279 0.123193
O O8 0.148584 0.466260 0.298424
O O9 0.270470 0.591533 0.259578
O O10 0.007462 0.355731 0.301179
O O11 0.097661 0.211585 0.297350
O O12 0.633138 0.116280 0.838166
O O13 0.500000 0.000000 0.795470
O O14 0.434228 0.435253 0.782724
O O15 0.846372 0.800845 0.134996
O O16 0.823297 0.676704 0.000000
#
# Coordination Sequence:
#
# PCOD9558090 Si02
#       8
#     8   8   8   8   8   4   8   8
#     4  11  20  31  62 103 125 154 207 256 296 359
#     4   9  18  34  60  86 121 157 189 247 307 358
#     4  10  19  36  58  91 122 159 203 244 304 355
#     4  10  19  36  58  91 122 159 203 244 304 355
#     4  10  24  42  64  80 118 173 205 246 312 370
#     4   8  16  32  57  85 112 152 186 224 300 361
#     4   9  18  34  60  86 121 157 189 247 307 358
#     4  10  22  41  63  90 118 152 206 257 305 376
#
# _framework density 18.454871000000001
#
# number of rings (size 3 to 8) (size 9 to 14) (size 15 to 20)
#    0.000    2.267    2.667    0.000    1.867    0.800 
#    0.000   14.000    2.933    0.000    0.000    0.000 
#    0.000    0.000    0.000    0.000    0.000    0.000 
#
# Total GULP energy -334091.696559 kJ/mol
# GULP energy per Si atom -5568.194943 kJ/mol
# Density = 1.841287 g / cm^3
# Si number density = 18.454871 Si / 1000 Ang^3
#
#
#
# Elastic Constant Matrix: (Units=GPa)
#
#
# Indices 1 2 3 4 5 6 
#
# 1 85.4604 41.3262 29.3425 0.0000 0.0000 0.0000
# 2 41.3262 85.4607 29.3427 0.0000 0.0000 0.0000
# 3 29.3425 29.3427 90.9892 0.0000 0.0000 0.0000
# 4 0.0000 0.0000 0.0000 15.8922 0.0000 0.0000
# 5 0.0000 0.0000 0.0000 0.0000 15.8922 0.0000
# 6 0.0000 0.0000 0.0000 0.0000 0.0000 27.7674
#
#
#
# Elastic Compliance Matrix: (Units=1/GPa)
#
#
# Indices 1 2 3 4 5 6 
#
# 1 0.015965 -0.006693 -0.002990 0.000000 0.000000 0.000000
# 2 -0.006693 0.015965 -0.002990 0.000000 0.000000 0.000000
# 3 -0.002990 -0.002990 0.012919 0.000000 0.000000 0.000000
# 4 0.000000 0.000000 0.000000 0.062924 0.000000 0.000000
# 5 0.000000 0.000000 0.000000 0.000000 0.062924 0.000000
# 6 0.000000 0.000000 0.000000 0.000000 0.000000 0.036014
#
#
# Mechanical properties :
#
#
# Convention : Reuss Voigt Hill
#
# Bulk Modulus (GPa) = 51.27752 51.32590 51.30171
# Shear Modulus (GPa) = 20.95945 22.70362 21.83154
#
# Velocity S-wave (km/s) = 3.37369 3.51126 3.44316
# Velocity P-wave (km/s) = 6.55907 6.65662 6.60802
#
# Compressibility (1/GPa) = 0.01950172
#
# Stress axis : x y z
#
# Youngs Moduli (GPa) = 62.63855 62.63860 77.40752
#
# Poissons Ratio (x) = 0.41927 0.23143
# Poissons Ratio (y) = 0.41927 0.23144
# Poissons Ratio (z) = 0.18727 0.18728
#
# Static dielectric constant tensor:
#      x y z
#    x 1.662710 0.000000 0.000000 
#    y 0.000000 1.662710 0.000000 
#    z 0.000000 0.000000 1.615330 
# 
# From -- ./inp_files/3274.got.cif
#   From: 2010.05.17/outbox.cif.g08.bks.cpg/sg117_2_cif.got.tgz:3274.got - 2010.05.20 11:15:09.
