data_PCOD9558687
_publ_section_title
;
Structure prediction by ZEFSAII (Michael W. Deem and Ramdas Pophale) SiO2 
 PCOD9558687
Probable space group: P -4 N 2
;
_chemical_formula_sum "Si O2"
_cell_formula_units_Z 64
_cell_length_a 11.475132
_cell_length_b 11.475132
_cell_length_c 24.158380
_cell_angle_alpha 90.000000
_cell_angle_beta 90.000000
_cell_angle_gamma 90.000000
_cell_volume 3181.142971
_symmetry_space_group_name_H-M "P -4 N 2"
_symmetry_group_IT_number 118
_symmetry_cell_setting 'tetragonal'
loop_
_space_group_symop_operation_xyz
x,y,z
y,-x,-z
-x,-y,z
-y,x,-z
1/2+y,1/2+x,1/2-z
1/2-y,1/2-x,1/2-z
1/2-x,1/2+y,1/2+z
1/2+x,1/2-y,1/2+z
loop_
_atom_site_type_symbol
_atom_site_label
_atom_site_fract_x
_atom_site_fract_y
_atom_site_fract_z
Si Si1 0.083596 0.589357 0.513855
Si Si2 0.013734 0.815549 0.016581
Si Si3 0.616837 0.577446 0.848066
Si Si4 0.157677 0.074946 0.527662
Si Si5 0.880864 0.803784 0.763034
Si Si6 0.457449 0.128952 0.139575
Si Si7 0.219257 0.149453 0.203160
Si Si8 0.981734 0.140326 0.141682
O O1 0.200916 0.517423 0.519394
O O2 0.108661 0.710964 0.485140
O O3 0.032750 0.619830 0.573505
O O4 0.000000 0.500000 0.482417
O O5 0.029359 0.799872 0.082147
O O6 0.895894 0.883611 0.005930
O O7 0.500000 0.500000 0.843368
O O8 0.602225 0.633170 0.908473
O O9 0.618163 0.648669 0.790761
O O10 0.747285 0.519615 0.846771
O O11 0.061404 0.138869 0.488908
O O12 0.817620 0.682381 0.750000
O O13 0.020291 0.792734 0.770255
O O14 0.842379 0.869856 0.818974
O O15 0.324403 0.141427 0.159207
O O16 0.500000 0.000000 0.161220
O O17 0.260877 0.239124 0.250000
O O18 0.097995 0.178914 0.173843
O O19 0.000000 0.000000 0.131811
#
# Coordination Sequence:
#
# PCOD9558687 Si02
#       8
#     8   8   8   8   8   8   8   8
#     4  11  26  41  62  98 130 169 217 266 326 393
#     4  11  23  42  68  94 124 173 221 263 327 388
#     4  12  22  41  67  96 126 178 220 259 326 408
#     4  11  22  44  65  94 134 169 210 269 329 387
#     4  11  25  40  64  92 125 166 215 269 324 384
#     4  11  23  38  61  98 135 160 207 269 337 380
#     4  11  22  39  64  94 129 162 205 267 326 383
#     4  10  22  44  62  90 128 166 216 263 313 383
#
# _framework density 20.118556000000002
#
# number of rings (size 3 to 8) (size 9 to 14) (size 15 to 20)
#    0.000    1.000    5.000    2.625    5.250    0.000 
#    2.250    0.000    0.000    0.000    0.000    0.000 
#    0.000    0.000    0.000    0.000    0.000    0.000 
#
# Total GULP energy -356974.561019 kJ/mol
# GULP energy per Si atom -5577.727516 kJ/mol
# Density = 2.007277 g / cm^3
# Si number density = 20.118556 Si / 1000 Ang^3
#
#
#
# Elastic Constant Matrix: (Units=GPa)
#
#
# Indices 1 2 3 4 5 6 
#
# 1 64.0569 -9.9123 5.0327 0.0000 0.0000 0.0000
# 2 -9.9123 64.0575 5.0326 0.0000 0.0000 0.0000
# 3 5.0327 5.0326 107.5180 0.0000 0.0000 0.0000
# 4 0.0000 0.0000 0.0000 11.6107 0.0000 0.0000
# 5 0.0000 0.0000 0.0000 0.0000 11.6099 0.0000
# 6 0.0000 0.0000 0.0000 0.0000 0.0000 28.4328
#
#
#
# Elastic Compliance Matrix: (Units=1/GPa)
#
#
# Indices 1 2 3 4 5 6 
#
# 1 0.016075 0.002556 -0.000872 0.000000 0.000000 0.000000
# 2 0.002556 0.016075 -0.000872 0.000000 0.000000 0.000000
# 3 -0.000872 -0.000872 0.009382 0.000000 0.000000 0.000000
# 4 0.000000 0.000000 0.000000 0.086127 0.000000 0.000000
# 5 0.000000 0.000000 0.000000 0.000000 0.086133 0.000000
# 6 0.000000 0.000000 0.000000 0.000000 0.000000 0.035171
#
#
# Mechanical properties :
#
#
# Convention : Reuss Voigt Hill
#
# Bulk Modulus (GPa) = 23.17159 26.21536 24.69347
# Shear Modulus (GPa) = 19.10398 26.02931 22.56665
#
# Velocity S-wave (km/s) = 3.08485 3.60084 3.35279
# Velocity P-wave (km/s) = 4.92249 5.50879 5.22387
#
# Compressibility (1/GPa) = 0.04315630
#
# Stress axis : x y z
#
# Youngs Moduli (GPa) = 62.20778 62.20835 106.58249
#
# Poissons Ratio (x) = -0.15900 0.09295
# Poissons Ratio (y) = -0.15900 0.09295
# Poissons Ratio (z) = 0.05425 0.05425
#
# Static dielectric constant tensor:
#      x y z
#    x 1.739440 0.000000 0.000000 
#    y 0.000000 1.739430 0.000000 
#    z 0.000000 0.000000 1.718860 
# 
# From -- ./inp_files/6265.got.cif
#   From: 2010.05.17/outbox.cif.g08.bks.cpg/sg118_4_cif.got.tgz:6265.got - 2010.05.20 11:17:24.
