data_PCOD9558994
_publ_section_title
;
Structure prediction by ZEFSAII (Michael W. Deem and Ramdas Pophale) SiO2 
 PCOD9558994
Probable space group: I -4 M 2
;
_chemical_formula_sum "Si O2"
_cell_formula_units_Z 128
_cell_length_a 21.295867
_cell_length_b 21.295867
_cell_length_c 17.641273
_cell_angle_alpha 90.000000
_cell_angle_beta 90.000000
_cell_angle_gamma 90.000000
_cell_volume 8000.563424
_symmetry_space_group_name_H-M "I -4 M 2"
_symmetry_group_IT_number 119
_symmetry_cell_setting 'tetragonal'
loop_
_space_group_symop_operation_xyz
x,y,z
y,-x,-z
-x,-y,z
-y,x,-z
y,x,-z
-y,-x,-z
-x,y,z
x,-y,z
1/2+x,1/2+y,1/2+z
1/2+y,1/2-x,1/2-z
1/2-x,1/2-y,1/2+z
1/2-y,1/2+x,1/2-z
1/2+y,1/2+x,1/2-z
1/2-y,1/2-x,1/2-z
1/2-x,1/2+y,1/2+z
1/2+x,1/2-y,1/2+z
loop_
_atom_site_type_symbol
_atom_site_label
_atom_site_fract_x
_atom_site_fract_y
_atom_site_fract_z
Si Si1 0.246504 0.129623 0.377213
Si Si2 0.074913 0.179096 0.478352
Si Si3 0.269834 0.351763 0.166496
Si Si4 0.569116 0.924888 0.032151
Si Si5 0.069074 0.354601 0.693032
Si Si6 0.204164 0.425852 0.474188
Si Si7 0.247976 0.344887 0.337792
Si Si8 0.747374 0.319330 0.570846
O O1 0.224107 0.093305 0.451718
O O2 0.191449 0.167967 0.336878
O O3 0.282413 0.082130 0.323463
O O4 0.293358 0.185795 0.401722
O O5 0.116680 0.116680 0.500000
O O6 0.099572 0.214191 0.401384
O O7 0.000000 0.167695 0.474499
O O8 0.258051 0.371058 0.253441
O O9 0.208585 0.307020 0.153308
O O10 0.500000 0.909217 0.999287
O O11 0.573514 0.890282 0.112661
O O12 0.570652 0.000000 0.044609
O O13 0.630169 0.909054 0.982959
O O14 0.119910 0.380091 0.750000
O O15 0.000000 0.366480 0.724777
O O16 0.210656 0.500000 0.480586
O O17 0.230590 0.399366 0.395782
O O18 0.241248 0.388590 0.539622
O O19 0.308580 0.305351 0.365794
O O20 0.723528 0.276473 0.500000
#
# Coordination Sequence:
#
# PCOD9558994 Si02
#       8
#    16  16  16  16  16  16  16  16
#     4  10  18  31  51  72  94 123 163 202 243 295
#     4  10  20  35  53  76 102 129 165 206 249 304
#     4   9  19  32  53  73  97 128 158 202 258 301
#     4   9  18  31  44  61  91 132 169 198 231 274
#     4  11  22  31  44  65  95 130 166 205 241 282
#     4  10  18  29  47  71  98 127 164 202 235 286
#     4   9  18  32  49  73 100 128 158 202 255 298
#     4   9  16  29  48  69  96 124 157 199 245 287
#
# _framework density 15.998874000000001
#
# number of rings (size 3 to 8) (size 9 to 14) (size 15 to 20)
#    0.000    2.375    1.250    3.375    3.500    1.250 
#    0.000    0.000    0.000    1.500    0.000    0.000 
#    0.000   20.250    0.000    0.000    0.000    0.000 
#
# Total GULP energy -356285.647602 kJ/mol
# GULP energy per Si atom -5566.963244 kJ/mol
# Density = 1.596246 g / cm^3
# Si number density = 15.998874 Si / 1000 Ang^3
#
#
#
# Elastic Constant Matrix: (Units=GPa)
#
#
# Indices 1 2 3 4 5 6 
#
# 1 70.7686 24.2766 30.2648 0.0000 0.0000 0.0000
# 2 24.2766 70.7704 30.2636 0.0000 0.0000 0.0000
# 3 30.2648 30.2636 51.9683 0.0000 0.0000 0.0000
# 4 0.0000 0.0000 0.0000 11.2863 0.0000 0.0000
# 5 0.0000 0.0000 0.0000 0.0000 11.2843 0.0000
# 6 0.0000 0.0000 0.0000 0.0000 0.0000 14.8472
#
#
#
# Elastic Compliance Matrix: (Units=1/GPa)
#
#
# Indices 1 2 3 4 5 6 
#
# 1 0.019117 -0.002393 -0.009740 0.000000 0.000000 0.000000
# 2 -0.002393 0.019115 -0.009738 0.000000 0.000000 0.000000
# 3 -0.009740 -0.009738 0.030586 0.000000 0.000000 0.000000
# 4 0.000000 0.000000 0.000000 0.088603 0.000000 0.000000
# 5 0.000000 0.000000 0.000000 0.000000 0.088619 0.000000
# 6 0.000000 0.000000 0.000000 0.000000 0.000000 0.067353
#
#
# Mechanical properties :
#
#
# Convention : Reuss Voigt Hill
#
# Bulk Modulus (GPa) = 39.87815 40.34636 40.11225
# Shear Modulus (GPa) = 13.68020 14.73040 14.20530
#
# Velocity S-wave (km/s) = 2.92734 3.03762 2.98299
# Velocity P-wave (km/s) = 6.03369 6.12991 6.08199
#
# Compressibility (1/GPa) = 0.02507639
#
# Stress axis : x y z
#
# Youngs Moduli (GPa) = 52.31071 52.31390 32.69511
#
# Poissons Ratio (x) = 0.12517 0.31844
# Poissons Ratio (y) = 0.12516 0.31840
# Poissons Ratio (z) = 0.50948 0.50945
#
# Static dielectric constant tensor:
#      x y z
#    x 1.541480 0.000000 0.000000 
#    y 0.000000 1.541480 0.000000 
#    z 0.000000 0.000000 1.544730 
# 
# From -- ./inp_files/6927.got.cif
#   From: 2010.05.17/outbox.cif.g08.bks.cpg/sg119_4_cif.got.tgz:6927.got - 2010.05.20 11:21:29.
