data_PCOD9558336
_publ_section_title
;
Structure prediction by ZEFSAII (Michael W. Deem and Ramdas Pophale) SiO2 
 PCOD9558336
Probable space group: P -4 B 2
;
_chemical_formula_sum "Si O2"
_cell_formula_units_Z 24
_cell_length_a 13.727060
_cell_length_b 13.727060
_cell_length_c 5.026733
_cell_angle_alpha 90.000000
_cell_angle_beta 90.000000
_cell_angle_gamma 90.000000
_cell_volume 947.198239
_symmetry_space_group_name_H-M "P -4 B 2"
_symmetry_group_IT_number 117
_symmetry_cell_setting 'tetragonal'
loop_
_space_group_symop_operation_xyz
x,y,z
y,-x,-z
-x,-y,z
-y,x,-z
1/2+y,1/2+x,-z
1/2-y,1/2-x,-z
1/2-x,1/2+y,z
1/2+x,1/2-y,z
loop_
_atom_site_type_symbol
_atom_site_label
_atom_site_fract_x
_atom_site_fract_y
_atom_site_fract_z
Si Si1 0.802103 0.302103 0.000000
Si Si2 0.609311 0.890690 0.500000
Si Si3 0.619522 0.593534 0.030779
Si Si4 0.181418 0.409036 0.269423
O O1 0.820226 0.370764 0.747721
O O2 0.692984 0.333966 0.087615
O O3 0.504963 0.872008 0.627967
O O4 0.704856 0.568774 0.237884
O O5 0.612677 0.490917 0.871578
O O6 0.169283 0.330718 0.500000
O O7 0.130325 0.369676 0.000000
#
# Coordination Sequence:
#
# PCOD9558336 Si02
#       4
#     4   4   8   8
#     4  12  26  50  85 119 166 218 278 354 428 504
#     4  12  27  50  82 124 166 221 278 354 426 507
#     4  11  26  54  86 122 169 225 290 349 431 516
#     4  12  27  51  85 125 168 221 281 354 431 512
#
# _framework density 25.337883999999999
#
# number of rings (size 3 to 8) (size 9 to 14) (size 15 to 20)
#    0.000    0.333    5.000    2.500    2.333    1.333 
#    0.000    0.000    0.000    0.000    0.000    0.000 
#    0.000    0.000    0.000    0.000    0.000    0.000 
#
# Total GULP energy -134078.254530 kJ/mol
# GULP energy per Si atom -5586.593939 kJ/mol
# Density = 2.528021 g / cm^3
# Si number density = 25.337884 Si / 1000 Ang^3
#
#
#
# Elastic Constant Matrix: (Units=GPa)
#
#
# Indices 1 2 3 4 5 6 
#
# 1 147.8160 113.0814 58.9595 0.0000 0.0000 0.0000
# 2 113.0814 147.8129 58.9624 0.0000 0.0000 0.0000
# 3 58.9595 58.9624 145.1624 0.0000 0.0000 0.0000
# 4 0.0000 0.0000 0.0000 28.2061 0.0000 0.0000
# 5 0.0000 0.0000 0.0000 0.0000 28.2051 0.0000
# 6 0.0000 0.0000 0.0000 0.0000 0.0000 48.1788
#
#
#
# Elastic Compliance Matrix: (Units=1/GPa)
#
#
# Indices 1 2 3 4 5 6 
#
# 1 0.016743 -0.012048 -0.001906 0.000000 0.000000 0.000000
# 2 -0.012048 0.016743 -0.001907 0.000000 0.000000 0.000000
# 3 -0.001906 -0.001907 0.008438 0.000000 0.000000 0.000000
# 4 0.000000 0.000000 0.000000 0.035453 0.000000 0.000000
# 5 0.000000 0.000000 0.000000 0.000000 0.035455 0.000000
# 6 0.000000 0.000000 0.000000 0.000000 0.000000 0.020756
#
#
# Mechanical properties :
#
#
# Convention : Reuss Voigt Hill
#
# Bulk Modulus (GPa) = 98.03978 100.31087 99.17532
# Shear Modulus (GPa) = 29.63637 34.90386 32.27011
#
# Velocity S-wave (km/s) = 3.42372 3.71554 3.57261
# Velocity P-wave (km/s) = 7.37605 7.62117 7.49961
#
# Compressibility (1/GPa) = 0.01019994
#
# Stress axis : x y z
#
# Youngs Moduli (GPa) = 59.72793 59.72530 118.51273
#
# Poissons Ratio (x) = 0.71958 0.22594
# Poissons Ratio (y) = 0.71961 0.22605
# Poissons Ratio (z) = 0.11387 0.11392
#
# Static dielectric constant tensor:
#      x y z
#    x 2.070120 0.000000 0.000000 
#    y 0.000000 2.070120 0.000000 
#    z 0.000000 0.000000 1.983860 
# 
# From -- ./inp_files/234.got.cif
#   From: 2010.05.17/outbox.cif.g08.bks.cpg/sg117_1_cif.got.tgz:234.got - 2010.05.20 11:15:09.
