data_PCOD9558243
_publ_section_title
;
Structure prediction by ZEFSAII (Michael W. Deem and Ramdas Pophale) SiO2 
 PCOD9558243
Probable space group: P -4 B 2
;
_chemical_formula_sum "Si O2"
_cell_formula_units_Z 36
_cell_length_a 12.781121
_cell_length_b 12.781121
_cell_length_c 8.670351
_cell_angle_alpha 90.000000
_cell_angle_beta 90.000000
_cell_angle_gamma 90.000000
_cell_volume 1416.362997
_symmetry_space_group_name_H-M "P -4 B 2"
_symmetry_group_IT_number 117
_symmetry_cell_setting 'tetragonal'
loop_
_space_group_symop_operation_xyz
x,y,z
y,-x,-z
-x,-y,z
-y,x,-z
1/2+y,1/2+x,-z
1/2-y,1/2-x,-z
1/2-x,1/2+y,z
1/2+x,1/2-y,z
loop_
_atom_site_type_symbol
_atom_site_label
_atom_site_fract_x
_atom_site_fract_y
_atom_site_fract_z
Si Si1 0.000000 0.500000 0.500000
Si Si2 0.500000 0.500000 0.000000
Si Si3 0.200898 0.900327 0.995923
Si Si4 0.929328 0.280159 0.837313
Si Si5 0.068755 0.839032 0.512713
Si Si6 0.311946 0.029273 0.731227
O O1 0.991470 0.603761 0.394439
O O2 0.398724 0.456732 0.082303
O O3 0.146305 0.793305 0.944968
O O4 0.244276 0.950662 0.836699
O O5 0.286601 0.947353 0.112164
O O6 0.922307 0.227826 0.668220
O O7 0.880786 0.394019 0.833495
O O8 0.099178 0.770131 0.365564
O O9 0.947046 0.868626 0.484655
#
# Coordination Sequence:
#
# PCOD9558243 Si02
#       6
#     2   2   8   8   8   8
#     4  12  28  48  70  88 148 192 232 286 344 432
#     4   8  20  40  68 102 136 172 216 306 364 388
#     4  10  23  41  71  99 140 176 232 305 355 414
#     4  11  23  45  67 105 139 187 234 295 362 421
#     4  11  24  40  74 106 137 179 244 305 352 414
#     4  12  25  47  68 101 141 191 239 285 355 443
#
# _framework density 25.417213
#
# number of rings (size 3 to 8) (size 9 to 14) (size 15 to 20)
#    0.000    1.111    4.444    0.667    9.333    1.778 
#    0.000    4.444    0.000    0.000    0.000    0.000 
#    0.000    0.000    0.000    0.000    0.000    0.000 
#
# Total GULP energy -200680.368120 kJ/mol
# GULP energy per Si atom -5574.454670 kJ/mol
# Density = 2.535936 g / cm^3
# Si number density = 25.417213 Si / 1000 Ang^3
#
#
#
# Elastic Constant Matrix: (Units=GPa)
#
#
# Indices 1 2 3 4 5 6 
#
# 1 61.7505 31.2303 22.8177 0.0000 0.0000 0.0000
# 2 31.2303 61.7505 22.8177 0.0000 0.0000 0.0000
# 3 22.8177 22.8177 92.3402 0.0000 0.0000 0.0000
# 4 0.0000 0.0000 0.0000 41.5997 0.0000 0.0000
# 5 0.0000 0.0000 0.0000 0.0000 41.5997 0.0000
# 6 0.0000 0.0000 0.0000 0.0000 0.0000 34.2636
#
#
#
# Elastic Compliance Matrix: (Units=1/GPa)
#
#
# Indices 1 2 3 4 5 6 
#
# 1 0.022502 -0.010263 -0.003024 0.000000 0.000000 0.000000
# 2 -0.010263 0.022502 -0.003024 0.000000 0.000000 0.000000
# 3 -0.003024 -0.003024 0.012324 0.000000 0.000000 0.000000
# 4 0.000000 0.000000 0.000000 0.024039 0.000000 0.000000
# 5 0.000000 0.000000 0.000000 0.000000 0.024039 0.000000
# 6 0.000000 0.000000 0.000000 0.000000 0.000000 0.029185
#
#
# Mechanical properties :
#
#
# Convention : Reuss Voigt Hill
#
# Bulk Modulus (GPa) = 40.47725 41.06362 40.77044
# Shear Modulus (GPa) = 28.49815 32.75764 30.62790
#
# Velocity S-wave (km/s) = 3.35209 3.59388 3.47509
# Velocity P-wave (km/s) = 5.56253 5.78033 5.67247
#
# Compressibility (1/GPa) = 0.02470523
#
# Stress axis : x y z
#
# Youngs Moduli (GPa) = 44.44001 44.44001 81.14123
#
# Poissons Ratio (x) = 0.45609 0.24540
# Poissons Ratio (y) = 0.45609 0.24540
# Poissons Ratio (z) = 0.13440 0.13440
#
# Static dielectric constant tensor:
#      x y z
#    x 2.065180 0.000000 0.000000 
#    y 0.000000 2.065180 0.000000 
#    z 0.000000 0.000000 2.058170 
# 
# From -- ./inp_files/1630.got.cif
#   From: 2010.05.17/outbox.cif.g08.bks.cpg/sg117_1_cif.got.tgz:1630.got - 2010.05.20 11:15:09.
