data_PCOD9558525
_publ_section_title
;
Structure prediction by ZEFSAII (Michael W. Deem and Ramdas Pophale) SiO2 
 PCOD9558525
Probable space group: P -4 N 2
;
_chemical_formula_sum "Si O2"
_cell_formula_units_Z 48
_cell_length_a 8.670235
_cell_length_b 8.670235
_cell_length_c 32.920559
_cell_angle_alpha 90.000000
_cell_angle_beta 90.000000
_cell_angle_gamma 90.000000
_cell_volume 2474.736357
_symmetry_space_group_name_H-M "P -4 N 2"
_symmetry_group_IT_number 118
_symmetry_cell_setting 'tetragonal'
loop_
_space_group_symop_operation_xyz
x,y,z
y,-x,-z
-x,-y,z
-y,x,-z
1/2+y,1/2+x,1/2-z
1/2-y,1/2-x,1/2-z
1/2-x,1/2+y,1/2+z
1/2+x,1/2-y,1/2+z
loop_
_atom_site_type_symbol
_atom_site_label
_atom_site_fract_x
_atom_site_fract_y
_atom_site_fract_z
Si Si1 0.735593 0.187367 0.122828
Si Si2 0.742128 0.277539 0.704546
Si Si3 0.000000 0.000000 0.162583
Si Si4 0.000000 0.500000 0.821689
Si Si5 0.722108 0.612904 0.048101
Si Si6 0.743590 0.607735 0.960092
Si Si7 0.321541 0.964875 0.635707
O O1 0.611369 0.100052 0.149942
O O2 0.693063 0.169279 0.075789
O O3 0.737733 0.369770 0.132548
O O4 0.896978 0.111304 0.134847
O O5 0.717263 0.217263 0.750000
O O6 0.607097 0.392585 0.690318
O O7 0.897067 0.379282 0.702985
O O8 0.746762 0.143354 0.670704
O O9 0.663940 0.435748 0.041570
O O10 0.574168 0.725728 0.049544
O O11 0.807598 0.614291 0.091144
O O12 0.806430 0.641552 0.005188
O O13 0.500000 0.000000 0.644528
#
# Coordination Sequence:
#
# PCOD9558525 Si02
#       7
#     8   8   4   4   8   8   8
#     4  10  20  38  62  88 122 160 202 245 310 367
#     4  11  24  42  64  89 120 158 207 250 317 371
#     4  10  22  42  60  85 132 162 186 261 322 372
#     4  10  23  40  62  90 120 158 196 260 313 368
#     4   8  15  28  53  86 120 142 200 251 297 334
#     4   8  14  29  54  86 113 153 194 254 286 349
#     4  11  21  37  61  88 119 164 199 249 305 368
#
# _framework density 19.396006
#
# number of rings (size 3 to 8) (size 9 to 14) (size 15 to 20)
#    0.000    2.333    1.667    2.250    0.000    3.667 
#    1.500    1.667    3.667    1.000    0.000    0.000 
#    0.000    0.000    0.000    0.000    0.000    0.000 
#
# Total GULP energy -267800.472210 kJ/mol
# GULP energy per Si atom -5579.176504 kJ/mol
# Density = 1.935186 g / cm^3
# Si number density = 19.396006 Si / 1000 Ang^3
#
#
#
# Elastic Constant Matrix: (Units=GPa)
#
#
# Indices 1 2 3 4 5 6 
#
# 1 61.3735 20.8060 42.0136 0.0000 0.0000 0.0000
# 2 20.8060 61.3735 42.0136 0.0000 0.0000 0.0000
# 3 42.0136 42.0136 156.2628 0.0000 0.0000 0.0000
# 4 0.0000 0.0000 0.0000 9.2194 0.0000 0.0000
# 5 0.0000 0.0000 0.0000 0.0000 9.2194 0.0000
# 6 0.0000 0.0000 0.0000 0.0000 0.0000 19.8002
#
#
#
# Elastic Compliance Matrix: (Units=1/GPa)
#
#
# Indices 1 2 3 4 5 6 
#
# 1 0.020716 -0.003934 -0.004512 0.000000 0.000000 0.000000
# 2 -0.003934 0.020716 -0.004512 0.000000 0.000000 0.000000
# 3 -0.004512 -0.004512 0.008826 0.000000 0.000000 0.000000
# 4 0.000000 0.000000 0.000000 0.108467 0.000000 0.000000
# 5 0.000000 0.000000 0.000000 0.000000 0.108467 0.000000
# 6 0.000000 0.000000 0.000000 0.000000 0.000000 0.050505
#
#
# Mechanical properties :
#
#
# Convention : Reuss Voigt Hill
#
# Bulk Modulus (GPa) = 41.08222 54.29734 47.68978
# Shear Modulus (GPa) = 14.21555 19.25956 16.73756
#
# Velocity S-wave (km/s) = 2.71017 3.15455 2.94077
# Velocity P-wave (km/s) = 5.56957 6.42831 6.01428
#
# Compressibility (1/GPa) = 0.02434143
#
# Stress axis : x y z
#
# Youngs Moduli (GPa) = 48.27146 48.27146 113.30467
#
# Poissons Ratio (x) = 0.18991 0.51124
# Poissons Ratio (y) = 0.18991 0.51124
# Poissons Ratio (z) = 0.21781 0.21781
#
# Static dielectric constant tensor:
#      x y z
#    x 1.684780 0.000000 0.000000 
#    y 0.000000 1.684780 0.000000 
#    z 0.000000 0.000000 1.671470 
# 
# From -- ./inp_files/6927.got.cif
#   From: 2010.05.17/outbox.cif.g08.bks.cpg/sg118_4_cif.got.tgz:6927.got - 2010.05.20 11:17:24.
