data_PCOD9558290
_publ_section_title
;
Structure prediction by ZEFSAII (Michael W. Deem and Ramdas Pophale) SiO2 
 PCOD9558290
Probable space group: P -4 B 2
;
_chemical_formula_sum "Si O2"
_cell_formula_units_Z 30
_cell_length_a 14.154989
_cell_length_b 14.154989
_cell_length_c 6.989652
_cell_angle_alpha 90.000000
_cell_angle_beta 90.000000
_cell_angle_gamma 90.000000
_cell_volume 1400.472631
_symmetry_space_group_name_H-M "P -4 B 2"
_symmetry_group_IT_number 117
_symmetry_cell_setting 'tetragonal'
loop_
_space_group_symop_operation_xyz
x,y,z
y,-x,-z
-x,-y,z
-y,x,-z
1/2+y,1/2+x,-z
1/2-y,1/2-x,-z
1/2-x,1/2+y,z
1/2+x,1/2-y,z
loop_
_atom_site_type_symbol
_atom_site_label
_atom_site_fract_x
_atom_site_fract_y
_atom_site_fract_z
Si Si1 0.479726 0.814413 0.735256
Si Si2 0.500000 0.000000 0.000000
Si Si3 0.789897 0.779543 0.795364
Si Si4 0.852271 0.352271 0.500000
Si Si5 0.641760 0.457844 0.993492
O O1 0.495513 0.907512 0.865141
O O2 0.370595 0.786163 0.705552
O O3 0.537802 0.832171 0.540228
O O4 0.518307 0.726207 0.862612
O O5 0.696935 0.799308 0.675900
O O6 0.764308 0.735693 0.000000
O O7 0.827403 0.885468 0.831061
O O8 0.554476 0.401575 0.089563
#
# Coordination Sequence:
#
# PCOD9558290 Si02
#       5
#     8   2   8   4   8
#     4  11  24  41  66  99 135 182 229 283 351 422
#     4  12  24  42  68  92 138 196 230 272 348 444
#     4  11  22  44  67  95 134 181 224 285 355 419
#     4  12  26  41  64 103 132 172 232 292 336 418
#     4   9  19  39  70  96 123 172 227 280 342 407
#
# _framework density 21.421339
#
# number of rings (size 3 to 8) (size 9 to 14) (size 15 to 20)
#    0.000    1.333    4.000    1.600    0.000    4.800 
#    0.000    0.000    0.000    0.000    0.000    0.000 
#    0.000    0.000    0.000    0.000    0.000    0.000 
#
# Total GULP energy -167388.520983 kJ/mol
# GULP energy per Si atom -5579.617366 kJ/mol
# Density = 2.137258 g / cm^3
# Si number density = 21.421339 Si / 1000 Ang^3
#
#
#
# Elastic Constant Matrix: (Units=GPa)
#
#
# Indices 1 2 3 4 5 6 
#
# 1 -34.0713 155.6872 20.5943 0.0000 0.0000 0.0000
# 2 155.6872 -34.0503 20.5975 0.0000 0.0000 0.0000
# 3 20.5943 20.5975 42.1254 0.0000 0.0000 0.0000
# 4 0.0000 0.0000 0.0000 21.0505 0.0000 0.0000
# 5 0.0000 0.0000 0.0000 0.0000 21.0510 0.0000
# 6 0.0000 0.0000 0.0000 0.0000 0.0000 23.9677
#
#
#
# Elastic Compliance Matrix: (Units=1/GPa)
#
#
# Indices 1 2 3 4 5 6 
#
# 1 0.002291 0.007562 -0.004818 0.000000 0.000000 0.000000
# 2 0.007562 0.002292 -0.004818 0.000000 0.000000 0.000000
# 3 -0.004818 -0.004818 0.028449 0.000000 0.000000 0.000000
# 4 0.000000 0.000000 0.000000 0.047505 0.000000 0.000000
# 5 0.000000 0.000000 0.000000 0.000000 0.047504 0.000000
# 6 0.000000 0.000000 0.000000 0.000000 0.000000 0.041723
#
#
# Mechanical properties :
#
#
# Convention : Reuss Voigt Hill
#
# Bulk Modulus (GPa) = 34.61865 40.86243 37.74054
# Shear Modulus (GPa) = 27.24210 -1.64451 12.79879
#
# Velocity S-wave (km/s) = 3.57000 -0.87713 2.44699
# Velocity P-wave (km/s) = 5.76100 4.25337 5.06361
#
# Compressibility (1/GPa) = 0.02888616
#
# Stress axis : x y z
#
# Youngs Moduli (GPa) = 436.45169 436.27517 35.15012
#
# Poissons Ratio (x) = -3.29903 0.16934
# Poissons Ratio (y) = -3.30037 0.16934
# Poissons Ratio (z) = 2.10262 2.10179
#
# Static dielectric constant tensor:
#      x y z
#    x 1.802660 0.000000 0.000000 
#    y 0.000000 1.802660 0.000000 
#    z 0.000000 0.000000 1.827680 
# 
# From -- ./inp_files/1430.got.cif
#   From: 2010.05.17/outbox.cif.g08.bks.cpg/sg117_1_cif.got.tgz:1430.got - 2010.05.20 11:15:09.
