data_PCOD9558387
_publ_section_title
;
Structure prediction by ZEFSAII (Michael W. Deem and Ramdas Pophale) SiO2 
 PCOD9558387
Probable space group: P -4 N 2
;
_chemical_formula_sum "Si O2"
_cell_formula_units_Z 42
_cell_length_a 14.770316
_cell_length_b 14.770316
_cell_length_c 8.756441
_cell_angle_alpha 90.000000
_cell_angle_beta 90.000000
_cell_angle_gamma 90.000000
_cell_volume 1910.324737
_symmetry_space_group_name_H-M "P -4 N 2"
_symmetry_group_IT_number 118
_symmetry_cell_setting 'tetragonal'
loop_
_space_group_symop_operation_xyz
x,y,z
y,-x,-z
-x,-y,z
-y,x,-z
1/2+y,1/2+x,1/2-z
1/2-y,1/2-x,1/2-z
1/2-x,1/2+y,1/2+z
1/2+x,1/2-y,1/2+z
loop_
_atom_site_type_symbol
_atom_site_label
_atom_site_fract_x
_atom_site_fract_y
_atom_site_fract_z
Si Si1 0.961569 0.741996 0.549119
Si Si2 0.631670 0.647972 0.573061
Si Si3 0.773162 0.508530 0.590078
Si Si4 0.915535 0.398211 0.428805
Si Si5 0.204263 0.139574 0.580035
Si Si6 0.000000 0.000000 0.000000
O O1 0.975341 0.727348 0.729496
O O2 0.988749 0.646194 0.474583
O O3 0.038538 0.811113 0.485840
O O4 0.864255 0.785449 0.519348
O O5 0.725089 0.599324 0.523175
O O6 0.575575 0.707773 0.454074
O O7 0.640806 0.694740 0.737053
O O8 0.563703 0.563365 0.600656
O O9 0.870026 0.478483 0.523682
O O10 0.918034 0.418034 0.250000
O O11 0.850874 0.309983 0.457944
#
# Coordination Sequence:
#
# PCOD9558387 Si02
#       6
#     8   8   8   8   8   2
#     4   9  20  30  48  70 101 129 164 199 243 293
#     4   9  17  28  45  68 100 127 165 193 243 287
#     4  10  17  31  47  72  97 131 165 201 239 290
#     4  10  19  33  50  66 101 131 166 201 245 288
#     4   9  19  31  44  72  98 133 160 201 243 288
#     4   8  16  24  40  66  96 132 152 202 220 308
#
# _framework density 21.985790000000001
#
# number of rings (size 3 to 8) (size 9 to 14) (size 15 to 20)
#    1.143    1.524    1.905    0.571    0.000    8.000 
#    0.000    0.000    0.000    0.000    0.000    1.333 
#    0.000    1.524    0.000    0.000    0.000    0.000 
#
# Total GULP energy -233833.501393 kJ/mol
# GULP energy per Si atom -5567.464319 kJ/mol
# Density = 2.193575 g / cm^3
# Si number density = 21.985790 Si / 1000 Ang^3
#
#
#
# Elastic Constant Matrix: (Units=GPa)
#
#
# Indices 1 2 3 4 5 6 
#
# 1 57.0438 74.4617 15.6933 0.0000 0.0000 0.0000
# 2 74.4617 57.0438 15.6933 0.0000 0.0000 0.0000
# 3 15.6933 15.6933 36.6676 0.0000 0.0000 0.0000
# 4 0.0000 0.0000 0.0000 14.7613 0.0000 0.0000
# 5 0.0000 0.0000 0.0000 0.0000 14.7613 0.0000
# 6 0.0000 0.0000 0.0000 0.0000 0.0000 52.8888
#
#
#
# Elastic Compliance Matrix: (Units=1/GPa)
#
#
# Indices 1 2 3 4 5 6 
#
# 1 -0.024472 0.032941 -0.003625 0.000000 0.000000 0.000000
# 2 0.032941 -0.024472 -0.003625 0.000000 0.000000 0.000000
# 3 -0.003625 -0.003625 0.030375 0.000000 0.000000 0.000000
# 4 0.000000 0.000000 0.000000 0.067745 0.000000 0.000000
# 5 0.000000 0.000000 0.000000 0.000000 0.067745 0.000000
# 6 0.000000 0.000000 0.000000 0.000000 0.000000 0.018908
#
#
# Mechanical properties :
#
#
# Convention : Reuss Voigt Hill
#
# Bulk Modulus (GPa) = 30.47448 40.27242 35.37345
# Shear Modulus (GPa) = 52.41956 19.47609 35.94783
#
# Velocity S-wave (km/s) = 4.88817 2.97955 4.04796
# Velocity P-wave (km/s) = 6.76388 5.49493 6.16215
#
# Compressibility (1/GPa) = 0.03281434
#
# Stress axis : x y z
#
# Youngs Moduli (GPa) = -40.86383 -40.86383 32.92213
#
# Poissons Ratio (x) = 1.34609 0.11934
# Poissons Ratio (y) = 1.34609 0.11934
# Poissons Ratio (z) = -0.14812 -0.14812
#
# Static dielectric constant tensor:
#      x y z
#    x 1.896260 0.000000 0.000000 
#    y 0.000000 1.896260 0.000000 
#    z 0.000000 0.000000 1.727050 
# 
# From -- ./inp_files/2038.got.cif
#   From: 2010.05.17/outbox.cif.g08.bks.cpg/sg118_2_cif.got.tgz:2038.got - 2010.05.20 11:17:24.
