data_PCOD9558494
_publ_section_title
;
Structure prediction by ZEFSAII (Michael W. Deem and Ramdas Pophale) SiO2 
 PCOD9558494
Probable space group: P -4 N 2
;
_chemical_formula_sum "Si O2"
_cell_formula_units_Z 30
_cell_length_a 8.263019
_cell_length_b 8.263019
_cell_length_c 18.483459
_cell_angle_alpha 90.000000
_cell_angle_beta 90.000000
_cell_angle_gamma 90.000000
_cell_volume 1262.004058
_symmetry_space_group_name_H-M "P -4 N 2"
_symmetry_group_IT_number 118
_symmetry_cell_setting 'tetragonal'
loop_
_space_group_symop_operation_xyz
x,y,z
y,-x,-z
-x,-y,z
-y,x,-z
1/2+y,1/2+x,1/2-z
1/2-y,1/2-x,1/2-z
1/2-x,1/2+y,1/2+z
1/2+x,1/2-y,1/2+z
loop_
_atom_site_type_symbol
_atom_site_label
_atom_site_fract_x
_atom_site_fract_y
_atom_site_fract_z
Si Si1 0.308790 0.999435 0.332445
Si Si2 0.500000 0.500000 0.270565
Si Si3 0.755305 0.588460 0.990491
Si Si4 0.788480 0.144090 0.888862
Si Si5 0.500000 0.500000 0.500000
O O1 0.267817 0.184292 0.351762
O O2 0.500000 0.000000 0.315657
O O3 0.301991 0.897937 0.406688
O O4 0.162871 0.961102 0.276214
O O5 0.653761 0.528860 0.323927
O O6 0.698314 0.404585 0.001086
O O7 0.875310 0.640658 0.055030
O O8 0.935295 0.136500 0.946630
#
# Coordination Sequence:
#
# PCOD9558494 Si02
#       5
#     8   4   8   8   2
#     4  11  22  39  67  99 134 183 239 292 358 435
#     4  11  24  39  61  98 141 180 230 296 367 428
#     4   9  18  36  64  99 137 179 235 300 358 425
#     4  10  21  38  61  90 131 180 230 290 359 425
#     4  10  20  36  56  84 118 168 238 300 350 424
#
# _framework density 23.771715
#
# number of rings (size 3 to 8) (size 9 to 14) (size 15 to 20)
#    0.000    1.867    0.000    5.600    0.000    2.133 
#    0.000    2.667    0.000   16.000    0.000   18.667 
#    0.000    0.000    0.000    0.000    0.000    0.000 
#
# Total GULP energy -167160.639399 kJ/mol
# GULP energy per Si atom -5572.021313 kJ/mol
# Density = 2.371761 g / cm^3
# Si number density = 23.771715 Si / 1000 Ang^3
#
#
#
# Elastic Constant Matrix: (Units=GPa)
#
#
# Indices 1 2 3 4 5 6 
#
# 1 100.1998 46.0677 85.7364 0.0000 0.0000 0.0000
# 2 46.0677 100.1998 85.7364 0.0000 0.0000 0.0000
# 3 85.7364 85.7364 220.0917 0.0000 0.0000 0.0000
# 4 0.0000 0.0000 0.0000 29.4584 0.0000 0.0000
# 5 0.0000 0.0000 0.0000 0.0000 29.4584 0.0000
# 6 0.0000 0.0000 0.0000 0.0000 0.0000 36.0808
#
#
#
# Elastic Compliance Matrix: (Units=1/GPa)
#
#
# Indices 1 2 3 4 5 6 
#
# 1 0.015528 -0.002945 -0.004902 0.000000 0.000000 0.000000
# 2 -0.002945 0.015528 -0.004902 0.000000 0.000000 0.000000
# 3 -0.004902 -0.004902 0.008363 0.000000 0.000000 0.000000
# 4 0.000000 0.000000 0.000000 0.033946 0.000000 0.000000
# 5 0.000000 0.000000 0.000000 0.000000 0.033946 0.000000
# 6 0.000000 0.000000 0.000000 0.000000 0.000000 0.027716
#
#
# Mechanical properties :
#
#
# Convention : Reuss Voigt Hill
#
# Bulk Modulus (GPa) = 71.82929 95.06361 83.44645
# Shear Modulus (GPa) = 30.27278 32.52958 31.40118
#
# Velocity S-wave (km/s) = 3.57246 3.70322 3.63843
# Velocity P-wave (km/s) = 6.87739 7.63951 7.26845
#
# Compressibility (1/GPa) = 0.01392190
#
# Stress axis : x y z
#
# Youngs Moduli (GPa) = 64.39854 64.39854 119.58087
#
# Poissons Ratio (x) = 0.18966 0.58616
# Poissons Ratio (y) = 0.18966 0.58616
# Poissons Ratio (z) = 0.31567 0.31567
#
# Static dielectric constant tensor:
#      x y z
#    x 1.927970 0.000000 0.000000 
#    y 0.000000 1.927970 0.000000 
#    z 0.000000 0.000000 2.004530 
# 
# From -- ./inp_files/5382.got.cif
#   From: 2010.05.17/outbox.cif.g08.bks.cpg/sg118_3_cif.got.tgz:5382.got - 2010.05.20 11:17:24.
