data_PCOD9558797
_publ_section_title
;
Structure prediction by ZEFSAII (Michael W. Deem and Ramdas Pophale) SiO2 
 PCOD9558797
Probable space group: P -4 N 2
;
_chemical_formula_sum "Si O2"
_cell_formula_units_Z 34
_cell_length_a 10.642232
_cell_length_b 10.642232
_cell_length_c 13.846386
_cell_angle_alpha 90.000000
_cell_angle_beta 90.000000
_cell_angle_gamma 90.000000
_cell_volume 1568.201551
_symmetry_space_group_name_H-M "P -4 N 2"
_symmetry_group_IT_number 118
_symmetry_cell_setting 'tetragonal'
loop_
_space_group_symop_operation_xyz
x,y,z
y,-x,-z
-x,-y,z
-y,x,-z
1/2+y,1/2+x,1/2-z
1/2-y,1/2-x,1/2-z
1/2-x,1/2+y,1/2+z
1/2+x,1/2-y,1/2+z
loop_
_atom_site_type_symbol
_atom_site_label
_atom_site_fract_x
_atom_site_fract_y
_atom_site_fract_z
Si Si1 0.430141 0.167211 0.073929
Si Si2 0.211145 0.514127 0.286688
Si Si3 0.391767 0.763859 0.895777
Si Si4 0.000000 0.500000 0.750000
Si Si5 0.303217 0.550661 0.478346
O O1 0.340334 0.287334 0.086674
O O2 0.329073 0.065160 0.032979
O O3 0.487694 0.116485 0.174430
O O4 0.531386 0.198824 0.991090
O O5 0.096192 0.596192 0.250000
O O6 0.286931 0.479138 0.191202
O O7 0.163174 0.390816 0.345346
O O8 0.284766 0.590136 0.367590
O O9 0.411064 0.640108 0.519860
#
# Coordination Sequence:
#
# PCOD9558797 Si02
#       5
#     8   8   8   2   8
#     4  12  26  48  70 106 144 191 237 306 373 440
#     4  11  21  41  76 102 130 191 243 290 352 437
#     4  11  24  44  73 101 140 182 248 294 363 440
#     4  12  28  44  76 106 154 190 236 304 392 446
#     4  11  24  44  71 106 146 186 243 306 368 441
#
# _framework density 21.680887999999999
#
# number of rings (size 3 to 8) (size 9 to 14) (size 15 to 20)
#    0.000    0.706    4.706    4.235    0.000    0.471 
#    6.353    0.000    0.000    0.000    0.000    0.000 
#    0.000    0.000    0.000    0.000    0.000    0.000 
#
# Total GULP energy -189835.820080 kJ/mol
# GULP energy per Si atom -5583.406473 kJ/mol
# Density = 2.163154 g / cm^3
# Si number density = 21.680888 Si / 1000 Ang^3
#
#
#
# Elastic Constant Matrix: (Units=GPa)
#
#
# Indices 1 2 3 4 5 6 
#
# 1 90.3879 54.8588 66.5576 0.0000 0.0000 0.0000
# 2 54.8588 90.3879 66.5576 0.0000 0.0000 0.0000
# 3 66.5576 66.5576 195.2519 0.0000 0.0000 0.0000
# 4 0.0000 0.0000 0.0000 13.2664 0.0000 0.0000
# 5 0.0000 0.0000 0.0000 0.0000 13.2664 0.0000
# 6 0.0000 0.0000 0.0000 0.0000 0.0000 32.3970
#
#
#
# Elastic Compliance Matrix: (Units=1/GPa)
#
#
# Indices 1 2 3 4 5 6 
#
# 1 0.019079 -0.009066 -0.003413 0.000000 0.000000 0.000000
# 2 -0.009066 0.019079 -0.003413 0.000000 0.000000 0.000000
# 3 -0.003413 -0.003413 0.007449 0.000000 0.000000 0.000000
# 4 0.000000 0.000000 0.000000 0.075378 0.000000 0.000000
# 5 0.000000 0.000000 0.000000 0.000000 0.075378 0.000000
# 6 0.000000 0.000000 0.000000 0.000000 0.000000 0.030867
#
#
# Mechanical properties :
#
#
# Convention : Reuss Voigt Hill
#
# Bulk Modulus (GPa) = 72.35031 83.55286 77.95159
# Shear Modulus (GPa) = 18.96641 24.32289 21.64465
#
# Velocity S-wave (km/s) = 2.96091 3.35305 3.16306
# Velocity P-wave (km/s) = 6.71806 7.32201 7.02653
#
# Compressibility (1/GPa) = 0.01382164
#
# Stress axis : x y z
#
# Youngs Moduli (GPa) = 52.41244 52.41244 134.25342
#
# Poissons Ratio (x) = 0.47519 0.45824
# Poissons Ratio (y) = 0.47519 0.45824
# Poissons Ratio (z) = 0.17890 0.17890
#
# Static dielectric constant tensor:
#      x y z
#    x 1.856270 0.000000 0.000000 
#    y 0.000000 1.856270 0.000000 
#    z 0.000000 0.000000 1.864960 
# 
# From -- ./inp_files/3025.got.cif
#   From: 2010.05.17/outbox.cif.g08.bks.cpg/sg118_2_cif.got.tgz:3025.got - 2010.05.20 11:17:24.
