data_PCOD9558100
_publ_section_title
;
Structure prediction by ZEFSAII (Michael W. Deem and Ramdas Pophale) SiO2 
 PCOD9558100
Probable space group: P -4 B 2
;
_chemical_formula_sum "Si O2"
_cell_formula_units_Z 56
_cell_length_a 11.890086
_cell_length_b 11.890086
_cell_length_c 19.588431
_cell_angle_alpha 90.000000
_cell_angle_beta 90.000000
_cell_angle_gamma 90.000000
_cell_volume 2769.297686
_symmetry_space_group_name_H-M "P -4 B 2"
_symmetry_group_IT_number 117
_symmetry_cell_setting 'tetragonal'
loop_
_space_group_symop_operation_xyz
x,y,z
y,-x,-z
-x,-y,z
-y,x,-z
1/2+y,1/2+x,-z
1/2-y,1/2-x,-z
1/2-x,1/2+y,z
1/2+x,1/2-y,z
loop_
_atom_site_type_symbol
_atom_site_label
_atom_site_fract_x
_atom_site_fract_y
_atom_site_fract_z
Si Si1 0.819312 0.957601 0.013470
Si Si2 0.991460 0.374445 0.094622
Si Si3 0.569209 0.108770 0.334303
Si Si4 0.721621 0.929120 0.545847
Si Si5 0.674560 0.179594 0.801241
Si Si6 0.729020 0.921176 0.166545
Si Si7 0.758244 0.601966 0.445879
O O1 0.781981 0.932235 0.090555
O O2 0.917501 0.872345 0.990850
O O3 0.716226 0.952701 0.960641
O O4 0.106703 0.335031 0.129466
O O5 0.000000 0.500000 0.066836
O O6 0.901918 0.394096 0.154827
O O7 0.497031 0.180950 0.388379
O O8 0.606265 0.172527 0.267236
O O9 0.677746 0.068681 0.377669
O O10 0.500000 0.000000 0.314064
O O11 0.618264 0.881736 0.500000
O O12 0.798133 0.826423 0.569018
O O13 0.791356 0.000961 0.490169
O O14 0.801588 0.230252 0.801985
O O15 0.548606 0.241591 0.801082
O O16 0.848914 0.651087 0.500000
#
# Coordination Sequence:
#
# PCOD9558100 Si02
#       7
#     8   8   8   8   8   8   8
#     4  11  22  39  67  97 127 172 216 277 350 401
#     4  10  22  41  64  94 124 165 221 272 327 404
#     4  11  21  38  66  92 125 178 227 272 332 410
#     4  10  19  38  62  95 129 164 221 279 331 393
#     4  11  25  43  64  96 133 178 226 275 348 420
#     4  11  23  43  65  94 136 170 220 288 335 417
#     4   9  20  34  61  94 123 164 211 272 328 390
#
# _framework density 20.221733
#
# number of rings (size 3 to 8) (size 9 to 14) (size 15 to 20)
#    0.000    1.571    2.857    2.571    0.000    6.571 
#    2.571    0.000    0.000    0.000    0.000    0.000 
#    0.000    0.000    0.000    0.000    0.000    0.000 
#
# Total GULP energy -312031.783820 kJ/mol
# GULP energy per Si atom -5571.996140 kJ/mol
# Density = 2.017571 g / cm^3
# Si number density = 20.221733 Si / 1000 Ang^3
#
#
#
# Elastic Constant Matrix: (Units=GPa)
#
#
# Indices 1 2 3 4 5 6 
#
# 1 89.3893 40.7098 38.1307 0.0000 0.0000 0.0000
# 2 40.7098 89.3886 38.1308 0.0000 0.0000 0.0000
# 3 38.1307 38.1308 93.5356 0.0000 0.0000 0.0000
# 4 0.0000 0.0000 0.0000 22.6654 0.0000 0.0000
# 5 0.0000 0.0000 0.0000 0.0000 22.6654 0.0000
# 6 0.0000 0.0000 0.0000 0.0000 0.0000 32.0737
#
#
#
# Elastic Compliance Matrix: (Units=1/GPa)
#
#
# Indices 1 2 3 4 5 6 
#
# 1 0.015321 -0.005221 -0.004117 0.000000 0.000000 0.000000
# 2 -0.005221 0.015321 -0.004117 0.000000 0.000000 0.000000
# 3 -0.004117 -0.004117 0.014048 0.000000 0.000000 0.000000
# 4 0.000000 0.000000 0.000000 0.044120 0.000000 0.000000
# 5 0.000000 0.000000 0.000000 0.000000 0.044120 0.000000
# 6 0.000000 0.000000 0.000000 0.000000 0.000000 0.031178
#
#
# Mechanical properties :
#
#
# Convention : Reuss Voigt Hill
#
# Bulk Modulus (GPa) = 56.24738 56.25069 56.24903
# Shear Modulus (GPa) = 25.38749 25.83706 25.61228
#
# Velocity S-wave (km/s) = 3.54709 3.57835 3.56275
# Velocity P-wave (km/s) = 6.68217 6.70449 6.69334
#
# Compressibility (1/GPa) = 0.01777861
#
# Stress axis : x y z
#
# Youngs Moduli (GPa) = 65.26883 65.26809 71.18404
#
# Poissons Ratio (x) = 0.34079 0.29309
# Poissons Ratio (y) = 0.34079 0.29309
# Poissons Ratio (z) = 0.26873 0.26874
#
# Static dielectric constant tensor:
#      x y z
#    x 1.792540 0.000000 0.000000 
#    y 0.000000 1.792540 0.000000 
#    z 0.000000 0.000000 1.695380 
# 
# From -- ./inp_files/3476.got.cif
#   From: 2010.05.17/outbox.cif.g08.bks.cpg/sg117_2_cif.got.tgz:3476.got - 2010.05.20 11:15:09.
