data_PCOD9558297
_publ_section_title
;
Structure prediction by ZEFSAII (Michael W. Deem and Ramdas Pophale) SiO2 
 PCOD9558297
Probable space group: P -4 B 2
;
_chemical_formula_sum "Si O2"
_cell_formula_units_Z 36
_cell_length_a 9.082034
_cell_length_b 9.082034
_cell_length_c 18.500585
_cell_angle_alpha 90.000000
_cell_angle_beta 90.000000
_cell_angle_gamma 90.000000
_cell_volume 1525.990072
_symmetry_space_group_name_H-M "P -4 B 2"
_symmetry_group_IT_number 117
_symmetry_cell_setting 'tetragonal'
loop_
_space_group_symop_operation_xyz
x,y,z
y,-x,-z
-x,-y,z
-y,x,-z
1/2+y,1/2+x,-z
1/2-y,1/2-x,-z
1/2-x,1/2+y,z
1/2+x,1/2-y,z
loop_
_atom_site_type_symbol
_atom_site_label
_atom_site_fract_x
_atom_site_fract_y
_atom_site_fract_z
Si Si1 0.052240 0.277724 0.745004
Si Si2 0.777576 0.722424 0.000000
Si Si3 0.549005 0.723193 0.473624
Si Si4 0.277314 0.050616 0.690795
Si Si5 0.675037 0.966071 0.093723
O O1 0.132185 0.131841 0.718439
O O2 0.169146 0.411927 0.737298
O O3 0.004420 0.265536 0.827801
O O4 0.912425 0.332415 0.697974
O O5 0.761068 0.554968 0.025104
O O6 0.722882 0.804290 0.071481
O O7 0.667319 0.589469 0.479832
O O8 0.630829 0.869172 0.500000
O O9 0.502856 0.750086 0.391291
O O10 0.500000 0.000000 0.095538
#
# Coordination Sequence:
#
# PCOD9558297 Si02
#       5
#     8   4   8   8   8
#     4  11  25  44  71 100 138 182 232 286 345 417
#     4  12  24  44  72  94 144 182 224 294 346 418
#     4  11  24  42  66 100 140 177 228 284 339 413
#     4  11  23  44  69 100 137 184 229 286 348 407
#     4  12  24  47  67 103 142 178 233 289 348 412
#
# _framework density 23.591239999999999
#
# number of rings (size 3 to 8) (size 9 to 14) (size 15 to 20)
#    0.000    0.667    4.444    4.000    0.000    5.333 
#    0.000    2.222    0.000    0.000    0.000    0.000 
#    0.000    0.000    0.000    0.000    0.000    0.000 
#
# Total GULP energy -201489.114856 kJ/mol
# GULP energy per Si atom -5596.919857 kJ/mol
# Density = 2.353754 g / cm^3
# Si number density = 23.591240 Si / 1000 Ang^3
#
#
#
# Elastic Constant Matrix: (Units=GPa)
#
#
# Indices 1 2 3 4 5 6 
#
# 1 34.7654 25.8610 5.1730 0.0000 0.0000 0.0000
# 2 25.8610 34.7629 5.1743 0.0000 0.0000 0.0000
# 3 5.1730 5.1743 112.5730 0.0000 0.0000 0.0000
# 4 0.0000 0.0000 0.0000 12.7677 0.0000 0.0000
# 5 0.0000 0.0000 0.0000 0.0000 12.7685 0.0000
# 6 0.0000 0.0000 0.0000 0.0000 0.0000 52.9247
#
#
#
# Elastic Compliance Matrix: (Units=1/GPa)
#
#
# Indices 1 2 3 4 5 6 
#
# 1 0.064470 -0.047847 -0.000763 0.000000 0.000000 0.000000
# 2 -0.047847 0.064475 -0.000765 0.000000 0.000000 0.000000
# 3 -0.000763 -0.000765 0.008953 0.000000 0.000000 0.000000
# 4 0.000000 0.000000 0.000000 0.078323 0.000000 0.000000
# 5 0.000000 0.000000 0.000000 0.000000 0.078318 0.000000
# 6 0.000000 0.000000 0.000000 0.000000 0.000000 0.018895
#
#
# Mechanical properties :
#
#
# Convention : Reuss Voigt Hill
#
# Bulk Modulus (GPa) = 25.54440 28.27976 26.91208
# Shear Modulus (GPa) = 11.75825 25.41838 18.58831
#
# Velocity S-wave (km/s) = 2.23494 3.28601 2.81006
# Velocity P-wave (km/s) = 4.18466 5.13913 4.68626
#
# Compressibility (1/GPa) = 0.03914753
#
# Stress axis : x y z
#
# Youngs Moduli (GPa) = 15.51107 15.50990 111.69001
#
# Poissons Ratio (x) = 0.74211 0.08525
# Poissons Ratio (y) = 0.74216 0.08542
# Poissons Ratio (z) = 0.01184 0.01186
#
# Static dielectric constant tensor:
#      x y z
#    x 1.901130 0.000000 0.000000 
#    y 0.000000 1.901130 0.000000 
#    z 0.000000 0.000000 1.806860 
# 
# From -- ./inp_files/3436.got.cif
#   From: 2010.05.17/outbox.cif.g08.bks.cpg/sg117_2_cif.got.tgz:3436.got - 2010.05.20 11:15:09.
