data_PCOD9558432
_publ_section_title
;
Structure prediction by ZEFSAII (Michael W. Deem and Ramdas Pophale) SiO2 
 PCOD9558432
Probable space group: P -4 N 2
;
_chemical_formula_sum "Si O2"
_cell_formula_units_Z 48
_cell_length_a 8.294143
_cell_length_b 8.294143
_cell_length_c 35.898742
_cell_angle_alpha 90.000000
_cell_angle_beta 90.000000
_cell_angle_gamma 90.000000
_cell_volume 2469.575270
_symmetry_space_group_name_H-M "P -4 N 2"
_symmetry_group_IT_number 118
_symmetry_cell_setting 'tetragonal'
loop_
_space_group_symop_operation_xyz
x,y,z
y,-x,-z
-x,-y,z
-y,x,-z
1/2+y,1/2+x,1/2-z
1/2-y,1/2-x,1/2-z
1/2-x,1/2+y,1/2+z
1/2+x,1/2-y,1/2+z
loop_
_atom_site_type_symbol
_atom_site_label
_atom_site_fract_x
_atom_site_fract_y
_atom_site_fract_z
Si Si1 0.000000 0.000000 0.280394
Si Si2 0.721639 0.221639 0.750000
Si Si3 0.596711 0.251956 0.007106
Si Si4 0.000000 0.500000 0.451022
Si Si5 0.000000 0.000000 0.876950
Si Si6 0.245052 0.238056 0.915533
Si Si7 0.789386 0.595382 0.332214
Si Si8 0.090364 0.767865 0.344985
O O1 0.858407 0.900778 0.258557
O O2 0.090218 0.876816 0.308427
O O3 0.633696 0.185892 0.711133
O O4 0.656051 0.208502 0.048331
O O5 0.409189 0.304481 0.006179
O O6 0.611956 0.106971 0.978078
O O7 0.108700 0.618400 0.426805
O O8 0.101547 0.122863 0.902151
O O9 0.886421 0.104243 0.849673
O O10 0.313272 0.336590 0.880101
O O11 0.836496 0.409018 0.337499
O O12 0.905093 0.721297 0.353280
#
# Coordination Sequence:
#
# PCOD9558432 Si02
#       8
#     4   4   8   4   4   8   8   8
#     4  10  21  34  58  88 113 145 194 237 281 340
#     4  10  20  37  60  83 114 152 184 237 286 323
#     4   9  20  37  56  80 109 142 184 230 279 338
#     4  10  20  36  56  80 106 143 194 229 266 336
#     4  10  19  32  55  84 110 137 180 231 278 330
#     4  10  20  36  57  79 111 148 178 227 282 322
#     4   9  18  34  56  80 108 145 191 225 266 338
#     4   9  19  35  55  82 107 143 191 228 266 334
#
# _framework density 19.436541999999999
#
# number of rings (size 3 to 8) (size 9 to 14) (size 15 to 20)
#    0.000    2.500    0.000    2.500    0.000   10.667 
#    0.000    5.000    0.000   34.000    0.000    0.000 
#    0.000    0.000    0.000    0.000    0.000    0.000 
#
# Total GULP energy -267210.388839 kJ/mol
# GULP energy per Si atom -5566.883101 kJ/mol
# Density = 1.939230 g / cm^3
# Si number density = 19.436542 Si / 1000 Ang^3
#
#
#
# Elastic Constant Matrix: (Units=GPa)
#
#
# Indices 1 2 3 4 5 6 
#
# 1 56.7453 12.9039 34.2550 0.0000 0.0000 0.0000
# 2 12.9039 56.7453 34.2550 0.0000 0.0000 0.0000
# 3 34.2550 34.2550 111.5601 0.0000 0.0000 0.0000
# 4 0.0000 0.0000 0.0000 7.0649 0.0000 0.0000
# 5 0.0000 0.0000 0.0000 0.0000 7.0649 0.0000
# 6 0.0000 0.0000 0.0000 0.0000 0.0000 17.7273
#
#
#
# Elastic Compliance Matrix: (Units=1/GPa)
#
#
# Indices 1 2 3 4 5 6 
#
# 1 0.021690 -0.001119 -0.006316 0.000000 0.000000 0.000000
# 2 -0.001119 0.021690 -0.006316 0.000000 0.000000 0.000000
# 3 -0.006316 -0.006316 0.012843 0.000000 0.000000 0.000000
# 4 0.000000 0.000000 0.000000 0.141544 0.000000 0.000000
# 5 0.000000 0.000000 0.000000 0.000000 0.141544 0.000000
# 6 0.000000 0.000000 0.000000 0.000000 0.000000 0.056410
#
#
# Mechanical properties :
#
#
# Convention : Reuss Voigt Hill
#
# Bulk Modulus (GPa) = 34.82043 43.09761 38.95902
# Shear Modulus (GPa) = 11.55273 15.94722 13.74997
#
# Velocity S-wave (km/s) = 2.44064 2.86750 2.66264
# Velocity P-wave (km/s) = 5.08882 5.76065 5.43513
#
# Compressibility (1/GPa) = 0.02871877
#
# Stress axis : x y z
#
# Youngs Moduli (GPa) = 46.10407 46.10407 77.86543
#
# Poissons Ratio (x) = 0.05161 0.49182
# Poissons Ratio (y) = 0.05161 0.49182
# Poissons Ratio (z) = 0.29121 0.29121
#
# Static dielectric constant tensor:
#      x y z
#    x 1.709890 0.000000 0.000000 
#    y 0.000000 1.709890 0.000000 
#    z 0.000000 0.000000 1.691270 
# 
# From -- ./inp_files/6944.got.cif
#   From: 2010.05.17/outbox.cif.g08.bks.cpg/sg118_4_cif.got.tgz:6944.got - 2010.05.20 11:17:24.
