data_PCOD9558981
_publ_section_title
;
Structure prediction by ZEFSAII (Michael W. Deem and Ramdas Pophale) SiO2 
 PCOD9558981
Probable space group: I -4 M 2
;
_chemical_formula_sum "Si O2"
_cell_formula_units_Z 96
_cell_length_a 15.269588
_cell_length_b 15.269588
_cell_length_c 24.725541
_cell_angle_alpha 90.000000
_cell_angle_beta 90.000000
_cell_angle_gamma 90.000000
_cell_volume 5765.014995
_symmetry_space_group_name_H-M "I -4 M 2"
_symmetry_group_IT_number 119
_symmetry_cell_setting 'tetragonal'
loop_
_space_group_symop_operation_xyz
x,y,z
y,-x,-z
-x,-y,z
-y,x,-z
y,x,-z
-y,-x,-z
-x,y,z
x,-y,z
1/2+x,1/2+y,1/2+z
1/2+y,1/2-x,1/2-z
1/2-x,1/2-y,1/2+z
1/2-y,1/2+x,1/2-z
1/2+y,1/2+x,1/2-z
1/2-y,1/2-x,1/2-z
1/2-x,1/2+y,1/2+z
1/2+x,1/2-y,1/2+z
loop_
_atom_site_type_symbol
_atom_site_label
_atom_site_fract_x
_atom_site_fract_y
_atom_site_fract_z
Si Si1 0.602988 0.307508 0.233035
Si Si2 0.097550 0.339772 0.193737
Si Si3 0.895674 0.000000 0.762392
Si Si4 0.710367 0.666947 0.438787
Si Si5 0.704637 0.246498 0.330657
Si Si6 0.601965 0.095094 0.576568
Si Si7 0.500000 0.604571 0.607380
O O1 0.500000 0.306287 0.221632
O O2 0.636177 0.408432 0.237145
O O3 0.621764 0.264306 0.291965
O O4 0.659568 0.253357 0.189822
O O5 0.112683 0.387318 0.250000
O O6 0.173065 0.268921 0.185063
O O7 0.102981 0.401914 0.141847
O O8 0.000000 0.300393 0.193266
O O9 0.888847 0.000000 0.827466
O O10 0.000000 0.000000 0.752030
O O11 0.683736 0.683736 0.500000
O O12 0.690949 0.743016 0.394605
O O13 0.814809 0.648630 0.439388
O O14 0.655865 0.583944 0.415972
O O15 0.500000 0.101627 0.559947
O O16 0.636389 0.000000 0.558325
O O17 0.500000 0.500000 0.593939
#
# Coordination Sequence:
#
# PCOD9558981 Si02
#       7
#    16  16   8  16  16  16   8
#     4  10  19  34  55  80 110 144 182 228 281 336
#     4  10  18  27  45  75 112 142 172 203 254 329
#     4   9  18  32  54  83 117 153 181 217 280 350
#     4  11  23  37  54  79 115 150 198 234 278 337
#     4  10  21  35  51  78 106 146 183 230 279 324
#     4   9  18  33  50  71 103 145 184 223 265 316
#     4  11  22  34  53  87 125 159 186 223 281 350
#
# _framework density 16.652168
#
# number of rings (size 3 to 8) (size 9 to 14) (size 15 to 20)
#    0.000    2.000    4.167    0.500    3.500    0.833 
#    6.000    0.833    0.000    4.000    0.000    0.000 
#    0.000    0.000    0.000    0.000    0.000    0.000 
#
# Total GULP energy -267503.770748 kJ/mol
# GULP energy per Si atom -5572.995224 kJ/mol
# Density = 1.661427 g / cm^3
# Si number density = 16.652168 Si / 1000 Ang^3
#
#
#
# Elastic Constant Matrix: (Units=GPa)
#
#
# Indices 1 2 3 4 5 6 
#
# 1 77.7618 20.1139 15.7827 0.0000 0.0000 0.0000
# 2 20.1139 77.7617 15.7827 0.0000 0.0000 0.0000
# 3 15.7827 15.7827 78.0611 0.0000 0.0000 0.0000
# 4 0.0000 0.0000 0.0000 10.3593 0.0000 0.0000
# 5 0.0000 0.0000 0.0000 0.0000 10.3590 0.0000
# 6 0.0000 0.0000 0.0000 0.0000 0.0000 16.8642
#
#
#
# Elastic Compliance Matrix: (Units=1/GPa)
#
#
# Indices 1 2 3 4 5 6 
#
# 1 0.014138 -0.003208 -0.002210 0.000000 0.000000 0.000000
# 2 -0.003208 0.014138 -0.002210 0.000000 0.000000 0.000000
# 3 -0.002210 -0.002210 0.013704 0.000000 0.000000 0.000000
# 4 0.000000 0.000000 0.000000 0.096531 0.000000 0.000000
# 5 0.000000 0.000000 0.000000 0.000000 0.096534 0.000000
# 6 0.000000 0.000000 0.000000 0.000000 0.000000 0.059297
#
#
# Mechanical properties :
#
#
# Convention : Reuss Voigt Hill
#
# Bulk Modulus (GPa) = 37.41920 37.43812 37.42866
# Shear Modulus (GPa) = 15.69821 19.64352 17.67086
#
# Velocity S-wave (km/s) = 3.07369 3.43831 3.26110
# Velocity P-wave (km/s) = 5.92593 6.18820 6.05849
#
# Compressibility (1/GPa) = 0.02672425
#
# Stress axis : x y z
#
# Youngs Moduli (GPa) = 70.73031 70.73025 72.97105
#
# Poissons Ratio (x) = 0.22694 0.16125
# Poissons Ratio (y) = 0.22694 0.16125
# Poissons Ratio (z) = 0.15630 0.15630
#
# Static dielectric constant tensor:
#      x y z
#    x 1.589330 0.000000 0.000000 
#    y 0.000000 1.589330 0.000000 
#    z 0.000000 0.000000 1.564730 
# 
# From -- ./inp_files/8774.got.cif
#   From: 2010.05.17/outbox.cif.g08.bks.cpg/sg119_5_cif.got.tgz:8774.got - 2010.05.20 11:21:29.
