data_PCOD9558765
_publ_section_title
;
Structure prediction by ZEFSAII (Michael W. Deem and Ramdas Pophale) SiO2 
 PCOD9558765
Probable space group: P -4 N 2
;
_chemical_formula_sum "Si O2"
_cell_formula_units_Z 64
_cell_length_a 11.712108
_cell_length_b 11.712108
_cell_length_c 24.966653
_cell_angle_alpha 90.000000
_cell_angle_beta 90.000000
_cell_angle_gamma 90.000000
_cell_volume 3424.762521
_symmetry_space_group_name_H-M "P -4 N 2"
_symmetry_group_IT_number 118
_symmetry_cell_setting 'tetragonal'
loop_
_space_group_symop_operation_xyz
x,y,z
y,-x,-z
-x,-y,z
-y,x,-z
1/2+y,1/2+x,1/2-z
1/2-y,1/2-x,1/2-z
1/2-x,1/2+y,1/2+z
1/2+x,1/2-y,1/2+z
loop_
_atom_site_type_symbol
_atom_site_label
_atom_site_fract_x
_atom_site_fract_y
_atom_site_fract_z
Si Si1 0.686611 0.205123 0.587574
Si Si2 0.415828 0.181163 0.591908
Si Si3 0.531462 0.767092 0.967834
Si Si4 0.377794 0.356360 0.506009
Si Si5 0.130498 0.958511 0.432457
Si Si6 0.475405 0.634654 0.191930
Si Si7 0.106255 0.717513 0.300784
Si Si8 0.663204 0.277054 0.799464
O O1 0.551492 0.189394 0.599799
O O2 0.696149 0.299701 0.540938
O O3 0.746686 0.224057 0.644458
O O4 0.737047 0.088919 0.562590
O O5 0.387638 0.086829 0.546207
O O6 0.371112 0.296340 0.563658
O O7 0.349728 0.148132 0.646199
O O8 0.618749 0.675837 0.942465
O O9 0.511507 0.722417 0.027563
O O10 0.347329 0.489500 0.510200
O O11 0.156682 0.982646 0.371463
O O12 0.000000 0.000000 0.442915
O O13 0.500000 0.500000 0.200021
O O14 0.344826 0.659973 0.207580
O O15 0.590674 0.687293 0.215529
O O16 0.139908 0.639908 0.250000
O O17 0.971440 0.746074 0.307543
O O18 0.702905 0.202905 0.750000
#
# Coordination Sequence:
#
# PCOD9558765 Si02
#       8
#     8   8   8   8   8   8   8   8
#     4  11  22  36  57  85 119 155 185 237 294 338
#     4  11  22  36  56  87 119 150 191 235 292 345
#     4  12  19  30  53  86 122 147 184 228 286 347
#     4   9  21  41  59  80 113 156 200 234 276 342
#     4  11  19  29  51  84 115 153 187 225 277 333
#     4   9  20  38  56  86 113 145 194 237 274 335
#     4  11  22  39  62  85 115 150 189 239 288 337
#     4  11  23  39  60  85 117 149 190 237 288 341
#
# _framework density 18.687425999999999
#
# number of rings (size 3 to 8) (size 9 to 14) (size 15 to 20)
#    0.000    1.375    3.750    3.375    1.750    1.250 
#    2.250    0.000    0.000    0.375    0.000    0.000 
#    0.000    0.000    0.000    0.000    0.000    0.000 
#
# Total GULP energy -356880.746477 kJ/mol
# GULP energy per Si atom -5576.261664 kJ/mol
# Density = 1.864489 g / cm^3
# Si number density = 18.687426 Si / 1000 Ang^3
#
#
#
# Elastic Constant Matrix: (Units=GPa)
#
#
# Indices 1 2 3 4 5 6 
#
# 1 123.5547 -47.0165 11.4317 0.0000 0.0000 0.0000
# 2 -47.0165 123.5547 11.4317 0.0000 0.0000 0.0000
# 3 11.4317 11.4317 32.6463 0.0000 0.0000 0.0000
# 4 0.0000 0.0000 0.0000 21.2081 0.0000 0.0000
# 5 0.0000 0.0000 0.0000 0.0000 21.2081 0.0000
# 6 0.0000 0.0000 0.0000 0.0000 0.0000 29.8564
#
#
#
# Elastic Compliance Matrix: (Units=1/GPa)
#
#
# Indices 1 2 3 4 5 6 
#
# 1 0.010227 0.004365 -0.005110 0.000000 0.000000 0.000000
# 2 0.004365 0.010227 -0.005110 0.000000 0.000000 0.000000
# 3 -0.005110 -0.005110 0.034210 0.000000 0.000000 0.000000
# 4 0.000000 0.000000 0.000000 0.047152 0.000000 0.000000
# 5 0.000000 0.000000 0.000000 0.000000 0.047152 0.000000
# 6 0.000000 0.000000 0.000000 0.000000 0.000000 0.033494
#
#
# Mechanical properties :
#
#
# Convention : Reuss Voigt Hill
#
# Bulk Modulus (GPa) = 23.28021 25.71661 24.49841
# Shear Modulus (GPa) = 23.98209 34.71509 29.34859
#
# Velocity S-wave (km/s) = 3.58624 4.31475 3.96725
# Velocity P-wave (km/s) = 5.44361 6.21402 5.84153
#
# Compressibility (1/GPa) = 0.04295493
#
# Stress axis : x y z
#
# Youngs Moduli (GPa) = 97.77876 97.77876 29.23146
#
# Poissons Ratio (x) = -0.42676 0.14936
# Poissons Ratio (y) = -0.42676 0.14936
# Poissons Ratio (z) = 0.49960 0.49960
#
# Static dielectric constant tensor:
#      x y z
#    x 1.700520 0.000000 0.000000 
#    y 0.000000 1.700520 0.000000 
#    z 0.000000 0.000000 1.584200 
# 
# From -- ./inp_files/6264.got.cif
#   From: 2010.05.17/outbox.cif.g08.bks.cpg/sg118_4_cif.got.tgz:6264.got - 2010.05.20 11:17:24.
