data_PCOD9558457
_publ_section_title
;
Structure prediction by ZEFSAII (Michael W. Deem and Ramdas Pophale) SiO2 
 PCOD9558457
Probable space group: P -4 N 2
;
_chemical_formula_sum "Si O2"
_cell_formula_units_Z 56
_cell_length_a 14.203744
_cell_length_b 14.203744
_cell_length_c 14.672400
_cell_angle_alpha 90.000000
_cell_angle_beta 90.000000
_cell_angle_gamma 90.000000
_cell_volume 2960.103052
_symmetry_space_group_name_H-M "P -4 N 2"
_symmetry_group_IT_number 118
_symmetry_cell_setting 'tetragonal'
loop_
_space_group_symop_operation_xyz
x,y,z
y,-x,-z
-x,-y,z
-y,x,-z
1/2+y,1/2+x,1/2-z
1/2-y,1/2-x,1/2-z
1/2-x,1/2+y,1/2+z
1/2+x,1/2-y,1/2+z
loop_
_atom_site_type_symbol
_atom_site_label
_atom_site_fract_x
_atom_site_fract_y
_atom_site_fract_z
Si Si1 0.953878 0.103097 0.723331
Si Si2 0.406133 0.384117 0.030688
Si Si3 0.682905 0.356772 0.447297
Si Si4 0.370125 0.726731 0.256174
Si Si5 0.438847 0.680297 0.613366
Si Si6 0.500114 0.158356 0.758204
Si Si7 0.230248 0.631817 0.110199
O O1 0.885800 0.117308 0.637445
O O2 0.901302 0.094494 0.818585
O O3 0.029993 0.186980 0.723589
O O4 0.000000 0.000000 0.707114
O O5 0.378176 0.481206 0.983009
O O6 0.365817 0.299047 0.975053
O O7 0.636928 0.305703 0.360389
O O8 0.655594 0.466539 0.442816
O O9 0.644081 0.308294 0.539014
O O10 0.794147 0.348394 0.422946
O O11 0.335050 0.835050 0.250000
O O12 0.292228 0.671894 0.194786
O O13 0.472872 0.763576 0.682619
O O14 0.403073 0.096928 0.750000
O O15 0.473089 0.202737 0.856637
O O16 0.583336 0.083336 0.750000
#
# Coordination Sequence:
#
# PCOD9558457 Si02
#       7
#     8   8   8   8   8   8   8
#     4  12  20  35  55  86 123 161 203 268 330 386
#     4  11  20  32  56  88 118 153 201 259 321 380
#     4  11  23  36  60  88 122 167 205 266 327 387
#     4  10  19  36  58  81 119 166 207 250 324 403
#     4  12  24  38  59  94 130 161 213 272 333 390
#     4  11  22  42  68  90 125 172 213 259 325 401
#     4  11  20  41  62  84 126 164 210 263 320 398
#
# _framework density 18.91826
#
# number of rings (size 3 to 8) (size 9 to 14) (size 15 to 20)
#    0.000    0.857    7.143    2.143    0.000    2.286 
#    0.000    0.000    0.000    0.000    0.000    0.000 
#    0.000    1.143    0.000    0.000    0.000    0.000 
#
# Total GULP energy -311877.213763 kJ/mol
# GULP energy per Si atom -5569.235960 kJ/mol
# Density = 1.887520 g / cm^3
# Si number density = 18.918260 Si / 1000 Ang^3
#
#
#
# Elastic Constant Matrix: (Units=GPa)
#
#
# Indices 1 2 3 4 5 6 
#
# 1 209.6615 -115.8284 23.7948 0.0000 0.0000 0.0000
# 2 -115.8284 209.6569 23.7914 0.0000 0.0000 0.0000
# 3 23.7948 23.7914 106.9903 0.0000 0.0000 0.0000
# 4 0.0000 0.0000 0.0000 24.3723 0.0000 0.0000
# 5 0.0000 0.0000 0.0000 0.0000 24.3725 0.0000
# 6 0.0000 0.0000 0.0000 0.0000 0.0000 28.0349
#
#
#
# Elastic Compliance Matrix: (Units=1/GPa)
#
#
# Indices 1 2 3 4 5 6 
#
# 1 0.007542 0.004470 -0.002671 0.000000 0.000000 0.000000
# 2 0.004470 0.007542 -0.002671 0.000000 0.000000 0.000000
# 3 -0.002671 -0.002671 0.010535 0.000000 0.000000 0.000000
# 4 0.000000 0.000000 0.000000 0.041030 0.000000 0.000000
# 5 0.000000 0.000000 0.000000 0.000000 0.041030 0.000000
# 6 0.000000 0.000000 0.000000 0.000000 0.000000 0.035670
#
#
# Mechanical properties :
#
#
# Convention : Reuss Voigt Hill
#
# Bulk Modulus (GPa) = 41.88680 43.31383 42.60032
# Shear Modulus (GPa) = 32.66853 54.99268 43.83060
#
# Velocity S-wave (km/s) = 4.16002 5.39738 4.81858
# Velocity P-wave (km/s) = 6.72780 7.86048 7.31610
#
# Compressibility (1/GPa) = 0.02387387
#
# Stress axis : x y z
#
# Youngs Moduli (GPa) = 132.58687 132.58489 94.92361
#
# Poissons Ratio (x) = -0.59265 0.25358
# Poissons Ratio (y) = -0.59266 0.25357
# Poissons Ratio (z) = 0.35419 0.35418
#
# Static dielectric constant tensor:
#      x y z
#    x 1.698410 0.000000 0.000000 
#    y 0.000000 1.698410 0.000000 
#    z 0.000000 0.000000 0.976380 
# 
# From -- ./inp_files/3435.got.cif
#   From: 2010.05.17/outbox.cif.g08.bks.cpg/sg118_2_cif.got.tgz:3435.got - 2010.05.20 11:17:24.
