data_PCOD9558850
_publ_section_title
;
Structure prediction by ZEFSAII (Michael W. Deem and Ramdas Pophale) SiO2 
 PCOD9558850
Probable space group: P -4 N 2
;
_chemical_formula_sum "Si O2"
_cell_formula_units_Z 18
_cell_length_a 8.459492
_cell_length_b 8.459492
_cell_length_c 10.834245
_cell_angle_alpha 90.000000
_cell_angle_beta 90.000000
_cell_angle_gamma 90.000000
_cell_volume 775.331128
_symmetry_space_group_name_H-M "P -4 N 2"
_symmetry_group_IT_number 118
_symmetry_cell_setting 'tetragonal'
loop_
_space_group_symop_operation_xyz
x,y,z
y,-x,-z
-x,-y,z
-y,x,-z
1/2+y,1/2+x,1/2-z
1/2-y,1/2-x,1/2-z
1/2-x,1/2+y,1/2+z
1/2+x,1/2-y,1/2+z
loop_
_atom_site_type_symbol
_atom_site_label
_atom_site_fract_x
_atom_site_fract_y
_atom_site_fract_z
Si Si1 0.223879 0.708078 0.376074
Si Si2 0.057655 0.679398 0.634394
Si Si3 0.000000 0.000000 0.000000
O O1 0.143900 0.643900 0.250000
O O2 0.129042 0.718026 0.503310
O O3 0.380720 0.609342 0.418100
O O4 0.234198 0.894141 0.340170
O O5 0.178044 0.678044 0.750000
O O6 0.000000 0.500000 0.621781
#
# Coordination Sequence:
#
# PCOD9558850 Si02
#       3
#     8   8   2
#     4  12  25  44  72 102 135 185 233 282 345 416
#     4  11  23  47  68  97 147 179 220 294 346 395
#     4  12  24  44  72  98 136 192 224 282 364 404
#
# _framework density 23.215888
#
# number of rings (size 3 to 8) (size 9 to 14) (size 15 to 20)
#    0.000    0.444    8.889    0.000    0.000    8.889 
#    0.000    0.000    0.000    0.000    0.000    0.000 
#    0.000    0.000    0.000    0.000    0.000    0.000 
#
# Total GULP energy -100283.302841 kJ/mol
# GULP energy per Si atom -5571.294602 kJ/mol
# Density = 2.316305 g / cm^3
# Si number density = 23.215888 Si / 1000 Ang^3
#
#
#
# Elastic Constant Matrix: (Units=GPa)
#
#
# Indices 1 2 3 4 5 6 
#
# 1 43.1039 24.2391 47.1102 0.0000 0.0000 0.0000
# 2 24.2391 43.1039 47.1102 0.0000 0.0000 0.0000
# 3 47.1102 47.1102 261.4664 0.0000 0.0000 0.0000
# 4 0.0000 0.0000 0.0000 44.6640 0.0000 0.0000
# 5 0.0000 0.0000 0.0000 0.0000 44.6640 0.0000
# 6 0.0000 0.0000 0.0000 0.0000 0.0000 20.1998
#
#
#
# Elastic Compliance Matrix: (Units=1/GPa)
#
#
# Indices 1 2 3 4 5 6 
#
# 1 0.036432 -0.016577 -0.003577 0.000000 0.000000 0.000000
# 2 -0.016577 0.036432 -0.003577 0.000000 0.000000 0.000000
# 3 -0.003577 -0.003577 0.005114 0.000000 0.000000 0.000000
# 4 0.000000 0.000000 0.000000 0.022389 0.000000 0.000000
# 5 0.000000 0.000000 0.000000 0.000000 0.022389 0.000000
# 6 0.000000 0.000000 0.000000 0.000000 0.000000 0.049505
#
#
# Mechanical properties :
#
#
# Convention : Reuss Voigt Hill
#
# Bulk Modulus (GPa) = 32.77263 64.95479 48.86371
# Shear Modulus (GPa) = 21.74901 37.18657 29.46779
#
# Velocity S-wave (km/s) = 3.06406 4.00656 3.56658
# Velocity P-wave (km/s) = 5.16383 7.03155 6.16878
#
# Compressibility (1/GPa) = 0.03051326
#
# Stress axis : x y z
#
# Youngs Moduli (GPa) = 27.44873 27.44873 195.55404
#
# Poissons Ratio (x) = 0.45502 0.69956
# Poissons Ratio (y) = 0.45502 0.69956
# Poissons Ratio (z) = 0.09819 0.09819
#
# Static dielectric constant tensor:
#      x y z
#    x 1.920430 0.000000 0.000000 
#    y 0.000000 1.920430 0.000000 
#    z 0.000000 0.000000 2.037180 
# 
# From -- ./inp_files/2397.got.cif
#   From: 2010.05.17/outbox.cif.g08.bks.cpg/sg118_2_cif.got.tgz:2397.got - 2010.05.20 11:17:24.
