data_PCOD9558654
_publ_section_title
;
Structure prediction by ZEFSAII (Michael W. Deem and Ramdas Pophale) SiO2 
 PCOD9558654
Probable space group: P -4 N 2
;
_chemical_formula_sum "Si O2"
_cell_formula_units_Z 26
_cell_length_a 7.541241
_cell_length_b 7.541241
_cell_length_c 22.328987
_cell_angle_alpha 90.000000
_cell_angle_beta 90.000000
_cell_angle_gamma 90.000000
_cell_volume 1269.856543
_symmetry_space_group_name_H-M "P -4 N 2"
_symmetry_group_IT_number 118
_symmetry_cell_setting 'tetragonal'
loop_
_space_group_symop_operation_xyz
x,y,z
y,-x,-z
-x,-y,z
-y,x,-z
1/2+y,1/2+x,1/2-z
1/2-y,1/2-x,1/2-z
1/2-x,1/2+y,1/2+z
1/2+x,1/2-y,1/2+z
loop_
_atom_site_type_symbol
_atom_site_label
_atom_site_fract_x
_atom_site_fract_y
_atom_site_fract_z
Si Si1 0.641254 0.375112 0.713283
Si Si2 0.315985 0.727273 0.008793
Si Si3 0.000000 0.500000 0.750000
Si Si4 0.290798 0.009746 0.905621
O O1 0.500000 0.500000 0.746326
O O2 0.702498 0.202498 0.750000
O O3 0.823909 0.486206 0.709878
O O4 0.555604 0.316266 0.651402
O O5 0.204935 0.752831 0.069412
O O6 0.529094 0.731756 0.014737
O O7 0.261834 0.874472 0.960688
O O8 0.500000 0.000000 0.891457
#
# Coordination Sequence:
#
# PCOD9558654 Si02
#       4
#     8   8   2   8
#     4  10  24  46  69  97 136 185 233 292 351 412
#     4   9  20  39  59  97 138 170 210 272 347 408
#     4   8  24  48  60 100 136 172 238 294 350 396
#     4  10  22  39  66 100 131 177 227 280 341 424
#
# _framework density 20.474751000000001
#
# number of rings (size 3 to 8) (size 9 to 14) (size 15 to 20)
#    0.923    1.538    0.000    0.000    4.308    5.538 
#   13.846    0.000    0.000    0.000    0.000    0.000 
#    0.000    0.000    0.000    0.000    0.000    0.000 
#
# Total GULP energy -144982.433685 kJ/mol
# GULP energy per Si atom -5576.247449 kJ/mol
# Density = 2.042815 g / cm^3
# Si number density = 20.474751 Si / 1000 Ang^3
#
#
#
# Elastic Constant Matrix: (Units=GPa)
#
#
# Indices 1 2 3 4 5 6 
#
# 1 94.3091 49.3293 44.4880 0.0000 0.0000 0.0000
# 2 49.3293 94.3091 44.4880 0.0000 0.0000 0.0000
# 3 44.4880 44.4880 64.7051 0.0000 0.0000 0.0000
# 4 0.0000 0.0000 0.0000 4.2637 0.0000 0.0000
# 5 0.0000 0.0000 0.0000 0.0000 4.2637 0.0000
# 6 0.0000 0.0000 0.0000 0.0000 0.0000 39.3985
#
#
#
# Elastic Compliance Matrix: (Units=1/GPa)
#
#
# Indices 1 2 3 4 5 6 
#
# 1 0.017179 -0.005053 -0.008338 0.000000 0.000000 0.000000
# 2 -0.005053 0.017179 -0.008338 0.000000 0.000000 0.000000
# 3 -0.008338 -0.008338 0.026920 0.000000 0.000000 0.000000
# 4 0.000000 0.000000 0.000000 0.234539 0.000000 0.000000
# 5 0.000000 0.000000 0.000000 0.000000 0.234539 0.000000
# 6 0.000000 0.000000 0.000000 0.000000 0.000000 0.025382
#
#
# Mechanical properties :
#
#
# Convention : Reuss Voigt Hill
#
# Bulk Modulus (GPa) = 56.10896 58.88153 57.49525
# Shear Modulus (GPa) = 8.26262 17.25304 12.75783
#
# Velocity S-wave (km/s) = 2.01104 2.90599 2.49891
# Velocity P-wave (km/s) = 5.73200 6.33090 6.03888
#
# Compressibility (1/GPa) = 0.01782247
#
# Stress axis : x y z
#
# Youngs Moduli (GPa) = 58.20916 58.20916 37.14727
#
# Poissons Ratio (x) = 0.29412 0.30972
# Poissons Ratio (y) = 0.29412 0.30972
# Poissons Ratio (z) = 0.48533 0.48533
#
# Static dielectric constant tensor:
#      x y z
#    x 1.764540 0.000000 0.000000 
#    y 0.000000 1.764540 0.000000 
#    z 0.000000 0.000000 1.691220 
# 
# From -- ./inp_files/5160.got.cif
#   From: 2010.05.17/outbox.cif.g08.bks.cpg/sg118_3_cif.got.tgz:5160.got - 2010.05.20 11:17:24.
