data_PCOD9558088
_publ_section_title
;
Structure prediction by ZEFSAII (Michael W. Deem and Ramdas Pophale) SiO2 
 PCOD9558088
Probable space group: P -4 B 2
;
_chemical_formula_sum "Si O2"
_cell_formula_units_Z 56
_cell_length_a 15.237242
_cell_length_b 15.237242
_cell_length_c 12.450952
_cell_angle_alpha 90.000000
_cell_angle_beta 90.000000
_cell_angle_gamma 90.000000
_cell_volume 2890.781649
_symmetry_space_group_name_H-M "P -4 B 2"
_symmetry_group_IT_number 117
_symmetry_cell_setting 'tetragonal'
loop_
_space_group_symop_operation_xyz
x,y,z
y,-x,-z
-x,-y,z
-y,x,-z
1/2+y,1/2+x,-z
1/2-y,1/2-x,-z
1/2-x,1/2+y,z
1/2+x,1/2-y,z
loop_
_atom_site_type_symbol
_atom_site_label
_atom_site_fract_x
_atom_site_fract_y
_atom_site_fract_z
Si Si1 0.037923 0.686004 0.505541
Si Si2 0.310519 0.450340 0.891673
Si Si3 0.929484 0.066172 0.243105
Si Si4 0.550682 0.702650 0.888498
Si Si5 0.978362 0.363039 0.742764
Si Si6 0.850902 0.529723 0.727173
Si Si7 0.566933 0.623808 0.465609
O O1 0.107259 0.607259 0.500000
O O2 0.000494 0.675660 0.624641
O O3 0.085527 0.779966 0.508340
O O4 0.974446 0.676982 0.400431
O O5 0.384013 0.517228 0.847633
O O6 0.361107 0.356602 0.904630
O O7 0.233276 0.453977 0.802987
O O8 0.282606 0.494570 0.003440
O O9 0.903638 0.126124 0.341725
O O10 0.853828 0.010794 0.190639
O O11 0.000000 0.000000 0.294871
O O12 0.559835 0.793203 0.826029
O O13 0.903283 0.437608 0.737603
O O14 0.073560 0.403781 0.768076
O O15 0.611360 0.538643 0.518792
#
# Coordination Sequence:
#
# PCOD9558088 Si02
#       7
#     8   8   8   8   8   8   8
#     4  10  21  39  62  89 120 159 205 250 299 370
#     4  11  22  40  65  89 122 159 208 253 306 363
#     4  10  19  35  58  85 122 162 194 241 308 368
#     4  11  23  41  63  95 119 161 213 257 304 363
#     4  10  23  42  65  91 123 162 210 252 305 374
#     4  10  22  44  66  88 123 169 201 250 315 369
#     4  11  20  33  56  91 125 161 193 241 312 373
#
# _framework density 19.371924
#
# number of rings (size 3 to 8) (size 9 to 14) (size 15 to 20)
#    0.000    1.571    4.286    1.286    2.000    2.857 
#    2.571    7.143    0.000    0.000    0.000    0.000 
#    0.000    0.000    0.000    0.000    0.000    0.000 
#
# Total GULP energy -311808.287936 kJ/mol
# GULP energy per Si atom -5568.005142 kJ/mol
# Density = 1.932783 g / cm^3
# Si number density = 19.371924 Si / 1000 Ang^3
#
#
#
# Elastic Constant Matrix: (Units=GPa)
#
#
# Indices 1 2 3 4 5 6 
#
# 1 52.7722 11.0369 33.0415 0.0000 0.0000 0.0000
# 2 11.0369 52.7722 33.0415 0.0000 0.0000 0.0000
# 3 33.0415 33.0415 81.8997 0.0000 0.0000 0.0000
# 4 0.0000 0.0000 0.0000 18.3467 0.0000 0.0000
# 5 0.0000 0.0000 0.0000 0.0000 18.3467 0.0000
# 6 0.0000 0.0000 0.0000 0.0000 0.0000 5.3996
#
#
#
# Elastic Compliance Matrix: (Units=1/GPa)
#
#
# Indices 1 2 3 4 5 6 
#
# 1 0.025440 0.001479 -0.010860 0.000000 0.000000 0.000000
# 2 0.001479 0.025440 -0.010860 0.000000 0.000000 0.000000
# 3 -0.010860 -0.010860 0.020973 0.000000 0.000000 0.000000
# 4 0.000000 0.000000 0.000000 0.054506 0.000000 0.000000
# 5 0.000000 0.000000 0.000000 0.000000 0.054506 0.000000
# 6 0.000000 0.000000 0.000000 0.000000 0.000000 0.185197
#
#
# Mechanical properties :
#
#
# Convention : Reuss Voigt Hill
#
# Bulk Modulus (GPa) = 31.87746 37.96489 34.92117
# Shear Modulus (GPa) = 11.99042 15.77357 13.88199
#
# Velocity S-wave (km/s) = 2.49059 2.85660 2.67985
# Velocity P-wave (km/s) = 4.97613 5.52455 5.25750
#
# Compressibility (1/GPa) = 0.03137013
#
# Stress axis : x y z
#
# Youngs Moduli (GPa) = 39.30863 39.30863 47.68065
#
# Poissons Ratio (x) = -0.05815 0.51782
# Poissons Ratio (y) = -0.05815 0.51782
# Poissons Ratio (z) = 0.42690 0.42690
#
# Static dielectric constant tensor:
#      x y z
#    x 1.689520 0.000000 0.000000 
#    y 0.000000 1.689520 0.000000 
#    z 0.000000 0.000000 1.717160 
# 
# From -- ./inp_files/2869.got.cif
#   From: 2010.05.17/outbox.cif.g08.bks.cpg/sg117_2_cif.got.tgz:2869.got - 2010.05.20 11:15:09.
