data_PCOD9558412
_publ_section_title
;
Structure prediction by ZEFSAII (Michael W. Deem and Ramdas Pophale) SiO2 
 PCOD9558412
Probable space group: P -4 N 2
;
_chemical_formula_sum "Si O2"
_cell_formula_units_Z 32
_cell_length_a 13.926104
_cell_length_b 13.926104
_cell_length_c 7.995654
_cell_angle_alpha 90.000000
_cell_angle_beta 90.000000
_cell_angle_gamma 90.000000
_cell_volume 1550.648133
_symmetry_space_group_name_H-M "P -4 N 2"
_symmetry_group_IT_number 118
_symmetry_cell_setting 'tetragonal'
loop_
_space_group_symop_operation_xyz
x,y,z
y,-x,-z
-x,-y,z
-y,x,-z
1/2+y,1/2+x,1/2-z
1/2-y,1/2-x,1/2-z
1/2-x,1/2+y,1/2+z
1/2+x,1/2-y,1/2+z
loop_
_atom_site_type_symbol
_atom_site_label
_atom_site_fract_x
_atom_site_fract_y
_atom_site_fract_z
Si Si1 0.420814 0.376408 0.054974
Si Si2 0.255574 0.103432 0.145480
Si Si3 0.224574 0.287464 0.947694
Si Si4 0.095084 0.449883 0.553591
O O1 0.442567 0.322465 0.229014
O O2 0.382946 0.485722 0.061933
O O3 0.333452 0.315954 0.982698
O O4 0.336420 0.163581 0.250000
O O5 0.315505 0.022651 0.050060
O O6 0.206872 0.183995 0.030134
O O7 0.213644 0.286357 0.750000
O O8 0.151013 0.367526 0.017875
O O9 0.070594 0.429407 0.750000
O O10 0.000000 0.500000 0.481043
#
# Coordination Sequence:
#
# PCOD9558412 Si02
#       4
#     8   8   8   8
#     4  10  21  37  59  82 117 160 202 247 307 378
#     4  10  20  37  59  85 118 156 200 253 310 371
#     4  10  22  35  57  89 121 157 202 256 311 378
#     4  10  18  34  63  87 112 160 211 257 308 380
#
# _framework density 20.63653
#
# number of rings (size 3 to 8) (size 9 to 14) (size 15 to 20)
#    0.000    2.000    2.500    3.000    3.500    2.000 
#    0.000    0.000    0.000    3.000    0.000    0.000 
#    0.000    0.000    0.000    0.000    0.000    0.000 
#
# Total GULP energy -178442.729793 kJ/mol
# GULP energy per Si atom -5576.335306 kJ/mol
# Density = 2.058956 g / cm^3
# Si number density = 20.636530 Si / 1000 Ang^3
#
#
#
# Elastic Constant Matrix: (Units=GPa)
#
#
# Indices 1 2 3 4 5 6 
#
# 1 85.8375 26.3831 11.9862 0.0000 0.0000 0.0000
# 2 26.3831 85.8380 11.9861 0.0000 0.0000 0.0000
# 3 11.9862 11.9861 13.2127 0.0000 0.0000 0.0000
# 4 0.0000 0.0000 0.0000 6.5729 0.0000 0.0000
# 5 0.0000 0.0000 0.0000 0.0000 6.5732 0.0000
# 6 0.0000 0.0000 0.0000 0.0000 0.0000 50.5740
#
#
#
# Elastic Compliance Matrix: (Units=1/GPa)
#
#
# Indices 1 2 3 4 5 6 
#
# 1 0.013936 -0.002883 -0.010027 0.000000 0.000000 0.000000
# 2 -0.002883 0.013936 -0.010027 0.000000 0.000000 0.000000
# 3 -0.010027 -0.010027 0.093876 0.000000 0.000000 0.000000
# 4 0.000000 0.000000 0.000000 0.152139 0.000000 0.000000
# 5 0.000000 0.000000 0.000000 0.000000 0.152133 0.000000
# 6 0.000000 0.000000 0.000000 0.000000 0.000000 0.019773
#
#
# Mechanical properties :
#
#
# Convention : Reuss Voigt Hill
#
# Bulk Modulus (GPa) = 13.17956 31.73322 22.45639
# Shear Modulus (GPa) = 9.67194 21.71288 15.69241
#
# Velocity S-wave (km/s) = 2.16725 3.24722 2.76056
# Velocity P-wave (km/s) = 3.55851 5.42861 4.58982
#
# Compressibility (1/GPa) = 0.07587505
#
# Stress axis : x y z
#
# Youngs Moduli (GPa) = 71.75512 71.75579 10.65229
#
# Poissons Ratio (x) = 0.20690 0.10681
# Poissons Ratio (y) = 0.20689 0.10681
# Poissons Ratio (z) = 0.71948 0.71947
#
# Static dielectric constant tensor:
#      x y z
#    x 1.769480 0.000000 0.000000 
#    y 0.000000 1.769470 0.000000 
#    z 0.000000 0.000000 1.752160 
# 
# From -- ./inp_files/1614.got.cif
#   From: 2010.05.17/outbox.cif.g08.bks.cpg/sg118_1_cif.got.tgz:1614.got - 2010.05.20 11:17:24.
