data_PCOD9558119
_publ_section_title
;
Structure prediction by ZEFSAII (Michael W. Deem and Ramdas Pophale) SiO2 
 PCOD9558119
Probable space group: P -4 B 2
;
_chemical_formula_sum "Si O2"
_cell_formula_units_Z 24
_cell_length_a 15.212515
_cell_length_b 15.212515
_cell_length_c 4.987890
_cell_angle_alpha 90.000000
_cell_angle_beta 90.000000
_cell_angle_gamma 90.000000
_cell_volume 1154.300560
_symmetry_space_group_name_H-M "P -4 B 2"
_symmetry_group_IT_number 117
_symmetry_cell_setting 'tetragonal'
loop_
_space_group_symop_operation_xyz
x,y,z
y,-x,-z
-x,-y,z
-y,x,-z
1/2+y,1/2+x,-z
1/2-y,1/2-x,-z
1/2-x,1/2+y,z
1/2+x,1/2-y,z
loop_
_atom_site_type_symbol
_atom_site_label
_atom_site_fract_x
_atom_site_fract_y
_atom_site_fract_z
Si Si1 0.616247 0.201948 0.247825
Si Si2 0.779385 0.429122 0.993264
Si Si3 0.794118 0.856725 0.492268
O O1 0.639563 0.139563 0.500000
O O2 0.521098 0.188184 0.121594
O O3 0.627620 0.300455 0.364622
O O4 0.683212 0.183212 0.000000
O O5 0.704521 0.393493 0.790110
O O6 0.859401 0.359401 0.000000
O O7 0.738519 0.431228 0.288267
O O8 0.716869 0.783132 0.500000
#
# Coordination Sequence:
#
# PCOD9558119 Si02
#       3
#     8   8   8
#     4  11  21  35  57  83 110 143 184 228 274 327
#     4  10  20  35  55  79 109 143 178 222 273 322
#     4   9  18  34  54  75 103 145 188 216 255 325
#
# _framework density 20.791813000000001
#
# number of rings (size 3 to 8) (size 9 to 14) (size 15 to 20)
#    0.000    2.000    0.000    7.000    0.000    0.667 
#    0.000    1.667    0.000    6.000    0.000    0.000 
#    0.000    0.000    0.000    0.000    0.000    0.000 
#
# Total GULP energy -133867.466478 kJ/mol
# GULP energy per Si atom -5577.811103 kJ/mol
# Density = 2.074449 g / cm^3
# Si number density = 20.791813 Si / 1000 Ang^3
#
#
#
# Elastic Constant Matrix: (Units=GPa)
#
#
# Indices 1 2 3 4 5 6 
#
# 1 37.2244 50.9080 29.3138 0.0000 0.0000 0.0000
# 2 50.9080 37.2222 29.3092 0.0000 0.0000 0.0000
# 3 29.3138 29.3092 111.5999 0.0000 0.0000 0.0000
# 4 0.0000 0.0000 0.0000 36.4826 0.0000 0.0000
# 5 0.0000 0.0000 0.0000 0.0000 36.4826 0.0000
# 6 0.0000 0.0000 0.0000 0.0000 0.0000 11.9153
#
#
#
# Elastic Compliance Matrix: (Units=1/GPa)
#
#
# Indices 1 2 3 4 5 6 
#
# 1 -0.029663 0.043412 -0.003610 0.000000 0.000000 0.000000
# 2 0.043412 -0.029663 -0.003613 0.000000 0.000000 0.000000
# 3 -0.003610 -0.003613 0.010857 0.000000 0.000000 0.000000
# 4 0.000000 0.000000 0.000000 0.027410 0.000000 0.000000
# 5 0.000000 0.000000 0.000000 0.000000 0.027410 0.000000
# 6 0.000000 0.000000 0.000000 0.000000 0.000000 0.083926
#
#
# Mechanical properties :
#
#
# Convention : Reuss Voigt Hill
#
# Bulk Modulus (GPa) = 41.82246 45.01205 43.41726
# Shear Modulus (GPa) = 193.27753 22.07714 107.67733
#
# Velocity S-wave (km/s) = 9.65196 3.26209 7.20422
# Velocity P-wave (km/s) = 12.01550 5.99035 9.49359
#
# Compressibility (1/GPa) = 0.02391060
#
# Stress axis : x y z
#
# Youngs Moduli (GPa) = -33.71208 -33.71240 92.10263
#
# Poissons Ratio (x) = 1.46351 0.33245
# Poissons Ratio (y) = 1.46349 0.33273
# Poissons Ratio (z) = -0.12168 -0.12179
#
# Static dielectric constant tensor:
#      x y z
#    x 1.770930 0.000000 0.000000 
#    y 0.000000 1.770930 0.000000 
#    z 0.000000 0.000000 1.757110 
# 
# From -- ./inp_files/178.got.cif
#   From: 2010.05.17/outbox.cif.g08.bks.cpg/sg117_1_cif.got.tgz:178.got - 2010.05.20 11:15:09.
