data_PCOD9558663
_publ_section_title
;
Structure prediction by ZEFSAII (Michael W. Deem and Ramdas Pophale) SiO2 
 PCOD9558663
Probable space group: P -4 N 2
;
_chemical_formula_sum "Si O2"
_cell_formula_units_Z 42
_cell_length_a 14.237689
_cell_length_b 14.237689
_cell_length_c 9.257080
_cell_angle_alpha 90.000000
_cell_angle_beta 90.000000
_cell_angle_gamma 90.000000
_cell_volume 1876.519239
_symmetry_space_group_name_H-M "P -4 N 2"
_symmetry_group_IT_number 118
_symmetry_cell_setting 'tetragonal'
loop_
_space_group_symop_operation_xyz
x,y,z
y,-x,-z
-x,-y,z
-y,x,-z
1/2+y,1/2+x,1/2-z
1/2-y,1/2-x,1/2-z
1/2-x,1/2+y,1/2+z
1/2+x,1/2-y,1/2+z
loop_
_atom_site_type_symbol
_atom_site_label
_atom_site_fract_x
_atom_site_fract_y
_atom_site_fract_z
Si Si1 0.131538 0.859804 0.194706
Si Si2 0.821972 0.523871 0.756098
Si Si3 0.000000 0.000000 0.000000
Si Si4 0.349807 0.239098 0.429126
Si Si5 0.782336 0.972593 0.525748
Si Si6 0.654379 0.650582 0.167821
O O1 0.232833 0.909021 0.217126
O O2 0.096360 0.817954 0.347408
O O3 0.139729 0.768382 0.092249
O O4 0.060859 0.931223 0.108032
O O5 0.915350 0.584651 0.750000
O O6 0.814662 0.437233 0.643689
O O7 0.807114 0.484647 0.919311
O O8 0.347274 0.336327 0.337179
O O9 0.249689 0.191471 0.396459
O O10 0.783305 0.069479 0.609350
O O11 0.859436 0.948959 0.400553
#
# Coordination Sequence:
#
# PCOD9558663 Si02
#       6
#     8   8   2   8   8   8
#     4  12  23  37  64  98 135 167 217 279 340 403
#     4  11  24  44  66  96 132 182 223 269 340 410
#     4  12  24  36  58 100 144 172 206 272 368 412
#     4  10  23  43  62  93 130 175 221 269 333 415
#     4  11  23  39  63  99 128 170 216 280 334 395
#     4  10  22  41  63  91 132 171 217 272 343 398
#
# _framework density 22.381865999999999
#
# number of rings (size 3 to 8) (size 9 to 14) (size 15 to 20)
#    0.000    1.143    3.810    2.286    2.667    0.381 
#    0.000    7.619    0.000    0.000    4.952    0.000 
#    0.000    0.000    0.000    0.000    0.000    0.000 
#
# Total GULP energy -234061.428534 kJ/mol
# GULP energy per Si atom -5572.891156 kJ/mol
# Density = 2.233092 g / cm^3
# Si number density = 22.381866 Si / 1000 Ang^3
#
#
#
# Elastic Constant Matrix: (Units=GPa)
#
#
# Indices 1 2 3 4 5 6 
#
# 1 38.0123 88.2381 24.3280 0.0000 0.0000 0.0000
# 2 88.2381 38.0202 24.3301 0.0000 0.0000 0.0000
# 3 24.3280 24.3301 120.9854 0.0000 0.0000 0.0000
# 4 0.0000 0.0000 0.0000 25.3700 0.0000 0.0000
# 5 0.0000 0.0000 0.0000 0.0000 25.3702 0.0000
# 6 0.0000 0.0000 0.0000 0.0000 0.0000 35.4129
#
#
#
# Elastic Compliance Matrix: (Units=1/GPa)
#
#
# Indices 1 2 3 4 5 6 
#
# 1 -0.005663 0.014249 -0.001727 0.000000 0.000000 0.000000
# 2 0.014249 -0.005662 -0.001726 0.000000 0.000000 0.000000
# 3 -0.001727 -0.001726 0.008960 0.000000 0.000000 0.000000
# 4 0.000000 0.000000 0.000000 0.039417 0.000000 0.000000
# 5 0.000000 0.000000 0.000000 0.000000 0.039416 0.000000
# 6 0.000000 0.000000 0.000000 0.000000 0.000000 0.028238
#
#
# Mechanical properties :
#
#
# Convention : Reuss Voigt Hill
#
# Bulk Modulus (GPa) = 52.01427 52.31227 52.16327
# Shear Modulus (GPa) = 55.85189 21.23873 38.54531
#
# Velocity S-wave (km/s) = 5.00083 3.08381 4.15440
# Velocity P-wave (km/s) = 7.52557 6.00859 6.80946
#
# Compressibility (1/GPa) = 0.01922549
#
# Stress axis : x y z
#
# Youngs Moduli (GPa) = -176.57054 -176.60784 111.60902
#
# Poissons Ratio (x) = 2.51645 0.19270
# Poissons Ratio (y) = 2.51592 0.19269
# Poissons Ratio (z) = -0.30487 -0.30491
#
# Static dielectric constant tensor:
#      x y z
#    x 1.933070 0.000000 0.000000 
#    y 0.000000 1.933060 0.000000 
#    z 0.000000 0.000000 1.821430 
# 
# From -- ./inp_files/1944.got.cif
#   From: 2010.05.17/outbox.cif.g08.bks.cpg/sg118_1_cif.got.tgz:1944.got - 2010.05.20 11:17:24.
