data_PCOD9558487
_publ_section_title
;
Structure prediction by ZEFSAII (Michael W. Deem and Ramdas Pophale) SiO2 
 PCOD9558487
Probable space group: P -4 N 2
;
_chemical_formula_sum "Si O2"
_cell_formula_units_Z 58
_cell_length_a 16.905552
_cell_length_b 16.905552
_cell_length_c 9.412438
_cell_angle_alpha 90.000000
_cell_angle_beta 90.000000
_cell_angle_gamma 90.000000
_cell_volume 2690.053023
_symmetry_space_group_name_H-M "P -4 N 2"
_symmetry_group_IT_number 118
_symmetry_cell_setting 'tetragonal'
loop_
_space_group_symop_operation_xyz
x,y,z
y,-x,-z
-x,-y,z
-y,x,-z
1/2+y,1/2+x,1/2-z
1/2-y,1/2-x,1/2-z
1/2-x,1/2+y,1/2+z
1/2+x,1/2-y,1/2+z
loop_
_atom_site_type_symbol
_atom_site_label
_atom_site_fract_x
_atom_site_fract_y
_atom_site_fract_z
Si Si1 0.681096 0.662116 0.165842
Si Si2 0.500000 0.500000 0.000000
Si Si3 0.602944 0.363006 0.131275
Si Si4 0.657583 0.852425 0.403191
Si Si5 0.713865 0.579136 0.579887
Si Si6 0.318931 0.928649 0.827215
Si Si7 0.686240 0.410068 0.564730
Si Si8 0.785632 0.405666 0.185125
O O1 0.684629 0.754292 0.122486
O O2 0.752546 0.626391 0.253812
O O3 0.607073 0.659154 0.273659
O O4 0.674847 0.612105 0.023824
O O5 0.543919 0.436064 0.101638
O O6 0.578073 0.298327 0.250028
O O7 0.691483 0.394516 0.168293
O O8 0.623524 0.876477 0.250000
O O9 0.602411 0.779827 0.444063
O O10 0.673589 0.913256 0.529088
O O11 0.797507 0.582593 0.495566
O O12 0.670756 0.499510 0.523615
O O13 0.657757 0.649333 0.529885
O O14 0.398456 0.898456 0.750000
O O15 0.304445 0.018138 0.778499
O O16 0.827350 0.327350 0.250000
#
# Coordination Sequence:
#
# PCOD9558487 Si02
#       8
#     8   2   8   8   8   8   8   8
#     4   9  19  37  59  83 114 155 201 249 310 377
#     4  12  24  40  60  98 144 176 212 270 352 412
#     4  11  23  38  61  92 128 169 211 261 319 393
#     4   9  18  36  61  82 107 148 197 245 298 369
#     4  11  22  36  56  83 118 156 200 244 300 374
#     4  11  23  40  60  85 119 160 207 268 333 383
#     4  10  20  35  54  82 115 153 194 242 300 367
#     4  11  23  40  61  88 120 160 215 266 317 388
#
# _framework density 21.560914
#
# number of rings (size 3 to 8) (size 9 to 14) (size 15 to 20)
#    0.000    1.655    0.000    6.207    0.000    7.172 
#    0.000    0.000    0.000    0.000    0.000    9.655 
#    0.000    0.000    0.000    0.000    0.000    0.000 
#
# Total GULP energy -323369.411506 kJ/mol
# GULP energy per Si atom -5575.334681 kJ/mol
# Density = 2.151184 g / cm^3
# Si number density = 21.560914 Si / 1000 Ang^3
#
#
#
# Elastic Constant Matrix: (Units=GPa)
#
#
# Indices 1 2 3 4 5 6 
#
# 1 36.1485 16.8655 24.7712 0.0000 0.0000 0.0000
# 2 16.8655 36.1478 24.7710 0.0000 0.0000 0.0000
# 3 24.7712 24.7710 156.7095 0.0000 0.0000 0.0000
# 4 0.0000 0.0000 0.0000 27.9484 0.0000 0.0000
# 5 0.0000 0.0000 0.0000 0.0000 27.9484 0.0000
# 6 0.0000 0.0000 0.0000 0.0000 0.0000 24.3567
#
#
#
# Elastic Compliance Matrix: (Units=1/GPa)
#
#
# Indices 1 2 3 4 5 6 
#
# 1 0.036996 -0.014864 -0.003498 0.000000 0.000000 0.000000
# 2 -0.014864 0.036997 -0.003499 0.000000 0.000000 0.000000
# 3 -0.003498 -0.003499 0.007487 0.000000 0.000000 0.000000
# 4 0.000000 0.000000 0.000000 0.035780 0.000000 0.000000
# 5 0.000000 0.000000 0.000000 0.000000 0.035780 0.000000
# 6 0.000000 0.000000 0.000000 0.000000 0.000000 0.041056
#
#
# Mechanical properties :
#
#
# Convention : Reuss Voigt Hill
#
# Bulk Modulus (GPa) = 26.48428 40.20237 33.34332
# Shear Modulus (GPa) = 19.96769 26.89057 23.42913
#
# Velocity S-wave (km/s) = 3.04650 3.53539 3.30001
# Velocity P-wave (km/s) = 4.96840 5.94573 5.47890
#
# Compressibility (1/GPa) = 0.03775824
#
# Stress axis : x y z
#
# Youngs Moduli (GPa) = 27.02999 27.02946 133.56048
#
# Poissons Ratio (x) = 0.40176 0.46726
# Poissons Ratio (y) = 0.40177 0.46726
# Poissons Ratio (z) = 0.09456 0.09456
#
# Static dielectric constant tensor:
#      x y z
#    x 1.794290 0.000000 0.000000 
#    y 0.000000 1.794290 0.000000 
#    z 0.000000 0.000000 1.910150 
# 
# From -- ./inp_files/2222.got.cif
#   From: 2010.05.17/outbox.cif.g08.bks.cpg/sg118_2_cif.got.tgz:2222.got - 2010.05.20 11:17:24.
