data_PCOD9558031
_publ_section_title
;
Structure prediction by ZEFSAII (Michael W. Deem and Ramdas Pophale) SiO2 
 PCOD9558031
Probable space group: P -4 C 2
;
_chemical_formula_sum "Si O2"
_cell_formula_units_Z 22
_cell_length_a 8.195079
_cell_length_b 8.195079
_cell_length_c 13.789320
_cell_angle_alpha 90.000000
_cell_angle_beta 90.000000
_cell_angle_gamma 90.000000
_cell_volume 926.081352
_symmetry_space_group_name_H-M "P -4 C 2"
_symmetry_group_IT_number 116
_symmetry_cell_setting 'tetragonal'
loop_
_space_group_symop_operation_xyz
x,y,z
y,-x,-z
-x,-y,z
-y,x,-z
y,x,1/2-z
-y,-x,1/2-z
-x,y,1/2+z
x,-y,1/2+z
loop_
_atom_site_type_symbol
_atom_site_label
_atom_site_fract_x
_atom_site_fract_y
_atom_site_fract_z
Si Si1 0.678182 0.049922 0.107048
Si Si2 0.000000 0.000000 0.000000
Si Si3 0.583470 0.664483 0.862425
Si Si4 0.000000 0.500000 0.201733
O O1 0.694274 0.242618 0.089996
O O2 0.651800 0.015031 0.222527
O O3 0.500000 0.000000 0.066965
O O4 0.839184 0.969816 0.064573
O O5 0.500000 0.500000 0.898714
O O6 0.623702 0.623702 0.750000
O O7 0.486004 0.833591 0.858052
#
# Coordination Sequence:
#
# PCOD9558031 Si02
#       4
#     8   2   8   4
#     4   9  22  42  59  90 124 165 217 246 308 381
#     4  12  24  48  58  84 140 180 212 246 288 384
#     4   9  17  36  62  92 121 146 200 269 322 366
#     4   8  18  40  60  98 122 154 208 264 334 360
#
# _framework density 23.756014
#
# number of rings (size 3 to 8) (size 9 to 14) (size 15 to 20)
#    1.091    1.818    0.000    0.000    0.000    2.909 
#   16.364    6.364    0.000    0.000    0.000    0.000 
#    0.000    0.000    0.000    0.000    0.000    0.000 
#
# Total GULP energy -122755.223258 kJ/mol
# GULP energy per Si atom -5579.782875 kJ/mol
# Density = 2.370194 g / cm^3
# Si number density = 23.756014 Si / 1000 Ang^3
#
#
#
# Elastic Constant Matrix: (Units=GPa)
#
#
# Indices 1 2 3 4 5 6 
#
# 1 145.6381 59.6498 36.0362 0.0000 0.0000 0.0000
# 2 59.6498 145.6381 36.0362 0.0000 0.0000 0.0000
# 3 36.0362 36.0362 76.4645 0.0000 0.0000 0.0000
# 4 0.0000 0.0000 0.0000 21.2588 0.0000 0.0000
# 5 0.0000 0.0000 0.0000 0.0000 21.2588 0.0000
# 6 0.0000 0.0000 0.0000 0.0000 0.0000 30.5208
#
#
#
# Elastic Compliance Matrix: (Units=1/GPa)
#
#
# Indices 1 2 3 4 5 6 
#
# 1 0.008733 -0.002896 -0.002751 0.000000 0.000000 0.000000
# 2 -0.002896 0.008733 -0.002751 0.000000 0.000000 0.000000
# 3 -0.002751 -0.002751 0.015671 0.000000 0.000000 0.000000
# 4 0.000000 0.000000 0.000000 0.047039 0.000000 0.000000
# 5 0.000000 0.000000 0.000000 0.000000 0.047039 0.000000
# 6 0.000000 0.000000 0.000000 0.000000 0.000000 0.032765
#
#
# Mechanical properties :
#
#
# Convention : Reuss Voigt Hill
#
# Bulk Modulus (GPa) = 61.19444 70.13169 65.66306
# Shear Modulus (GPa) = 27.43886 30.34227 28.89056
#
# Velocity S-wave (km/s) = 3.40226 3.57773 3.49110
# Velocity P-wave (km/s) = 6.42256 6.83027 6.62955
#
# Compressibility (1/GPa) = 0.01634135
#
# Stress axis : x y z
#
# Youngs Moduli (GPa) = 114.50516 114.50516 63.81288
#
# Poissons Ratio (x) = 0.33164 0.17554
# Poissons Ratio (y) = 0.33164 0.17554
# Poissons Ratio (z) = 0.31499 0.31499
#
# Static dielectric constant tensor:
#      x y z
#    x 1.893260 0.000000 0.000000 
#    y 0.000000 1.893260 0.000000 
#    z 0.000000 0.000000 1.924040 
# 
# From -- ./inp_files/2895.got.cif
#   From: 2010.05.17/outbox.cif.g08.bks.cpg/sg116_2_cif.got.tgz:2895.got - 2010.05.20 11:11:43.
