data_PCOD9558869
_publ_section_title
;
Structure prediction by ZEFSAII (Michael W. Deem and Ramdas Pophale) SiO2 
 PCOD9558869
Probable space group: P -4 N 2
;
_chemical_formula_sum "Si O2"
_cell_formula_units_Z 34
_cell_length_a 11.563402
_cell_length_b 11.563402
_cell_length_c 10.536786
_cell_angle_alpha 90.000000
_cell_angle_beta 90.000000
_cell_angle_gamma 90.000000
_cell_volume 1408.897530
_symmetry_space_group_name_H-M "P -4 N 2"
_symmetry_group_IT_number 118
_symmetry_cell_setting 'tetragonal'
loop_
_space_group_symop_operation_xyz
x,y,z
y,-x,-z
-x,-y,z
-y,x,-z
1/2+y,1/2+x,1/2-z
1/2-y,1/2-x,1/2-z
1/2-x,1/2+y,1/2+z
1/2+x,1/2-y,1/2+z
loop_
_atom_site_type_symbol
_atom_site_label
_atom_site_fract_x
_atom_site_fract_y
_atom_site_fract_z
Si Si1 0.000000 0.000000 0.000000
Si Si2 0.232154 0.129631 0.535596
Si Si3 0.528082 0.741858 0.475855
Si Si4 0.993223 0.861143 0.695926
Si Si5 0.578767 0.114960 0.885579
O O1 0.988896 0.126872 0.060484
O O2 0.346196 0.207217 0.510377
O O3 0.131885 0.169632 0.632303
O O4 0.178027 0.092856 0.401556
O O5 0.284110 0.009518 0.587310
O O6 0.514749 0.701038 0.330563
O O7 0.424532 0.828659 0.510741
O O8 0.000000 0.000000 0.702567
O O9 0.635986 0.135986 0.750000
O O10 0.500000 0.000000 0.877059
#
# Coordination Sequence:
#
# PCOD9558869 Si02
#       5
#     2   8   8   8   8
#     4  12  28  44  64 118 152 192 248 324 398 472
#     4  11  24  48  79 111 155 214 262 332 408 485
#     4  11  27  47  73 115 160 205 268 328 407 489
#     4  12  24  48  75 115 162 207 270 331 408 493
#     4   9  22  46  75 108 148 199 263 325 393 478
#
# _framework density 24.132342999999999
#
# number of rings (size 3 to 8) (size 9 to 14) (size 15 to 20)
#    0.000    1.176    3.529    0.706    6.588    0.941 
#    0.000    3.529    0.000    0.000    0.000    0.000 
#    0.000    0.000    0.000    0.000    0.000    0.000 
#
# Total GULP energy -190092.969889 kJ/mol
# GULP energy per Si atom -5590.969703 kJ/mol
# Density = 2.407742 g / cm^3
# Si number density = 24.132343 Si / 1000 Ang^3
#
#
#
# Elastic Constant Matrix: (Units=GPa)
#
#
# Indices 1 2 3 4 5 6 
#
# 1 125.1739 42.3414 38.4730 0.0000 0.0000 0.0000
# 2 42.3414 125.1739 38.4730 0.0000 0.0000 0.0000
# 3 38.4730 38.4730 136.8010 0.0000 0.0000 0.0000
# 4 0.0000 0.0000 0.0000 38.9363 0.0000 0.0000
# 5 0.0000 0.0000 0.0000 0.0000 38.9363 0.0000
# 6 0.0000 0.0000 0.0000 0.0000 0.0000 71.0096
#
#
#
# Elastic Compliance Matrix: (Units=1/GPa)
#
#
# Indices 1 2 3 4 5 6 
#
# 1 0.009464 -0.002609 -0.001928 0.000000 0.000000 0.000000
# 2 -0.002609 0.009464 -0.001928 0.000000 0.000000 0.000000
# 3 -0.001928 -0.001928 0.008394 0.000000 0.000000 0.000000
# 4 0.000000 0.000000 0.000000 0.025683 0.000000 0.000000
# 5 0.000000 0.000000 0.000000 0.000000 0.025683 0.000000
# 6 0.000000 0.000000 0.000000 0.000000 0.000000 0.014083
#
#
# Mechanical properties :
#
#
# Convention : Reuss Voigt Hill
#
# Bulk Modulus (GPa) = 69.47829 69.52487 69.50158
# Shear Modulus (GPa) = 45.25002 47.63386 46.44194
#
# Velocity S-wave (km/s) = 4.33491 4.44763 4.39164
# Velocity P-wave (km/s) = 7.34223 7.43288 7.38769
#
# Compressibility (1/GPa) = 0.01439298
#
# Stress axis : x y z
#
# Youngs Moduli (GPa) = 105.66514 105.66514 119.12888
#
# Poissons Ratio (x) = 0.27565 0.22967
# Poissons Ratio (y) = 0.27565 0.22967
# Poissons Ratio (z) = 0.20371 0.20371
#
# Static dielectric constant tensor:
#      x y z
#    x 1.942780 0.000000 0.000000 
#    y 0.000000 1.942780 0.000000 
#    z 0.000000 0.000000 2.031830 
# 
# From -- ./inp_files/3056.got.cif
#   From: 2010.05.17/outbox.cif.g08.bks.cpg/sg118_2_cif.got.tgz:3056.got - 2010.05.20 11:17:24.
