data_PCOD9558934
_publ_section_title
;
Structure prediction by ZEFSAII (Michael W. Deem and Ramdas Pophale) SiO2 
 PCOD9558934
Probable space group: P -4 N 2
;
_chemical_formula_sum "Si O2"
_cell_formula_units_Z 12
_cell_length_a 5.167564
_cell_length_b 5.167564
_cell_length_c 17.916168
_cell_angle_alpha 90.000000
_cell_angle_beta 90.000000
_cell_angle_gamma 90.000000
_cell_volume 478.428292
_symmetry_space_group_name_H-M "P -4 N 2"
_symmetry_group_IT_number 118
_symmetry_cell_setting 'tetragonal'
loop_
_space_group_symop_operation_xyz
x,y,z
y,-x,-z
-x,-y,z
-y,x,-z
1/2+y,1/2+x,1/2-z
1/2-y,1/2-x,1/2-z
1/2-x,1/2+y,1/2+z
1/2+x,1/2-y,1/2+z
loop_
_atom_site_type_symbol
_atom_site_label
_atom_site_fract_x
_atom_site_fract_y
_atom_site_fract_z
Si Si1 0.500000 0.000000 0.250000
Si Si2 0.660013 0.269921 0.617437
Si Si3 0.500000 0.500000 0.000000
O O1 0.584879 0.779714 0.310153
O O2 0.500000 0.500000 0.582510
O O3 0.874694 0.198245 0.557375
O O4 0.500000 0.000000 0.633770
#
# Coordination Sequence:
#
# PCOD9558934 Si02
#       3
#     2   8   2
#     4  12  30  56  86 134 176 228 310 360 450 534
#     4  12  31  54  90 128 179 236 296 372 449 532
#     4  12  32  56  84 136 176 226 312 360 448 536
#
# _framework density 25.082125999999999
#
# number of rings (size 3 to 8) (size 9 to 14) (size 15 to 20)
#    0.000    0.000    0.000    5.000   28.000    0.000 
#    0.000    0.000    0.000    0.000    0.000    0.000 
#    0.000    0.000    0.000    0.000    0.000    0.000 
#
# Total GULP energy -66879.742642 kJ/mol
# GULP energy per Si atom -5573.311887 kJ/mol
# Density = 2.502504 g / cm^3
# Si number density = 25.082126 Si / 1000 Ang^3
#
#
#
# Elastic Constant Matrix: (Units=GPa)
#
#
# Indices 1 2 3 4 5 6 
#
# 1 143.7038 90.5741 45.1733 0.0000 0.0000 0.0000
# 2 90.5741 143.7038 45.1733 0.0000 0.0000 0.0000
# 3 45.1733 45.1733 132.7943 0.0000 0.0000 0.0000
# 4 0.0000 0.0000 0.0000 -10.7310 0.0000 0.0000
# 5 0.0000 0.0000 0.0000 0.0000 -10.7310 0.0000
# 6 0.0000 0.0000 0.0000 0.0000 0.0000 75.1104
#
#
#
# Elastic Compliance Matrix: (Units=1/GPa)
#
#
# Indices 1 2 3 4 5 6 
#
# 1 0.011867 -0.006954 -0.001671 0.000000 0.000000 0.000000
# 2 -0.006954 0.011867 -0.001671 0.000000 0.000000 0.000000
# 3 -0.001671 -0.001671 0.008667 0.000000 0.000000 0.000000
# 4 0.000000 0.000000 0.000000 -0.093188 0.000000 0.000000
# 5 0.000000 0.000000 0.000000 0.000000 -0.093188 0.000000
# 6 0.000000 0.000000 0.000000 0.000000 0.000000 0.013314
#
#
# Mechanical properties :
#
#
# Convention : Reuss Voigt Hill
#
# Bulk Modulus (GPa) = 84.68602 86.89371 85.78987
# Shear Modulus (GPa) = -43.05553 26.68174 -8.18690
#
# Velocity S-wave (km/s) = -4.14766 3.26509 -1.80862
# Velocity P-wave (km/s) = 3.30142 6.99524 5.46958
#
# Compressibility (1/GPa) = 0.01180832
#
# Stress axis : x y z
#
# Youngs Moduli (GPa) = 84.26447 84.26447 115.37368
#
# Poissons Ratio (x) = 0.58601 0.19282
# Poissons Ratio (y) = 0.58601 0.19282
# Poissons Ratio (z) = 0.14083 0.14083
#
# Static dielectric constant tensor:
#      x y z
#    x 1.350350 0.000000 0.000000 
#    y 0.000000 1.350350 0.000000 
#    z 0.000000 0.000000 1.968380 
# 
# From -- ./inp_files/4333.got.cif
#   From: 2010.05.17/outbox.cif.g08.bks.cpg/sg118_3_cif.got.tgz:4333.got - 2010.05.20 11:17:24.
