data_PCOD9558767
_publ_section_title
;
Structure prediction by ZEFSAII (Michael W. Deem and Ramdas Pophale) SiO2 
 PCOD9558767
Probable space group: P -4 N 2
;
_chemical_formula_sum "Si O2"
_cell_formula_units_Z 48
_cell_length_a 11.308248
_cell_length_b 11.308248
_cell_length_c 20.793697
_cell_angle_alpha 90.000000
_cell_angle_beta 90.000000
_cell_angle_gamma 90.000000
_cell_volume 2659.024629
_symmetry_space_group_name_H-M "P -4 N 2"
_symmetry_group_IT_number 118
_symmetry_cell_setting 'tetragonal'
loop_
_space_group_symop_operation_xyz
x,y,z
y,-x,-z
-x,-y,z
-y,x,-z
1/2+y,1/2+x,1/2-z
1/2-y,1/2-x,1/2-z
1/2-x,1/2+y,1/2+z
1/2+x,1/2-y,1/2+z
loop_
_atom_site_type_symbol
_atom_site_label
_atom_site_fract_x
_atom_site_fract_y
_atom_site_fract_z
Si Si1 0.120583 0.444132 0.085622
Si Si2 0.853807 0.209013 0.467111
Si Si3 0.383423 0.557101 0.607759
Si Si4 0.524944 0.638232 0.099761
Si Si5 0.761397 0.759899 0.325874
Si Si6 0.229625 0.899131 0.004563
O O1 0.210332 0.545422 0.063296
O O2 0.183607 0.362650 0.138355
O O3 0.000000 0.500000 0.110612
O O4 0.088549 0.360943 0.024482
O O5 0.902435 0.149038 0.532573
O O6 0.741262 0.286122 0.486267
O O7 0.814370 0.105175 0.418462
O O8 0.500000 0.500000 0.640360
O O9 0.296467 0.639257 0.648515
O O10 0.438012 0.640929 0.551774
O O11 0.302724 0.463639 0.569846
O O12 0.500000 0.500000 0.115700
O O13 0.605808 0.708349 0.150875
O O14 0.758192 0.741809 0.250000
#
# Coordination Sequence:
#
# PCOD9558767 Si02
#       6
#     8   8   8   8   8   8
#     4  11  23  34  59  93 124 155 193 254 315 366
#     4  12  19  34  62  99 126 148 194 263 328 357
#     4  11  21  37  59  87 124 161 198 251 303 376
#     4  12  18  36  63  92 121 153 199 259 307 364
#     4  11  26  43  59  84 120 170 214 245 295 373
#     4  11  19  33  58  92 126 146 190 249 321 369
#
# _framework density 18.051732000000001
#
# number of rings (size 3 to 8) (size 9 to 14) (size 15 to 20)
#    0.000    0.667   10.000    1.000    2.333    1.000 
#    0.000    0.000    0.000    2.000    0.000    0.000 
#    0.000    0.000    0.000    0.000    0.000    0.000 
#
# Total GULP energy -267794.819287 kJ/mol
# GULP energy per Si atom -5579.058735 kJ/mol
# Density = 1.801064 g / cm^3
# Si number density = 18.051732 Si / 1000 Ang^3
#
#
#
# Elastic Constant Matrix: (Units=GPa)
#
#
# Indices 1 2 3 4 5 6 
#
# 1 88.3848 40.4191 32.1827 0.0000 0.0000 0.0000
# 2 40.4191 88.3849 32.1829 0.0000 0.0000 0.0000
# 3 32.1827 32.1829 81.7274 0.0000 0.0000 0.0000
# 4 0.0000 0.0000 0.0000 13.5420 0.0000 0.0000
# 5 0.0000 0.0000 0.0000 0.0000 13.5419 0.0000
# 6 0.0000 0.0000 0.0000 0.0000 0.0000 37.4441
#
#
#
# Elastic Compliance Matrix: (Units=1/GPa)
#
#
# Indices 1 2 3 4 5 6 
#
# 1 0.015257 -0.005591 -0.003806 0.000000 0.000000 0.000000
# 2 -0.005591 0.015257 -0.003806 0.000000 0.000000 0.000000
# 3 -0.003806 -0.003806 0.015233 0.000000 0.000000 0.000000
# 4 0.000000 0.000000 0.000000 0.073844 0.000000 0.000000
# 5 0.000000 0.000000 0.000000 0.000000 0.073845 0.000000
# 6 0.000000 0.000000 0.000000 0.000000 0.000000 0.026707
#
#
# Mechanical properties :
#
#
# Convention : Reuss Voigt Hill
#
# Bulk Modulus (GPa) = 51.70593 52.00737 51.85665
# Shear Modulus (GPa) = 19.76307 23.15309 21.45808
#
# Velocity S-wave (km/s) = 3.31237 3.58522 3.45149
# Velocity P-wave (km/s) = 6.58289 6.78315 6.68377
#
# Compressibility (1/GPa) = 0.01934014
#
# Stress axis : x y z
#
# Youngs Moduli (GPa) = 65.54375 65.54379 65.64509
#
# Poissons Ratio (x) = 0.36647 0.24986
# Poissons Ratio (y) = 0.36647 0.24986
# Poissons Ratio (z) = 0.24947 0.24947
#
# Static dielectric constant tensor:
#      x y z
#    x 1.664270 0.000000 0.000000 
#    y 0.000000 1.664270 0.000000 
#    z 0.000000 0.000000 1.587440 
# 
# From -- ./inp_files/4916.got.cif
#   From: 2010.05.17/outbox.cif.g08.bks.cpg/sg118_3_cif.got.tgz:4916.got - 2010.05.20 11:17:24.
