data_PCOD9558157
_publ_section_title
;
Structure prediction by ZEFSAII (Michael W. Deem and Ramdas Pophale) SiO2 
 PCOD9558157
Probable space group: P -4 B 2
;
_chemical_formula_sum "Si O2"
_cell_formula_units_Z 38
_cell_length_a 14.255460
_cell_length_b 14.255460
_cell_length_c 7.084871
_cell_angle_alpha 90.000000
_cell_angle_beta 90.000000
_cell_angle_gamma 90.000000
_cell_volume 1439.774305
_symmetry_space_group_name_H-M "P -4 B 2"
_symmetry_group_IT_number 117
_symmetry_cell_setting 'tetragonal'
loop_
_space_group_symop_operation_xyz
x,y,z
y,-x,-z
-x,-y,z
-y,x,-z
1/2+y,1/2+x,-z
1/2-y,1/2-x,-z
1/2-x,1/2+y,z
1/2+x,1/2-y,z
loop_
_atom_site_type_symbol
_atom_site_label
_atom_site_fract_x
_atom_site_fract_y
_atom_site_fract_z
Si Si1 0.500000 0.500000 0.000000
Si Si2 0.392193 0.329390 0.862603
Si Si3 0.733665 0.834995 0.750602
Si Si4 0.990254 0.634733 0.363768
Si Si5 0.727078 0.580307 0.334425
Si Si6 0.873621 0.626380 0.000000
O O1 0.440216 0.587930 0.092159
O O2 0.304998 0.271792 0.768921
O O3 0.482744 0.311993 0.736001
O O4 0.385331 0.270110 0.057936
O O5 0.829175 0.835937 0.631256
O O6 0.651746 0.900047 0.669289
O O7 0.941923 0.558078 0.500000
O O8 0.945265 0.723614 0.469555
O O9 0.954928 0.621443 0.152401
O O10 0.786061 0.613762 0.144753
#
# Coordination Sequence:
#
# PCOD9558157 Si02
#       6
#     2   8   8   8   8   4
#     4  12  24  44  76 126 164 216 294 340 424 518
#     4  11  24  45  81 113 163 223 275 348 419 504
#     4  11  24  48  75 119 162 221 278 341 431 503
#     4  10  24  47  77 114 157 207 273 343 414 501
#     4  11  23  46  75 114 155 212 272 339 407 507
#     4  10  20  46  73 104 154 197 256 334 414 475
#
# _framework density 26.393028000000001
#
# number of rings (size 3 to 8) (size 9 to 14) (size 15 to 20)
#    0.000    1.263    4.211    1.263    0.000    0.842 
#   18.947    8.421    0.000    0.000    0.000    0.000 
#    0.000    0.000    0.000    0.000    0.000    0.000 
#
# Total GULP energy -211620.572491 kJ/mol
# GULP energy per Si atom -5568.962434 kJ/mol
# Density = 2.633296 g / cm^3
# Si number density = 26.393028 Si / 1000 Ang^3
#
#
#
# Elastic Constant Matrix: (Units=GPa)
#
#
# Indices 1 2 3 4 5 6 
#
# 1 95.0886 42.1311 25.6935 0.0000 0.0000 0.0000
# 2 42.1311 95.0861 25.6946 0.0000 0.0000 0.0000
# 3 25.6935 25.6946 181.8260 0.0000 0.0000 0.0000
# 4 0.0000 0.0000 0.0000 -9.9609 0.0000 0.0000
# 5 0.0000 0.0000 0.0000 0.0000 -9.9412 0.0000
# 6 0.0000 0.0000 0.0000 0.0000 0.0000 55.7872
#
#
#
# Elastic Compliance Matrix: (Units=1/GPa)
#
#
# Indices 1 2 3 4 5 6 
#
# 1 0.013289 -0.005594 -0.001087 0.000000 0.000000 0.000000
# 2 -0.005594 0.013289 -0.001087 0.000000 0.000000 0.000000
# 3 -0.001087 -0.001087 0.005807 0.000000 0.000000 0.000000
# 4 0.000000 0.000000 0.000000 -0.100392 0.000000 0.000000
# 5 0.000000 0.000000 0.000000 0.000000 -0.100592 0.000000
# 6 0.000000 0.000000 0.000000 0.000000 0.000000 0.017925
#
#
# Mechanical properties :
#
#
# Convention : Reuss Voigt Hill
#
# Bulk Modulus (GPa) = 59.35656 62.11544 60.73600
# Shear Modulus (GPa) = -38.60427 25.74246 -6.43090
#
# Velocity S-wave (km/s) = -3.82863 3.12645 -1.56265
# Velocity P-wave (km/s) = 1.73024 6.05135 4.45042
#
# Compressibility (1/GPa) = 0.01684734
#
# Stress axis : x y z
#
# Youngs Moduli (GPa) = 75.25023 75.24795 172.20366
#
# Poissons Ratio (x) = 0.42096 0.18723
# Poissons Ratio (y) = 0.42097 0.18726
# Poissons Ratio (z) = 0.08182 0.08183
#
# Static dielectric constant tensor:
#      x y z
#    x 2.224570 0.000000 0.000000 
#    y 0.000000 2.224610 0.000000 
#    z 0.000000 0.000000 2.083220 
# 
# From -- ./inp_files/608.got.cif
#   From: 2010.05.17/outbox.cif.g08.bks.cpg/sg117_1_cif.got.tgz:608.got - 2010.05.20 11:15:09.
