data_PCOD9558128
_publ_section_title
;
Structure prediction by ZEFSAII (Michael W. Deem and Ramdas Pophale) SiO2 
 PCOD9558128
Probable space group: P -4 B 2
;
_chemical_formula_sum "Si O2"
_cell_formula_units_Z 42
_cell_length_a 21.036808
_cell_length_b 21.036808
_cell_length_c 5.262242
_cell_angle_alpha 90.000000
_cell_angle_beta 90.000000
_cell_angle_gamma 90.000000
_cell_volume 2328.790941
_symmetry_space_group_name_H-M "P -4 B 2"
_symmetry_group_IT_number 117
_symmetry_cell_setting 'tetragonal'
loop_
_space_group_symop_operation_xyz
x,y,z
y,-x,-z
-x,-y,z
-y,x,-z
1/2+y,1/2+x,-z
1/2-y,1/2-x,-z
1/2-x,1/2+y,z
1/2+x,1/2-y,z
loop_
_atom_site_type_symbol
_atom_site_label
_atom_site_fract_x
_atom_site_fract_y
_atom_site_fract_z
Si Si1 0.635824 0.644994 0.505394
Si Si2 0.507001 0.309344 0.464572
Si Si3 0.500000 0.000000 0.500000
Si Si4 0.596889 0.995569 0.890903
Si Si5 0.821415 0.785341 0.991343
Si Si6 0.764340 0.538266 0.038336
O O1 0.561444 0.660032 0.507346
O O2 0.646398 0.568842 0.496760
O O3 0.671682 0.671172 0.756193
O O4 0.669997 0.675059 0.257646
O O5 0.511793 0.283066 0.177979
O O6 0.516549 0.255270 0.679917
O O7 0.572591 0.998442 0.605114
O O8 0.667028 0.013262 0.960208
O O9 0.548621 0.048621 0.000000
O O10 0.571318 0.928683 0.000000
O O11 0.885242 0.741922 0.976207
O O12 0.759913 0.740088 0.000000
#
# Coordination Sequence:
#
# PCOD9558128 Si02
#       6
#     8   8   2   8   8   8
#     4  10  21  39  60  84 115 143 189 230 287 331
#     4  10  22  38  59  83 110 145 181 240 280 343
#     4   8  18  32  52  74 108 152 190 236 270 324
#     4   9  19  33  51  77 110 149 184 233 270 325
#     4  10  20  37  59  84 113 148 186 230 271 335
#     4  10  21  36  57  83 110 145 189 228 280 325
#
# _framework density 18.035108999999999
#
# number of rings (size 3 to 8) (size 9 to 14) (size 15 to 20)
#    0.000    2.476    0.000    2.286    5.333    0.381 
#    3.429    5.714    0.000    6.857    0.000    0.000 
#    0.000    0.000    0.000    0.000    0.000    0.000 
#
# Total GULP energy -233803.335290 kJ/mol
# GULP energy per Si atom -5566.746078 kJ/mol
# Density = 1.799406 g / cm^3
# Si number density = 18.035109 Si / 1000 Ang^3
#
#
#
# Elastic Constant Matrix: (Units=GPa)
#
#
# Indices 1 2 3 4 5 6 
#
# 1 83.6100 61.9242 17.8304 0.0000 0.0000 0.0000
# 2 61.9242 83.6063 17.8304 0.0000 0.0000 0.0000
# 3 17.8304 17.8304 83.7482 0.0000 0.0000 0.0000
# 4 0.0000 0.0000 0.0000 23.0974 0.0000 0.0000
# 5 0.0000 0.0000 0.0000 0.0000 23.0975 0.0000
# 6 0.0000 0.0000 0.0000 0.0000 0.0000 22.3998
#
#
#
# Elastic Compliance Matrix: (Units=1/GPa)
#
#
# Indices 1 2 3 4 5 6 
#
# 1 0.026683 -0.019434 -0.001543 0.000000 0.000000 0.000000
# 2 -0.019434 0.026684 -0.001544 0.000000 0.000000 0.000000
# 3 -0.001543 -0.001544 0.012598 0.000000 0.000000 0.000000
# 4 0.000000 0.000000 0.000000 0.043295 0.000000 0.000000
# 5 0.000000 0.000000 0.000000 0.000000 0.043295 0.000000
# 6 0.000000 0.000000 0.000000 0.000000 0.000000 0.044643
#
#
# Mechanical properties :
#
#
# Convention : Reuss Voigt Hill
#
# Bulk Modulus (GPa) = 47.79432 49.57051 48.68241
# Shear Modulus (GPa) = 20.06317 23.94425 22.00371
#
# Velocity S-wave (km/s) = 3.33896 3.64764 3.49671
# Velocity P-wave (km/s) = 6.43608 6.72946 6.58440
#
# Compressibility (1/GPa) = 0.02092299
#
# Stress axis : x y z
#
# Youngs Moduli (GPa) = 37.47750 37.47576 79.37914
#
# Poissons Ratio (x) = 0.72830 0.12251
# Poissons Ratio (y) = 0.72833 0.12253
# Poissons Ratio (z) = 0.05784 0.05785
#
# Static dielectric constant tensor:
#      x y z
#    x 1.581740 0.000000 0.000000 
#    y 0.000000 1.581740 0.000000 
#    z 0.000000 0.000000 1.334260 
# 
# From -- ./inp_files/755.got.cif
#   From: 2010.05.17/outbox.cif.g08.bks.cpg/sg117_1_cif.got.tgz:755.got - 2010.05.20 11:15:09.
