data_PCOD9558935
_publ_section_title
;
Structure prediction by ZEFSAII (Michael W. Deem and Ramdas Pophale) SiO2 
 PCOD9558935
Probable space group: P -4 N 2
;
_chemical_formula_sum "Si O2"
_cell_formula_units_Z 32
_cell_length_a 8.577319
_cell_length_b 8.577319
_cell_length_c 22.106253
_cell_angle_alpha 90.000000
_cell_angle_beta 90.000000
_cell_angle_gamma 90.000000
_cell_volume 1626.365903
_symmetry_space_group_name_H-M "P -4 N 2"
_symmetry_group_IT_number 118
_symmetry_cell_setting 'tetragonal'
loop_
_space_group_symop_operation_xyz
x,y,z
y,-x,-z
-x,-y,z
-y,x,-z
1/2+y,1/2+x,1/2-z
1/2-y,1/2-x,1/2-z
1/2-x,1/2+y,1/2+z
1/2+x,1/2-y,1/2+z
loop_
_atom_site_type_symbol
_atom_site_label
_atom_site_fract_x
_atom_site_fract_y
_atom_site_fract_z
Si Si1 0.391898 0.157317 0.181818
Si Si2 0.536294 0.682354 0.419536
Si Si3 0.721008 0.617070 0.904972
Si Si4 0.160901 0.588463 0.013226
O O1 0.332169 0.167831 0.250000
O O2 0.247944 0.142506 0.135391
O O3 0.513238 0.284541 0.155046
O O4 0.500000 0.000000 0.179219
O O5 0.500000 0.500000 0.418631
O O6 0.377654 0.778378 0.407219
O O7 0.614445 0.746261 0.481643
O O8 0.592118 0.738416 0.926123
O O9 0.744322 0.499983 0.961090
O O10 0.000000 0.500000 0.023162
#
# Coordination Sequence:
#
# PCOD9558935 Si02
#       4
#     8   8   8   8
#     4   8  15  32  54  75 101 139 193 232 266 330
#     4   9  18  28  50  79 101 139 181 223 272 322
#     4   9  18  31  49  76 105 146 176 219 282 327
#     4   9  19  31  47  77 113 139 175 218 275 353
#
# _framework density 19.675768999999999
#
# number of rings (size 3 to 8) (size 9 to 14) (size 15 to 20)
#    0.000    3.250    0.000    3.000    7.000    0.500 
#    0.000    0.000   11.000    0.000    0.000   12.250 
#    0.000    0.000    0.000    0.000    0.000    0.000 
#
# Total GULP energy -178239.397876 kJ/mol
# GULP energy per Si atom -5569.981184 kJ/mol
# Density = 1.963099 g / cm^3
# Si number density = 19.675769 Si / 1000 Ang^3
#
#
#
# Elastic Constant Matrix: (Units=GPa)
#
#
# Indices 1 2 3 4 5 6 
#
# 1 73.2776 14.7977 44.9939 0.0000 0.0000 0.0000
# 2 14.7977 73.2775 44.9938 0.0000 0.0000 0.0000
# 3 44.9939 44.9938 130.8040 0.0000 0.0000 0.0000
# 4 0.0000 0.0000 0.0000 14.9087 0.0000 0.0000
# 5 0.0000 0.0000 0.0000 0.0000 14.9087 0.0000
# 6 0.0000 0.0000 0.0000 0.0000 0.0000 20.8992
#
#
#
# Elastic Compliance Matrix: (Units=1/GPa)
#
#
# Indices 1 2 3 4 5 6 
#
# 1 0.017303 0.000203 -0.006022 0.000000 0.000000 0.000000
# 2 0.000203 0.017303 -0.006022 0.000000 0.000000 0.000000
# 3 -0.006022 -0.006022 0.011788 0.000000 0.000000 0.000000
# 4 0.000000 0.000000 0.000000 0.067075 0.000000 0.000000
# 5 0.000000 0.000000 0.000000 0.000000 0.067075 0.000000
# 6 0.000000 0.000000 0.000000 0.000000 0.000000 0.047849
#
#
# Mechanical properties :
#
#
# Convention : Reuss Voigt Hill
#
# Bulk Modulus (GPa) = 44.02689 54.10334 49.06511
# Shear Modulus (GPa) = 19.25709 21.64824 20.45267
#
# Velocity S-wave (km/s) = 3.13185 3.32060 3.22760
# Velocity P-wave (km/s) = 5.95842 6.50069 6.23545
#
# Compressibility (1/GPa) = 0.02271339
#
# Stress axis : x y z
#
# Youngs Moduli (GPa) = 57.79269 57.79260 84.83314
#
# Poissons Ratio (x) = -0.01175 0.51086
# Poissons Ratio (y) = -0.01175 0.51086
# Poissons Ratio (z) = 0.34802 0.34802
#
# Static dielectric constant tensor:
#      x y z
#    x 1.753670 0.000000 0.000000 
#    y 0.000000 1.753670 0.000000 
#    z 0.000000 0.000000 1.698770 
# 
# From -- ./inp_files/5320.got.cif
#   From: 2010.05.17/outbox.cif.g08.bks.cpg/sg118_3_cif.got.tgz:5320.got - 2010.05.20 11:17:24.
