data_PCOD9558141
_publ_section_title
;
Structure prediction by ZEFSAII (Michael W. Deem and Ramdas Pophale) SiO2 
 PCOD9558141
Probable space group: P -4 B 2
;
_chemical_formula_sum "Si O2"
_cell_formula_units_Z 52
_cell_length_a 19.496480
_cell_length_b 19.496480
_cell_length_c 6.778457
_cell_angle_alpha 90.000000
_cell_angle_beta 90.000000
_cell_angle_gamma 90.000000
_cell_volume 2576.577812
_symmetry_space_group_name_H-M "P -4 B 2"
_symmetry_group_IT_number 117
_symmetry_cell_setting 'tetragonal'
loop_
_space_group_symop_operation_xyz
x,y,z
y,-x,-z
-x,-y,z
-y,x,-z
1/2+y,1/2+x,-z
1/2-y,1/2-x,-z
1/2-x,1/2+y,z
1/2+x,1/2-y,z
loop_
_atom_site_type_symbol
_atom_site_label
_atom_site_fract_x
_atom_site_fract_y
_atom_site_fract_z
Si Si1 0.168253 0.425245 0.875999
Si Si2 0.250002 0.750002 0.500000
Si Si3 0.331744 0.074761 0.875998
Si Si4 0.304564 0.363391 0.798092
Si Si5 0.924013 0.575988 0.500000
Si Si6 0.581830 0.581827 0.500000
Si Si7 0.075990 0.575990 0.500000
Si Si8 0.695432 0.363387 0.798092
O O1 0.148103 0.500004 0.957386
O O2 0.249370 0.420092 0.858711
O O3 0.133987 0.419349 0.662099
O O4 0.136308 0.363693 0.000000
O O5 0.313561 0.738007 0.350414
O O6 0.261997 0.686443 0.649586
O O7 0.366010 0.080655 0.662099
O O8 0.250626 0.079912 0.858709
O O9 0.363686 0.136315 0.000000
O O10 0.370526 0.392925 0.682246
O O11 0.326261 0.326264 0.999999
O O12 0.919541 0.499999 0.407271
O O13 0.592464 0.499998 0.467118
O O14 0.607079 0.629470 0.317753
#
# Coordination Sequence:
#
# PCOD9558141 Si02
#       8
#     8   4   8   8   4   8   4   8
#     4  11  22  36  57  87 122 160 201 244 294 356
#     4  10  20  38  62  88 128 168 204 254 310 368
#     4  11  22  36  57  87 122 160 201 244 294 356
#     4  11  23  40  63  92 125 163 209 260 316 381
#     4   9  19  36  57  83 120 164 203 241 287 343
#     4  10  24  46  68  90 118 156 208 272 338 400
#     4   9  19  36  57  83 120 164 203 241 287 343
#     4  11  23  40  63  92 125 163 209 260 316 381
#
# _framework density 20.181809999999999
#
# number of rings (size 3 to 8) (size 9 to 14) (size 15 to 20)
#    0.000    1.538    0.000    5.077    0.000    6.462 
#    0.000    1.538    0.000    0.000    0.000    0.000 
#    0.000    0.000    0.000    0.000    0.000    0.000 
#
# Total GULP energy -290049.772968 kJ/mol
# GULP energy per Si atom -5577.880249 kJ/mol
# Density = 2.013588 g / cm^3
# Si number density = 20.181810 Si / 1000 Ang^3
#
#
#
# Elastic Constant Matrix: (Units=GPa)
#
#
# Indices 1 2 3 4 5 6 
#
# 1 109.9201 60.2222 47.3113 0.0000 0.0000 0.0000
# 2 60.2222 109.9190 47.3115 0.0000 0.0000 0.0000
# 3 47.3113 47.3115 93.9464 0.0000 0.0000 0.0000
# 4 0.0000 0.0000 0.0000 21.7199 0.0000 0.0000
# 5 0.0000 0.0000 0.0000 0.0000 21.7198 0.0000
# 6 0.0000 0.0000 0.0000 0.0000 0.0000 35.0851
#
#
#
# Elastic Compliance Matrix: (Units=1/GPa)
#
#
# Indices 1 2 3 4 5 6 
#
# 1 0.014143 -0.005979 -0.004111 0.000000 0.000000 0.000000
# 2 -0.005979 0.014143 -0.004111 0.000000 0.000000 0.000000
# 3 -0.004111 -0.004111 0.014785 0.000000 0.000000 0.000000
# 4 0.000000 0.000000 0.000000 0.046041 0.000000 0.000000
# 5 0.000000 0.000000 0.000000 0.000000 0.046041 0.000000
# 6 0.000000 0.000000 0.000000 0.000000 0.000000 0.028502
#
#
# Mechanical properties :
#
#
# Convention : Reuss Voigt Hill
#
# Bulk Modulus (GPa) = 68.17666 69.27504 68.72585
# Shear Modulus (GPa) = 25.38748 26.30099 25.84424
#
# Velocity S-wave (km/s) = 3.55059 3.61391 3.58239
# Velocity P-wave (km/s) = 7.11783 7.19818 7.15812
#
# Compressibility (1/GPa) = 0.01466778
#
# Stress axis : x y z
#
# Youngs Moduli (GPa) = 70.70754 70.70646 67.63463
#
# Poissons Ratio (x) = 0.42275 0.27807
# Poissons Ratio (y) = 0.42275 0.27808
# Poissons Ratio (z) = 0.29070 0.29071
#
# Static dielectric constant tensor:
#      x y z
#    x 1.675070 0.000000 0.000000 
#    y 0.000000 1.675070 0.000000 
#    z 0.000000 0.000000 1.821090 
# 
# From -- ./inp_files/897.got.cif
#   From: 2010.05.17/outbox.cif.g08.bks.cpg/sg117_1_cif.got.tgz:897.got - 2010.05.20 11:15:09.
