data_PCOD9558175
_publ_section_title
;
Structure prediction by ZEFSAII (Michael W. Deem and Ramdas Pophale) SiO2 
 PCOD9558175
Probable space group: P -4 B 2
;
_chemical_formula_sum "Si O2"
_cell_formula_units_Z 34
_cell_length_a 9.070192
_cell_length_b 9.070192
_cell_length_c 19.056252
_cell_angle_alpha 90.000000
_cell_angle_beta 90.000000
_cell_angle_gamma 90.000000
_cell_volume 1567.727036
_symmetry_space_group_name_H-M "P -4 B 2"
_symmetry_group_IT_number 117
_symmetry_cell_setting 'tetragonal'
loop_
_space_group_symop_operation_xyz
x,y,z
y,-x,-z
-x,-y,z
-y,x,-z
1/2+y,1/2+x,-z
1/2-y,1/2-x,-z
1/2-x,1/2+y,z
1/2+x,1/2-y,z
loop_
_atom_site_type_symbol
_atom_site_label
_atom_site_fract_x
_atom_site_fract_y
_atom_site_fract_z
Si Si1 0.930079 0.801989 0.871782
Si Si2 0.852948 0.084355 0.663574
Si Si3 0.922183 0.768205 0.185705
Si Si4 0.863261 0.387552 0.581380
Si Si5 0.500000 0.500000 0.000000
O O1 0.865681 0.641354 0.859448
O O2 0.085915 0.829002 0.834762
O O3 0.813905 0.912967 0.834734
O O4 0.951260 0.865608 0.949951
O O5 0.747241 0.095719 0.731315
O O6 0.882793 0.242758 0.629157
O O7 0.777645 0.978306 0.607105
O O8 0.000000 0.000000 0.688095
O O9 0.845531 0.345531 0.500000
O O10 0.000000 0.500000 0.587411
#
# Coordination Sequence:
#
# PCOD9558175 Si02
#       5
#     8   8   8   8   2
#     4  10  21  39  63  91 134 159 218 252 320 381
#     4  12  24  44  69  92 133 175 221 281 343 399
#     4  10  22  40  61  95 123 168 208 270 312 385
#     4  11  28  43  65  97 128 173 226 276 342 412
#     4   8  20  40  64  96 128 176 198 272 316 388
#
# _framework density 21.687449999999998
#
# number of rings (size 3 to 8) (size 9 to 14) (size 15 to 20)
#    0.000    1.647    2.353    2.824    9.882    4.706 
#    0.000    0.000    0.000   11.294    0.000    0.000 
#    0.000    0.000    0.000    0.000    0.000    0.000 
#
# Total GULP energy -190095.702928 kJ/mol
# GULP energy per Si atom -5591.050086 kJ/mol
# Density = 2.163809 g / cm^3
# Si number density = 21.687450 Si / 1000 Ang^3
#
#
#
# Elastic Constant Matrix: (Units=GPa)
#
#
# Indices 1 2 3 4 5 6 
#
# 1 52.5924 25.7936 15.0364 0.0000 0.0000 0.0000
# 2 25.7936 52.5924 15.0364 0.0000 0.0000 0.0000
# 3 15.0364 15.0364 147.7316 0.0000 0.0000 0.0000
# 4 0.0000 0.0000 0.0000 -20.6292 0.0000 0.0000
# 5 0.0000 0.0000 0.0000 0.0000 -20.6292 0.0000
# 6 0.0000 0.0000 0.0000 0.0000 0.0000 34.9604
#
#
#
# Elastic Compliance Matrix: (Units=1/GPa)
#
#
# Indices 1 2 3 4 5 6 
#
# 1 0.025295 -0.012020 -0.001351 0.000000 0.000000 0.000000
# 2 -0.012020 0.025295 -0.001351 0.000000 0.000000 0.000000
# 3 -0.001351 -0.001351 0.007044 0.000000 0.000000 0.000000
# 4 0.000000 0.000000 0.000000 -0.048475 0.000000 0.000000
# 5 0.000000 0.000000 0.000000 0.000000 -0.048475 0.000000
# 6 0.000000 0.000000 0.000000 0.000000 0.000000 0.028604
#
#
# Mechanical properties :
#
#
# Convention : Reuss Voigt Hill
#
# Bulk Modulus (GPa) = 35.47265 40.51656 37.99461
# Shear Modulus (GPa) = 177.74603 11.87708 94.81155
#
# Velocity S-wave (km/s) = 9.06289 2.34273 6.61907
# Velocity P-wave (km/s) = 11.22080 5.10298 8.71627
#
# Compressibility (1/GPa) = 0.02819073
#
# Stress axis : x y z
#
# Youngs Moduli (GPa) = 39.53273 39.53273 141.96295
#
# Poissons Ratio (x) = 0.47517 0.19182
# Poissons Ratio (y) = 0.47517 0.19182
# Poissons Ratio (z) = 0.05342 0.05342
#
# Static dielectric constant tensor:
#      x y z
#    x 1.792420 0.000000 0.000000 
#    y 0.000000 1.792420 0.000000 
#    z 0.000000 0.000000 1.773340 
# 
# From -- ./inp_files/3445.got.cif
#   From: 2010.05.17/outbox.cif.g08.bks.cpg/sg117_2_cif.got.tgz:3445.got - 2010.05.20 11:15:09.
