data_PCOD9558149
_publ_section_title
;
Structure prediction by ZEFSAII (Michael W. Deem and Ramdas Pophale) SiO2 
 PCOD9558149
Probable space group: P -4 B 2
;
_chemical_formula_sum "Si O2"
_cell_formula_units_Z 38
_cell_length_a 18.135157
_cell_length_b 18.135157
_cell_length_c 5.170817
_cell_angle_alpha 90.000000
_cell_angle_beta 90.000000
_cell_angle_gamma 90.000000
_cell_volume 1700.598562
_symmetry_space_group_name_H-M "P -4 B 2"
_symmetry_group_IT_number 117
_symmetry_cell_setting 'tetragonal'
loop_
_space_group_symop_operation_xyz
x,y,z
y,-x,-z
-x,-y,z
-y,x,-z
1/2+y,1/2+x,-z
1/2-y,1/2-x,-z
1/2-x,1/2+y,z
1/2+x,1/2-y,z
loop_
_atom_site_type_symbol
_atom_site_label
_atom_site_fract_x
_atom_site_fract_y
_atom_site_fract_z
Si Si1 0.000000 0.500000 0.000000
Si Si2 0.775430 0.928403 0.791813
Si Si3 0.731833 0.564945 0.507300
Si Si4 0.165421 0.208073 0.001498
Si Si5 0.167245 0.667245 0.500000
Si Si6 0.475412 0.157333 0.808175
O O1 0.998718 0.575271 0.845421
O O2 0.816134 0.879516 0.008356
O O3 0.744290 0.860891 0.613990
O O4 0.812531 0.992057 0.615984
O O5 0.710846 0.972406 0.943884
O O6 0.712776 0.612015 0.250251
O O7 0.806048 0.524298 0.413903
O O8 0.733004 0.621266 0.744230
O O9 0.237865 0.262136 0.000000
O O10 0.152497 0.608873 0.277440
#
# Coordination Sequence:
#
# PCOD9558149 Si02
#       6
#     2   8   8   8   4   8
#     4  12  24  38  68  96 154 212 246 272 386 448
#     4  11  24  47  72 101 150 187 258 300 376 451
#     4  11  27  46  68 108 145 183 239 327 370 423
#     4  12  27  45  76 106 142 196 248 302 388 449
#     4  10  20  39  66  98 136 190 242 289 344 430
#     4  11  23  43  61 103 146 193 239 299 348 451
#
# _framework density 22.345075999999999
#
# number of rings (size 3 to 8) (size 9 to 14) (size 15 to 20)
#    0.000    0.842    4.211    1.895   10.316    2.105 
#    0.000    0.000    0.000    3.789    0.000    0.000 
#    0.000    0.000    0.000    0.000    0.000    0.000 
#
# Total GULP energy -211774.534309 kJ/mol
# GULP energy per Si atom -5573.014061 kJ/mol
# Density = 2.229422 g / cm^3
# Si number density = 22.345076 Si / 1000 Ang^3
#
#
#
# Elastic Constant Matrix: (Units=GPa)
#
#
# Indices 1 2 3 4 5 6 
#
# 1 95.5856 32.5397 40.7537 0.0000 0.0000 0.0000
# 2 32.5397 95.5862 40.7545 0.0000 0.0000 0.0000
# 3 40.7537 40.7545 145.6373 0.0000 0.0000 0.0000
# 4 0.0000 0.0000 0.0000 30.2117 0.0000 0.0000
# 5 0.0000 0.0000 0.0000 0.0000 30.2132 0.0000
# 6 0.0000 0.0000 0.0000 0.0000 0.0000 24.6155
#
#
#
# Elastic Compliance Matrix: (Units=1/GPa)
#
#
# Indices 1 2 3 4 5 6 
#
# 1 0.012678 -0.003183 -0.002657 0.000000 0.000000 0.000000
# 2 -0.003183 0.012678 -0.002657 0.000000 0.000000 0.000000
# 3 -0.002657 -0.002657 0.008353 0.000000 0.000000 0.000000
# 4 0.000000 0.000000 0.000000 0.033100 0.000000 0.000000
# 5 0.000000 0.000000 0.000000 0.000000 0.033098 0.000000
# 6 0.000000 0.000000 0.000000 0.000000 0.000000 0.040625
#
#
# Mechanical properties :
#
#
# Convention : Reuss Voigt Hill
#
# Bulk Modulus (GPa) = 59.82467 62.76722 61.29594
# Shear Modulus (GPa) = 30.65623 31.85882 31.25753
#
# Velocity S-wave (km/s) = 3.70800 3.78003 3.74418
# Velocity P-wave (km/s) = 6.72038 6.87040 6.79581
#
# Compressibility (1/GPa) = 0.01671551
#
# Stress axis : x y z
#
# Youngs Moduli (GPa) = 78.87504 78.87527 119.71119
#
# Poissons Ratio (x) = 0.25107 0.31808
# Poissons Ratio (y) = 0.25107 0.31808
# Poissons Ratio (z) = 0.20957 0.20958
#
# Static dielectric constant tensor:
#      x y z
#    x 2.133770 0.000000 0.000000 
#    y 0.000000 2.133750 0.000000 
#    z 0.000000 0.000000 1.951630 
# 
# From -- ./inp_files/619.got.cif
#   From: 2010.05.17/outbox.cif.g08.bks.cpg/sg117_1_cif.got.tgz:619.got - 2010.05.20 11:15:09.
