data_PCOD9558661
_publ_section_title
;
Structure prediction by ZEFSAII (Michael W. Deem and Ramdas Pophale) SiO2 
 PCOD9558661
Probable space group: P -4 N 2
;
_chemical_formula_sum "Si O2"
_cell_formula_units_Z 48
_cell_length_a 8.209805
_cell_length_b 8.209805
_cell_length_c 31.431040
_cell_angle_alpha 90.000000
_cell_angle_beta 90.000000
_cell_angle_gamma 90.000000
_cell_volume 2118.480325
_symmetry_space_group_name_H-M "P -4 N 2"
_symmetry_group_IT_number 118
_symmetry_cell_setting 'tetragonal'
loop_
_space_group_symop_operation_xyz
x,y,z
y,-x,-z
-x,-y,z
-y,x,-z
1/2+y,1/2+x,1/2-z
1/2-y,1/2-x,1/2-z
1/2-x,1/2+y,1/2+z
1/2+x,1/2-y,1/2+z
loop_
_atom_site_type_symbol
_atom_site_label
_atom_site_fract_x
_atom_site_fract_y
_atom_site_fract_z
Si Si1 0.625599 0.114767 0.329643
Si Si2 0.907565 0.761751 0.918062
Si Si3 0.245402 0.402082 0.428116
Si Si4 0.364918 0.389881 0.136590
Si Si5 0.242077 0.415857 0.993755
Si Si6 0.839661 0.403805 0.200349
O O1 0.549293 0.193491 0.371943
O O2 0.724856 0.266485 0.310473
O O3 0.500000 0.000000 0.303969
O O4 0.747677 0.977735 0.346505
O O5 0.831957 0.624257 0.947906
O O6 0.074345 0.830942 0.937203
O O7 0.779000 0.911772 0.914129
O O8 0.163063 0.284869 0.392936
O O9 0.140941 0.384777 0.470521
O O10 0.500000 0.500000 0.112045
O O11 0.298298 0.483440 0.178469
O O12 0.302444 0.599055 0.999202
O O13 0.880030 0.380030 0.250000
O O14 0.000000 0.500000 0.183347
#
# Coordination Sequence:
#
# PCOD9558661 Si02
#       6
#     8   8   8   8   8   8
#     4  11  22  42  71 101 136 175 225 289 353 420
#     4  11  24  41  64  95 136 181 230 291 346 415
#     4  11  23  41  65  94 133 181 237 283 347 418
#     4  10  22  40  69  96 131 173 222 276 349 421
#     4  11  26  40  60  93 135 185 238 291 347 408
#     4  10  23  45  69  98 137 176 224 277 345 430
#
# _framework density 22.657748999999999
#
# number of rings (size 3 to 8) (size 9 to 14) (size 15 to 20)
#    0.000    1.333    1.667    3.000    7.000    3.667 
#    0.000   10.000    0.000    0.000    0.000    0.000 
#    0.000    0.000    0.000    0.000    0.000    0.000 
#
# Total GULP energy -267785.143184 kJ/mol
# GULP energy per Si atom -5578.857150 kJ/mol
# Density = 2.260618 g / cm^3
# Si number density = 22.657749 Si / 1000 Ang^3
#
#
#
# Elastic Constant Matrix: (Units=GPa)
#
#
# Indices 1 2 3 4 5 6 
#
# 1 103.7861 40.4200 24.6117 0.0000 0.0000 0.0000
# 2 40.4200 103.7861 24.6117 0.0000 0.0000 0.0000
# 3 24.6117 24.6117 66.4650 0.0000 0.0000 0.0000
# 4 0.0000 0.0000 0.0000 21.3684 0.0000 0.0000
# 5 0.0000 0.0000 0.0000 0.0000 21.3684 0.0000
# 6 0.0000 0.0000 0.0000 0.0000 0.0000 52.8113
#
#
#
# Elastic Compliance Matrix: (Units=1/GPa)
#
#
# Indices 1 2 3 4 5 6 
#
# 1 0.011860 -0.003922 -0.002939 0.000000 0.000000 0.000000
# 2 -0.003922 0.011860 -0.002939 0.000000 0.000000 0.000000
# 3 -0.002939 -0.002939 0.017222 0.000000 0.000000 0.000000
# 4 0.000000 0.000000 0.000000 0.046798 0.000000 0.000000
# 5 0.000000 0.000000 0.000000 0.000000 0.046798 0.000000
# 6 0.000000 0.000000 0.000000 0.000000 0.000000 0.018935
#
#
# Mechanical properties :
#
#
# Convention : Reuss Voigt Hill
#
# Bulk Modulus (GPa) = 46.85893 50.36936 48.61414
# Shear Modulus (GPa) = 27.74891 31.40256 29.57573
#
# Velocity S-wave (km/s) = 3.50337 3.72688 3.61685
# Velocity P-wave (km/s) = 6.09023 6.38735 6.24056
#
# Compressibility (1/GPa) = 0.02134065
#
# Stress axis : x y z
#
# Youngs Moduli (GPa) = 84.32008 84.32008 58.06398
#
# Poissons Ratio (x) = 0.33068 0.17067
# Poissons Ratio (y) = 0.33068 0.17067
# Poissons Ratio (z) = 0.24785 0.24785
#
# Static dielectric constant tensor:
#      x y z
#    x 2.001200 0.000000 0.000000 
#    y 0.000000 2.001200 0.000000 
#    z 0.000000 0.000000 1.825420 
# 
# From -- ./inp_files/6858.got.cif
#   From: 2010.05.17/outbox.cif.g08.bks.cpg/sg118_4_cif.got.tgz:6858.got - 2010.05.20 11:17:24.
