data_PCOD9558686
_publ_section_title
;
Structure prediction by ZEFSAII (Michael W. Deem and Ramdas Pophale) SiO2 
 PCOD9558686
Probable space group: P -4 N 2
;
_chemical_formula_sum "Si O2"
_cell_formula_units_Z 20
_cell_length_a 9.005095
_cell_length_b 9.005095
_cell_length_c 10.346061
_cell_angle_alpha 90.000000
_cell_angle_beta 90.000000
_cell_angle_gamma 90.000000
_cell_volume 838.980047
_symmetry_space_group_name_H-M "P -4 N 2"
_symmetry_group_IT_number 118
_symmetry_cell_setting 'tetragonal'
loop_
_space_group_symop_operation_xyz
x,y,z
y,-x,-z
-x,-y,z
-y,x,-z
1/2+y,1/2+x,1/2-z
1/2-y,1/2-x,1/2-z
1/2-x,1/2+y,1/2+z
1/2+x,1/2-y,1/2+z
loop_
_atom_site_type_symbol
_atom_site_label
_atom_site_fract_x
_atom_site_fract_y
_atom_site_fract_z
Si Si1 0.787142 0.455898 0.860257
Si Si2 0.759040 0.305427 0.388985
Si Si3 0.000000 0.000000 0.794494
O O1 0.893770 0.393770 0.750000
O O2 0.791797 0.632369 0.885948
O O3 0.622231 0.428439 0.801668
O O4 0.820885 0.365591 0.989808
O O5 0.834753 0.334753 0.250000
O O6 0.619114 0.413396 0.380311
#
# Coordination Sequence:
#
# PCOD9558686 Si02
#       3
#     8   8   4
#     4  11  24  44  74 106 143 188 233 290 353 414
#     4  10  22  43  72 106 143 185 235 290 350 414
#     4  10  24  44  72 108 142 184 236 292 348 418
#
# _framework density 23.838470000000001
#
# number of rings (size 3 to 8) (size 9 to 14) (size 15 to 20)
#    0.000    1.600    0.000    4.800    0.000   16.800 
#    0.000    0.000    0.000   27.600    0.000    8.400 
#    0.000    0.000    0.000    0.000    0.000    0.000 
#
# Total GULP energy -112001.877864 kJ/mol
# GULP energy per Si atom -5600.093893 kJ/mol
# Density = 2.378421 g / cm^3
# Si number density = 23.838470 Si / 1000 Ang^3
#
#
#
# Elastic Constant Matrix: (Units=GPa)
#
#
# Indices 1 2 3 4 5 6 
#
# 1 129.2751 59.4302 82.4877 0.0000 0.0000 0.0000
# 2 59.4302 129.2751 82.4877 0.0000 0.0000 0.0000
# 3 82.4877 82.4877 230.4743 0.0000 0.0000 0.0000
# 4 0.0000 0.0000 0.0000 21.2283 0.0000 0.0000
# 5 0.0000 0.0000 0.0000 0.0000 21.2283 0.0000
# 6 0.0000 0.0000 0.0000 0.0000 0.0000 51.5619
#
#
#
# Elastic Compliance Matrix: (Units=1/GPa)
#
#
# Indices 1 2 3 4 5 6 
#
# 1 0.011015 -0.003302 -0.002760 0.000000 0.000000 0.000000
# 2 -0.003302 0.011015 -0.002760 0.000000 0.000000 0.000000
# 3 -0.002760 -0.002760 0.006315 0.000000 0.000000 0.000000
# 4 0.000000 0.000000 0.000000 0.047107 0.000000 0.000000
# 5 0.000000 0.000000 0.000000 0.000000 0.047107 0.000000
# 6 0.000000 0.000000 0.000000 0.000000 0.000000 0.019394
#
#
# Mechanical properties :
#
#
# Convention : Reuss Voigt Hill
#
# Bulk Modulus (GPa) = 93.47196 104.20396 98.83796
# Shear Modulus (GPa) = 30.64382 36.44497 33.54439
#
# Velocity S-wave (km/s) = 3.58925 3.91427 3.75527
# Velocity P-wave (km/s) = 7.51482 8.01474 7.76880
#
# Compressibility (1/GPa) = 0.01069840
#
# Stress axis : x y z
#
# Youngs Moduli (GPa) = 90.78562 90.78562 158.35945
#
# Poissons Ratio (x) = 0.29982 0.43712
# Poissons Ratio (y) = 0.29982 0.43712
# Poissons Ratio (z) = 0.25060 0.25060
#
# Static dielectric constant tensor:
#      x y z
#    x 1.954680 0.000000 0.000000 
#    y 0.000000 1.954680 0.000000 
#    z 0.000000 0.000000 1.921070 
# 
# From -- ./inp_files/2538.got.cif
#   From: 2010.05.17/outbox.cif.g08.bks.cpg/sg118_2_cif.got.tgz:2538.got - 2010.05.20 11:17:24.
