data_PCOD9558565
_publ_section_title
;
Structure prediction by ZEFSAII (Michael W. Deem and Ramdas Pophale) SiO2 
 PCOD9558565
Probable space group: P -4 N 2
;
_chemical_formula_sum "Si O2"
_cell_formula_units_Z 48
_cell_length_a 18.456038
_cell_length_b 18.456038
_cell_length_c 5.226156
_cell_angle_alpha 90.000000
_cell_angle_beta 90.000000
_cell_angle_gamma 90.000000
_cell_volume 1780.161157
_symmetry_space_group_name_H-M "P -4 N 2"
_symmetry_group_IT_number 118
_symmetry_cell_setting 'tetragonal'
loop_
_space_group_symop_operation_xyz
x,y,z
y,-x,-z
-x,-y,z
-y,x,-z
1/2+y,1/2+x,1/2-z
1/2-y,1/2-x,1/2-z
1/2-x,1/2+y,1/2+z
1/2+x,1/2-y,1/2+z
loop_
_atom_site_type_symbol
_atom_site_label
_atom_site_fract_x
_atom_site_fract_y
_atom_site_fract_z
Si Si1 0.656825 0.702524 0.670028
Si Si2 0.278061 0.859525 0.952503
Si Si3 0.177651 0.931225 0.547197
Si Si4 0.043725 0.698936 0.387833
Si Si5 0.631161 0.019269 0.144187
Si Si6 0.089868 0.061066 0.096864
O O1 0.732812 0.711854 0.524032
O O2 0.620146 0.770003 0.802165
O O3 0.593211 0.666723 0.493099
O O4 0.679032 0.636064 0.855735
O O5 0.339768 0.839768 0.750000
O O6 0.217608 0.904385 0.805583
O O7 0.312903 0.912337 0.159824
O O8 0.226443 0.002413 0.513995
O O9 0.095261 0.936081 0.638400
O O10 0.038887 0.650385 0.639595
O O11 0.010026 0.652091 0.144518
O O12 0.557041 0.057041 0.250000
O O13 0.025181 0.088281 0.909825
#
# Coordination Sequence:
#
# PCOD9558565 Si02
#       6
#     8   8   8   8   8   8
#     4  11  23  34  54  81 116 162 200 262 311 368
#     4  10  22  37  57  82 115 157 206 256 319 383
#     4  10  21  34  51  75 110 157 201 254 300 358
#     4  11  23  38  59  84 120 153 206 254 310 364
#     4  11  22  41  63  86 111 157 208 260 305 369
#     4  10  21  33  46  67 105 157 216 255 293 343
#
# _framework density 26.963854000000001
#
# number of rings (size 3 to 8) (size 9 to 14) (size 15 to 20)
#    0.000    1.500    3.333    2.500    7.000    0.000 
#    0.000    1.667    0.000    0.000    0.000    0.000 
#    0.000    0.667    1.000    0.000    0.000    0.000 
#
# Total GULP energy -267933.416597 kJ/mol
# GULP energy per Si atom -5581.946179 kJ/mol
# Density = 2.690248 g / cm^3
# Si number density = 26.963854 Si / 1000 Ang^3
#
#
#
# Elastic Constant Matrix: (Units=GPa)
#
#
# Indices 1 2 3 4 5 6 
#
# 1 78.9190 62.4920 36.3697 0.0000 0.0000 0.0000
# 2 62.4920 78.9190 36.3697 0.0000 0.0000 0.0000
# 3 36.3697 36.3697 128.8508 0.0000 0.0000 0.0000
# 4 0.0000 0.0000 0.0000 35.4952 0.0000 0.0000
# 5 0.0000 0.0000 0.0000 0.0000 35.4952 0.0000
# 6 0.0000 0.0000 0.0000 0.0000 0.0000 49.0800
#
#
#
# Elastic Compliance Matrix: (Units=1/GPa)
#
#
# Indices 1 2 3 4 5 6 
#
# 1 0.034574 -0.026301 -0.002335 0.000000 0.000000 0.000000
# 2 -0.026301 0.034574 -0.002335 0.000000 0.000000 0.000000
# 3 -0.002335 -0.002335 0.009079 0.000000 0.000000 0.000000
# 4 0.000000 0.000000 0.000000 0.028173 0.000000 0.000000
# 5 0.000000 0.000000 0.000000 0.000000 0.028173 0.000000
# 6 0.000000 0.000000 0.000000 0.000000 0.000000 0.020375
#
#
# Mechanical properties :
#
#
# Convention : Reuss Voigt Hill
#
# Bulk Modulus (GPa) = 61.40907 61.90576 61.65741
# Shear Modulus (GPa) = 22.49018 34.11121 28.30070
#
# Velocity S-wave (km/s) = 2.89119 3.56064 3.24324
# Velocity P-wave (km/s) = 5.82832 6.31766 6.07792
#
# Compressibility (1/GPa) = 0.01628424
#
# Stress axis : x y z
#
# Youngs Moduli (GPa) = 28.92335 28.92335 110.14276
#
# Poissons Ratio (x) = 0.76073 0.25719
# Poissons Ratio (y) = 0.76073 0.25719
# Poissons Ratio (z) = 0.06754 0.06754
#
# Static dielectric constant tensor:
#      x y z
#    x 2.148630 0.000000 0.000000 
#    y 0.000000 2.148630 0.000000 
#    z 0.000000 0.000000 2.372770 
# 
# From -- ./inp_files/823.got.cif
#   From: 2010.05.17/outbox.cif.g08.bks.cpg/sg118_1_cif.got.tgz:823.got - 2010.05.20 11:17:24.
