data_PCOD9558890
_publ_section_title
;
Structure prediction by ZEFSAII (Michael W. Deem and Ramdas Pophale) SiO2 
 PCOD9558890
Probable space group: P -4 N 2
;
_chemical_formula_sum "Si O2"
_cell_formula_units_Z 32
_cell_length_a 9.134278
_cell_length_b 9.134278
_cell_length_c 16.092674
_cell_angle_alpha 90.000000
_cell_angle_beta 90.000000
_cell_angle_gamma 90.000000
_cell_volume 1342.692812
_symmetry_space_group_name_H-M "P -4 N 2"
_symmetry_group_IT_number 118
_symmetry_cell_setting 'tetragonal'
loop_
_space_group_symop_operation_xyz
x,y,z
y,-x,-z
-x,-y,z
-y,x,-z
1/2+y,1/2+x,1/2-z
1/2-y,1/2-x,1/2-z
1/2-x,1/2+y,1/2+z
1/2+x,1/2-y,1/2+z
loop_
_atom_site_type_symbol
_atom_site_label
_atom_site_fract_x
_atom_site_fract_y
_atom_site_fract_z
Si Si1 0.655126 0.285755 0.876872
Si Si2 0.000000 0.500000 0.117800
Si Si3 0.000000 0.000000 0.000000
Si Si4 0.242831 0.191319 0.956917
Si Si5 0.000000 0.000000 0.500000
Si Si6 0.053737 0.335369 0.665728
O O1 0.581696 0.139604 0.840177
O O2 0.541069 0.368761 0.938144
O O3 0.729990 0.412737 0.822482
O O4 0.775431 0.241406 0.945217
O O5 0.915094 0.376503 0.065261
O O6 0.094935 0.103832 0.941732
O O7 0.229948 0.340691 0.904561
O O8 0.145250 0.354750 0.750000
O O9 0.000000 0.500000 0.644088
#
# Coordination Sequence:
#
# PCOD9558890 Si02
#       6
#     8   4   2   8   2   8
#     4  12  22  39  72 107 147 189 254 327 387 462
#     4  12  24  38  69 116 145 186 250 334 398 444
#     4  12  24  36  62 104 144 184 242 320 388 440
#     4  12  23  40  70 110 147 190 250 327 389 459
#     4  12  20  36  70 112 148 184 256 330 384 456
#     4  11  26  48  74 102 149 208 261 307 398 489
#
# _framework density 23.832705000000001
#
# number of rings (size 3 to 8) (size 9 to 14) (size 15 to 20)
#    0.000    0.250    7.500    1.500    3.500    0.000 
#    0.000    4.375    0.000    0.000    0.000    0.000 
#    0.000    0.000    0.000    0.000    0.000    0.000 
#
# Total GULP energy -178787.739043 kJ/mol
# GULP energy per Si atom -5587.116845 kJ/mol
# Density = 2.377846 g / cm^3
# Si number density = 23.832705 Si / 1000 Ang^3
#
#
#
# Elastic Constant Matrix: (Units=GPa)
#
#
# Indices 1 2 3 4 5 6 
#
# 1 138.3380 45.3696 16.6117 0.0000 0.0000 0.0000
# 2 45.3696 138.3380 16.6117 0.0000 0.0000 0.0000
# 3 16.6117 16.6117 75.8843 0.0000 0.0000 0.0000
# 4 0.0000 0.0000 0.0000 13.8226 0.0000 0.0000
# 5 0.0000 0.0000 0.0000 0.0000 13.8226 0.0000
# 6 0.0000 0.0000 0.0000 0.0000 0.0000 87.7952
#
#
#
# Elastic Compliance Matrix: (Units=1/GPa)
#
#
# Indices 1 2 3 4 5 6 
#
# 1 0.008212 -0.002544 -0.001241 0.000000 0.000000 0.000000
# 2 -0.002544 0.008212 -0.001241 0.000000 0.000000 0.000000
# 3 -0.001241 -0.001241 0.013721 0.000000 0.000000 0.000000
# 4 0.000000 0.000000 0.000000 0.072345 0.000000 0.000000
# 5 0.000000 0.000000 0.000000 0.000000 0.072345 0.000000
# 6 0.000000 0.000000 0.000000 0.000000 0.000000 0.011390
#
#
# Mechanical properties :
#
#
# Convention : Reuss Voigt Hill
#
# Bulk Modulus (GPa) = 49.76643 56.63850 53.20246
# Shear Modulus (GPa) = 24.63350 41.35256 32.99303
#
# Velocity S-wave (km/s) = 3.21845 4.16999 3.72473
# Velocity P-wave (km/s) = 5.89391 6.85578 6.39296
#
# Compressibility (1/GPa) = 0.02009387
#
# Stress axis : x y z
#
# Youngs Moduli (GPa) = 121.77187 121.77187 72.88010
#
# Poissons Ratio (x) = 0.30982 0.09042
# Poissons Ratio (y) = 0.30982 0.09042
# Poissons Ratio (z) = 0.15109 0.15109
#
# Static dielectric constant tensor:
#      x y z
#    x 2.070420 0.000000 0.000000 
#    y 0.000000 2.070420 0.000000 
#    z 0.000000 0.000000 1.881480 
# 
# From -- ./inp_files/5417.got.cif
#   From: 2010.05.17/outbox.cif.g08.bks.cpg/sg118_3_cif.got.tgz:5417.got - 2010.05.20 11:17:24.
