data_PCOD9558129
_publ_section_title
;
Structure prediction by ZEFSAII (Michael W. Deem and Ramdas Pophale) SiO2 
 PCOD9558129
Probable space group: P -4 B 2
;
_chemical_formula_sum "Si O2"
_cell_formula_units_Z 48
_cell_length_a 16.897386
_cell_length_b 16.897386
_cell_length_c 8.758700
_cell_angle_alpha 90.000000
_cell_angle_beta 90.000000
_cell_angle_gamma 90.000000
_cell_volume 2500.798508
_symmetry_space_group_name_H-M "P -4 B 2"
_symmetry_group_IT_number 117
_symmetry_cell_setting 'tetragonal'
loop_
_space_group_symop_operation_xyz
x,y,z
y,-x,-z
-x,-y,z
-y,x,-z
1/2+y,1/2+x,-z
1/2-y,1/2-x,-z
1/2-x,1/2+y,z
1/2+x,1/2-y,z
loop_
_atom_site_type_symbol
_atom_site_label
_atom_site_fract_x
_atom_site_fract_y
_atom_site_fract_z
Si Si1 0.418844 0.034943 0.173058
Si Si2 0.662733 0.392921 0.310214
Si Si3 0.178558 0.680887 0.182825
Si Si4 0.118169 0.954082 0.956033
Si Si5 0.248923 0.452902 0.202079
Si Si6 0.199498 0.812655 0.398993
O O1 0.383182 0.115308 0.242912
O O2 0.500000 0.000000 0.242299
O O3 0.341380 0.978981 0.171360
O O4 0.442189 0.057812 0.000000
O O5 0.732473 0.341246 0.231679
O O6 0.584003 0.381674 0.211186
O O7 0.699869 0.479870 0.289850
O O8 0.653226 0.363942 0.482377
O O9 0.158480 0.761979 0.265492
O O10 0.179346 0.679346 0.000000
O O11 0.200337 0.941970 0.046448
O O12 0.046139 0.907097 0.040181
O O13 0.250311 0.377507 0.310368
O O14 0.255521 0.755521 0.500000
#
# Coordination Sequence:
#
# PCOD9558129 Si02
#       6
#     8   8   8   8   8   8
#     4   9  19  39  58  87 117 147 199 255 302 350
#     4   9  19  35  54  82 119 155 188 243 303 349
#     4   9  17  34  60  79 110 156 202 246 298 353
#     4   9  18  34  58  90 119 148 194 243 295 362
#     4  10  20  37  60  83 117 155 197 244 296 365
#     4  10  21  37  52  83 120 153 203 245 295 361
#
# _framework density 19.193868999999999
#
# number of rings (size 3 to 8) (size 9 to 14) (size 15 to 20)
#    0.000    2.667    0.000    1.000    0.000    2.667 
#   18.000    0.000    0.000    0.000    0.000    0.000 
#    0.000    0.000    0.000    0.000    0.000    0.000 
#
# Total GULP energy -267377.977342 kJ/mol
# GULP energy per Si atom -5570.374528 kJ/mol
# Density = 1.915018 g / cm^3
# Si number density = 19.193869 Si / 1000 Ang^3
#
#
#
# Elastic Constant Matrix: (Units=GPa)
#
#
# Indices 1 2 3 4 5 6 
#
# 1 87.1080 38.1300 47.4634 0.0000 0.0000 0.0000
# 2 38.1300 87.1079 47.4634 0.0000 0.0000 0.0000
# 3 47.4634 47.4634 79.7352 0.0000 0.0000 0.0000
# 4 0.0000 0.0000 0.0000 13.4427 0.0000 0.0000
# 5 0.0000 0.0000 0.0000 0.0000 13.4431 0.0000
# 6 0.0000 0.0000 0.0000 0.0000 0.0000 13.5751
#
#
#
# Elastic Compliance Matrix: (Units=1/GPa)
#
#
# Indices 1 2 3 4 5 6 
#
# 1 0.017483 -0.002934 -0.008661 0.000000 0.000000 0.000000
# 2 -0.002934 0.017483 -0.008661 0.000000 0.000000 0.000000
# 3 -0.008661 -0.008661 0.022852 0.000000 0.000000 0.000000
# 4 0.000000 0.000000 0.000000 0.074390 0.000000 0.000000
# 5 0.000000 0.000000 0.000000 0.000000 0.074388 0.000000
# 6 0.000000 0.000000 0.000000 0.000000 0.000000 0.073664
#
#
# Mechanical properties :
#
#
# Convention : Reuss Voigt Hill
#
# Bulk Modulus (GPa) = 57.77595 57.78496 57.78046
# Shear Modulus (GPa) = 15.31202 16.15180 15.73191
#
# Velocity S-wave (km/s) = 2.82752 2.90402 2.86603
# Velocity P-wave (km/s) = 6.38956 6.43551 6.41257
#
# Compressibility (1/GPa) = 0.01730824
#
# Stress axis : x y z
#
# Youngs Moduli (GPa) = 57.19737 57.19727 43.75940
#
# Poissons Ratio (x) = 0.16782 0.37898
# Poissons Ratio (y) = 0.16782 0.37899
# Poissons Ratio (z) = 0.49537 0.49537
#
# Static dielectric constant tensor:
#      x y z
#    x 1.701010 0.000000 0.000000 
#    y 0.000000 1.701010 0.000000 
#    z 0.000000 0.000000 1.656030 
# 
# From -- ./inp_files/1963.got.cif
#   From: 2010.05.17/outbox.cif.g08.bks.cpg/sg117_1_cif.got.tgz:1963.got - 2010.05.20 11:15:09.
