data_PCOD9558019
_publ_section_title
;
Structure prediction by ZEFSAII (Michael W. Deem and Ramdas Pophale) SiO2 
 PCOD9558019
Probable space group: P -4 C 2
;
_chemical_formula_sum "Si O2"
_cell_formula_units_Z 36
_cell_length_a 13.138790
_cell_length_b 13.138790
_cell_length_c 10.318991
_cell_angle_alpha 90.000000
_cell_angle_beta 90.000000
_cell_angle_gamma 90.000000
_cell_volume 1781.344742
_symmetry_space_group_name_H-M "P -4 C 2"
_symmetry_group_IT_number 116
_symmetry_cell_setting 'tetragonal'
loop_
_space_group_symop_operation_xyz
x,y,z
y,-x,-z
-x,-y,z
-y,x,-z
y,x,1/2-z
-y,-x,1/2-z
-x,y,1/2+z
x,-y,1/2+z
loop_
_atom_site_type_symbol
_atom_site_label
_atom_site_fract_x
_atom_site_fract_y
_atom_site_fract_z
Si Si1 0.000000 0.000000 0.500000
Si Si2 0.700452 0.200452 0.499999
Si Si3 0.307155 0.551026 0.829342
Si Si4 0.500000 0.500000 0.000000
Si Si5 0.671403 0.328598 0.250000
Si Si6 0.948978 0.807156 0.670659
Si Si7 0.171405 0.171405 0.250000
O O1 0.016298 0.099429 0.582562
O O2 0.595746 0.218147 0.580178
O O3 0.710889 0.285733 0.387699
O O4 0.718149 0.095746 0.419820
O O5 0.785733 0.210890 0.612299
O O6 0.354493 0.645508 0.750000
O O7 0.400572 0.516306 0.917438
O O8 0.295232 0.448292 0.746146
O O9 0.854498 0.854498 0.750000
O O10 0.051711 0.795229 0.753856
#
# Coordination Sequence:
#
# PCOD9558019 Si02
#       7
#     2   8   8   2   4   8   4
#     4  12  18  36  72 102 128 174 232 290 340 410
#     4  12  26  40  66 106 142 176 232 306 354 424
#     4  12  21  39  65 104 134 173 224 289 355 413
#     4  12  18  36  72 102 128 174 232 290 340 410
#     4  12  25  40  68  99 138 180 232 290 354 429
#     4  12  21  39  65 104 134 173 224 289 355 413
#     4  12  25  40  68  99 138 180 232 290 354 429
#
# _framework density 20.209451999999999
#
# number of rings (size 3 to 8) (size 9 to 14) (size 15 to 20)
#    0.000    0.000   11.111    0.000    0.000    0.000 
#    0.000    0.000    0.000   10.667    0.000    0.000 
#    0.000    0.000    0.000    0.000    0.000    0.000 
#
# Total GULP energy -200472.961269 kJ/mol
# GULP energy per Si atom -5568.693369 kJ/mol
# Density = 2.016345 g / cm^3
# Si number density = 20.209452 Si / 1000 Ang^3
#
#
#
# Elastic Constant Matrix: (Units=GPa)
#
#
# Indices 1 2 3 4 5 6 
#
# 1 52.2378 45.9242 29.6489 0.0000 0.0000 0.0000
# 2 45.9242 52.2387 29.6500 0.0000 0.0000 0.0000
# 3 29.6489 29.6500 107.4805 0.0000 0.0000 0.0000
# 4 0.0000 0.0000 0.0000 16.4077 0.0000 0.0000
# 5 0.0000 0.0000 0.0000 0.0000 16.4427 0.0000
# 6 0.0000 0.0000 0.0000 0.0000 0.0000 35.9097
#
#
#
# Elastic Compliance Matrix: (Units=1/GPa)
#
#
# Indices 1 2 3 4 5 6 
#
# 1 0.085300 -0.073076 -0.003371 0.000000 0.000000 0.000000
# 2 -0.073076 0.085299 -0.003373 0.000000 0.000000 0.000000
# 3 -0.003371 -0.003373 0.011165 0.000000 0.000000 0.000000
# 4 0.000000 0.000000 0.000000 0.060947 0.000000 0.000000
# 5 0.000000 0.000000 0.000000 0.000000 0.060817 0.000000
# 6 0.000000 0.000000 0.000000 0.000000 0.000000 0.027848
#
#
# Mechanical properties :
#
#
# Convention : Reuss Voigt Hill
#
# Bulk Modulus (GPa) = 45.19901 46.93368 46.06634
# Shear Modulus (GPa) = 10.03230 20.86764 15.44997
#
# Velocity S-wave (km/s) = 2.23046 3.21685 2.76794
# Velocity P-wave (km/s) = 5.38953 6.08864 5.74972
#
# Compressibility (1/GPa) = 0.02212438
#
# Stress axis : x y z
#
# Youngs Moduli (GPa) = 11.72331 11.72340 89.56962
#
# Poissons Ratio (x) = 0.85669 0.30198
# Poissons Ratio (y) = 0.85669 0.30211
# Poissons Ratio (z) = 0.03952 0.03954
#
# Static dielectric constant tensor:
#      x y z
#    x 2.216640 0.000000 0.000000 
#    y 0.000000 2.217050 0.000000 
#    z 0.000000 0.000000 1.798750 
# 
# From -- ./inp_files/759.got.cif
#   From: 2010.05.17/outbox.cif.g08.bks.cpg/sg116_1_cif.got.tgz:759.got - 2010.05.20 11:11:43.
