data_PCOD9558815
_publ_section_title
;
Structure prediction by ZEFSAII (Michael W. Deem and Ramdas Pophale) SiO2 
 PCOD9558815
Probable space group: P -4 N 2
;
_chemical_formula_sum "Si O2"
_cell_formula_units_Z 24
_cell_length_a 9.812034
_cell_length_b 9.812034
_cell_length_c 9.583678
_cell_angle_alpha 90.000000
_cell_angle_beta 90.000000
_cell_angle_gamma 90.000000
_cell_volume 922.678291
_symmetry_space_group_name_H-M "P -4 N 2"
_symmetry_group_IT_number 118
_symmetry_cell_setting 'tetragonal'
loop_
_space_group_symop_operation_xyz
x,y,z
y,-x,-z
-x,-y,z
-y,x,-z
1/2+y,1/2+x,1/2-z
1/2-y,1/2-x,1/2-z
1/2-x,1/2+y,1/2+z
1/2+x,1/2-y,1/2+z
loop_
_atom_site_type_symbol
_atom_site_label
_atom_site_fract_x
_atom_site_fract_y
_atom_site_fract_z
Si Si1 0.385925 0.619878 0.659726
Si Si2 0.033843 0.215373 0.451636
Si Si3 0.806203 0.600446 0.611569
O O1 0.500000 0.500000 0.665404
O O2 0.428775 0.714483 0.788900
O O3 0.240688 0.544921 0.671486
O O4 0.381518 0.698462 0.514068
O O5 0.056296 0.356699 0.531075
O O6 0.890140 0.144545 0.481790
O O7 0.805751 0.694250 0.750000
#
# Coordination Sequence:
#
# PCOD9558815 Si02
#       3
#     8   8   8
#     4  12  22  43  70  98 132 179 228 273 336 409
#     4  11  22  41  69  96 134 177 223 279 337 400
#     4  12  23  40  70 101 132 173 229 280 327 406
#
# _framework density 26.011230000000001
#
# number of rings (size 3 to 8) (size 9 to 14) (size 15 to 20)
#    0.000    0.333   10.000    1.000    0.000    0.000 
#    0.000    1.667    0.000    2.000    0.000    0.000 
#    0.000    0.000    0.000    0.000    0.000    0.000 
#
# Total GULP energy -134050.203298 kJ/mol
# GULP energy per Si atom -5585.425137 kJ/mol
# Density = 2.595203 g / cm^3
# Si number density = 26.011230 Si / 1000 Ang^3
#
#
#
# Elastic Constant Matrix: (Units=GPa)
#
#
# Indices 1 2 3 4 5 6 
#
# 1 65.0614 41.3528 36.1332 0.0000 0.0000 0.0000
# 2 41.3528 65.0610 36.1327 0.0000 0.0000 0.0000
# 3 36.1332 36.1327 232.3697 0.0000 0.0000 0.0000
# 4 0.0000 0.0000 0.0000 40.7437 0.0000 0.0000
# 5 0.0000 0.0000 0.0000 0.0000 40.7440 0.0000
# 6 0.0000 0.0000 0.0000 0.0000 0.0000 55.8749
#
#
#
# Elastic Compliance Matrix: (Units=1/GPa)
#
#
# Indices 1 2 3 4 5 6 
#
# 1 0.026343 -0.015836 -0.001634 0.000000 0.000000 0.000000
# 2 -0.015836 0.026343 -0.001634 0.000000 0.000000 0.000000
# 3 -0.001634 -0.001634 0.004812 0.000000 0.000000 0.000000
# 4 0.000000 0.000000 0.000000 0.024544 0.000000 0.000000
# 5 0.000000 0.000000 0.000000 0.000000 0.024543 0.000000
# 6 0.000000 0.000000 0.000000 0.000000 0.000000 0.017897
#
#
# Mechanical properties :
#
#
# Convention : Reuss Voigt Hill
#
# Bulk Modulus (GPa) = 51.84036 65.52552 58.68294
# Shear Modulus (GPa) = 29.56492 44.06409 36.81450
#
# Velocity S-wave (km/s) = 3.37504 4.12034 3.76617
# Velocity P-wave (km/s) = 5.92968 6.91969 6.44373
#
# Compressibility (1/GPa) = 0.01928999
#
# Stress axis : x y z
#
# Youngs Moduli (GPa) = 37.96087 37.96069 207.83181
#
# Poissons Ratio (x) = 0.60115 0.33956
# Poissons Ratio (y) = 0.60116 0.33954
# Poissons Ratio (z) = 0.06202 0.06202
#
# Static dielectric constant tensor:
#      x y z
#    x 2.110480 0.000000 0.000000 
#    y 0.000000 2.110480 0.000000 
#    z 0.000000 0.000000 2.025340 
# 
# From -- ./inp_files/1356.got.cif
#   From: 2010.05.17/outbox.cif.g08.bks.cpg/sg118_1_cif.got.tgz:1356.got - 2010.05.20 11:17:24.
