data_PCOD9558084
_publ_section_title
;
Structure prediction by ZEFSAII (Michael W. Deem and Ramdas Pophale) SiO2 
 PCOD9558084
Probable space group: P -4 B 2
;
_chemical_formula_sum "Si O2"
_cell_formula_units_Z 34
_cell_length_a 12.933465
_cell_length_b 12.933465
_cell_length_c 8.179429
_cell_angle_alpha 90.000000
_cell_angle_beta 90.000000
_cell_angle_gamma 90.000000
_cell_volume 1368.210035
_symmetry_space_group_name_H-M "P -4 B 2"
_symmetry_group_IT_number 117
_symmetry_cell_setting 'tetragonal'
loop_
_space_group_symop_operation_xyz
x,y,z
y,-x,-z
-x,-y,z
-y,x,-z
1/2+y,1/2+x,-z
1/2-y,1/2-x,-z
1/2-x,1/2+y,z
1/2+x,1/2-y,z
loop_
_atom_site_type_symbol
_atom_site_label
_atom_site_fract_x
_atom_site_fract_y
_atom_site_fract_z
Si Si1 0.817279 0.604476 0.823963
Si Si2 0.714658 0.024912 0.348256
Si Si3 0.172925 0.012809 0.008804
Si Si4 0.151910 0.834788 0.582728
Si Si5 0.500000 0.500000 0.500000
O O1 0.916923 0.609589 0.705070
O O2 0.730454 0.672448 0.732298
O O3 0.849778 0.650223 0.000000
O O4 0.758316 0.498389 0.865396
O O5 0.764453 0.987972 0.177330
O O6 0.782487 0.114948 0.434967
O O7 0.736891 0.921476 0.452730
O O8 0.105200 0.907287 0.011501
O O9 0.070676 0.928534 0.611884
#
# Coordination Sequence:
#
# PCOD9558084 Si02
#       5
#     8   8   8   8   2
#     4  10  21  35  50  80 118 148 194 221 282 342
#     4  10  21  33  52  82 114 154 180 231 292 342
#     4  10  20  31  54  80 116 147 182 239 303 344
#     4  10  19  34  53  81 121 139 182 226 290 353
#     4   8  20  28  56  86 116 140 168 226 324 340
#
# _framework density 24.849986000000001
#
# number of rings (size 3 to 8) (size 9 to 14) (size 15 to 20)
#    0.000    2.118    2.353    0.706    9.882    0.000 
#    0.000    0.000    0.000    0.000    0.000   11.529 
#   14.118    0.000    0.000    0.000    0.000    0.000 
#
# Total GULP energy -189436.444224 kJ/mol
# GULP energy per Si atom -5571.660124 kJ/mol
# Density = 2.479343 g / cm^3
# Si number density = 24.849986 Si / 1000 Ang^3
#
#
#
# Elastic Constant Matrix: (Units=GPa)
#
#
# Indices 1 2 3 4 5 6 
#
# 1 31.0855 20.1061 14.7965 0.0000 0.0000 0.0000
# 2 20.1061 31.0862 14.7968 0.0000 0.0000 0.0000
# 3 14.7965 14.7968 59.3696 0.0000 0.0000 0.0000
# 4 0.0000 0.0000 0.0000 14.4897 0.0000 0.0000
# 5 0.0000 0.0000 0.0000 0.0000 14.4894 0.0000
# 6 0.0000 0.0000 0.0000 0.0000 0.0000 23.9081
#
#
#
# Elastic Compliance Matrix: (Units=1/GPa)
#
#
# Indices 1 2 3 4 5 6 
#
# 1 0.056950 -0.034127 -0.005688 0.000000 0.000000 0.000000
# 2 -0.034127 0.056949 -0.005688 0.000000 0.000000 0.000000
# 3 -0.005688 -0.005688 0.019679 0.000000 0.000000 0.000000
# 4 0.000000 0.000000 0.000000 0.069015 0.000000 0.000000
# 5 0.000000 0.000000 0.000000 0.000000 0.069016 0.000000
# 6 0.000000 0.000000 0.000000 0.000000 0.000000 0.041827
#
#
# Mechanical properties :
#
#
# Convention : Reuss Voigt Hill
#
# Bulk Modulus (GPa) = 23.48975 24.54888 24.01931
# Shear Modulus (GPa) = 11.94367 15.36691 13.65529
#
# Velocity S-wave (km/s) = 2.19471 2.48944 2.34670
# Velocity P-wave (km/s) = 3.98691 4.26185 4.12667
#
# Compressibility (1/GPa) = 0.04257176
#
# Stress axis : x y z
#
# Youngs Moduli (GPa) = 17.55926 17.55959 50.81592
#
# Poissons Ratio (x) = 0.59926 0.28904
# Poissons Ratio (y) = 0.59924 0.28905
# Poissons Ratio (z) = 0.09988 0.09988
#
# Static dielectric constant tensor:
#      x y z
#    x 2.028460 0.000000 0.000000 
#    y 0.000000 2.028460 0.000000 
#    z 0.000000 0.000000 2.036420 
# 
# From -- ./inp_files/1508.got.cif
#   From: 2010.05.17/outbox.cif.g08.bks.cpg/sg117_1_cif.got.tgz:1508.got - 2010.05.20 11:15:09.
