data_PCOD9558313
_publ_section_title
;
Structure prediction by ZEFSAII (Michael W. Deem and Ramdas Pophale) SiO2 
 PCOD9558313
Probable space group: P -4 B 2
;
_chemical_formula_sum "Si O2"
_cell_formula_units_Z 36
_cell_length_a 9.059438
_cell_length_b 9.059438
_cell_length_c 18.321179
_cell_angle_alpha 90.000000
_cell_angle_beta 90.000000
_cell_angle_gamma 90.000000
_cell_volume 1503.681762
_symmetry_space_group_name_H-M "P -4 B 2"
_symmetry_group_IT_number 117
_symmetry_cell_setting 'tetragonal'
loop_
_space_group_symop_operation_xyz
x,y,z
y,-x,-z
-x,-y,z
-y,x,-z
1/2+y,1/2+x,-z
1/2-y,1/2-x,-z
1/2-x,1/2+y,z
1/2+x,1/2-y,z
loop_
_atom_site_type_symbol
_atom_site_label
_atom_site_fract_x
_atom_site_fract_y
_atom_site_fract_z
Si Si1 0.573723 0.715802 0.969944
Si Si2 0.189603 0.689603 0.500000
Si Si3 0.827511 0.042796 0.593580
Si Si4 0.068346 0.656427 0.266839
Si Si5 0.629572 0.619295 0.805917
O O1 0.601337 0.689754 0.884684
O O2 0.671644 0.593287 0.012524
O O3 0.628621 0.871380 0.000000
O O4 0.031394 0.734194 0.471459
O O5 0.287957 0.703676 0.426361
O O6 0.767541 0.979697 0.669150
O O7 0.000000 0.000000 0.587572
O O8 0.241258 0.641753 0.248907
O O9 0.000000 0.500000 0.287046
O O10 0.977371 0.721484 0.197961
O O11 0.500000 0.500000 0.790932
#
# Coordination Sequence:
#
# PCOD9558313 Si02
#       5
#     8   4   8   8   8
#     4  11  24  45  72 108 146 197 248 312 378 446
#     4  12  24  46  78 104 148 190 240 312 374 442
#     4  12  27  51  71 112 148 193 245 308 379 446
#     4  12  29  45  77 112 148 206 253 313 385 464
#     4  12  25  50  74 106 157 197 257 318 382 462
#
# _framework density 23.941234999999999
#
# number of rings (size 3 to 8) (size 9 to 14) (size 15 to 20)
#    0.000    0.222    4.444    4.667    6.222    4.000 
#    0.000    0.000    0.000    0.000    0.000    0.000 
#    0.000    0.000    0.000    0.000    0.000    0.000 
#
# Total GULP energy -201410.089390 kJ/mol
# GULP energy per Si atom -5594.724705 kJ/mol
# Density = 2.388674 g / cm^3
# Si number density = 23.941235 Si / 1000 Ang^3
#
#
#
# Elastic Constant Matrix: (Units=GPa)
#
#
# Indices 1 2 3 4 5 6 
#
# 1 70.7558 17.2112 -1.3100 0.0000 0.0000 0.0000
# 2 17.2112 70.7533 -1.3102 0.0000 0.0000 0.0000
# 3 -1.3100 -1.3102 99.4292 0.0000 0.0000 0.0000
# 4 0.0000 0.0000 0.0000 22.7587 0.0000 0.0000
# 5 0.0000 0.0000 0.0000 0.0000 22.7593 0.0000
# 6 0.0000 0.0000 0.0000 0.0000 0.0000 37.6639
#
#
#
# Elastic Compliance Matrix: (Units=1/GPa)
#
#
# Indices 1 2 3 4 5 6 
#
# 1 0.015024 -0.003652 0.000150 0.000000 0.000000 0.000000
# 2 -0.003652 0.015025 0.000150 0.000000 0.000000 0.000000
# 3 0.000150 0.000150 0.010061 0.000000 0.000000 0.000000
# 4 0.000000 0.000000 0.000000 0.043939 0.000000 0.000000
# 5 0.000000 0.000000 0.000000 0.000000 0.043938 0.000000
# 6 0.000000 0.000000 0.000000 0.000000 0.000000 0.026551
#
#
# Mechanical properties :
#
#
# Convention : Reuss Voigt Hill
#
# Bulk Modulus (GPa) = 29.93494 30.01338 29.97416
# Shear Modulus (GPa) = 29.00599 31.72619 30.36609
#
# Velocity S-wave (km/s) = 3.48451 3.64424 3.56527
# Velocity P-wave (km/s) = 5.35908 5.50189 5.43095
#
# Compressibility (1/GPa) = 0.03340578
#
# Stress axis : x y z
#
# Youngs Moduli (GPa) = 66.55916 66.55677 99.39019
#
# Poissons Ratio (x) = 0.24306 -0.01489
# Poissons Ratio (y) = 0.24307 -0.01489
# Poissons Ratio (z) = -0.00997 -0.00997
#
# Static dielectric constant tensor:
#      x y z
#    x 1.842480 0.000000 0.000000 
#    y 0.000000 1.842480 0.000000 
#    z 0.000000 0.000000 1.965080 
# 
# From -- ./inp_files/3415.got.cif
#   From: 2010.05.17/outbox.cif.g08.bks.cpg/sg117_2_cif.got.tgz:3415.got - 2010.05.20 11:15:09.
