data_PCOD9558222
_publ_section_title
;
Structure prediction by ZEFSAII (Michael W. Deem and Ramdas Pophale) SiO2 
 PCOD9558222
Probable space group: P -4 B 2
;
_chemical_formula_sum "Si O2"
_cell_formula_units_Z 38
_cell_length_a 17.893128
_cell_length_b 17.893128
_cell_length_c 5.132430
_cell_angle_alpha 90.000000
_cell_angle_beta 90.000000
_cell_angle_gamma 90.000000
_cell_volume 1643.219471
_symmetry_space_group_name_H-M "P -4 B 2"
_symmetry_group_IT_number 117
_symmetry_cell_setting 'tetragonal'
loop_
_space_group_symop_operation_xyz
x,y,z
y,-x,-z
-x,-y,z
-y,x,-z
1/2+y,1/2+x,-z
1/2-y,1/2-x,-z
1/2-x,1/2+y,z
1/2+x,1/2-y,z
loop_
_atom_site_type_symbol
_atom_site_label
_atom_site_fract_x
_atom_site_fract_y
_atom_site_fract_z
Si Si1 0.087964 0.297826 0.136123
Si Si2 0.635764 0.706428 0.348562
Si Si3 0.791358 0.708643 0.500000
Si Si4 0.364490 0.067449 0.741280
Si Si5 0.893725 0.872340 0.131893
Si Si6 0.500000 0.500000 0.000000
O O1 0.123246 0.284584 0.419904
O O2 0.076639 0.211311 0.053618
O O3 0.015704 0.348365 0.158602
O O4 0.153417 0.346584 0.000000
O O5 0.723856 0.722873 0.300520
O O6 0.595448 0.785228 0.370880
O O7 0.630159 0.657833 0.611178
O O8 0.605801 0.659623 0.107600
O O9 0.421600 0.078401 0.500000
O O10 0.387093 0.112908 0.000000
O O11 0.957201 0.934960 0.158578
#
# Coordination Sequence:
#
# PCOD9558222 Si02
#       6
#     8   8   4   8   8   2
#     4  11  25  47  71 104 140 195 250 299 366 443
#     4  11  23  46  74 108 141 195 247 295 369 446
#     4  10  22  42  77  96 144 185 252 300 352 448
#     4  12  28  45  71 107 145 186 240 311 373 435
#     4  11  26  44  76 107 150 197 242 305 369 454
#     4  12  28  50  72 118 164 198 244 318 400 450
#
# _framework density 23.125333000000001
#
# number of rings (size 3 to 8) (size 9 to 14) (size 15 to 20)
#    0.000    0.842    3.158    2.526    5.895    6.316 
#    0.000    0.000    0.000    0.000    0.000    0.000 
#    0.000    0.000    0.000    0.000    0.000    0.000 
#
# Total GULP energy -212108.772922 kJ/mol
# GULP energy per Si atom -5581.809814 kJ/mol
# Density = 2.307270 g / cm^3
# Si number density = 23.125333 Si / 1000 Ang^3
#
#
#
# Elastic Constant Matrix: (Units=GPa)
#
#
# Indices 1 2 3 4 5 6 
#
# 1 117.4027 54.6670 22.8038 0.0000 0.0000 0.0000
# 2 54.6670 117.4032 22.8048 0.0000 0.0000 0.0000
# 3 22.8038 22.8048 101.7432 0.0000 0.0000 0.0000
# 4 0.0000 0.0000 0.0000 2.0840 0.0000 0.0000
# 5 0.0000 0.0000 0.0000 0.0000 2.0853 0.0000
# 6 0.0000 0.0000 0.0000 0.0000 0.0000 39.8788
#
#
#
# Elastic Compliance Matrix: (Units=1/GPa)
#
#
# Indices 1 2 3 4 5 6 
#
# 1 0.011059 -0.004881 -0.001385 0.000000 0.000000 0.000000
# 2 -0.004881 0.011059 -0.001385 0.000000 0.000000 0.000000
# 3 -0.001385 -0.001385 0.010449 0.000000 0.000000 0.000000
# 4 0.000000 0.000000 0.000000 0.479858 0.000000 0.000000
# 5 0.000000 0.000000 0.000000 0.000000 0.479544 0.000000
# 6 0.000000 0.000000 0.000000 0.000000 0.000000 0.025076
#
#
# Mechanical properties :
#
#
# Convention : Reuss Voigt Hill
#
# Bulk Modulus (GPa) = 57.91282 59.67783 58.79532
# Shear Modulus (GPa) = 4.81648 24.56118 14.68883
#
# Velocity S-wave (km/s) = 1.44475 3.26251 2.52302
# Velocity P-wave (km/s) = 5.28019 6.32884 5.82815
#
# Compressibility (1/GPa) = 0.01726734
#
# Stress axis : x y z
#
# Youngs Moduli (GPa) = 90.42204 90.42208 95.69876
#
# Poissons Ratio (x) = 0.44131 0.13252
# Poissons Ratio (y) = 0.44131 0.13254
# Poissons Ratio (z) = 0.12522 0.12523
#
# Static dielectric constant tensor:
#      x y z
#    x 1.937150 0.000000 0.000000 
#    y 0.000000 1.937160 0.000000 
#    z 0.000000 0.000000 2.001700 
# 
# From -- ./inp_files/621.got.cif
#   From: 2010.05.17/outbox.cif.g08.bks.cpg/sg117_1_cif.got.tgz:621.got - 2010.05.20 11:15:09.
