data_PCOD9558735
_publ_section_title
;
Structure prediction by ZEFSAII (Michael W. Deem and Ramdas Pophale) SiO2 
 PCOD9558735
Probable space group: P -4 N 2
;
_chemical_formula_sum "Si O2"
_cell_formula_units_Z 16
_cell_length_a 5.151036
_cell_length_b 5.151036
_cell_length_c 25.839679
_cell_angle_alpha 90.000000
_cell_angle_beta 90.000000
_cell_angle_gamma 90.000000
_cell_volume 685.608644
_symmetry_space_group_name_H-M "P -4 N 2"
_symmetry_group_IT_number 118
_symmetry_cell_setting 'tetragonal'
loop_
_space_group_symop_operation_xyz
x,y,z
y,-x,-z
-x,-y,z
-y,x,-z
1/2+y,1/2+x,1/2-z
1/2-y,1/2-x,1/2-z
1/2-x,1/2+y,1/2+z
1/2+x,1/2-y,1/2+z
loop_
_atom_site_type_symbol
_atom_site_label
_atom_site_fract_x
_atom_site_fract_y
_atom_site_fract_z
Si Si1 0.000000 0.000000 0.000000
Si Si2 0.230650 0.834078 0.421928
Si Si3 0.000000 0.500000 0.750000
Si Si4 0.500000 0.500000 0.176876
O O1 0.213264 0.100394 0.960040
O O2 0.109914 0.786647 0.364668
O O3 0.500000 0.000000 0.416781
O O4 0.000000 0.000000 0.445550
O O5 0.252544 0.527921 0.786405
#
# Coordination Sequence:
#
# PCOD9558735 Si02
#       4
#     2   8   2   4
#     4  12  28  42  88 104 164 222 256 320 420 470
#     4  10  25  49  73 114 161 198 267 325 388 487
#     4  12  24  52  84 108 152 212 256 340 410 444
#     4  10  24  51  77 116 150 202 268 332 390 476
#
# _framework density 23.336932000000001
#
# number of rings (size 3 to 8) (size 9 to 14) (size 15 to 20)
#    1.500    0.000    2.500    0.000    7.000    3.000 
#    9.000    0.000    0.000    0.000    0.000    0.000 
#    0.000    0.000    0.000    0.000    0.000    0.000 
#
# Total GULP energy -89071.144379 kJ/mol
# GULP energy per Si atom -5566.946524 kJ/mol
# Density = 2.328382 g / cm^3
# Si number density = 23.336932 Si / 1000 Ang^3
#
#
#
# Elastic Constant Matrix: (Units=GPa)
#
#
# Indices 1 2 3 4 5 6 
#
# 1 157.9882 55.3872 78.8225 0.0000 0.0000 0.0000
# 2 55.3872 157.9882 78.8225 0.0000 0.0000 0.0000
# 3 78.8225 78.8225 246.4044 0.0000 0.0000 0.0000
# 4 0.0000 0.0000 0.0000 15.0917 0.0000 0.0000
# 5 0.0000 0.0000 0.0000 0.0000 15.0917 0.0000
# 6 0.0000 0.0000 0.0000 0.0000 0.0000 37.3838
#
#
#
# Elastic Compliance Matrix: (Units=1/GPa)
#
#
# Indices 1 2 3 4 5 6 
#
# 1 0.007942 -0.001805 -0.001963 0.000000 0.000000 0.000000
# 2 -0.001805 0.007942 -0.001963 0.000000 0.000000 0.000000
# 3 -0.001963 -0.001963 0.005314 0.000000 0.000000 0.000000
# 4 0.000000 0.000000 0.000000 0.066262 0.000000 0.000000
# 5 0.000000 0.000000 0.000000 0.000000 0.066262 0.000000
# 6 0.000000 0.000000 0.000000 0.000000 0.000000 0.026750
#
#
# Mechanical properties :
#
#
# Convention : Reuss Voigt Hill
#
# Bulk Modulus (GPa) = 102.71491 109.82726 106.27108
# Shear Modulus (GPa) = 25.61764 36.80334 31.21049
#
# Velocity S-wave (km/s) = 3.31679 3.97551 3.66100
# Velocity P-wave (km/s) = 7.66666 8.26055 7.96914
#
# Compressibility (1/GPa) = 0.00973568
#
# Stress axis : x y z
#
# Youngs Moduli (GPa) = 125.91688 125.91688 188.16909
#
# Poissons Ratio (x) = 0.22725 0.36941
# Poissons Ratio (y) = 0.22725 0.36941
# Poissons Ratio (z) = 0.24720 0.24720
#
# Static dielectric constant tensor:
#      x y z
#    x 1.920690 0.000000 0.000000 
#    y 0.000000 1.920690 0.000000 
#    z 0.000000 0.000000 1.895900 
# 
# From -- ./inp_files/5795.got.cif
#   From: 2010.05.17/outbox.cif.g08.bks.cpg/sg118_3_cif.got.tgz:5795.got - 2010.05.20 11:17:24.
