data_PCOD9558359
_publ_section_title
;
Structure prediction by ZEFSAII (Michael W. Deem and Ramdas Pophale) SiO2 
 PCOD9558359
Probable space group: P -4 B 2
;
_chemical_formula_sum "Si O2"
_cell_formula_units_Z 24
_cell_length_a 13.219669
_cell_length_b 13.219669
_cell_length_c 5.680165
_cell_angle_alpha 90.000000
_cell_angle_beta 90.000000
_cell_angle_gamma 90.000000
_cell_volume 992.663639
_symmetry_space_group_name_H-M "P -4 B 2"
_symmetry_group_IT_number 117
_symmetry_cell_setting 'tetragonal'
loop_
_space_group_symop_operation_xyz
x,y,z
y,-x,-z
-x,-y,z
-y,x,-z
1/2+y,1/2+x,-z
1/2-y,1/2-x,-z
1/2-x,1/2+y,z
1/2+x,1/2-y,z
loop_
_atom_site_type_symbol
_atom_site_label
_atom_site_fract_x
_atom_site_fract_y
_atom_site_fract_z
Si Si1 0.862562 0.362562 0.500000
Si Si2 0.000000 0.500000 0.000000
Si Si3 0.995806 0.708586 0.888352
Si Si4 0.661551 0.371803 0.804565
Si Si5 0.500000 0.500000 0.500000
O O1 0.963151 0.348442 0.657276
O O2 0.762236 0.356693 0.656846
O O3 0.996341 0.618751 0.081356
O O4 0.891982 0.766085 0.855003
O O5 0.073029 0.797571 0.961308
O O6 0.583326 0.443706 0.662865
#
# Coordination Sequence:
#
# PCOD9558359 Si02
#       5
#     4   2   8   8   2
#     4  12  26  49  72 113 148 196 260 310 388 461
#     4  12  28  46  72 112 150 216 240 322 392 460
#     4  12  28  49  75 110 159 197 262 314 394 460
#     4  12  26  48  76 113 150 203 256 327 377 474
#     4  12  24  46  80 112 150 208 268 314 400 456
#
# _framework density 24.177374
#
# number of rings (size 3 to 8) (size 9 to 14) (size 15 to 20)
#    0.000    0.000    6.667    2.000    4.667    3.333 
#    0.000    0.000    0.000    0.000    0.000    0.000 
#    0.000    0.000    0.000    0.000    0.000    0.000 
#
# Total GULP energy -134011.178391 kJ/mol
# GULP energy per Si atom -5583.799100 kJ/mol
# Density = 2.412235 g / cm^3
# Si number density = 24.177374 Si / 1000 Ang^3
#
#
#
# Elastic Constant Matrix: (Units=GPa)
#
#
# Indices 1 2 3 4 5 6 
#
# 1 140.2575 53.0801 23.2653 0.0000 0.0000 0.0000
# 2 53.0801 140.2575 23.2653 0.0000 0.0000 0.0000
# 3 23.2653 23.2653 66.6472 0.0000 0.0000 0.0000
# 4 0.0000 0.0000 0.0000 35.3774 0.0000 0.0000
# 5 0.0000 0.0000 0.0000 0.0000 35.3774 0.0000
# 6 0.0000 0.0000 0.0000 0.0000 0.0000 69.4572
#
#
#
# Elastic Compliance Matrix: (Units=1/GPa)
#
#
# Indices 1 2 3 4 5 6 
#
# 1 0.008559 -0.002912 -0.001971 0.000000 0.000000 0.000000
# 2 -0.002912 0.008559 -0.001971 0.000000 0.000000 0.000000
# 3 -0.001971 -0.001971 0.016381 0.000000 0.000000 0.000000
# 4 0.000000 0.000000 0.000000 0.028267 0.000000 0.000000
# 5 0.000000 0.000000 0.000000 0.000000 0.028267 0.000000
# 6 0.000000 0.000000 0.000000 0.000000 0.000000 0.014397
#
#
# Mechanical properties :
#
#
# Convention : Reuss Voigt Hill
#
# Bulk Modulus (GPa) = 50.53225 60.70928 55.62076
# Shear Modulus (GPa) = 40.08529 44.54582 42.31555
#
# Velocity S-wave (km/s) = 4.07623 4.29704 4.18809
# Velocity P-wave (km/s) = 6.56508 7.05577 6.81484
#
# Compressibility (1/GPa) = 0.01978934
#
# Stress axis : x y z
#
# Youngs Moduli (GPa) = 116.83907 116.83907 61.04796
#
# Poissons Ratio (x) = 0.34025 0.12033
# Poissons Ratio (y) = 0.34025 0.12033
# Poissons Ratio (z) = 0.23031 0.23031
#
# Static dielectric constant tensor:
#      x y z
#    x 1.916300 0.000000 0.000000 
#    y 0.000000 1.916300 0.000000 
#    z 0.000000 0.000000 2.165080 
# 
# From -- ./inp_files/242.got.cif
#   From: 2010.05.17/outbox.cif.g08.bks.cpg/sg117_1_cif.got.tgz:242.got - 2010.05.20 11:15:09.
