data_PCOD9558613
_publ_section_title
;
Structure prediction by ZEFSAII (Michael W. Deem and Ramdas Pophale) SiO2 
 PCOD9558613
Probable space group: P -4 N 2
;
_chemical_formula_sum "Si O2"
_cell_formula_units_Z 48
_cell_length_a 9.319392
_cell_length_b 9.319392
_cell_length_c 28.005934
_cell_angle_alpha 90.000000
_cell_angle_beta 90.000000
_cell_angle_gamma 90.000000
_cell_volume 2432.345257
_symmetry_space_group_name_H-M "P -4 N 2"
_symmetry_group_IT_number 118
_symmetry_cell_setting 'tetragonal'
loop_
_space_group_symop_operation_xyz
x,y,z
y,-x,-z
-x,-y,z
-y,x,-z
1/2+y,1/2+x,1/2-z
1/2-y,1/2-x,1/2-z
1/2-x,1/2+y,1/2+z
1/2+x,1/2-y,1/2+z
loop_
_atom_site_type_symbol
_atom_site_label
_atom_site_fract_x
_atom_site_fract_y
_atom_site_fract_z
Si Si1 0.175091 0.740021 0.198972
Si Si2 0.341677 0.042432 0.199743
Si Si3 0.426824 0.350765 0.881478
Si Si4 0.119981 0.378784 0.435254
Si Si5 0.202698 0.902544 0.480579
Si Si6 0.849890 0.082729 0.859007
O O1 0.166944 0.666944 0.250000
O O2 0.269466 0.648926 0.161729
O O3 0.018347 0.762733 0.177261
O O4 0.252079 0.895008 0.206987
O O5 0.376040 0.123961 0.250000
O O6 0.240459 0.129915 0.163678
O O7 0.500000 0.000000 0.180838
O O8 0.500000 0.500000 0.866859
O O9 0.549057 0.254661 0.906721
O O10 0.312967 0.378916 0.924440
O O11 0.145178 0.341301 0.490563
O O12 0.264275 0.416015 0.408104
O O13 0.000000 0.500000 0.431612
O O14 0.068850 0.822010 0.505922
O O15 0.000000 0.000000 0.864912
#
# Coordination Sequence:
#
# PCOD9558613 Si02
#       6
#     8   8   8   8   8   8
#     4  11  23  41  62  97 139 173 219 277 332 397
#     4  10  21  41  64  88 126 168 231 280 318 390
#     4  11  22  39  69  99 132 172 230 274 336 400
#     4  11  21  40  67  96 133 169 215 277 336 401
#     4   9  17  37  64  95 126 159 216 283 321 387
#     4  10  24  42  62  91 137 177 211 279 341 392
#
# _framework density 19.734041999999999
#
# number of rings (size 3 to 8) (size 9 to 14) (size 15 to 20)
#    0.000    1.667    6.667    0.000    2.333    3.333 
#    0.000    8.333    0.000    0.000    0.000    0.000 
#    0.000    0.000    0.000    0.000    0.000    0.000 
#
# Total GULP energy -267878.391216 kJ/mol
# GULP energy per Si atom -5580.799817 kJ/mol
# Density = 1.968913 g / cm^3
# Si number density = 19.734042 Si / 1000 Ang^3
#
#
#
# Elastic Constant Matrix: (Units=GPa)
#
#
# Indices 1 2 3 4 5 6 
#
# 1 83.4930 19.9621 44.3793 0.0000 0.0000 0.0000
# 2 19.9621 83.4928 44.3793 0.0000 0.0000 0.0000
# 3 44.3793 44.3793 116.0477 0.0000 0.0000 0.0000
# 4 0.0000 0.0000 0.0000 207.5800 0.0000 0.0000
# 5 0.0000 0.0000 0.0000 0.0000 207.5544 0.0000
# 6 0.0000 0.0000 0.0000 0.0000 0.0000 -661.1200
#
#
#
# Elastic Compliance Matrix: (Units=1/GPa)
#
#
# Indices 1 2 3 4 5 6 
#
# 1 0.015063 -0.000677 -0.005502 0.000000 0.000000 0.000000
# 2 -0.000677 0.015063 -0.005502 0.000000 0.000000 0.000000
# 3 -0.005502 -0.005502 0.012825 0.000000 0.000000 0.000000
# 4 0.000000 0.000000 0.000000 0.004817 0.000000 0.000000
# 5 0.000000 0.000000 0.000000 0.000000 0.004818 0.000000
# 6 0.000000 0.000000 0.000000 0.000000 0.000000 -0.001513
#
#
# Mechanical properties :
#
#
# Convention : Reuss Voigt Hill
#
# Bulk Modulus (GPa) = 51.04416 55.60833 53.32625
# Shear Modulus (GPa) = 61.75491 -37.57627 12.08932
#
# Velocity S-wave (km/s) = 5.60014 -4.36837 2.47779
# Velocity P-wave (km/s) = 8.23028 1.67227 5.93860
#
# Compressibility (1/GPa) = 0.01959088
#
# Stress axis : x y z
#
# Youngs Moduli (GPa) = 66.38686 66.38671 77.97270
#
# Poissons Ratio (x) = 0.04495 0.42897
# Poissons Ratio (y) = 0.04496 0.42897
# Poissons Ratio (z) = 0.36523 0.36523
#
# Static dielectric constant tensor:
#      x y z
#    x 1.707770 0.000000 0.000000 
#    y 0.000000 1.707770 0.000000 
#    z 0.000000 0.000000 1.660870 
# 
# From -- ./inp_files/6842.got.cif
#   From: 2010.05.17/outbox.cif.g08.bks.cpg/sg118_4_cif.got.tgz:6842.got - 2010.05.20 11:17:24.
