data_PCOD9558107
_publ_section_title
;
Structure prediction by ZEFSAII (Michael W. Deem and Ramdas Pophale) SiO2 
 PCOD9558107
Probable space group: P -4 B 2
;
_chemical_formula_sum "Si O2"
_cell_formula_units_Z 58
_cell_length_a 17.673948
_cell_length_b 17.673948
_cell_length_c 9.207538
_cell_angle_alpha 90.000000
_cell_angle_beta 90.000000
_cell_angle_gamma 90.000000
_cell_volume 2876.144262
_symmetry_space_group_name_H-M "P -4 B 2"
_symmetry_group_IT_number 117
_symmetry_cell_setting 'tetragonal'
loop_
_space_group_symop_operation_xyz
x,y,z
y,-x,-z
-x,-y,z
-y,x,-z
1/2+y,1/2+x,-z
1/2-y,1/2-x,-z
1/2-x,1/2+y,z
1/2+x,1/2-y,z
loop_
_atom_site_type_symbol
_atom_site_label
_atom_site_fract_x
_atom_site_fract_y
_atom_site_fract_z
Si Si1 0.883921 0.949223 0.988133
Si Si2 0.833337 0.490178 0.899633
Si Si3 0.755498 0.983273 0.191788
Si Si4 0.771799 0.889111 0.746413
Si Si5 0.683382 0.942684 0.483482
Si Si6 0.695488 0.091586 0.637197
Si Si7 0.364906 0.742881 0.645292
Si Si8 0.000000 0.500000 0.000000
O O1 0.839507 0.924813 0.842243
O O2 0.825067 0.939024 0.120223
O O3 0.961677 0.904560 0.012591
O O4 0.803354 0.409444 0.839125
O O5 0.794459 0.550881 0.791557
O O6 0.801227 0.500755 0.060029
O O7 0.923369 0.498386 0.904796
O O8 0.711612 0.942386 0.320022
O O9 0.781596 0.061405 0.266153
O O10 0.753924 0.926002 0.590550
O O11 0.794798 0.804165 0.706862
O O12 0.619209 0.880792 0.500000
O O13 0.656793 0.024952 0.540753
O O14 0.649820 0.168047 0.666052
O O15 0.762937 0.118496 0.528298
#
# Coordination Sequence:
#
# PCOD9558107 Si02
#       8
#     8   8   8   8   8   8   8   2
#     4  10  20  41  69  97 134 182 222 282 358 427
#     4  10  23  41  63  95 133 183 225 288 339 425
#     4  10  21  41  64  94 131 172 228 277 348 411
#     4  10  22  42  64  97 137 168 228 289 344 419
#     4  10  23  42  64  94 135 180 226 289 340 414
#     4   9  21  40  61  93 128 175 225 272 352 408
#     4  10  19  40  65  92 127 172 215 288 336 414
#     4  12  24  40  68  94 148 184 240 294 346 414
#
# _framework density 20.165887999999999
#
# number of rings (size 3 to 8) (size 9 to 14) (size 15 to 20)
#    0.000    2.069    1.379    0.828    5.793    0.000 
#    9.931    2.069    0.000    1.655    0.000    0.000 
#    0.000    0.000    0.000    0.000    0.000    0.000 
#
# Total GULP energy -323184.683273 kJ/mol
# GULP energy per Si atom -5572.149712 kJ/mol
# Density = 2.011999 g / cm^3
# Si number density = 20.165888 Si / 1000 Ang^3
#
#
#
# Elastic Constant Matrix: (Units=GPa)
#
#
# Indices 1 2 3 4 5 6 
#
# 1 86.9686 45.6787 45.8365 0.0000 0.0000 0.0000
# 2 45.6787 86.9703 45.8335 0.0000 0.0000 0.0000
# 3 45.8365 45.8335 151.6341 0.0000 0.0000 0.0000
# 4 0.0000 0.0000 0.0000 26.9523 0.0000 0.0000
# 5 0.0000 0.0000 0.0000 0.0000 26.9518 0.0000
# 6 0.0000 0.0000 0.0000 0.0000 0.0000 29.2949
#
#
#
# Elastic Compliance Matrix: (Units=1/GPa)
#
#
# Indices 1 2 3 4 5 6 
#
# 1 0.016874 -0.007345 -0.002881 0.000000 0.000000 0.000000
# 2 -0.007345 0.016874 -0.002880 0.000000 0.000000 0.000000
# 3 -0.002881 -0.002880 0.008336 0.000000 0.000000 0.000000
# 4 0.000000 0.000000 0.000000 0.037103 0.000000 0.000000
# 5 0.000000 0.000000 0.000000 0.000000 0.037103 0.000000
# 6 0.000000 0.000000 0.000000 0.000000 0.000000 0.034136
#
#
# Mechanical properties :
#
#
# Convention : Reuss Voigt Hill
#
# Bulk Modulus (GPa) = 62.99991 66.69671 64.84831
# Shear Modulus (GPa) = 27.48347 29.18810 28.33579
#
# Velocity S-wave (km/s) = 3.69571 3.80860 3.75258
# Velocity P-wave (km/s) = 7.03702 7.24475 7.14164
#
# Compressibility (1/GPa) = 0.01587304
#
# Stress axis : x y z
#
# Youngs Moduli (GPa) = 59.26165 59.26447 119.95864
#
# Poissons Ratio (x) = 0.43527 0.34558
# Poissons Ratio (y) = 0.43525 0.34550
# Poissons Ratio (z) = 0.17072 0.17069
#
# Static dielectric constant tensor:
#      x y z
#    x 1.744130 0.000000 0.000000 
#    y 0.000000 1.744130 0.000000 
#    z 0.000000 0.000000 1.734780 
# 
# From -- ./inp_files/2082.got.cif
#   From: 2010.05.17/outbox.cif.g08.bks.cpg/sg117_2_cif.got.tgz:2082.got - 2010.05.20 11:15:09.
