data_PCOD9558947
_publ_section_title
;
Structure prediction by ZEFSAII (Michael W. Deem and Ramdas Pophale) SiO2 
 PCOD9558947
Probable space group: I -4 M 2
;
_chemical_formula_sum "Si O2"
_cell_formula_units_Z 112
_cell_length_a 14.236333
_cell_length_b 14.236333
_cell_length_c 28.403775
_cell_angle_alpha 90.000000
_cell_angle_beta 90.000000
_cell_angle_gamma 90.000000
_cell_volume 5756.683326
_symmetry_space_group_name_H-M "I -4 M 2"
_symmetry_group_IT_number 119
_symmetry_cell_setting 'tetragonal'
loop_
_space_group_symop_operation_xyz
x,y,z
y,-x,-z
-x,-y,z
-y,x,-z
y,x,-z
-y,-x,-z
-x,y,z
x,-y,z
1/2+x,1/2+y,1/2+z
1/2+y,1/2-x,1/2-z
1/2-x,1/2-y,1/2+z
1/2-y,1/2+x,1/2-z
1/2+y,1/2+x,1/2-z
1/2-y,1/2-x,1/2-z
1/2-x,1/2+y,1/2+z
1/2+x,1/2-y,1/2+z
loop_
_atom_site_type_symbol
_atom_site_label
_atom_site_fract_x
_atom_site_fract_y
_atom_site_fract_z
Si Si1 0.113120 0.895067 0.721320
Si Si2 0.395152 0.109583 0.373558
Si Si3 0.889457 0.183552 0.620241
Si Si4 0.885515 0.391957 0.403075
Si Si5 0.275702 0.391956 0.037220
Si Si6 0.607055 0.765953 0.282171
Si Si7 0.887420 0.386801 0.300599
O O1 0.139183 0.835345 0.674711
O O2 0.134856 0.840612 0.769772
O O3 0.000000 0.903379 0.719502
O O4 0.152993 0.000000 0.719047
O O5 0.500000 0.117168 0.396601
O O6 0.292298 0.122330 0.396542
O O7 0.392565 0.189201 0.333485
O O8 0.391839 0.000000 0.355575
O O9 0.834383 0.115649 0.585592
O O10 0.000000 0.162716 0.617475
O O11 0.857616 0.500000 0.408728
O O12 0.858226 0.326824 0.446457
O O13 0.851204 0.355535 0.351782
O O14 0.000000 0.389307 0.401488
O O15 0.272581 0.500000 0.020801
O O16 0.326832 0.326832 0.000000
O O17 0.500000 0.775335 0.264971
O O18 0.670455 0.829546 0.250000
O O19 0.875936 0.500000 0.300781
O O20 0.851001 0.351001 0.250000
O O21 0.000000 0.370880 0.300525
#
# Coordination Sequence:
#
# PCOD9558947 Si02
#       7
#    16  16  16  16  16  16  16
#     4   9  17  28  43  66  98 140 183 216 254 310
#     4   9  17  29  48  77 108 135 166 211 269 324
#     4  10  19  33  51  72 101 137 174 215 263 317
#     4   8  15  30  52  77 105 139 177 218 270 324
#     4  11  23  37  55  79 105 138 180 226 272 321
#     4  10  16  24  42  70  99 129 169 215 259 309
#     4   7   9  16  37  69  99 127 162 203 244 292
#
# _framework density 19.455648
#
# number of rings (size 3 to 8) (size 9 to 14) (size 15 to 20)
#    0.000    2.857    1.429    2.571    0.000    2.286 
#    0.000    0.714    3.143    4.286    0.000    0.000 
#    0.000    1.714    0.000    0.000    0.000    0.429 
#
# Total GULP energy -311736.164874 kJ/mol
# GULP energy per Si atom -5566.717230 kJ/mol
# Density = 1.941137 g / cm^3
# Si number density = 19.455648 Si / 1000 Ang^3
#
#
#
# Elastic Constant Matrix: (Units=GPa)
#
#
# Indices 1 2 3 4 5 6 
#
# 1 76.0587 10.9956 20.0276 0.0000 0.0000 0.0000
# 2 10.9956 76.0573 20.0278 0.0000 0.0000 0.0000
# 3 20.0276 20.0278 67.0385 0.0000 0.0000 0.0000
# 4 0.0000 0.0000 0.0000 23.7274 0.0000 0.0000
# 5 0.0000 0.0000 0.0000 0.0000 23.7273 0.0000
# 6 0.0000 0.0000 0.0000 0.0000 0.0000 3.0044
#
#
#
# Elastic Compliance Matrix: (Units=1/GPa)
#
#
# Indices 1 2 3 4 5 6 
#
# 1 0.014344 -0.001026 -0.003979 0.000000 0.000000 0.000000
# 2 -0.001026 0.014344 -0.003979 0.000000 0.000000 0.000000
# 3 -0.003979 -0.003979 0.017294 0.000000 0.000000 0.000000
# 4 0.000000 0.000000 0.000000 0.042145 0.000000 0.000000
# 5 0.000000 0.000000 0.000000 0.000000 0.042146 0.000000
# 6 0.000000 0.000000 0.000000 0.000000 0.000000 0.332845
#
#
# Mechanical properties :
#
#
# Convention : Reuss Voigt Hill
#
# Bulk Modulus (GPa) = 35.69518 35.69518 35.69518
# Shear Modulus (GPa) = 10.19529 21.29872 15.74700
#
# Velocity S-wave (km/s) = 2.29165 3.31226 2.84805
# Velocity P-wave (km/s) = 5.03875 5.74586 5.40388
#
# Compressibility (1/GPa) = 0.02801499
#
# Stress axis : x y z
#
# Youngs Moduli (GPa) = 69.71701 69.71548 57.82336
#
# Poissons Ratio (x) = 0.07153 0.23006
# Poissons Ratio (y) = 0.07153 0.23007
# Poissons Ratio (z) = 0.27738 0.27738
#
# Static dielectric constant tensor:
#      x y z
#    x 1.731090 0.000000 0.000000 
#    y 0.000000 1.731090 0.000000 
#    z 0.000000 0.000000 1.706060 
# 
# From -- ./inp_files/9604.got.cif
#   From: 2010.05.17/outbox.cif.g08.bks.cpg/sg119_5_cif.got.tgz:9604.got - 2010.05.20 11:21:29.
