data_PCOD9558635
_publ_section_title
;
Structure prediction by ZEFSAII (Michael W. Deem and Ramdas Pophale) SiO2 
 PCOD9558635
Probable space group: P -4 N 2
;
_chemical_formula_sum "Si O2"
_cell_formula_units_Z 44
_cell_length_a 8.412573
_cell_length_b 8.412573
_cell_length_c 30.455822
_cell_angle_alpha 90.000000
_cell_angle_beta 90.000000
_cell_angle_gamma 90.000000
_cell_volume 2155.400688
_symmetry_space_group_name_H-M "P -4 N 2"
_symmetry_group_IT_number 118
_symmetry_cell_setting 'tetragonal'
loop_
_space_group_symop_operation_xyz
x,y,z
y,-x,-z
-x,-y,z
-y,x,-z
1/2+y,1/2+x,1/2-z
1/2-y,1/2-x,1/2-z
1/2-x,1/2+y,1/2+z
1/2+x,1/2-y,1/2+z
loop_
_atom_site_type_symbol
_atom_site_label
_atom_site_fract_x
_atom_site_fract_y
_atom_site_fract_z
Si Si1 0.000000 0.000000 0.354037
Si Si2 0.723131 0.277296 0.092870
Si Si3 0.320312 0.549810 0.331665
Si Si4 0.683030 0.816971 0.750000
Si Si5 0.891335 0.238613 0.002051
Si Si6 0.500000 0.000000 0.434871
Si Si7 0.757259 0.157760 0.706551
O O1 0.872051 0.913221 0.322329
O O2 0.077568 0.869408 0.385396
O O3 0.867928 0.239949 0.124816
O O4 0.603226 0.127095 0.091733
O O5 0.792215 0.297285 0.044022
O O6 0.500000 0.500000 0.336667
O O7 0.304538 0.671454 0.290358
O O8 0.220934 0.391560 0.320968
O O9 0.514892 0.792348 0.774414
O O10 0.905668 0.374557 0.965579
O O11 0.073785 0.190161 0.013828
O O12 0.768034 0.268034 0.750000
#
# Coordination Sequence:
#
# PCOD9558635 Si02
#       7
#     4   8   8   4   8   4   8
#     4  12  26  42  63 102 138 168 230 294 345 372
#     4  11  26  41  67  98 136 176 223 284 331 402
#     4  11  24  38  68  98 125 178 222 273 328 400
#     4  10  21  44  64  89 134 177 230 254 325 402
#     4   9  21  43  69  92 127 183 219 269 341 428
#     4  10  24  44  64 101 138 163 228 286 344 392
#     4  10  23  41  64  89 130 181 226 273 324 409
#
# _framework density 20.413837000000001
#
# number of rings (size 3 to 8) (size 9 to 14) (size 15 to 20)
#    0.000    1.636    1.818    2.455   12.727    4.364 
#    0.000    0.000    0.000    1.091    0.000    0.000 
#    0.000    0.000    0.000    0.000    0.000    0.000 
#
# Total GULP energy -245707.495689 kJ/mol
# GULP energy per Si atom -5584.261266 kJ/mol
# Density = 2.036737 g / cm^3
# Si number density = 20.413837 Si / 1000 Ang^3
#
#
#
# Elastic Constant Matrix: (Units=GPa)
#
#
# Indices 1 2 3 4 5 6 
#
# 1 46.2022 16.8374 25.7519 0.0000 0.0000 0.0000
# 2 16.8374 46.2024 25.7519 0.0000 0.0000 0.0000
# 3 25.7519 25.7519 63.5200 0.0000 0.0000 0.0000
# 4 0.0000 0.0000 0.0000 9.9115 0.0000 0.0000
# 5 0.0000 0.0000 0.0000 0.0000 9.9117 0.0000
# 6 0.0000 0.0000 0.0000 0.0000 0.0000 34.5208
#
#
#
# Elastic Compliance Matrix: (Units=1/GPa)
#
#
# Indices 1 2 3 4 5 6 
#
# 1 0.028887 -0.005167 -0.009616 0.000000 0.000000 0.000000
# 2 -0.005167 0.028887 -0.009616 0.000000 0.000000 0.000000
# 3 -0.009616 -0.009616 0.023540 0.000000 0.000000 0.000000
# 4 0.000000 0.000000 0.000000 0.100893 0.000000 0.000000
# 5 0.000000 0.000000 0.000000 0.000000 0.100891 0.000000
# 6 0.000000 0.000000 0.000000 0.000000 0.000000 0.028968
#
#
# Mechanical properties :
#
#
# Convention : Reuss Voigt Hill
#
# Bulk Modulus (GPa) = 30.75565 32.51187 31.63376
# Shear Modulus (GPa) = 13.45155 16.70767 15.07961
#
# Velocity S-wave (km/s) = 2.56977 2.86396 2.72084
# Velocity P-wave (km/s) = 4.88915 5.18626 5.03989
#
# Compressibility (1/GPa) = 0.03251435
#
# Stress axis : x y z
#
# Youngs Moduli (GPa) = 34.61763 34.61785 42.48057
#
# Poissons Ratio (x) = 0.17888 0.40850
# Poissons Ratio (y) = 0.17888 0.40850
# Poissons Ratio (z) = 0.33289 0.33289
#
# Static dielectric constant tensor:
#      x y z
#    x 1.725650 0.000000 0.000000 
#    y 0.000000 1.725650 0.000000 
#    z 0.000000 0.000000 1.750200 
# 
# From -- ./inp_files/6787.got.cif
#   From: 2010.05.17/outbox.cif.g08.bks.cpg/sg118_4_cif.got.tgz:6787.got - 2010.05.20 11:17:24.
