data_PCOD9558356
_publ_section_title
;
Structure prediction by ZEFSAII (Michael W. Deem and Ramdas Pophale) SiO2 
 PCOD9558356
Probable space group: P -4 B 2
;
_chemical_formula_sum "Si O2"
_cell_formula_units_Z 40
_cell_length_a 9.279827
_cell_length_b 9.279827
_cell_length_c 19.692214
_cell_angle_alpha 90.000000
_cell_angle_beta 90.000000
_cell_angle_gamma 90.000000
_cell_volume 1695.798733
_symmetry_space_group_name_H-M "P -4 B 2"
_symmetry_group_IT_number 117
_symmetry_cell_setting 'tetragonal'
loop_
_space_group_symop_operation_xyz
x,y,z
y,-x,-z
-x,-y,z
-y,x,-z
1/2+y,1/2+x,-z
1/2-y,1/2-x,-z
1/2-x,1/2+y,z
1/2+x,1/2-y,z
loop_
_atom_site_type_symbol
_atom_site_label
_atom_site_fract_x
_atom_site_fract_y
_atom_site_fract_z
Si Si1 0.000000 0.500000 0.500000
Si Si2 0.334303 0.056465 0.772689
Si Si3 0.912348 0.766144 0.593549
Si Si4 0.787278 0.287278 0.000000
Si Si5 0.832964 0.833757 0.312076
Si Si6 0.529728 0.326169 0.089834
Si Si7 0.500000 0.500000 0.500000
O O1 0.985774 0.637470 0.550521
O O2 0.240733 0.976294 0.715073
O O3 0.253258 0.020721 0.842306
O O4 0.500000 0.000000 0.773234
O O5 0.332280 0.222755 0.751215
O O6 0.008489 0.821379 0.656540
O O7 0.764455 0.714435 0.624891
O O8 0.896862 0.902587 0.545080
O O9 0.689768 0.278705 0.067946
O O10 0.942183 0.242819 0.027174
O O11 0.500000 0.500000 0.093599
#
# Coordination Sequence:
#
# PCOD9558356 Si02
#       7
#     2   8   8   4   8   8   2
#     4  12  24  44  68 104 148 176 252 302 356 440
#     4  12  28  48  72 111 144 191 245 298 356 428
#     4  12  24  43  69 101 141 190 236 302 362 434
#     4  12  24  50  72 106 148 188 238 296 364 414
#     4  12  25  47  72 103 145 190 242 298 368 426
#     4  12  28  48  74 108 148 188 243 300 350 430
#     4  12  24  40  64 104 132 192 236 282 376 424
#
# _framework density 23.587703000000001
#
# number of rings (size 3 to 8) (size 9 to 14) (size 15 to 20)
#    0.000    0.000    4.000    6.000    5.600    3.200 
#    0.000    0.000    0.000    0.000    0.000    0.000 
#    0.000    0.000    0.000    0.000    0.000    0.000 
#
# Total GULP energy -223829.143693 kJ/mol
# GULP energy per Si atom -5595.728592 kJ/mol
# Density = 2.353402 g / cm^3
# Si number density = 23.587703 Si / 1000 Ang^3
#
#
#
# Elastic Constant Matrix: (Units=GPa)
#
#
# Indices 1 2 3 4 5 6 
#
# 1 72.2406 20.7137 10.0912 0.0000 0.0000 0.0000
# 2 20.7137 72.2406 10.0912 0.0000 0.0000 0.0000
# 3 10.0912 10.0912 99.4430 0.0000 0.0000 0.0000
# 4 0.0000 0.0000 0.0000 33.0265 0.0000 0.0000
# 5 0.0000 0.0000 0.0000 0.0000 33.0265 0.0000
# 6 0.0000 0.0000 0.0000 0.0000 0.0000 25.7052
#
#
#
# Elastic Compliance Matrix: (Units=1/GPa)
#
#
# Indices 1 2 3 4 5 6 
#
# 1 0.015204 -0.004204 -0.001116 0.000000 0.000000 0.000000
# 2 -0.004204 0.015204 -0.001116 0.000000 0.000000 0.000000
# 3 -0.001116 -0.001116 0.010283 0.000000 0.000000 0.000000
# 4 0.000000 0.000000 0.000000 0.030279 0.000000 0.000000
# 5 0.000000 0.000000 0.000000 0.000000 0.030279 0.000000
# 6 0.000000 0.000000 0.000000 0.000000 0.000000 0.038903
#
#
# Mechanical properties :
#
#
# Convention : Reuss Voigt Hill
#
# Bulk Modulus (GPa) = 35.94782 36.19073 36.06927
# Shear Modulus (GPa) = 30.80804 31.88683 31.34744
#
# Velocity S-wave (km/s) = 3.61793 3.68073 3.64946
# Velocity P-wave (km/s) = 5.72064 5.78274 5.75177
#
# Compressibility (1/GPa) = 0.02781810
#
# Stress axis : x y z
#
# Youngs Moduli (GPa) = 65.77280 65.77280 97.25201
#
# Poissons Ratio (x) = 0.27648 0.10856
# Poissons Ratio (y) = 0.27648 0.10856
# Poissons Ratio (z) = 0.07342 0.07342
#
# Static dielectric constant tensor:
#      x y z
#    x 1.926100 0.000000 0.000000 
#    y 0.000000 1.926100 0.000000 
#    z 0.000000 0.000000 1.894260 
# 
# From -- ./inp_files/3541.got.cif
#   From: 2010.05.17/outbox.cif.g08.bks.cpg/sg117_2_cif.got.tgz:3541.got - 2010.05.20 11:15:09.
