data_PCOD9558317
_publ_section_title
;
Structure prediction by ZEFSAII (Michael W. Deem and Ramdas Pophale) SiO2 
 PCOD9558317
Probable space group: P -4 B 2
;
_chemical_formula_sum "Si O2"
_cell_formula_units_Z 38
_cell_length_a 13.754501
_cell_length_b 13.754501
_cell_length_c 9.716994
_cell_angle_alpha 90.000000
_cell_angle_beta 90.000000
_cell_angle_gamma 90.000000
_cell_volume 1838.322120
_symmetry_space_group_name_H-M "P -4 B 2"
_symmetry_group_IT_number 117
_symmetry_cell_setting 'tetragonal'
loop_
_space_group_symop_operation_xyz
x,y,z
y,-x,-z
-x,-y,z
-y,x,-z
1/2+y,1/2+x,-z
1/2-y,1/2-x,-z
1/2-x,1/2+y,z
1/2+x,1/2-y,z
loop_
_atom_site_type_symbol
_atom_site_label
_atom_site_fract_x
_atom_site_fract_y
_atom_site_fract_z
Si Si1 0.010621 0.637932 0.426252
Si Si2 0.500000 0.500000 0.000000
Si Si3 0.350567 0.464024 0.470614
Si Si4 0.145608 0.866271 0.174382
Si Si5 0.835296 0.664705 0.000000
Si Si6 0.160405 0.546950 0.877261
O O1 0.928485 0.571516 0.500000
O O2 0.979741 0.749318 0.450820
O O3 0.112154 0.612154 0.500000
O O4 0.032993 0.608657 0.269423
O O5 0.417288 0.446457 0.090910
O O6 0.401041 0.569252 0.446607
O O7 0.338096 0.408350 0.326565
O O8 0.088160 0.765432 0.163142
O O9 0.247823 0.837496 0.107055
O O10 0.938720 0.672137 0.070408
O O11 0.108360 0.608360 0.000000
#
# Coordination Sequence:
#
# PCOD9558317 Si02
#       6
#     8   2   8   8   4   8
#     4  11  27  48  71 107 146 200 255 309 385 461
#     4  12  24  44  70 100 152 192 256 334 372 452
#     4  11  24  46  72 106 150 197 252 313 380 453
#     4  12  25  45  74 111 146 198 256 318 388 460
#     4  12  27  46  74 109 150 196 250 320 388 461
#     4  12  27  49  74 110 149 197 253 319 388 460
#
# _framework density 20.671023000000002
#
# number of rings (size 3 to 8) (size 9 to 14) (size 15 to 20)
#    0.000    0.421    5.263    2.842    8.842    0.842 
#    3.789    0.000    0.000    0.000    0.000    0.000 
#    0.000    0.000    0.000    0.000    0.000    0.000 
#
# Total GULP energy -212215.331282 kJ/mol
# GULP energy per Si atom -5584.613981 kJ/mol
# Density = 2.062397 g / cm^3
# Si number density = 20.671023 Si / 1000 Ang^3
#
#
#
# Elastic Constant Matrix: (Units=GPa)
#
#
# Indices 1 2 3 4 5 6 
#
# 1 134.9131 41.6937 61.1213 0.0000 0.0000 0.0000
# 2 41.6937 134.9129 61.1204 0.0000 0.0000 0.0000
# 3 61.1213 61.1204 161.0108 0.0000 0.0000 0.0000
# 4 0.0000 0.0000 0.0000 38.9180 0.0000 0.0000
# 5 0.0000 0.0000 0.0000 0.0000 38.9183 0.0000
# 6 0.0000 0.0000 0.0000 0.0000 0.0000 38.7257
#
#
#
# Elastic Compliance Matrix: (Units=1/GPa)
#
#
# Indices 1 2 3 4 5 6 
#
# 1 0.009204 -0.001524 -0.002916 0.000000 0.000000 0.000000
# 2 -0.001524 0.009204 -0.002915 0.000000 0.000000 0.000000
# 3 -0.002916 -0.002915 0.008424 0.000000 0.000000 0.000000
# 4 0.000000 0.000000 0.000000 0.025695 0.000000 0.000000
# 5 0.000000 0.000000 0.000000 0.000000 0.025695 0.000000
# 6 0.000000 0.000000 0.000000 0.000000 0.000000 0.025823
#
#
# Mechanical properties :
#
#
# Convention : Reuss Voigt Hill
#
# Bulk Modulus (GPa) = 82.48866 84.30086 83.39476
# Shear Modulus (GPa) = 40.71841 41.10582 40.91212
#
# Velocity S-wave (km/s) = 4.44309 4.46418 4.45365
# Velocity P-wave (km/s) = 8.14331 8.21234 8.17790
#
# Compressibility (1/GPa) = 0.01212288
#
# Stress axis : x y z
#
# Youngs Moduli (GPa) = 108.64987 108.65028 118.70484
#
# Poissons Ratio (x) = 0.16553 0.34609
# Poissons Ratio (y) = 0.16553 0.34608
# Poissons Ratio (z) = 0.31677 0.31677
#
# Static dielectric constant tensor:
#      x y z
#    x 1.731690 0.000000 0.000000 
#    y 0.000000 1.731690 0.000000 
#    z 0.000000 0.000000 1.767430 
# 
# From -- ./inp_files/1639.got.cif
#   From: 2010.05.17/outbox.cif.g08.bks.cpg/sg117_1_cif.got.tgz:1639.got - 2010.05.20 11:15:09.
