data_PCOD9558887
_publ_section_title
;
Structure prediction by ZEFSAII (Michael W. Deem and Ramdas Pophale) SiO2 
 PCOD9558887
Probable space group: P -4 N 2
;
_chemical_formula_sum "Si O2"
_cell_formula_units_Z 38
_cell_length_a 8.734530
_cell_length_b 8.734530
_cell_length_c 20.975508
_cell_angle_alpha 90.000000
_cell_angle_beta 90.000000
_cell_angle_gamma 90.000000
_cell_volume 1600.263757
_symmetry_space_group_name_H-M "P -4 N 2"
_symmetry_group_IT_number 118
_symmetry_cell_setting 'tetragonal'
loop_
_space_group_symop_operation_xyz
x,y,z
y,-x,-z
-x,-y,z
-y,x,-z
1/2+y,1/2+x,1/2-z
1/2-y,1/2-x,1/2-z
1/2-x,1/2+y,1/2+z
1/2+x,1/2-y,1/2+z
loop_
_atom_site_type_symbol
_atom_site_label
_atom_site_fract_x
_atom_site_fract_y
_atom_site_fract_z
Si Si1 0.760072 0.212854 0.358893
Si Si2 0.229942 0.073373 0.974328
Si Si3 0.500000 0.500000 0.780509
Si Si4 0.500000 0.500000 0.000000
Si Si5 0.571688 0.764583 0.303107
Si Si6 0.725974 0.903902 0.426708
O O1 0.765095 0.366137 0.402986
O O2 0.608180 0.234845 0.317409
O O3 0.899067 0.124522 0.321331
O O4 0.715203 0.079111 0.407285
O O5 0.373950 0.114423 0.015753
O O6 0.097266 0.173165 0.011192
O O7 0.606571 0.400392 0.733748
O O8 0.390878 0.398463 0.045426
O O9 0.613181 0.886820 0.250000
O O10 0.671373 0.803844 0.365821
#
# Coordination Sequence:
#
# PCOD9558887 Si02
#       6
#     8   8   4   2   8   8
#     4  12  26  47  75 109 144 199 252 309 373 446
#     4  11  26  45  72 113 158 190 243 313 376 442
#     4  12  29  44  75 111 152 195 254 320 358 459
#     4  12  26  48  76 120 156 194 260 318 384 438
#     4  12  28  47  76 109 145 200 256 302 374 456
#     4  12  25  42  75 111 147 195 245 310 370 448
#
# _framework density 23.746085999999998
#
# number of rings (size 3 to 8) (size 9 to 14) (size 15 to 20)
#    0.000    0.211    6.316    1.895    5.895    0.000 
#    0.000    0.000    0.000   10.105    0.000    0.000 
#    0.000    0.000    0.000    0.000    0.000    0.000 
#
# Total GULP energy -212049.907577 kJ/mol
# GULP energy per Si atom -5580.260726 kJ/mol
# Density = 2.369204 g / cm^3
# Si number density = 23.746086 Si / 1000 Ang^3
#
#
#
# Elastic Constant Matrix: (Units=GPa)
#
#
# Indices 1 2 3 4 5 6 
#
# 1 94.4290 45.1924 57.1337 0.0000 0.0000 0.0000
# 2 45.1924 94.4265 57.1339 0.0000 0.0000 0.0000
# 3 57.1337 57.1339 163.2675 0.0000 0.0000 0.0000
# 4 0.0000 0.0000 0.0000 34.7271 0.0000 0.0000
# 5 0.0000 0.0000 0.0000 0.0000 34.7274 0.0000
# 6 0.0000 0.0000 0.0000 0.0000 0.0000 -9.2602
#
#
#
# Elastic Compliance Matrix: (Units=1/GPa)
#
#
# Indices 1 2 3 4 5 6 
#
# 1 0.015173 -0.005137 -0.003512 0.000000 0.000000 0.000000
# 2 -0.005137 0.015174 -0.003512 0.000000 0.000000 0.000000
# 3 -0.003512 -0.003512 0.008583 0.000000 0.000000 0.000000
# 4 0.000000 0.000000 0.000000 0.028796 0.000000 0.000000
# 5 0.000000 0.000000 0.000000 0.000000 0.028796 0.000000
# 6 0.000000 0.000000 0.000000 0.000000 0.000000 -0.107989
#
#
# Mechanical properties :
#
#
# Convention : Reuss Voigt Hill
#
# Bulk Modulus (GPa) = 68.45759 74.56032 71.50896
# Shear Modulus (GPa) = 282.07909 24.88305 153.48107
#
# Velocity S-wave (km/s) = 10.91089 3.24061 8.04827
# Velocity P-wave (km/s) = 13.69751 6.74309 10.79562
#
# Compressibility (1/GPa) = 0.01460758
#
# Stress axis : x y z
#
# Youngs Moduli (GPa) = 65.90469 65.90233 116.50825
#
# Poissons Ratio (x) = 0.33853 0.40920
# Poissons Ratio (y) = 0.33855 0.40922
# Poissons Ratio (z) = 0.23147 0.23147
#
# Static dielectric constant tensor:
#      x y z
#    x 2.030460 0.000000 0.000000 
#    y 0.000000 2.030460 0.000000 
#    z 0.000000 0.000000 2.164780 
# 
# From -- ./inp_files/6072.got.cif
#   From: 2010.05.17/outbox.cif.g08.bks.cpg/sg118_4_cif.got.tgz:6072.got - 2010.05.20 11:17:24.
