data_PCOD9558520
_publ_section_title
;
Structure prediction by ZEFSAII (Michael W. Deem and Ramdas Pophale) SiO2 
 PCOD9558520
Probable space group: P -4 N 2
;
_chemical_formula_sum "Si O2"
_cell_formula_units_Z 34
_cell_length_a 11.300830
_cell_length_b 11.300830
_cell_length_c 11.939776
_cell_angle_alpha 90.000000
_cell_angle_beta 90.000000
_cell_angle_gamma 90.000000
_cell_volume 1524.813972
_symmetry_space_group_name_H-M "P -4 N 2"
_symmetry_group_IT_number 118
_symmetry_cell_setting 'tetragonal'
loop_
_space_group_symop_operation_xyz
x,y,z
y,-x,-z
-x,-y,z
-y,x,-z
1/2+y,1/2+x,1/2-z
1/2-y,1/2-x,1/2-z
1/2-x,1/2+y,1/2+z
1/2+x,1/2-y,1/2+z
loop_
_atom_site_type_symbol
_atom_site_label
_atom_site_fract_x
_atom_site_fract_y
_atom_site_fract_z
Si Si1 0.337444 0.070936 0.446932
Si Si2 0.490275 0.173701 0.804013
Si Si3 0.364550 0.336360 0.217962
Si Si4 0.500000 0.000000 0.250000
Si Si5 0.676894 0.459036 0.550289
O O1 0.342501 0.003893 0.563007
O O2 0.205083 0.098464 0.405159
O O3 0.412619 0.190711 0.469716
O O4 0.392687 0.007004 0.337975
O O5 0.366280 0.133721 0.750000
O O6 0.536517 0.303563 0.778130
O O7 0.585418 0.085418 0.750000
O O8 0.264749 0.235252 0.250000
O O9 0.461322 0.333242 0.315168
O O10 0.582139 0.361977 0.505221
#
# Coordination Sequence:
#
# PCOD9558520 Si02
#       5
#     8   8   8   2   8
#     4  11  22  39  64  97 128 170 222 281 331 404
#     4  10  20  37  64  96 127 173 223 273 334 405
#     4   9  19  40  59  90 132 163 209 282 331 384
#     4  12  20  36  62  96 126 164 224 264 344 388
#     4  10  20  38  65  87 127 177 216 267 333 401
#
# _framework density 22.297801
#
# number of rings (size 3 to 8) (size 9 to 14) (size 15 to 20)
#    0.000    1.882    3.529    2.824    0.000    5.647 
#    0.000    7.059   12.941    0.000    0.000    0.000 
#    0.000    0.000    0.000    0.000    0.000    0.000 
#
# Total GULP energy -189730.608188 kJ/mol
# GULP energy per Si atom -5580.312006 kJ/mol
# Density = 2.224705 g / cm^3
# Si number density = 22.297801 Si / 1000 Ang^3
#
#
#
# Elastic Constant Matrix: (Units=GPa)
#
#
# Indices 1 2 3 4 5 6 
#
# 1 30.2402 34.2840 28.0560 0.0000 0.0000 0.0000
# 2 34.2840 30.2401 28.0567 0.0000 0.0000 0.0000
# 3 28.0560 28.0567 168.6125 0.0000 0.0000 0.0000
# 4 0.0000 0.0000 0.0000 -62.5409 0.0000 0.0000
# 5 0.0000 0.0000 0.0000 0.0000 -62.4846 0.0000
# 6 0.0000 0.0000 0.0000 0.0000 0.0000 24.6628
#
#
#
# Elastic Compliance Matrix: (Units=1/GPa)
#
#
# Indices 1 2 3 4 5 6 
#
# 1 -0.114582 0.132703 -0.003016 0.000000 0.000000 0.000000
# 2 0.132703 -0.114584 -0.003014 0.000000 0.000000 0.000000
# 3 -0.003016 -0.003014 0.006934 0.000000 0.000000 0.000000
# 4 0.000000 0.000000 0.000000 -0.015990 0.000000 0.000000
# 5 0.000000 0.000000 0.000000 0.000000 -0.016004 0.000000
# 6 0.000000 0.000000 0.000000 0.000000 0.000000 0.040547
#
#
# Mechanical properties :
#
#
# Convention : Reuss Voigt Hill
#
# Bulk Modulus (GPa) = 32.13990 45.54293 38.84141
# Shear Modulus (GPa) = -10.94923 -10.82615 -10.88769
#
# Velocity S-wave (km/s) = -2.21836 -2.20585 -2.21212
# Velocity P-wave (km/s) = 2.80780 3.73918 3.30645
#
# Compressibility (1/GPa) = 0.03111397
#
# Stress axis : x y z
#
# Youngs Moduli (GPa) = -8.72736 -8.72723 144.21361
#
# Poissons Ratio (x) = 1.15813 0.43491
# Poissons Ratio (y) = 1.15815 0.43473
# Poissons Ratio (z) = -0.02632 -0.02631
#
# Static dielectric constant tensor:
#      x y z
#    x 1.923620 0.000000 0.000000 
#    y 0.000000 1.923670 0.000000 
#    z 0.000000 0.000000 1.812610 
# 
# From -- ./inp_files/3029.got.cif
#   From: 2010.05.17/outbox.cif.g08.bks.cpg/sg118_2_cif.got.tgz:3029.got - 2010.05.20 11:17:24.
