data_PCOD9558215
_publ_section_title
;
Structure prediction by ZEFSAII (Michael W. Deem and Ramdas Pophale) SiO2 
 PCOD9558215
Probable space group: P -4 B 2
;
_chemical_formula_sum "Si O2"
_cell_formula_units_Z 40
_cell_length_a 11.329112
_cell_length_b 11.329112
_cell_length_c 17.181698
_cell_angle_alpha 90.000000
_cell_angle_beta 90.000000
_cell_angle_gamma 90.000000
_cell_volume 2205.249954
_symmetry_space_group_name_H-M "P -4 B 2"
_symmetry_group_IT_number 117
_symmetry_cell_setting 'tetragonal'
loop_
_space_group_symop_operation_xyz
x,y,z
y,-x,-z
-x,-y,z
-y,x,-z
1/2+y,1/2+x,-z
1/2-y,1/2-x,-z
1/2-x,1/2+y,z
1/2+x,1/2-y,z
loop_
_atom_site_type_symbol
_atom_site_label
_atom_site_fract_x
_atom_site_fract_y
_atom_site_fract_z
Si Si1 0.903227 0.602173 0.701406
Si Si2 0.100883 0.399079 0.882055
Si Si3 0.962686 0.804369 0.000275
Si Si4 0.530207 0.302866 0.413190
Si Si5 0.692783 0.535217 0.411833
O O1 0.875866 0.625853 0.791584
O O2 0.790351 0.560892 0.652300
O O3 0.955515 0.713858 0.656195
O O4 0.000000 0.500000 0.699499
O O5 0.218433 0.443721 0.925940
O O6 0.000000 0.500000 0.889089
O O7 0.056736 0.282205 0.926896
O O8 0.090541 0.866324 0.999912
O O9 0.618538 0.414348 0.408653
O O10 0.540669 0.253562 0.501149
O O11 0.400047 0.357650 0.404447
#
# Coordination Sequence:
#
# PCOD9558215 Si02
#       5
#     8   8   8   8   8
#     4  11  24  38  56  90 122 153 192 236 292 349
#     4  10  24  40  60  88 125 153 181 237 296 340
#     4  10  22  41  67  91 110 148 197 234 280 351
#     4   9  20  39  60  83 115 157 202 246 289 333
#     4   9  20  39  60  83 115 157 202 246 289 333
#
# _framework density 18.138532999999999
#
# number of rings (size 3 to 8) (size 9 to 14) (size 15 to 20)
#    0.000    2.200    0.000    3.000    8.400    4.800 
#    0.000    4.000    0.000    0.000    0.000    0.000 
#    0.000    0.000    0.000    0.000    0.000    0.000 
#
# Total GULP energy -223334.470795 kJ/mol
# GULP energy per Si atom -5583.361770 kJ/mol
# Density = 1.809725 g / cm^3
# Si number density = 18.138533 Si / 1000 Ang^3
#
#
#
# Elastic Constant Matrix: (Units=GPa)
#
#
# Indices 1 2 3 4 5 6 
#
# 1 83.8898 27.1052 61.7123 0.0000 0.0000 0.0000
# 2 27.1052 83.8898 61.7123 0.0000 0.0000 0.0000
# 3 61.7123 61.7123 184.7521 0.0000 0.0000 0.0000
# 4 0.0000 0.0000 0.0000 32.4273 0.0000 0.0000
# 5 0.0000 0.0000 0.0000 0.0000 32.4273 0.0000
# 6 0.0000 0.0000 0.0000 0.0000 0.0000 16.9715
#
#
#
# Elastic Compliance Matrix: (Units=1/GPa)
#
#
# Indices 1 2 3 4 5 6 
#
# 1 0.015972 -0.001639 -0.004788 0.000000 0.000000 0.000000
# 2 -0.001639 0.015972 -0.004788 0.000000 0.000000 0.000000
# 3 -0.004788 -0.004788 0.008611 0.000000 0.000000 0.000000
# 4 0.000000 0.000000 0.000000 0.030838 0.000000 0.000000
# 5 0.000000 0.000000 0.000000 0.000000 0.030838 0.000000
# 6 0.000000 0.000000 0.000000 0.000000 0.000000 0.058922
#
#
# Mechanical properties :
#
#
# Convention : Reuss Voigt Hill
#
# Bulk Modulus (GPa) = 55.16690 72.62126 63.89408
# Shear Modulus (GPa) = 26.36802 29.83202 28.10002
#
# Velocity S-wave (km/s) = 3.81688 4.05986 3.94024
# Velocity P-wave (km/s) = 7.06435 7.88039 7.48350
#
# Compressibility (1/GPa) = 0.01812681
#
# Stress axis : x y z
#
# Youngs Moduli (GPa) = 62.61024 62.61024 116.12901
#
# Poissons Ratio (x) = 0.10259 0.55599
# Poissons Ratio (y) = 0.10259 0.55599
# Poissons Ratio (z) = 0.29976 0.29976
#
# Static dielectric constant tensor:
#      x y z
#    x 1.612120 0.000000 0.000000 
#    y 0.000000 1.612120 0.000000 
#    z 0.000000 0.000000 1.605390 
# 
# From -- ./inp_files/3119.got.cif
#   From: 2010.05.17/outbox.cif.g08.bks.cpg/sg117_2_cif.got.tgz:3119.got - 2010.05.20 11:15:09.
