data_PCOD9558423
_publ_section_title
;
Structure prediction by ZEFSAII (Michael W. Deem and Ramdas Pophale) SiO2 
 PCOD9558423
Probable space group: P -4 N 2
;
_chemical_formula_sum "Si O2"
_cell_formula_units_Z 20
_cell_length_a 8.771769
_cell_length_b 8.771769
_cell_length_c 11.945669
_cell_angle_alpha 90.000000
_cell_angle_beta 90.000000
_cell_angle_gamma 90.000000
_cell_volume 919.146736
_symmetry_space_group_name_H-M "P -4 N 2"
_symmetry_group_IT_number 118
_symmetry_cell_setting 'tetragonal'
loop_
_space_group_symop_operation_xyz
x,y,z
y,-x,-z
-x,-y,z
-y,x,-z
1/2+y,1/2+x,1/2-z
1/2-y,1/2-x,1/2-z
1/2-x,1/2+y,1/2+z
1/2+x,1/2-y,1/2+z
loop_
_atom_site_type_symbol
_atom_site_label
_atom_site_fract_x
_atom_site_fract_y
_atom_site_fract_z
Si Si1 0.523998 0.822257 0.409607
Si Si2 0.212097 0.287904 0.250000
Si Si3 0.066004 0.828276 0.149299
O O1 0.684409 0.775227 0.351796
O O2 0.377824 0.741271 0.351657
O O3 0.531897 0.767102 0.537869
O O4 0.500000 0.000000 0.402404
O O5 0.248817 0.468869 0.251865
O O6 0.000000 0.000000 0.137439
#
# Coordination Sequence:
#
# PCOD9558423 Si02
#       3
#     8   4   8
#     4  11  20  38  69 101 141 185 236 306 368 439
#     4  10  19  38  71  94 122 202 233 280 385 428
#     4  10  18  41  68  91 143 187 229 305 362 437
#
# _framework density 21.759311
#
# number of rings (size 3 to 8) (size 9 to 14) (size 15 to 20)
#    0.000    1.600    8.000    0.600    0.000    0.000 
#    0.000   21.000    0.000    0.000    0.000    0.000 
#    0.000    0.000    0.000    0.000    0.000    0.000 
#
# Total GULP energy -111436.787342 kJ/mol
# GULP energy per Si atom -5571.839367 kJ/mol
# Density = 2.170979 g / cm^3
# Si number density = 21.759311 Si / 1000 Ang^3
#
#
#
# Elastic Constant Matrix: (Units=GPa)
#
#
# Indices 1 2 3 4 5 6 
#
# 1 165.2943 55.5227 36.0431 0.0000 0.0000 0.0000
# 2 55.5227 165.2954 36.0433 0.0000 0.0000 0.0000
# 3 36.0431 36.0433 73.5369 0.0000 0.0000 0.0000
# 4 0.0000 0.0000 0.0000 40.5009 0.0000 0.0000
# 5 0.0000 0.0000 0.0000 0.0000 40.5008 0.0000
# 6 0.0000 0.0000 0.0000 0.0000 0.0000 26.8621
#
#
#
# Elastic Compliance Matrix: (Units=1/GPa)
#
#
# Indices 1 2 3 4 5 6 
#
# 1 0.007251 -0.001859 -0.002642 0.000000 0.000000 0.000000
# 2 -0.001859 0.007250 -0.002642 0.000000 0.000000 0.000000
# 3 -0.002642 -0.002642 0.016189 0.000000 0.000000 0.000000
# 4 0.000000 0.000000 0.000000 0.024691 0.000000 0.000000
# 5 0.000000 0.000000 0.000000 0.000000 0.024691 0.000000
# 6 0.000000 0.000000 0.000000 0.000000 0.000000 0.037227
#
#
# Mechanical properties :
#
#
# Convention : Reuss Voigt Hill
#
# Bulk Modulus (GPa) = 60.96955 73.26054 67.11504
# Shear Modulus (GPa) = 36.48187 40.00726 38.24456
#
# Velocity S-wave (km/s) = 4.09908 4.29257 4.19694
# Velocity P-wave (km/s) = 7.10522 7.63609 7.37543
#
# Compressibility (1/GPa) = 0.01640163
#
# Stress axis : x y z
#
# Youngs Moduli (GPa) = 137.92068 137.92153 61.77051
#
# Poissons Ratio (x) = 0.25643 0.16323
# Poissons Ratio (y) = 0.25643 0.16323
# Poissons Ratio (z) = 0.36445 0.36445
#
# Static dielectric constant tensor:
#      x y z
#    x 1.891020 0.000000 0.000000 
#    y 0.000000 1.891020 0.000000 
#    z 0.000000 0.000000 1.785290 
# 
# From -- ./inp_files/2479.got.cif
#   From: 2010.05.17/outbox.cif.g08.bks.cpg/sg118_2_cif.got.tgz:2479.got - 2010.05.20 11:17:24.
