data_PCOD9558385
_publ_section_title
;
Structure prediction by ZEFSAII (Michael W. Deem and Ramdas Pophale) SiO2 
 PCOD9558385
Probable space group: P -4 N 2
;
_chemical_formula_sum "Si O2"
_cell_formula_units_Z 56
_cell_length_a 12.058681
_cell_length_b 12.058681
_cell_length_c 21.572320
_cell_angle_alpha 90.000000
_cell_angle_beta 90.000000
_cell_angle_gamma 90.000000
_cell_volume 3136.869611
_symmetry_space_group_name_H-M "P -4 N 2"
_symmetry_group_IT_number 118
_symmetry_cell_setting 'tetragonal'
loop_
_space_group_symop_operation_xyz
x,y,z
y,-x,-z
-x,-y,z
-y,x,-z
1/2+y,1/2+x,1/2-z
1/2-y,1/2-x,1/2-z
1/2-x,1/2+y,1/2+z
1/2+x,1/2-y,1/2+z
loop_
_atom_site_type_symbol
_atom_site_label
_atom_site_fract_x
_atom_site_fract_y
_atom_site_fract_z
Si Si1 0.312208 0.170028 0.819234
Si Si2 0.927687 0.110674 0.908937
Si Si3 0.939595 0.786705 0.200253
Si Si4 0.696595 0.065596 0.673698
Si Si5 0.422365 0.800568 0.969766
Si Si6 0.264393 0.176370 0.546172
Si Si7 0.765162 0.509841 0.491969
O O1 0.286707 0.213294 0.750000
O O2 0.444468 0.138925 0.819570
O O3 0.309080 0.248101 0.879395
O O4 0.232118 0.064002 0.824970
O O5 0.881085 0.120633 0.839336
O O6 0.821158 0.082286 0.951707
O O7 0.000000 0.000000 0.912798
O O8 0.994151 0.212605 0.939497
O O9 0.938594 0.794164 0.274820
O O10 0.882264 0.668405 0.188301
O O11 0.728864 0.087279 0.603018
O O12 0.551536 0.777876 0.979432
O O13 0.380996 0.926252 0.983032
O O14 0.337681 0.730944 0.011110
O O15 0.385576 0.227509 0.533575
#
# Coordination Sequence:
#
# PCOD9558385 Si02
#       7
#     8   8   8   8   8   8   8
#     4   9  17  28  49  78 107 134 173 221 276 333
#     4  12  20  30  50  81 116 145 169 218 294 355
#     4  10  17  28  49  76 110 139 164 214 279 339
#     4   9  17  30  49  76 103 135 178 220 268 327
#     4  11  22  36  56  79 106 147 190 234 273 326
#     4  11  21  35  56  78 112 147 186 225 278 335
#     4  12  19  34  53  83 110 141 177 227 281 343
#
# _framework density 17.852191000000001
#
# number of rings (size 3 to 8) (size 9 to 14) (size 15 to 20)
#    0.000    1.429    5.714    0.857    0.000    4.286 
#    0.000    0.000    9.429    0.000    0.000    0.000 
#    0.000    5.714    0.000    0.000    0.000    0.000 
#
# Total GULP energy -311776.655783 kJ/mol
# GULP energy per Si atom -5567.440282 kJ/mol
# Density = 1.781156 g / cm^3
# Si number density = 17.852191 Si / 1000 Ang^3
#
#
#
# Elastic Constant Matrix: (Units=GPa)
#
#
# Indices 1 2 3 4 5 6 
#
# 1 39.8894 10.7646 33.9506 0.0000 0.0000 0.0000
# 2 10.7646 39.8893 33.9506 0.0000 0.0000 0.0000
# 3 33.9506 33.9506 128.3619 0.0000 0.0000 0.0000
# 4 0.0000 0.0000 0.0000 24.1247 0.0000 0.0000
# 5 0.0000 0.0000 0.0000 0.0000 24.1247 0.0000
# 6 0.0000 0.0000 0.0000 0.0000 0.0000 20.8207
#
#
#
# Elastic Compliance Matrix: (Units=1/GPa)
#
#
# Indices 1 2 3 4 5 6 
#
# 1 0.032460 -0.001875 -0.008090 0.000000 0.000000 0.000000
# 2 -0.001875 0.032461 -0.008090 0.000000 0.000000 0.000000
# 3 -0.008090 -0.008090 0.012070 0.000000 0.000000 0.000000
# 4 0.000000 0.000000 0.000000 0.041451 0.000000 0.000000
# 5 0.000000 0.000000 0.000000 0.000000 0.041451 0.000000
# 6 0.000000 0.000000 0.000000 0.000000 0.000000 0.048029
#
#
# Mechanical properties :
#
#
# Convention : Reuss Voigt Hill
#
# Bulk Modulus (GPa) = 24.46011 40.60802 32.53406
# Shear Modulus (GPa) = 19.40556 22.44568 20.92562
#
# Velocity S-wave (km/s) = 3.30056 3.54970 3.42740
# Velocity P-wave (km/s) = 5.31565 6.29259 5.82464
#
# Compressibility (1/GPa) = 0.04088290
#
# Stress axis : x y z
#
# Youngs Moduli (GPa) = 30.80668 30.80660 82.85140
#
# Poissons Ratio (x) = 0.05775 0.67024
# Poissons Ratio (y) = 0.05775 0.67025
# Poissons Ratio (z) = 0.24922 0.24922
#
# Static dielectric constant tensor:
#      x y z
#    x 1.626550 0.000000 0.000000 
#    y 0.000000 1.626550 0.000000 
#    z 0.000000 0.000000 1.698120 
# 
# From -- ./inp_files/5699.got.cif
#   From: 2010.05.17/outbox.cif.g08.bks.cpg/sg118_3_cif.got.tgz:5699.got - 2010.05.20 11:17:24.
