data_PCOD9558136
_publ_section_title
;
Structure prediction by ZEFSAII (Michael W. Deem and Ramdas Pophale) SiO2 
 PCOD9558136
Probable space group: P -4 B 2
;
_chemical_formula_sum "Si O2"
_cell_formula_units_Z 48
_cell_length_a 12.826449
_cell_length_b 12.826449
_cell_length_c 13.544806
_cell_angle_alpha 90.000000
_cell_angle_beta 90.000000
_cell_angle_gamma 90.000000
_cell_volume 2228.361603
_symmetry_space_group_name_H-M "P -4 B 2"
_symmetry_group_IT_number 117
_symmetry_cell_setting 'tetragonal'
loop_
_space_group_symop_operation_xyz
x,y,z
y,-x,-z
-x,-y,z
-y,x,-z
1/2+y,1/2+x,-z
1/2-y,1/2-x,-z
1/2-x,1/2+y,z
1/2+x,1/2-y,z
loop_
_atom_site_type_symbol
_atom_site_label
_atom_site_fract_x
_atom_site_fract_y
_atom_site_fract_z
Si Si1 0.360748 0.299773 0.172687
Si Si2 0.743064 0.544158 0.052255
Si Si3 0.034459 0.385336 0.396712
Si Si4 0.772186 0.201661 0.681683
Si Si5 0.125219 0.625219 0.000000
Si Si6 0.091972 0.131092 0.136489
Si Si7 0.824819 0.324819 0.500000
O O1 0.268316 0.373539 0.136498
O O2 0.314505 0.262792 0.275688
O O3 0.470335 0.362529 0.169783
O O4 0.367137 0.210274 0.088429
O O5 0.849851 0.483091 0.050325
O O6 0.647115 0.463085 0.076086
O O7 0.721154 0.595271 0.946506
O O8 0.092535 0.407466 0.500000
O O9 0.112771 0.316813 0.331171
O O10 0.000000 0.500000 0.355937
O O11 0.929703 0.329156 0.434284
O O12 0.849447 0.158567 0.765803
O O13 0.820331 0.227512 0.575007
#
# Coordination Sequence:
#
# PCOD9558136 Si02
#       7
#     8   8   8   8   4   8   4
#     4  11  22  36  63  90 124 167 210 262 318 378
#     4  11  20  38  60  87 128 169 210 261 310 379
#     4   9  21  44  68  90 123 169 206 261 336 404
#     4  12  22  42  64  98 125 165 213 278 320 394
#     4  10  20  38  56  92 120 168 206 262 298 384
#     4  11  22  36  63  90 127 165 220 249 320 382
#     4  10  23  42  71  90 126 164 214 270 337 390
#
# _framework density 21.540489999999998
#
# number of rings (size 3 to 8) (size 9 to 14) (size 15 to 20)
#    0.000    1.500    5.833    1.500    0.000    2.667 
#    6.000    0.000    0.000    4.000    0.000    0.000 
#    0.000    0.000    0.000    0.000    0.000    0.000 
#
# Total GULP energy -267485.982009 kJ/mol
# GULP energy per Si atom -5572.624625 kJ/mol
# Density = 2.149146 g / cm^3
# Si number density = 21.540490 Si / 1000 Ang^3
#
#
#
# Elastic Constant Matrix: (Units=GPa)
#
#
# Indices 1 2 3 4 5 6 
#
# 1 54.7076 35.2393 35.8996 0.0000 0.0000 0.0000
# 2 35.2393 54.7078 35.8994 0.0000 0.0000 0.0000
# 3 35.8996 35.8994 91.6553 0.0000 0.0000 0.0000
# 4 0.0000 0.0000 0.0000 17.3250 0.0000 0.0000
# 5 0.0000 0.0000 0.0000 0.0000 17.3230 0.0000
# 6 0.0000 0.0000 0.0000 0.0000 0.0000 36.2516
#
#
#
# Elastic Compliance Matrix: (Units=1/GPa)
#
#
# Indices 1 2 3 4 5 6 
#
# 1 0.033770 -0.017595 -0.006335 0.000000 0.000000 0.000000
# 2 -0.017595 0.033770 -0.006335 0.000000 0.000000 0.000000
# 3 -0.006335 -0.006335 0.015873 0.000000 0.000000 0.000000
# 4 0.000000 0.000000 0.000000 0.057720 0.000000 0.000000
# 5 0.000000 0.000000 0.000000 0.000000 0.057727 0.000000
# 6 0.000000 0.000000 0.000000 0.000000 0.000000 0.027585
#
#
# Mechanical properties :
#
#
# Convention : Reuss Voigt Hill
#
# Bulk Modulus (GPa) = 43.70345 46.12749 44.91547
# Shear Modulus (GPa) = 16.97192 20.44874 18.71033
#
# Velocity S-wave (km/s) = 2.81001 3.08444 2.95042
# Velocity P-wave (km/s) = 5.55529 5.84344 5.70119
#
# Compressibility (1/GPa) = 0.02288149
#
# Stress axis : x y z
#
# Youngs Moduli (GPa) = 29.61187 29.61215 62.99896
#
# Poissons Ratio (x) = 0.52104 0.39913
# Poissons Ratio (y) = 0.52103 0.39911
# Poissons Ratio (z) = 0.18760 0.18760
#
# Static dielectric constant tensor:
#      x y z
#    x 1.842330 0.000000 0.000000 
#    y 0.000000 1.842330 0.000000 
#    z 0.000000 0.000000 1.751500 
# 
# From -- ./inp_files/2818.got.cif
#   From: 2010.05.17/outbox.cif.g08.bks.cpg/sg117_2_cif.got.tgz:2818.got - 2010.05.20 11:15:09.
