data_PCOD9558118
_publ_section_title
;
Structure prediction by ZEFSAII (Michael W. Deem and Ramdas Pophale) SiO2 
 PCOD9558118
Probable space group: P -4 B 2
;
_chemical_formula_sum "Si O2"
_cell_formula_units_Z 56
_cell_length_a 12.727024
_cell_length_b 12.727024
_cell_length_c 14.150889
_cell_angle_alpha 90.000000
_cell_angle_beta 90.000000
_cell_angle_gamma 90.000000
_cell_volume 2292.120527
_symmetry_space_group_name_H-M "P -4 B 2"
_symmetry_group_IT_number 117
_symmetry_cell_setting 'tetragonal'
loop_
_space_group_symop_operation_xyz
x,y,z
y,-x,-z
-x,-y,z
-y,x,-z
1/2+y,1/2+x,-z
1/2-y,1/2-x,-z
1/2-x,1/2+y,z
1/2+x,1/2-y,z
loop_
_atom_site_type_symbol
_atom_site_label
_atom_site_fract_x
_atom_site_fract_y
_atom_site_fract_z
Si Si1 0.992547 0.166422 0.486638
Si Si2 0.230598 0.683288 0.608300
Si Si3 0.100019 0.809189 0.916620
Si Si4 0.438825 0.592044 0.781548
Si Si5 0.887918 0.417870 0.224139
Si Si6 0.703157 0.079401 0.345117
Si Si7 0.248068 0.497978 0.886435
O O1 0.924336 0.202144 0.398405
O O2 0.028325 0.262261 0.554420
O O3 0.091063 0.093227 0.462499
O O4 0.194214 0.694214 0.500000
O O5 0.148817 0.656154 0.687564
O O6 0.296445 0.788071 0.634261
O O7 0.007716 0.883786 0.875680
O O8 0.093885 0.707805 0.850112
O O9 0.207007 0.879643 0.907436
O O10 0.066603 0.768312 0.019352
O O11 0.500000 0.500000 0.729168
O O12 0.437131 0.696629 0.721953
O O13 0.326759 0.550715 0.811983
O O14 0.889543 0.529294 0.283144
O O15 0.981624 0.365829 0.160896
#
# Coordination Sequence:
#
# PCOD9558118 Si02
#       7
#     8   8   8   8   8   8   8
#     4   9  19  31  55  86 115 146 186 242 313 363
#     4  11  21  37  54  80 118 159 195 249 295 347
#     4  10  21  35  58  89 120 153 187 233 294 363
#     4   9  18  28  53  83 117 146 178 229 300 352
#     4  11  23  37  55  92 117 155 200 239 293 356
#     4  10  20  35  52  81 119 151 198 246 289 354
#     4  11  19  37  59  85 123 156 183 236 296 356
#
# _framework density 24.431525000000001
#
# number of rings (size 3 to 8) (size 9 to 14) (size 15 to 20)
#    0.000    1.857    4.286    0.429    4.000    1.143 
#    0.000    0.000    0.000    0.857    3.714    0.000 
#    0.000    0.000    0.000    0.000    0.000    0.000 
#
# Total GULP energy -312281.537317 kJ/mol
# GULP energy per Si atom -5576.456024 kJ/mol
# Density = 2.437592 g / cm^3
# Si number density = 24.431525 Si / 1000 Ang^3
#
#
#
# Elastic Constant Matrix: (Units=GPa)
#
#
# Indices 1 2 3 4 5 6 
#
# 1 39.6264 0.0853 18.4326 0.0000 0.0000 0.0000
# 2 0.0853 39.6264 18.4326 0.0000 0.0000 0.0000
# 3 18.4326 18.4326 133.5401 0.0000 0.0000 0.0000
# 4 0.0000 0.0000 0.0000 36.3124 0.0000 0.0000
# 5 0.0000 0.0000 0.0000 0.0000 36.3124 0.0000
# 6 0.0000 0.0000 0.0000 0.0000 0.0000 24.2413
#
#
#
# Elastic Compliance Matrix: (Units=1/GPa)
#
#
# Indices 1 2 3 4 5 6 
#
# 1 0.027086 0.001796 -0.003987 0.000000 0.000000 0.000000
# 2 0.001796 0.027086 -0.003987 0.000000 0.000000 0.000000
# 3 -0.003987 -0.003987 0.008589 0.000000 0.000000 0.000000
# 4 0.000000 0.000000 0.000000 0.027539 0.000000 0.000000
# 5 0.000000 0.000000 0.000000 0.000000 0.027539 0.000000
# 6 0.000000 0.000000 0.000000 0.000000 0.000000 0.041252
#
#
# Mechanical properties :
#
#
# Convention : Reuss Voigt Hill
#
# Bulk Modulus (GPa) = 19.83844 31.85487 25.84665
# Shear Modulus (GPa) = 26.56073 31.09603 28.82838
#
# Velocity S-wave (km/s) = 3.30077 3.57148 3.43879
# Velocity P-wave (km/s) = 4.76072 5.48398 5.13510
#
# Compressibility (1/GPa) = 0.05040720
#
# Stress axis : x y z
#
# Youngs Moduli (GPa) = 36.91906 36.91906 116.42865
#
# Poissons Ratio (x) = -0.06631 0.46416
# Poissons Ratio (y) = -0.06631 0.46416
# Poissons Ratio (z) = 0.14718 0.14718
#
# Static dielectric constant tensor:
#      x y z
#    x 2.085490 0.000000 0.000000 
#    y 0.000000 2.085490 0.000000 
#    z 0.000000 0.000000 1.903490 
# 
# From -- ./inp_files/3235.got.cif
#   From: 2010.05.17/outbox.cif.g08.bks.cpg/sg117_2_cif.got.tgz:3235.got - 2010.05.20 11:15:09.
