data_PCOD9558863
_publ_section_title
;
Structure prediction by ZEFSAII (Michael W. Deem and Ramdas Pophale) SiO2 
 PCOD9558863
Probable space group: P -4 N 2
;
_chemical_formula_sum "Si O2"
_cell_formula_units_Z 40
_cell_length_a 8.714337
_cell_length_b 8.714337
_cell_length_c 21.646733
_cell_angle_alpha 90.000000
_cell_angle_beta 90.000000
_cell_angle_gamma 90.000000
_cell_volume 1643.845747
_symmetry_space_group_name_H-M "P -4 N 2"
_symmetry_group_IT_number 118
_symmetry_cell_setting 'tetragonal'
loop_
_space_group_symop_operation_xyz
x,y,z
y,-x,-z
-x,-y,z
-y,x,-z
1/2+y,1/2+x,1/2-z
1/2-y,1/2-x,1/2-z
1/2-x,1/2+y,1/2+z
1/2+x,1/2-y,1/2+z
loop_
_atom_site_type_symbol
_atom_site_label
_atom_site_fract_x
_atom_site_fract_y
_atom_site_fract_z
Si Si1 0.565190 0.843197 0.867850
Si Si2 0.328530 0.273554 0.094773
Si Si3 0.733757 0.591546 0.817690
Si Si4 0.890764 0.224823 0.017493
Si Si5 0.315676 0.525760 0.687569
O O1 0.431812 0.762517 0.906991
O O2 0.610972 0.727112 0.813983
O O3 0.500000 0.000000 0.842226
O O4 0.706658 0.880508 0.914005
O O5 0.497390 0.295629 0.120992
O O6 0.337785 0.190646 0.029781
O O7 0.237630 0.163241 0.143402
O O8 0.709903 0.472712 0.761774
O O9 0.891746 0.686532 0.823612
O O10 0.062739 0.194324 0.993244
O O11 0.500000 0.500000 0.676940
#
# Coordination Sequence:
#
# PCOD9558863 Si02
#       5
#     8   8   8   8   8
#     4  12  25  46  69 110 149 202 258 321 399 467
#     4  12  25  43  74 103 151 193 253 323 384 474
#     4  11  26  46  72 108 153 195 254 317 391 461
#     4  11  26  46  72 105 145 199 255 317 394 476
#     4  11  24  46  75 107 144 204 254 313 384 472
#
# _framework density 24.333185
#
# number of rings (size 3 to 8) (size 9 to 14) (size 15 to 20)
#    0.000    0.600    2.000    5.400    5.600    3.200 
#    0.000    6.000    0.000    0.000    0.000    0.000 
#    0.000    0.000    0.000    0.000    0.000    0.000 
#
# Total GULP energy -223698.865336 kJ/mol
# GULP energy per Si atom -5592.471633 kJ/mol
# Density = 2.427780 g / cm^3
# Si number density = 24.333185 Si / 1000 Ang^3
#
#
#
# Elastic Constant Matrix: (Units=GPa)
#
#
# Indices 1 2 3 4 5 6 
#
# 1 83.4072 8.4532 2.4824 0.0000 0.0000 0.0000
# 2 8.4532 83.4072 2.4824 0.0000 0.0000 0.0000
# 3 2.4824 2.4824 43.4370 0.0000 0.0000 0.0000
# 4 0.0000 0.0000 0.0000 30.4221 0.0000 0.0000
# 5 0.0000 0.0000 0.0000 0.0000 30.4221 0.0000
# 6 0.0000 0.0000 0.0000 0.0000 0.0000 38.8560
#
#
#
# Elastic Compliance Matrix: (Units=1/GPa)
#
#
# Indices 1 2 3 4 5 6 
#
# 1 0.012131 -0.001211 -0.000624 0.000000 0.000000 0.000000
# 2 -0.001211 0.012131 -0.000624 0.000000 0.000000 0.000000
# 3 -0.000624 -0.000624 0.023093 0.000000 0.000000 0.000000
# 4 0.000000 0.000000 0.000000 0.032871 0.000000 0.000000
# 5 0.000000 0.000000 0.000000 0.000000 0.032871 0.000000
# 6 0.000000 0.000000 0.000000 0.000000 0.000000 0.025736
#
#
# Mechanical properties :
#
#
# Convention : Reuss Voigt Hill
#
# Bulk Modulus (GPa) = 23.56459 26.34304 24.95382
# Shear Modulus (GPa) = 31.66650 33.06229 32.36439
#
# Velocity S-wave (km/s) = 3.61137 3.69010 3.65094
# Velocity P-wave (km/s) = 5.20523 5.38565 5.29621
#
# Compressibility (1/GPa) = 0.04243655
#
# Stress axis : x y z
#
# Youngs Moduli (GPa) = 82.43569 82.43569 43.30288
#
# Poissons Ratio (x) = 0.09982 0.02702
# Poissons Ratio (y) = 0.09982 0.02702
# Poissons Ratio (z) = 0.05144 0.05144
#
# Static dielectric constant tensor:
#      x y z
#    x 1.987920 0.000000 0.000000 
#    y 0.000000 1.987920 0.000000 
#    z 0.000000 0.000000 1.935000 
# 
# From -- ./inp_files/6011.got.cif
#   From: 2010.05.17/outbox.cif.g08.bks.cpg/sg118_4_cif.got.tgz:6011.got - 2010.05.20 11:17:24.
