data_PCOD9558923
_publ_section_title
;
Structure prediction by ZEFSAII (Michael W. Deem and Ramdas Pophale) SiO2 
 PCOD9558923
Probable space group: P -4 N 2
;
_chemical_formula_sum "Si O2"
_cell_formula_units_Z 22
_cell_length_a 13.389897
_cell_length_b 13.389897
_cell_length_c 4.826710
_cell_angle_alpha 90.000000
_cell_angle_beta 90.000000
_cell_angle_gamma 90.000000
_cell_volume 865.377658
_symmetry_space_group_name_H-M "P -4 N 2"
_symmetry_group_IT_number 118
_symmetry_cell_setting 'tetragonal'
loop_
_space_group_symop_operation_xyz
x,y,z
y,-x,-z
-x,-y,z
-y,x,-z
1/2+y,1/2+x,1/2-z
1/2-y,1/2-x,1/2-z
1/2-x,1/2+y,1/2+z
1/2+x,1/2-y,1/2+z
loop_
_atom_site_type_symbol
_atom_site_label
_atom_site_fract_x
_atom_site_fract_y
_atom_site_fract_z
Si Si1 0.675717 0.175717 0.250000
Si Si2 0.000000 0.000000 0.500000
Si Si3 0.459623 0.193686 0.129004
Si Si4 0.100395 0.822964 0.135128
O O1 0.575278 0.172946 0.071931
O O2 0.780741 0.167125 0.091023
O O3 0.914778 0.954182 0.705626
O O4 0.400721 0.099280 0.250000
O O5 0.446722 0.283822 0.351361
O O6 0.411602 0.233923 0.852621
#
# Coordination Sequence:
#
# PCOD9558923 Si02
#       4
#     4   2   8   8
#     4  12  27  48  80 107 152 202 246 322 372 465
#     4  12  28  50  76 122 144 214 244 334 372 454
#     4  12  27  49  73 111 147 198 249 311 374 458
#     4  12  28  46  78 109 153 190 260 303 381 447
#
# _framework density 25.422426999999999
#
# number of rings (size 3 to 8) (size 9 to 14) (size 15 to 20)
#    0.000    0.000    7.273    0.545    5.091    5.818 
#    0.000    3.636    0.000    0.000    0.000    0.000 
#    0.000    0.000    0.000    0.000    0.000    0.000 
#
# Total GULP energy -123276.845758 kJ/mol
# GULP energy per Si atom -5603.492989 kJ/mol
# Density = 2.536456 g / cm^3
# Si number density = 25.422427 Si / 1000 Ang^3
#
#
#
# Elastic Constant Matrix: (Units=GPa)
#
#
# Indices 1 2 3 4 5 6 
#
# 1 211.9537 6.2436 20.1361 0.0000 0.0000 0.0000
# 2 6.2436 211.9534 20.1366 0.0000 0.0000 0.0000
# 3 20.1361 20.1366 110.3550 0.0000 0.0000 0.0000
# 4 0.0000 0.0000 0.0000 25.1322 0.0000 0.0000
# 5 0.0000 0.0000 0.0000 0.0000 25.1110 0.0000
# 6 0.0000 0.0000 0.0000 0.0000 0.0000 28.4971
#
#
#
# Elastic Compliance Matrix: (Units=1/GPa)
#
#
# Indices 1 2 3 4 5 6 
#
# 1 0.004802 -0.000059 -0.000865 0.000000 0.000000 0.000000
# 2 -0.000059 0.004802 -0.000865 0.000000 0.000000 0.000000
# 3 -0.000865 -0.000865 0.009377 0.000000 0.000000 0.000000
# 4 0.000000 0.000000 0.000000 0.039790 0.000000 0.000000
# 5 0.000000 0.000000 0.000000 0.000000 0.039823 0.000000
# 6 0.000000 0.000000 0.000000 0.000000 0.000000 0.035091
#
#
# Mechanical properties :
#
#
# Convention : Reuss Voigt Hill
#
# Bulk Modulus (GPa) = 64.92937 69.69941 67.31439
# Shear Modulus (GPa) = 35.11249 48.26444 41.68846
#
# Velocity S-wave (km/s) = 3.72043 4.36190 4.05387
# Velocity P-wave (km/s) = 6.63710 7.26941 6.96044
#
# Compressibility (1/GPa) = 0.01540135
#
# Stress axis : x y z
#
# Youngs Moduli (GPa) = 208.24787 208.24742 106.63844
#
# Poissons Ratio (x) = 0.01234 0.09228
# Poissons Ratio (y) = 0.01234 0.09229
# Poissons Ratio (z) = 0.18022 0.18022
#
# Static dielectric constant tensor:
#      x y z
#    x 1.494500 0.000000 0.000000 
#    y 0.000000 1.494490 0.000000 
#    z 0.000000 0.000000 1.833410 
# 
# From -- ./inp_files/246.got.cif
#   From: 2010.05.17/outbox.cif.g08.bks.cpg/sg118_1_cif.got.tgz:246.got - 2010.05.20 11:17:24.
