data_PCOD9558311
_publ_section_title
;
Structure prediction by ZEFSAII (Michael W. Deem and Ramdas Pophale) SiO2 
 PCOD9558311
Probable space group: P -4 B 2
;
_chemical_formula_sum "Si O2"
_cell_formula_units_Z 36
_cell_length_a 9.360872
_cell_length_b 9.360872
_cell_length_c 17.765018
_cell_angle_alpha 90.000000
_cell_angle_beta 90.000000
_cell_angle_gamma 90.000000
_cell_volume 1556.676128
_symmetry_space_group_name_H-M "P -4 B 2"
_symmetry_group_IT_number 117
_symmetry_cell_setting 'tetragonal'
loop_
_space_group_symop_operation_xyz
x,y,z
y,-x,-z
-x,-y,z
-y,x,-z
1/2+y,1/2+x,-z
1/2-y,1/2-x,-z
1/2-x,1/2+y,z
1/2+x,1/2-y,z
loop_
_atom_site_type_symbol
_atom_site_label
_atom_site_fract_x
_atom_site_fract_y
_atom_site_fract_z
Si Si1 0.063523 0.784553 0.971905
Si Si2 0.264241 0.764241 0.500000
Si Si3 0.669408 0.983160 0.592629
Si Si4 0.889438 0.619194 0.247532
Si Si5 0.565551 0.656977 0.802458
O O1 0.028607 0.776768 0.883817
O O2 0.143769 0.643769 0.000000
O O3 0.919835 0.829366 0.015724
O O4 0.249734 0.923868 0.530086
O O5 0.221832 0.673033 0.572713
O O6 0.683202 0.038163 0.677221
O O7 0.500000 0.000000 0.580179
O O8 0.750731 0.519315 0.259081
O O9 0.847440 0.762858 0.203702
O O10 0.000000 0.500000 0.215625
O O11 0.500000 0.500000 0.800689
#
# Coordination Sequence:
#
# PCOD9558311 Si02
#       5
#     8   4   8   8   8
#     4  11  24  45  69 102 143 183 241 296 356 437
#     4  12  22  48  72  96 142 178 222 294 340 424
#     4  11  26  47  68 107 142 178 237 287 354 425
#     4  11  28  46  72 105 145 186 242 300 358 444
#     4  12  25  47  73 104 143 192 240 302 370 432
#
# _framework density 23.126199
#
# number of rings (size 3 to 8) (size 9 to 14) (size 15 to 20)
#    0.000    0.667    4.444    2.667   12.444    0.889 
#    0.000    0.000    0.000    0.000    0.000    0.000 
#    0.000    0.000    0.000    0.000    0.000    0.000 
#
# Total GULP energy -201114.413640 kJ/mol
# GULP energy per Si atom -5586.511490 kJ/mol
# Density = 2.307356 g / cm^3
# Si number density = 23.126199 Si / 1000 Ang^3
#
#
#
# Elastic Constant Matrix: (Units=GPa)
#
#
# Indices 1 2 3 4 5 6 
#
# 1 94.6181 14.3169 -1.1559 0.0000 0.0000 0.0000
# 2 14.3169 94.6181 -1.1559 0.0000 0.0000 0.0000
# 3 -1.1559 -1.1559 57.2933 0.0000 0.0000 0.0000
# 4 0.0000 0.0000 0.0000 25.6525 0.0000 0.0000
# 5 0.0000 0.0000 0.0000 0.0000 25.6525 0.0000
# 6 0.0000 0.0000 0.0000 0.0000 0.0000 45.7730
#
#
#
# Elastic Compliance Matrix: (Units=1/GPa)
#
#
# Indices 1 2 3 4 5 6 
#
# 1 0.010818 -0.001635 0.000185 0.000000 0.000000 0.000000
# 2 -0.001635 0.010818 0.000185 0.000000 0.000000 0.000000
# 3 0.000185 0.000185 0.017462 0.000000 0.000000 0.000000
# 4 0.000000 0.000000 0.000000 0.038983 0.000000 0.000000
# 5 0.000000 0.000000 0.000000 0.000000 0.038983 0.000000
# 6 0.000000 0.000000 0.000000 0.000000 0.000000 0.021847
#
#
# Mechanical properties :
#
#
# Convention : Reuss Voigt Hill
#
# Bulk Modulus (GPa) = 27.34477 30.05999 28.70238
# Shear Modulus (GPa) = 32.54599 35.05055 33.79827
#
# Velocity S-wave (km/s) = 3.75550 3.89732 3.82707
# Velocity P-wave (km/s) = 5.53668 5.76876 5.65391
#
# Compressibility (1/GPa) = 0.03657007
#
# Stress axis : x y z
#
# Youngs Moduli (GPa) = 92.43502 92.43502 57.26875
#
# Poissons Ratio (x) = 0.15110 -0.01061
# Poissons Ratio (y) = 0.15110 -0.01061
# Poissons Ratio (z) = -0.01713 -0.01713
#
# Static dielectric constant tensor:
#      x y z
#    x 1.850710 0.000000 0.000000 
#    y 0.000000 1.850710 0.000000 
#    z 0.000000 0.000000 1.887420 
# 
# From -- ./inp_files/3413.got.cif
#   From: 2010.05.17/outbox.cif.g08.bks.cpg/sg117_2_cif.got.tgz:3413.got - 2010.05.20 11:15:09.
