data_PCOD9558053
_publ_section_title
;
Structure prediction by ZEFSAII (Michael W. Deem and Ramdas Pophale) SiO2 
 PCOD9558053
Probable space group: P -4 B 2
;
_chemical_formula_sum "Si O2"
_cell_formula_units_Z 64
_cell_length_a 17.794049
_cell_length_b 17.794049
_cell_length_c 11.987887
_cell_angle_alpha 90.000000
_cell_angle_beta 90.000000
_cell_angle_gamma 90.000000
_cell_volume 3795.702841
_symmetry_space_group_name_H-M "P -4 B 2"
_symmetry_group_IT_number 117
_symmetry_cell_setting 'tetragonal'
loop_
_space_group_symop_operation_xyz
x,y,z
y,-x,-z
-x,-y,z
-y,x,-z
1/2+y,1/2+x,-z
1/2-y,1/2-x,-z
1/2-x,1/2+y,z
1/2+x,1/2-y,z
loop_
_atom_site_type_symbol
_atom_site_label
_atom_site_fract_x
_atom_site_fract_y
_atom_site_fract_z
Si Si1 0.909709 0.287522 0.244524
Si Si2 0.433291 0.810483 0.632746
Si Si3 0.332721 0.705028 0.771055
Si Si4 0.885974 0.740519 0.000000
Si Si5 0.546386 0.835851 0.000000
Si Si6 0.433291 0.810483 0.367255
Si Si7 0.409709 0.212478 0.755476
Si Si8 0.294972 0.332721 0.771054
O O1 0.874136 0.205003 0.258153
O O2 0.849393 0.349392 0.284347
O O3 0.987569 0.303774 0.305671
O O4 0.920833 0.299688 0.112273
O O5 0.383368 0.740646 0.674652
O O6 0.442162 0.810712 0.500000
O O7 0.385204 0.885204 0.664974
O O8 0.512431 0.803775 0.694329
O O9 0.378568 0.710625 0.887228
O O10 0.262020 0.762020 0.784880
O O11 0.958962 0.686668 0.000000
O O12 0.815614 0.684387 0.000000
O O13 0.878568 0.789375 0.112773
O O14 0.579167 0.799688 0.887727
O O15 0.577869 0.922132 0.000000
O O16 0.383368 0.740646 0.325349
O O17 0.374136 0.294997 0.741846
#
# Coordination Sequence:
#
# PCOD9558053 Si02
#       8
#     8   8   8   8   8   8   8   8
#     4  10  20  34  54  80 109 139 174 217 266 320
#     4  10  21  36  53  76 106 140 180 222 264 314
#     4   9  18  33  53  76 102 137 179 218 258 313
#     4  10  17  30  53  78 107 140 170 207 262 316
#     4  10  19  30  49  82 112 133 168 215 264 324
#     4  10  21  36  53  76 106 140 180 222 264 314
#     4  10  20  34  54  80 109 139 174 217 266 320
#     4   9  18  33  53  76 102 137 179 218 258 313
#
# _framework density 16.861172
#
# number of rings (size 3 to 8) (size 9 to 14) (size 15 to 20)
#    0.000    2.250    2.500    0.750    0.000    5.250 
#    0.000    6.250    0.000    0.750    0.000    3.500 
#    0.000    0.000    0.000    0.000    0.000    0.000 
#
# Total GULP energy -356437.756107 kJ/mol
# GULP energy per Si atom -5569.339939 kJ/mol
# Density = 1.682280 g / cm^3
# Si number density = 16.861172 Si / 1000 Ang^3
#
#
#
# Elastic Constant Matrix: (Units=GPa)
#
#
# Indices 1 2 3 4 5 6 
#
# 1 70.3654 84.6718 43.9900 0.0000 0.0000 0.0000
# 2 84.6718 70.3698 43.9879 0.0000 0.0000 0.0000
# 3 43.9900 43.9879 63.9458 0.0000 0.0000 0.0000
# 4 0.0000 0.0000 0.0000 6.3084 0.0000 0.0000
# 5 0.0000 0.0000 0.0000 0.0000 6.3096 0.0000
# 6 0.0000 0.0000 0.0000 0.0000 0.0000 22.5743
#
#
#
# Elastic Compliance Matrix: (Units=1/GPa)
#
#
# Indices 1 2 3 4 5 6 
#
# 1 -0.029668 0.040245 -0.007275 0.000000 0.000000 0.000000
# 2 0.040245 -0.029662 -0.007281 0.000000 0.000000 0.000000
# 3 -0.007275 -0.007281 0.025652 0.000000 0.000000 0.000000
# 4 0.000000 0.000000 0.000000 0.158518 0.000000 0.000000
# 5 0.000000 0.000000 0.000000 0.000000 0.158490 0.000000
# 6 0.000000 0.000000 0.000000 0.000000 0.000000 0.044298
#
#
# Mechanical properties :
#
#
# Convention : Reuss Voigt Hill
#
# Bulk Modulus (GPa) = 56.49964 61.10892 58.80428
# Shear Modulus (GPa) = 17.72110 9.17388 13.44749
#
# Velocity S-wave (km/s) = 3.24543 2.33509 2.82714
# Velocity P-wave (km/s) = 6.90110 6.60237 6.75339
#
# Compressibility (1/GPa) = 0.01769923
#
# Stress axis : x y z
#
# Youngs Moduli (GPa) = -33.70682 -33.71285 38.98401
#
# Poissons Ratio (x) = 1.35677 0.28361
# Poissons Ratio (y) = 1.35653 0.28384
# Poissons Ratio (z) = -0.24522 -0.24546
#
# Static dielectric constant tensor:
#      x y z
#    x 1.577190 0.000000 0.000000 
#    y 0.000000 1.577190 0.000000 
#    z 0.000000 0.000000 1.572890 
# 
# From -- ./inp_files/2944.got.cif
#   From: 2010.05.17/outbox.cif.g08.bks.cpg/sg117_2_cif.got.tgz:2944.got - 2010.05.20 11:15:09.
