data_PCOD9558840
_publ_section_title
;
Structure prediction by ZEFSAII (Michael W. Deem and Ramdas Pophale) SiO2 
 PCOD9558840
Probable space group: P -4 N 2
;
_chemical_formula_sum "Si O2"
_cell_formula_units_Z 32
_cell_length_a 7.724409
_cell_length_b 7.724409
_cell_length_c 22.826339
_cell_angle_alpha 90.000000
_cell_angle_beta 90.000000
_cell_angle_gamma 90.000000
_cell_volume 1361.967628
_symmetry_space_group_name_H-M "P -4 N 2"
_symmetry_group_IT_number 118
_symmetry_cell_setting 'tetragonal'
loop_
_space_group_symop_operation_xyz
x,y,z
y,-x,-z
-x,-y,z
-y,x,-z
1/2+y,1/2+x,1/2-z
1/2-y,1/2-x,1/2-z
1/2-x,1/2+y,1/2+z
1/2+x,1/2-y,1/2+z
loop_
_atom_site_type_symbol
_atom_site_label
_atom_site_fract_x
_atom_site_fract_y
_atom_site_fract_z
Si Si1 0.829457 0.237525 0.997707
Si Si2 0.380569 0.787975 0.316205
Si Si3 0.682735 0.913412 0.616860
Si Si4 0.261862 0.149544 0.366653
O O1 0.780342 0.314134 0.935303
O O2 0.758631 0.342893 0.053310
O O3 0.038695 0.232392 0.999946
O O4 0.343561 0.843561 0.250000
O O5 0.248898 0.646499 0.340307
O O6 0.580745 0.755961 0.331564
O O7 0.309012 0.952165 0.353017
O O8 0.500000 0.000000 0.605136
O O9 0.798103 0.064295 0.646465
#
# Coordination Sequence:
#
# PCOD9558840 Si02
#       4
#     8   8   8   8
#     4  11  23  43  70 107 160 194 238 306 385 456
#     4  11  27  53  72 102 151 203 256 310 373 446
#     4  12  26  45  70 115 143 193 247 309 377 450
#     4  11  24  46  75 106 144 197 250 304 374 441
#
# _framework density 23.495417
#
# number of rings (size 3 to 8) (size 9 to 14) (size 15 to 20)
#    0.000    0.750    5.000    2.250    7.000    1.500 
#   13.500    0.000    0.000    0.000    0.000    0.000 
#    0.000    0.000    0.000    0.000    0.000    0.000 
#
# Total GULP energy -178952.636406 kJ/mol
# GULP energy per Si atom -5592.269888 kJ/mol
# Density = 2.344194 g / cm^3
# Si number density = 23.495417 Si / 1000 Ang^3
#
#
#
# Elastic Constant Matrix: (Units=GPa)
#
#
# Indices 1 2 3 4 5 6 
#
# 1 83.6543 19.5791 23.5623 0.0000 0.0000 0.0000
# 2 19.5791 83.6543 23.5623 0.0000 0.0000 0.0000
# 3 23.5623 23.5623 115.5053 0.0000 0.0000 0.0000
# 4 0.0000 0.0000 0.0000 21.9844 0.0000 0.0000
# 5 0.0000 0.0000 0.0000 0.0000 21.9844 0.0000
# 6 0.0000 0.0000 0.0000 0.0000 0.0000 35.1540
#
#
#
# Elastic Compliance Matrix: (Units=1/GPa)
#
#
# Indices 1 2 3 4 5 6 
#
# 1 0.013144 -0.002463 -0.002179 0.000000 0.000000 0.000000
# 2 -0.002463 0.013144 -0.002179 0.000000 0.000000 0.000000
# 3 -0.002179 -0.002179 0.009547 0.000000 0.000000 0.000000
# 4 0.000000 0.000000 0.000000 0.045487 0.000000 0.000000
# 5 0.000000 0.000000 0.000000 0.000000 0.045487 0.000000
# 6 0.000000 0.000000 0.000000 0.000000 0.000000 0.028446
#
#
# Mechanical properties :
#
#
# Convention : Reuss Voigt Hill
#
# Bulk Modulus (GPa) = 45.05781 46.24681 45.65231
# Shear Modulus (GPa) = 28.36184 30.23194 29.29689
#
# Velocity S-wave (km/s) = 3.47814 3.59097 3.53501
# Velocity P-wave (km/s) = 5.94549 6.07614 6.01117
#
# Compressibility (1/GPa) = 0.02219371
#
# Stress axis : x y z
#
# Youngs Moduli (GPa) = 76.08010 76.08010 104.74949
#
# Poissons Ratio (x) = 0.18736 0.22824
# Poissons Ratio (y) = 0.18736 0.22824
# Poissons Ratio (z) = 0.16577 0.16577
#
# Static dielectric constant tensor:
#      x y z
#    x 2.031270 0.000000 0.000000 
#    y 0.000000 2.031270 0.000000 
#    z 0.000000 0.000000 1.834300 
# 
# From -- ./inp_files/5325.got.cif
#   From: 2010.05.17/outbox.cif.g08.bks.cpg/sg118_3_cif.got.tgz:5325.got - 2010.05.20 11:17:24.
