data_PCOD9558043
_publ_section_title
;
Structure prediction by ZEFSAII (Michael W. Deem and Ramdas Pophale) SiO2 
 PCOD9558043
Probable space group: P -4 C 2
;
_chemical_formula_sum "Si O2"
_cell_formula_units_Z 34
_cell_length_a 9.000000
_cell_length_b 9.000000
_cell_length_c 21.000000
_cell_angle_alpha 90.000000
_cell_angle_beta 90.000000
_cell_angle_gamma 90.000000
_cell_volume 1701.000000
_symmetry_space_group_name_H-M "P -4 C 2"
_symmetry_group_IT_number 116
_symmetry_cell_setting 'tetragonal'
loop_
_space_group_symop_operation_xyz
x,y,z
y,-x,-z
-x,-y,z
-y,x,-z
y,x,1/2-z
-y,-x,1/2-z
-x,y,1/2+z
x,-y,1/2+z
loop_
_atom_site_type_symbol
_atom_site_label
_atom_site_fract_x
_atom_site_fract_y
_atom_site_fract_z
Si Si1 0.502277 0.824382 0.936317
Si Si2 0.000000 0.000000 0.500000
Si Si3 0.309652 0.346273 0.327212
Si Si4 0.622745 0.782653 0.581289
Si Si5 0.047796 0.838439 0.878848
O O1 0.417636 0.736141 0.878911
O O2 0.663102 0.751181 0.931027
O O3 0.500000 0.000000 0.923085
O O4 0.450037 0.804359 0.010622
O O5 0.894027 0.091128 0.548617
O O6 0.354100 0.354100 0.250000
O O7 0.270838 0.502541 0.364569
O O8 0.166554 0.240294 0.334412
O O9 0.712246 0.925250 0.607060
O O10 0.000000 0.000000 0.851362
#
# Coordination Sequence:
#
# PCOD9558043 Si02
#       5
#     8   2   8   8   8
#     4  12  26  44  70 105 141 192 248 305 376 450
#     4   8  20  36  74 104 140 188 252 302 356 428
#     4  12  27  46  69 105 148 198 245 306 382 454
#     4  12  25  44  73 107 144 191 250 312 376 448
#     4  10  22  42  72 106 144 194 245 311 360 440
#
# _framework density 19.988242
#
# number of rings (size 3 to 8) (size 9 to 14) (size 15 to 20)
#    0.706    0.000    2.353    5.647    3.294    4.235 
#    0.000    2.353    0.000    0.000    0.000    0.000 
#    0.000    0.000    0.000    0.000    0.000    0.000 
#
# Total GULP energy -189427.441132 kJ/mol
# GULP energy per Si atom -5571.395327 kJ/mol
# Density = 1.994275 g / cm^3
# Si number density = 19.988242 Si / 1000 Ang^3
#
#
#
# Elastic Constant Matrix: (Units=GPa)
#
#
# Indices 1 2 3 4 5 6 
#
# 1 63.7485 -10.2460 18.5265 0.0000 0.0000 0.0000
# 2 -10.2460 63.7485 18.5265 0.0000 0.0000 0.0000
# 3 18.5265 18.5265 139.6768 0.0000 0.0000 0.0000
# 4 0.0000 0.0000 0.0000 33.9566 0.0000 0.0000
# 5 0.0000 0.0000 0.0000 0.0000 33.9566 0.0000
# 6 0.0000 0.0000 0.0000 0.0000 0.0000 46.1975
#
#
#
# Elastic Compliance Matrix: (Units=1/GPa)
#
#
# Indices 1 2 3 4 5 6 
#
# 1 0.017048 0.003533 -0.002730 0.000000 0.000000 0.000000
# 2 0.003533 0.017048 -0.002730 0.000000 0.000000 0.000000
# 3 -0.002730 -0.002730 0.007884 0.000000 0.000000 0.000000
# 4 0.000000 0.000000 0.000000 0.029449 0.000000 0.000000
# 5 0.000000 0.000000 0.000000 0.000000 0.029449 0.000000
# 6 0.000000 0.000000 0.000000 0.000000 0.000000 0.021646
#
#
# Mechanical properties :
#
#
# Convention : Reuss Voigt Hill
#
# Bulk Modulus (GPa) = 26.22837 35.64309 30.93573
# Shear Modulus (GPa) = 35.94903 38.84660 37.39781
#
# Velocity S-wave (km/s) = 4.24548 4.41327 4.33019
# Velocity P-wave (km/s) = 6.09775 6.62117 6.36485
#
# Compressibility (1/GPa) = 0.03812666
#
# Stress axis : x y z
#
# Youngs Moduli (GPa) = 58.65821 58.65821 126.84625
#
# Poissons Ratio (x) = -0.20726 0.34627
# Poissons Ratio (y) = -0.20726 0.34627
# Poissons Ratio (z) = 0.16013 0.16013
#
# Static dielectric constant tensor:
#      x y z
#    x 1.768910 0.000000 0.000000 
#    y 0.000000 1.768910 0.000000 
#    z 0.000000 0.000000 1.696750 
# 
# From -- ./inp_files/3899.got.cif
#   From: 2010.05.17/outbox.ucp.g08.bks.cvg/sg116_2_cif.got.tgz:3899.got - 2010.06.11 11:33:53.
