data_PCOD9558659
_publ_section_title
;
Structure prediction by ZEFSAII (Michael W. Deem and Ramdas Pophale) SiO2 
 PCOD9558659
Probable space group: P -4 N 2
;
_chemical_formula_sum "Si O2"
_cell_formula_units_Z 32
_cell_length_a 11.623487
_cell_length_b 11.623487
_cell_length_c 10.128962
_cell_angle_alpha 90.000000
_cell_angle_beta 90.000000
_cell_angle_gamma 90.000000
_cell_volume 1368.477969
_symmetry_space_group_name_H-M "P -4 N 2"
_symmetry_group_IT_number 118
_symmetry_cell_setting 'tetragonal'
loop_
_space_group_symop_operation_xyz
x,y,z
y,-x,-z
-x,-y,z
-y,x,-z
1/2+y,1/2+x,1/2-z
1/2-y,1/2-x,1/2-z
1/2-x,1/2+y,1/2+z
1/2+x,1/2-y,1/2+z
loop_
_atom_site_type_symbol
_atom_site_label
_atom_site_fract_x
_atom_site_fract_y
_atom_site_fract_z
Si Si1 0.622602 0.465124 0.279671
Si Si2 0.246520 0.370526 0.873916
Si Si3 0.667906 0.328843 0.539412
Si Si4 0.605693 0.923260 0.405081
O O1 0.500000 0.500000 0.223880
O O2 0.670102 0.372140 0.176257
O O3 0.605996 0.389083 0.413817
O O4 0.674089 0.584407 0.334461
O O5 0.164026 0.335975 0.750000
O O6 0.202901 0.297915 0.996537
O O7 0.223413 0.502541 0.911489
O O8 0.791883 0.391461 0.547878
O O9 0.587451 0.912550 0.250000
O O10 0.500000 0.000000 0.460872
#
# Coordination Sequence:
#
# PCOD9558659 Si02
#       4
#     8   8   8   8
#     4  11  20  37  69  94 123 171 231 270 328 413
#     4  10  22  40  62  95 130 166 222 280 326 409
#     4  11  21  39  66  95 127 173 218 279 341 401
#     4  11  21  37  65  92 127 173 223 265 337 412
#
# _framework density 23.383641000000001
#
# number of rings (size 3 to 8) (size 9 to 14) (size 15 to 20)
#    0.000    1.250    5.000    3.000    0.000    0.000 
#    9.000    0.000    0.000    5.250    0.000    0.000 
#    0.000    0.000    0.000    0.000    0.000    0.000 
#
# Total GULP energy -178427.181010 kJ/mol
# GULP energy per Si atom -5575.849407 kJ/mol
# Density = 2.333042 g / cm^3
# Si number density = 23.383641 Si / 1000 Ang^3
#
#
#
# Elastic Constant Matrix: (Units=GPa)
#
#
# Indices 1 2 3 4 5 6 
#
# 1 112.0533 31.6602 20.4680 0.0000 0.0000 0.0000
# 2 31.6602 112.0527 20.4677 0.0000 0.0000 0.0000
# 3 20.4680 20.4677 26.2012 0.0000 0.0000 0.0000
# 4 0.0000 0.0000 0.0000 13.5563 0.0000 0.0000
# 5 0.0000 0.0000 0.0000 0.0000 13.5567 0.0000
# 6 0.0000 0.0000 0.0000 0.0000 0.0000 35.6592
#
#
#
# Elastic Compliance Matrix: (Units=1/GPa)
#
#
# Indices 1 2 3 4 5 6 
#
# 1 0.010694 -0.001745 -0.006991 0.000000 0.000000 0.000000
# 2 -0.001745 0.010694 -0.006991 0.000000 0.000000 0.000000
# 3 -0.006991 -0.006991 0.049089 0.000000 0.000000 0.000000
# 4 0.000000 0.000000 0.000000 0.073767 0.000000 0.000000
# 5 0.000000 0.000000 0.000000 0.000000 0.073764 0.000000
# 6 0.000000 0.000000 0.000000 0.000000 0.000000 0.028043
#
#
# Mechanical properties :
#
#
# Convention : Reuss Voigt Hill
#
# Bulk Modulus (GPa) = 25.62577 43.94436 34.78506
# Shear Modulus (GPa) = 17.21085 24.40185 20.80635
#
# Velocity S-wave (km/s) = 2.71591 3.23390 2.98616
# Velocity P-wave (km/s) = 4.56263 5.72518 5.17664
#
# Compressibility (1/GPa) = 0.03902322
#
# Stress axis : x y z
#
# Youngs Moduli (GPa) = 93.50750 93.50735 20.37108
#
# Poissons Ratio (x) = 0.16313 0.14242
# Poissons Ratio (y) = 0.16313 0.14242
# Poissons Ratio (z) = 0.65375 0.65374
#
# Static dielectric constant tensor:
#      x y z
#    x 1.998470 0.000000 0.000000 
#    y 0.000000 1.998470 0.000000 
#    z 0.000000 0.000000 1.834520 
# 
# From -- ./inp_files/2875.got.cif
#   From: 2010.05.17/outbox.cif.g08.bks.cpg/sg118_2_cif.got.tgz:2875.got - 2010.05.20 11:17:24.
