data_PCOD9558519
_publ_section_title
;
Structure prediction by ZEFSAII (Michael W. Deem and Ramdas Pophale) SiO2 
 PCOD9558519
Probable space group: P -4 N 2
;
_chemical_formula_sum "Si O2"
_cell_formula_units_Z 56
_cell_length_a 14.547441
_cell_length_b 14.547441
_cell_length_c 12.175061
_cell_angle_alpha 90.000000
_cell_angle_beta 90.000000
_cell_angle_gamma 90.000000
_cell_volume 2576.584292
_symmetry_space_group_name_H-M "P -4 N 2"
_symmetry_group_IT_number 118
_symmetry_cell_setting 'tetragonal'
loop_
_space_group_symop_operation_xyz
x,y,z
y,-x,-z
-x,-y,z
-y,x,-z
1/2+y,1/2+x,1/2-z
1/2-y,1/2-x,1/2-z
1/2-x,1/2+y,1/2+z
1/2+x,1/2-y,1/2+z
loop_
_atom_site_type_symbol
_atom_site_label
_atom_site_fract_x
_atom_site_fract_y
_atom_site_fract_z
Si Si1 0.965134 0.876165 0.939759
Si Si2 0.773900 0.575287 0.412204
Si Si3 0.881966 0.890025 0.255377
Si Si4 0.229444 0.039563 0.426610
Si Si5 0.610341 0.019665 0.572157
Si Si6 0.279128 0.083169 0.768357
Si Si7 0.888161 0.921731 0.638120
O O1 0.024788 0.879757 0.830001
O O2 0.920097 0.780552 0.973540
O O3 0.040580 0.896169 0.036924
O O4 0.702906 0.605548 0.315521
O O5 0.870896 0.624772 0.415644
O O6 0.796267 0.469087 0.381312
O O7 0.968946 0.908827 0.338120
O O8 0.789647 0.889706 0.327821
O O9 0.331691 0.013485 0.465245
O O10 0.161854 0.956145 0.388396
O O11 0.180949 0.077234 0.535775
O O12 0.500000 0.000000 0.569412
O O13 0.661096 0.974887 0.678160
O O14 0.317210 0.182791 0.750000
O O15 0.172164 0.094177 0.745532
#
# Coordination Sequence:
#
# PCOD9558519 Si02
#       7
#     8   8   8   8   8   8   8
#     4   9  20  36  59  93 128 168 203 257 336 395
#     4  10  21  38  63  94 125 170 216 272 320 393
#     4  10  21  37  64  94 134 168 210 269 349 408
#     4  11  22  38  62  99 128 174 212 271 340 394
#     4  11  23  42  66  90 134 179 231 269 321 396
#     4  10  20  37  64  95 119 167 219 274 323 369
#     4  10  21  35  61  97 134 159 208 273 335 396
#
# _framework density 21.734199
#
# number of rings (size 3 to 8) (size 9 to 14) (size 15 to 20)
#    0.000    1.857    2.857    0.857   10.000    0.000 
#    5.143    0.714    6.286    0.857    0.000    0.000 
#    0.000    0.000    0.000    0.000    0.000    0.000 
#
# Total GULP energy -311958.519418 kJ/mol
# GULP energy per Si atom -5570.687847 kJ/mol
# Density = 2.168473 g / cm^3
# Si number density = 21.734199 Si / 1000 Ang^3
#
#
#
# Elastic Constant Matrix: (Units=GPa)
#
#
# Indices 1 2 3 4 5 6 
#
# 1 72.4430 13.8190 0.9375 0.0000 0.0000 0.0000
# 2 13.8190 72.4395 0.9366 0.0000 0.0000 0.0000
# 3 0.9375 0.9366 56.2066 0.0000 0.0000 0.0000
# 4 0.0000 0.0000 0.0000 15.8808 0.0000 0.0000
# 5 0.0000 0.0000 0.0000 0.0000 15.8849 0.0000
# 6 0.0000 0.0000 0.0000 0.0000 0.0000 6.6360
#
#
#
# Elastic Compliance Matrix: (Units=1/GPa)
#
#
# Indices 1 2 3 4 5 6 
#
# 1 0.014327 -0.002731 -0.000193 0.000000 0.000000 0.000000
# 2 -0.002731 0.014328 -0.000193 0.000000 0.000000 0.000000
# 3 -0.000193 -0.000193 0.017798 0.000000 0.000000 0.000000
# 4 0.000000 0.000000 0.000000 0.062969 0.000000 0.000000
# 5 0.000000 0.000000 0.000000 0.000000 0.062953 0.000000
# 6 0.000000 0.000000 0.000000 0.000000 0.000000 0.150692
#
#
# Mechanical properties :
#
#
# Convention : Reuss Voigt Hill
#
# Bulk Modulus (GPa) = 24.86409 25.83059 25.34734
# Shear Modulus (GPa) = 14.58967 20.04009 17.31488
#
# Velocity S-wave (km/s) = 2.59371 3.03983 2.82559
# Velocity P-wave (km/s) = 4.52048 4.92253 4.72578
#
# Compressibility (1/GPa) = 0.04021864
#
# Stress axis : x y z
#
# Youngs Moduli (GPa) = 69.79659 69.79317 56.18627
#
# Poissons Ratio (x) = 0.19058 0.01087
# Poissons Ratio (y) = 0.19059 0.01086
# Poissons Ratio (z) = 0.01350 0.01348
#
# Static dielectric constant tensor:
#      x y z
#    x 1.879800 0.000000 0.000000 
#    y 0.000000 1.879800 0.000000 
#    z 0.000000 0.000000 1.841470 
# 
# From -- ./inp_files/3408.got.cif
#   From: 2010.05.17/outbox.cif.g08.bks.cpg/sg118_2_cif.got.tgz:3408.got - 2010.05.20 11:17:24.
