data_PCOD9558421
_publ_section_title
;
Structure prediction by ZEFSAII (Michael W. Deem and Ramdas Pophale) SiO2 
 PCOD9558421
Probable space group: P -4 N 2
;
_chemical_formula_sum "Si O2"
_cell_formula_units_Z 32
_cell_length_a 11.090166
_cell_length_b 11.090166
_cell_length_c 13.105953
_cell_angle_alpha 90.000000
_cell_angle_beta 90.000000
_cell_angle_gamma 90.000000
_cell_volume 1611.924513
_symmetry_space_group_name_H-M "P -4 N 2"
_symmetry_group_IT_number 118
_symmetry_cell_setting 'tetragonal'
loop_
_space_group_symop_operation_xyz
x,y,z
y,-x,-z
-x,-y,z
-y,x,-z
1/2+y,1/2+x,1/2-z
1/2-y,1/2-x,1/2-z
1/2-x,1/2+y,1/2+z
1/2+x,1/2-y,1/2+z
loop_
_atom_site_type_symbol
_atom_site_label
_atom_site_fract_x
_atom_site_fract_y
_atom_site_fract_z
Si Si1 0.259131 0.439322 0.246236
Si Si2 0.276247 0.650546 0.087199
Si Si3 0.143410 0.029728 0.376688
Si Si4 0.152342 0.075151 0.948833
O O1 0.138116 0.361885 0.250000
O O2 0.235219 0.549663 0.167848
O O3 0.363211 0.350183 0.203765
O O4 0.312993 0.496802 0.349295
O O5 0.399590 0.704965 0.135738
O O6 0.177771 0.746797 0.053797
O O7 0.316671 0.583201 0.984318
O O8 0.000000 0.000000 0.375088
O O9 0.022292 0.141573 0.958654
#
# Coordination Sequence:
#
# PCOD9558421 Si02
#       4
#     8   8   8   8
#     4  11  23  43  70  98 129 172 232 284 338 416
#     4  11  20  41  67  96 123 172 233 267 329 409
#     4  10  18  38  68  94 122 167 225 276 323 395
#     4  11  27  42  59  95 142 177 206 283 358 402
#
# _framework density 19.852046000000001
#
# number of rings (size 3 to 8) (size 9 to 14) (size 15 to 20)
#    0.000    1.250    5.000    2.250   10.500    2.000 
#    0.000    0.000    0.000    0.000    0.000    0.000 
#    0.000    0.000    0.000    0.000    0.000    0.000 
#
# Total GULP energy -178274.894435 kJ/mol
# GULP energy per Si atom -5571.090451 kJ/mol
# Density = 1.980686 g / cm^3
# Si number density = 19.852046 Si / 1000 Ang^3
#
#
#
# Elastic Constant Matrix: (Units=GPa)
#
#
# Indices 1 2 3 4 5 6 
#
# 1 97.0050 69.4746 16.4811 0.0000 0.0000 0.0000
# 2 69.4746 97.0000 16.4792 0.0000 0.0000 0.0000
# 3 16.4811 16.4792 24.1905 0.0000 0.0000 0.0000
# 4 0.0000 0.0000 0.0000 23.5115 0.0000 0.0000
# 5 0.0000 0.0000 0.0000 0.0000 23.5140 0.0000
# 6 0.0000 0.0000 0.0000 0.0000 0.0000 54.0006
#
#
#
# Elastic Compliance Matrix: (Units=1/GPa)
#
#
# Indices 1 2 3 4 5 6 
#
# 1 0.021635 -0.014692 -0.004731 0.000000 0.000000 0.000000
# 2 -0.014692 0.021635 -0.004729 0.000000 0.000000 0.000000
# 3 -0.004731 -0.004729 0.047784 0.000000 0.000000 0.000000
# 4 0.000000 0.000000 0.000000 0.042532 0.000000 0.000000
# 5 0.000000 0.000000 0.000000 0.000000 0.042528 0.000000
# 6 0.000000 0.000000 0.000000 0.000000 0.000000 0.018518
#
#
# Mechanical properties :
#
#
# Convention : Reuss Voigt Hill
#
# Bulk Modulus (GPa) = 23.39219 47.00725 35.19972
# Shear Modulus (GPa) = 19.44115 27.92262 23.68189
#
# Velocity S-wave (km/s) = 3.13278 3.75445 3.45761
# Velocity P-wave (km/s) = 4.98944 6.52110 5.80600
#
# Compressibility (1/GPa) = 0.04274930
#
# Stress axis : x y z
#
# Youngs Moduli (GPa) = 46.22194 46.22061 20.92766
#
# Poissons Ratio (x) = 0.67906 0.09902
# Poissons Ratio (y) = 0.67908 0.09897
# Poissons Ratio (z) = 0.21870 0.21858
#
# Static dielectric constant tensor:
#      x y z
#    x 1.747800 0.000000 0.000000 
#    y 0.000000 1.747810 0.000000 
#    z 0.000000 0.000000 1.739200 
# 
# From -- ./inp_files/2863.got.cif
#   From: 2010.05.17/outbox.cif.g08.bks.cpg/sg118_2_cif.got.tgz:2863.got - 2010.05.20 11:17:24.
