data_PCOD9558549
_publ_section_title
;
Structure prediction by ZEFSAII (Michael W. Deem and Ramdas Pophale) SiO2 
 PCOD9558549
Probable space group: P -4 N 2
;
_chemical_formula_sum "Si O2"
_cell_formula_units_Z 44
_cell_length_a 9.428110
_cell_length_b 9.428110
_cell_length_c 20.850502
_cell_angle_alpha 90.000000
_cell_angle_beta 90.000000
_cell_angle_gamma 90.000000
_cell_volume 1853.385655
_symmetry_space_group_name_H-M "P -4 N 2"
_symmetry_group_IT_number 118
_symmetry_cell_setting 'tetragonal'
loop_
_space_group_symop_operation_xyz
x,y,z
y,-x,-z
-x,-y,z
-y,x,-z
1/2+y,1/2+x,1/2-z
1/2-y,1/2-x,1/2-z
1/2-x,1/2+y,1/2+z
1/2+x,1/2-y,1/2+z
loop_
_atom_site_type_symbol
_atom_site_label
_atom_site_fract_x
_atom_site_fract_y
_atom_site_fract_z
Si Si1 0.232135 0.175131 0.172906
Si Si2 0.204742 0.260975 0.826054
Si Si3 0.551283 0.699432 0.467432
Si Si4 0.514899 0.159760 0.854749
Si Si5 0.000000 0.500000 0.020872
Si Si6 0.000000 0.000000 0.190555
Si Si7 0.500000 0.000000 0.346937
O O1 0.176081 0.119846 0.102331
O O2 0.225576 0.341812 0.170621
O O3 0.119733 0.101349 0.220071
O O4 0.384490 0.107134 0.182137
O O5 0.199541 0.300460 0.750000
O O6 0.368969 0.241496 0.843676
O O7 0.121439 0.381443 0.866579
O O8 0.123904 0.110002 0.835072
O O9 0.640930 0.607125 0.518896
O O10 0.550588 0.866195 0.480681
O O11 0.500000 0.000000 0.826889
O O12 0.537615 0.127131 0.930455
#
# Coordination Sequence:
#
# PCOD9558549 Si02
#       7
#     8   8   8   8   4   4   4
#     4  11  21  40  61  95 126 175 217 269 337 383
#     4  11  24  43  68  97 129 173 224 276 342 405
#     4  11  21  34  63  90 122 168 227 264 309 398
#     4  10  21  40  63  94 130 162 215 284 327 387
#     4  10  21  38  55  97 128 161 213 280 315 386
#     4  10  20  40  67  92 128 170 224 267 304 418
#     4  10  26  40  66  91 132 171 224 272 340 414
#
# _framework density 23.740338000000001
#
# number of rings (size 3 to 8) (size 9 to 14) (size 15 to 20)
#    0.545    0.909    3.636    1.909    5.091    2.545 
#    0.000    1.818    0.000    0.545    0.000    0.000 
#    0.000    0.000    0.000    0.000    0.000    0.000 
#
# Total GULP energy -245001.845902 kJ/mol
# GULP energy per Si atom -5568.223770 kJ/mol
# Density = 2.368630 g / cm^3
# Si number density = 23.740338 Si / 1000 Ang^3
#
#
#
# Elastic Constant Matrix: (Units=GPa)
#
#
# Indices 1 2 3 4 5 6 
#
# 1 208.2893 71.5222 15.2693 0.0000 0.0000 0.0000
# 2 71.5222 208.2894 15.2692 0.0000 0.0000 0.0000
# 3 15.2693 15.2692 110.7081 0.0000 0.0000 0.0000
# 4 0.0000 0.0000 0.0000 -11.2068 0.0000 0.0000
# 5 0.0000 0.0000 0.0000 0.0000 -11.2054 0.0000
# 6 0.0000 0.0000 0.0000 0.0000 0.0000 45.9670
#
#
#
# Elastic Compliance Matrix: (Units=1/GPa)
#
#
# Indices 1 2 3 4 5 6 
#
# 1 0.005470 -0.001842 -0.000500 0.000000 0.000000 0.000000
# 2 -0.001842 0.005470 -0.000500 0.000000 0.000000 0.000000
# 3 -0.000500 -0.000500 0.009171 0.000000 0.000000 0.000000
# 4 0.000000 0.000000 0.000000 -0.089231 0.000000 0.000000
# 5 0.000000 0.000000 0.000000 0.000000 -0.089242 0.000000
# 6 0.000000 0.000000 0.000000 0.000000 0.000000 0.021755
#
#
# Mechanical properties :
#
#
# Convention : Reuss Voigt Hill
#
# Bulk Modulus (GPa) = 69.31968 81.26759 75.29363
# Shear Modulus (GPa) = -39.64653 33.05935 -3.29359
#
# Velocity S-wave (km/s) = -4.09101 3.73572 -1.17913
# Velocity P-wave (km/s) = 2.63579 7.27418 5.47088
#
# Compressibility (1/GPa) = 0.01442592
#
# Stress axis : x y z
#
# Youngs Moduli (GPa) = 182.81282 182.81287 109.04166
#
# Poissons Ratio (x) = 0.33667 0.05457
# Poissons Ratio (y) = 0.33667 0.05457
# Poissons Ratio (z) = 0.09149 0.09149
#
# Static dielectric constant tensor:
#      x y z
#    x 1.895290 0.000000 0.000000 
#    y 0.000000 1.895290 0.000000 
#    z 0.000000 0.000000 2.154110 
# 
# From -- ./inp_files/6782.got.cif
#   From: 2010.05.17/outbox.cif.g08.bks.cpg/sg118_4_cif.got.tgz:6782.got - 2010.05.20 11:17:24.
