data_PCOD9558065
_publ_section_title
;
Structure prediction by ZEFSAII (Michael W. Deem and Ramdas Pophale) SiO2 
 PCOD9558065
Probable space group: P -4 B 2
;
_chemical_formula_sum "Si O2"
_cell_formula_units_Z 48
_cell_length_a 16.756109
_cell_length_b 16.756109
_cell_length_c 7.993587
_cell_angle_alpha 90.000000
_cell_angle_beta 90.000000
_cell_angle_gamma 90.000000
_cell_volume 2244.336951
_symmetry_space_group_name_H-M "P -4 B 2"
_symmetry_group_IT_number 117
_symmetry_cell_setting 'tetragonal'
loop_
_space_group_symop_operation_xyz
x,y,z
y,-x,-z
-x,-y,z
-y,x,-z
1/2+y,1/2+x,-z
1/2-y,1/2-x,-z
1/2-x,1/2+y,z
1/2+x,1/2-y,z
loop_
_atom_site_type_symbol
_atom_site_label
_atom_site_fract_x
_atom_site_fract_y
_atom_site_fract_z
Si Si1 0.776939 0.926803 0.498440
Si Si2 0.641027 0.208785 0.166786
Si Si3 0.649748 0.487891 0.173964
Si Si4 0.350613 0.966016 0.560603
Si Si5 0.644897 0.530443 0.798573
Si Si6 0.780578 0.138225 0.351921
O O1 0.790133 0.944807 0.302798
O O2 0.814464 0.841788 0.534685
O O3 0.685431 0.946209 0.545462
O O4 0.826662 0.985159 0.629837
O O5 0.569895 0.160483 0.256277
O O6 0.606185 0.297245 0.166391
O O7 0.724804 0.201799 0.261218
O O8 0.662758 0.162758 0.000000
O O9 0.566558 0.443740 0.217042
O O10 0.667653 0.579368 0.231602
O O11 0.655422 0.481944 0.972903
O O12 0.436373 0.936373 0.500000
O O13 0.284572 0.915203 0.451652
#
# Coordination Sequence:
#
# PCOD9558065 Si02
#       6
#     8   8   8   8   8   8
#     4  10  20  34  51  73 103 140 178 219 259 317
#     4  10  18  33  50  70  97 134 172 224 263 305
#     4  11  21  35  49  72 104 142 176 211 257 314
#     4   8  17  31  49  69  98 135 171 213 261 309
#     4  11  23  34  50  73 104 139 178 214 264 320
#     4  10  19  34  52  72 102 139 176 219 266 313
#
# _framework density 21.387163000000001
#
# number of rings (size 3 to 8) (size 9 to 14) (size 15 to 20)
#    0.000    2.000    1.667    4.000    0.000    2.333 
#    0.000    5.000    0.000    0.000    0.000    0.000 
#    0.000   72.667    5.667    0.667    0.000    0.000 
#
# Total GULP energy -267229.063148 kJ/mol
# GULP energy per Si atom -5567.272149 kJ/mol
# Density = 2.133848 g / cm^3
# Si number density = 21.387163 Si / 1000 Ang^3
#
#
#
# Elastic Constant Matrix: (Units=GPa)
#
#
# Indices 1 2 3 4 5 6 
#
# 1 52.5272 51.7384 19.2431 0.0000 0.0000 0.0000
# 2 51.7384 52.5272 19.2431 0.0000 0.0000 0.0000
# 3 19.2431 19.2431 75.7704 0.0000 0.0000 0.0000
# 4 0.0000 0.0000 0.0000 23.9675 0.0000 0.0000
# 5 0.0000 0.0000 0.0000 0.0000 23.9675 0.0000
# 6 0.0000 0.0000 0.0000 0.0000 0.0000 22.1044
#
#
#
# Elastic Compliance Matrix: (Units=1/GPa)
#
#
# Indices 1 2 3 4 5 6 
#
# 1 0.639161 -0.628578 -0.002688 0.000000 0.000000 0.000000
# 2 -0.628578 0.639161 -0.002688 0.000000 0.000000 0.000000
# 3 -0.002688 -0.002688 0.014563 0.000000 0.000000 0.000000
# 4 0.000000 0.000000 0.000000 0.041723 0.000000 0.000000
# 5 0.000000 0.000000 0.000000 0.000000 0.041723 0.000000
# 6 0.000000 0.000000 0.000000 0.000000 0.000000 0.045240
#
#
# Mechanical properties :
#
#
# Convention : Reuss Voigt Hill
#
# Bulk Modulus (GPa) = 40.03518 40.14155 40.08837
# Shear Modulus (GPa) = 1.85336 20.04792 10.95064
#
# Velocity S-wave (km/s) = 0.93191 3.06499 2.26524
# Velocity P-wave (km/s) = 4.46294 5.59779 5.06227
#
# Compressibility (1/GPa) = 0.02497803
#
# Stress axis : x y z
#
# Youngs Moduli (GPa) = 1.56455 1.56455 68.66746
#
# Poissons Ratio (x) = 0.98344 0.18456
# Poissons Ratio (y) = 0.98344 0.18456
# Poissons Ratio (z) = 0.00421 0.00421
#
# Static dielectric constant tensor:
#      x y z
#    x 1.833090 0.000000 0.000000 
#    y 0.000000 1.833090 0.000000 
#    z 0.000000 0.000000 1.851540 
# 
# From -- ./inp_files/1940.got.cif
#   From: 2010.05.17/outbox.cif.g08.bks.cpg/sg117_1_cif.got.tgz:1940.got - 2010.05.20 11:15:09.
