data_PCOD9558182
_publ_section_title
;
Structure prediction by ZEFSAII (Michael W. Deem and Ramdas Pophale) SiO2 
 PCOD9558182
Probable space group: P -4 B 2
;
_chemical_formula_sum "Si O2"
_cell_formula_units_Z 34
_cell_length_a 8.760300
_cell_length_b 8.760300
_cell_length_c 18.434761
_cell_angle_alpha 90.000000
_cell_angle_beta 90.000000
_cell_angle_gamma 90.000000
_cell_volume 1414.736210
_symmetry_space_group_name_H-M "P -4 B 2"
_symmetry_group_IT_number 117
_symmetry_cell_setting 'tetragonal'
loop_
_space_group_symop_operation_xyz
x,y,z
y,-x,-z
-x,-y,z
-y,x,-z
1/2+y,1/2+x,-z
1/2-y,1/2-x,-z
1/2-x,1/2+y,z
1/2+x,1/2-y,z
loop_
_atom_site_type_symbol
_atom_site_label
_atom_site_fract_x
_atom_site_fract_y
_atom_site_fract_z
Si Si1 0.000000 0.000000 0.000000
Si Si2 0.252568 0.456516 0.815716
Si Si3 0.385919 0.855977 0.417115
Si Si4 0.210770 0.965395 0.127104
Si Si5 0.578959 0.654912 0.329640
O O1 0.845103 0.980731 0.047864
O O2 0.108485 0.370626 0.850265
O O3 0.324392 0.592925 0.862216
O O4 0.394856 0.335390 0.819914
O O5 0.232852 0.533955 0.736663
O O6 0.335842 0.835842 0.500000
O O7 0.486696 0.710809 0.398657
O O8 0.251089 0.863751 0.357316
O O9 0.500000 0.000000 0.412266
O O10 0.500000 0.500000 0.306030
#
# Coordination Sequence:
#
# PCOD9558182 Si02
#       5
#     2   8   8   8   8
#     4   8  20  40  68 104 136 192 226 304 356 420
#     4  10  22  42  63  99 133 186 227 299 348 423
#     4  11  28  46  68 102 134 185 247 306 373 446
#     4  10  21  40  66  94 143 173 240 281 354 420
#     4  12  24  44  71  95 141 187 239 303 372 431
#
# _framework density 24.032748000000002
#
# number of rings (size 3 to 8) (size 9 to 14) (size 15 to 20)
#    0.000    1.647    2.353    2.824    6.588    4.706 
#    0.000    0.000    0.000   11.294    0.000    0.000 
#    0.000    0.000    0.000    0.000    0.000    0.000 
#
# Total GULP energy -189649.874122 kJ/mol
# GULP energy per Si atom -5577.937474 kJ/mol
# Density = 2.397805 g / cm^3
# Si number density = 24.032748 Si / 1000 Ang^3
#
#
#
# Elastic Constant Matrix: (Units=GPa)
#
#
# Indices 1 2 3 4 5 6 
#
# 1 93.9611 55.9060 32.9133 0.0000 0.0000 0.0000
# 2 55.9060 93.9611 32.9133 0.0000 0.0000 0.0000
# 3 32.9133 32.9133 128.8960 0.0000 0.0000 0.0000
# 4 0.0000 0.0000 0.0000 43.8130 0.0000 0.0000
# 5 0.0000 0.0000 0.0000 0.0000 43.8130 0.0000
# 6 0.0000 0.0000 0.0000 0.0000 0.0000 61.8771
#
#
#
# Elastic Compliance Matrix: (Units=1/GPa)
#
#
# Indices 1 2 3 4 5 6 
#
# 1 0.016897 -0.009381 -0.001919 0.000000 0.000000 0.000000
# 2 -0.009381 0.016897 -0.001919 0.000000 0.000000 0.000000
# 3 -0.001919 -0.001919 0.008738 0.000000 0.000000 0.000000
# 4 0.000000 0.000000 0.000000 0.022824 0.000000 0.000000
# 5 0.000000 0.000000 0.000000 0.000000 0.022824 0.000000
# 6 0.000000 0.000000 0.000000 0.000000 0.000000 0.016161
#
#
# Mechanical properties :
#
#
# Convention : Reuss Voigt Hill
#
# Bulk Modulus (GPa) = 62.13892 62.25374 62.19633
# Shear Modulus (GPa) = 36.72585 42.90631 39.81608
#
# Velocity S-wave (km/s) = 3.91341 4.22990 4.07473
# Velocity P-wave (km/s) = 6.80674 7.05804 6.93353
#
# Compressibility (1/GPa) = 0.01609297
#
# Stress axis : x y z
#
# Youngs Moduli (GPa) = 59.18351 59.18351 114.43940
#
# Poissons Ratio (x) = 0.55521 0.21962
# Poissons Ratio (y) = 0.55521 0.21962
# Poissons Ratio (z) = 0.11358 0.11358
#
# Static dielectric constant tensor:
#      x y z
#    x 1.877270 0.000000 0.000000 
#    y 0.000000 1.877270 0.000000 
#    z 0.000000 0.000000 1.982220 
# 
# From -- ./inp_files/3430.got.cif
#   From: 2010.05.17/outbox.cif.g08.bks.cpg/sg117_2_cif.got.tgz:3430.got - 2010.05.20 11:15:09.
