data_PCOD9558544
_publ_section_title
;
Structure prediction by ZEFSAII (Michael W. Deem and Ramdas Pophale) SiO2 
 PCOD9558544
Probable space group: P -4 N 2
;
_chemical_formula_sum "Si O2"
_cell_formula_units_Z 40
_cell_length_a 11.432207
_cell_length_b 11.432207
_cell_length_c 15.788600
_cell_angle_alpha 90.000000
_cell_angle_beta 90.000000
_cell_angle_gamma 90.000000
_cell_volume 2063.496712
_symmetry_space_group_name_H-M "P -4 N 2"
_symmetry_group_IT_number 118
_symmetry_cell_setting 'tetragonal'
loop_
_space_group_symop_operation_xyz
x,y,z
y,-x,-z
-x,-y,z
-y,x,-z
1/2+y,1/2+x,1/2-z
1/2-y,1/2-x,1/2-z
1/2-x,1/2+y,1/2+z
1/2+x,1/2-y,1/2+z
loop_
_atom_site_type_symbol
_atom_site_label
_atom_site_fract_x
_atom_site_fract_y
_atom_site_fract_z
Si Si1 0.717349 0.923304 0.691317
Si Si2 0.725385 0.609109 0.309775
Si Si3 0.389248 0.915782 0.550927
Si Si4 0.859434 0.706473 0.630369
Si Si5 0.972888 0.282325 0.772976
O O1 0.604938 0.895063 0.750000
O O2 0.762862 0.802382 0.653527
O O3 0.800525 0.991953 0.756531
O O4 0.687599 0.006797 0.614331
O O5 0.812535 0.687466 0.250000
O O6 0.797937 0.582010 0.395260
O O7 0.608841 0.686156 0.317169
O O8 0.317886 0.884152 0.467099
O O9 0.500000 0.000000 0.530475
O O10 0.820260 0.582176 0.669802
O O11 0.972244 0.752320 0.682316
O O12 0.892266 0.392266 0.750000
#
# Coordination Sequence:
#
# PCOD9558544 Si02
#       5
#     8   8   8   8   8
#     4  11  21  41  62  90 132 170 210 266 330 398
#     4   9  21  38  64  89 118 167 214 263 320 390
#     4  11  22  37  66  94 124 163 224 271 322 379
#     4  11  23  38  61  95 127 174 207 272 328 393
#     4  10  20  40  61  86 124 165 218 255 329 387
#
# _framework density 19.38457
#
# number of rings (size 3 to 8) (size 9 to 14) (size 15 to 20)
#    0.000    1.600    4.000    2.400    0.000    7.200 
#    0.000    0.000    0.000    0.000    0.000    0.000 
#    0.000    0.000    0.000    0.000    0.000    0.000 
#
# Total GULP energy -223074.831535 kJ/mol
# GULP energy per Si atom -5576.870788 kJ/mol
# Density = 1.934045 g / cm^3
# Si number density = 19.384570 Si / 1000 Ang^3
#
#
#
# Elastic Constant Matrix: (Units=GPa)
#
#
# Indices 1 2 3 4 5 6 
#
# 1 84.1170 46.9729 42.1926 0.0000 0.0000 0.0000
# 2 46.9729 84.1189 42.1928 0.0000 0.0000 0.0000
# 3 42.1926 42.1928 143.6883 0.0000 0.0000 0.0000
# 4 0.0000 0.0000 0.0000 23.4458 0.0000 0.0000
# 5 0.0000 0.0000 0.0000 0.0000 23.4466 0.0000
# 6 0.0000 0.0000 0.0000 0.0000 0.0000 30.7475
#
#
#
# Elastic Compliance Matrix: (Units=1/GPa)
#
#
# Indices 1 2 3 4 5 6 
#
# 1 0.018164 -0.008758 -0.002762 0.000000 0.000000 0.000000
# 2 -0.008758 0.018164 -0.002762 0.000000 0.000000 0.000000
# 3 -0.002762 -0.002762 0.008582 0.000000 0.000000 0.000000
# 4 0.000000 0.000000 0.000000 0.042652 0.000000 0.000000
# 5 0.000000 0.000000 0.000000 0.000000 0.042650 0.000000
# 6 0.000000 0.000000 0.000000 0.000000 0.000000 0.032523
#
#
# Mechanical properties :
#
#
# Convention : Reuss Voigt Hill
#
# Bulk Modulus (GPa) = 61.17734 63.84899 62.51316
# Shear Modulus (GPa) = 25.41346 27.56571 26.48958
#
# Velocity S-wave (km/s) = 3.62472 3.77509 3.70067
# Velocity P-wave (km/s) = 7.01045 7.21189 7.11188
#
# Compressibility (1/GPa) = 0.01634592
#
# Stress axis : x y z
#
# Youngs Moduli (GPa) = 55.05361 55.05496 116.52812
#
# Poissons Ratio (x) = 0.48215 0.32186
# Poissons Ratio (y) = 0.48214 0.32185
# Poissons Ratio (z) = 0.15206 0.15206
#
# Static dielectric constant tensor:
#      x y z
#    x 1.722600 0.000000 0.000000 
#    y 0.000000 1.722600 0.000000 
#    z 0.000000 0.000000 1.661000 
# 
# From -- ./inp_files/4054.got.cif
#   From: 2010.05.17/outbox.cif.g08.bks.cpg/sg118_3_cif.got.tgz:4054.got - 2010.05.20 11:17:24.
