data_PCOD9558628
_publ_section_title
;
Structure prediction by ZEFSAII (Michael W. Deem and Ramdas Pophale) SiO2 
 PCOD9558628
Probable space group: P -4 N 2
;
_chemical_formula_sum "Si O2"
_cell_formula_units_Z 40
_cell_length_a 9.008818
_cell_length_b 9.008818
_cell_length_c 23.099606
_cell_angle_alpha 90.000000
_cell_angle_beta 90.000000
_cell_angle_gamma 90.000000
_cell_volume 1874.736344
_symmetry_space_group_name_H-M "P -4 N 2"
_symmetry_group_IT_number 118
_symmetry_cell_setting 'tetragonal'
loop_
_space_group_symop_operation_xyz
x,y,z
y,-x,-z
-x,-y,z
-y,x,-z
1/2+y,1/2+x,1/2-z
1/2-y,1/2-x,1/2-z
1/2-x,1/2+y,1/2+z
1/2+x,1/2-y,1/2+z
loop_
_atom_site_type_symbol
_atom_site_label
_atom_site_fract_x
_atom_site_fract_y
_atom_site_fract_z
Si Si1 0.765914 0.530633 0.208111
Si Si2 0.804146 0.741392 0.108046
Si Si3 0.598214 0.717055 0.679025
Si Si4 0.347000 0.952051 0.111608
Si Si5 0.263646 0.415204 0.996213
O O1 0.871480 0.628521 0.250000
O O2 0.718343 0.641433 0.156852
O O3 0.665581 0.451862 0.256831
O O4 0.851204 0.389775 0.181332
O O5 0.824606 0.638648 0.052563
O O6 0.958483 0.788550 0.136776
O O7 0.723354 0.893020 0.090624
O O8 0.732679 0.622943 0.654841
O O9 0.500000 0.000000 0.141213
O O10 0.385362 0.837375 0.059934
O O11 0.317905 0.584564 0.003911
#
# Coordination Sequence:
#
# PCOD9558628 Si02
#       5
#     8   8   8   8   8
#     4   9  19  42  74 101 126 184 242 279 343 426
#     4  11  22  42  72  99 138 178 237 295 350 433
#     4  10  21  42  71 100 138 181 237 289 350 425
#     4  12  26  44  62 106 146 183 235 302 368 423
#     4  11  25  45  70  98 136 189 235 287 369 442
#
# _framework density 21.336333
#
# number of rings (size 3 to 8) (size 9 to 14) (size 15 to 20)
#    0.000    1.400    2.000    6.000    2.800    1.600 
#    0.000   20.000    0.000    0.000    0.000    0.000 
#    0.000    0.000    0.000    0.000    0.000    0.000 
#
# Total GULP energy -223275.452040 kJ/mol
# GULP energy per Si atom -5581.886301 kJ/mol
# Density = 2.128777 g / cm^3
# Si number density = 21.336333 Si / 1000 Ang^3
#
#
#
# Elastic Constant Matrix: (Units=GPa)
#
#
# Indices 1 2 3 4 5 6 
#
# 1 101.8630 41.2689 46.5429 0.0000 0.0000 0.0000
# 2 41.2689 101.8628 46.5433 0.0000 0.0000 0.0000
# 3 46.5429 46.5433 85.3934 0.0000 0.0000 0.0000
# 4 0.0000 0.0000 0.0000 11.6731 0.0000 0.0000
# 5 0.0000 0.0000 0.0000 0.0000 11.6718 0.0000
# 6 0.0000 0.0000 0.0000 0.0000 0.0000 30.0690
#
#
#
# Elastic Compliance Matrix: (Units=1/GPa)
#
#
# Indices 1 2 3 4 5 6 
#
# 1 0.013663 -0.002840 -0.005899 0.000000 0.000000 0.000000
# 2 -0.002840 0.013663 -0.005899 0.000000 0.000000 0.000000
# 3 -0.005899 -0.005899 0.018141 0.000000 0.000000 0.000000
# 4 0.000000 0.000000 0.000000 0.085667 0.000000 0.000000
# 5 0.000000 0.000000 0.000000 0.000000 0.085676 0.000000
# 6 0.000000 0.000000 0.000000 0.000000 0.000000 0.033257
#
#
# Mechanical properties :
#
#
# Convention : Reuss Voigt Hill
#
# Bulk Modulus (GPa) = 61.76303 61.98105 61.87204
# Shear Modulus (GPa) = 17.55982 21.00039 19.28010
#
# Velocity S-wave (km/s) = 2.87191 3.14069 3.00930
# Velocity P-wave (km/s) = 6.32514 6.50111 6.41373
#
# Compressibility (1/GPa) = 0.01619092
#
# Stress axis : x y z
#
# Youngs Moduli (GPa) = 73.18988 73.18929 55.12396
#
# Poissons Ratio (x) = 0.20787 0.32517
# Poissons Ratio (y) = 0.20787 0.32518
# Poissons Ratio (z) = 0.43174 0.43175
#
# Static dielectric constant tensor:
#      x y z
#    x 1.806490 0.000000 0.000000 
#    y 0.000000 1.806490 0.000000 
#    z 0.000000 0.000000 1.771370 
# 
# From -- ./inp_files/6043.got.cif
#   From: 2010.05.17/outbox.cif.g08.bks.cpg/sg118_4_cif.got.tgz:6043.got - 2010.05.20 11:17:24.
