data_PCOD9558604
_publ_section_title
;
Structure prediction by ZEFSAII (Michael W. Deem and Ramdas Pophale) SiO2 
 PCOD9558604
Probable space group: P -4 N 2
;
_chemical_formula_sum "Si O2"
_cell_formula_units_Z 48
_cell_length_a 8.075385
_cell_length_b 8.075385
_cell_length_c 32.256988
_cell_angle_alpha 90.000000
_cell_angle_beta 90.000000
_cell_angle_gamma 90.000000
_cell_volume 2103.537634
_symmetry_space_group_name_H-M "P -4 N 2"
_symmetry_group_IT_number 118
_symmetry_cell_setting 'tetragonal'
loop_
_space_group_symop_operation_xyz
x,y,z
y,-x,-z
-x,-y,z
-y,x,-z
1/2+y,1/2+x,1/2-z
1/2-y,1/2-x,1/2-z
1/2-x,1/2+y,1/2+z
1/2+x,1/2-y,1/2+z
loop_
_atom_site_type_symbol
_atom_site_label
_atom_site_fract_x
_atom_site_fract_y
_atom_site_fract_z
Si Si1 0.757542 0.408077 0.415953
Si Si2 0.700803 0.873774 0.340565
Si Si3 0.262950 0.085020 0.505760
Si Si4 0.348403 0.808273 0.298062
Si Si5 0.410630 0.236567 0.426849
Si Si6 0.510886 0.174848 0.676057
O O1 0.886252 0.340392 0.449225
O O2 0.598884 0.285195 0.415895
O O3 0.685129 0.587579 0.428481
O O4 0.828089 0.431636 0.370168
O O5 0.525019 0.832535 0.319322
O O6 0.669723 0.871569 0.389950
O O7 0.795803 0.705677 0.329431
O O8 0.759569 0.050162 0.322267
O O9 0.387592 0.148155 0.470512
O O10 0.100199 0.200557 0.501530
O O11 0.352688 0.852688 0.250000
O O12 0.299095 0.615876 0.301966
O O13 0.500000 0.000000 0.697807
#
# Coordination Sequence:
#
# PCOD9558604 Si02
#       6
#     8   8   8   8   8   8
#     4  10  22  41  65  90 128 172 229 275 333 401
#     4  10  22  44  73 101 136 184 233 288 344 415
#     4  11  26  39  56  95 135 173 222 286 338 408
#     4  11  24  47  74 105 137 183 237 286 350 424
#     4  10  21  40  67  93 123 175 227 275 339 400
#     4  11  25  45  69 105 142 182 224 290 354 424
#
# _framework density 22.818704
#
# number of rings (size 3 to 8) (size 9 to 14) (size 15 to 20)
#    0.000    1.500    1.667    2.500    7.000    4.333 
#    9.000    0.000    0.000    0.000    0.000    0.000 
#    0.000    0.000    0.000    0.000    0.000    0.000 
#
# Total GULP energy -268380.145884 kJ/mol
# GULP energy per Si atom -5591.253039 kJ/mol
# Density = 2.276677 g / cm^3
# Si number density = 22.818704 Si / 1000 Ang^3
#
#
#
# Elastic Constant Matrix: (Units=GPa)
#
#
# Indices 1 2 3 4 5 6 
#
# 1 59.2977 9.4045 -1.3528 0.0000 0.0000 0.0000
# 2 9.4045 59.2977 -1.3528 0.0000 0.0000 0.0000
# 3 -1.3528 -1.3528 78.9961 0.0000 0.0000 0.0000
# 4 0.0000 0.0000 0.0000 19.2212 0.0000 0.0000
# 5 0.0000 0.0000 0.0000 0.0000 19.2212 0.0000
# 6 0.0000 0.0000 0.0000 0.0000 0.0000 29.9679
#
#
#
# Elastic Compliance Matrix: (Units=1/GPa)
#
#
# Indices 1 2 3 4 5 6 
#
# 1 0.017304 -0.002739 0.000249 0.000000 0.000000 0.000000
# 2 -0.002739 0.017304 0.000249 0.000000 0.000000 0.000000
# 3 0.000249 0.000249 0.012667 0.000000 0.000000 0.000000
# 4 0.000000 0.000000 0.000000 0.052026 0.000000 0.000000
# 5 0.000000 0.000000 0.000000 0.000000 0.052026 0.000000
# 6 0.000000 0.000000 0.000000 0.000000 0.000000 0.033369
#
#
# Mechanical properties :
#
#
# Convention : Reuss Voigt Hill
#
# Bulk Modulus (GPa) = 23.36670 23.44323 23.40497
# Shear Modulus (GPa) = 24.57708 26.40823 25.49265
#
# Velocity S-wave (km/s) = 3.28542 3.40561 3.34605
# Velocity P-wave (km/s) = 4.96531 5.07545 5.02069
#
# Compressibility (1/GPa) = 0.04279595
#
# Stress axis : x y z
#
# Youngs Moduli (GPa) = 57.78972 57.78972 78.94279
#
# Poissons Ratio (x) = 0.15827 -0.01969
# Poissons Ratio (y) = 0.15827 -0.01969
# Poissons Ratio (z) = -0.01441 -0.01441
#
# Static dielectric constant tensor:
#      x y z
#    x 1.927870 0.000000 0.000000 
#    y 0.000000 1.927870 0.000000 
#    z 0.000000 0.000000 1.799880 
# 
# From -- ./inp_files/6839.got.cif
#   From: 2010.05.17/outbox.cif.g08.bks.cpg/sg118_4_cif.got.tgz:6839.got - 2010.05.20 11:17:24.
