data_PCOD9558605
_publ_section_title
;
Structure prediction by ZEFSAII (Michael W. Deem and Ramdas Pophale) SiO2 
 PCOD9558605
Probable space group: P -4 N 2
;
_chemical_formula_sum "Si O2"
_cell_formula_units_Z 48
_cell_length_a 8.700986
_cell_length_b 8.700986
_cell_length_c 28.974620
_cell_angle_alpha 90.000000
_cell_angle_beta 90.000000
_cell_angle_gamma 90.000000
_cell_volume 2193.586116
_symmetry_space_group_name_H-M "P -4 N 2"
_symmetry_group_IT_number 118
_symmetry_cell_setting 'tetragonal'
loop_
_space_group_symop_operation_xyz
x,y,z
y,-x,-z
-x,-y,z
-y,x,-z
1/2+y,1/2+x,1/2-z
1/2-y,1/2-x,1/2-z
1/2-x,1/2+y,1/2+z
1/2+x,1/2-y,1/2+z
loop_
_atom_site_type_symbol
_atom_site_label
_atom_site_fract_x
_atom_site_fract_y
_atom_site_fract_z
Si Si1 0.444079 0.678152 0.750150
Si Si2 0.033571 0.832091 0.935186
Si Si3 0.847723 0.786330 0.575377
Si Si4 0.755765 0.574342 0.354488
Si Si5 0.663870 0.918341 0.495999
Si Si6 0.768661 0.437408 0.155320
O O1 0.500000 0.500000 0.760878
O O2 0.273961 0.773961 0.750000
O O3 0.467926 0.691840 0.695772
O O4 0.549455 0.763874 0.788819
O O5 0.126901 0.867253 0.888657
O O6 0.132816 0.746318 0.973510
O O7 0.881113 0.734261 0.923838
O O8 0.000000 0.000000 0.952364
O O9 0.745758 0.901943 0.544669
O O10 0.866343 0.855524 0.626575
O O11 0.994658 0.760134 0.543233
O O12 0.846265 0.416311 0.364669
O O13 0.884278 0.706748 0.355577
O O14 0.500000 0.000000 0.501873
#
# Coordination Sequence:
#
# PCOD9558605 Si02
#       6
#     8   8   8   8   8   8
#     4  10  22  41  66 101 140 183 234 293 360 440
#     4  11  23  40  69  94 124 177 227 284 345 421
#     4  11  25  43  65  94 136 179 224 288 348 420
#     4  10  21  40  68 100 132 172 237 291 347 423
#     4  10  27  44  62  99 138 174 232 287 352 422
#     4  10  22  39  67  97 133 177 230 291 354 421
#
# _framework density 21.881975000000001
#
# number of rings (size 3 to 8) (size 9 to 14) (size 15 to 20)
#    0.000    1.667    1.667    1.000    9.333    5.000 
#    0.000    0.000    0.000    1.000    0.000    0.000 
#    0.000    0.000    0.000    0.000    0.000    0.000 
#
# Total GULP energy -267258.805997 kJ/mol
# GULP energy per Si atom -5567.891792 kJ/mol
# Density = 2.183217 g / cm^3
# Si number density = 21.881975 Si / 1000 Ang^3
#
#
#
# Elastic Constant Matrix: (Units=GPa)
#
#
# Indices 1 2 3 4 5 6 
#
# 1 71.0462 24.0462 30.9846 0.0000 0.0000 0.0000
# 2 24.0462 71.0462 30.9846 0.0000 0.0000 0.0000
# 3 30.9846 30.9846 117.7870 0.0000 0.0000 0.0000
# 4 0.0000 0.0000 0.0000 69.9591 0.0000 0.0000
# 5 0.0000 0.0000 0.0000 0.0000 69.9591 0.0000
# 6 0.0000 0.0000 0.0000 0.0000 0.0000 21.9693
#
#
#
# Elastic Compliance Matrix: (Units=1/GPa)
#
#
# Indices 1 2 3 4 5 6 
#
# 1 0.016984 -0.004292 -0.003339 0.000000 0.000000 0.000000
# 2 -0.004292 0.016984 -0.003339 0.000000 0.000000 0.000000
# 3 -0.003339 -0.003339 0.010246 0.000000 0.000000 0.000000
# 4 0.000000 0.000000 0.000000 0.014294 0.000000 0.000000
# 5 0.000000 0.000000 0.000000 0.000000 0.014294 0.000000
# 6 0.000000 0.000000 0.000000 0.000000 0.000000 0.045518
#
#
# Mechanical properties :
#
#
# Convention : Reuss Voigt Hill
#
# Bulk Modulus (GPa) = 44.89259 47.99001 46.44130
# Shear Modulus (GPa) = 33.85570 43.96844 38.91207
#
# Velocity S-wave (km/s) = 3.93771 4.48743 4.22153
# Velocity P-wave (km/s) = 6.42140 6.98773 6.71054
#
# Compressibility (1/GPa) = 0.02227539
#
# Stress axis : x y z
#
# Youngs Moduli (GPa) = 58.87819 58.87819 97.59511
#
# Poissons Ratio (x) = 0.25273 0.32584
# Poissons Ratio (y) = 0.25273 0.32584
# Poissons Ratio (z) = 0.19657 0.19657
#
# Static dielectric constant tensor:
#      x y z
#    x 1.839030 0.000000 0.000000 
#    y 0.000000 1.839030 0.000000 
#    z 0.000000 0.000000 1.800810 
# 
# From -- ./inp_files/6874.got.cif
#   From: 2010.05.17/outbox.cif.g08.bks.cpg/sg118_4_cif.got.tgz:6874.got - 2010.05.20 11:17:24.
