data_PCOD9558636
_publ_section_title
;
Structure prediction by ZEFSAII (Michael W. Deem and Ramdas Pophale) SiO2 
 PCOD9558636
Probable space group: P -4 N 2
;
_chemical_formula_sum "Si O2"
_cell_formula_units_Z 48
_cell_length_a 13.551976
_cell_length_b 13.551976
_cell_length_c 11.872720
_cell_angle_alpha 90.000000
_cell_angle_beta 90.000000
_cell_angle_gamma 90.000000
_cell_volume 2180.496900
_symmetry_space_group_name_H-M "P -4 N 2"
_symmetry_group_IT_number 118
_symmetry_cell_setting 'tetragonal'
loop_
_space_group_symop_operation_xyz
x,y,z
y,-x,-z
-x,-y,z
-y,x,-z
1/2+y,1/2+x,1/2-z
1/2-y,1/2-x,1/2-z
1/2-x,1/2+y,1/2+z
1/2+x,1/2-y,1/2+z
loop_
_atom_site_type_symbol
_atom_site_label
_atom_site_fract_x
_atom_site_fract_y
_atom_site_fract_z
Si Si1 0.000255 0.789817 0.163887
Si Si2 0.660773 0.839228 0.750000
Si Si3 0.668219 0.258819 0.105665
Si Si4 0.721588 0.977331 0.240880
Si Si5 0.086984 0.183299 0.928637
Si Si6 0.136042 0.144055 0.368919
Si Si7 0.000000 0.500000 0.750000
Si Si8 0.000000 0.000000 0.500000
O O1 0.060994 0.686720 0.181712
O O2 0.082832 0.869119 0.121912
O O3 0.939668 0.814614 0.276195
O O4 0.926058 0.797858 0.059649
O O5 0.665429 0.744214 0.834085
O O6 0.568238 0.244027 0.174362
O O7 0.731458 0.160203 0.111196
O O8 0.649532 0.287114 0.977080
O O9 0.794293 0.985145 0.134871
O O10 0.609632 0.992014 0.196692
O O11 0.759107 0.884061 0.312861
O O12 0.083753 0.046852 0.421389
#
# Coordination Sequence:
#
# PCOD9558636 Si02
#       8
#     8   4   8   8   8   8   2   2
#     4  11  24  42  67 106 138 187 234 294 371 430
#     4  10  21  44  66  90 140 189 226 272 382 444
#     4  11  21  45  67  90 137 187 219 290 365 420
#     4  12  23  44  67  98 135 177 240 291 345 426
#     4  11  23  44  69  92 142 188 227 286 359 445
#     4  12  25  38  71 107 138 175 237 308 358 423
#     4  12  26  44  72 100 126 196 244 282 332 430
#     4  12  20  36  64 106 132 176 216 280 374 416
#
# _framework density 22.013331000000001
#
# number of rings (size 3 to 8) (size 9 to 14) (size 15 to 20)
#    0.000    0.667    6.667    3.000    0.000    6.333 
#    0.000    0.000    0.000    1.000    0.000    0.000 
#    0.000    0.000    0.000    0.000    0.000    0.000 
#
# Total GULP energy -267624.502017 kJ/mol
# GULP energy per Si atom -5575.510459 kJ/mol
# Density = 2.196323 g / cm^3
# Si number density = 22.013331 Si / 1000 Ang^3
#
#
#
# Elastic Constant Matrix: (Units=GPa)
#
#
# Indices 1 2 3 4 5 6 
#
# 1 58.2363 25.0124 21.7444 0.0000 0.0000 0.0000
# 2 25.0124 58.2361 21.7444 0.0000 0.0000 0.0000
# 3 21.7444 21.7444 141.3838 0.0000 0.0000 0.0000
# 4 0.0000 0.0000 0.0000 26.6119 0.0000 0.0000
# 5 0.0000 0.0000 0.0000 0.0000 26.6121 0.0000
# 6 0.0000 0.0000 0.0000 0.0000 0.0000 29.8836
#
#
#
# Elastic Compliance Matrix: (Units=1/GPa)
#
#
# Indices 1 2 3 4 5 6 
#
# 1 0.021580 -0.008519 -0.002009 0.000000 0.000000 0.000000
# 2 -0.008519 0.021580 -0.002009 0.000000 0.000000 0.000000
# 3 -0.002009 -0.002009 0.007691 0.000000 0.000000 0.000000
# 4 0.000000 0.000000 0.000000 0.037577 0.000000 0.000000
# 5 0.000000 0.000000 0.000000 0.000000 0.037577 0.000000
# 6 0.000000 0.000000 0.000000 0.000000 0.000000 0.033463
#
#
# Mechanical properties :
#
#
# Convention : Reuss Voigt Hill
#
# Bulk Modulus (GPa) = 38.79165 43.87318 41.33242
# Shear Modulus (GPa) = 25.88873 29.24518 27.56696
#
# Velocity S-wave (km/s) = 3.43308 3.64884 3.54260
# Velocity P-wave (km/s) = 5.77710 6.14212 5.96240
#
# Compressibility (1/GPa) = 0.02577874
#
# Stress axis : x y z
#
# Youngs Moduli (GPa) = 46.33869 46.33857 130.02457
#
# Poissons Ratio (x) = 0.39474 0.26120
# Poissons Ratio (y) = 0.39474 0.26120
# Poissons Ratio (z) = 0.09309 0.09309
#
# Static dielectric constant tensor:
#      x y z
#    x 1.886700 0.000000 0.000000 
#    y 0.000000 1.886700 0.000000 
#    z 0.000000 0.000000 1.793820 
# 
# From -- ./inp_files/3392.got.cif
#   From: 2010.05.17/outbox.cif.g08.bks.cpg/sg118_2_cif.got.tgz:3392.got - 2010.05.20 11:17:24.
