data_PCOD9558250
_publ_section_title
;
Structure prediction by ZEFSAII (Michael W. Deem and Ramdas Pophale) SiO2 
 PCOD9558250
Probable space group: P -4 B 2
;
_chemical_formula_sum "Si O2"
_cell_formula_units_Z 40
_cell_length_a 12.861230
_cell_length_b 12.861230
_cell_length_c 9.840833
_cell_angle_alpha 90.000000
_cell_angle_beta 90.000000
_cell_angle_gamma 90.000000
_cell_volume 1627.784361
_symmetry_space_group_name_H-M "P -4 B 2"
_symmetry_group_IT_number 117
_symmetry_cell_setting 'tetragonal'
loop_
_space_group_symop_operation_xyz
x,y,z
y,-x,-z
-x,-y,z
-y,x,-z
1/2+y,1/2+x,-z
1/2-y,1/2-x,-z
1/2-x,1/2+y,z
1/2+x,1/2-y,z
loop_
_atom_site_type_symbol
_atom_site_label
_atom_site_fract_x
_atom_site_fract_y
_atom_site_fract_z
Si Si1 0.500000 0.500000 0.000000
Si Si2 0.283311 0.938573 0.268794
Si Si3 0.720645 0.220645 0.500000
Si Si4 0.442613 0.374181 0.249471
Si Si5 0.131227 0.631227 0.000000
Si Si6 0.837700 0.320089 0.725531
Si Si7 0.887259 0.612742 0.000000
Si Si8 0.500000 0.500000 0.500000
O O1 0.402340 0.501983 0.893233
O O2 0.280669 0.880087 0.409928
O O3 0.160597 0.948275 0.238792
O O4 0.327549 0.873124 0.141988
O O5 0.350781 0.042263 0.289874
O O6 0.811285 0.237808 0.610344
O O7 0.402273 0.256616 0.271492
O O8 0.496473 0.406137 0.391166
O O9 0.212181 0.656068 0.117875
O O10 0.136747 0.508644 0.965694
#
# Coordination Sequence:
#
# PCOD9558250 Si02
#       8
#     2   8   4   8   4   8   4   2
#     4  10  24  46  68 106 132 170 256 302 360 418
#     4  10  23  44  68 103 146 187 238 292 364 435
#     4  10  24  42  64 110 142 190 238 296 352 428
#     4  10  24  44  70 105 135 192 232 305 351 434
#     4   9  20  41  70  98 138 187 237 292 364 435
#     4  10  23  43  71 102 138 191 242 285 366 427
#     4   9  20  41  64 102 138 181 232 301 360 424
#     4  10  24  50  68  94 152 182 244 294 364 430
#
# _framework density 24.57328
#
# number of rings (size 3 to 8) (size 9 to 14) (size 15 to 20)
#    0.000    2.200    0.000    0.000   11.200    4.800 
#    3.600    0.000    0.000    0.000    0.000    0.000 
#    0.000    0.000    0.000    0.000    0.000    0.000 
#
# Total GULP energy -222843.466333 kJ/mol
# GULP energy per Si atom -5571.086658 kJ/mol
# Density = 2.451735 g / cm^3
# Si number density = 24.573280 Si / 1000 Ang^3
#
#
#
# Elastic Constant Matrix: (Units=GPa)
#
#
# Indices 1 2 3 4 5 6 
#
# 1 92.2947 20.9056 62.8752 0.0000 0.0000 0.0000
# 2 20.9056 92.2948 62.8754 0.0000 0.0000 0.0000
# 3 62.8752 62.8754 217.4890 0.0000 0.0000 0.0000
# 4 0.0000 0.0000 0.0000 27.4414 0.0000 0.0000
# 5 0.0000 0.0000 0.0000 0.0000 27.4395 0.0000
# 6 0.0000 0.0000 0.0000 0.0000 0.0000 29.4842
#
#
#
# Elastic Compliance Matrix: (Units=1/GPa)
#
#
# Indices 1 2 3 4 5 6 
#
# 1 0.013510 -0.000497 -0.003762 0.000000 0.000000 0.000000
# 2 -0.000497 0.013510 -0.003762 0.000000 0.000000 0.000000
# 3 -0.003762 -0.003762 0.006773 0.000000 0.000000 0.000000
# 4 0.000000 0.000000 0.000000 0.036441 0.000000 0.000000
# 5 0.000000 0.000000 0.000000 0.000000 0.036444 0.000000
# 6 0.000000 0.000000 0.000000 0.000000 0.000000 0.033916
#
#
# Mechanical properties :
#
#
# Convention : Reuss Voigt Hill
#
# Bulk Modulus (GPa) = 56.33470 77.26562 66.80016
# Shear Modulus (GPa) = 30.75877 33.90117 32.32997
#
# Velocity S-wave (km/s) = 3.54180 3.71832 3.63113
# Velocity P-wave (km/s) = 6.30085 7.06723 6.69502
#
# Compressibility (1/GPa) = 0.01775105
#
# Stress axis : x y z
#
# Youngs Moduli (GPa) = 74.01734 74.01726 147.64291
#
# Poissons Ratio (x) = 0.03681 0.55543
# Poissons Ratio (y) = 0.03681 0.55543
# Poissons Ratio (z) = 0.27845 0.27845
#
# Static dielectric constant tensor:
#      x y z
#    x 2.841770 0.000000 0.000000 
#    y 0.000000 2.841730 0.000000 
#    z 0.000000 0.000000 1.994950 
# 
# From -- ./inp_files/1844.got.cif
#   From: 2010.05.17/outbox.cif.g08.bks.cpg/sg117_1_cif.got.tgz:1844.got - 2010.05.20 11:15:09.
