data_PCOD9558294
_publ_section_title
;
Structure prediction by ZEFSAII (Michael W. Deem and Ramdas Pophale) SiO2 
 PCOD9558294
Probable space group: P -4 B 2
;
_chemical_formula_sum "Si O2"
_cell_formula_units_Z 24
_cell_length_a 9.026148
_cell_length_b 9.026148
_cell_length_c 12.264776
_cell_angle_alpha 90.000000
_cell_angle_beta 90.000000
_cell_angle_gamma 90.000000
_cell_volume 999.227830
_symmetry_space_group_name_H-M "P -4 B 2"
_symmetry_group_IT_number 117
_symmetry_cell_setting 'tetragonal'
loop_
_space_group_symop_operation_xyz
x,y,z
y,-x,-z
-x,-y,z
-y,x,-z
1/2+y,1/2+x,-z
1/2-y,1/2-x,-z
1/2-x,1/2+y,z
1/2+x,1/2-y,z
loop_
_atom_site_type_symbol
_atom_site_label
_atom_site_fract_x
_atom_site_fract_y
_atom_site_fract_z
Si Si1 0.765894 0.579455 0.202776
Si Si2 0.417349 0.188450 0.117566
Si Si3 0.074229 0.217037 0.545056
O O1 0.636405 0.643386 0.126409
O O2 0.806802 0.407075 0.193600
O O3 0.717990 0.604522 0.326558
O O4 0.917825 0.657971 0.160494
O O5 0.381729 0.118272 0.000000
O O6 0.125544 0.374457 0.500000
O O7 0.907646 0.171981 0.516066
#
# Coordination Sequence:
#
# PCOD9558294 Si02
#       3
#     8   8   8
#     4  11  23  41  64  92 130 172 215 271 329 388
#     4  11  23  42  66  98 132 171 217 269 331 403
#     4  11  24  42  63  92 126 168 221 273 326 391
#
# _framework density 24.018543999999999
#
# number of rings (size 3 to 8) (size 9 to 14) (size 15 to 20)
#    0.000    1.000    0.000    8.000    0.000    7.333 
#    0.000    3.333    0.000    0.000    0.000    0.000 
#    0.000    0.000    0.000    0.000    0.000    0.000 
#
# Total GULP energy -134242.088191 kJ/mol
# GULP energy per Si atom -5593.420341 kJ/mol
# Density = 2.396388 g / cm^3
# Si number density = 24.018544 Si / 1000 Ang^3
#
#
#
# Elastic Constant Matrix: (Units=GPa)
#
#
# Indices 1 2 3 4 5 6 
#
# 1 58.0447 68.1574 25.8870 0.0000 0.0000 0.0000
# 2 68.1574 58.0419 25.8870 0.0000 0.0000 0.0000
# 3 25.8870 25.8870 155.7577 0.0000 0.0000 0.0000
# 4 0.0000 0.0000 0.0000 3.3196 0.0000 0.0000
# 5 0.0000 0.0000 0.0000 0.0000 3.3269 0.0000
# 6 0.0000 0.0000 0.0000 0.0000 0.0000 68.7980
#
#
#
# Elastic Compliance Matrix: (Units=1/GPa)
#
#
# Indices 1 2 3 4 5 6 
#
# 1 -0.045183 0.053688 -0.001414 0.000000 0.000000 0.000000
# 2 0.053688 -0.045185 -0.001413 0.000000 0.000000 0.000000
# 3 -0.001414 -0.001413 0.006890 0.000000 0.000000 0.000000
# 4 0.000000 0.000000 0.000000 0.301241 0.000000 0.000000
# 5 0.000000 0.000000 0.000000 0.000000 0.300582 0.000000
# 6 0.000000 0.000000 0.000000 0.000000 0.000000 0.014535
#
#
# Mechanical properties :
#
#
# Convention : Reuss Voigt Hill
#
# Bulk Modulus (GPa) = 54.81211 56.85635 55.83423
# Shear Modulus (GPa) = 11.43539 25.21641 18.32590
#
# Velocity S-wave (km/s) = 2.18435 3.24369 2.76522
# Velocity P-wave (km/s) = 5.40668 6.14426 5.78723
#
# Compressibility (1/GPa) = 0.01824414
#
# Stress axis : x y z
#
# Youngs Moduli (GPa) = -22.13229 -22.13113 145.13747
#
# Poissons Ratio (x) = 1.18817 0.20515
# Poissons Ratio (y) = 1.18823 0.20510
# Poissons Ratio (z) = -0.03128 -0.03127
#
# Static dielectric constant tensor:
#      x y z
#    x 1.908970 0.000000 0.000000 
#    y 0.000000 1.908970 0.000000 
#    z 0.000000 0.000000 1.887260 
# 
# From -- ./inp_files/3000.got.cif
#   From: 2010.05.17/outbox.cif.g08.bks.cpg/sg117_2_cif.got.tgz:3000.got - 2010.05.20 11:15:09.
