data_PCOD9558711
_publ_section_title
;
Structure prediction by ZEFSAII (Michael W. Deem and Ramdas Pophale) SiO2 
 PCOD9558711
Probable space group: P -4 N 2
;
_chemical_formula_sum "Si O2"
_cell_formula_units_Z 34
_cell_length_a 13.955562
_cell_length_b 13.955562
_cell_length_c 8.073182
_cell_angle_alpha 90.000000
_cell_angle_beta 90.000000
_cell_angle_gamma 90.000000
_cell_volume 1572.314445
_symmetry_space_group_name_H-M "P -4 N 2"
_symmetry_group_IT_number 118
_symmetry_cell_setting 'tetragonal'
loop_
_space_group_symop_operation_xyz
x,y,z
y,-x,-z
-x,-y,z
-y,x,-z
1/2+y,1/2+x,1/2-z
1/2-y,1/2-x,1/2-z
1/2-x,1/2+y,1/2+z
1/2+x,1/2-y,1/2+z
loop_
_atom_site_type_symbol
_atom_site_label
_atom_site_fract_x
_atom_site_fract_y
_atom_site_fract_z
Si Si1 0.025300 0.653464 0.372979
Si Si2 0.000000 0.000000 0.000000
Si Si3 0.665828 0.154009 0.056521
Si Si4 0.057410 0.174994 0.160105
Si Si5 0.273996 0.656251 0.885628
O O1 0.083577 0.583577 0.250000
O O2 0.087950 0.700092 0.520827
O O3 0.925933 0.615311 0.452887
O O4 0.993853 0.745353 0.268137
O O5 0.903885 0.983716 0.899471
O O6 0.645680 0.145680 0.250000
O O7 0.762017 0.103632 0.988166
O O8 0.681371 0.266111 0.012321
O O9 0.136608 0.120498 0.274267
O O10 0.215488 0.715488 0.750000
#
# Coordination Sequence:
#
# PCOD9558711 Si02
#       5
#     8   2   8   8   8
#     4  11  24  41  71 105 140 183 230 288 348 427
#     4  12  28  40  74 100 136 176 238 288 352 412
#     4  10  23  44  69  94 142 185 228 286 352 409
#     4  10  26  44  64 101 138 179 234 292 339 418
#     4   9  21  41  66  99 135 179 227 279 346 411
#
# _framework density 21.624175000000001
#
# number of rings (size 3 to 8) (size 9 to 14) (size 15 to 20)
#    0.000    1.882    0.000    2.824   13.176    3.765 
#    0.000    1.176    0.000    0.000    0.000    0.000 
#    0.000    0.000    0.000    0.000    0.000    0.000 
#
# Total GULP energy -189760.199780 kJ/mol
# GULP energy per Si atom -5581.182346 kJ/mol
# Density = 2.157496 g / cm^3
# Si number density = 21.624175 Si / 1000 Ang^3
#
#
#
# Elastic Constant Matrix: (Units=GPa)
#
#
# Indices 1 2 3 4 5 6 
#
# 1 73.3976 34.5407 38.8412 0.0000 0.0000 0.0000
# 2 34.5407 73.3976 38.8412 0.0000 0.0000 0.0000
# 3 38.8412 38.8412 124.3335 0.0000 0.0000 0.0000
# 4 0.0000 0.0000 0.0000 15.0976 0.0000 0.0000
# 5 0.0000 0.0000 0.0000 0.0000 15.0976 0.0000
# 6 0.0000 0.0000 0.0000 0.0000 0.0000 34.8446
#
#
#
# Elastic Compliance Matrix: (Units=1/GPa)
#
#
# Indices 1 2 3 4 5 6 
#
# 1 0.018844 -0.006892 -0.003734 0.000000 0.000000 0.000000
# 2 -0.006892 0.018844 -0.003734 0.000000 0.000000 0.000000
# 3 -0.003734 -0.003734 0.010376 0.000000 0.000000 0.000000
# 4 0.000000 0.000000 0.000000 0.066236 0.000000 0.000000
# 5 0.000000 0.000000 0.000000 0.000000 0.066236 0.000000
# 6 0.000000 0.000000 0.000000 0.000000 0.000000 0.028699
#
#
# Mechanical properties :
#
#
# Convention : Reuss Voigt Hill
#
# Bulk Modulus (GPa) = 51.69471 55.06387 53.37929
# Shear Modulus (GPa) = 20.45834 23.60169 22.03001
#
# Velocity S-wave (km/s) = 3.07919 3.30729 3.19528
# Velocity P-wave (km/s) = 6.04977 6.33274 6.19287
#
# Compressibility (1/GPa) = 0.01934434
#
# Stress axis : x y z
#
# Youngs Moduli (GPa) = 53.06860 53.06860 96.37985
#
# Poissons Ratio (x) = 0.36575 0.35985
# Poissons Ratio (y) = 0.36575 0.35985
# Poissons Ratio (z) = 0.19814 0.19814
#
# Static dielectric constant tensor:
#      x y z
#    x 1.864150 0.000000 0.000000 
#    y 0.000000 1.864150 0.000000 
#    z 0.000000 0.000000 1.803870 
# 
# From -- ./inp_files/1648.got.cif
#   From: 2010.05.17/outbox.cif.g08.bks.cpg/sg118_1_cif.got.tgz:1648.got - 2010.05.20 11:17:24.
