data_PCOD9558034
_publ_section_title
;
Structure prediction by ZEFSAII (Michael W. Deem and Ramdas Pophale) SiO2 
 PCOD9558034
Probable space group: P -4 C 2
;
_chemical_formula_sum "Si O2"
_cell_formula_units_Z 12
_cell_length_a 7.913100
_cell_length_b 7.913100
_cell_length_c 7.325282
_cell_angle_alpha 90.000000
_cell_angle_beta 90.000000
_cell_angle_gamma 90.000000
_cell_volume 458.688294
_symmetry_space_group_name_H-M "P -4 C 2"
_symmetry_group_IT_number 116
_symmetry_cell_setting 'tetragonal'
loop_
_space_group_symop_operation_xyz
x,y,z
y,-x,-z
-x,-y,z
-y,x,-z
y,x,1/2-z
-y,-x,1/2-z
-x,y,1/2+z
x,-y,1/2+z
loop_
_atom_site_type_symbol
_atom_site_label
_atom_site_fract_x
_atom_site_fract_y
_atom_site_fract_z
Si Si1 0.132433 0.341822 0.385947
Si Si2 0.813354 0.186647 0.250000
O O1 0.284862 0.284862 0.250000
O O2 0.200663 0.327426 0.591475
O O3 0.000000 0.500000 0.370043
O O4 0.988619 0.202916 0.353538
#
# Coordination Sequence:
#
# PCOD9558034 Si02
#       2
#     8   4
#     4  12  27  47  79 121 164 222 293 361 435 525
#     4  12  25  44  79 116 159 220 295 354 425 528
#
# _framework density 26.161556999999998
#
# number of rings (size 3 to 8) (size 9 to 14) (size 15 to 20)
#    0.000    0.000    6.667    3.000    0.000    2.667 
#    0.000    1.667    0.000    0.000    0.000    0.000 
#    0.000    0.000    0.000    0.000    0.000    0.000 
#
# Total GULP energy -66812.083680 kJ/mol
# GULP energy per Si atom -5567.673640 kJ/mol
# Density = 2.610201 g / cm^3
# Si number density = 26.161557 Si / 1000 Ang^3
#
#
#
# Elastic Constant Matrix: (Units=GPa)
#
#
# Indices 1 2 3 4 5 6 
#
# 1 136.5764 62.5428 70.0162 0.0000 0.0000 0.0000
# 2 62.5428 136.5753 70.0166 0.0000 0.0000 0.0000
# 3 70.0162 70.0166 240.0100 0.0000 0.0000 0.0000
# 4 0.0000 0.0000 0.0000 19.8520 0.0000 0.0000
# 5 0.0000 0.0000 0.0000 0.0000 19.8519 0.0000
# 6 0.0000 0.0000 0.0000 0.0000 0.0000 61.1884
#
#
#
# Elastic Compliance Matrix: (Units=1/GPa)
#
#
# Indices 1 2 3 4 5 6 
#
# 1 0.009913 -0.003595 -0.001843 0.000000 0.000000 0.000000
# 2 -0.003595 0.009913 -0.001843 0.000000 0.000000 0.000000
# 3 -0.001843 -0.001843 0.005242 0.000000 0.000000 0.000000
# 4 0.000000 0.000000 0.000000 0.050373 0.000000 0.000000
# 5 0.000000 0.000000 0.000000 0.000000 0.050373 0.000000
# 6 0.000000 0.000000 0.000000 0.000000 0.000000 0.016343
#
#
# Mechanical properties :
#
#
# Convention : Reuss Voigt Hill
#
# Bulk Modulus (GPa) = 95.18527 102.03477 98.61002
# Shear Modulus (GPa) = 31.20700 40.88419 36.04559
#
# Velocity S-wave (km/s) = 3.45752 3.95746 3.71591
# Velocity P-wave (km/s) = 7.23892 7.74393 7.49568
#
# Compressibility (1/GPa) = 0.01050583
#
# Stress axis : x y z
#
# Youngs Moduli (GPa) = 100.87883 100.87762 190.77002
#
# Poissons Ratio (x) = 0.36261 0.35163
# Poissons Ratio (y) = 0.36261 0.35164
# Poissons Ratio (z) = 0.18594 0.18594
#
# Static dielectric constant tensor:
#      x y z
#    x 2.232950 0.000000 0.000000 
#    y 0.000000 2.232950 0.000000 
#    z 0.000000 0.000000 2.112000 
# 
# From -- ./inp_files/294.got.cif
#   From: 2010.05.17/outbox.cif.g08.bks.cpg/sg116_1_cif.got.tgz:294.got - 2010.05.20 11:11:43.
