data_PCOD9558894
_publ_section_title
;
Structure prediction by ZEFSAII (Michael W. Deem and Ramdas Pophale) SiO2 
 PCOD9558894
Probable space group: P -4 N 2
;
_chemical_formula_sum "Si O2"
_cell_formula_units_Z 28
_cell_length_a 7.079519
_cell_length_b 7.079519
_cell_length_c 22.822246
_cell_angle_alpha 90.000000
_cell_angle_beta 90.000000
_cell_angle_gamma 90.000000
_cell_volume 1143.841596
_symmetry_space_group_name_H-M "P -4 N 2"
_symmetry_group_IT_number 118
_symmetry_cell_setting 'tetragonal'
loop_
_space_group_symop_operation_xyz
x,y,z
y,-x,-z
-x,-y,z
-y,x,-z
1/2+y,1/2+x,1/2-z
1/2-y,1/2-x,1/2-z
1/2-x,1/2+y,1/2+z
1/2+x,1/2-y,1/2+z
loop_
_atom_site_type_symbol
_atom_site_label
_atom_site_fract_x
_atom_site_fract_y
_atom_site_fract_z
Si Si1 0.000000 0.000000 0.607318
Si Si2 0.359450 0.874603 0.460348
Si Si3 0.126387 0.140718 0.068212
Si Si4 0.841989 0.662892 0.317583
O O1 0.104248 0.157299 0.568652
O O2 0.848102 0.083275 0.651402
O O3 0.409165 0.125886 0.444727
O O4 0.324518 0.387087 0.362453
O O5 0.359843 0.834062 0.530003
O O6 0.877377 0.098086 0.055006
O O7 0.796962 0.703039 0.250000
O O8 0.000000 0.500000 0.319063
#
# Coordination Sequence:
#
# PCOD9558894 Si02
#       4
#     4   8   8   8
#     4  12  28  49  74 112 146 193 256 308 374 447
#     4  12  25  43  72 112 147 190 238 312 381 441
#     4  12  24  45  71 107 148 192 242 302 381 452
#     4  11  27  49  74 105 149 200 251 310 368 446
#
# _framework density 24.478911
#
# number of rings (size 3 to 8) (size 9 to 14) (size 15 to 20)
#    0.000    0.286    5.714    2.571    6.000    1.143 
#    0.000    1.429    0.000    0.000    0.000    0.000 
#    0.000    0.000    0.000    0.000    0.000    0.000 
#
# Total GULP energy -155892.495056 kJ/mol
# GULP energy per Si atom -5567.589109 kJ/mol
# Density = 2.442320 g / cm^3
# Si number density = 24.478911 Si / 1000 Ang^3
#
#
#
# Elastic Constant Matrix: (Units=GPa)
#
#
# Indices 1 2 3 4 5 6 
#
# 1 167.9860 98.6781 83.9430 0.0000 0.0000 0.0000
# 2 98.6781 167.9857 83.9428 0.0000 0.0000 0.0000
# 3 83.9430 83.9428 227.8172 0.0000 0.0000 0.0000
# 4 0.0000 0.0000 0.0000 55.4210 0.0000 0.0000
# 5 0.0000 0.0000 0.0000 0.0000 55.4211 0.0000
# 6 0.0000 0.0000 0.0000 0.0000 0.0000 88.3794
#
#
#
# Elastic Compliance Matrix: (Units=1/GPa)
#
#
# Indices 1 2 3 4 5 6 
#
# 1 0.009656 -0.004773 -0.001799 0.000000 0.000000 0.000000
# 2 -0.004773 0.009656 -0.001799 0.000000 0.000000 0.000000
# 3 -0.001799 -0.001799 0.005715 0.000000 0.000000 0.000000
# 4 0.000000 0.000000 0.000000 0.018044 0.000000 0.000000
# 5 0.000000 0.000000 0.000000 0.000000 0.018044 0.000000
# 6 0.000000 0.000000 0.000000 0.000000 0.000000 0.011315
#
#
# Mechanical properties :
#
#
# Convention : Reuss Voigt Hill
#
# Bulk Modulus (GPa) = 120.71042 121.87962 121.29502
# Shear Modulus (GPa) = 54.38788 59.65930 57.02359
#
# Velocity S-wave (km/s) = 4.71874 4.94213 4.83172
# Velocity P-wave (km/s) = 8.89425 9.08096 8.98809
#
# Compressibility (1/GPa) = 0.00828429
#
# Stress axis : x y z
#
# Youngs Moduli (GPa) = 103.56730 103.56716 174.96855
#
# Poissons Ratio (x) = 0.49431 0.31479
# Poissons Ratio (y) = 0.49431 0.31479
# Poissons Ratio (z) = 0.18633 0.18633
#
# Static dielectric constant tensor:
#      x y z
#    x 2.367980 0.000000 0.000000 
#    y 0.000000 2.367990 0.000000 
#    z 0.000000 0.000000 1.825120 
# 
# From -- ./inp_files/4605.got.cif
#   From: 2010.05.17/outbox.cif.g08.bks.cpg/sg118_3_cif.got.tgz:4605.got - 2010.05.20 11:17:24.
