data_PCOD9558732
_publ_section_title
;
Structure prediction by ZEFSAII (Michael W. Deem and Ramdas Pophale) SiO2 
 PCOD9558732
Probable space group: P -4 N 2
;
_chemical_formula_sum "Si O2"
_cell_formula_units_Z 16
_cell_length_a 5.186649
_cell_length_b 5.186649
_cell_length_c 25.154465
_cell_angle_alpha 90.000000
_cell_angle_beta 90.000000
_cell_angle_gamma 90.000000
_cell_volume 676.688510
_symmetry_space_group_name_H-M "P -4 N 2"
_symmetry_group_IT_number 118
_symmetry_cell_setting 'tetragonal'
loop_
_space_group_symop_operation_xyz
x,y,z
y,-x,-z
-x,-y,z
-y,x,-z
1/2+y,1/2+x,1/2-z
1/2-y,1/2-x,1/2-z
1/2-x,1/2+y,1/2+z
1/2+x,1/2-y,1/2+z
loop_
_atom_site_type_symbol
_atom_site_label
_atom_site_fract_x
_atom_site_fract_y
_atom_site_fract_z
Si Si1 0.500000 0.500000 0.000000
Si Si2 0.500000 0.000000 0.250000
Si Si3 0.164324 0.234157 0.602107
Si Si4 0.500000 0.500000 0.324260
O O1 0.651600 0.685706 0.959479
O O2 0.513603 0.747755 0.286756
O O3 0.424434 0.276581 0.634243
O O4 0.000000 0.500000 0.603871
O O5 0.000000 0.000000 0.627046
#
# Coordination Sequence:
#
# PCOD9558732 Si02
#       4
#     2   2   8   4
#     4   8  24  46  80 116 152 210 252 312 412 482
#     4  12  32  48  84 112 150 218 264 338 392 452
#     4  10  24  48  77 115 155 202 256 324 391 490
#     4  12  28  55  79 116 158 204 274 328 394 466
#
# _framework density 23.644558
#
# number of rings (size 3 to 8) (size 9 to 14) (size 15 to 20)
#    1.500    0.000    2.500    0.000    3.500   11.000 
#    0.000    0.000    0.000    0.000    0.000    0.000 
#    0.000    0.000    0.000    0.000    0.000    0.000 
#
# Total GULP energy -89308.059328 kJ/mol
# GULP energy per Si atom -5581.753708 kJ/mol
# Density = 2.359074 g / cm^3
# Si number density = 23.644558 Si / 1000 Ang^3
#
#
#
# Elastic Constant Matrix: (Units=GPa)
#
#
# Indices 1 2 3 4 5 6 
#
# 1 172.5042 61.7047 80.9530 0.0000 0.0000 0.0000
# 2 61.7047 172.5042 80.9530 0.0000 0.0000 0.0000
# 3 80.9530 80.9530 210.7745 0.0000 0.0000 0.0000
# 4 0.0000 0.0000 0.0000 -292.7514 0.0000 0.0000
# 5 0.0000 0.0000 0.0000 0.0000 -292.7514 0.0000
# 6 0.0000 0.0000 0.0000 0.0000 0.0000 43.8037
#
#
#
# Elastic Compliance Matrix: (Units=1/GPa)
#
#
# Indices 1 2 3 4 5 6 
#
# 1 0.007419 -0.001606 -0.002233 0.000000 0.000000 0.000000
# 2 -0.001606 0.007419 -0.002233 0.000000 0.000000 0.000000
# 3 -0.002233 -0.002233 0.006459 0.000000 0.000000 0.000000
# 4 0.000000 0.000000 0.000000 -0.003416 0.000000 0.000000
# 5 0.000000 0.000000 0.000000 0.000000 -0.003416 0.000000
# 6 0.000000 0.000000 0.000000 0.000000 0.000000 0.022829
#
#
# Mechanical properties :
#
#
# Convention : Reuss Voigt Hill
#
# Bulk Modulus (GPa) = 109.23012 111.44494 110.33753
# Shear Modulus (GPa) = 95.25664 -86.19501 4.53081
#
# Velocity S-wave (km/s) = 6.35408 -6.04430 1.38578
# Velocity P-wave (km/s) = 10.00647 1.21480 7.02331
#
# Compressibility (1/GPa) = 0.00915498
#
# Stress axis : x y z
#
# Youngs Moduli (GPa) = 134.78521 134.78521 154.81259
#
# Poissons Ratio (x) = 0.21648 0.34564
# Poissons Ratio (y) = 0.21648 0.34564
# Poissons Ratio (z) = 0.30093 0.30093
#
# Static dielectric constant tensor:
#      x y z
#    x 2.150580 0.000000 0.000000 
#    y 0.000000 2.150580 0.000000 
#    z 0.000000 0.000000 1.906840 
# 
# From -- ./inp_files/6276.got.cif
#   From: 2010.05.17/outbox.cif.g08.bks.cpg/sg118_4_cif.got.tgz:6276.got - 2010.05.20 11:17:24.
