data_PCOD9558762
_publ_section_title
;
Structure prediction by ZEFSAII (Michael W. Deem and Ramdas Pophale) SiO2 
 PCOD9558762
Probable space group: P -4 N 2
;
_chemical_formula_sum "Si O2"
_cell_formula_units_Z 32
_cell_length_a 9.114028
_cell_length_b 9.114028
_cell_length_c 17.174148
_cell_angle_alpha 90.000000
_cell_angle_beta 90.000000
_cell_angle_gamma 90.000000
_cell_volume 1426.579300
_symmetry_space_group_name_H-M "P -4 N 2"
_symmetry_group_IT_number 118
_symmetry_cell_setting 'tetragonal'
loop_
_space_group_symop_operation_xyz
x,y,z
y,-x,-z
-x,-y,z
-y,x,-z
1/2+y,1/2+x,1/2-z
1/2-y,1/2-x,1/2-z
1/2-x,1/2+y,1/2+z
1/2+x,1/2-y,1/2+z
loop_
_atom_site_type_symbol
_atom_site_label
_atom_site_fract_x
_atom_site_fract_y
_atom_site_fract_z
Si Si1 0.713083 0.559296 0.961719
Si Si2 0.064691 0.229629 0.022894
Si Si3 0.652114 0.544339 0.314672
Si Si4 0.055652 0.221275 0.722386
O O1 0.591248 0.663701 0.744575
O O2 0.704160 0.538109 0.869247
O O3 0.869423 0.630644 0.979735
O O4 0.588288 0.672766 0.992022
O O5 0.064274 0.262668 0.115751
O O6 0.905375 0.176445 0.995028
O O7 0.500000 0.500000 0.359856
O O8 0.595818 0.681929 0.265758
O O9 0.128587 0.371414 0.750000
#
# Coordination Sequence:
#
# PCOD9558762 Si02
#       4
#     8   8   8   8
#     4  11  23  38  56  84 121 151 180 229 289 338
#     4  11  18  35  59  85 108 145 193 241 272 325
#     4   8  16  28  54  80  99 138 192 220 267 320
#     4   9  16  34  56  77 107 151 181 223 279 333
#
# _framework density 22.431281999999999
#
# number of rings (size 3 to 8) (size 9 to 14) (size 15 to 20)
#    1.500    0.500    2.500    6.000    0.000    1.000 
#    0.000    5.000    0.000    3.000    0.000    0.000 
#    0.000    0.000    0.000    0.000    0.000    0.000 
#
# Total GULP energy -178280.446601 kJ/mol
# GULP energy per Si atom -5571.263956 kJ/mol
# Density = 2.238023 g / cm^3
# Si number density = 22.431282 Si / 1000 Ang^3
#
#
#
# Elastic Constant Matrix: (Units=GPa)
#
#
# Indices 1 2 3 4 5 6 
#
# 1 27.1253 47.6125 3.6606 0.0000 0.0000 0.0000
# 2 47.6125 27.1245 3.6612 0.0000 0.0000 0.0000
# 3 3.6606 3.6612 165.3088 0.0000 0.0000 0.0000
# 4 0.0000 0.0000 0.0000 -13.6958 0.0000 0.0000
# 5 0.0000 0.0000 0.0000 0.0000 -13.6973 0.0000
# 6 0.0000 0.0000 0.0000 0.0000 0.0000 35.5803
#
#
#
# Elastic Compliance Matrix: (Units=1/GPa)
#
#
# Indices 1 2 3 4 5 6 
#
# 1 -0.017700 0.031110 -0.000297 0.000000 0.000000 0.000000
# 2 0.031110 -0.017701 -0.000297 0.000000 0.000000 0.000000
# 3 -0.000297 -0.000297 0.006062 0.000000 0.000000 0.000000
# 4 0.000000 0.000000 0.000000 -0.073015 0.000000 0.000000
# 5 0.000000 0.000000 0.000000 0.000000 -0.073007 0.000000
# 6 0.000000 0.000000 0.000000 0.000000 0.000000 0.028105
#
#
# Mechanical properties :
#
#
# Convention : Reuss Voigt Hill
#
# Bulk Modulus (GPa) = 31.55258 36.60303 34.07780
# Shear Modulus (GPa) = -25.28805 12.61239 -6.33783
#
# Velocity S-wave (km/s) = -3.36126 2.37379 -1.68273
# Velocity P-wave (km/s) = 0.98346 4.88533 3.38373
#
# Compressibility (1/GPa) = 0.03169313
#
# Stress axis : x y z
#
# Youngs Moduli (GPa) = -56.49698 -56.49524 164.95019
#
# Poissons Ratio (x) = 1.75754 0.04900
# Poissons Ratio (y) = 1.75760 0.04897
# Poissons Ratio (z) = -0.01678 -0.01677
#
# Static dielectric constant tensor:
#      x y z
#    x 1.896360 0.000000 0.000000 
#    y 0.000000 1.896370 0.000000 
#    z 0.000000 0.000000 1.793860 
# 
# From -- ./inp_files/2884.got.cif
#   From: 2010.05.17/outbox.cif.g08.bks.cpg/sg118_2_cif.got.tgz:2884.got - 2010.05.20 11:17:24.
