data_PCOD9558707
_publ_section_title
;
Structure prediction by ZEFSAII (Michael W. Deem and Ramdas Pophale) SiO2 
 PCOD9558707
Probable space group: P -4 N 2
;
_chemical_formula_sum "Si O2"
_cell_formula_units_Z 48
_cell_length_a 8.567178
_cell_length_b 8.567178
_cell_length_c 30.762880
_cell_angle_alpha 90.000000
_cell_angle_beta 90.000000
_cell_angle_gamma 90.000000
_cell_volume 2257.888918
_symmetry_space_group_name_H-M "P -4 N 2"
_symmetry_group_IT_number 118
_symmetry_cell_setting 'tetragonal'
loop_
_space_group_symop_operation_xyz
x,y,z
y,-x,-z
-x,-y,z
-y,x,-z
1/2+y,1/2+x,1/2-z
1/2-y,1/2-x,1/2-z
1/2-x,1/2+y,1/2+z
1/2+x,1/2-y,1/2+z
loop_
_atom_site_type_symbol
_atom_site_label
_atom_site_fract_x
_atom_site_fract_y
_atom_site_fract_z
Si Si1 0.500000 0.000000 0.928577
Si Si2 0.846148 0.894971 0.832743
Si Si3 0.193171 0.320308 0.135213
Si Si4 0.341641 0.385068 0.223408
Si Si5 0.175931 0.498263 0.600228
Si Si6 0.745476 0.996353 0.002501
Si Si7 0.188149 0.688149 0.250000
O O1 0.546211 0.147348 0.898764
O O2 0.362358 0.040010 0.961814
O O3 0.801442 0.790743 0.791318
O O4 0.878498 0.786442 0.873966
O O5 0.717468 0.026668 0.841769
O O6 0.000000 0.000000 0.824278
O O7 0.320208 0.349226 0.172519
O O8 0.246284 0.165893 0.109672
O O9 0.500000 0.500000 0.229289
O O10 0.273623 0.226378 0.250000
O O11 0.215221 0.514618 0.234642
O O12 0.170447 0.465448 0.548955
O O13 0.000000 0.500000 0.617636
O O14 0.858534 0.851746 0.010504
#
# Coordination Sequence:
#
# PCOD9558707 Si02
#       7
#     4   8   8   8   8   8   4
#     4  12  22  42  75 104 136 183 248 296 360 438
#     4  10  23  42  69 100 140 187 243 295 355 433
#     4  11  24  44  70 102 137 192 239 296 360 433
#     4  12  28  48  73 106 147 191 245 298 365 440
#     4  11  24  43  65 106 148 181 240 305 362 428
#     4  11  23  42  69 100 136 188 242 297 363 437
#     4  12  23  44  71 102 139 188 233 298 347 430
#
# _framework density 21.258797999999999
#
# number of rings (size 3 to 8) (size 9 to 14) (size 15 to 20)
#    0.000    0.833    4.167    2.750    9.333    0.000 
#    0.000    0.833    0.000    0.000    0.000    0.000 
#    0.000    0.000    0.000    0.000    0.000    0.000 
#
# Total GULP energy -267526.837115 kJ/mol
# GULP energy per Si atom -5573.475773 kJ/mol
# Density = 2.121041 g / cm^3
# Si number density = 21.258798 Si / 1000 Ang^3
#
#
#
# Elastic Constant Matrix: (Units=GPa)
#
#
# Indices 1 2 3 4 5 6 
#
# 1 81.9865 26.8759 32.2551 0.0000 0.0000 0.0000
# 2 26.8759 81.9866 32.2551 0.0000 0.0000 0.0000
# 3 32.2551 32.2551 137.7075 0.0000 0.0000 0.0000
# 4 0.0000 0.0000 0.0000 22.5036 0.0000 0.0000
# 5 0.0000 0.0000 0.0000 0.0000 22.5036 0.0000
# 6 0.0000 0.0000 0.0000 0.0000 0.0000 28.0198
#
#
#
# Elastic Compliance Matrix: (Units=1/GPa)
#
#
# Indices 1 2 3 4 5 6 
#
# 1 0.014406 -0.003739 -0.002498 0.000000 0.000000 0.000000
# 2 -0.003739 0.014406 -0.002498 0.000000 0.000000 0.000000
# 3 -0.002498 -0.002498 0.008432 0.000000 0.000000 0.000000
# 4 0.000000 0.000000 0.000000 0.044437 0.000000 0.000000
# 5 0.000000 0.000000 0.000000 0.000000 0.044437 0.000000
# 6 0.000000 0.000000 0.000000 0.000000 0.000000 0.035689
#
#
# Mechanical properties :
#
#
# Convention : Reuss Voigt Hill
#
# Bulk Modulus (GPa) = 50.57798 53.82807 52.20302
# Shear Modulus (GPa) = 26.90043 28.62501 27.76272
#
# Velocity S-wave (km/s) = 3.56108 3.67345 3.61770
# Velocity P-wave (km/s) = 6.38369 6.58541 6.48534
#
# Compressibility (1/GPa) = 0.01977145
#
# Stress axis : x y z
#
# Youngs Moduli (GPa) = 69.41612 69.41622 118.59358
#
# Poissons Ratio (x) = 0.25958 0.29629
# Poissons Ratio (y) = 0.25958 0.29629
# Poissons Ratio (z) = 0.17343 0.17343
#
# Static dielectric constant tensor:
#      x y z
#    x 1.811560 0.000000 0.000000 
#    y 0.000000 1.811560 0.000000 
#    z 0.000000 0.000000 1.793490 
# 
# From -- ./inp_files/6898.got.cif
#   From: 2010.05.17/outbox.cif.g08.bks.cpg/sg118_4_cif.got.tgz:6898.got - 2010.05.20 11:17:24.
