data_PCOD9558140
_publ_section_title
;
Structure prediction by ZEFSAII (Michael W. Deem and Ramdas Pophale) SiO2 
 PCOD9558140
Probable space group: P -4 B 2
;
_chemical_formula_sum "Si O2"
_cell_formula_units_Z 58
_cell_length_a 17.878855
_cell_length_b 17.878855
_cell_length_c 8.320414
_cell_angle_alpha 90.000000
_cell_angle_beta 90.000000
_cell_angle_gamma 90.000000
_cell_volume 2659.649091
_symmetry_space_group_name_H-M "P -4 B 2"
_symmetry_group_IT_number 117
_symmetry_cell_setting 'tetragonal'
loop_
_space_group_symop_operation_xyz
x,y,z
y,-x,-z
-x,-y,z
-y,x,-z
1/2+y,1/2+x,-z
1/2-y,1/2-x,-z
1/2-x,1/2+y,z
1/2+x,1/2-y,z
loop_
_atom_site_type_symbol
_atom_site_label
_atom_site_fract_x
_atom_site_fract_y
_atom_site_fract_z
Si Si1 0.685507 0.145455 0.188250
Si Si2 0.719625 0.787256 0.186586
Si Si3 0.716413 0.057019 0.645812
Si Si4 0.715723 0.548015 0.005127
Si Si5 0.844471 0.898214 0.139969
Si Si6 0.892812 0.875394 0.479692
Si Si7 0.221095 0.605649 0.581637
Si Si8 0.500000 0.500000 0.500000
O O1 0.737254 0.213984 0.250413
O O2 0.616175 0.151363 0.310051
O O3 0.730119 0.069681 0.154165
O O4 0.662964 0.162964 0.000000
O O5 0.769453 0.860668 0.214250
O O6 0.634321 0.788289 0.237023
O O7 0.721565 0.778436 0.000000
O O8 0.786987 0.088655 0.542011
O O9 0.694273 0.978865 0.565718
O O10 0.747344 0.040619 0.828103
O O11 0.672363 0.474341 0.052873
O O12 0.660301 0.618078 0.981490
O O13 0.897494 0.903627 0.294428
O O14 0.809031 0.888380 0.542800
O O15 0.950024 0.930332 0.571871
O O16 0.169933 0.669933 0.500000
#
# Coordination Sequence:
#
# PCOD9558140 Si02
#       8
#     8   8   8   8   8   8   8   2
#     4   9  16  36  59  85 122 155 204 264 306 369
#     4  11  19  37  62  90 122 156 219 272 310 377
#     4  10  20  38  61  88 127 162 219 266 316 379
#     4  10  21  35  63  92 127 169 203 266 330 382
#     4  11  21  37  58  94 130 161 214 259 318 399
#     4  11  23  40  58  89 132 174 209 258 325 409
#     4  12  23  38  65  93 126 175 219 268 323 383
#     4  12  24  40  56  82 144 180 204 260 338 404
#
# _framework density 21.807386999999999
#
# number of rings (size 3 to 8) (size 9 to 14) (size 15 to 20)
#    0.000    1.379    8.276    0.828    0.000    3.586 
#    0.000    0.000    0.000    0.828    3.586    3.862 
#    0.000    0.000    0.000    0.000    0.000    0.000 
#
# Total GULP energy -323144.844488 kJ/mol
# GULP energy per Si atom -5571.462836 kJ/mol
# Density = 2.175775 g / cm^3
# Si number density = 21.807387 Si / 1000 Ang^3
#
#
#
# Elastic Constant Matrix: (Units=GPa)
#
#
# Indices 1 2 3 4 5 6 
#
# 1 82.2251 32.4827 16.0364 0.0000 0.0000 0.0000
# 2 32.4827 82.2244 16.0367 0.0000 0.0000 0.0000
# 3 16.0364 16.0367 31.0456 0.0000 0.0000 0.0000
# 4 0.0000 0.0000 0.0000 14.2057 0.0000 0.0000
# 5 0.0000 0.0000 0.0000 0.0000 14.2057 0.0000
# 6 0.0000 0.0000 0.0000 0.0000 0.0000 29.1354
#
#
#
# Elastic Compliance Matrix: (Units=1/GPa)
#
#
# Indices 1 2 3 4 5 6 
#
# 1 0.015147 -0.004957 -0.005263 0.000000 0.000000 0.000000
# 2 -0.004957 0.015147 -0.005264 0.000000 0.000000 0.000000
# 3 -0.005263 -0.005264 0.037648 0.000000 0.000000 0.000000
# 4 0.000000 0.000000 0.000000 0.070394 0.000000 0.000000
# 5 0.000000 0.000000 0.000000 0.000000 0.070394 0.000000
# 6 0.000000 0.000000 0.000000 0.000000 0.000000 0.034322
#
#
# Mechanical properties :
#
#
# Convention : Reuss Voigt Hill
#
# Bulk Modulus (GPa) = 27.04618 36.06742 31.55680
# Shear Modulus (GPa) = 17.46146 20.23865 18.85006
#
# Velocity S-wave (km/s) = 2.83276 3.04972 2.94324
# Velocity P-wave (km/s) = 4.80922 5.38294 5.10415
#
# Compressibility (1/GPa) = 0.03697379
#
# Stress axis : x y z
#
# Youngs Moduli (GPa) = 66.02177 66.02083 26.56163
#
# Poissons Ratio (x) = 0.32727 0.13980
# Poissons Ratio (y) = 0.32728 0.13981
# Poissons Ratio (z) = 0.34749 0.34750
#
# Static dielectric constant tensor:
#      x y z
#    x 1.824930 0.000000 0.000000 
#    y 0.000000 1.824930 0.000000 
#    z 0.000000 0.000000 1.920690 
# 
# From -- ./inp_files/2073.got.cif
#   From: 2010.05.17/outbox.cif.g08.bks.cpg/sg117_2_cif.got.tgz:2073.got - 2010.05.20 11:15:09.
