data_PCOD9558268
_publ_section_title
;
Structure prediction by ZEFSAII (Michael W. Deem and Ramdas Pophale) SiO2 
 PCOD9558268
Probable space group: P -4 B 2
;
_chemical_formula_sum "Si O2"
_cell_formula_units_Z 40
_cell_length_a 14.311421
_cell_length_b 14.311421
_cell_length_c 8.858699
_cell_angle_alpha 90.000000
_cell_angle_beta 90.000000
_cell_angle_gamma 90.000000
_cell_volume 1814.410125
_symmetry_space_group_name_H-M "P -4 B 2"
_symmetry_group_IT_number 117
_symmetry_cell_setting 'tetragonal'
loop_
_space_group_symop_operation_xyz
x,y,z
y,-x,-z
-x,-y,z
-y,x,-z
1/2+y,1/2+x,-z
1/2-y,1/2-x,-z
1/2-x,1/2+y,z
1/2+x,1/2-y,z
loop_
_atom_site_type_symbol
_atom_site_label
_atom_site_fract_x
_atom_site_fract_y
_atom_site_fract_z
Si Si1 0.903148 0.837650 0.317003
Si Si2 0.002882 0.792160 0.831677
Si Si3 0.331352 0.626966 0.646875
Si Si4 0.643094 0.863035 0.825831
Si Si5 0.812957 0.562978 0.892314
O O1 0.868496 0.918605 0.204657
O O2 0.848991 0.848372 0.473407
O O3 0.884821 0.736975 0.243351
O O4 0.014449 0.844322 0.342411
O O5 0.052531 0.695477 0.779199
O O6 0.910539 0.821609 0.744401
O O7 0.979598 0.771543 0.005796
O O8 0.230382 0.650818 0.715778
O O9 0.628147 0.974129 0.837476
O O10 0.666743 0.833258 0.000000
O O11 0.871724 0.628277 0.000000
#
# Coordination Sequence:
#
# PCOD9558268 Si02
#       5
#     8   8   8   8   8
#     4  11  24  43  67 103 141 183 235 285 371 433
#     4  11  24  39  70 100 135 185 232 289 355 425
#     4  11  23  45  67 100 148 185 228 301 361 431
#     4   9  23  45  67 104 136 183 244 290 357 425
#     4  10  25  45  70 100 142 183 242 298 353 421
#
# _framework density 22.045732999999998
#
# number of rings (size 3 to 8) (size 9 to 14) (size 15 to 20)
#    0.000    1.600    2.000    0.600   11.200    4.400 
#    0.000    0.000    0.000    0.000   10.400    0.000 
#    0.000    0.000    0.000    0.000    0.000    0.000 
#
# Total GULP energy -223727.955667 kJ/mol
# GULP energy per Si atom -5593.198892 kJ/mol
# Density = 2.199556 g / cm^3
# Si number density = 22.045733 Si / 1000 Ang^3
#
#
#
# Elastic Constant Matrix: (Units=GPa)
#
#
# Indices 1 2 3 4 5 6 
#
# 1 64.0166 37.6813 40.5324 0.0000 0.0000 0.0000
# 2 37.6813 64.0107 40.5317 0.0000 0.0000 0.0000
# 3 40.5324 40.5317 61.1720 0.0000 0.0000 0.0000
# 4 0.0000 0.0000 0.0000 38.7579 0.0000 0.0000
# 5 0.0000 0.0000 0.0000 0.0000 38.7579 0.0000
# 6 0.0000 0.0000 0.0000 0.0000 0.0000 47.3172
#
#
#
# Elastic Compliance Matrix: (Units=1/GPa)
#
#
# Indices 1 2 3 4 5 6 
#
# 1 0.029407 -0.008568 -0.013808 0.000000 0.000000 0.000000
# 2 -0.008568 0.029410 -0.013810 0.000000 0.000000 0.000000
# 3 -0.013808 -0.013810 0.034647 0.000000 0.000000 0.000000
# 4 0.000000 0.000000 0.000000 0.025801 0.000000 0.000000
# 5 0.000000 0.000000 0.000000 0.000000 0.025801 0.000000
# 6 0.000000 0.000000 0.000000 0.000000 0.000000 0.021134
#
#
# Mechanical properties :
#
#
# Convention : Reuss Voigt Hill
#
# Bulk Modulus (GPa) = 47.41003 47.41003 47.41003
# Shear Modulus (GPa) = 20.35812 29.66354 25.01083
#
# Velocity S-wave (km/s) = 3.04213 3.67215 3.37188
# Velocity P-wave (km/s) = 5.82163 6.28741 6.05900
#
# Compressibility (1/GPa) = 0.02109258
#
# Stress axis : x y z
#
# Youngs Moduli (GPa) = 34.00605 34.00154 28.86265
#
# Poissons Ratio (x) = 0.29131 0.39853
# Poissons Ratio (y) = 0.29135 0.39860
# Poissons Ratio (z) = 0.46955 0.46956
#
# Static dielectric constant tensor:
#      x y z
#    x 1.818860 0.000000 0.000000 
#    y 0.000000 1.818860 0.000000 
#    z 0.000000 0.000000 1.813870 
# 
# From -- ./inp_files/1723.got.cif
#   From: 2010.05.17/outbox.cif.g08.bks.cpg/sg117_1_cif.got.tgz:1723.got - 2010.05.20 11:15:09.
