data_PCOD9558277
_publ_section_title
;
Structure prediction by ZEFSAII (Michael W. Deem and Ramdas Pophale) SiO2 
 PCOD9558277
Probable space group: P -4 B 2
;
_chemical_formula_sum "Si O2"
_cell_formula_units_Z 42
_cell_length_a 15.052993
_cell_length_b 15.052993
_cell_length_c 9.211617
_cell_angle_alpha 90.000000
_cell_angle_beta 90.000000
_cell_angle_gamma 90.000000
_cell_volume 2087.284230
_symmetry_space_group_name_H-M "P -4 B 2"
_symmetry_group_IT_number 117
_symmetry_cell_setting 'tetragonal'
loop_
_space_group_symop_operation_xyz
x,y,z
y,-x,-z
-x,-y,z
-y,x,-z
1/2+y,1/2+x,-z
1/2-y,1/2-x,-z
1/2-x,1/2+y,z
1/2+x,1/2-y,z
loop_
_atom_site_type_symbol
_atom_site_label
_atom_site_fract_x
_atom_site_fract_y
_atom_site_fract_z
Si Si1 0.868254 0.848072 0.520965
Si Si2 0.000000 0.000000 0.500000
Si Si3 0.271367 0.108653 0.757163
Si Si4 0.412098 0.245410 0.736584
Si Si5 0.473006 0.353520 0.996555
Si Si6 0.022007 0.331802 0.485418
O O1 0.792304 0.842763 0.640565
O O2 0.822342 0.874990 0.369471
O O3 0.918414 0.756916 0.496459
O O4 0.935657 0.926641 0.572717
O O5 0.336873 0.185609 0.812704
O O6 0.210045 0.060491 0.874738
O O7 0.322708 0.034557 0.661581
O O8 0.459584 0.178786 0.625170
O O9 0.474461 0.292991 0.852792
O O10 0.401329 0.433028 0.975448
O O11 0.082274 0.417727 0.500000
#
# Coordination Sequence:
#
# PCOD9558277 Si02
#       6
#     8   2   8   8   8   8
#     4  11  21  35  62  92 122 159 200 260 316 361
#     4  12  20  32  64  90 132 144 208 262 324 364
#     4  11  23  40  60  88 125 163 202 251 305 364
#     4  11  23  40  60  88 125 163 202 251 305 364
#     4  11  25  40  64  91 121 159 204 251 314 370
#     4  11  22  39  65  93 120 160 211 254 301 363
#
# _framework density 20.121839999999999
#
# number of rings (size 3 to 8) (size 9 to 14) (size 15 to 20)
#    0.000    0.952    3.810    6.286    0.000    1.524 
#    0.000    2.857    0.000    2.286    0.000    0.000 
#    0.000    0.000    0.000    0.000    0.000    0.000 
#
# Total GULP energy -234618.820941 kJ/mol
# GULP energy per Si atom -5586.162403 kJ/mol
# Density = 2.007604 g / cm^3
# Si number density = 20.121840 Si / 1000 Ang^3
#
#
#
# Elastic Constant Matrix: (Units=GPa)
#
#
# Indices 1 2 3 4 5 6 
#
# 1 68.6583 53.0429 12.1060 0.0000 0.0000 0.0000
# 2 53.0429 68.6556 12.1074 0.0000 0.0000 0.0000
# 3 12.1060 12.1074 78.3074 0.0000 0.0000 0.0000
# 4 0.0000 0.0000 0.0000-1401.3286 0.0000 0.0000
# 5 0.0000 0.0000 0.0000 0.0000-1340.2034 0.0000
# 6 0.0000 0.0000 0.0000 0.0000 0.0000 58.0364
#
#
#
# Elastic Compliance Matrix: (Units=1/GPa)
#
#
# Indices 1 2 3 4 5 6 
#
# 1 0.036260 -0.027784 -0.001310 0.000000 0.000000 0.000000
# 2 -0.027784 0.036262 -0.001311 0.000000 0.000000 0.000000
# 3 -0.001310 -0.001311 0.013175 0.000000 0.000000 0.000000
# 4 0.000000 0.000000 0.000000 -0.000714 0.000000 0.000000
# 5 0.000000 0.000000 0.000000 0.000000 -0.000746 0.000000
# 6 0.000000 0.000000 0.000000 0.000000 0.000000 0.017231
#
#
# Mechanical properties :
#
#
# Convention : Reuss Voigt Hill
#
# Bulk Modulus (GPa) = 40.17985 41.12600 40.65293
# Shear Modulus (GPa) = 29.31263 -527.47479 -249.08108
#
# Velocity S-wave (km/s) = 3.82089 -16.20832 -11.13801
# Velocity P-wave (km/s) = 6.28309 18.16030 12.04822
#
# Compressibility (1/GPa) = 0.02488810
#
# Stress axis : x y z
#
# Youngs Moduli (GPa) = 27.57823 27.57696 75.89866
#
# Poissons Ratio (x) = 0.76619 0.09943
# Poissons Ratio (y) = 0.76622 0.09953
# Poissons Ratio (z) = 0.03613 0.03616
#
# Static dielectric constant tensor:
#      x y z
#    x 2.234300 0.000000 0.000000 
#    y 0.000000 2.257550 0.000000 
#    z 0.000000 0.000000 1.709130 
# 
# From -- ./inp_files/1770.got.cif
#   From: 2010.05.17/outbox.cif.g08.bks.cpg/sg117_1_cif.got.tgz:1770.got - 2010.05.20 11:15:09.
