data_PCOD9558126
_publ_section_title
;
Structure prediction by ZEFSAII (Michael W. Deem and Ramdas Pophale) SiO2 
 PCOD9558126
Probable space group: P -4 B 2
;
_chemical_formula_sum "Si O2"
_cell_formula_units_Z 40
_cell_length_a 12.825629
_cell_length_b 12.825629
_cell_length_c 9.959899
_cell_angle_alpha 90.000000
_cell_angle_beta 90.000000
_cell_angle_gamma 90.000000
_cell_volume 1638.371108
_symmetry_space_group_name_H-M "P -4 B 2"
_symmetry_group_IT_number 117
_symmetry_cell_setting 'tetragonal'
loop_
_space_group_symop_operation_xyz
x,y,z
y,-x,-z
-x,-y,z
-y,x,-z
1/2+y,1/2+x,-z
1/2-y,1/2-x,-z
1/2-x,1/2+y,z
1/2+x,1/2-y,z
loop_
_atom_site_type_symbol
_atom_site_label
_atom_site_fract_x
_atom_site_fract_y
_atom_site_fract_z
Si Si1 0.074192 0.142222 0.481804
Si Si2 0.752298 0.857211 0.250908
Si Si3 0.622029 0.182485 0.145856
Si Si4 0.639994 0.027886 0.381121
Si Si5 0.517002 0.668867 0.001497
O O1 0.153063 0.148391 0.358404
O O2 0.066245 0.245614 0.569315
O O3 0.957479 0.114120 0.434716
O O4 0.770958 0.745185 0.182453
O O5 0.657054 0.907370 0.335450
O O6 0.771492 0.936950 0.127574
O O7 0.604464 0.094844 0.254490
O O8 0.524446 0.260146 0.122842
O O9 0.635116 0.135116 0.000000
O O10 0.567436 0.067436 0.500000
O O11 0.603102 0.584505 0.042791
#
# Coordination Sequence:
#
# PCOD9558126 Si02
#       5
#     8   8   8   8   8
#     4   9  19  33  54  86 118 151 184 240 306 362
#     4  10  20  37  56  84 125 152 192 246 295 362
#     4  11  21  37  55  86 121 156 198 238 296 357
#     4  11  21  37  55  86 121 156 198 238 296 357
#     4   9  19  33  54  86 118 151 184 240 306 362
#
# _framework density 24.414493
#
# number of rings (size 3 to 8) (size 9 to 14) (size 15 to 20)
#    0.000    2.000    4.000    0.000    0.000   12.800 
#    0.000    0.000    0.000    0.000    0.000   58.800 
#    0.000    0.000    0.000    0.000    0.000    0.000 
#
# Total GULP energy -223409.689048 kJ/mol
# GULP energy per Si atom -5585.242226 kJ/mol
# Density = 2.435892 g / cm^3
# Si number density = 24.414493 Si / 1000 Ang^3
#
#
#
# Elastic Constant Matrix: (Units=GPa)
#
#
# Indices 1 2 3 4 5 6 
#
# 1 39.8201 8.2435 21.5699 0.0000 0.0000 0.0000
# 2 8.2435 39.8201 21.5699 0.0000 0.0000 0.0000
# 3 21.5699 21.5699 115.5901 0.0000 0.0000 0.0000
# 4 0.0000 0.0000 0.0000 -51.9415 0.0000 0.0000
# 5 0.0000 0.0000 0.0000 0.0000 -51.9415 0.0000
# 6 0.0000 0.0000 0.0000 0.0000 0.0000 24.5601
#
#
#
# Elastic Compliance Matrix: (Units=1/GPa)
#
#
# Indices 1 2 3 4 5 6 
#
# 1 0.028330 -0.003339 -0.004664 0.000000 0.000000 0.000000
# 2 -0.003339 0.028330 -0.004664 0.000000 0.000000 0.000000
# 3 -0.004664 -0.004664 0.010392 0.000000 0.000000 0.000000
# 4 0.000000 0.000000 0.000000 -0.019252 0.000000 0.000000
# 5 0.000000 0.000000 0.000000 0.000000 -0.019252 0.000000
# 6 0.000000 0.000000 0.000000 0.000000 0.000000 0.040717
#
#
# Mechanical properties :
#
#
# Convention : Reuss Voigt Hill
#
# Bulk Modulus (GPa) = 23.96898 33.11078 28.53988
# Shear Modulus (GPa) = 46.08177 -6.27478 19.90349
#
# Velocity S-wave (km/s) = 4.34922 -1.60489 2.85833
# Velocity P-wave (km/s) = 5.92113 3.18703 4.75484
#
# Compressibility (1/GPa) = 0.04172058
#
# Stress axis : x y z
#
# Youngs Moduli (GPa) = 35.29786 35.29786 96.22990
#
# Poissons Ratio (x) = 0.11785 0.44878
# Poissons Ratio (y) = 0.11785 0.44878
# Poissons Ratio (z) = 0.16462 0.16462
#
# Static dielectric constant tensor:
#      x y z
#    x 2.039860 0.000000 0.000000 
#    y 0.000000 2.039860 0.000000 
#    z 0.000000 0.000000 1.898450 
# 
# From -- ./inp_files/1711.got.cif
#   From: 2010.05.17/outbox.cif.g08.bks.cpg/sg117_1_cif.got.tgz:1711.got - 2010.05.20 11:15:09.
