data_PCOD9558489
_publ_section_title
;
Structure prediction by ZEFSAII (Michael W. Deem and Ramdas Pophale) SiO2 
 PCOD9558489
Probable space group: P -4 N 2
;
_chemical_formula_sum "Si O2"
_cell_formula_units_Z 48
_cell_length_a 11.320516
_cell_length_b 11.320516
_cell_length_c 20.276563
_cell_angle_alpha 90.000000
_cell_angle_beta 90.000000
_cell_angle_gamma 90.000000
_cell_volume 2598.524328
_symmetry_space_group_name_H-M "P -4 N 2"
_symmetry_group_IT_number 118
_symmetry_cell_setting 'tetragonal'
loop_
_space_group_symop_operation_xyz
x,y,z
y,-x,-z
-x,-y,z
-y,x,-z
1/2+y,1/2+x,1/2-z
1/2-y,1/2-x,1/2-z
1/2-x,1/2+y,1/2+z
1/2+x,1/2-y,1/2+z
loop_
_atom_site_type_symbol
_atom_site_label
_atom_site_fract_x
_atom_site_fract_y
_atom_site_fract_z
Si Si1 0.633395 0.560819 0.930612
Si Si2 0.427169 0.279251 0.813444
Si Si3 0.695451 0.217667 0.822712
Si Si4 0.765902 0.441954 0.330653
Si Si5 0.324047 0.564976 0.475597
Si Si6 0.261810 0.162981 0.456702
O O1 0.500000 0.500000 0.934769
O O2 0.630933 0.628629 0.861994
O O3 0.740110 0.468563 0.931237
O O4 0.663077 0.654160 0.989232
O O5 0.566143 0.274248 0.826594
O O6 0.411036 0.304261 0.736194
O O7 0.372160 0.151676 0.830685
O O8 0.748227 0.248227 0.750000
O O9 0.754703 0.256934 0.891030
O O10 0.687896 0.075388 0.822675
O O11 0.690807 0.435429 0.397034
O O12 0.434554 0.646305 0.497733
O O13 0.205403 0.621865 0.505539
#
# Coordination Sequence:
#
# PCOD9558489 Si02
#       6
#     8   8   8   8   8   8
#     4  12  21  36  60  91 120 152 192 243 302 356
#     4  10  20  36  61  87 122 154 195 250 301 348
#     4  10  20  35  57  90 120 155 197 245 298 344
#     4  10  20  38  60  87 117 158 202 244 295 353
#     4  11  24  43  61  83 118 158 200 243 292 361
#     4  12  21  38  60  87 121 152 193 247 295 355
#
# _framework density 18.472024000000001
#
# number of rings (size 3 to 8) (size 9 to 14) (size 15 to 20)
#    0.000    1.167    6.667    0.500    0.000    2.000 
#    6.000    0.833    0.000    0.000    0.000    2.333 
#    0.000    0.000    0.000    0.000    0.000    0.000 
#
# Total GULP energy -267360.635980 kJ/mol
# GULP energy per Si atom -5570.013250 kJ/mol
# Density = 1.842998 g / cm^3
# Si number density = 18.472024 Si / 1000 Ang^3
#
#
#
# Elastic Constant Matrix: (Units=GPa)
#
#
# Indices 1 2 3 4 5 6 
#
# 1 27.9569 7.4040 23.2316 0.0000 0.0000 0.0000
# 2 7.4040 27.9569 23.2316 0.0000 0.0000 0.0000
# 3 23.2316 23.2316 147.5985 0.0000 0.0000 0.0000
# 4 0.0000 0.0000 0.0000 25.4633 0.0000 0.0000
# 5 0.0000 0.0000 0.0000 0.0000 25.4633 0.0000
# 6 0.0000 0.0000 0.0000 0.0000 0.0000 29.2905
#
#
#
# Elastic Compliance Matrix: (Units=1/GPa)
#
#
# Indices 1 2 3 4 5 6 
#
# 1 0.042154 -0.006501 -0.005612 0.000000 0.000000 0.000000
# 2 -0.006501 0.042154 -0.005612 0.000000 0.000000 0.000000
# 3 -0.005612 -0.005612 0.008542 0.000000 0.000000 0.000000
# 4 0.000000 0.000000 0.000000 0.039272 0.000000 0.000000
# 5 0.000000 0.000000 0.000000 0.000000 0.039272 0.000000
# 6 0.000000 0.000000 0.000000 0.000000 0.000000 0.034141
#
#
# Mechanical properties :
#
#
# Convention : Reuss Voigt Hill
#
# Bulk Modulus (GPa) = 17.42109 34.58296 26.00203
# Shear Modulus (GPa) = 19.22205 26.01973 22.62089
#
# Velocity S-wave (km/s) = 3.22934 3.75721 3.50323
# Velocity P-wave (km/s) = 4.83284 6.13063 5.52001
#
# Compressibility (1/GPa) = 0.05740170
#
# Stress axis : x y z
#
# Youngs Moduli (GPa) = 23.72240 23.72240 117.07275
#
# Poissons Ratio (x) = 0.15421 0.65699
# Poissons Ratio (y) = 0.15421 0.65699
# Poissons Ratio (z) = 0.13312 0.13312
#
# Static dielectric constant tensor:
#      x y z
#    x 1.640120 0.000000 0.000000 
#    y 0.000000 1.640120 0.000000 
#    z 0.000000 0.000000 1.683050 
# 
# From -- ./inp_files/4911.got.cif
#   From: 2010.05.17/outbox.cif.g08.bks.cpg/sg118_3_cif.got.tgz:4911.got - 2010.05.20 11:17:24.
