data_PCOD9558192
_publ_section_title
;
Structure prediction by ZEFSAII (Michael W. Deem and Ramdas Pophale) SiO2 
 PCOD9558192
Probable space group: P -4 B 2
;
_chemical_formula_sum "Si O2"
_cell_formula_units_Z 40
_cell_length_a 15.423464
_cell_length_b 15.423464
_cell_length_c 8.055859
_cell_angle_alpha 90.000000
_cell_angle_beta 90.000000
_cell_angle_gamma 90.000000
_cell_volume 1916.353854
_symmetry_space_group_name_H-M "P -4 B 2"
_symmetry_group_IT_number 117
_symmetry_cell_setting 'tetragonal'
loop_
_space_group_symop_operation_xyz
x,y,z
y,-x,-z
-x,-y,z
-y,x,-z
1/2+y,1/2+x,-z
1/2-y,1/2-x,-z
1/2-x,1/2+y,z
1/2+x,1/2-y,z
loop_
_atom_site_type_symbol
_atom_site_label
_atom_site_fract_x
_atom_site_fract_y
_atom_site_fract_z
Si Si1 0.734951 0.131327 0.140548
Si Si2 0.583784 0.054572 0.797188
Si Si3 0.310888 0.671928 0.549344
Si Si4 0.017138 0.136688 0.043074
Si Si5 0.766714 0.011992 0.626626
O O1 0.655175 0.096391 0.251543
O O2 0.806207 0.174897 0.256346
O O3 0.696356 0.196356 0.000000
O O4 0.778988 0.050864 0.050535
O O5 0.672072 0.013779 0.718520
O O6 0.500000 0.000000 0.740870
O O7 0.568202 0.068202 0.000000
O O8 0.231772 0.731772 0.500000
O O9 0.397603 0.706747 0.459002
O O10 0.283761 0.572857 0.515659
O O11 0.000189 0.162800 0.229236
O O12 0.934026 0.093279 0.962131
#
# Coordination Sequence:
#
# PCOD9558192 Si02
#       5
#     8   8   8   8   8
#     4  11  21  45  70  95 139 181 228 301 342 415
#     4  10  21  43  72 102 135 176 233 299 352 413
#     4  12  27  47  70 103 144 192 231 290 360 431
#     4  11  23  41  68 100 135 181 236 281 348 425
#     4  12  26  46  68 105 144 185 236 288 364 424
#
# _framework density 20.872972000000001
#
# number of rings (size 3 to 8) (size 9 to 14) (size 15 to 20)
#    0.000    0.800    8.000    0.000    2.800    2.000 
#    7.200    1.000    0.000    0.000    0.000    0.000 
#    0.000    0.000    0.000    0.000    0.000    0.000 
#
# Total GULP energy -222962.860463 kJ/mol
# GULP energy per Si atom -5574.071512 kJ/mol
# Density = 2.082546 g / cm^3
# Si number density = 20.872972 Si / 1000 Ang^3
#
#
#
# Elastic Constant Matrix: (Units=GPa)
#
#
# Indices 1 2 3 4 5 6 
#
# 1 128.4552 73.0714 23.1837 0.0000 0.0000 0.0000
# 2 73.0714 128.4552 23.1837 0.0000 0.0000 0.0000
# 3 23.1837 23.1837 36.9570 0.0000 0.0000 0.0000
# 4 0.0000 0.0000 0.0000 12.2871 0.0000 0.0000
# 5 0.0000 0.0000 0.0000 0.0000 12.2871 0.0000
# 6 0.0000 0.0000 0.0000 0.0000 0.0000 24.3588
#
#
#
# Elastic Compliance Matrix: (Units=1/GPa)
#
#
# Indices 1 2 3 4 5 6 
#
# 1 0.011927 -0.006128 -0.003638 0.000000 0.000000 0.000000
# 2 -0.006128 0.011927 -0.003638 0.000000 0.000000 0.000000
# 3 -0.003638 -0.003638 0.031623 0.000000 0.000000 0.000000
# 4 0.000000 0.000000 0.000000 0.081386 0.000000 0.000000
# 5 0.000000 0.000000 0.000000 0.000000 0.081386 0.000000
# 6 0.000000 0.000000 0.000000 0.000000 0.000000 0.041053
#
#
# Mechanical properties :
#
#
# Convention : Reuss Voigt Hill
#
# Bulk Modulus (GPa) = 34.88041 59.19389 47.03715
# Shear Modulus (GPa) = 16.91091 21.41518 19.16305
#
# Velocity S-wave (km/s) = 2.84946 3.20656 3.03327
# Velocity P-wave (km/s) = 5.25100 6.49077 5.90352
#
# Compressibility (1/GPa) = 0.02866939
#
# Stress axis : x y z
#
# Youngs Moduli (GPa) = 83.84005 83.84005 31.62289
#
# Poissons Ratio (x) = 0.51380 0.11504
# Poissons Ratio (y) = 0.51380 0.11504
# Poissons Ratio (z) = 0.30500 0.30500
#
# Static dielectric constant tensor:
#      x y z
#    x 1.786260 0.000000 0.000000 
#    y 0.000000 1.786260 0.000000 
#    z 0.000000 0.000000 1.938850 
# 
# From -- ./inp_files/1722.got.cif
#   From: 2010.05.17/outbox.cif.g08.bks.cpg/sg117_1_cif.got.tgz:1722.got - 2010.05.20 11:15:09.
