data_PCOD9558443
_publ_section_title
;
Structure prediction by ZEFSAII (Michael W. Deem and Ramdas Pophale) SiO2 
 PCOD9558443
Probable space group: P -4 N 2
;
_chemical_formula_sum "Si O2"
_cell_formula_units_Z 38
_cell_length_a 16.999230
_cell_length_b 16.999230
_cell_length_c 6.961492
_cell_angle_alpha 90.000000
_cell_angle_beta 90.000000
_cell_angle_gamma 90.000000
_cell_volume 2011.688940
_symmetry_space_group_name_H-M "P -4 N 2"
_symmetry_group_IT_number 118
_symmetry_cell_setting 'tetragonal'
loop_
_space_group_symop_operation_xyz
x,y,z
y,-x,-z
-x,-y,z
-y,x,-z
1/2+y,1/2+x,1/2-z
1/2-y,1/2-x,1/2-z
1/2-x,1/2+y,1/2+z
1/2+x,1/2-y,1/2+z
loop_
_atom_site_type_symbol
_atom_site_label
_atom_site_fract_x
_atom_site_fract_y
_atom_site_fract_z
Si Si1 0.347145 0.620326 0.389055
Si Si2 0.012205 0.873353 0.450040
Si Si3 0.500000 0.000000 0.750000
Si Si4 0.818688 0.318688 0.250000
Si Si5 0.992856 0.213053 0.814912
Si Si6 0.557911 0.880067 0.449681
O O1 0.357229 0.541618 0.261645
O O2 0.273380 0.664864 0.290043
O O3 0.326816 0.585706 0.596752
O O4 0.427169 0.669549 0.379780
O O5 0.931943 0.921797 0.462471
O O6 0.008090 0.797673 0.585500
O O7 0.493496 0.072798 0.604442
O O8 0.859522 0.360535 0.435921
O O9 0.986700 0.300797 0.891181
O O10 0.575761 0.924240 0.250000
#
# Coordination Sequence:
#
# PCOD9558443 Si02
#       6
#     8   8   2   4   8   8
#     4  10  19  34  52  79 112 143 182 227 273 332
#     4   9  17  29  49  80 111 143 178 213 258 322
#     4  10  22  40  60  82 104 136 184 248 274 328
#     4   9  20  35  54  76 113 142 181 228 280 328
#     4  10  20  33  57  81 111 148 183 221 281 336
#     4  10  20  38  61  80 105 147 188 228 284 338
#
# _framework density 18.889599
#
# number of rings (size 3 to 8) (size 9 to 14) (size 15 to 20)
#    0.000    2.316    0.000    2.842    0.000    2.105 
#    3.789    0.000    9.263    0.000    0.000    0.000 
#    0.000    0.000    0.000    0.000    0.000    0.000 
#
# Total GULP energy -211718.721464 kJ/mol
# GULP energy per Si atom -5571.545302 kJ/mol
# Density = 1.884661 g / cm^3
# Si number density = 18.889599 Si / 1000 Ang^3
#
#
#
# Elastic Constant Matrix: (Units=GPa)
#
#
# Indices 1 2 3 4 5 6 
#
# 1 71.5671 37.2237 31.0209 0.0000 0.0000 0.0000
# 2 37.2237 71.5665 31.0211 0.0000 0.0000 0.0000
# 3 31.0209 31.0211 93.3123 0.0000 0.0000 0.0000
# 4 0.0000 0.0000 0.0000 20.1763 0.0000 0.0000
# 5 0.0000 0.0000 0.0000 0.0000 20.1766 0.0000
# 6 0.0000 0.0000 0.0000 0.0000 0.0000 20.1115
#
#
#
# Elastic Compliance Matrix: (Units=1/GPa)
#
#
# Indices 1 2 3 4 5 6 
#
# 1 0.020230 -0.008888 -0.003771 0.000000 0.000000 0.000000
# 2 -0.008888 0.020230 -0.003771 0.000000 0.000000 0.000000
# 3 -0.003771 -0.003771 0.013224 0.000000 0.000000 0.000000
# 4 0.000000 0.000000 0.000000 0.049563 0.000000 0.000000
# 5 0.000000 0.000000 0.000000 0.000000 0.049562 0.000000
# 6 0.000000 0.000000 0.000000 0.000000 0.000000 0.049723
#
#
# Mechanical properties :
#
#
# Convention : Reuss Voigt Hill
#
# Bulk Modulus (GPa) = 48.01748 48.33082 48.17415
# Shear Modulus (GPa) = 20.63279 21.23822 20.93550
#
# Velocity S-wave (km/s) = 3.30856 3.35675 3.33274
# Velocity P-wave (km/s) = 6.33014 6.37692 6.35357
#
# Compressibility (1/GPa) = 0.02082575
#
# Stress axis : x y z
#
# Youngs Moduli (GPa) = 49.43141 49.43085 75.62138
#
# Poissons Ratio (x) = 0.43933 0.28514
# Poissons Ratio (y) = 0.43934 0.28515
# Poissons Ratio (z) = 0.18639 0.18639
#
# Static dielectric constant tensor:
#      x y z
#    x 1.649860 0.000000 0.000000 
#    y 0.000000 1.649860 0.000000 
#    z 0.000000 0.000000 1.667440 
# 
# From -- ./inp_files/639.got.cif
#   From: 2010.05.17/outbox.cif.g08.bks.cpg/sg118_1_cif.got.tgz:639.got - 2010.05.20 11:17:24.
