data_PCOD9558379
_publ_section_title
;
Structure prediction by ZEFSAII (Michael W. Deem and Ramdas Pophale) SiO2 
 PCOD9558379
Probable space group: P -4 N 2
;
_chemical_formula_sum "Si O2"
_cell_formula_units_Z 32
_cell_length_a 10.813195
_cell_length_b 10.813195
_cell_length_c 11.999497
_cell_angle_alpha 90.000000
_cell_angle_beta 90.000000
_cell_angle_gamma 90.000000
_cell_volume 1403.043420
_symmetry_space_group_name_H-M "P -4 N 2"
_symmetry_group_IT_number 118
_symmetry_cell_setting 'tetragonal'
loop_
_space_group_symop_operation_xyz
x,y,z
y,-x,-z
-x,-y,z
-y,x,-z
1/2+y,1/2+x,1/2-z
1/2-y,1/2-x,1/2-z
1/2-x,1/2+y,1/2+z
1/2+x,1/2-y,1/2+z
loop_
_atom_site_type_symbol
_atom_site_label
_atom_site_fract_x
_atom_site_fract_y
_atom_site_fract_z
Si Si1 0.935252 0.135882 0.871071
Si Si2 0.570951 0.321458 0.996397
Si Si3 0.807411 0.801752 0.894516
Si Si4 0.024522 0.279591 0.261844
O O1 0.053789 0.221099 0.848317
O O2 0.823737 0.119028 0.786387
O O3 0.000000 0.000000 0.875572
O O4 0.872435 0.175343 0.987175
O O5 0.672259 0.256930 0.074386
O O6 0.445903 0.367484 0.055136
O O7 0.519296 0.242511 0.893648
O O8 0.742683 0.901520 0.812462
O O9 0.090114 0.409887 0.250000
#
# Coordination Sequence:
#
# PCOD9558379 Si02
#       4
#     8   8   8   8
#     4  10  16  33  69 102 125 170 234 290 345 434
#     4  11  27  45  59  96 147 186 229 302 373 439
#     4  11  19  39  71 100 130 181 240 291 357 436
#     4  11  21  41  73  98 134 179 232 301 356 429
#
# _framework density 22.807565
#
# number of rings (size 3 to 8) (size 9 to 14) (size 15 to 20)
#    0.000    1.250    7.500    0.000   10.500    1.000 
#    0.000    6.250    0.000    1.500    0.000    0.000 
#    0.000    0.000    0.000    0.000    0.000    0.000 
#
# Total GULP energy -178550.934895 kJ/mol
# GULP energy per Si atom -5579.716715 kJ/mol
# Density = 2.275565 g / cm^3
# Si number density = 22.807565 Si / 1000 Ang^3
#
#
#
# Elastic Constant Matrix: (Units=GPa)
#
#
# Indices 1 2 3 4 5 6 
#
# 1 71.1355 59.7944 23.1637 0.0000 0.0000 0.0000
# 2 59.7944 71.1351 23.1636 0.0000 0.0000 0.0000
# 3 23.1637 23.1636 94.8365 0.0000 0.0000 0.0000
# 4 0.0000 0.0000 0.0000 39.8193 0.0000 0.0000
# 5 0.0000 0.0000 0.0000 0.0000 39.8183 0.0000
# 6 0.0000 0.0000 0.0000 0.0000 0.0000 39.0347
#
#
#
# Elastic Compliance Matrix: (Units=1/GPa)
#
#
# Indices 1 2 3 4 5 6 
#
# 1 0.048268 -0.039908 -0.002042 0.000000 0.000000 0.000000
# 2 -0.039908 0.048269 -0.002042 0.000000 0.000000 0.000000
# 3 -0.002042 -0.002042 0.011542 0.000000 0.000000 0.000000
# 4 0.000000 0.000000 0.000000 0.025113 0.000000 0.000000
# 5 0.000000 0.000000 0.000000 0.000000 0.025114 0.000000
# 6 0.000000 0.000000 0.000000 0.000000 0.000000 0.025618
#
#
# Mechanical properties :
#
#
# Convention : Reuss Voigt Hill
#
# Bulk Modulus (GPa) = 49.76487 49.92784 49.84635
# Shear Modulus (GPa) = 17.94641 32.46682 25.20661
#
# Velocity S-wave (km/s) = 2.80815 3.77704 3.32804
# Velocity P-wave (km/s) = 5.69044 6.39998 6.05561
#
# Compressibility (1/GPa) = 0.02009450
#
# Stress axis : x y z
#
# Youngs Moduli (GPa) = 20.71750 20.71741 86.64039
#
# Poissons Ratio (x) = 0.82680 0.17692
# Poissons Ratio (y) = 0.82680 0.17692
# Poissons Ratio (z) = 0.04230 0.04230
#
# Static dielectric constant tensor:
#      x y z
#    x 1.906770 0.000000 0.000000 
#    y 0.000000 1.906770 0.000000 
#    z 0.000000 0.000000 1.850300 
# 
# From -- ./inp_files/2872.got.cif
#   From: 2010.05.17/outbox.cif.g08.bks.cpg/sg118_2_cif.got.tgz:2872.got - 2010.05.20 11:17:24.
