data_PCOD9558771
_publ_section_title
;
Structure prediction by ZEFSAII (Michael W. Deem and Ramdas Pophale) SiO2 
 PCOD9558771
Probable space group: P -4 N 2
;
_chemical_formula_sum "Si O2"
_cell_formula_units_Z 42
_cell_length_a 11.398376
_cell_length_b 11.398376
_cell_length_c 16.998647
_cell_angle_alpha 90.000000
_cell_angle_beta 90.000000
_cell_angle_gamma 90.000000
_cell_volume 2208.514797
_symmetry_space_group_name_H-M "P -4 N 2"
_symmetry_group_IT_number 118
_symmetry_cell_setting 'tetragonal'
loop_
_space_group_symop_operation_xyz
x,y,z
y,-x,-z
-x,-y,z
-y,x,-z
1/2+y,1/2+x,1/2-z
1/2-y,1/2-x,1/2-z
1/2-x,1/2+y,1/2+z
1/2+x,1/2-y,1/2+z
loop_
_atom_site_type_symbol
_atom_site_label
_atom_site_fract_x
_atom_site_fract_y
_atom_site_fract_z
Si Si1 0.751550 0.652002 0.947561
Si Si2 0.630825 0.850598 0.845822
Si Si3 0.748065 0.063177 0.939551
Si Si4 0.868632 0.714164 0.330522
Si Si5 0.873644 0.934880 0.407496
Si Si6 0.000000 0.000000 0.000000
O O1 0.705877 0.745911 0.884361
O O2 0.733761 0.524630 0.909850
O O3 0.877662 0.689251 0.982896
O O4 0.656072 0.641609 0.019577
O O5 0.642331 0.857670 0.750000
O O6 0.494211 0.826075 0.864345
O O7 0.673785 0.964805 0.893513
O O8 0.742456 0.173464 0.881189
O O9 0.878202 0.017270 0.953754
O O10 0.851283 0.648718 0.250000
O O11 0.873519 0.853738 0.330452
O O12 0.000000 0.000000 0.411445
#
# Coordination Sequence:
#
# PCOD9558771 Si02
#       6
#     8   8   8   8   8   2
#     4  11  20  39  66  96 122 164 218 270 330 394
#     4  12  23  40  64  95 130 167 221 276 335 397
#     4  11  24  40  64  90 131 174 215 276 330 406
#     4  11  23  40  62  95 133 163 214 278 342 397
#     4  11  19  37  64  95 122 155 213 273 325 386
#     4  12  24  48  60  88 136 172 238 260 336 420
#
# _framework density 19.017306000000001
#
# number of rings (size 3 to 8) (size 9 to 14) (size 15 to 20)
#    0.000    0.762    7.619    1.714    0.000    0.000 
#    5.143    0.000    0.000    0.000    0.000    1.333 
#    0.000    0.000    0.000    0.000    0.000    0.000 
#
# Total GULP energy -233908.906274 kJ/mol
# GULP energy per Si atom -5569.259673 kJ/mol
# Density = 1.897402 g / cm^3
# Si number density = 19.017306 Si / 1000 Ang^3
#
#
#
# Elastic Constant Matrix: (Units=GPa)
#
#
# Indices 1 2 3 4 5 6 
#
# 1 101.1863 55.1372 43.3117 0.0000 0.0000 0.0000
# 2 55.1372 101.1869 43.3122 0.0000 0.0000 0.0000
# 3 43.3117 43.3122 62.0547 0.0000 0.0000 0.0000
# 4 0.0000 0.0000 0.0000 27.9239 0.0000 0.0000
# 5 0.0000 0.0000 0.0000 0.0000 27.9233 0.0000
# 6 0.0000 0.0000 0.0000 0.0000 0.0000 35.3770
#
#
#
# Elastic Compliance Matrix: (Units=1/GPa)
#
#
# Indices 1 2 3 4 5 6 
#
# 1 0.016074 -0.005642 -0.007281 0.000000 0.000000 0.000000
# 2 -0.005642 0.016074 -0.007281 0.000000 0.000000 0.000000
# 3 -0.007281 -0.007281 0.026278 0.000000 0.000000 0.000000
# 4 0.000000 0.000000 0.000000 0.035812 0.000000 0.000000
# 5 0.000000 0.000000 0.000000 0.000000 0.035812 0.000000
# 6 0.000000 0.000000 0.000000 0.000000 0.000000 0.028267
#
#
# Mechanical properties :
#
#
# Convention : Reuss Voigt Hill
#
# Bulk Modulus (GPa) = 55.49986 60.88334 58.19160
# Shear Modulus (GPa) = 24.42240 26.42264 25.42252
#
# Velocity S-wave (km/s) = 3.58749 3.73151 3.66021
# Velocity P-wave (km/s) = 6.81229 7.11686 6.96624
#
# Compressibility (1/GPa) = 0.01801806
#
# Stress axis : x y z
#
# Youngs Moduli (GPa) = 62.21367 62.21362 38.05417
#
# Poissons Ratio (x) = 0.35102 0.27706
# Poissons Ratio (y) = 0.35102 0.27707
# Poissons Ratio (z) = 0.45296 0.45297
#
# Static dielectric constant tensor:
#      x y z
#    x 1.690560 0.000000 0.000000 
#    y 0.000000 1.690560 0.000000 
#    z 0.000000 0.000000 1.761660 
# 
# From -- ./inp_files/4859.got.cif
#   From: 2010.05.17/outbox.cif.g08.bks.cpg/sg118_3_cif.got.tgz:4859.got - 2010.05.20 11:17:24.
