data_PCOD9558790
_publ_section_title
;
Structure prediction by ZEFSAII (Michael W. Deem and Ramdas Pophale) SiO2 
 PCOD9558790
Probable space group: P -4 N 2
;
_chemical_formula_sum "Si O2"
_cell_formula_units_Z 56
_cell_length_a 14.380816
_cell_length_b 14.380816
_cell_length_c 11.354893
_cell_angle_alpha 90.000000
_cell_angle_beta 90.000000
_cell_angle_gamma 90.000000
_cell_volume 2348.281222
_symmetry_space_group_name_H-M "P -4 N 2"
_symmetry_group_IT_number 118
_symmetry_cell_setting 'tetragonal'
loop_
_space_group_symop_operation_xyz
x,y,z
y,-x,-z
-x,-y,z
-y,x,-z
1/2+y,1/2+x,1/2-z
1/2-y,1/2-x,1/2-z
1/2-x,1/2+y,1/2+z
1/2+x,1/2-y,1/2+z
loop_
_atom_site_type_symbol
_atom_site_label
_atom_site_fract_x
_atom_site_fract_y
_atom_site_fract_z
Si Si1 0.813403 0.424181 0.661282
Si Si2 0.189623 0.962136 0.780584
Si Si3 0.359823 0.506817 0.806565
Si Si4 0.755275 0.213035 0.939943
Si Si5 0.804962 0.836711 0.813307
Si Si6 0.549949 0.264106 0.971741
Si Si7 0.578519 0.076745 0.112418
O O1 0.896702 0.396702 0.750000
O O2 0.729653 0.447428 0.746963
O O3 0.787000 0.334310 0.589500
O O4 0.834309 0.512079 0.580142
O O5 0.232993 0.871950 0.846533
O O6 0.238835 0.991539 0.658027
O O7 0.081848 0.937637 0.739463
O O8 0.204966 0.055737 0.855158
O O9 0.350116 0.399172 0.763667
O O10 0.342588 0.496278 0.946521
O O11 0.659564 0.269913 0.940961
O O12 0.775784 0.177585 0.070747
O O13 0.719614 0.780387 0.750000
O O14 0.550340 0.167366 0.042361
O O15 0.598524 0.098524 0.250000
O O16 0.500000 0.000000 0.095209
#
# Coordination Sequence:
#
# PCOD9558790 Si02
#       7
#     8   8   8   8   8   8   8
#     4  11  21  40  69 104 144 185 243 309 375 440
#     4  11  29  48  72 112 153 202 246 319 399 453
#     4  11  24  45  71 104 145 193 247 309 371 463
#     4  11  26  46  75 106 146 197 254 314 382 462
#     4  12  27  49  75 109 145 198 261 309 383 466
#     4  12  24  45  76 105 151 198 249 318 383 467
#     4  11  21  38  67 111 145 188 254 315 376 446
#
# _framework density 23.84723
#
# number of rings (size 3 to 8) (size 9 to 14) (size 15 to 20)
#    0.000    0.714    4.286    3.429    8.000    2.286 
#    0.000    0.000    0.000    0.000    0.000    0.000 
#    0.000    0.000    0.000    0.000    0.000    0.000 
#
# Total GULP energy -312388.631119 kJ/mol
# GULP energy per Si atom -5578.368413 kJ/mol
# Density = 2.379295 g / cm^3
# Si number density = 23.847230 Si / 1000 Ang^3
#
#
#
# Elastic Constant Matrix: (Units=GPa)
#
#
# Indices 1 2 3 4 5 6 
#
# 1 101.7412 43.9997 4.3810 0.0000 0.0000 0.0000
# 2 43.9997 101.7399 4.3794 0.0000 0.0000 0.0000
# 3 4.3810 4.3794 60.7936 0.0000 0.0000 0.0000
# 4 0.0000 0.0000 0.0000 32.4783 0.0000 0.0000
# 5 0.0000 0.0000 0.0000 0.0000 32.4784 0.0000
# 6 0.0000 0.0000 0.0000 0.0000 0.0000 44.7735
#
#
#
# Elastic Compliance Matrix: (Units=1/GPa)
#
#
# Indices 1 2 3 4 5 6 
#
# 1 0.012105 -0.005214 -0.000497 0.000000 0.000000 0.000000
# 2 -0.005214 0.012105 -0.000496 0.000000 0.000000 0.000000
# 3 -0.000497 -0.000496 0.016521 0.000000 0.000000 0.000000
# 4 0.000000 0.000000 0.000000 0.030790 0.000000 0.000000
# 5 0.000000 0.000000 0.000000 0.000000 0.030790 0.000000
# 6 0.000000 0.000000 0.000000 0.000000 0.000000 0.022335
#
#
# Mechanical properties :
#
#
# Convention : Reuss Voigt Hill
#
# Bulk Modulus (GPa) = 35.31411 41.08831 38.20121
# Shear Modulus (GPa) = 34.13028 36.04701 35.08865
#
# Velocity S-wave (km/s) = 3.78723 3.89212 3.84004
# Velocity P-wave (km/s) = 5.82793 6.12090 5.97621
#
# Compressibility (1/GPa) = 0.02831729
#
# Stress axis : x y z
#
# Youngs Moduli (GPa) = 82.61054 82.60969 60.53030
#
# Poissons Ratio (x) = 0.43070 0.03007
# Poissons Ratio (y) = 0.43071 0.03004
# Poissons Ratio (z) = 0.04104 0.04100
#
# Static dielectric constant tensor:
#      x y z
#    x 2.059350 0.000000 0.000000 
#    y 0.000000 2.059350 0.000000 
#    z 0.000000 0.000000 1.964050 
# 
# From -- ./inp_files/3423.got.cif
#   From: 2010.05.17/outbox.cif.g08.bks.cpg/sg118_2_cif.got.tgz:3423.got - 2010.05.20 11:17:24.
