data_PCOD9558330
_publ_section_title
;
Structure prediction by ZEFSAII (Michael W. Deem and Ramdas Pophale) SiO2 
 PCOD9558330
Probable space group: P -4 B 2
;
_chemical_formula_sum "Si O2"
_cell_formula_units_Z 36
_cell_length_a 9.758838
_cell_length_b 9.758838
_cell_length_c 17.524677
_cell_angle_alpha 90.000000
_cell_angle_beta 90.000000
_cell_angle_gamma 90.000000
_cell_volume 1668.961197
_symmetry_space_group_name_H-M "P -4 B 2"
_symmetry_group_IT_number 117
_symmetry_cell_setting 'tetragonal'
loop_
_space_group_symop_operation_xyz
x,y,z
y,-x,-z
-x,-y,z
-y,x,-z
1/2+y,1/2+x,-z
1/2-y,1/2-x,-z
1/2-x,1/2+y,z
1/2+x,1/2-y,z
loop_
_atom_site_type_symbol
_atom_site_label
_atom_site_fract_x
_atom_site_fract_y
_atom_site_fract_z
Si Si1 0.976496 0.667357 0.598814
Si Si2 0.729715 0.798260 0.154132
Si Si3 0.732190 0.767810 0.500000
Si Si4 0.042072 0.159403 0.751539
Si Si5 0.641847 0.028746 0.920132
O O1 0.081629 0.732628 0.537412
O O2 0.989317 0.744037 0.679263
O O3 0.000000 0.500000 0.602059
O O4 0.829406 0.715844 0.567942
O O5 0.775758 0.947166 0.182427
O O6 0.671140 0.700094 0.221142
O O7 0.868584 0.733461 0.124869
O O8 0.620954 0.792641 0.084729
O O9 0.000000 0.000000 0.738733
O O10 0.500000 0.000000 0.876626
O O11 0.596234 0.096234 0.000000
#
# Coordination Sequence:
#
# PCOD9558330 Si02
#       5
#     8   8   4   8   8
#     4  12  28  48  72 107 147 194 245 307 370 442
#     4  12  25  48  72 107 152 186 244 307 362 441
#     4  12  24  50  72 102 150 188 246 304 368 430
#     4  12  28  45  74 111 144 195 248 303 370 439
#     4  11  26  45  74 105 144 193 236 299 372 428
#
# _framework density 21.570305000000001
#
# number of rings (size 3 to 8) (size 9 to 14) (size 15 to 20)
#    0.000    0.222    6.667    1.333    9.333    3.556 
#    0.000    0.000    0.000    0.000    0.000    0.000 
#    0.000    0.000    0.000    0.000    0.000    0.000 
#
# Total GULP energy -200732.389118 kJ/mol
# GULP energy per Si atom -5575.899698 kJ/mol
# Density = 2.152121 g / cm^3
# Si number density = 21.570305 Si / 1000 Ang^3
#
#
#
# Elastic Constant Matrix: (Units=GPa)
#
#
# Indices 1 2 3 4 5 6 
#
# 1 92.9303 28.8198 9.4031 0.0000 0.0000 0.0000
# 2 28.8198 92.9303 9.4031 0.0000 0.0000 0.0000
# 3 9.4031 9.4031 62.1873 0.0000 0.0000 0.0000
# 4 0.0000 0.0000 0.0000 32.4731 0.0000 0.0000
# 5 0.0000 0.0000 0.0000 0.0000 32.4731 0.0000
# 6 0.0000 0.0000 0.0000 0.0000 0.0000 34.2794
#
#
#
# Elastic Compliance Matrix: (Units=1/GPa)
#
#
# Indices 1 2 3 4 5 6 
#
# 1 0.012004 -0.003594 -0.001272 0.000000 0.000000 0.000000
# 2 -0.003594 0.012004 -0.001272 0.000000 0.000000 0.000000
# 3 -0.001272 -0.001272 0.016465 0.000000 0.000000 0.000000
# 4 0.000000 0.000000 0.000000 0.030795 0.000000 0.000000
# 5 0.000000 0.000000 0.000000 0.000000 0.030795 0.000000
# 6 0.000000 0.000000 0.000000 0.000000 0.000000 0.029172
#
#
# Mechanical properties :
#
#
# Convention : Reuss Voigt Hill
#
# Bulk Modulus (GPa) = 35.46298 38.14442 36.80370
# Shear Modulus (GPa) = 32.69927 33.20659 32.95293
#
# Velocity S-wave (km/s) = 3.89773 3.92785 3.91282
# Velocity P-wave (km/s) = 6.06075 6.18812 6.12477
#
# Compressibility (1/GPa) = 0.02819842
#
# Stress axis : x y z
#
# Youngs Moduli (GPa) = 83.30550 83.30550 60.73484
#
# Poissons Ratio (x) = 0.29940 0.07723
# Poissons Ratio (y) = 0.29940 0.07723
# Poissons Ratio (z) = 0.10593 0.10593
#
# Static dielectric constant tensor:
#      x y z
#    x 1.824330 0.000000 0.000000 
#    y 0.000000 1.824330 0.000000 
#    z 0.000000 0.000000 1.814500 
# 
# From -- ./inp_files/3421.got.cif
#   From: 2010.05.17/outbox.cif.g08.bks.cpg/sg117_2_cif.got.tgz:3421.got - 2010.05.20 11:15:09.
