data_PCOD9558627
_publ_section_title
;
Structure prediction by ZEFSAII (Michael W. Deem and Ramdas Pophale) SiO2 
 PCOD9558627
Probable space group: P -4 N 2
;
_chemical_formula_sum "Si O2"
_cell_formula_units_Z 28
_cell_length_a 10.603782
_cell_length_b 10.603782
_cell_length_c 12.220290
_cell_angle_alpha 90.000000
_cell_angle_beta 90.000000
_cell_angle_gamma 90.000000
_cell_volume 1374.051762
_symmetry_space_group_name_H-M "P -4 N 2"
_symmetry_group_IT_number 118
_symmetry_cell_setting 'tetragonal'
loop_
_space_group_symop_operation_xyz
x,y,z
y,-x,-z
-x,-y,z
-y,x,-z
1/2+y,1/2+x,1/2-z
1/2-y,1/2-x,1/2-z
1/2-x,1/2+y,1/2+z
1/2+x,1/2-y,1/2+z
loop_
_atom_site_type_symbol
_atom_site_label
_atom_site_fract_x
_atom_site_fract_y
_atom_site_fract_z
Si Si1 0.141190 0.358811 0.750000
Si Si2 0.797084 0.245814 0.588706
Si Si3 0.853850 0.962723 0.206887
Si Si4 0.029527 0.365455 0.511008
O O1 0.280334 0.404434 0.718620
O O2 0.059268 0.383145 0.640740
O O3 0.874794 0.175582 0.686388
O O4 0.722645 0.374868 0.620034
O O5 0.698427 0.148620 0.542011
O O6 0.905670 0.280409 0.502997
O O7 0.000000 0.000000 0.189677
O O8 0.000000 0.500000 0.461502
#
# Coordination Sequence:
#
# PCOD9558627 Si02
#       4
#     4   8   8   8
#     4  10  21  42  70  85 126 178 209 254 328 389
#     4  10  24  39  65  98 125 164 222 266 322 395
#     4  10  22  44  65  94 128 171 219 266 323 400
#     4  11  22  41  65  95 125 169 213 267 322 391
#
# _framework density 20.377690000000001
#
# number of rings (size 3 to 8) (size 9 to 14) (size 15 to 20)
#    0.000    1.714    2.857    0.429    8.000    2.286 
#    0.000    1.429    0.000    0.000    0.000    0.000 
#    0.000    0.000    0.000    0.000    0.000    0.000 
#
# Total GULP energy -155948.474562 kJ/mol
# GULP energy per Si atom -5569.588377 kJ/mol
# Density = 2.033131 g / cm^3
# Si number density = 20.377690 Si / 1000 Ang^3
#
#
#
# Elastic Constant Matrix: (Units=GPa)
#
#
# Indices 1 2 3 4 5 6 
#
# 1 125.9588 64.4788 9.2782 0.0000 0.0000 0.0000
# 2 64.4788 125.9571 9.2778 0.0000 0.0000 0.0000
# 3 9.2782 9.2778 17.5639 0.0000 0.0000 0.0000
# 4 0.0000 0.0000 0.0000 2.7371 0.0000 0.0000
# 5 0.0000 0.0000 0.0000 0.0000 2.7377 0.0000
# 6 0.0000 0.0000 0.0000 0.0000 0.0000 60.6588
#
#
#
# Elastic Compliance Matrix: (Units=1/GPa)
#
#
# Indices 1 2 3 4 5 6 
#
# 1 0.010901 -0.005365 -0.002925 0.000000 0.000000 0.000000
# 2 -0.005365 0.010901 -0.002924 0.000000 0.000000 0.000000
# 3 -0.002925 -0.002924 0.060024 0.000000 0.000000 0.000000
# 4 0.000000 0.000000 0.000000 0.365349 0.000000 0.000000
# 5 0.000000 0.000000 0.000000 0.000000 0.365275 0.000000
# 6 0.000000 0.000000 0.000000 0.000000 0.000000 0.016486
#
#
# Mechanical properties :
#
#
# Convention : Reuss Voigt Hill
#
# Bulk Modulus (GPa) = 16.83529 48.39437 32.61483
# Shear Modulus (GPa) = 5.73946 25.65639 15.69792
#
# Velocity S-wave (km/s) = 1.68008 3.55215 2.77853
# Velocity P-wave (km/s) = 3.47032 6.37369 5.13162
#
# Compressibility (1/GPa) = 0.05939903
#
# Stress axis : x y z
#
# Youngs Moduli (GPa) = 91.73639 91.73546 16.65988
#
# Poissons Ratio (x) = 0.49214 0.04872
# Poissons Ratio (y) = 0.49215 0.04872
# Poissons Ratio (z) = 0.26829 0.26825
#
# Static dielectric constant tensor:
#      x y z
#    x 1.716600 0.000000 0.000000 
#    y 0.000000 1.716600 0.000000 
#    z 0.000000 0.000000 1.780790 
# 
# From -- ./inp_files/2779.got.cif
#   From: 2010.05.17/outbox.cif.g08.bks.cpg/sg118_2_cif.got.tgz:2779.got - 2010.05.20 11:17:24.
