data_PCOD9558584
_publ_section_title
;
Structure prediction by ZEFSAII (Michael W. Deem and Ramdas Pophale) SiO2 
 PCOD9558584
Probable space group: P -4 N 2
;
_chemical_formula_sum "Si O2"
_cell_formula_units_Z 26
_cell_length_a 11.304911
_cell_length_b 11.304911
_cell_length_c 7.921098
_cell_angle_alpha 90.000000
_cell_angle_beta 90.000000
_cell_angle_gamma 90.000000
_cell_volume 1012.324346
_symmetry_space_group_name_H-M "P -4 N 2"
_symmetry_group_IT_number 118
_symmetry_cell_setting 'tetragonal'
loop_
_space_group_symop_operation_xyz
x,y,z
y,-x,-z
-x,-y,z
-y,x,-z
1/2+y,1/2+x,1/2-z
1/2-y,1/2-x,1/2-z
1/2-x,1/2+y,1/2+z
1/2+x,1/2-y,1/2+z
loop_
_atom_site_type_symbol
_atom_site_label
_atom_site_fract_x
_atom_site_fract_y
_atom_site_fract_z
Si Si1 0.402519 0.721342 0.048537
Si Si2 0.500000 0.500000 0.000000
Si Si3 0.857219 0.379835 0.052663
Si Si4 0.675057 0.502221 0.578158
O O1 0.458322 0.623286 0.921740
O O2 0.263101 0.701006 0.030008
O O3 0.437557 0.680041 0.238285
O O4 0.487384 0.832145 0.013190
O O5 0.883640 0.383640 0.250000
O O6 0.960018 0.306602 0.963295
O O7 0.592877 0.386678 0.551533
#
# Coordination Sequence:
#
# PCOD9558584 Si02
#       4
#     8   2   8   8
#     4  10  21  38  62  95 127 168 214 271 322 384
#     4   8  16  32  62  88 116 156 214 268 308 356
#     4  11  23  41  65  97 132 169 218 268 330 388
#     4  11  22  38  67  97 125 170 222 272 325 391
#
# _framework density 25.683468000000001
#
# number of rings (size 3 to 8) (size 9 to 14) (size 15 to 20)
#    0.000    1.538    3.077    2.769    8.615    0.000 
#    0.000    1.538    0.000    1.846    0.000    0.000 
#    0.000    0.000    0.000    0.000    0.000    0.000 
#
# Total GULP energy -145004.868822 kJ/mol
# GULP energy per Si atom -5577.110339 kJ/mol
# Density = 2.562501 g / cm^3
# Si number density = 25.683468 Si / 1000 Ang^3
#
#
#
# Elastic Constant Matrix: (Units=GPa)
#
#
# Indices 1 2 3 4 5 6 
#
# 1 91.7210 77.4425 32.8767 0.0000 0.0000 0.0000
# 2 77.4425 91.7210 32.8767 0.0000 0.0000 0.0000
# 3 32.8767 32.8767 122.5502 0.0000 0.0000 0.0000
# 4 0.0000 0.0000 0.0000 22.0260 0.0000 0.0000
# 5 0.0000 0.0000 0.0000 0.0000 22.0260 0.0000
# 6 0.0000 0.0000 0.0000 0.0000 0.0000 71.9434
#
#
#
# Elastic Compliance Matrix: (Units=1/GPa)
#
#
# Indices 1 2 3 4 5 6 
#
# 1 0.038317 -0.031718 -0.001770 0.000000 0.000000 0.000000
# 2 -0.031718 0.038317 -0.001770 0.000000 0.000000 0.000000
# 3 -0.001770 -0.001770 0.009110 0.000000 0.000000 0.000000
# 4 0.000000 0.000000 0.000000 0.045401 0.000000 0.000000
# 5 0.000000 0.000000 0.000000 0.000000 0.045401 0.000000
# 6 0.000000 0.000000 0.000000 0.000000 0.000000 0.013900
#
#
# Mechanical properties :
#
#
# Convention : Reuss Voigt Hill
#
# Bulk Modulus (GPa) = 65.67214 65.82043 65.74628
# Shear Modulus (GPa) = 18.79418 34.05216 26.42317
#
# Velocity S-wave (km/s) = 2.70804 3.64516 3.21097
# Velocity P-wave (km/s) = 5.95007 6.58782 6.27705
#
# Compressibility (1/GPa) = 0.01522716
#
# Stress axis : x y z
#
# Youngs Moduli (GPa) = 26.09776 26.09776 109.77118
#
# Poissons Ratio (x) = 0.82776 0.19435
# Poissons Ratio (y) = 0.82776 0.19435
# Poissons Ratio (z) = 0.04621 0.04621
#
# Static dielectric constant tensor:
#      x y z
#    x 2.105290 0.000000 0.000000 
#    y 0.000000 2.105290 0.000000 
#    z 0.000000 0.000000 2.193540 
# 
# From -- ./inp_files/1384.got.cif
#   From: 2010.05.17/outbox.cif.g08.bks.cpg/sg118_1_cif.got.tgz:1384.got - 2010.05.20 11:17:24.
