data_PCOD9558551
_publ_section_title
;
Structure prediction by ZEFSAII (Michael W. Deem and Ramdas Pophale) SiO2 
 PCOD9558551
Probable space group: P -4 N 2
;
_chemical_formula_sum "Si O2"
_cell_formula_units_Z 52
_cell_length_a 17.221394
_cell_length_b 17.221394
_cell_length_c 8.929607
_cell_angle_alpha 90.000000
_cell_angle_beta 90.000000
_cell_angle_gamma 90.000000
_cell_volume 2648.310798
_symmetry_space_group_name_H-M "P -4 N 2"
_symmetry_group_IT_number 118
_symmetry_cell_setting 'tetragonal'
loop_
_space_group_symop_operation_xyz
x,y,z
y,-x,-z
-x,-y,z
-y,x,-z
1/2+y,1/2+x,1/2-z
1/2-y,1/2-x,1/2-z
1/2-x,1/2+y,1/2+z
1/2+x,1/2-y,1/2+z
loop_
_atom_site_type_symbol
_atom_site_label
_atom_site_fract_x
_atom_site_fract_y
_atom_site_fract_z
Si Si1 0.825154 0.285693 0.986890
Si Si2 0.878028 0.150178 0.169062
Si Si3 0.000000 0.500000 0.750000
Si Si4 0.426595 0.398736 0.987377
Si Si5 0.000000 0.500000 0.250000
Si Si6 0.047801 0.207145 0.075201
Si Si7 0.813932 0.839262 0.285553
Si Si8 0.523587 0.873566 0.502788
O O1 0.865914 0.238604 0.851669
O O2 0.740937 0.297571 0.910155
O O3 0.882881 0.357693 0.009415
O O4 0.831013 0.229116 0.129037
O O5 0.878602 0.126485 0.342133
O O6 0.968040 0.167321 0.129329
O O7 0.841740 0.085473 0.060467
O O8 0.924069 0.497012 0.643630
O O9 0.401772 0.482976 0.044613
O O10 0.412886 0.343796 0.126468
O O11 0.925608 0.498778 0.355915
O O12 0.113970 0.206308 0.207466
O O13 0.022612 0.292682 0.020324
#
# Coordination Sequence:
#
# PCOD9558551 Si02
#       8
#     8   8   2   8   2   8   8   8
#     4   9  21  39  67  85 123 165 220 250 322 385
#     4  10  22  38  60  93 118 170 206 263 309 395
#     4  10  20  42  68  90 128 162 216 266 320 378
#     4  11  24  37  57  91 127 157 207 258 317 379
#     4  10  24  42  68  90 132 170 220 278 328 382
#     4  10  22  40  65  90 129 166 220 254 332 385
#     4  10  20  41  62  89 125 168 201 270 315 384
#     4  10  22  42  63  97 122 169 214 269 326 386
#
# _framework density 19.635157
#
# number of rings (size 3 to 8) (size 9 to 14) (size 15 to 20)
#    0.000    2.000    1.538    0.923    6.462    5.846 
#    0.000    6.154    0.000    0.000    0.000    0.000 
#    0.000    0.000    0.000    0.000    0.000    0.000 
#
# Total GULP energy -289745.267718 kJ/mol
# GULP energy per Si atom -5572.024379 kJ/mol
# Density = 1.959047 g / cm^3
# Si number density = 19.635157 Si / 1000 Ang^3
#
#
#
# Elastic Constant Matrix: (Units=GPa)
#
#
# Indices 1 2 3 4 5 6 
#
# 1 86.9805 37.8417 40.6116 0.0000 0.0000 0.0000
# 2 37.8417 86.9805 40.6116 0.0000 0.0000 0.0000
# 3 40.6116 40.6116 90.8626 0.0000 0.0000 0.0000
# 4 0.0000 0.0000 0.0000 29.2905 0.0000 0.0000
# 5 0.0000 0.0000 0.0000 0.0000 29.2905 0.0000
# 6 0.0000 0.0000 0.0000 0.0000 0.0000 22.4959
#
#
#
# Elastic Compliance Matrix: (Units=1/GPa)
#
#
# Indices 1 2 3 4 5 6 
#
# 1 0.015824 -0.004527 -0.005049 0.000000 0.000000 0.000000
# 2 -0.004527 0.015824 -0.005049 0.000000 0.000000 0.000000
# 3 -0.005049 -0.005049 0.015519 0.000000 0.000000 0.000000
# 4 0.000000 0.000000 0.000000 0.034141 0.000000 0.000000
# 5 0.000000 0.000000 0.000000 0.000000 0.034141 0.000000
# 6 0.000000 0.000000 0.000000 0.000000 0.000000 0.044453
#
#
# Mechanical properties :
#
#
# Convention : Reuss Voigt Hill
#
# Bulk Modulus (GPa) = 55.81545 55.88369 55.84957
# Shear Modulus (GPa) = 25.62479 25.93262 25.77871
#
# Velocity S-wave (km/s) = 3.61646 3.63812 3.62731
# Velocity P-wave (km/s) = 6.77690 6.79490 6.78591
#
# Compressibility (1/GPa) = 0.01791618
#
# Stress axis : x y z
#
# Youngs Moduli (GPa) = 63.19608 63.19608 64.43613
#
# Poissons Ratio (x) = 0.28607 0.32536
# Poissons Ratio (y) = 0.28607 0.32536
# Poissons Ratio (z) = 0.31909 0.31909
#
# Static dielectric constant tensor:
#      x y z
#    x 1.704460 0.000000 0.000000 
#    y 0.000000 1.704460 0.000000 
#    z 0.000000 0.000000 1.719470 
# 
# From -- ./inp_files/2199.got.cif
#   From: 2010.05.17/outbox.cif.g08.bks.cpg/sg118_2_cif.got.tgz:2199.got - 2010.05.20 11:17:24.
