data_PCOD9558944
_publ_section_title
;
Structure prediction by ZEFSAII (Michael W. Deem and Ramdas Pophale) SiO2 
 PCOD9558944
Probable space group: I -4 M 2
;
_chemical_formula_sum "Si O2"
_cell_formula_units_Z 72
_cell_length_a 20.593174
_cell_length_b 20.593174
_cell_length_c 9.682597
_cell_angle_alpha 90.000000
_cell_angle_beta 90.000000
_cell_angle_gamma 90.000000
_cell_volume 4106.184266
_symmetry_space_group_name_H-M "I -4 M 2"
_symmetry_group_IT_number 119
_symmetry_cell_setting 'tetragonal'
loop_
_space_group_symop_operation_xyz
x,y,z
y,-x,-z
-x,-y,z
-y,x,-z
y,x,-z
-y,-x,-z
-x,y,z
x,-y,z
1/2+x,1/2+y,1/2+z
1/2+y,1/2-x,1/2-z
1/2-x,1/2-y,1/2+z
1/2-y,1/2+x,1/2-z
1/2+y,1/2+x,1/2-z
1/2-y,1/2-x,1/2-z
1/2-x,1/2+y,1/2+z
1/2+x,1/2-y,1/2+z
loop_
_atom_site_type_symbol
_atom_site_label
_atom_site_fract_x
_atom_site_fract_y
_atom_site_fract_z
Si Si1 0.708503 0.197196 0.917142
Si Si2 0.106677 0.893324 0.500000
Si Si3 0.252443 0.927400 0.556848
Si Si4 0.575102 0.569922 0.695438
Si Si5 0.212295 0.925809 0.878919
O O1 0.710268 0.210268 0.750000
O O2 0.633147 0.199756 0.961964
O O3 0.742994 0.128561 0.947367
O O4 0.747604 0.252397 0.000000
O O5 0.183134 0.908440 0.491050
O O6 0.078943 0.923354 0.639566
O O7 0.237014 0.929953 0.720448
O O8 0.272340 0.000000 0.512948
O O9 0.500000 0.567345 0.652963
O O10 0.605592 0.500000 0.661519
O O11 0.599161 0.637968 0.634712
O O12 0.214960 0.000000 0.932851
#
# Coordination Sequence:
#
# PCOD9558944 Si02
#       5
#    16   8  16  16  16
#     4  10  19  33  51  71  95 126 162 201 243 290
#     4  10  14  21  34  62  94 124 156 189 238 292
#     4   9  16  26  43  66  92 122 157 194 239 290
#     4   9  15  22  35  59  93 129 161 193 231 279
#     4   8  16  29  44  62  88 126 164 194 232 286
#
# _framework density 17.534528000000002
#
# number of rings (size 3 to 8) (size 9 to 14) (size 15 to 20)
#    0.000    2.889    1.111    3.333    0.000    0.889 
#    0.000    1.111    0.000    2.000    0.000    4.667 
#    0.000    0.000    0.000    2.000    0.000    2.222 
#
# Total GULP energy -200493.997631 kJ/mol
# GULP energy per Si atom -5569.277712 kJ/mol
# Density = 1.749462 g / cm^3
# Si number density = 17.534528 Si / 1000 Ang^3
#
#
#
# Elastic Constant Matrix: (Units=GPa)
#
#
# Indices 1 2 3 4 5 6 
#
# 1 119.4648 82.9094 16.2150 0.0000 0.0000 0.0000
# 2 82.9094 119.4634 16.2139 0.0000 0.0000 0.0000
# 3 16.2150 16.2139 46.6435 0.0000 0.0000 0.0000
# 4 0.0000 0.0000 0.0000 9.0060 0.0000 0.0000
# 5 0.0000 0.0000 0.0000 0.0000 9.0070 0.0000
# 6 0.0000 0.0000 0.0000 0.0000 0.0000 25.9952
#
#
#
# Elastic Compliance Matrix: (Units=1/GPa)
#
#
# Indices 1 2 3 4 5 6 
#
# 1 0.016295 -0.011062 -0.001819 0.000000 0.000000 0.000000
# 2 -0.011062 0.016295 -0.001819 0.000000 0.000000 0.000000
# 3 -0.001819 -0.001819 0.022704 0.000000 0.000000 0.000000
# 4 0.000000 0.000000 0.000000 0.111037 0.000000 0.000000
# 5 0.000000 0.000000 0.000000 0.000000 0.111024 0.000000
# 6 0.000000 0.000000 0.000000 0.000000 0.000000 0.038469
#
#
# Mechanical properties :
#
#
# Convention : Reuss Voigt Hill
#
# Bulk Modulus (GPa) = 38.61996 57.36093 47.99044
# Shear Modulus (GPa) = 14.13011 20.15053 17.14032
#
# Velocity S-wave (km/s) = 2.84182 3.39365 3.12992
# Velocity P-wave (km/s) = 5.73069 6.93830 6.36321
#
# Compressibility (1/GPa) = 0.02589335
#
# Stress axis : x y z
#
# Youngs Moduli (GPa) = 61.37030 61.36993 44.04523
#
# Poissons Ratio (x) = 0.67886 0.08013
# Poissons Ratio (y) = 0.67886 0.08011
# Poissons Ratio (z) = 0.11166 0.11162
#
# Static dielectric constant tensor:
#      x y z
#    x 1.629130 0.000000 0.000000 
#    y 0.000000 1.629140 0.000000 
#    z 0.000000 0.000000 1.619210 
# 
# From -- ./inp_files/2387.got.cif
#   From: 2010.05.17/outbox.cif.g08.bks.cpg/sg119_2_cif.got.tgz:2387.got - 2010.05.20 11:21:29.
