data_PCOD9558147
_publ_section_title
;
Structure prediction by ZEFSAII (Michael W. Deem and Ramdas Pophale) SiO2 
 PCOD9558147
Probable space group: P -4 B 2
;
_chemical_formula_sum "Si O2"
_cell_formula_units_Z 48
_cell_length_a 14.072551
_cell_length_b 14.072551
_cell_length_c 11.456985
_cell_angle_alpha 90.000000
_cell_angle_beta 90.000000
_cell_angle_gamma 90.000000
_cell_volume 2268.903406
_symmetry_space_group_name_H-M "P -4 B 2"
_symmetry_group_IT_number 117
_symmetry_cell_setting 'tetragonal'
loop_
_space_group_symop_operation_xyz
x,y,z
y,-x,-z
-x,-y,z
-y,x,-z
1/2+y,1/2+x,-z
1/2-y,1/2-x,-z
1/2-x,1/2+y,z
1/2+x,1/2-y,z
loop_
_atom_site_type_symbol
_atom_site_label
_atom_site_fract_x
_atom_site_fract_y
_atom_site_fract_z
Si Si1 0.153316 0.768843 0.266888
Si Si2 0.095767 0.881578 0.497029
Si Si3 0.277022 0.847931 0.624818
Si Si4 0.218015 0.121569 0.997610
Si Si5 0.727779 0.075721 0.957322
Si Si6 0.886386 0.487861 0.741041
O O1 0.109603 0.817057 0.382651
O O2 0.265663 0.787053 0.279160
O O3 0.119727 0.808446 0.141450
O O4 0.117272 0.658860 0.273943
O O5 0.165742 0.862273 0.604230
O O6 0.988510 0.878757 0.539475
O O7 0.308738 0.808738 0.500000
O O8 0.339077 0.940817 0.647818
O O9 0.243774 0.015147 0.036047
O O10 0.311206 0.188795 0.000000
O O11 0.133432 0.174721 0.065659
O O12 0.665700 0.026767 0.856549
O O13 0.657314 0.157314 0.000000
O O14 0.000000 0.500000 0.744118
#
# Coordination Sequence:
#
# PCOD9558147 Si02
#       6
#     8   8   8   8   8   8
#     4  10  22  41  62  93 128 170 218 270 336 397
#     4  10  20  39  63  90 125 167 216 270 333 398
#     4  10  21  39  62  89 129 166 213 272 329 396
#     4  10  22  42  62  92 134 166 223 279 331 406
#     4  10  23  41  65  94 129 171 218 271 338 399
#     4  11  24  42  64  96 130 172 225 273 331 413
#
# _framework density 21.155595000000002
#
# number of rings (size 3 to 8) (size 9 to 14) (size 15 to 20)
#    0.000    1.833    1.667    2.000    4.667    3.333 
#    9.000    0.000    0.000    0.000    0.000    0.000 
#    0.000    0.000    0.000    0.000    0.000    0.000 
#
# Total GULP energy -267399.921009 kJ/mol
# GULP energy per Si atom -5570.831688 kJ/mol
# Density = 2.110744 g / cm^3
# Si number density = 21.155595 Si / 1000 Ang^3
#
#
#
# Elastic Constant Matrix: (Units=GPa)
#
#
# Indices 1 2 3 4 5 6 
#
# 1 53.5421 74.8686 10.9929 0.0000 0.0000 0.0000
# 2 74.8686 53.5415 10.9922 0.0000 0.0000 0.0000
# 3 10.9929 10.9922 45.8877 0.0000 0.0000 0.0000
# 4 0.0000 0.0000 0.0000 19.9126 0.0000 0.0000
# 5 0.0000 0.0000 0.0000 0.0000 19.9125 0.0000
# 6 0.0000 0.0000 0.0000 0.0000 0.0000 24.2221
#
#
#
# Elastic Compliance Matrix: (Units=1/GPa)
#
#
# Indices 1 2 3 4 5 6 
#
# 1 -0.019384 0.027505 -0.001945 0.000000 0.000000 0.000000
# 2 0.027505 -0.019384 -0.001946 0.000000 0.000000 0.000000
# 3 -0.001945 -0.001946 0.022724 0.000000 0.000000 0.000000
# 4 0.000000 0.000000 0.000000 0.050219 0.000000 0.000000
# 5 0.000000 0.000000 0.000000 0.000000 0.050220 0.000000
# 6 0.000000 0.000000 0.000000 0.000000 0.000000 0.041285
#
#
# Mechanical properties :
#
#
# Convention : Reuss Voigt Hill
#
# Bulk Modulus (GPa) = 32.06748 38.51987 35.29368
# Shear Modulus (GPa) = 56.27737 16.55061 36.41399
#
# Velocity S-wave (km/s) = 5.16327 2.80005 4.15329
# Velocity P-wave (km/s) = 7.12297 5.35734 6.30229
#
# Compressibility (1/GPa) = 0.03118424
#
# Stress axis : x y z
#
# Youngs Moduli (GPa) = -51.58822 -51.58790 44.00570
#
# Poissons Ratio (x) = 1.41892 0.08559
# Poissons Ratio (y) = 1.41893 0.08562
# Poissons Ratio (z) = -0.10034 -0.10037
#
# Static dielectric constant tensor:
#      x y z
#    x 1.808230 0.000000 0.000000 
#    y 0.000000 1.808230 0.000000 
#    z 0.000000 0.000000 1.878490 
# 
# From -- ./inp_files/2777.got.cif
#   From: 2010.05.17/outbox.cif.g08.bks.cpg/sg117_2_cif.got.tgz:2777.got - 2010.05.20 11:15:09.
