data_PCOD9558259
_publ_section_title
;
Structure prediction by ZEFSAII (Michael W. Deem and Ramdas Pophale) SiO2 
 PCOD9558259
Probable space group: P -4 B 2
;
_chemical_formula_sum "Si O2"
_cell_formula_units_Z 40
_cell_length_a 16.090938
_cell_length_b 16.090938
_cell_length_c 7.341603
_cell_angle_alpha 90.000000
_cell_angle_beta 90.000000
_cell_angle_gamma 90.000000
_cell_volume 1900.875263
_symmetry_space_group_name_H-M "P -4 B 2"
_symmetry_group_IT_number 117
_symmetry_cell_setting 'tetragonal'
loop_
_space_group_symop_operation_xyz
x,y,z
y,-x,-z
-x,-y,z
-y,x,-z
1/2+y,1/2+x,-z
1/2-y,1/2-x,-z
1/2-x,1/2+y,z
1/2+x,1/2-y,z
loop_
_atom_site_type_symbol
_atom_site_label
_atom_site_fract_x
_atom_site_fract_y
_atom_site_fract_z
Si Si1 0.839553 0.785075 0.597076
Si Si2 0.500000 0.000000 0.737778
Si Si3 0.825958 0.091698 0.769849
Si Si4 0.199804 0.089723 0.920489
Si Si5 0.893945 0.393945 0.000000
Si Si6 0.628951 0.121061 0.785430
O O1 0.760284 0.739717 0.500000
O O2 0.889952 0.837062 0.445084
O O3 0.812661 0.842746 0.762262
O O4 0.890356 0.708983 0.690277
O O5 0.582996 0.047914 0.676674
O O6 0.454113 0.076034 0.839036
O O7 0.728284 0.113892 0.785986
O O8 0.832668 0.998111 0.843763
O O9 0.880250 0.150865 0.899553
O O10 0.297974 0.088403 0.961052
O O11 0.610155 0.110155 0.000000
#
# Coordination Sequence:
#
# PCOD9558259 Si02
#       6
#     8   4   8   8   4   8
#     4  10  24  42  67  98 138 182 224 278 348 422
#     4  11  20  34  69 112 135 169 220 281 347 428
#     4  11  25  44  68  97 131 183 231 283 341 395
#     4  12  24  45  70  98 134 183 234 284 342 410
#     4  11  20  36  68 104 132 171 222 270 348 421
#     4  11  17  40  65  98 141 176 208 269 355 417
#
# _framework density 21.042939000000001
#
# number of rings (size 3 to 8) (size 9 to 14) (size 15 to 20)
#    0.000    1.000    6.000    2.400    0.000    2.000 
#    3.600    4.500    0.000    0.000    0.000    0.000 
#    0.000    0.000    0.000    0.000    0.000    0.000 
#
# Total GULP energy -222919.339720 kJ/mol
# GULP energy per Si atom -5572.983493 kJ/mol
# Density = 2.099504 g / cm^3
# Si number density = 21.042939 Si / 1000 Ang^3
#
#
#
# Elastic Constant Matrix: (Units=GPa)
#
#
# Indices 1 2 3 4 5 6 
#
# 1 93.3243 33.5170 34.6014 0.0000 0.0000 0.0000
# 2 33.5170 93.3229 34.6008 0.0000 0.0000 0.0000
# 3 34.6014 34.6008 128.1545 0.0000 0.0000 0.0000
# 4 0.0000 0.0000 0.0000 80.3785 0.0000 0.0000
# 5 0.0000 0.0000 0.0000 0.0000 80.3755 0.0000
# 6 0.0000 0.0000 0.0000 0.0000 0.0000 40.6840
#
#
#
# Elastic Compliance Matrix: (Units=1/GPa)
#
#
# Indices 1 2 3 4 5 6 
#
# 1 0.012983 -0.003737 -0.002496 0.000000 0.000000 0.000000
# 2 -0.003737 0.012983 -0.002496 0.000000 0.000000 0.000000
# 3 -0.002496 -0.002496 0.009151 0.000000 0.000000 0.000000
# 4 0.000000 0.000000 0.000000 0.012441 0.000000 0.000000
# 5 0.000000 0.000000 0.000000 0.000000 0.012442 0.000000
# 6 0.000000 0.000000 0.000000 0.000000 0.000000 0.024580
#
#
# Mechanical properties :
#
#
# Convention : Reuss Voigt Hill
#
# Bulk Modulus (GPa) = 56.63328 57.80446 57.21887
# Shear Modulus (GPa) = 46.32814 54.42645 50.37729
#
# Velocity S-wave (km/s) = 4.69721 5.09123 4.89818
# Velocity P-wave (km/s) = 7.50933 7.87974 7.69676
#
# Compressibility (1/GPa) = 0.01765746
#
# Stress axis : x y z
#
# Youngs Moduli (GPa) = 77.02305 77.02205 109.27668
#
# Poissons Ratio (x) = 0.28786 0.27279
# Poissons Ratio (y) = 0.28786 0.27279
# Poissons Ratio (z) = 0.19228 0.19227
#
# Static dielectric constant tensor:
#      x y z
#    x 1.767980 0.000000 0.000000 
#    y 0.000000 1.767980 0.000000 
#    z 0.000000 0.000000 2.159410 
# 
# From -- ./inp_files/1766.got.cif
#   From: 2010.05.17/outbox.cif.g08.bks.cpg/sg117_1_cif.got.tgz:1766.got - 2010.05.20 11:15:09.
