data_PCOD9558112
_publ_section_title
;
Structure prediction by ZEFSAII (Michael W. Deem and Ramdas Pophale) SiO2 
 PCOD9558112
Probable space group: P -4 B 2
;
_chemical_formula_sum "Si O2"
_cell_formula_units_Z 40
_cell_length_a 10.110456
_cell_length_b 10.110456
_cell_length_c 15.458589
_cell_angle_alpha 90.000000
_cell_angle_beta 90.000000
_cell_angle_gamma 90.000000
_cell_volume 1580.197381
_symmetry_space_group_name_H-M "P -4 B 2"
_symmetry_group_IT_number 117
_symmetry_cell_setting 'tetragonal'
loop_
_space_group_symop_operation_xyz
x,y,z
y,-x,-z
-x,-y,z
-y,x,-z
1/2+y,1/2+x,-z
1/2-y,1/2-x,-z
1/2-x,1/2+y,z
1/2+x,1/2-y,z
loop_
_atom_site_type_symbol
_atom_site_label
_atom_site_fract_x
_atom_site_fract_y
_atom_site_fract_z
Si Si1 0.010067 0.217413 0.512045
Si Si2 0.557769 0.230516 0.325779
Si Si3 0.389580 0.317320 0.032224
Si Si4 0.091594 0.109575 0.787642
Si Si5 0.596720 0.802521 0.697872
O O1 0.051697 0.299130 0.427763
O O2 0.963015 0.281870 0.601084
O O3 0.130609 0.115044 0.521092
O O4 0.473913 0.359663 0.295711
O O5 0.707014 0.272033 0.301261
O O6 0.454811 0.127703 0.285686
O O7 0.368097 0.306633 0.136116
O O8 0.324435 0.456313 0.997772
O O9 0.308883 0.191118 0.000000
O O10 0.006687 0.235765 0.761836
O O11 0.000000 0.000000 0.833725
#
# Coordination Sequence:
#
# PCOD9558112 Si02
#       5
#     8   8   8   8   8
#     4   9  15  30  52  81 111 157 212 256 300 371
#     4  10  20  32  57  86 117 159 210 262 309 375
#     4  11  25  46  74 101 136 174 219 279 347 411
#     4  10  20  39  63  88 122 167 215 260 323 395
#     4  10  20  34  57  85 121 161 211 261 317 378
#
# _framework density 25.313295
#
# number of rings (size 3 to 8) (size 9 to 14) (size 15 to 20)
#    0.000    2.000    4.000    0.600    2.800    0.400 
#    0.000    1.000    4.400    0.000    0.000    0.000 
#    0.000    0.000    0.000    0.000    0.000    0.000 
#
# Total GULP energy -223314.759215 kJ/mol
# GULP energy per Si atom -5582.868980 kJ/mol
# Density = 2.525568 g / cm^3
# Si number density = 25.313295 Si / 1000 Ang^3
#
#
#
# Elastic Constant Matrix: (Units=GPa)
#
#
# Indices 1 2 3 4 5 6 
#
# 1 69.8290 54.9879 -1.3030 0.0000 0.0000 0.0000
# 2 54.9879 69.8328 -1.3020 0.0000 0.0000 0.0000
# 3 -1.3030 -1.3020 124.2964 0.0000 0.0000 0.0000
# 4 0.0000 0.0000 0.0000 11.2040 0.0000 0.0000
# 5 0.0000 0.0000 0.0000 0.0000 11.2047 0.0000
# 6 0.0000 0.0000 0.0000 0.0000 0.0000 48.4373
#
#
#
# Elastic Compliance Matrix: (Units=1/GPa)
#
#
# Indices 1 2 3 4 5 6 
#
# 1 0.037694 -0.029679 0.000084 0.000000 0.000000 0.000000
# 2 -0.029679 0.037691 0.000084 0.000000 0.000000 0.000000
# 3 0.000084 0.000084 0.008047 0.000000 0.000000 0.000000
# 4 0.000000 0.000000 0.000000 0.089254 0.000000 0.000000
# 5 0.000000 0.000000 0.000000 0.000000 0.089248 0.000000
# 6 0.000000 0.000000 0.000000 0.000000 0.000000 0.020645
#
#
# Mechanical properties :
#
#
# Convention : Reuss Voigt Hill
#
# Bulk Modulus (GPa) = 40.96739 40.96934 40.96836
# Shear Modulus (GPa) = 14.29641 28.27423 21.28532
#
# Velocity S-wave (km/s) = 2.37909 3.34574 2.90293
# Velocity P-wave (km/s) = 4.87504 5.58080 5.23982
#
# Compressibility (1/GPa) = 0.02440966
#
# Stress axis : x y z
#
# Youngs Moduli (GPa) = 26.52976 26.53123 124.26924
#
# Poissons Ratio (x) = 0.78742 -0.01047
# Poissons Ratio (y) = 0.78738 -0.01040
# Poissons Ratio (z) = -0.00223 -0.00222
#
# Static dielectric constant tensor:
#      x y z
#    x 2.125390 0.000000 0.000000 
#    y 0.000000 2.125390 0.000000 
#    z 0.000000 0.000000 1.991950 
# 
# From -- ./inp_files/3110.got.cif
#   From: 2010.05.17/outbox.cif.g08.bks.cpg/sg117_2_cif.got.tgz:3110.got - 2010.05.20 11:15:09.
