data_PCOD9558513
_publ_section_title
;
Structure prediction by ZEFSAII (Michael W. Deem and Ramdas Pophale) SiO2 
 PCOD9558513
Probable space group: P -4 N 2
;
_chemical_formula_sum "Si O2"
_cell_formula_units_Z 36
_cell_length_a 15.506474
_cell_length_b 15.506474
_cell_length_c 7.772907
_cell_angle_alpha 90.000000
_cell_angle_beta 90.000000
_cell_angle_gamma 90.000000
_cell_volume 1869.001208
_symmetry_space_group_name_H-M "P -4 N 2"
_symmetry_group_IT_number 118
_symmetry_cell_setting 'tetragonal'
loop_
_space_group_symop_operation_xyz
x,y,z
y,-x,-z
-x,-y,z
-y,x,-z
1/2+y,1/2+x,1/2-z
1/2-y,1/2-x,1/2-z
1/2-x,1/2+y,1/2+z
1/2+x,1/2-y,1/2+z
loop_
_atom_site_type_symbol
_atom_site_label
_atom_site_fract_x
_atom_site_fract_y
_atom_site_fract_z
Si Si1 0.000000 0.000000 0.500000
Si Si2 0.533850 0.822851 0.063264
Si Si3 0.978108 0.837621 0.749366
Si Si4 0.215391 0.715391 0.750000
Si Si5 0.140533 0.640533 0.250000
Si Si6 0.000000 0.500000 0.750000
Si Si7 0.634383 0.687947 0.518340
O O1 0.917462 0.998472 0.374072
O O2 0.472646 0.745387 0.123695
O O3 0.625773 0.790128 0.143034
O O4 0.502843 0.911445 0.145689
O O5 0.556747 0.847334 0.868810
O O6 0.890006 0.854204 0.851248
O O7 0.049235 0.824006 0.900510
O O8 0.295799 0.709853 0.622209
O O9 0.224450 0.635243 0.371424
#
# Coordination Sequence:
#
# PCOD9558513 Si02
#       7
#     2   8   8   4   4   2   8
#     4  12  24  38  60  88 124 166 204 244 296 354
#     4   9  19  35  58  83 113 150 193 240 294 349
#     4  11  22  38  59  89 121 156 198 246 296 357
#     4   7  16  35  56  76 108 151 186 227 288 348
#     4  10  20  40  62  82 114 160 196 238 300 358
#     4  10  20  40  60  84 116 152 196 254 304 354
#     4  10  20  37  60  86 117 153 194 243 298 356
#
# _framework density 19.261624000000001
#
# number of rings (size 3 to 8) (size 9 to 14) (size 15 to 20)
#    0.000    2.222    0.000    4.000    0.000    1.333 
#    0.000    2.222    0.000    2.667    0.000    0.000 
#    0.000    0.000    0.000    0.000    0.000    0.000 
#
# Total GULP energy -200473.068889 kJ/mol
# GULP energy per Si atom -5568.696358 kJ/mol
# Density = 1.921778 g / cm^3
# Si number density = 19.261624 Si / 1000 Ang^3
#
#
#
# Elastic Constant Matrix: (Units=GPa)
#
#
# Indices 1 2 3 4 5 6 
#
# 1 110.3139 12.9162 54.2667 0.0000 0.0000 0.0000
# 2 12.9162 110.3139 54.2667 0.0000 0.0000 0.0000
# 3 54.2667 54.2667 128.3329 0.0000 0.0000 0.0000
# 4 0.0000 0.0000 0.0000 72.0084 0.0000 0.0000
# 5 0.0000 0.0000 0.0000 0.0000 72.0084 0.0000
# 6 0.0000 0.0000 0.0000 0.0000 0.0000 18.7411
#
#
#
# Elastic Compliance Matrix: (Units=1/GPa)
#
#
# Indices 1 2 3 4 5 6 
#
# 1 0.011599 0.001332 -0.005468 0.000000 0.000000 0.000000
# 2 0.001332 0.011599 -0.005468 0.000000 0.000000 0.000000
# 3 -0.005468 -0.005468 0.012416 0.000000 0.000000 0.000000
# 4 0.000000 0.000000 0.000000 0.013887 0.000000 0.000000
# 5 0.000000 0.000000 0.000000 0.000000 0.013887 0.000000
# 6 0.000000 0.000000 0.000000 0.000000 0.000000 0.053359
#
#
# Mechanical properties :
#
#
# Convention : Reuss Voigt Hill
#
# Bulk Modulus (GPa) = 60.95177 65.76218 63.35698
# Shear Modulus (GPa) = 35.35463 47.71897 41.53680
#
# Velocity S-wave (km/s) = 4.28892 4.98276 4.64880
# Velocity P-wave (km/s) = 7.49928 8.20485 7.85999
#
# Compressibility (1/GPa) = 0.01640642
#
# Stress axis : x y z
#
# Youngs Moduli (GPa) = 86.21507 86.21507 80.53825
#
# Poissons Ratio (x) = -0.11481 0.44037
# Poissons Ratio (y) = -0.11481 0.44037
# Poissons Ratio (z) = 0.47141 0.47141
#
# Static dielectric constant tensor:
#      x y z
#    x 1.650160 0.000000 0.000000 
#    y 0.000000 1.650160 0.000000 
#    z 0.000000 0.000000 1.715350 
# 
# From -- ./inp_files/1826.got.cif
#   From: 2010.05.17/outbox.cif.g08.bks.cpg/sg118_1_cif.got.tgz:1826.got - 2010.05.20 11:17:24.
