data_PCOD9558964
_publ_section_title
;
Structure prediction by ZEFSAII (Michael W. Deem and Ramdas Pophale) SiO2 
 PCOD9558964
Probable space group: I -4 M 2
;
_chemical_formula_sum "Si O2"
_cell_formula_units_Z 88
_cell_length_a 30.940275
_cell_length_b 30.940275
_cell_length_c 5.535107
_cell_angle_alpha 90.000000
_cell_angle_beta 90.000000
_cell_angle_gamma 90.000000
_cell_volume 5298.761347
_symmetry_space_group_name_H-M "I -4 M 2"
_symmetry_group_IT_number 119
_symmetry_cell_setting 'tetragonal'
loop_
_space_group_symop_operation_xyz
x,y,z
y,-x,-z
-x,-y,z
-y,x,-z
y,x,-z
-y,-x,-z
-x,y,z
x,-y,z
1/2+x,1/2+y,1/2+z
1/2+y,1/2-x,1/2-z
1/2-x,1/2-y,1/2+z
1/2-y,1/2+x,1/2-z
1/2+y,1/2+x,1/2-z
1/2-y,1/2-x,1/2-z
1/2-x,1/2+y,1/2+z
1/2+x,1/2-y,1/2+z
loop_
_atom_site_type_symbol
_atom_site_label
_atom_site_fract_x
_atom_site_fract_y
_atom_site_fract_z
Si Si1 0.828806 0.171195 0.000000
Si Si2 0.449808 0.242480 0.421007
Si Si3 0.051069 0.841312 0.362620
Si Si4 0.589939 0.755174 0.923719
Si Si5 0.747917 0.314665 0.152130
Si Si6 0.658127 0.578562 0.642091
O O1 0.830312 0.216451 0.134163
O O2 0.870409 0.166994 0.829412
O O3 0.500000 0.233519 0.462311
O O4 0.423200 0.227445 0.657776
O O5 0.443717 0.294661 0.394337
O O6 0.434724 0.226341 0.157378
O O7 0.076073 0.795462 0.396742
O O8 0.069165 0.862851 0.119133
O O9 0.000000 0.833553 0.338042
O O10 0.060058 0.863673 0.619334
O O11 0.640772 0.759322 0.977677
O O12 0.788948 0.288948 0.250000
O O13 0.719083 0.280918 0.000000
#
# Coordination Sequence:
#
# PCOD9558964 Si02
#       6
#     8  16  16  16  16  16
#     4  12  22  36  44  62  90 120 164 199 228 260
#     4  10  17  31  50  69  86 105 136 184 247 300
#     4  10  17  30  47  65  83 103 137 179 233 286
#     4  10  19  31  45  67  86 106 148 196 232 282
#     4  12  24  35  48  60  86 131 176 213 235 258
#     4  10  19  28  45  63  85 110 137 182 218 278
#
# _framework density 16.607655000000001
#
# number of rings (size 3 to 8) (size 9 to 14) (size 15 to 20)
#    0.000    1.455    4.545    7.636    0.000    0.000 
#    0.000    0.000    0.000    0.000    0.000    0.000 
#    0.000    0.000    0.000    0.000    0.000   88.636 
#
# Total GULP energy -245278.192890 kJ/mol
# GULP energy per Si atom -5574.504384 kJ/mol
# Density = 1.656985 g / cm^3
# Si number density = 16.607655 Si / 1000 Ang^3
#
#
#
# Elastic Constant Matrix: (Units=GPa)
#
#
# Indices 1 2 3 4 5 6 
#
# 1 48.0548 37.0309 12.7884 0.0000 0.0000 0.0000
# 2 37.0309 48.0502 12.7838 0.0000 0.0000 0.0000
# 3 12.7884 12.7838 131.8772 0.0000 0.0000 0.0000
# 4 0.0000 0.0000 0.0000 16.0717 0.0000 0.0000
# 5 0.0000 0.0000 0.0000 0.0000 16.0704 0.0000
# 6 0.0000 0.0000 0.0000 0.0000 0.0000 5.3153
#
#
#
# Elastic Compliance Matrix: (Units=1/GPa)
#
#
# Indices 1 2 3 4 5 6 
#
# 1 0.051416 -0.039312 -0.001175 0.000000 0.000000 0.000000
# 2 -0.039312 0.051420 -0.001172 0.000000 0.000000 0.000000
# 3 -0.001175 -0.001172 0.007810 0.000000 0.000000 0.000000
# 4 0.000000 0.000000 0.000000 0.062221 0.000000 0.000000
# 5 0.000000 0.000000 0.000000 0.000000 0.062226 0.000000
# 6 0.000000 0.000000 0.000000 0.000000 0.000000 0.188136
#
#
# Mechanical properties :
#
#
# Convention : Reuss Voigt Hill
#
# Bulk Modulus (GPa) = 36.59333 39.24315 37.91824
# Shear Modulus (GPa) = 9.69632 18.51676 14.10654
#
# Velocity S-wave (km/s) = 2.41891 3.34271 2.91761
# Velocity P-wave (km/s) = 5.46657 6.21121 5.85075
#
# Compressibility (1/GPa) = 0.02732738
#
# Stress axis : x y z
#
# Youngs Moduli (GPa) = 19.44907 19.44751 128.03426
#
# Poissons Ratio (x) = 0.76453 0.15046
# Poissons Ratio (y) = 0.76459 0.15010
# Poissons Ratio (z) = 0.02285 0.02280
#
# Static dielectric constant tensor:
#      x y z
#    x 1.552280 0.000000 0.000000 
#    y 0.000000 1.552280 0.000000 
#    z 0.000000 0.000000 1.723810 
# 
# From -- ./inp_files/1105.got.cif
#   From: 2010.05.17/outbox.cif.g08.bks.cpg/sg119_1_cif.got.tgz:1105.got - 2010.05.20 11:21:29.
