data_PCOD9558951
_publ_section_title
;
Structure prediction by ZEFSAII (Michael W. Deem and Ramdas Pophale) SiO2 
 PCOD9558951
Probable space group: I -4 M 2
;
_chemical_formula_sum "Si O2"
_cell_formula_units_Z 72
_cell_length_a 12.531184
_cell_length_b 12.531184
_cell_length_c 28.938200
_cell_angle_alpha 90.000000
_cell_angle_beta 90.000000
_cell_angle_gamma 90.000000
_cell_volume 4544.182111
_symmetry_space_group_name_H-M "I -4 M 2"
_symmetry_group_IT_number 119
_symmetry_cell_setting 'tetragonal'
loop_
_space_group_symop_operation_xyz
x,y,z
y,-x,-z
-x,-y,z
-y,x,-z
y,x,-z
-y,-x,-z
-x,y,z
x,-y,z
1/2+x,1/2+y,1/2+z
1/2+y,1/2-x,1/2-z
1/2-x,1/2-y,1/2+z
1/2-y,1/2+x,1/2-z
1/2+y,1/2+x,1/2-z
1/2-y,1/2-x,1/2-z
1/2-x,1/2+y,1/2+z
1/2+x,1/2-y,1/2+z
loop_
_atom_site_type_symbol
_atom_site_label
_atom_site_fract_x
_atom_site_fract_y
_atom_site_fract_z
Si Si1 0.876561 0.500000 0.969171
Si Si2 0.237974 0.876258 0.607116
Si Si3 0.374694 0.500000 0.796898
Si Si4 0.764945 0.124969 0.716457
Si Si5 0.500000 0.690432 0.102329
Si Si6 0.372795 0.781933 0.527248
O O1 0.799453 0.500000 0.925564
O O2 0.000000 0.500000 0.955208
O O3 0.857632 0.392908 0.998954
O O4 0.245274 0.849566 0.661721
O O5 0.113469 0.865941 0.592021
O O6 0.312819 0.802830 0.575723
O O7 0.269933 0.000000 0.601814
O O8 0.500000 0.500000 0.813566
O O9 0.359310 0.389570 0.771044
O O10 0.301853 0.500000 0.842232
O O11 0.692698 0.192698 0.750000
O O12 0.739947 0.000000 0.721243
O O13 0.312534 0.687467 0.500000
O O14 0.500000 0.764112 0.532215
#
# Coordination Sequence:
#
# PCOD9558951 Si02
#       6
#     8  16   8  16   8  16
#     4  10  20  32  50  74 102 132 170 206 253 305
#     4  10  19  32  53  81 105 129 163 213 264 307
#     4   8  16  32  54  76 100 136 164 200 255 305
#     4   9  18  32  53  78 104 133 167 205 253 305
#     4  10  16  30  54  76 100 128 166 208 256 308
#     4  11  22  36  52  73 103 141 176 207 251 302
#
# _framework density 15.844436999999999
#
# number of rings (size 3 to 8) (size 9 to 14) (size 15 to 20)
#    0.000    2.222    3.333    2.333    0.000    1.333 
#    0.000    2.222   12.222    0.000    0.000    0.000 
#    0.000    0.000    0.000    0.000    0.000    0.000 
#
# Total GULP energy -200498.665593 kJ/mol
# GULP energy per Si atom -5569.407378 kJ/mol
# Density = 1.580837 g / cm^3
# Si number density = 15.844437 Si / 1000 Ang^3
#
#
#
# Elastic Constant Matrix: (Units=GPa)
#
#
# Indices 1 2 3 4 5 6 
#
# 1 99.1814 59.2192 60.3712 0.0000 0.0000 0.0000
# 2 59.2192 99.1825 60.3715 0.0000 0.0000 0.0000
# 3 60.3712 60.3715 77.5958 0.0000 0.0000 0.0000
# 4 0.0000 0.0000 0.0000 29.0690 0.0000 0.0000
# 5 0.0000 0.0000 0.0000 0.0000 29.0688 0.0000
# 6 0.0000 0.0000 0.0000 0.0000 0.0000 26.6157
#
#
#
# Elastic Compliance Matrix: (Units=1/GPa)
#
#
# Indices 1 2 3 4 5 6 
#
# 1 0.020268 -0.004755 -0.012070 0.000000 0.000000 0.000000
# 2 -0.004755 0.020268 -0.012070 0.000000 0.000000 0.000000
# 3 -0.012070 -0.012070 0.031668 0.000000 0.000000 0.000000
# 4 0.000000 0.000000 0.000000 0.034401 0.000000 0.000000
# 5 0.000000 0.000000 0.000000 0.000000 0.034401 0.000000
# 6 0.000000 0.000000 0.000000 0.000000 0.000000 0.037572
#
#
# Mechanical properties :
#
#
# Convention : Reuss Voigt Hill
#
# Bulk Modulus (GPa) = 69.36693 70.65373 70.01033
# Shear Modulus (GPa) = 20.73197 23.35056 22.04127
#
# Velocity S-wave (km/s) = 3.62120 3.84310 3.73380
# Velocity P-wave (km/s) = 7.83321 8.02381 7.92908
#
# Compressibility (1/GPa) = 0.01441609
#
# Stress axis : x y z
#
# Youngs Moduli (GPa) = 49.33766 49.33832 31.57713
#
# Poissons Ratio (x) = 0.23460 0.38113
# Poissons Ratio (y) = 0.23460 0.38113
# Poissons Ratio (z) = 0.59550 0.59550
#
# Static dielectric constant tensor:
#      x y z
#    x 1.530600 0.000000 0.000000 
#    y 0.000000 1.530600 0.000000 
#    z 0.000000 0.000000 1.517630 
# 
# From -- ./inp_files/9411.got.cif
#   From: 2010.05.17/outbox.cif.g08.bks.cpg/sg119_5_cif.got.tgz:9411.got - 2010.05.20 11:21:29.
