data_PCOD9558751
_publ_section_title
;
Structure prediction by ZEFSAII (Michael W. Deem and Ramdas Pophale) SiO2 
 PCOD9558751
Probable space group: P -4 N 2
;
_chemical_formula_sum "Si O2"
_cell_formula_units_Z 20
_cell_length_a 5.290176
_cell_length_b 5.290176
_cell_length_c 32.076444
_cell_angle_alpha 90.000000
_cell_angle_beta 90.000000
_cell_angle_gamma 90.000000
_cell_volume 897.690146
_symmetry_space_group_name_H-M "P -4 N 2"
_symmetry_group_IT_number 118
_symmetry_cell_setting 'tetragonal'
loop_
_space_group_symop_operation_xyz
x,y,z
y,-x,-z
-x,-y,z
-y,x,-z
1/2+y,1/2+x,1/2-z
1/2-y,1/2-x,1/2-z
1/2-x,1/2+y,1/2+z
1/2+x,1/2-y,1/2+z
loop_
_atom_site_type_symbol
_atom_site_label
_atom_site_fract_x
_atom_site_fract_y
_atom_site_fract_z
Si Si1 0.500000 0.000000 0.750000
Si Si2 0.000000 0.000000 0.500000
Si Si3 0.500000 0.000000 0.362195
Si Si4 0.500000 0.500000 0.193160
Si Si5 0.643907 0.750435 0.444218
O O1 0.483991 0.749637 0.778427
O O2 0.910738 0.787577 0.466573
O O3 0.746414 0.048312 0.334196
O O4 0.390000 0.212354 0.394388
O O5 0.500000 0.500000 0.455634
O O6 0.500000 0.000000 0.459625
#
# Coordination Sequence:
#
# PCOD9558751 Si02
#       5
#     2   2   4   4   8
#     4  12  28  44  76 114 144 184 236 290 392 440
#     4  12  26  48  72 108 160 204 264 336 380 448
#     4  10  26  47  76 101 150 192 252 297 376 441
#     4  12  25  46  76 107 148 188 234 307 360 468
#     4  10  27  43  72 106 144 201 254 315 372 446
#
# _framework density 22.279402999999999
#
# number of rings (size 3 to 8) (size 9 to 14) (size 15 to 20)
#    1.200    0.000    0.000    3.600   11.200    0.000 
#    0.000    0.000    0.000    0.000    0.000    0.000 
#    0.000    0.000    0.000    0.000    0.000    0.000 
#
# Total GULP energy -111384.848452 kJ/mol
# GULP energy per Si atom -5569.242423 kJ/mol
# Density = 2.222869 g / cm^3
# Si number density = 22.279403 Si / 1000 Ang^3
#
#
#
# Elastic Constant Matrix: (Units=GPa)
#
#
# Indices 1 2 3 4 5 6 
#
# 1 160.0171 40.7458 85.1414 0.0000 0.0000 0.0000
# 2 40.7458 160.0171 85.1414 0.0000 0.0000 0.0000
# 3 85.1414 85.1414 192.2292 0.0000 0.0000 0.0000
# 4 0.0000 0.0000 0.0000 39.1181 0.0000 0.0000
# 5 0.0000 0.0000 0.0000 0.0000 39.1181 0.0000
# 6 0.0000 0.0000 0.0000 0.0000 0.0000 36.0672
#
#
#
# Elastic Compliance Matrix: (Units=1/GPa)
#
#
# Indices 1 2 3 4 5 6 
#
# 1 0.008181 -0.000203 -0.003534 0.000000 0.000000 0.000000
# 2 -0.000203 0.008181 -0.003534 0.000000 0.000000 0.000000
# 3 -0.003534 -0.003534 0.008332 0.000000 0.000000 0.000000
# 4 0.000000 0.000000 0.000000 0.025564 0.000000 0.000000
# 5 0.000000 0.000000 0.000000 0.000000 0.025564 0.000000
# 6 0.000000 0.000000 0.000000 0.000000 0.000000 0.027726
#
#
# Mechanical properties :
#
#
# Convention : Reuss Voigt Hill
#
# Bulk Modulus (GPa) = 98.48282 103.81342 101.14812
# Shear Modulus (GPa) = 41.16128 42.94302 42.05215
#
# Velocity S-wave (km/s) = 4.30292 4.39507 4.34924
# Velocity P-wave (km/s) = 8.30580 8.51192 8.40949
#
# Compressibility (1/GPa) = 0.01015406
#
# Stress axis : x y z
#
# Youngs Moduli (GPa) = 122.23130 122.23130 120.01411
#
# Poissons Ratio (x) = 0.02482 0.42409
# Poissons Ratio (y) = 0.02482 0.42409
# Poissons Ratio (z) = 0.43192 0.43192
#
# Static dielectric constant tensor:
#      x y z
#    x 1.854550 0.000000 0.000000 
#    y 0.000000 1.854550 0.000000 
#    z 0.000000 0.000000 1.851860 
# 
# From -- ./inp_files/6348.got.cif
#   From: 2010.05.17/outbox.cif.g08.bks.cpg/sg118_4_cif.got.tgz:6348.got - 2010.05.20 11:17:24.
