data_PCOD9558207
_publ_section_title
;
Structure prediction by ZEFSAII (Michael W. Deem and Ramdas Pophale) SiO2 
 PCOD9558207
Probable space group: P -4 B 2
;
_chemical_formula_sum "Si O2"
_cell_formula_units_Z 52
_cell_length_a 20.882590
_cell_length_b 20.882590
_cell_length_c 5.177379
_cell_angle_alpha 90.000000
_cell_angle_beta 90.000000
_cell_angle_gamma 90.000000
_cell_volume 2257.764715
_symmetry_space_group_name_H-M "P -4 B 2"
_symmetry_group_IT_number 117
_symmetry_cell_setting 'tetragonal'
loop_
_space_group_symop_operation_xyz
x,y,z
y,-x,-z
-x,-y,z
-y,x,-z
1/2+y,1/2+x,-z
1/2-y,1/2-x,-z
1/2-x,1/2+y,z
1/2+x,1/2-y,z
loop_
_atom_site_type_symbol
_atom_site_label
_atom_site_fract_x
_atom_site_fract_y
_atom_site_fract_z
Si Si1 0.496395 0.364753 0.756081
Si Si2 0.939541 0.710409 0.290892
Si Si3 0.097123 0.505981 0.402212
Si Si4 0.500000 0.000000 0.000000
Si Si5 0.000000 0.000000 0.000000
Si Si6 0.308973 0.554074 0.745194
Si Si7 0.251749 0.189071 0.759778
Si Si8 0.759569 0.111946 0.213890
O O1 0.511607 0.437142 0.828593
O O2 0.459638 0.357924 0.485992
O O3 0.559427 0.318095 0.771587
O O4 0.446660 0.340468 0.974407
O O5 0.886388 0.730999 0.497944
O O6 0.979227 0.658166 0.455004
O O7 0.991044 0.765972 0.260067
O O8 0.910643 0.707644 0.002111
O O9 0.076185 0.576185 0.500000
O O10 0.042944 0.457057 0.500000
O O11 0.074515 0.502031 0.106431
O O12 0.264593 0.615223 0.702891
O O13 0.277876 0.222125 0.500000
O O14 0.182597 0.216497 0.848040
O O15 0.299369 0.200632 0.000000
#
# Coordination Sequence:
#
# PCOD9558207 Si02
#       8
#     8   8   8   2   2   8   8   8
#     4  10  23  41  66  96 136 167 209 273 332 392
#     4  10  22  40  67  89 123 172 219 254 320 396
#     4   9  20  35  57  89 125 162 197 266 320 372
#     4   8  18  36  56  90 132 164 198 264 346 356
#     4  12  24  38  72 110 120 170 228 246 328 438
#     4  10  23  45  63  92 134 173 210 275 334 375
#     4  12  25  42  68  94 130 174 226 273 326 390
#     4  10  23  42  60  92 129 168 210 272 324 369
#
# _framework density 23.031628999999999
#
# number of rings (size 3 to 8) (size 9 to 14) (size 15 to 20)
#    0.000    2.000    0.000    2.769    4.308    8.000 
#    0.000    0.000    1.692    0.000    0.000    0.000 
#    0.000    0.000    0.000    0.000    0.000    0.000 
#
# Total GULP energy -289699.619670 kJ/mol
# GULP energy per Si atom -5571.146532 kJ/mol
# Density = 2.297921 g / cm^3
# Si number density = 23.031629 Si / 1000 Ang^3
#
#
#
# Elastic Constant Matrix: (Units=GPa)
#
#
# Indices 1 2 3 4 5 6 
#
# 1 53.1864 -20.4740 22.4582 0.0000 0.0000 0.0000
# 2 -20.4740 53.1877 22.4561 0.0000 0.0000 0.0000
# 3 22.4582 22.4561 98.4569 0.0000 0.0000 0.0000
# 4 0.0000 0.0000 0.0000 25.9976 0.0000 0.0000
# 5 0.0000 0.0000 0.0000 0.0000 25.9971 0.0000
# 6 0.0000 0.0000 0.0000 0.0000 0.0000 11.7701
#
#
#
# Elastic Compliance Matrix: (Units=1/GPa)
#
#
# Indices 1 2 3 4 5 6 
#
# 1 0.029042 0.015466 -0.010152 0.000000 0.000000 0.000000
# 2 0.015466 0.029041 -0.010151 0.000000 0.000000 0.000000
# 3 -0.010152 -0.010151 0.014788 0.000000 0.000000 0.000000
# 4 0.000000 0.000000 0.000000 0.038465 0.000000 0.000000
# 5 0.000000 0.000000 0.000000 0.000000 0.038466 0.000000
# 6 0.000000 0.000000 0.000000 0.000000 0.000000 0.084961
#
#
# Mechanical properties :
#
#
# Convention : Reuss Voigt Hill
#
# Bulk Modulus (GPa) = 15.82407 28.19019 22.00713
# Shear Modulus (GPa) = 18.83221 24.77900 21.80561
#
# Velocity S-wave (km/s) = 2.86259 3.28360 3.08030
# Velocity P-wave (km/s) = 4.22036 5.16163 4.71454
#
# Compressibility (1/GPa) = 0.06319487
#
# Stress axis : x y z
#
# Youngs Moduli (GPa) = 34.43297 34.43457 67.62370
#
# Poissons Ratio (x) = -0.53255 0.68651
# Poissons Ratio (y) = -0.53253 0.68647
# Poissons Ratio (z) = 0.34956 0.34956
#
# Static dielectric constant tensor:
#      x y z
#    x 1.794020 0.000000 0.000000 
#    y 0.000000 1.794020 0.000000 
#    z 0.000000 0.000000 1.177080 
# 
# From -- ./inp_files/894.got.cif
#   From: 2010.05.17/outbox.cif.g08.bks.cpg/sg117_1_cif.got.tgz:894.got - 2010.05.20 11:15:09.
