data_PCOD9558087
_publ_section_title
;
Structure prediction by ZEFSAII (Michael W. Deem and Ramdas Pophale) SiO2 
 PCOD9558087
Probable space group: P -4 B 2
;
_chemical_formula_sum "Si O2"
_cell_formula_units_Z 36
_cell_length_a 12.891489
_cell_length_b 12.891489
_cell_length_c 8.269760
_cell_angle_alpha 90.000000
_cell_angle_beta 90.000000
_cell_angle_gamma 90.000000
_cell_volume 1374.355455
_symmetry_space_group_name_H-M "P -4 B 2"
_symmetry_group_IT_number 117
_symmetry_cell_setting 'tetragonal'
loop_
_space_group_symop_operation_xyz
x,y,z
y,-x,-z
-x,-y,z
-y,x,-z
1/2+y,1/2+x,-z
1/2-y,1/2-x,-z
1/2-x,1/2+y,z
1/2+x,1/2-y,z
loop_
_atom_site_type_symbol
_atom_site_label
_atom_site_fract_x
_atom_site_fract_y
_atom_site_fract_z
Si Si1 0.604971 0.104971 0.500000
Si Si2 0.326469 0.342871 0.832133
Si Si3 0.243128 0.075131 0.483080
Si Si4 0.369829 0.276124 0.173421
Si Si5 0.631275 0.026802 0.846520
O O1 0.543354 0.214958 0.516452
O O2 0.581482 0.064157 0.680622
O O3 0.396376 0.322001 0.675556
O O4 0.236567 0.254959 0.817405
O O5 0.253290 0.442464 0.843746
O O6 0.385060 0.331723 0.001743
O O7 0.343409 0.156592 0.500000
O O8 0.183318 0.096207 0.651040
O O9 0.404926 0.153882 0.159310
O O10 0.575084 0.075084 0.000000
#
# Coordination Sequence:
#
# PCOD9558087 Si02
#       5
#     4   8   8   8   8
#     4  10  21  32  50  88 106 137 184 224 276 344
#     4  10  19  35  54  76 111 150 178 227 280 327
#     4   9  18  32  52  74 113 143 171 218 277 336
#     4   9  19  34  51  80 107 144 183 220 273 329
#     4  11  21  33  56  83 110 145 186 224 275 332
#
# _framework density 26.194098
#
# number of rings (size 3 to 8) (size 9 to 14) (size 15 to 20)
#    0.000    2.222    2.222    1.667    4.667    0.000 
#    0.000    8.889    0.000    0.667    0.000    0.000 
#    0.000    0.000    0.000    0.000    0.000    0.000 
#
# Total GULP energy -200486.364854 kJ/mol
# GULP energy per Si atom -5569.065690 kJ/mol
# Density = 2.613448 g / cm^3
# Si number density = 26.194098 Si / 1000 Ang^3
#
#
#
# Elastic Constant Matrix: (Units=GPa)
#
#
# Indices 1 2 3 4 5 6 
#
# 1 35.4790 36.6512 46.6506 0.0000 0.0000 0.0000
# 2 36.6512 35.4793 46.6508 0.0000 0.0000 0.0000
# 3 46.6506 46.6508 285.2159 0.0000 0.0000 0.0000
# 4 0.0000 0.0000 0.0000 45.2511 0.0000 0.0000
# 5 0.0000 0.0000 0.0000 0.0000 45.2510 0.0000
# 6 0.0000 0.0000 0.0000 0.0000 0.0000 41.3680
#
#
#
# Elastic Compliance Matrix: (Units=1/GPa)
#
#
# Indices 1 2 3 4 5 6 
#
# 1 -0.417817 0.435399 -0.002876 0.000000 0.000000 0.000000
# 2 0.435399 -0.417813 -0.002876 0.000000 0.000000 0.000000
# 3 -0.002876 -0.002876 0.004447 0.000000 0.000000 0.000000
# 4 0.000000 0.000000 0.000000 0.022099 0.000000 0.000000
# 5 0.000000 0.000000 0.000000 0.000000 0.022099 0.000000
# 6 0.000000 0.000000 0.000000 0.000000 0.000000 0.024173
#
#
# Mechanical properties :
#
#
# Convention : Reuss Voigt Hill
#
# Bulk Modulus (GPa) = 35.57363 68.45326 52.01344
# Shear Modulus (GPa) = -3.10032 41.45546 19.17757
#
# Velocity S-wave (km/s) = -1.08911 3.98254 2.70873
# Velocity P-wave (km/s) = 3.46824 6.88021 5.44821
#
# Compressibility (1/GPa) = 0.02811071
#
# Stress axis : x y z
#
# Youngs Moduli (GPa) = -2.39339 -2.39341 224.87266
#
# Poissons Ratio (x) = 1.04209 0.64673
# Poissons Ratio (y) = 1.04208 0.64678
# Poissons Ratio (z) = -0.00688 -0.00688
#
# Static dielectric constant tensor:
#      x y z
#    x 2.107720 0.000000 0.000000 
#    y 0.000000 2.107710 0.000000 
#    z 0.000000 0.000000 2.047670 
# 
# From -- ./inp_files/1588.got.cif
#   From: 2010.05.17/outbox.cif.g08.bks.cpg/sg117_1_cif.got.tgz:1588.got - 2010.05.20 11:15:09.
