data_PCOD9558244
_publ_section_title
;
Structure prediction by ZEFSAII (Michael W. Deem and Ramdas Pophale) SiO2 
 PCOD9558244
Probable space group: P -4 B 2
;
_chemical_formula_sum "Si O2"
_cell_formula_units_Z 48
_cell_length_a 21.507369
_cell_length_b 21.507369
_cell_length_c 5.171375
_cell_angle_alpha 90.000000
_cell_angle_beta 90.000000
_cell_angle_gamma 90.000000
_cell_volume 2392.107013
_symmetry_space_group_name_H-M "P -4 B 2"
_symmetry_group_IT_number 117
_symmetry_cell_setting 'tetragonal'
loop_
_space_group_symop_operation_xyz
x,y,z
y,-x,-z
-x,-y,z
-y,x,-z
1/2+y,1/2+x,-z
1/2-y,1/2-x,-z
1/2-x,1/2+y,z
1/2+x,1/2-y,z
loop_
_atom_site_type_symbol
_atom_site_label
_atom_site_fract_x
_atom_site_fract_y
_atom_site_fract_z
Si Si1 0.795835 0.644036 0.754208
Si Si2 0.585378 0.445012 0.009423
Si Si3 0.419138 0.178589 0.907606
Si Si4 0.781729 0.498314 0.598418
Si Si5 0.184350 0.767836 0.684824
Si Si6 0.338946 0.574064 0.525848
O O1 0.823313 0.676688 0.500000
O O2 0.790184 0.571354 0.669975
O O3 0.730427 0.680660 0.808846
O O4 0.840391 0.659610 0.000000
O O5 0.614792 0.415993 0.758690
O O6 0.517310 0.419872 0.056653
O O7 0.626149 0.435787 0.259234
O O8 0.464321 0.183635 0.650176
O O9 0.362214 0.227400 0.863456
O O10 0.385569 0.114432 0.000000
O O11 0.460755 0.198605 0.147678
O O12 0.708972 0.482564 0.560796
O O13 0.222932 0.722932 0.500000
O O14 0.136995 0.801498 0.496246
#
# Coordination Sequence:
#
# PCOD9558244 Si02
#       6
#     8   8   8   8   8   8
#     4  11  25  43  66  96 136 179 209 263 330 403
#     4  11  25  41  59  86 125 174 223 265 317 373
#     4  11  21  41  69  97 129 163 217 279 324 379
#     4  11  24  41  64 101 127 168 219 261 337 389
#     4  10  23  42  66  97 131 169 218 270 334 383
#     4  11  23  41  64  94 122 172 214 278 321 381
#
# _framework density 20.065994
#
# number of rings (size 3 to 8) (size 9 to 14) (size 15 to 20)
#    0.000    1.167    0.000    7.000    4.667    6.667 
#    0.000    0.000    0.000    7.500    0.000    0.000 
#    0.000    0.000    0.000    0.000    0.000    0.000 
#
# Total GULP energy -267883.777578 kJ/mol
# GULP energy per Si atom -5580.912033 kJ/mol
# Density = 2.002032 g / cm^3
# Si number density = 20.065994 Si / 1000 Ang^3
#
#
#
# Elastic Constant Matrix: (Units=GPa)
#
#
# Indices 1 2 3 4 5 6 
#
# 1 95.1996 58.5762 33.2654 0.0000 0.0000 0.0000
# 2 58.5762 95.2030 33.2654 0.0000 0.0000 0.0000
# 3 33.2654 33.2654 124.1570 0.0000 0.0000 0.0000
# 4 0.0000 0.0000 0.0000 -3.8855 0.0000 0.0000
# 5 0.0000 0.0000 0.0000 0.0000 -3.8980 0.0000
# 6 0.0000 0.0000 0.0000 0.0000 0.0000 32.5147
#
#
#
# Elastic Compliance Matrix: (Units=1/GPa)
#
#
# Indices 1 2 3 4 5 6 
#
# 1 0.017330 -0.009974 -0.001971 0.000000 0.000000 0.000000
# 2 -0.009974 0.017329 -0.001971 0.000000 0.000000 0.000000
# 3 -0.001971 -0.001971 0.009110 0.000000 0.000000 0.000000
# 4 0.000000 0.000000 0.000000 -0.257367 0.000000 0.000000
# 5 0.000000 0.000000 0.000000 0.000000 -0.256542 0.000000
# 6 0.000000 0.000000 0.000000 0.000000 0.000000 0.030755
#
#
# Mechanical properties :
#
#
# Convention : Reuss Voigt Hill
#
# Bulk Modulus (GPa) = 62.74164 62.75262 62.74713
# Shear Modulus (GPa) = -12.30801 17.57642 2.63421
#
# Velocity S-wave (km/s) = -2.47933 2.96282 1.14701
# Velocity P-wave (km/s) = 4.81035 6.56090 5.75260
#
# Compressibility (1/GPa) = 0.01593838
#
# Stress axis : x y z
#
# Youngs Moduli (GPa) = 57.70363 57.70589 109.76491
#
# Poissons Ratio (x) = 0.57556 0.21633
# Poissons Ratio (y) = 0.57554 0.21631
# Poissons Ratio (z) = 0.11373 0.11372
#
# Static dielectric constant tensor:
#      x y z
#    x 1.745900 0.000000 0.000000 
#    y 0.000000 1.745880 0.000000 
#    z 0.000000 0.000000 1.262390 
# 
# From -- ./inp_files/817.got.cif
#   From: 2010.05.17/outbox.cif.g08.bks.cpg/sg117_1_cif.got.tgz:817.got - 2010.05.20 11:15:09.
