data_PCOD9558406
_publ_section_title
;
Structure prediction by ZEFSAII (Michael W. Deem and Ramdas Pophale) SiO2 
 PCOD9558406
Probable space group: P -4 N 2
;
_chemical_formula_sum "Si O2"
_cell_formula_units_Z 52
_cell_length_a 18.750253
_cell_length_b 18.750253
_cell_length_c 7.903558
_cell_angle_alpha 90.000000
_cell_angle_beta 90.000000
_cell_angle_gamma 90.000000
_cell_volume 2778.669595
_symmetry_space_group_name_H-M "P -4 N 2"
_symmetry_group_IT_number 118
_symmetry_cell_setting 'tetragonal'
loop_
_space_group_symop_operation_xyz
x,y,z
y,-x,-z
-x,-y,z
-y,x,-z
1/2+y,1/2+x,1/2-z
1/2-y,1/2-x,1/2-z
1/2-x,1/2+y,1/2+z
1/2+x,1/2-y,1/2+z
loop_
_atom_site_type_symbol
_atom_site_label
_atom_site_fract_x
_atom_site_fract_y
_atom_site_fract_z
Si Si1 0.237006 0.625107 0.685572
Si Si2 0.898609 0.082144 0.259817
Si Si3 0.052888 0.682671 0.341771
Si Si4 0.457631 0.123793 0.496110
Si Si5 0.961802 0.184392 0.543998
Si Si6 0.000000 0.500000 0.750000
Si Si7 0.220585 0.178407 0.831418
Si Si8 0.000000 0.000000 0.000000
O O1 0.173396 0.673396 0.750000
O O2 0.196833 0.556650 0.605692
O O3 0.290084 0.602842 0.834360
O O4 0.268587 0.669111 0.530262
O O5 0.940670 0.126556 0.403115
O O6 0.841740 0.139474 0.196074
O O7 0.854607 0.018313 0.340028
O O8 0.952197 0.051426 0.118723
O O9 0.086012 0.618579 0.453482
O O10 0.013478 0.646474 0.181625
O O11 0.013207 0.742047 0.453193
O O12 0.117860 0.729563 0.260456
O O13 0.497460 0.068249 0.375287
O O14 0.248763 0.251237 0.750000
#
# Coordination Sequence:
#
# PCOD9558406 Si02
#       8
#     8   8   8   8   8   2   8   2
#     4  11  17  33  62  88 111 146 200 251 288 352
#     4  11  24  38  61  87 122 160 196 255 308 374
#     4   9  17  34  57  81 117 146 197 256 297 348
#     4  10  18  32  53  90 112 153 196 257 283 358
#     4  11  21  37  59  91 116 152 201 253 307 370
#     4  12  20  26  48  88 120 150 200 244 318 348
#     4  10  18  35  60  91 113 145 200 253 306 356
#     4  12  24  46  56  88 132 170 212 244 324 402
#
# _framework density 18.713992000000001
#
# number of rings (size 3 to 8) (size 9 to 14) (size 15 to 20)
#    0.000    1.538    5.385    2.769    0.000    1.231 
#    0.000    0.000    6.769    0.000   28.000    0.000 
#    0.000    0.000    0.000    0.000    0.000    0.000 
#
# Total GULP energy -289797.098868 kJ/mol
# GULP energy per Si atom -5573.021132 kJ/mol
# Density = 1.867140 g / cm^3
# Si number density = 18.713992 Si / 1000 Ang^3
#
#
#
# Elastic Constant Matrix: (Units=GPa)
#
#
# Indices 1 2 3 4 5 6 
#
# 1 49.8521 37.9454 50.5941 0.0000 0.0000 0.0000
# 2 37.9454 49.8499 50.5943 0.0000 0.0000 0.0000
# 3 50.5941 50.5943 138.6540 0.0000 0.0000 0.0000
# 4 0.0000 0.0000 0.0000 -12.7916 0.0000 0.0000
# 5 0.0000 0.0000 0.0000 0.0000 -12.7975 0.0000
# 6 0.0000 0.0000 0.0000 0.0000 0.0000 27.4637
#
#
#
# Elastic Compliance Matrix: (Units=1/GPa)
#
#
# Indices 1 2 3 4 5 6 
#
# 1 0.051823 -0.032169 -0.007172 0.000000 0.000000 0.000000
# 2 -0.032169 0.051827 -0.007173 0.000000 0.000000 0.000000
# 3 -0.007172 -0.007173 0.012447 0.000000 0.000000 0.000000
# 4 0.000000 0.000000 0.000000 -0.078176 0.000000 0.000000
# 5 0.000000 0.000000 0.000000 0.000000 -0.078140 0.000000
# 6 0.000000 0.000000 0.000000 0.000000 0.000000 0.036412
#
#
# Mechanical properties :
#
#
# Convention : Reuss Voigt Hill
#
# Bulk Modulus (GPa) = 43.34713 57.40260 50.37487
# Shear Modulus (GPa) = 51.59422 6.98974 29.29198
#
# Velocity S-wave (km/s) = 5.25640 1.93472 3.96061
# Velocity P-wave (km/s) = 7.74938 5.97755 6.92040
#
# Compressibility (1/GPa) = 0.02306958
#
# Stress axis : x y z
#
# Youngs Moduli (GPa) = 19.29633 19.29490 80.34252
#
# Poissons Ratio (x) = 0.62069 0.57621
# Poissons Ratio (y) = 0.62074 0.57633
# Poissons Ratio (z) = 0.13839 0.13841
#
# Static dielectric constant tensor:
#      x y z
#    x 1.817480 0.000000 0.000000 
#    y 0.000000 1.817620 0.000000 
#    z 0.000000 0.000000 1.808040 
# 
# From -- ./inp_files/2197.got.cif
#   From: 2010.05.17/outbox.cif.g08.bks.cpg/sg118_2_cif.got.tgz:2197.got - 2010.05.20 11:17:24.
