data_PCOD9558374
_publ_section_title
;
Structure prediction by ZEFSAII (Michael W. Deem and Ramdas Pophale) SiO2 
 PCOD9558374
Probable space group: P -4 N 2
;
_chemical_formula_sum "Si O2"
_cell_formula_units_Z 28
_cell_length_a 12.271843
_cell_length_b 12.271843
_cell_length_c 7.249242
_cell_angle_alpha 90.000000
_cell_angle_beta 90.000000
_cell_angle_gamma 90.000000
_cell_volume 1091.722294
_symmetry_space_group_name_H-M "P -4 N 2"
_symmetry_group_IT_number 118
_symmetry_cell_setting 'tetragonal'
loop_
_space_group_symop_operation_xyz
x,y,z
y,-x,-z
-x,-y,z
-y,x,-z
1/2+y,1/2+x,1/2-z
1/2-y,1/2-x,1/2-z
1/2-x,1/2+y,1/2+z
1/2+x,1/2-y,1/2+z
loop_
_atom_site_type_symbol
_atom_site_label
_atom_site_fract_x
_atom_site_fract_y
_atom_site_fract_z
Si Si1 0.685944 0.891788 0.434710
Si Si2 0.587068 0.594212 0.211819
Si Si3 0.247433 0.995208 0.967503
Si Si4 0.382529 0.882529 0.250000
O O1 0.682536 0.817465 0.250000
O O2 0.816176 0.904659 0.451535
O O3 0.593687 0.834208 0.557434
O O4 0.636165 0.006250 0.364234
O O5 0.500000 0.500000 0.182644
O O6 0.543773 0.655193 0.397705
O O7 0.701972 0.545234 0.275037
O O8 0.294048 0.894477 0.088941
#
# Coordination Sequence:
#
# PCOD9558374 Si02
#       4
#     8   8   8   4
#     4   8  16  26  43  72  97 125 171 222 268 315
#     4  10  16  26  45  79  96 128 177 218 251 331
#     4  10  15  27  45  76  94 129 178 219 269 325
#     4   8  15  26  42  68  92 122 165 220 263 316
#
# _framework density 25.647551
#
# number of rings (size 3 to 8) (size 9 to 14) (size 15 to 20)
#    0.000    3.429    2.857    3.857    0.000    0.000 
#    0.000    0.000    0.000    0.000  260.000    0.000 
#    0.000    0.000    0.000    0.000    0.000    0.000 
#
# Total GULP energy -156166.012653 kJ/mol
# GULP energy per Si atom -5577.357595 kJ/mol
# Density = 2.558918 g / cm^3
# Si number density = 25.647551 Si / 1000 Ang^3
#
#
#
# Elastic Constant Matrix: (Units=GPa)
#
#
# Indices 1 2 3 4 5 6 
#
# 1 130.8124 59.8495 41.0181 0.0000 0.0000 0.0000
# 2 59.8495 130.8130 41.0180 0.0000 0.0000 0.0000
# 3 41.0181 41.0180 94.6158 0.0000 0.0000 0.0000
# 4 0.0000 0.0000 0.0000 28.8072 0.0000 0.0000
# 5 0.0000 0.0000 0.0000 0.0000 28.8072 0.0000
# 6 0.0000 0.0000 0.0000 0.0000 0.0000 37.1100
#
#
#
# Elastic Compliance Matrix: (Units=1/GPa)
#
#
# Indices 1 2 3 4 5 6 
#
# 1 0.010270 -0.003822 -0.002795 0.000000 0.000000 0.000000
# 2 -0.003822 0.010270 -0.002795 0.000000 0.000000 0.000000
# 3 -0.002795 -0.002795 0.012993 0.000000 0.000000 0.000000
# 4 0.000000 0.000000 0.000000 0.034714 0.000000 0.000000
# 5 0.000000 0.000000 0.000000 0.000000 0.034714 0.000000
# 6 0.000000 0.000000 0.000000 0.000000 0.000000 0.026947
#
#
# Mechanical properties :
#
#
# Convention : Reuss Voigt Hill
#
# Bulk Modulus (GPa) = 67.99459 71.11250 69.55354
# Shear Modulus (GPa) = 32.54505 33.23525 32.89015
#
# Velocity S-wave (km/s) = 3.56607 3.60369 3.58493
# Velocity P-wave (km/s) = 6.59731 6.71584 6.65684
#
# Compressibility (1/GPa) = 0.01470705
#
# Stress axis : x y z
#
# Youngs Moduli (GPa) = 97.37374 97.37437 76.96698
#
# Poissons Ratio (x) = 0.37218 0.21514
# Poissons Ratio (y) = 0.37217 0.21513
# Poissons Ratio (z) = 0.27218 0.27217
#
# Static dielectric constant tensor:
#      x y z
#    x 2.127400 0.000000 0.000000 
#    y 0.000000 2.127400 0.000000 
#    z 0.000000 0.000000 2.046750 
# 
# From -- ./inp_files/2760.got.cif
#   From: 2010.05.17/outbox.cif.g08.bks.cpg/sg118_2_cif.got.tgz:2760.got - 2010.05.20 11:17:24.
