data_PCOD9558756
_publ_section_title
;
Structure prediction by ZEFSAII (Michael W. Deem and Ramdas Pophale) SiO2 
 PCOD9558756
Probable space group: P -4 N 2
;
_chemical_formula_sum "Si O2"
_cell_formula_units_Z 16
_cell_length_a 5.082076
_cell_length_b 5.082076
_cell_length_c 25.863181
_cell_angle_alpha 90.000000
_cell_angle_beta 90.000000
_cell_angle_gamma 90.000000
_cell_volume 667.981216
_symmetry_space_group_name_H-M "P -4 N 2"
_symmetry_group_IT_number 118
_symmetry_cell_setting 'tetragonal'
loop_
_space_group_symop_operation_xyz
x,y,z
y,-x,-z
-x,-y,z
-y,x,-z
1/2+y,1/2+x,1/2-z
1/2-y,1/2-x,1/2-z
1/2-x,1/2+y,1/2+z
1/2+x,1/2-y,1/2+z
loop_
_atom_site_type_symbol
_atom_site_label
_atom_site_fract_x
_atom_site_fract_y
_atom_site_fract_z
Si Si1 0.500000 0.500000 0.175106
Si Si2 0.000000 0.500000 0.750000
Si Si3 0.000000 0.000000 0.500000
Si Si4 0.824604 0.737878 0.081424
O O1 0.535772 0.252672 0.212931
O O2 0.714215 0.625718 0.135729
O O3 0.228397 0.091690 0.460335
O O4 0.000000 0.500000 0.061519
O O5 0.000000 0.000000 0.086226
#
# Coordination Sequence:
#
# PCOD9558756 Si02
#       4
#     4   2   2   8
#     4  11  28  49  74 118 148 207 260 331 390 482
#     4  12  28  48  84 112 158 202 264 326 404 464
#     4  10  28  44  72 120 152 204 272 322 400 482
#     4  11  26  48  78 109 158 206 260 328 396 477
#
# _framework density 23.952766
#
# number of rings (size 3 to 8) (size 9 to 14) (size 15 to 20)
#    0.000    1.000    0.000    3.000   17.500    4.000 
#    0.000    0.000    0.000    0.000    0.000    0.000 
#    0.000    0.000    0.000    0.000    0.000    0.000 
#
# Total GULP energy -89232.994766 kJ/mol
# GULP energy per Si atom -5577.062173 kJ/mol
# Density = 2.389825 g / cm^3
# Si number density = 23.952766 Si / 1000 Ang^3
#
#
#
# Elastic Constant Matrix: (Units=GPa)
#
#
# Indices 1 2 3 4 5 6 
#
# 1 192.5534 80.7454 88.7423 0.0000 0.0000 0.0000
# 2 80.7454 192.5534 88.7423 0.0000 0.0000 0.0000
# 3 88.7423 88.7423 218.6396 0.0000 0.0000 0.0000
# 4 0.0000 0.0000 0.0000 156.8126 0.0000 0.0000
# 5 0.0000 0.0000 0.0000 0.0000 156.8126 0.0000
# 6 0.0000 0.0000 0.0000 0.0000 0.0000 58.9468
#
#
#
# Elastic Compliance Matrix: (Units=1/GPa)
#
#
# Indices 1 2 3 4 5 6 
#
# 1 0.006956 -0.001988 -0.002017 0.000000 0.000000 0.000000
# 2 -0.001988 0.006956 -0.002017 0.000000 0.000000 0.000000
# 3 -0.002017 -0.002017 0.006211 0.000000 0.000000 0.000000
# 4 0.000000 0.000000 0.000000 0.006377 0.000000 0.000000
# 5 0.000000 0.000000 0.000000 0.000000 0.006377 0.000000
# 6 0.000000 0.000000 0.000000 0.000000 0.000000 0.016964
#
#
# Mechanical properties :
#
#
# Convention : Reuss Voigt Hill
#
# Bulk Modulus (GPa) = 123.74146 124.46739 124.10442
# Shear Modulus (GPa) = 77.42599 97.54882 87.48740
#
# Velocity S-wave (km/s) = 5.69163 6.38858 6.05015
# Velocity P-wave (km/s) = 9.74503 10.31964 10.03645
#
# Compressibility (1/GPa) = 0.00808137
#
# Stress axis : x y z
#
# Youngs Moduli (GPa) = 143.75471 143.75471 161.00883
#
# Poissons Ratio (x) = 0.28573 0.32471
# Poissons Ratio (y) = 0.28573 0.32471
# Poissons Ratio (z) = 0.28991 0.28991
#
# Static dielectric constant tensor:
#      x y z
#    x -3.584510 0.000000 0.000000 
#    y 0.000000 -3.584510 0.000000 
#    z 0.000000 0.000000 1.917960 
# 
# From -- ./inp_files/5115.got.cif
#   From: 2010.05.17/outbox.cif.g08.bks.cpg/sg118_3_cif.got.tgz:5115.got - 2010.05.20 11:17:24.
