data_PCOD9558237
_publ_section_title
;
Structure prediction by ZEFSAII (Michael W. Deem and Ramdas Pophale) SiO2 
 PCOD9558237
Probable space group: P -4 B 2
;
_chemical_formula_sum "Si O2"
_cell_formula_units_Z 36
_cell_length_a 10.463056
_cell_length_b 10.463056
_cell_length_c 12.049311
_cell_angle_alpha 90.000000
_cell_angle_beta 90.000000
_cell_angle_gamma 90.000000
_cell_volume 1319.104839
_symmetry_space_group_name_H-M "P -4 B 2"
_symmetry_group_IT_number 117
_symmetry_cell_setting 'tetragonal'
loop_
_space_group_symop_operation_xyz
x,y,z
y,-x,-z
-x,-y,z
-y,x,-z
1/2+y,1/2+x,-z
1/2-y,1/2-x,-z
1/2-x,1/2+y,z
1/2+x,1/2-y,z
loop_
_atom_site_type_symbol
_atom_site_label
_atom_site_fract_x
_atom_site_fract_y
_atom_site_fract_z
Si Si1 0.778674 0.505011 0.686801
Si Si2 0.644215 0.098613 0.124040
Si Si3 0.146442 0.144778 0.534852
Si Si4 0.500000 0.000000 0.500000
Si Si5 0.682976 0.361884 0.170848
Si Si6 0.500000 0.500000 0.000000
O O1 0.860143 0.527774 0.796542
O O2 0.668281 0.495860 0.479034
O O3 0.690335 0.384501 0.660814
O O4 0.882105 0.505651 0.586899
O O5 0.734478 0.225094 0.129867
O O6 0.719334 0.977423 0.169106
O O7 0.594257 0.094257 0.000000
O O8 0.241378 0.258623 0.500000
O O9 0.117331 0.173645 0.289201
O O10 0.574610 0.404030 0.081884
#
# Coordination Sequence:
#
# PCOD9558237 Si02
#       6
#     8   8   8   2   8   2
#     4  10  26  49  88 121 186 241 319 398 480 575
#     4  10  22  51  86 133 178 246 313 397 487 585
#     4  11  27  55  88 128 179 246 312 388 473 571
#     4  12  24  56  82 136 178 270 328 426 468 600
#     4  10  23  47  81 128 178 253 302 406 473 590
#     4  12  20  44  84 120 194 240 320 376 508 578
#
# _framework density 27.291236999999999
#
# number of rings (size 3 to 8) (size 9 to 14) (size 15 to 20)
#    1.333    0.222    3.333    0.000    1.556    4.000 
#   12.000    1.667    4.889    0.000    0.000    0.000 
#    0.000    0.000    0.000    0.000    0.000    0.000 
#
# Total GULP energy -201072.385538 kJ/mol
# GULP energy per Si atom -5585.344043 kJ/mol
# Density = 2.722912 g / cm^3
# Si number density = 27.291237 Si / 1000 Ang^3
#
#
#
# Elastic Constant Matrix: (Units=GPa)
#
#
# Indices 1 2 3 4 5 6 
#
# 1 204.3517 95.6417 76.9548 0.0000 0.0000 0.0000
# 2 95.6417 204.3508 76.9542 0.0000 0.0000 0.0000
# 3 76.9548 76.9542 189.9964 0.0000 0.0000 0.0000
# 4 0.0000 0.0000 0.0000 48.6027 0.0000 0.0000
# 5 0.0000 0.0000 0.0000 0.0000 48.6028 0.0000
# 6 0.0000 0.0000 0.0000 0.0000 0.0000 66.8952
#
#
#
# Elastic Compliance Matrix: (Units=1/GPa)
#
#
# Indices 1 2 3 4 5 6 
#
# 1 0.006703 -0.002496 -0.001704 0.000000 0.000000 0.000000
# 2 -0.002496 0.006703 -0.001704 0.000000 0.000000 0.000000
# 3 -0.001704 -0.001704 0.006644 0.000000 0.000000 0.000000
# 4 0.000000 0.000000 0.000000 0.020575 0.000000 0.000000
# 5 0.000000 0.000000 0.000000 0.000000 0.020575 0.000000
# 6 0.000000 0.000000 0.000000 0.000000 0.000000 0.014949
#
#
# Mechanical properties :
#
#
# Convention : Reuss Voigt Hill
#
# Bulk Modulus (GPa) = 121.32592 121.97782 121.65187
# Shear Modulus (GPa) = 55.12393 56.09669 55.61031
#
# Velocity S-wave (km/s) = 4.49914 4.53866 4.51894
# Velocity P-wave (km/s) = 8.45826 8.50046 8.47939
#
# Compressibility (1/GPa) = 0.00824226
#
# Stress axis : x y z
#
# Youngs Moduli (GPa) = 149.18035 149.17999 150.51552
#
# Poissons Ratio (x) = 0.37228 0.25652
# Poissons Ratio (y) = 0.37228 0.25652
# Poissons Ratio (z) = 0.25425 0.25424
#
# Static dielectric constant tensor:
#      x y z
#    x 2.165760 0.000000 0.000000 
#    y 0.000000 2.165760 0.000000 
#    z 0.000000 0.000000 2.233380 
# 
# From -- ./inp_files/2574.got.cif
#   From: 2010.05.17/outbox.cif.g08.bks.cpg/sg117_2_cif.got.tgz:2574.got - 2010.05.20 11:15:09.
