data_PCOD9558737
_publ_section_title
;
Structure prediction by ZEFSAII (Michael W. Deem and Ramdas Pophale) SiO2 
 PCOD9558737
Probable space group: P -4 N 2
;
_chemical_formula_sum "Si O2"
_cell_formula_units_Z 28
_cell_length_a 15.732930
_cell_length_b 15.732930
_cell_length_c 5.418469
_cell_angle_alpha 90.000000
_cell_angle_beta 90.000000
_cell_angle_gamma 90.000000
_cell_volume 1341.207007
_symmetry_space_group_name_H-M "P -4 N 2"
_symmetry_group_IT_number 118
_symmetry_cell_setting 'tetragonal'
loop_
_space_group_symop_operation_xyz
x,y,z
y,-x,-z
-x,-y,z
-y,x,-z
1/2+y,1/2+x,1/2-z
1/2-y,1/2-x,1/2-z
1/2-x,1/2+y,1/2+z
1/2+x,1/2-y,1/2+z
loop_
_atom_site_type_symbol
_atom_site_label
_atom_site_fract_x
_atom_site_fract_y
_atom_site_fract_z
Si Si1 0.153947 0.801906 0.506260
Si Si2 0.159508 0.213616 0.987026
Si Si3 0.136516 0.558729 0.998843
Si Si4 0.613960 0.113960 0.250000
O O1 0.154652 0.851765 0.250274
O O2 0.240715 0.743524 0.497191
O O3 0.076097 0.737118 0.502511
O O4 0.168738 0.855943 0.753069
O O5 0.111697 0.300192 0.913762
O O6 0.104901 0.604901 0.750000
O O7 0.112863 0.462054 0.944295
O O8 0.095994 0.595994 0.250000
#
# Coordination Sequence:
#
# PCOD9558737 Si02
#       4
#     8   8   8   4
#     4   9  15  32  55  67  90 146 190 222 261 306
#     4   9  17  34  53  70  94 144 187 244 252 294
#     4  12  22  36  52  79 117 161 179 211 274 357
#     4  10  25  34  52  84 122 145 188 226 278 330
#
# _framework density 20.876719000000001
#
# number of rings (size 3 to 8) (size 9 to 14) (size 15 to 20)
#    0.000    2.286    5.714    0.429    0.000   11.429 
#    0.000    0.000    0.000    0.000    0.000    0.000 
#    0.000   37.714    0.000    0.000    0.000    0.000 
#
# Total GULP energy -156073.927379 kJ/mol
# GULP energy per Si atom -5574.068835 kJ/mol
# Density = 2.082920 g / cm^3
# Si number density = 20.876719 Si / 1000 Ang^3
#
#
#
# Elastic Constant Matrix: (Units=GPa)
#
#
# Indices 1 2 3 4 5 6 
#
# 1 19.1815 35.5111 41.3416 0.0000 0.0000 0.0000
# 2 35.5111 19.1815 41.3416 0.0000 0.0000 0.0000
# 3 41.3416 41.3416 253.3745 0.0000 0.0000 0.0000
# 4 0.0000 0.0000 0.0000 18.0689 0.0000 0.0000
# 5 0.0000 0.0000 0.0000 0.0000 18.0689 0.0000
# 6 0.0000 0.0000 0.0000 0.0000 0.0000 10.7701
#
#
#
# Elastic Compliance Matrix: (Units=1/GPa)
#
#
# Indices 1 2 3 4 5 6 
#
# 1 -0.018484 0.042755 -0.003960 0.000000 0.000000 0.000000
# 2 0.042755 -0.018484 -0.003960 0.000000 0.000000 0.000000
# 3 -0.003960 -0.003960 0.005239 0.000000 0.000000 0.000000
# 4 0.000000 0.000000 0.000000 0.055344 0.000000 0.000000
# 5 0.000000 0.000000 0.000000 0.000000 0.055344 0.000000
# 6 0.000000 0.000000 0.000000 0.000000 0.000000 0.092850
#
#
# Mechanical properties :
#
#
# Convention : Reuss Voigt Hill
#
# Bulk Modulus (GPa) = 26.35725 58.68069 42.51897
# Shear Modulus (GPa) = 43.55901 20.95110 32.25506
#
# Velocity S-wave (km/s) = 4.57276 3.17134 3.93495
# Velocity P-wave (km/s) = 6.36654 6.44819 6.40749
#
# Compressibility (1/GPa) = 0.03794023
#
# Stress axis : x y z
#
# Youngs Moduli (GPa) = -54.10143 -54.10143 190.87498
#
# Poissons Ratio (x) = 2.31309 0.75589
# Poissons Ratio (y) = 2.31309 0.75589
# Poissons Ratio (z) = -0.21425 -0.21425
#
# Static dielectric constant tensor:
#      x y z
#    x 1.797360 0.000000 0.000000 
#    y 0.000000 1.797360 0.000000 
#    z 0.000000 0.000000 1.841860 
# 
# From -- ./inp_files/430.got.cif
#   From: 2010.05.17/outbox.cif.g08.bks.cpg/sg118_1_cif.got.tgz:430.got - 2010.05.20 11:17:24.
