data_PCOD9558963
_publ_section_title
;
Structure prediction by ZEFSAII (Michael W. Deem and Ramdas Pophale) SiO2 
 PCOD9558963
Probable space group: I -4 M 2
;
_chemical_formula_sum "Si O2"
_cell_formula_units_Z 104
_cell_length_a 20.332469
_cell_length_b 20.332469
_cell_length_c 12.026415
_cell_angle_alpha 90.000000
_cell_angle_beta 90.000000
_cell_angle_gamma 90.000000
_cell_volume 4971.831754
_symmetry_space_group_name_H-M "I -4 M 2"
_symmetry_group_IT_number 119
_symmetry_cell_setting 'tetragonal'
loop_
_space_group_symop_operation_xyz
x,y,z
y,-x,-z
-x,-y,z
-y,x,-z
y,x,-z
-y,-x,-z
-x,y,z
x,-y,z
1/2+x,1/2+y,1/2+z
1/2+y,1/2-x,1/2-z
1/2-x,1/2-y,1/2+z
1/2-y,1/2+x,1/2-z
1/2+y,1/2+x,1/2-z
1/2-y,1/2-x,1/2-z
1/2-x,1/2+y,1/2+z
1/2+x,1/2-y,1/2+z
loop_
_atom_site_type_symbol
_atom_site_label
_atom_site_fract_x
_atom_site_fract_y
_atom_site_fract_z
Si Si1 0.641443 0.742480 0.445485
Si Si2 0.923935 0.707658 0.157030
Si Si3 0.155043 0.077794 0.766863
Si Si4 0.167168 0.617446 0.867247
Si Si5 0.078925 0.572841 0.066369
Si Si6 0.575292 0.575292 0.500000
Si Si7 0.694825 0.423663 0.782645
O O1 0.692014 0.692014 0.500000
O O2 0.585650 0.763539 0.532696
O O3 0.678443 0.809207 0.413459
O O4 0.607169 0.715382 0.336042
O O5 0.898064 0.768686 0.229495
O O6 0.000000 0.702219 0.186299
O O7 0.897823 0.633879 0.141698
O O8 0.122142 0.081702 0.891790
O O9 0.115050 0.127840 0.689369
O O10 0.152686 0.000000 0.737797
O O11 0.129536 0.629536 0.750000
O O12 0.119327 0.580049 0.952237
O O13 0.238580 0.585357 0.853395
O O14 0.089364 0.500000 0.114735
O O15 0.000000 0.580154 0.047504
O O16 0.583378 0.500000 0.539910
O O17 0.680075 0.500000 0.773383
#
# Coordination Sequence:
#
# PCOD9558963 Si02
#       7
#    16  16  16  16  16   8  16
#     4  10  17  30  46  65  90 123 169 203 243 287
#     4   9  16  26  41  63  91 121 155 197 236 282
#     4  10  18  27  40  62  93 129 160 188 234 290
#     4   9  20  31  44  65  94 128 168 202 245 292
#     4   9  17  29  45  65  92 129 166 198 237 287
#     4   9  16  24  34  52  80 116 156 188 212 260
#     4  11  20  30  44  66 100 135 165 200 245 298
#
# _framework density 20.917845
#
# number of rings (size 3 to 8) (size 9 to 14) (size 15 to 20)
#    0.000    2.385    1.538    2.308    0.000    6.462 
#    0.000    0.769    0.000    0.000    0.000    5.385 
#    0.000    2.462    0.000    0.000    0.000    4.462 
#
# Total GULP energy -289815.570111 kJ/mol
# GULP energy per Si atom -5573.376348 kJ/mol
# Density = 2.087023 g / cm^3
# Si number density = 20.917845 Si / 1000 Ang^3
#
#
#
# Elastic Constant Matrix: (Units=GPa)
#
#
# Indices 1 2 3 4 5 6 
#
# 1 130.8058 48.9482 19.8583 0.0000 0.0000 0.0000
# 2 48.9482 130.8058 19.8583 0.0000 0.0000 0.0000
# 3 19.8583 19.8583 32.2188 0.0000 0.0000 0.0000
# 4 0.0000 0.0000 0.0000 4.0815 0.0000 0.0000
# 5 0.0000 0.0000 0.0000 0.0000 4.0815 0.0000
# 6 0.0000 0.0000 0.0000 0.0000 0.0000 29.7216
#
#
#
# Elastic Compliance Matrix: (Units=1/GPa)
#
#
# Indices 1 2 3 4 5 6 
#
# 1 0.009328 -0.002888 -0.003969 0.000000 0.000000 0.000000
# 2 -0.002888 0.009328 -0.003969 0.000000 0.000000 0.000000
# 3 -0.003969 -0.003969 0.035931 0.000000 0.000000 0.000000
# 4 0.000000 0.000000 0.000000 0.245005 0.000000 0.000000
# 5 0.000000 0.000000 0.000000 0.000000 0.245005 0.000000
# 6 0.000000 0.000000 0.000000 0.000000 0.000000 0.033646
#
#
# Mechanical properties :
#
#
# Convention : Reuss Voigt Hill
#
# Bulk Modulus (GPa) = 30.36415 52.35112 41.35763
# Shear Modulus (GPa) = 8.18497 21.25465 14.71981
#
# Velocity S-wave (km/s) = 1.98025 3.19109 2.65561
# Velocity P-wave (km/s) = 4.44702 6.21762 5.40531
#
# Compressibility (1/GPa) = 0.03293357
#
# Stress axis : x y z
#
# Youngs Moduli (GPa) = 107.20099 107.20099 27.83107
#
# Poissons Ratio (x) = 0.30960 0.11047
# Poissons Ratio (y) = 0.30960 0.11047
# Poissons Ratio (z) = 0.42553 0.42553
#
# Static dielectric constant tensor:
#      x y z
#    x 1.783480 0.000000 0.000000 
#    y 0.000000 1.783480 0.000000 
#    z 0.000000 0.000000 1.754350 
# 
# From -- ./inp_files/5596.got.cif
#   From: 2010.05.17/outbox.cif.g08.bks.cpg/sg119_3_cif.got.tgz:5596.got - 2010.05.20 11:21:29.
