data_PCOD9558006
_publ_section_title
;
Structure prediction by ZEFSAII (Michael W. Deem and Ramdas Pophale) SiO2 
 PCOD9558006
Probable space group: P -4 C 2
;
_chemical_formula_sum "Si O2"
_cell_formula_units_Z 40
_cell_length_a 14.052662
_cell_length_b 14.052662
_cell_length_c 9.039456
_cell_angle_alpha 90.000000
_cell_angle_beta 90.000000
_cell_angle_gamma 90.000000
_cell_volume 1785.087448
_symmetry_space_group_name_H-M "P -4 C 2"
_symmetry_group_IT_number 116
_symmetry_cell_setting 'tetragonal'
loop_
_space_group_symop_operation_xyz
x,y,z
y,-x,-z
-x,-y,z
-y,x,-z
y,x,1/2-z
-y,-x,1/2-z
-x,y,1/2+z
x,-y,1/2+z
loop_
_atom_site_type_symbol
_atom_site_label
_atom_site_fract_x
_atom_site_fract_y
_atom_site_fract_z
Si Si1 0.815240 0.432372 0.374866
Si Si2 0.963790 0.609900 0.116154
Si Si3 0.570950 0.615548 0.578436
Si Si4 0.158815 0.285010 0.640285
Si Si5 0.344305 0.791228 0.673013
O O1 0.912126 0.404586 0.456875
O O2 0.720811 0.392862 0.452214
O O3 0.806406 0.384091 0.215007
O O4 0.798726 0.544239 0.369352
O O5 0.047471 0.687393 0.125469
O O6 0.000000 0.500000 0.154883
O O7 0.881495 0.654032 0.217296
O O8 0.613418 0.539113 0.467499
O O9 0.587215 0.587215 0.750000
O O10 0.202922 0.202922 0.750000
O O11 0.190980 0.280334 0.471832
O O12 0.302016 0.697985 0.750000
#
# Coordination Sequence:
#
# PCOD9558006 Si02
#       5
#     8   8   8   8   8
#     4  12  26  45  73 104 151 208 276 330 405 481
#     4  12  25  49  79 109 151 210 277 345 409 485
#     4  11  27  45  62  94 145 209 266 312 377 462
#     4  12  27  47  71 111 154 203 266 348 416 494
#     4  12  27  43  72 113 153 203 268 337 414 490
#
# _framework density 22.407867
#
# number of rings (size 3 to 8) (size 9 to 14) (size 15 to 20)
#    0.000    0.200    4.000    4.200   11.200    1.600 
#    0.000    0.000    0.000    0.600    0.000    2.800 
#    0.000    1.600    0.000    0.000    0.000    0.000 
#
# Total GULP energy -223252.678377 kJ/mol
# GULP energy per Si atom -5581.316959 kJ/mol
# Density = 2.235687 g / cm^3
# Si number density = 22.407867 Si / 1000 Ang^3
#
#
#
# Elastic Constant Matrix: (Units=GPa)
#
#
# Indices 1 2 3 4 5 6 
#
# 1 87.6945 27.9515 41.0939 0.0000 0.0000 0.0000
# 2 27.9515 87.6977 41.0948 0.0000 0.0000 0.0000
# 3 41.0939 41.0948 128.4812 0.0000 0.0000 0.0000
# 4 0.0000 0.0000 0.0000 33.4376 0.0000 0.0000
# 5 0.0000 0.0000 0.0000 0.0000 33.4371 0.0000
# 6 0.0000 0.0000 0.0000 0.0000 0.0000 47.3197
#
#
#
# Elastic Compliance Matrix: (Units=1/GPa)
#
#
# Indices 1 2 3 4 5 6 
#
# 1 0.013965 -0.002774 -0.003579 0.000000 0.000000 0.000000
# 2 -0.002774 0.013964 -0.003579 0.000000 0.000000 0.000000
# 3 -0.003579 -0.003579 0.010073 0.000000 0.000000 0.000000
# 4 0.000000 0.000000 0.000000 0.029906 0.000000 0.000000
# 5 0.000000 0.000000 0.000000 0.000000 0.029907 0.000000
# 6 0.000000 0.000000 0.000000 0.000000 0.000000 0.021133
#
#
# Mechanical properties :
#
#
# Convention : Reuss Voigt Hill
#
# Bulk Modulus (GPa) = 55.13569 58.23929 56.68749
# Shear Modulus (GPa) = 34.51658 35.75443 35.13551
#
# Velocity S-wave (km/s) = 3.92902 3.99885 3.96409
# Velocity P-wave (km/s) = 6.72621 6.88245 6.80478
#
# Compressibility (1/GPa) = 0.01813707
#
# Stress axis : x y z
#
# Youngs Moduli (GPa) = 71.60984 71.61235 99.27614
#
# Poissons Ratio (x) = 0.19862 0.35534
# Poissons Ratio (y) = 0.19862 0.35534
# Poissons Ratio (z) = 0.25632 0.25632
#
# Static dielectric constant tensor:
#      x y z
#    x 1.912350 0.000000 0.000000 
#    y 0.000000 1.912350 0.000000 
#    z 0.000000 0.000000 1.929330 
# 
# From -- ./inp_files/768.got.cif
#   From: 2010.05.17/outbox.cif.g08.bks.cpg/sg116_1_cif.got.tgz:768.got - 2010.05.20 11:11:43.
