data_PCOD9558954
_publ_section_title
;
Structure prediction by ZEFSAII (Michael W. Deem and Ramdas Pophale) SiO2 
 PCOD9558954
Probable space group: I -4 M 2
;
_chemical_formula_sum "Si O2"
_cell_formula_units_Z 108
_cell_length_a 14.708219
_cell_length_b 14.708219
_cell_length_c 31.213861
_cell_angle_alpha 90.000000
_cell_angle_beta 90.000000
_cell_angle_gamma 90.000000
_cell_volume 6752.547806
_symmetry_space_group_name_H-M "I -4 M 2"
_symmetry_group_IT_number 119
_symmetry_cell_setting 'tetragonal'
loop_
_space_group_symop_operation_xyz
x,y,z
y,-x,-z
-x,-y,z
-y,x,-z
y,x,-z
-y,-x,-z
-x,y,z
x,-y,z
1/2+x,1/2+y,1/2+z
1/2+y,1/2-x,1/2-z
1/2-x,1/2-y,1/2+z
1/2-y,1/2+x,1/2-z
1/2+y,1/2+x,1/2-z
1/2-y,1/2-x,1/2-z
1/2-x,1/2+y,1/2+z
1/2+x,1/2-y,1/2+z
loop_
_atom_site_type_symbol
_atom_site_label
_atom_site_fract_x
_atom_site_fract_y
_atom_site_fract_z
Si Si1 0.104457 0.263229 0.373991
Si Si2 0.862846 0.862256 0.951488
Si Si3 0.395573 0.146480 0.450209
Si Si4 0.602989 0.710729 0.087308
Si Si5 0.500000 0.500000 0.585226
Si Si6 0.146659 0.605414 0.450578
Si Si7 0.110370 0.396356 0.298234
Si Si8 0.893652 0.106348 0.500000
O O1 0.169468 0.177571 0.381263
O O2 0.105385 0.325666 0.416580
O O3 0.137513 0.327117 0.335194
O O4 0.000000 0.234545 0.366126
O O5 0.883530 0.755633 0.948041
O O6 0.920857 0.921020 0.919071
O O7 0.755657 0.880591 0.947897
O O8 0.890502 0.890502 0.000000
O O9 0.500000 0.122865 0.440483
O O10 0.318659 0.107185 0.419501
O O11 0.377570 0.119751 0.499952
O O12 0.500000 0.682553 0.097657
O O13 0.626899 0.667892 0.040754
O O14 0.125025 0.500000 0.440685
O O15 0.142693 0.500000 0.305663
O O16 0.133951 0.366050 0.250000
O O17 0.000000 0.399974 0.299072
O O18 0.000000 0.118908 0.488524
#
# Coordination Sequence:
#
# PCOD9558954 Si02
#       8
#    16  16  16  16   4  16  16   8
#     4  11  21  32  49  72  98 125 157 199 241 282
#     4  10  17  25  39  59  83 114 153 199 243 281
#     4  10  20  32  44  59  86 127 170 209 245 284
#     4  11  22  34  47  64  91 126 169 215 249 279
#     4  12  17  24  44  64  80 112 168 216 248 288
#     4  10  19  29  43  66  95 124 160 200 247 289
#     4   8  15  30  52  78 106 129 146 170 218 292
#     4   9  18  32  48  64  86 125 168 206 252 295
#
# _framework density 15.993963000000001
#
# number of rings (size 3 to 8) (size 9 to 14) (size 15 to 20)
#    0.000    2.000    2.963    2.889    1.037    3.852 
#    0.000    1.481    0.000    0.000    0.000    1.037 
#    0.000    1.185    0.000    0.000    0.000    0.000 
#
# Total GULP energy -300866.717242 kJ/mol
# GULP energy per Si atom -5571.605875 kJ/mol
# Density = 1.595756 g / cm^3
# Si number density = 15.993963 Si / 1000 Ang^3
#
#
#
# Elastic Constant Matrix: (Units=GPa)
#
#
# Indices 1 2 3 4 5 6 
#
# 1 68.7780 29.9987 36.8779 0.0000 0.0000 0.0000
# 2 29.9987 68.7778 36.8780 0.0000 0.0000 0.0000
# 3 36.8779 36.8780 51.8999 0.0000 0.0000 0.0000
# 4 0.0000 0.0000 0.0000 13.1285 0.0000 0.0000
# 5 0.0000 0.0000 0.0000 0.0000 13.1284 0.0000
# 6 0.0000 0.0000 0.0000 0.0000 0.0000 6.5588
#
#
#
# Elastic Compliance Matrix: (Units=1/GPa)
#
#
# Indices 1 2 3 4 5 6 
#
# 1 0.023677 -0.002110 -0.015324 0.000000 0.000000 0.000000
# 2 -0.002110 0.023677 -0.015324 0.000000 0.000000 0.000000
# 3 -0.015324 -0.015324 0.041045 0.000000 0.000000 0.000000
# 4 0.000000 0.000000 0.000000 0.076170 0.000000 0.000000
# 5 0.000000 0.000000 0.000000 0.000000 0.076170 0.000000
# 6 0.000000 0.000000 0.000000 0.000000 0.000000 0.152467
#
#
# Mechanical properties :
#
#
# Convention : Reuss Voigt Hill
#
# Bulk Modulus (GPa) = 43.70376 44.10722 43.90549
# Shear Modulus (GPa) = 10.72154 12.27655 11.49905
#
# Velocity S-wave (km/s) = 2.59192 2.77352 2.68425
# Velocity P-wave (km/s) = 6.02842 6.15580 6.09244
#
# Compressibility (1/GPa) = 0.02288133
#
# Stress axis : x y z
#
# Youngs Moduli (GPa) = 42.23580 42.23556 24.36332
#
# Poissons Ratio (x) = 0.08913 0.37335
# Poissons Ratio (y) = 0.08913 0.37335
# Poissons Ratio (z) = 0.64723 0.64723
#
# Static dielectric constant tensor:
#      x y z
#    x 1.561700 0.000000 0.000000 
#    y 0.000000 1.561700 0.000000 
#    z 0.000000 0.000000 1.518370 
# 
# From -- ./inp_files/10521.got.cif
#   From: 2010.05.17/outbox.cif.g08.bks.cpg/sg119_6_cif.got.tgz:10521.got - 2010.05.20 11:21:29.
