data_PCOD9558882
_publ_section_title
;
Structure prediction by ZEFSAII (Michael W. Deem and Ramdas Pophale) SiO2 
 PCOD9558882
Probable space group: P -4 N 2
;
_chemical_formula_sum "Si O2"
_cell_formula_units_Z 32
_cell_length_a 9.839914
_cell_length_b 9.839914
_cell_length_c 12.554423
_cell_angle_alpha 90.000000
_cell_angle_beta 90.000000
_cell_angle_gamma 90.000000
_cell_volume 1215.568292
_symmetry_space_group_name_H-M "P -4 N 2"
_symmetry_group_IT_number 118
_symmetry_cell_setting 'tetragonal'
loop_
_space_group_symop_operation_xyz
x,y,z
y,-x,-z
-x,-y,z
-y,x,-z
1/2+y,1/2+x,1/2-z
1/2-y,1/2-x,1/2-z
1/2-x,1/2+y,1/2+z
1/2+x,1/2-y,1/2+z
loop_
_atom_site_type_symbol
_atom_site_label
_atom_site_fract_x
_atom_site_fract_y
_atom_site_fract_z
Si Si1 0.313273 0.429718 0.539874
Si Si2 0.157723 0.479086 0.966683
Si Si3 0.946436 0.236043 0.307712
Si Si4 0.189334 0.055832 0.264576
O O1 0.346000 0.545354 0.451185
O O2 0.185245 0.332437 0.529971
O O3 0.303589 0.049986 0.355398
O O4 0.233837 0.538662 0.067671
O O5 0.411315 0.620604 0.204614
O O6 0.000000 0.500000 0.987228
O O7 0.855178 0.355178 0.250000
O O8 0.098740 0.191824 0.270726
O O9 0.782674 0.978255 0.142417
#
# Coordination Sequence:
#
# PCOD9558882 Si02
#       4
#     8   8   8   8
#     4  11  26  49  77 111 160 219 277 355 430 507
#     4  12  29  46  74 118 161 216 284 357 423 522
#     4  11  25  49  82 119 157 214 278 351 427 522
#     4  11  26  50  83 111 165 221 274 356 442 519
#
# _framework density 26.325137000000002
#
# number of rings (size 3 to 8) (size 9 to 14) (size 15 to 20)
#    0.000    0.750    0.000    6.750   14.000    4.500 
#    0.000    0.000    0.000    0.000    0.000    0.000 
#    0.000    0.000    0.000    0.000    0.000    0.000 
#
# Total GULP energy -178853.203793 kJ/mol
# GULP energy per Si atom -5589.162619 kJ/mol
# Density = 2.626522 g / cm^3
# Si number density = 26.325137 Si / 1000 Ang^3
#
#
#
# Elastic Constant Matrix: (Units=GPa)
#
#
# Indices 1 2 3 4 5 6 
#
# 1 114.1122 104.1472 42.5544 0.0000 0.0000 0.0000
# 2 104.1472 114.1122 42.5544 0.0000 0.0000 0.0000
# 3 42.5544 42.5544 144.2891 0.0000 0.0000 0.0000
# 4 0.0000 0.0000 0.0000 17.3323 0.0000 0.0000
# 5 0.0000 0.0000 0.0000 0.0000 17.3323 0.0000
# 6 0.0000 0.0000 0.0000 0.0000 0.0000 73.6125
#
#
#
# Elastic Compliance Matrix: (Units=1/GPa)
#
#
# Indices 1 2 3 4 5 6 
#
# 1 0.052765 -0.047588 -0.001527 0.000000 0.000000 0.000000
# 2 -0.047588 0.052765 -0.001527 0.000000 0.000000 0.000000
# 3 -0.001527 -0.001527 0.007831 0.000000 0.000000 0.000000
# 4 0.000000 0.000000 0.000000 0.057696 0.000000 0.000000
# 5 0.000000 0.000000 0.000000 0.000000 0.057696 0.000000
# 6 0.000000 0.000000 0.000000 0.000000 0.000000 0.013585
#
#
# Mechanical properties :
#
#
# Convention : Reuss Voigt Hill
#
# Bulk Modulus (GPa) = 82.79573 83.44728 83.12150
# Shear Modulus (GPa) = 14.38248 33.87256 24.12752
#
# Velocity S-wave (km/s) = 2.33993 3.59095 3.03069
# Velocity P-wave (km/s) = 6.23056 6.99720 6.62498
#
# Compressibility (1/GPa) = 0.01207792
#
# Stress axis : x y z
#
# Youngs Moduli (GPa) = 18.95209 18.95209 127.69526
#
# Poissons Ratio (x) = 0.90188 0.19497
# Poissons Ratio (y) = 0.90188 0.19497
# Poissons Ratio (z) = 0.02894 0.02894
#
# Static dielectric constant tensor:
#      x y z
#    x 2.170750 0.000000 0.000000 
#    y 0.000000 2.170750 0.000000 
#    z 0.000000 0.000000 2.107440 
# 
# From -- ./inp_files/5903.got.cif
#   From: 2010.05.17/outbox.cif.g08.bks.cpg/sg118_3_cif.got.tgz:5903.got - 2010.05.20 11:17:24.
