data_PCOD9558466
_publ_section_title
;
Structure prediction by ZEFSAII (Michael W. Deem and Ramdas Pophale) SiO2 
 PCOD9558466
Probable space group: P -4 N 2
;
_chemical_formula_sum "Si O2"
_cell_formula_units_Z 58
_cell_length_a 16.921424
_cell_length_b 16.921424
_cell_length_c 9.607391
_cell_angle_alpha 90.000000
_cell_angle_beta 90.000000
_cell_angle_gamma 90.000000
_cell_volume 2750.928365
_symmetry_space_group_name_H-M "P -4 N 2"
_symmetry_group_IT_number 118
_symmetry_cell_setting 'tetragonal'
loop_
_space_group_symop_operation_xyz
x,y,z
y,-x,-z
-x,-y,z
-y,x,-z
1/2+y,1/2+x,1/2-z
1/2-y,1/2-x,1/2-z
1/2-x,1/2+y,1/2+z
1/2+x,1/2-y,1/2+z
loop_
_atom_site_type_symbol
_atom_site_label
_atom_site_fract_x
_atom_site_fract_y
_atom_site_fract_z
Si Si1 0.438561 0.385910 0.537514
Si Si2 0.410570 0.702018 0.970099
Si Si3 0.000000 0.000000 0.500000
Si Si4 0.033237 0.716725 0.994254
Si Si5 0.086819 0.540628 0.971844
Si Si6 0.188289 0.438526 0.770837
Si Si7 0.129209 0.073190 0.640796
Si Si8 0.671818 0.046094 0.715564
O O1 0.400909 0.465690 0.473109
O O2 0.422519 0.299920 0.472275
O O3 0.411388 0.371699 0.696650
O O4 0.488463 0.667052 0.892976
O O5 0.391005 0.770810 0.861179
O O6 0.432901 0.743666 0.115151
O O7 0.347390 0.637428 0.023642
O O8 0.936368 0.036781 0.398516
O O9 0.995170 0.708573 0.148659
O O10 0.079261 0.634844 0.969883
O O11 0.965490 0.716757 0.878603
O O12 0.125420 0.500596 0.835996
O O13 0.000000 0.500000 0.990131
O O14 0.144231 0.517109 0.099880
O O15 0.143642 0.356359 0.750000
O O16 0.592458 0.092458 0.750000
#
# Coordination Sequence:
#
# PCOD9558466 Si02
#       8
#     8   8   2   8   8   8   8   8
#     4  11  24  42  67  97 134 172 225 284 345 411
#     4  10  22  39  67  92 133 172 224 276 340 411
#     4   8  16  28  62  88 108 156 216 254 304 360
#     4  12  22  36  65  98 133 165 225 292 332 401
#     4  11  21  37  65  95 128 172 225 278 326 404
#     4  11  22  38  62  96 132 173 226 274 333 400
#     4  10  19  39  63  94 124 170 217 271 329 407
#     4  11  21  38  64  97 131 177 230 276 336 406
#
# _framework density 21.083791999999999
#
# number of rings (size 3 to 8) (size 9 to 14) (size 15 to 20)
#    0.000    1.241    4.138    3.310    0.000    2.207 
#    0.000    0.000   18.207    0.000    0.000    0.000 
#    0.000    0.000    0.000    0.000    0.000    0.000 
#
# Total GULP energy -323141.439519 kJ/mol
# GULP energy per Si atom -5571.404130 kJ/mol
# Density = 2.103580 g / cm^3
# Si number density = 21.083792 Si / 1000 Ang^3
#
#
#
# Elastic Constant Matrix: (Units=GPa)
#
#
# Indices 1 2 3 4 5 6 
#
# 1 61.1992 -9.1079 1.5661 0.0000 0.0000 0.0000
# 2 -9.1079 61.1994 1.5673 0.0000 0.0000 0.0000
# 3 1.5661 1.5673 89.3104 0.0000 0.0000 0.0000
# 4 0.0000 0.0000 0.0000 27.5747 0.0000 0.0000
# 5 0.0000 0.0000 0.0000 0.0000 27.5752 0.0000
# 6 0.0000 0.0000 0.0000 0.0000 0.0000 12.9880
#
#
#
# Elastic Compliance Matrix: (Units=1/GPa)
#
#
# Indices 1 2 3 4 5 6 
#
# 1 0.016720 0.002497 -0.000337 0.000000 0.000000 0.000000
# 2 0.002497 0.016720 -0.000337 0.000000 0.000000 0.000000
# 3 -0.000337 -0.000337 0.011209 0.000000 0.000000 0.000000
# 4 0.000000 0.000000 0.000000 0.036265 0.000000 0.000000
# 5 0.000000 0.000000 0.000000 0.000000 0.036264 0.000000
# 6 0.000000 0.000000 0.000000 0.000000 0.000000 0.076994
#
#
# Mechanical properties :
#
#
# Convention : Reuss Voigt Hill
#
# Bulk Modulus (GPa) = 20.70614 22.19557 21.45086
# Shear Modulus (GPa) = 24.19835 28.13982 26.16908
#
# Velocity S-wave (km/s) = 3.39148 3.65727 3.52688
# Velocity P-wave (km/s) = 5.01781 5.32770 5.17507
#
# Compressibility (1/GPa) = 0.04829486
#
# Stress axis : x y z
#
# Youngs Moduli (GPa) = 59.80745 59.80760 89.21617
#
# Poissons Ratio (x) = -0.14934 0.03007
# Poissons Ratio (y) = -0.14934 0.03009
# Poissons Ratio (z) = 0.02016 0.02017
#
# Static dielectric constant tensor:
#      x y z
#    x 1.880410 0.000000 0.000000 
#    y 0.000000 1.880410 0.000000 
#    z 0.000000 0.000000 1.806400 
# 
# From -- ./inp_files/2230.got.cif
#   From: 2010.05.17/outbox.cif.g08.bks.cpg/sg118_2_cif.got.tgz:2230.got - 2010.05.20 11:17:24.
