data_PCOD9558426
_publ_section_title
;
Structure prediction by ZEFSAII (Michael W. Deem and Ramdas Pophale) SiO2 
 PCOD9558426
Probable space group: P -4 N 2
;
_chemical_formula_sum "Si O2"
_cell_formula_units_Z 56
_cell_length_a 12.599905
_cell_length_b 12.599905
_cell_length_c 24.071168
_cell_angle_alpha 90.000000
_cell_angle_beta 90.000000
_cell_angle_gamma 90.000000
_cell_volume 3821.481006
_symmetry_space_group_name_H-M "P -4 N 2"
_symmetry_group_IT_number 118
_symmetry_cell_setting 'tetragonal'
loop_
_space_group_symop_operation_xyz
x,y,z
y,-x,-z
-x,-y,z
-y,x,-z
1/2+y,1/2+x,1/2-z
1/2-y,1/2-x,1/2-z
1/2-x,1/2+y,1/2+z
1/2+x,1/2-y,1/2+z
loop_
_atom_site_type_symbol
_atom_site_label
_atom_site_fract_x
_atom_site_fract_y
_atom_site_fract_z
Si Si1 0.356350 0.605501 0.064871
Si Si2 0.821235 0.255504 0.326871
Si Si3 0.708997 0.268364 0.836159
Si Si4 0.603177 0.645819 0.063414
Si Si5 0.880205 0.131145 0.775353
Si Si6 0.610676 0.029654 0.689752
Si Si7 0.121978 0.871021 0.224197
O O1 0.280691 0.656926 0.110582
O O2 0.476583 0.647333 0.072327
O O3 0.363091 0.477704 0.072226
O O4 0.326314 0.625006 0.000739
O O5 0.832695 0.155504 0.285523
O O6 0.712089 0.317565 0.315604
O O7 0.919402 0.327698 0.306311
O O8 0.715884 0.334812 0.892230
O O9 0.811348 0.202176 0.817279
O O10 0.672156 0.345503 0.785757
O O11 0.614652 0.182374 0.841030
O O12 0.005106 0.141303 0.786498
O O13 0.852900 0.005414 0.777928
O O14 0.580630 0.080630 0.750000
O O15 0.500000 0.000000 0.661505
#
# Coordination Sequence:
#
# PCOD9558426 Si02
#       7
#     8   8   8   8   8   8   8
#     4   9  17  30  47  74  96 121 153 200 239 293
#     4  11  18  29  48  70  98 128 157 191 249 285
#     4  11  17  29  47  71  95 129 153 196 240 290
#     4   9  17  29  49  72  98 118 156 198 244 283
#     4  10  19  30  45  69  99 125 162 189 236 288
#     4  11  18  26  43  72 106 123 148 195 257 299
#     4  10  19  30  45  69  97 128 157 194 229 295
#
# _framework density 14.654004
#
# number of rings (size 3 to 8) (size 9 to 14) (size 15 to 20)
#    0.000    1.857    4.286    4.286    0.000    2.286 
#    0.000    0.000    0.000   18.000    0.000    2.000 
#    0.000    0.000    0.000    0.000    0.000    0.000 
#
# Total GULP energy -312060.150382 kJ/mol
# GULP energy per Si atom -5572.502685 kJ/mol
# Density = 1.462065 g / cm^3
# Si number density = 14.654004 Si / 1000 Ang^3
#
#
#
# Elastic Constant Matrix: (Units=GPa)
#
#
# Indices 1 2 3 4 5 6 
#
# 1 88.1283 46.7364 47.1651 0.0000 0.0000 0.0000
# 2 46.7364 88.1283 47.1651 0.0000 0.0000 0.0000
# 3 47.1651 47.1651 96.8471 0.0000 0.0000 0.0000
# 4 0.0000 0.0000 0.0000 16.3171 0.0000 0.0000
# 5 0.0000 0.0000 0.0000 0.0000 16.3171 0.0000
# 6 0.0000 0.0000 0.0000 0.0000 0.0000 23.4581
#
#
#
# Elastic Compliance Matrix: (Units=1/GPa)
#
#
# Indices 1 2 3 4 5 6 
#
# 1 0.017702 -0.006457 -0.005477 0.000000 0.000000 0.000000
# 2 -0.006457 0.017702 -0.005477 0.000000 0.000000 0.000000
# 3 -0.005477 -0.005477 0.015660 0.000000 0.000000 0.000000
# 4 0.000000 0.000000 0.000000 0.061285 0.000000 0.000000
# 5 0.000000 0.000000 0.000000 0.000000 0.061285 0.000000
# 6 0.000000 0.000000 0.000000 0.000000 0.000000 0.042629
#
#
# Mechanical properties :
#
#
# Convention : Reuss Voigt Hill
#
# Bulk Modulus (GPa) = 61.56011 61.69302 61.62657
# Shear Modulus (GPa) = 19.49321 20.02093 19.75707
#
# Velocity S-wave (km/s) = 3.65119 3.70028 3.67582
# Velocity P-wave (km/s) = 7.73791 7.77479 7.75637
#
# Compressibility (1/GPa) = 0.01624429
#
# Stress axis : x y z
#
# Youngs Moduli (GPa) = 56.48966 56.48966 63.85776
#
# Poissons Ratio (x) = 0.36475 0.34972
# Poissons Ratio (y) = 0.36475 0.34972
# Poissons Ratio (z) = 0.30937 0.30937
#
# Static dielectric constant tensor:
#      x y z
#    x 1.494280 0.000000 0.000000 
#    y 0.000000 1.494280 0.000000 
#    z 0.000000 0.000000 1.485640 
# 
# From -- ./inp_files/6229.got.cif
#   From: 2010.05.17/outbox.cif.g08.bks.cpg/sg118_4_cif.got.tgz:6229.got - 2010.05.20 11:17:24.
