data_PCOD9558655
_publ_section_title
;
Structure prediction by ZEFSAII (Michael W. Deem and Ramdas Pophale) SiO2 
 PCOD9558655
Probable space group: P -4 N 2
;
_chemical_formula_sum "Si O2"
_cell_formula_units_Z 60
_cell_length_a 11.805648
_cell_length_b 11.805648
_cell_length_c 20.831199
_cell_angle_alpha 90.000000
_cell_angle_beta 90.000000
_cell_angle_gamma 90.000000
_cell_volume 2903.313462
_symmetry_space_group_name_H-M "P -4 N 2"
_symmetry_group_IT_number 118
_symmetry_cell_setting 'tetragonal'
loop_
_space_group_symop_operation_xyz
x,y,z
y,-x,-z
-x,-y,z
-y,x,-z
1/2+y,1/2+x,1/2-z
1/2-y,1/2-x,1/2-z
1/2-x,1/2+y,1/2+z
1/2+x,1/2-y,1/2+z
loop_
_atom_site_type_symbol
_atom_site_label
_atom_site_fract_x
_atom_site_fract_y
_atom_site_fract_z
Si Si1 0.468322 0.874896 0.158069
Si Si2 0.291337 0.791337 0.250000
Si Si3 0.583655 0.105657 0.478144
Si Si4 0.337352 0.520733 0.477477
Si Si5 0.289590 0.668272 0.845555
Si Si6 0.141829 0.125062 0.197634
Si Si7 0.127084 0.117729 0.841823
Si Si8 0.936048 0.836921 0.472003
O O1 0.407416 0.797524 0.210045
O O2 0.386729 0.895520 0.097983
O O3 0.579086 0.808385 0.135515
O O4 0.500000 0.000000 0.181665
O O5 0.194029 0.787681 0.198083
O O6 0.519281 0.214233 0.504721
O O7 0.708102 0.087447 0.507277
O O8 0.500000 0.000000 0.488538
O O9 0.406533 0.588390 0.532306
O O10 0.343811 0.601602 0.416166
O O11 0.223444 0.787821 0.838769
O O12 0.330740 0.638210 0.773427
O O13 0.387622 0.657065 0.899094
O O14 0.008409 0.135138 0.186528
O O15 0.167439 0.998452 0.171740
O O16 0.067966 0.869177 0.485243
#
# Coordination Sequence:
#
# PCOD9558655 Si02
#       8
#     8   4   8   8   8   8   8   8
#     4  11  23  38  66 100 137 171 221 291 354 411
#     4  12  23  40  62 103 134 176 218 298 344 411
#     4  11  26  45  68 104 139 183 233 290 354 416
#     4  11  24  43  71 101 134 185 232 295 354 416
#     4  11  22  43  68  98 136 179 233 282 351 418
#     4  10  22  39  68  95 131 181 226 286 340 417
#     4  11  23  41  65  97 138 176 234 281 350 415
#     4  11  25  44  69  99 143 189 228 277 350 432
#
# _framework density 20.666042000000001
#
# number of rings (size 3 to 8) (size 9 to 14) (size 15 to 20)
#    0.000    1.067    2.667    4.200    3.733    6.400 
#    2.400    0.000    0.000    0.000    0.000    0.000 
#    0.000    0.000    0.000    0.000    0.000    0.000 
#
# Total GULP energy -335216.780717 kJ/mol
# GULP energy per Si atom -5586.946345 kJ/mol
# Density = 2.061901 g / cm^3
# Si number density = 20.666042 Si / 1000 Ang^3
#
#
#
# Elastic Constant Matrix: (Units=GPa)
#
#
# Indices 1 2 3 4 5 6 
#
# 1 89.8340 39.9521 43.5723 0.0000 0.0000 0.0000
# 2 39.9521 89.8340 43.5723 0.0000 0.0000 0.0000
# 3 43.5723 43.5723 121.1363 0.0000 0.0000 0.0000
# 4 0.0000 0.0000 0.0000 22.2400 0.0000 0.0000
# 5 0.0000 0.0000 0.0000 0.0000 22.2400 0.0000
# 6 0.0000 0.0000 0.0000 0.0000 0.0000 29.1652
#
#
#
# Elastic Compliance Matrix: (Units=1/GPa)
#
#
# Indices 1 2 3 4 5 6 
#
# 1 0.015103 -0.004944 -0.003654 0.000000 0.000000 0.000000
# 2 -0.004944 0.015103 -0.003654 0.000000 0.000000 0.000000
# 3 -0.003654 -0.003654 0.010884 0.000000 0.000000 0.000000
# 4 0.000000 0.000000 0.000000 0.044964 0.000000 0.000000
# 5 0.000000 0.000000 0.000000 0.000000 0.044964 0.000000
# 6 0.000000 0.000000 0.000000 0.000000 0.000000 0.034287
#
#
# Mechanical properties :
#
#
# Convention : Reuss Voigt Hill
#
# Bulk Modulus (GPa) = 60.29600 61.66637 60.98119
# Shear Modulus (GPa) = 25.59667 26.30956 25.95311
#
# Velocity S-wave (km/s) = 3.52317 3.57190 3.54762
# Velocity P-wave (km/s) = 6.76683 6.84949 6.80829
#
# Compressibility (1/GPa) = 0.01658485
#
# Stress axis : x y z
#
# Youngs Moduli (GPa) = 66.21249 66.21249 91.87979
#
# Poissons Ratio (x) = 0.32739 0.33572
# Poissons Ratio (y) = 0.32739 0.33572
# Poissons Ratio (z) = 0.24194 0.24194
#
# Static dielectric constant tensor:
#      x y z
#    x 1.749890 0.000000 0.000000 
#    y 0.000000 1.749890 0.000000 
#    z 0.000000 0.000000 1.770990 
# 
# From -- ./inp_files/5773.got.cif
#   From: 2010.05.17/outbox.cif.g08.bks.cpg/sg118_3_cif.got.tgz:5773.got - 2010.05.20 11:17:24.
