data_PCOD9558802
_publ_section_title
;
Structure prediction by ZEFSAII (Michael W. Deem and Ramdas Pophale) SiO2 
 PCOD9558802
Probable space group: P -4 N 2
;
_chemical_formula_sum "Si O2"
_cell_formula_units_Z 24
_cell_length_a 7.766106
_cell_length_b 7.766106
_cell_length_c 17.353888
_cell_angle_alpha 90.000000
_cell_angle_beta 90.000000
_cell_angle_gamma 90.000000
_cell_volume 1046.654676
_symmetry_space_group_name_H-M "P -4 N 2"
_symmetry_group_IT_number 118
_symmetry_cell_setting 'tetragonal'
loop_
_space_group_symop_operation_xyz
x,y,z
y,-x,-z
-x,-y,z
-y,x,-z
1/2+y,1/2+x,1/2-z
1/2-y,1/2-x,1/2-z
1/2-x,1/2+y,1/2+z
1/2+x,1/2-y,1/2+z
loop_
_atom_site_type_symbol
_atom_site_label
_atom_site_fract_x
_atom_site_fract_y
_atom_site_fract_z
Si Si1 0.908819 0.678624 0.418384
Si Si2 0.759898 0.650343 0.906284
Si Si3 0.884220 0.294457 0.836700
O O1 0.833371 0.733421 0.501417
O O2 0.753756 0.650627 0.358579
O O3 0.000000 0.500000 0.434751
O O4 0.064832 0.797218 0.386102
O O5 0.806066 0.453762 0.885927
O O6 0.920914 0.742729 0.863196
O O7 0.859419 0.359419 0.750000
#
# Coordination Sequence:
#
# PCOD9558802 Si02
#       3
#     8   8   8
#     4  12  23  42  73 103 133 181 235 280 343 422
#     4  11  21  44  74  95 133 182 227 282 342 416
#     4  11  25  46  68 100 139 180 229 287 351 403
#
# _framework density 22.930199000000002
#
# number of rings (size 3 to 8) (size 9 to 14) (size 15 to 20)
#    0.000    0.667    6.667    3.000    0.000    2.000 
#   18.000    3.333    0.000    0.000    0.000    0.000 
#    0.000    0.000    0.000    0.000    0.000    0.000 
#
# Total GULP energy -133923.116375 kJ/mol
# GULP energy per Si atom -5580.129849 kJ/mol
# Density = 2.287801 g / cm^3
# Si number density = 22.930199 Si / 1000 Ang^3
#
#
#
# Elastic Constant Matrix: (Units=GPa)
#
#
# Indices 1 2 3 4 5 6 
#
# 1 81.9098 26.5855 32.3633 0.0000 0.0000 0.0000
# 2 26.5855 81.9098 32.3633 0.0000 0.0000 0.0000
# 3 32.3633 32.3633 144.7539 0.0000 0.0000 0.0000
# 4 0.0000 0.0000 0.0000 7.7445 0.0000 0.0000
# 5 0.0000 0.0000 0.0000 0.0000 7.7445 0.0000
# 6 0.0000 0.0000 0.0000 0.0000 0.0000 11.7850
#
#
#
# Elastic Compliance Matrix: (Units=1/GPa)
#
#
# Indices 1 2 3 4 5 6 
#
# 1 0.014355 -0.003720 -0.002378 0.000000 0.000000 0.000000
# 2 -0.003720 0.014355 -0.002378 0.000000 0.000000 0.000000
# 3 -0.002378 -0.002378 0.007972 0.000000 0.000000 0.000000
# 4 0.000000 0.000000 0.000000 0.129125 0.000000 0.000000
# 5 0.000000 0.000000 0.000000 0.000000 0.129125 0.000000
# 6 0.000000 0.000000 0.000000 0.000000 0.000000 0.084854
#
#
# Mechanical properties :
#
#
# Convention : Reuss Voigt Hill
#
# Bulk Modulus (GPa) = 50.68092 54.57754 52.62923
# Shear Modulus (GPa) = 12.39731 19.93888 16.16809
#
# Velocity S-wave (km/s) = 2.32772 2.95201 2.65825
# Velocity P-wave (km/s) = 5.41984 5.95587 5.69416
#
# Compressibility (1/GPa) = 0.01973129
#
# Stress axis : x y z
#
# Youngs Moduli (GPa) = 69.66020 69.66020 125.44640
#
# Poissons Ratio (x) = 0.25912 0.29829
# Poissons Ratio (y) = 0.25912 0.29829
# Poissons Ratio (z) = 0.16564 0.16564
#
# Static dielectric constant tensor:
#      x y z
#    x 2.010680 0.000000 0.000000 
#    y 0.000000 2.010680 0.000000 
#    z 0.000000 0.000000 1.826890 
# 
# From -- ./inp_files/3722.got.cif
#   From: 2010.05.17/outbox.cif.g08.bks.cpg/sg118_2_cif.got.tgz:3722.got - 2010.05.20 11:17:24.
