data_PCOD9558293
_publ_section_title
;
Structure prediction by ZEFSAII (Michael W. Deem and Ramdas Pophale) SiO2 
 PCOD9558293
Probable space group: P -4 B 2
;
_chemical_formula_sum "Si O2"
_cell_formula_units_Z 26
_cell_length_a 14.349586
_cell_length_b 14.349586
_cell_length_c 5.517440
_cell_angle_alpha 90.000000
_cell_angle_beta 90.000000
_cell_angle_gamma 90.000000
_cell_volume 1136.099482
_symmetry_space_group_name_H-M "P -4 B 2"
_symmetry_group_IT_number 117
_symmetry_cell_setting 'tetragonal'
loop_
_space_group_symop_operation_xyz
x,y,z
y,-x,-z
-x,-y,z
-y,x,-z
1/2+y,1/2+x,-z
1/2-y,1/2-x,-z
1/2-x,1/2+y,z
1/2+x,1/2-y,z
loop_
_atom_site_type_symbol
_atom_site_label
_atom_site_fract_x
_atom_site_fract_y
_atom_site_fract_z
Si Si1 0.359116 0.007944 0.107226
Si Si2 0.611239 0.390840 0.481143
Si Si3 0.136009 0.208107 0.973950
Si Si4 0.500000 0.000000 0.500000
O O1 0.259525 0.965266 0.049814
O O2 0.396732 0.003176 0.379869
O O3 0.392403 0.107598 0.000000
O O4 0.433088 0.933088 0.000000
O O5 0.500693 0.373438 0.503392
O O6 0.654004 0.344117 0.720806
O O7 0.640114 0.351940 0.218989
O O8 0.211078 0.288923 0.000000
#
# Coordination Sequence:
#
# PCOD9558293 Si02
#       4
#     8   8   8   2
#     4   8  17  29  51  86 127 168 209 241 321 401
#     4  11  25  47  70  92 128 183 231 263 319 405
#     4  11  23  40  71 102 133 166 220 288 342 381
#     4   8  14  28  52  78 132 180 206 236 300 444
#
# _framework density 22.885321000000001
#
# number of rings (size 3 to 8) (size 9 to 14) (size 15 to 20)
#    0.000    2.462    0.000    2.769   12.923    2.462 
#    0.000    9.231    0.000    0.000    0.000    0.000 
#    0.000    0.000    0.000    0.000    0.000    0.000 
#
# Total GULP energy -144947.933674 kJ/mol
# GULP energy per Si atom -5574.920526 kJ/mol
# Density = 2.283323 g / cm^3
# Si number density = 22.885321 Si / 1000 Ang^3
#
#
#
# Elastic Constant Matrix: (Units=GPa)
#
#
# Indices 1 2 3 4 5 6 
#
# 1 46.5268 35.4163 38.0157 0.0000 0.0000 0.0000
# 2 35.4163 46.5226 38.0135 0.0000 0.0000 0.0000
# 3 38.0157 38.0135 146.7767 0.0000 0.0000 0.0000
# 4 0.0000 0.0000 0.0000 14.8567 0.0000 0.0000
# 5 0.0000 0.0000 0.0000 0.0000 14.8653 0.0000
# 6 0.0000 0.0000 0.0000 0.0000 0.0000 10.5777
#
#
#
# Elastic Compliance Matrix: (Units=1/GPa)
#
#
# Indices 1 2 3 4 5 6 
#
# 1 0.053041 -0.036979 -0.004161 0.000000 0.000000 0.000000
# 2 -0.036979 0.053045 -0.004160 0.000000 0.000000 0.000000
# 3 -0.004161 -0.004160 0.008968 0.000000 0.000000 0.000000
# 4 0.000000 0.000000 0.000000 0.067309 0.000000 0.000000
# 5 0.000000 0.000000 0.000000 0.000000 0.067271 0.000000
# 6 0.000000 0.000000 0.000000 0.000000 0.000000 0.094538
#
#
# Mechanical properties :
#
#
# Convention : Reuss Voigt Hill
#
# Bulk Modulus (GPa) = 40.89229 51.41302 46.15266
# Shear Modulus (GPa) = 11.28860 16.61866 13.95363
#
# Velocity S-wave (km/s) = 2.22337 2.69768 2.47193
# Velocity P-wave (km/s) = 4.94958 5.67605 5.32522
#
# Compressibility (1/GPa) = 0.02445448
#
# Stress axis : x y z
#
# Youngs Moduli (GPa) = 18.85337 18.85179 111.50468
#
# Poissons Ratio (x) = 0.69712 0.46394
# Poissons Ratio (y) = 0.69718 0.46391
# Poissons Ratio (z) = 0.07844 0.07843
#
# Static dielectric constant tensor:
#      x y z
#    x 1.862810 0.000000 0.000000 
#    y 0.000000 1.862810 0.000000 
#    z 0.000000 0.000000 1.790870 
# 
# From -- ./inp_files/286.got.cif
#   From: 2010.05.17/outbox.cif.g08.bks.cpg/sg117_1_cif.got.tgz:286.got - 2010.05.20 11:15:09.
