data_PCOD9558449
_publ_section_title
;
Structure prediction by ZEFSAII (Michael W. Deem and Ramdas Pophale) SiO2 
 PCOD9558449
Probable space group: P -4 N 2
;
_chemical_formula_sum "Si O2"
_cell_formula_units_Z 56
_cell_length_a 16.762296
_cell_length_b 16.762296
_cell_length_c 11.033891
_cell_angle_alpha 90.000000
_cell_angle_beta 90.000000
_cell_angle_gamma 90.000000
_cell_volume 3100.242748
_symmetry_space_group_name_H-M "P -4 N 2"
_symmetry_group_IT_number 118
_symmetry_cell_setting 'tetragonal'
loop_
_space_group_symop_operation_xyz
x,y,z
y,-x,-z
-x,-y,z
-y,x,-z
1/2+y,1/2+x,1/2-z
1/2-y,1/2-x,1/2-z
1/2-x,1/2+y,1/2+z
1/2+x,1/2-y,1/2+z
loop_
_atom_site_type_symbol
_atom_site_label
_atom_site_fract_x
_atom_site_fract_y
_atom_site_fract_z
Si Si1 0.064863 0.564069 0.897659
Si Si2 0.008896 0.120373 0.057306
Si Si3 0.868216 0.152559 0.510768
Si Si4 0.904329 0.999014 0.657946
Si Si5 0.816980 0.715514 0.612651
Si Si6 0.281402 0.972599 0.076408
Si Si7 0.236149 0.505767 0.858749
O O1 0.063741 0.563741 0.750000
O O2 0.155216 0.540196 0.918484
O O3 0.000000 0.500000 0.937302
O O4 0.030967 0.645279 0.950780
O O5 0.011051 0.108759 0.200360
O O6 0.014905 0.210444 0.015856
O O7 0.928926 0.080258 0.004992
O O8 0.914199 0.129173 0.386903
O O9 0.788892 0.204186 0.478529
O O10 0.934559 0.197870 0.591056
O O11 0.859747 0.069033 0.583571
O O12 0.000000 0.000000 0.634831
O O13 0.781020 0.718981 0.750000
O O14 0.803689 0.622151 0.578140
O O15 0.911901 0.732205 0.613842
O O16 0.258510 0.001435 0.212457
#
# Coordination Sequence:
#
# PCOD9558449 Si02
#       7
#     8   8   8   8   8   8   8
#     4   9  16  32  58  87 113 152 201 245 295 354
#     4  11  24  38  57  85 124 163 200 243 311 381
#     4  12  22  37  63  90 119 154 207 257 304 364
#     4  12  21  38  61  88 115 159 201 248 306 370
#     4  10  21  36  59  90 121 160 198 261 309 357
#     4  10  21  38  61  86 125 160 198 251 309 362
#     4  10  19  35  61  90 118 157 208 251 304 362
#
# _framework density 18.063101
#
# number of rings (size 3 to 8) (size 9 to 14) (size 15 to 20)
#    0.000    1.429    5.714    0.857    4.000    1.143 
#    0.000    2.143    0.000    0.000    0.000    1.000 
#    0.000    0.000    0.000    0.000    0.000    0.000 
#
# Total GULP energy -311838.423944 kJ/mol
# GULP energy per Si atom -5568.543285 kJ/mol
# Density = 1.802199 g / cm^3
# Si number density = 18.063101 Si / 1000 Ang^3
#
#
#
# Elastic Constant Matrix: (Units=GPa)
#
#
# Indices 1 2 3 4 5 6 
#
# 1 74.6969 24.5196 28.5792 0.0000 0.0000 0.0000
# 2 24.5196 74.6965 28.5792 0.0000 0.0000 0.0000
# 3 28.5792 28.5792 85.9505 0.0000 0.0000 0.0000
# 4 0.0000 0.0000 0.0000 9.2735 0.0000 0.0000
# 5 0.0000 0.0000 0.0000 0.0000 9.2697 0.0000
# 6 0.0000 0.0000 0.0000 0.0000 0.0000 -1.2314
#
#
#
# Elastic Compliance Matrix: (Units=1/GPa)
#
#
# Indices 1 2 3 4 5 6 
#
# 1 0.016198 -0.003731 -0.004145 0.000000 0.000000 0.000000
# 2 -0.003731 0.016198 -0.004145 0.000000 0.000000 0.000000
# 3 -0.004145 -0.004145 0.014391 0.000000 0.000000 0.000000
# 4 0.000000 0.000000 0.000000 0.107834 0.000000 0.000000
# 5 0.000000 0.000000 0.000000 0.000000 0.107878 0.000000
# 6 0.000000 0.000000 0.000000 0.000000 0.000000 -0.812111
#
#
# Mechanical properties :
#
#
# Convention : Reuss Voigt Hill
#
# Bulk Modulus (GPa) = 43.96767 44.30001 44.13384
# Shear Modulus (GPa) = -9.65278 13.70677 2.02699
#
# Velocity S-wave (km/s) = -2.31420 2.75767 1.06048
# Velocity P-wave (km/s) = 4.15371 5.89220 5.09761
#
# Compressibility (1/GPa) = 0.02274399
#
# Stress axis : x y z
#
# Youngs Moduli (GPa) = 61.73511 61.73470 69.48603
#
# Poissons Ratio (x) = 0.23034 0.28805
# Poissons Ratio (y) = 0.23034 0.28805
# Poissons Ratio (z) = 0.25592 0.25592
#
# Static dielectric constant tensor:
#      x y z
#    x 1.718870 0.000000 0.000000 
#    y 0.000000 1.718850 0.000000 
#    z 0.000000 0.000000 1.609320 
# 
# From -- ./inp_files/3493.got.cif
#   From: 2010.05.17/outbox.cif.g08.bks.cpg/sg118_2_cif.got.tgz:3493.got - 2010.05.20 11:17:24.
