data_PCOD9558690
_publ_section_title
;
Structure prediction by ZEFSAII (Michael W. Deem and Ramdas Pophale) SiO2 
 PCOD9558690
Probable space group: P -4 N 2
;
_chemical_formula_sum "Si O2"
_cell_formula_units_Z 22
_cell_length_a 5.177549
_cell_length_b 5.177549
_cell_length_c 32.794528
_cell_angle_alpha 90.000000
_cell_angle_beta 90.000000
_cell_angle_gamma 90.000000
_cell_volume 879.123360
_symmetry_space_group_name_H-M "P -4 N 2"
_symmetry_group_IT_number 118
_symmetry_cell_setting 'tetragonal'
loop_
_space_group_symop_operation_xyz
x,y,z
y,-x,-z
-x,-y,z
-y,x,-z
1/2+y,1/2+x,1/2-z
1/2-y,1/2-x,1/2-z
1/2-x,1/2+y,1/2+z
1/2+x,1/2-y,1/2+z
loop_
_atom_site_type_symbol
_atom_site_label
_atom_site_fract_x
_atom_site_fract_y
_atom_site_fract_z
Si Si1 0.500000 0.500000 0.500000
Si Si2 0.248877 0.179543 0.382068
Si Si3 0.000000 0.500000 0.047037
Si Si4 0.745520 0.322057 0.795046
O O1 0.765862 0.382643 0.479825
O O2 0.264573 0.327526 0.338185
O O3 0.185483 0.344628 0.421520
O O4 0.500000 0.000000 0.386523
O O5 0.000000 0.000000 0.379651
O O6 0.500000 0.500000 0.799004
O O7 0.707148 0.207148 0.750000
O O8 0.000000 0.500000 0.793767
#
# Coordination Sequence:
#
# PCOD9558690 Si02
#       4
#     2   8   4   8
#     4  12  32  48  84 104 156 188 248 320 404 452
#     4  10  22  44  74 103 148 191 243 304 368 442
#     4  12  28  50  73 116 136 198 247 320 382 478
#     4   9  19  41  65 102 145 193 241 294 355 427
#
# _framework density 25.024932
#
# number of rings (size 3 to 8) (size 9 to 14) (size 15 to 20)
#    0.000    1.818    0.000    2.182    7.636    0.000 
#   36.000    0.000    0.000    0.000    0.000    0.000 
#    0.000    0.000    0.000    0.000    0.000    0.000 
#
# Total GULP energy -122511.571910 kJ/mol
# GULP energy per Si atom -5568.707814 kJ/mol
# Density = 2.496797 g / cm^3
# Si number density = 25.024932 Si / 1000 Ang^3
#
#
#
# Elastic Constant Matrix: (Units=GPa)
#
#
# Indices 1 2 3 4 5 6 
#
# 1 137.4436 31.9629 23.5922 0.0000 0.0000 0.0000
# 2 31.9629 137.4436 23.5922 0.0000 0.0000 0.0000
# 3 23.5922 23.5922 87.4200 0.0000 0.0000 0.0000
# 4 0.0000 0.0000 0.0000 24.0740 0.0000 0.0000
# 5 0.0000 0.0000 0.0000 0.0000 24.0740 0.0000
# 6 0.0000 0.0000 0.0000 0.0000 0.0000 56.4297
#
#
#
# Elastic Compliance Matrix: (Units=1/GPa)
#
#
# Indices 1 2 3 4 5 6 
#
# 1 0.007932 -0.001549 -0.001723 0.000000 0.000000 0.000000
# 2 -0.001549 0.007932 -0.001723 0.000000 0.000000 0.000000
# 3 -0.001723 -0.001723 0.012369 0.000000 0.000000 0.000000
# 4 0.000000 0.000000 0.000000 0.041539 0.000000 0.000000
# 5 0.000000 0.000000 0.000000 0.000000 0.041539 0.000000
# 6 0.000000 0.000000 0.000000 0.000000 0.000000 0.017721
#
#
# Mechanical properties :
#
#
# Convention : Reuss Voigt Hill
#
# Bulk Modulus (GPa) = 54.81216 57.84465 56.32840
# Shear Modulus (GPa) = 34.45914 39.79286 37.12600
#
# Velocity S-wave (km/s) = 3.71481 3.99197 3.85588
# Velocity P-wave (km/s) = 6.35219 6.66429 6.51011
#
# Compressibility (1/GPa) = 0.01824413
#
# Stress axis : x y z
#
# Youngs Moduli (GPa) = 126.07840 126.07840 80.84894
#
# Poissons Ratio (x) = 0.19528 0.13926
# Poissons Ratio (y) = 0.19528 0.13926
# Poissons Ratio (z) = 0.21717 0.21717
#
# Static dielectric constant tensor:
#      x y z
#    x 2.133210 0.000000 0.000000 
#    y 0.000000 2.133210 0.000000 
#    z 0.000000 0.000000 2.358840 
# 
# From -- ./inp_files/6635.got.cif
#   From: 2010.05.17/outbox.cif.g08.bks.cpg/sg118_4_cif.got.tgz:6635.got - 2010.05.20 11:17:24.
