data_PCOD9558263
_publ_section_title
;
Structure prediction by ZEFSAII (Michael W. Deem and Ramdas Pophale) SiO2 
 PCOD9558263
Probable space group: P -4 B 2
;
_chemical_formula_sum "Si O2"
_cell_formula_units_Z 34
_cell_length_a 12.222415
_cell_length_b 12.222415
_cell_length_c 11.486710
_cell_angle_alpha 90.000000
_cell_angle_beta 90.000000
_cell_angle_gamma 90.000000
_cell_volume 1715.970068
_symmetry_space_group_name_H-M "P -4 B 2"
_symmetry_group_IT_number 117
_symmetry_cell_setting 'tetragonal'
loop_
_space_group_symop_operation_xyz
x,y,z
y,-x,-z
-x,-y,z
-y,x,-z
1/2+y,1/2+x,-z
1/2-y,1/2-x,-z
1/2-x,1/2+y,z
1/2+x,1/2-y,z
loop_
_atom_site_type_symbol
_atom_site_label
_atom_site_fract_x
_atom_site_fract_y
_atom_site_fract_z
Si Si1 0.709686 0.640713 0.087034
Si Si2 0.848790 0.901686 0.487204
Si Si3 0.449325 0.119533 0.880693
Si Si4 0.789911 0.301985 0.689468
Si Si5 0.000000 0.000000 0.000000
O O1 0.788629 0.537830 0.098372
O O2 0.712563 0.698419 0.212452
O O3 0.775695 0.724306 0.000000
O O4 0.588609 0.587852 0.057791
O O5 0.806253 0.839455 0.371877
O O6 0.761824 0.874257 0.587406
O O7 0.967997 0.858973 0.526059
O O8 0.385121 0.141726 0.762917
O O9 0.500000 0.000000 0.872568
O O10 0.380379 0.119622 0.000000
#
# Coordination Sequence:
#
# PCOD9558263 Si02
#       5
#     8   8   8   8   2
#     4  12  25  43  71 106 148 186 244 295 368 454
#     4  10  24  45  65  92 132 178 238 299 356 426
#     4  11  23  43  67 102 142 184 225 297 365 441
#     4  11  24  41  68  99 131 181 233 293 364 426
#     4  12  28  44  72 116 150 204 240 304 376 458
#
# _framework density 19.813866000000001
#
# number of rings (size 3 to 8) (size 9 to 14) (size 15 to 20)
#    0.000    0.941    2.353    4.941    3.294    3.765 
#    0.000    1.176    0.000    0.000    0.000    0.000 
#    0.000    0.000    0.000    0.000    0.000    0.000 
#
# Total GULP energy -189466.722527 kJ/mol
# GULP energy per Si atom -5572.550663 kJ/mol
# Density = 1.976877 g / cm^3
# Si number density = 19.813866 Si / 1000 Ang^3
#
#
#
# Elastic Constant Matrix: (Units=GPa)
#
#
# Indices 1 2 3 4 5 6 
#
# 1 117.8215 72.8858 54.5943 0.0000 0.0000 0.0000
# 2 72.8858 117.8205 54.5947 0.0000 0.0000 0.0000
# 3 54.5943 54.5947 123.3388 0.0000 0.0000 0.0000
# 4 0.0000 0.0000 0.0000 53.3105 0.0000 0.0000
# 5 0.0000 0.0000 0.0000 0.0000 53.3126 0.0000
# 6 0.0000 0.0000 0.0000 0.0000 0.0000 41.4915
#
#
#
# Elastic Compliance Matrix: (Units=1/GPa)
#
#
# Indices 1 2 3 4 5 6 
#
# 1 0.014639 -0.007615 -0.003109 0.000000 0.000000 0.000000
# 2 -0.007615 0.014639 -0.003109 0.000000 0.000000 0.000000
# 3 -0.003109 -0.003109 0.010860 0.000000 0.000000 0.000000
# 4 0.000000 0.000000 0.000000 0.018758 0.000000 0.000000
# 5 0.000000 0.000000 0.000000 0.000000 0.018757 0.000000
# 6 0.000000 0.000000 0.000000 0.000000 0.000000 0.024101
#
#
# Mechanical properties :
#
#
# Convention : Reuss Voigt Hill
#
# Bulk Modulus (GPa) = 80.18224 80.34780 80.26502
# Shear Modulus (GPa) = 37.43126 41.41666 39.42396
#
# Velocity S-wave (km/s) = 4.35114 4.57693 4.46546
# Velocity P-wave (km/s) = 8.11165 8.28072 8.19662
#
# Compressibility (1/GPa) = 0.01247159
#
# Stress axis : x y z
#
# Youngs Moduli (GPa) = 68.31131 68.31028 92.08076
#
# Poissons Ratio (x) = 0.52020 0.28627
# Poissons Ratio (y) = 0.52021 0.28628
# Poissons Ratio (z) = 0.21237 0.21238
#
# Static dielectric constant tensor:
#      x y z
#    x 1.733250 0.000000 0.000000 
#    y 0.000000 1.733240 0.000000 
#    z 0.000000 0.000000 1.696270 
# 
# From -- ./inp_files/2424.got.cif
#   From: 2010.05.17/outbox.cif.g08.bks.cpg/sg117_2_cif.got.tgz:2424.got - 2010.05.20 11:15:09.
