data_PCOD9558103
_publ_section_title
;
Structure prediction by ZEFSAII (Michael W. Deem and Ramdas Pophale) SiO2 
 PCOD9558103
Probable space group: P -4 B 2
;
_chemical_formula_sum "Si O2"
_cell_formula_units_Z 52
_cell_length_a 16.875042
_cell_length_b 16.875042
_cell_length_c 9.408479
_cell_angle_alpha 90.000000
_cell_angle_beta 90.000000
_cell_angle_gamma 90.000000
_cell_volume 2679.224739
_symmetry_space_group_name_H-M "P -4 B 2"
_symmetry_group_IT_number 117
_symmetry_cell_setting 'tetragonal'
loop_
_space_group_symop_operation_xyz
x,y,z
y,-x,-z
-x,-y,z
-y,x,-z
1/2+y,1/2+x,-z
1/2-y,1/2-x,-z
1/2-x,1/2+y,z
1/2+x,1/2-y,z
loop_
_atom_site_type_symbol
_atom_site_label
_atom_site_fract_x
_atom_site_fract_y
_atom_site_fract_z
Si Si1 0.407385 0.068906 0.232166
Si Si2 0.000000 0.500000 0.000000
Si Si3 0.366368 0.506571 0.008063
Si Si4 0.500000 0.000000 0.500000
Si Si5 0.259703 0.019845 0.754716
Si Si6 0.221100 0.154182 0.532750
Si Si7 0.235682 0.047793 0.279853
Si Si8 0.715489 0.090404 0.490090
O O1 0.457831 0.149307 0.208095
O O2 0.315106 0.089494 0.223230
O O3 0.427010 0.006989 0.107350
O O4 0.434871 0.028834 0.380070
O O5 0.299778 0.504080 0.884396
O O6 0.427458 0.579854 0.987405
O O7 0.321341 0.519925 0.156274
O O8 0.227806 0.094842 0.663840
O O9 0.263865 0.947642 0.642372
O O10 0.306512 0.193488 0.500000
O O11 0.195096 0.105161 0.393999
O O12 0.160200 0.224916 0.552856
O O13 0.270395 0.975524 0.371885
O O14 0.627802 0.127802 0.500000
#
# Coordination Sequence:
#
# PCOD9558103 Si02
#       8
#     8   2   8   2   8   8   8   8
#     4  11  22  36  60  86 122 166 196 243 305 382
#     4  10  24  34  48  74 120 154 204 238 276 376
#     4  11  25  45  66  88 121 165 220 273 312 357
#     4  10  20  34  60  90 128 170 200 242 288 376
#     4  11  22  39  64  89 123 166 203 251 316 371
#     4  10  19  39  59  88 121 158 202 249 302 371
#     4  11  22  39  64  89 123 166 203 251 316 371
#     4  10  23  36  61  94 125 156 203 257 304 363
#
# _framework density 19.4086
#
# number of rings (size 3 to 8) (size 9 to 14) (size 15 to 20)
#    0.000    1.385    1.538    4.615    6.462    0.000 
#    0.000    0.000    3.385    7.385    0.000    0.000 
#    0.000    0.000    0.000    0.000    0.000    0.000 
#
# Total GULP energy -290024.228033 kJ/mol
# GULP energy per Si atom -5577.389001 kJ/mol
# Density = 1.936442 g / cm^3
# Si number density = 19.408600 Si / 1000 Ang^3
#
#
#
# Elastic Constant Matrix: (Units=GPa)
#
#
# Indices 1 2 3 4 5 6 
#
# 1 72.5461 16.4563 29.1704 0.0000 0.0000 0.0000
# 2 16.4563 72.5464 29.1699 0.0000 0.0000 0.0000
# 3 29.1704 29.1699 127.5332 0.0000 0.0000 0.0000
# 4 0.0000 0.0000 0.0000 15.1716 0.0000 0.0000
# 5 0.0000 0.0000 0.0000 0.0000 15.1714 0.0000
# 6 0.0000 0.0000 0.0000 0.0000 0.0000 26.4492
#
#
#
# Elastic Compliance Matrix: (Units=1/GPa)
#
#
# Indices 1 2 3 4 5 6 
#
# 1 0.015523 -0.002306 -0.003023 0.000000 0.000000 0.000000
# 2 -0.002306 0.015523 -0.003023 0.000000 0.000000 0.000000
# 3 -0.003023 -0.003023 0.009224 0.000000 0.000000 0.000000
# 4 0.000000 0.000000 0.000000 0.065912 0.000000 0.000000
# 5 0.000000 0.000000 0.000000 0.000000 0.065913 0.000000
# 6 0.000000 0.000000 0.000000 0.000000 0.000000 0.037808
#
#
# Mechanical properties :
#
#
# Convention : Reuss Voigt Hill
#
# Bulk Modulus (GPa) = 42.43395 46.91321 44.67358
# Shear Modulus (GPa) = 21.32533 24.54707 22.93620
#
# Velocity S-wave (km/s) = 3.31835 3.56019 3.44139
# Velocity P-wave (km/s) = 6.04920 6.41278 6.23364
#
# Compressibility (1/GPa) = 0.02356604
#
# Stress axis : x y z
#
# Youngs Moduli (GPa) = 64.42078 64.42132 108.41253
#
# Poissons Ratio (x) = 0.14853 0.32775
# Poissons Ratio (y) = 0.14853 0.32774
# Poissons Ratio (z) = 0.19476 0.19475
#
# Static dielectric constant tensor:
#      x y z
#    x 1.690610 0.000000 0.000000 
#    y 0.000000 1.690610 0.000000 
#    z 0.000000 0.000000 1.661670 
# 
# From -- ./inp_files/2037.got.cif
#   From: 2010.05.17/outbox.cif.g08.bks.cpg/sg117_2_cif.got.tgz:2037.got - 2010.05.20 11:15:09.
