data_PCOD9558393
_publ_section_title
;
Structure prediction by ZEFSAII (Michael W. Deem and Ramdas Pophale) SiO2 
 PCOD9558393
Probable space group: P -4 N 2
;
_chemical_formula_sum "Si O2"
_cell_formula_units_Z 60
_cell_length_a 14.384663
_cell_length_b 14.384663
_cell_length_c 13.406629
_cell_angle_alpha 90.000000
_cell_angle_beta 90.000000
_cell_angle_gamma 90.000000
_cell_volume 2774.079960
_symmetry_space_group_name_H-M "P -4 N 2"
_symmetry_group_IT_number 118
_symmetry_cell_setting 'tetragonal'
loop_
_space_group_symop_operation_xyz
x,y,z
y,-x,-z
-x,-y,z
-y,x,-z
1/2+y,1/2+x,1/2-z
1/2-y,1/2-x,1/2-z
1/2-x,1/2+y,1/2+z
1/2+x,1/2-y,1/2+z
loop_
_atom_site_type_symbol
_atom_site_label
_atom_site_fract_x
_atom_site_fract_y
_atom_site_fract_z
Si Si1 0.803395 0.939686 0.129966
Si Si2 0.393363 0.478374 0.241836
Si Si3 0.104176 0.523547 0.962991
Si Si4 0.216442 0.679873 0.475160
Si Si5 0.144431 0.182805 0.808565
Si Si6 0.857502 0.152900 0.575485
Si Si7 0.120358 0.620358 0.750000
Si Si8 0.064367 0.224249 0.600771
O O1 0.902237 0.906113 0.171365
O O2 0.778737 0.900166 0.022659
O O3 0.722633 0.901219 0.205061
O O4 0.802954 0.051064 0.126924
O O5 0.500000 0.500000 0.207536
O O6 0.350229 0.574474 0.277616
O O7 0.337258 0.427701 0.153813
O O8 0.144551 0.610050 0.026646
O O9 0.101320 0.556366 0.846438
O O10 0.178914 0.440185 0.959809
O O11 0.000000 0.500000 0.993781
O O12 0.264690 0.707700 0.372128
O O13 0.212647 0.761994 0.558112
O O14 0.113092 0.233861 0.706715
O O15 0.856269 0.111592 0.464306
O O16 0.957071 0.193081 0.607250
#
# Coordination Sequence:
#
# PCOD9558393 Si02
#       8
#     8   8   8   8   8   8   4   8
#     4  10  19  36  61  85 136 167 215 261 329 399
#     4  10  19  36  60  94 123 166 214 262 327 394
#     4  10  21  41  63  90 127 175 225 279 339 403
#     4  10  25  39  58  90 135 176 211 272 336 401
#     4  11  22  39  60  97 127 169 218 272 332 400
#     4  11  22  40  62  95 126 166 210 276 338 399
#     4  10  17  36  62  90 122 174 220 279 332 390
#     4  11  22  39  65  96 127 164 217 276 342 388
#
# _framework density 21.628791
#
# number of rings (size 3 to 8) (size 9 to 14) (size 15 to 20)
#    0.000    1.600    4.000    2.600    1.867    2.667 
#    2.400    0.000    0.000    0.000    0.000    8.400 
#    0.000    0.000    0.000    0.000    0.000    0.000 
#
# Total GULP energy -334932.103740 kJ/mol
# GULP energy per Si atom -5582.201729 kJ/mol
# Density = 2.157956 g / cm^3
# Si number density = 21.628791 Si / 1000 Ang^3
#
#
#
# Elastic Constant Matrix: (Units=GPa)
#
#
# Indices 1 2 3 4 5 6 
#
# 1 89.0484 45.2922 31.3745 0.0000 0.0000 0.0000
# 2 45.2922 89.0484 31.3745 0.0000 0.0000 0.0000
# 3 31.3745 31.3745 79.2386 0.0000 0.0000 0.0000
# 4 0.0000 0.0000 0.0000 30.8187 0.0000 0.0000
# 5 0.0000 0.0000 0.0000 0.0000 30.8187 0.0000
# 6 0.0000 0.0000 0.0000 0.0000 0.0000 23.9246
#
#
#
# Elastic Compliance Matrix: (Units=1/GPa)
#
#
# Indices 1 2 3 4 5 6 
#
# 1 0.015993 -0.006861 -0.003616 0.000000 0.000000 0.000000
# 2 -0.006861 0.015993 -0.003616 0.000000 0.000000 0.000000
# 3 -0.003616 -0.003616 0.015484 0.000000 0.000000 0.000000
# 4 0.000000 0.000000 0.000000 0.032448 0.000000 0.000000
# 5 0.000000 0.000000 0.000000 0.000000 0.032448 0.000000
# 6 0.000000 0.000000 0.000000 0.000000 0.000000 0.041798
#
#
# Mechanical properties :
#
#
# Convention : Reuss Voigt Hill
#
# Bulk Modulus (GPa) = 51.85425 52.60198 52.22811
# Shear Modulus (GPa) = 26.48613 27.06534 26.77573
#
# Velocity S-wave (km/s) = 3.50319 3.54129 3.52229
# Velocity P-wave (km/s) = 6.35530 6.41047 6.38294
#
# Compressibility (1/GPa) = 0.01928482
#
# Stress axis : x y z
#
# Youngs Moduli (GPa) = 62.52594 62.52594 64.58383
#
# Poissons Ratio (x) = 0.42896 0.23354
# Poissons Ratio (y) = 0.42896 0.23354
# Poissons Ratio (z) = 0.22610 0.22610
#
# Static dielectric constant tensor:
#      x y z
#    x 1.846840 0.000000 0.000000 
#    y 0.000000 1.846840 0.000000 
#    z 0.000000 0.000000 1.807720 
# 
# From -- ./inp_files/4318.got.cif
#   From: 2010.05.17/outbox.cif.g08.bks.cpg/sg118_3_cif.got.tgz:4318.got - 2010.05.20 11:17:24.
