data_PCOD9558467
_publ_section_title
;
Structure prediction by ZEFSAII (Michael W. Deem and Ramdas Pophale) SiO2 
 PCOD9558467
Probable space group: P -4 N 2
;
_chemical_formula_sum "Si O2"
_cell_formula_units_Z 36
_cell_length_a 10.386663
_cell_length_b 10.386663
_cell_length_c 16.270651
_cell_angle_alpha 90.000000
_cell_angle_beta 90.000000
_cell_angle_gamma 90.000000
_cell_volume 1755.322872
_symmetry_space_group_name_H-M "P -4 N 2"
_symmetry_group_IT_number 118
_symmetry_cell_setting 'tetragonal'
loop_
_space_group_symop_operation_xyz
x,y,z
y,-x,-z
-x,-y,z
-y,x,-z
1/2+y,1/2+x,1/2-z
1/2-y,1/2-x,1/2-z
1/2-x,1/2+y,1/2+z
1/2+x,1/2-y,1/2+z
loop_
_atom_site_type_symbol
_atom_site_label
_atom_site_fract_x
_atom_site_fract_y
_atom_site_fract_z
Si Si1 0.557643 0.128288 0.881241
Si Si2 0.447564 0.292829 0.012567
Si Si3 0.500000 0.500000 0.701411
Si Si4 0.798655 0.866494 0.306810
Si Si5 0.963976 0.823659 0.049367
O O1 0.604797 0.245265 0.823865
O O2 0.681912 0.087174 0.935361
O O3 0.500000 0.000000 0.842011
O O4 0.451819 0.184471 0.943850
O O5 0.410941 0.252197 0.104034
O O6 0.354261 0.409482 0.987213
O O7 0.621270 0.475994 0.760115
O O8 0.496484 0.380029 0.638563
O O9 0.686033 0.813968 0.250000
O O10 0.083258 0.851757 0.988010
#
# Coordination Sequence:
#
# PCOD9558467 Si02
#       5
#     8   8   4   8   8
#     4  11  23  36  62  94 123 156 211 274 304 377
#     4   9  20  38  60  87 119 169 211 251 315 393
#     4  10  19  40  59  86 120 164 192 250 315 386
#     4  11  21  37  62  90 125 165 204 257 330 381
#     4   9  21  39  64  83 115 165 213 246 313 379
#
# _framework density 20.509048
#
# number of rings (size 3 to 8) (size 9 to 14) (size 15 to 20)
#    0.000    2.222    2.222    2.667    6.222    0.444 
#    0.000    0.000    4.889    6.000    0.000    0.000 
#    0.000    0.000    0.000    0.000    0.000    0.000 
#
# Total GULP energy -200944.416722 kJ/mol
# GULP energy per Si atom -5581.789353 kJ/mol
# Density = 2.046237 g / cm^3
# Si number density = 20.509048 Si / 1000 Ang^3
#
#
#
# Elastic Constant Matrix: (Units=GPa)
#
#
# Indices 1 2 3 4 5 6 
#
# 1 39.6803 12.3899 12.9016 0.0000 0.0000 0.0000
# 2 12.3899 39.6807 12.9012 0.0000 0.0000 0.0000
# 3 12.9016 12.9012 111.3989 0.0000 0.0000 0.0000
# 4 0.0000 0.0000 0.0000 8.6496 0.0000 0.0000
# 5 0.0000 0.0000 0.0000 0.0000 8.6506 0.0000
# 6 0.0000 0.0000 0.0000 0.0000 0.0000 29.3238
#
#
#
# Elastic Compliance Matrix: (Units=1/GPa)
#
#
# Indices 1 2 3 4 5 6 
#
# 1 0.028509 -0.008134 -0.002360 0.000000 0.000000 0.000000
# 2 -0.008134 0.028508 -0.002359 0.000000 0.000000 0.000000
# 3 -0.002360 -0.002359 0.009523 0.000000 0.000000 0.000000
# 4 0.000000 0.000000 0.000000 0.115612 0.000000 0.000000
# 5 0.000000 0.000000 0.000000 0.000000 0.115599 0.000000
# 6 0.000000 0.000000 0.000000 0.000000 0.000000 0.034102
#
#
# Mechanical properties :
#
#
# Convention : Reuss Voigt Hill
#
# Bulk Modulus (GPa) = 24.48996 29.68280 27.08638
# Shear Modulus (GPa) = 13.47087 19.49594 16.48340
#
# Velocity S-wave (km/s) = 2.56564 3.08653 2.83806
# Velocity P-wave (km/s) = 4.55452 5.21600 4.89644
#
# Compressibility (1/GPa) = 0.04083306
#
# Stress axis : x y z
#
# Youngs Moduli (GPa) = 35.07723 35.07763 105.00576
#
# Poissons Ratio (x) = 0.28533 0.24778
# Poissons Ratio (y) = 0.28533 0.24776
# Poissons Ratio (z) = 0.08277 0.08277
#
# Static dielectric constant tensor:
#      x y z
#    x 1.753770 0.000000 0.000000 
#    y 0.000000 1.753770 0.000000 
#    z 0.000000 0.000000 1.726900 
# 
# From -- ./inp_files/3978.got.cif
#   From: 2010.05.17/outbox.cif.g08.bks.cpg/sg118_2_cif.got.tgz:3978.got - 2010.05.20 11:17:24.
