data_PCOD9558427
_publ_section_title
;
Structure prediction by ZEFSAII (Michael W. Deem and Ramdas Pophale) SiO2 
 PCOD9558427
Probable space group: P -4 N 2
;
_chemical_formula_sum "Si O2"
_cell_formula_units_Z 56
_cell_length_a 13.641490
_cell_length_b 13.641490
_cell_length_c 14.061451
_cell_angle_alpha 90.000000
_cell_angle_beta 90.000000
_cell_angle_gamma 90.000000
_cell_volume 2616.698924
_symmetry_space_group_name_H-M "P -4 N 2"
_symmetry_group_IT_number 118
_symmetry_cell_setting 'tetragonal'
loop_
_space_group_symop_operation_xyz
x,y,z
y,-x,-z
-x,-y,z
-y,x,-z
1/2+y,1/2+x,1/2-z
1/2-y,1/2-x,1/2-z
1/2-x,1/2+y,1/2+z
1/2+x,1/2-y,1/2+z
loop_
_atom_site_type_symbol
_atom_site_label
_atom_site_fract_x
_atom_site_fract_y
_atom_site_fract_z
Si Si1 0.632483 0.563847 0.953046
Si Si2 0.640867 0.447793 0.779554
Si Si3 0.762212 0.528474 0.421723
Si Si4 0.653011 0.063207 0.512534
Si Si5 0.432762 0.773379 0.780842
Si Si6 0.600285 0.692394 0.416082
Si Si7 0.412138 0.137644 0.151866
O O1 0.461432 0.607139 0.156205
O O2 0.741472 0.603473 0.972722
O O3 0.625977 0.455413 0.001886
O O4 0.589765 0.341999 0.795100
O O5 0.645423 0.467202 0.667029
O O6 0.751038 0.431326 0.816505
O O7 0.858001 0.567051 0.475922
O O8 0.784012 0.500239 0.312781
O O9 0.694545 0.624635 0.417520
O O10 0.704348 0.449732 0.482788
O O11 0.679537 0.030925 0.620609
O O12 0.620045 0.982660 0.436889
O O13 0.333887 0.833887 0.750000
O O14 0.627756 0.800790 0.381906
O O15 0.422639 0.077362 0.250000
#
# Coordination Sequence:
#
# PCOD9558427 Si02
#       7
#     8   8   8   8   8   8   8
#     4  10  19  30  50  88 124 147 181 243 313 371
#     4   9  16  33  56  83 109 153 192 240 302 368
#     4  10  22  38  59  83 111 159 209 254 300 362
#     4  10  19  34  61  87 117 152 199 245 304 365
#     4   9  16  32  57  80 107 150 206 247 291 357
#     4  10  21  39  58  81 115 153 206 248 295 365
#     4   9  18  34  61  87 116 151 187 235 299 372
#
# _framework density 21.401009999999999
#
# number of rings (size 3 to 8) (size 9 to 14) (size 15 to 20)
#    0.000    2.429    1.429    3.000    2.000    0.857 
#    2.571    9.286    0.000    7.714    0.000    0.000 
#    0.000    0.000    0.000    0.000    0.000    0.000 
#
# Total GULP energy -312474.086318 kJ/mol
# GULP energy per Si atom -5579.894399 kJ/mol
# Density = 2.135230 g / cm^3
# Si number density = 21.401010 Si / 1000 Ang^3
#
#
#
# Elastic Constant Matrix: (Units=GPa)
#
#
# Indices 1 2 3 4 5 6 
#
# 1 38.1494 3.3559 28.2309 0.0000 0.0000 0.0000
# 2 3.3559 38.1501 28.2308 0.0000 0.0000 0.0000
# 3 28.2309 28.2308 151.5555 0.0000 0.0000 0.0000
# 4 0.0000 0.0000 0.0000 28.3051 0.0000 0.0000
# 5 0.0000 0.0000 0.0000 0.0000 28.3050 0.0000
# 6 0.0000 0.0000 0.0000 0.0000 0.0000 10.7136
#
#
#
# Elastic Compliance Matrix: (Units=1/GPa)
#
#
# Indices 1 2 3 4 5 6 
#
# 1 0.030506 0.001765 -0.006011 0.000000 0.000000 0.000000
# 2 0.001765 0.030505 -0.006011 0.000000 0.000000 0.000000
# 3 -0.006011 -0.006011 0.008838 0.000000 0.000000 0.000000
# 4 0.000000 0.000000 0.000000 0.035329 0.000000 0.000000
# 5 0.000000 0.000000 0.000000 0.000000 0.035329 0.000000
# 6 0.000000 0.000000 0.000000 0.000000 0.000000 0.093339
#
#
# Mechanical properties :
#
#
# Convention : Reuss Voigt Hill
#
# Bulk Modulus (GPa) = 20.27011 38.61003 29.44007
# Shear Modulus (GPa) = 18.46339 24.66723 21.56531
#
# Velocity S-wave (km/s) = 2.94042 3.39871 3.17784
# Velocity P-wave (km/s) = 4.58478 5.78636 5.22026
#
# Compressibility (1/GPa) = 0.04933373
#
# Stress axis : x y z
#
# Youngs Moduli (GPa) = 32.78060 32.78140 113.15200
#
# Poissons Ratio (x) = -0.05785 0.68018
# Poissons Ratio (y) = -0.05785 0.68016
# Poissons Ratio (z) = 0.19705 0.19705
#
# Static dielectric constant tensor:
#      x y z
#    x 1.776960 0.000000 0.000000 
#    y 0.000000 1.776960 0.000000 
#    z 0.000000 0.000000 1.830240 
# 
# From -- ./inp_files/4249.got.cif
#   From: 2010.05.17/outbox.cif.g08.bks.cpg/sg118_3_cif.got.tgz:4249.got - 2010.05.20 11:17:24.
