data_PCOD9558821
_publ_section_title
;
Structure prediction by ZEFSAII (Michael W. Deem and Ramdas Pophale) SiO2 
 PCOD9558821
Probable space group: P -4 N 2
;
_chemical_formula_sum "Si O2"
_cell_formula_units_Z 34
_cell_length_a 11.805919
_cell_length_b 11.805919
_cell_length_c 9.910327
_cell_angle_alpha 90.000000
_cell_angle_beta 90.000000
_cell_angle_gamma 90.000000
_cell_volume 1381.298636
_symmetry_space_group_name_H-M "P -4 N 2"
_symmetry_group_IT_number 118
_symmetry_cell_setting 'tetragonal'
loop_
_space_group_symop_operation_xyz
x,y,z
y,-x,-z
-x,-y,z
-y,x,-z
1/2+y,1/2+x,1/2-z
1/2-y,1/2-x,1/2-z
1/2-x,1/2+y,1/2+z
1/2+x,1/2-y,1/2+z
loop_
_atom_site_type_symbol
_atom_site_label
_atom_site_fract_x
_atom_site_fract_y
_atom_site_fract_z
Si Si1 0.748672 0.013157 0.467566
Si Si2 0.500000 0.500000 0.000000
Si Si3 0.777988 0.357904 0.615069
Si Si4 0.730654 0.095527 0.044713
Si Si5 0.507540 0.816469 0.739507
O O1 0.672067 0.903387 0.438074
O O2 0.673628 0.121429 0.428131
O O3 0.760798 0.015747 0.631745
O O4 0.879187 0.008795 0.421326
O O5 0.778472 0.278472 0.750000
O O6 0.686218 0.322339 0.503938
O O7 0.761734 0.491339 0.649864
O O8 0.724246 0.021705 0.907905
O O9 0.420475 0.920475 0.750000
O O10 0.633199 0.866802 0.750000
#
# Coordination Sequence:
#
# PCOD9558821 Si02
#       5
#     8   2   8   8   8
#     4  11  22  43  68 101 139 187 245 307 380 463
#     4  12  24  40  68 104 142 184 240 320 388 454
#     4  12  26  47  71 105 151 191 244 317 383 465
#     4  11  24  45  71 101 141 196 247 308 390 462
#     4   9  17  36  69  95 121 177 243 290 350 451
#
# _framework density 24.614515999999998
#
# number of rings (size 3 to 8) (size 9 to 14) (size 15 to 20)
#    0.000    1.176    4.706    2.824    0.000    2.353 
#    4.235    2.353    0.000    0.000    0.000    0.000 
#    0.000    0.000    0.000    0.000    0.000    0.000 
#
# Total GULP energy -189636.358795 kJ/mol
# GULP energy per Si atom -5577.539965 kJ/mol
# Density = 2.455849 g / cm^3
# Si number density = 24.614516 Si / 1000 Ang^3
#
#
#
# Elastic Constant Matrix: (Units=GPa)
#
#
# Indices 1 2 3 4 5 6 
#
# 1 181.5975 76.2856 7.1520 0.0000 0.0000 0.0000
# 2 76.2856 181.5985 7.1521 0.0000 0.0000 0.0000
# 3 7.1520 7.1521 47.6781 0.0000 0.0000 0.0000
# 4 0.0000 0.0000 0.0000 25.3961 0.0000 0.0000
# 5 0.0000 0.0000 0.0000 0.0000 25.3960 0.0000
# 6 0.0000 0.0000 0.0000 0.0000 0.0000 29.8031
#
#
#
# Elastic Compliance Matrix: (Units=1/GPa)
#
#
# Indices 1 2 3 4 5 6 
#
# 1 0.006703 -0.002793 -0.000587 0.000000 0.000000 0.000000
# 2 -0.002793 0.006703 -0.000587 0.000000 0.000000 0.000000
# 3 -0.000587 -0.000587 0.021150 0.000000 0.000000 0.000000
# 4 0.000000 0.000000 0.000000 0.039376 0.000000 0.000000
# 5 0.000000 0.000000 0.000000 0.000000 0.039376 0.000000
# 6 0.000000 0.000000 0.000000 0.000000 0.000000 0.033554
#
#
# Mechanical properties :
#
#
# Convention : Reuss Voigt Hill
#
# Bulk Modulus (GPa) = 37.55977 65.78373 51.67175
# Shear Modulus (GPa) = 30.54964 37.47134 34.01049
#
# Velocity S-wave (km/s) = 3.52678 3.90593 3.72119
# Velocity P-wave (km/s) = 5.64593 6.86479 6.28498
#
# Compressibility (1/GPa) = 0.02662423
#
# Stress axis : x y z
#
# Youngs Moduli (GPa) = 149.18857 149.18946 47.28135
#
# Poissons Ratio (x) = 0.41663 0.02773
# Poissons Ratio (y) = 0.41663 0.02773
# Poissons Ratio (z) = 0.08751 0.08751
#
# Static dielectric constant tensor:
#      x y z
#    x 1.991450 0.000000 0.000000 
#    y 0.000000 1.991440 0.000000 
#    z 0.000000 0.000000 2.098180 
# 
# From -- ./inp_files/3047.got.cif
#   From: 2010.05.17/outbox.cif.g08.bks.cpg/sg118_2_cif.got.tgz:3047.got - 2010.05.20 11:17:24.
