data_PCOD9558876
_publ_section_title
;
Structure prediction by ZEFSAII (Michael W. Deem and Ramdas Pophale) SiO2 
 PCOD9558876
Probable space group: P -4 N 2
;
_chemical_formula_sum "Si O2"
_cell_formula_units_Z 40
_cell_length_a 14.883985
_cell_length_b 14.883985
_cell_length_c 7.568323
_cell_angle_alpha 90.000000
_cell_angle_beta 90.000000
_cell_angle_gamma 90.000000
_cell_volume 1676.633371
_symmetry_space_group_name_H-M "P -4 N 2"
_symmetry_group_IT_number 118
_symmetry_cell_setting 'tetragonal'
loop_
_space_group_symop_operation_xyz
x,y,z
y,-x,-z
-x,-y,z
-y,x,-z
1/2+y,1/2+x,1/2-z
1/2-y,1/2-x,1/2-z
1/2-x,1/2+y,1/2+z
1/2+x,1/2-y,1/2+z
loop_
_atom_site_type_symbol
_atom_site_label
_atom_site_fract_x
_atom_site_fract_y
_atom_site_fract_z
Si Si1 0.028927 0.594854 0.446625
Si Si2 0.402970 0.406035 0.952603
Si Si3 0.826487 0.282049 0.948863
Si Si4 0.448043 0.366150 0.557883
Si Si5 0.709655 0.149139 0.559185
O O1 0.061287 0.561287 0.250000
O O2 0.116283 0.653483 0.495271
O O3 0.000000 0.500000 0.534318
O O4 0.941158 0.655595 0.488343
O O5 0.425912 0.360730 0.766615
O O6 0.394676 0.512437 0.919054
O O7 0.313779 0.376359 0.047770
O O8 0.793872 0.293872 0.750000
O O9 0.747733 0.218665 0.034943
O O10 0.917594 0.226549 0.971608
O O11 0.391159 0.448799 0.476587
O O12 0.668153 0.168153 0.750000
#
# Coordination Sequence:
#
# PCOD9558876 Si02
#       5
#     8   8   8   8   8
#     4  11  25  49  77 112 149 213 261 324 400 480
#     4  11  25  43  78 109 147 201 252 328 398 467
#     4  11  29  45  75 110 151 204 260 324 385 479
#     4  11  27  47  75 112 155 200 254 331 402 473
#     4  11  25  44  74 108 155 201 258 323 382 479
#
# _framework density 23.857332
#
# number of rings (size 3 to 8) (size 9 to 14) (size 15 to 20)
#    0.000    1.000    2.000    3.600   22.400    0.400 
#    0.000    2.000    0.000    0.000    0.000    0.000 
#    0.000    0.000    0.000    0.000    0.000    0.000 
#
# Total GULP energy -223051.709565 kJ/mol
# GULP energy per Si atom -5576.292739 kJ/mol
# Density = 2.380303 g / cm^3
# Si number density = 23.857332 Si / 1000 Ang^3
#
#
#
# Elastic Constant Matrix: (Units=GPa)
#
#
# Indices 1 2 3 4 5 6 
#
# 1 108.9059 36.8558 10.0837 0.0000 0.0000 0.0000
# 2 36.8558 108.9059 10.0837 0.0000 0.0000 0.0000
# 3 10.0837 10.0837 71.1191 0.0000 0.0000 0.0000
# 4 0.0000 0.0000 0.0000 23.0106 0.0000 0.0000
# 5 0.0000 0.0000 0.0000 0.0000 23.0106 0.0000
# 6 0.0000 0.0000 0.0000 0.0000 0.0000 63.8877
#
#
#
# Elastic Compliance Matrix: (Units=1/GPa)
#
#
# Indices 1 2 3 4 5 6 
#
# 1 0.010439 -0.003441 -0.000992 0.000000 0.000000 0.000000
# 2 -0.003441 0.010439 -0.000992 0.000000 0.000000 0.000000
# 3 -0.000992 -0.000992 0.014342 0.000000 0.000000 0.000000
# 4 0.000000 0.000000 0.000000 0.043458 0.000000 0.000000
# 5 0.000000 0.000000 0.000000 0.000000 0.043458 0.000000
# 6 0.000000 0.000000 0.000000 0.000000 0.000000 0.015652
#
#
# Mechanical properties :
#
#
# Convention : Reuss Voigt Hill
#
# Bulk Modulus (GPa) = 41.03556 44.77525 42.90541
# Shear Modulus (GPa) = 31.89559 37.44230 34.66894
#
# Velocity S-wave (km/s) = 3.66037 3.96589 3.81619
# Velocity P-wave (km/s) = 5.92471 6.30712 6.11890
#
# Compressibility (1/GPa) = 0.02436911
#
# Stress axis : x y z
#
# Youngs Moduli (GPa) = 95.79908 95.79908 69.72397
#
# Poissons Ratio (x) = 0.32962 0.06918
# Poissons Ratio (y) = 0.32962 0.06918
# Poissons Ratio (z) = 0.09505 0.09505
#
# Static dielectric constant tensor:
#      x y z
#    x 1.986650 0.000000 0.000000 
#    y 0.000000 1.986650 0.000000 
#    z 0.000000 0.000000 1.719260 
# 
# From -- ./inp_files/1896.got.cif
#   From: 2010.05.17/outbox.cif.g08.bks.cpg/sg118_1_cif.got.tgz:1896.got - 2010.05.20 11:17:24.
