data_PCOD9558032
_publ_section_title
;
Structure prediction by ZEFSAII (Michael W. Deem and Ramdas Pophale) SiO2 
 PCOD9558032
Probable space group: P -4 C 2
;
_chemical_formula_sum "Si O2"
_cell_formula_units_Z 22
_cell_length_a 8.504485
_cell_length_b 8.504485
_cell_length_c 12.364821
_cell_angle_alpha 90.000000
_cell_angle_beta 90.000000
_cell_angle_gamma 90.000000
_cell_volume 894.301322
_symmetry_space_group_name_H-M "P -4 C 2"
_symmetry_group_IT_number 116
_symmetry_cell_setting 'tetragonal'
loop_
_space_group_symop_operation_xyz
x,y,z
y,-x,-z
-x,-y,z
-y,x,-z
y,x,1/2-z
-y,-x,1/2-z
-x,y,1/2+z
x,-y,1/2+z
loop_
_atom_site_type_symbol
_atom_site_label
_atom_site_fract_x
_atom_site_fract_y
_atom_site_fract_z
Si Si1 0.500000 0.000000 0.810750
Si Si2 0.500000 0.500000 0.500000
Si Si3 0.923546 0.245462 0.837672
Si Si4 0.763748 0.728522 0.566374
O O1 0.402407 0.889446 0.730272
O O2 0.618553 0.898111 0.882140
O O3 0.603438 0.628454 0.564498
O O4 0.885732 0.114269 0.750000
O O5 0.105323 0.248069 0.873317
O O6 0.817395 0.233753 0.943822
#
# Coordination Sequence:
#
# PCOD9558032 Si02
#       4
#     4   2   8   8
#     4  12  26  46  72 112 152 200 266 332 402 468
#     4  12  24  48  74 104 156 202 244 328 402 456
#     4  12  27  49  77 111 155 208 266 328 397 470
#     4  12  27  48  77 113 155 206 267 332 394 480
#
# _framework density 24.600211999999999
#
# number of rings (size 3 to 8) (size 9 to 14) (size 15 to 20)
#    0.000    0.000    0.000   10.909    0.000    9.455 
#    0.000   11.818    0.000    0.000    0.000    0.000 
#    0.000    0.000    0.000    0.000    0.000    0.000 
#
# Total GULP energy -123408.290352 kJ/mol
# GULP energy per Si atom -5609.467743 kJ/mol
# Density = 2.454422 g / cm^3
# Si number density = 24.600212 Si / 1000 Ang^3
#
#
#
# Elastic Constant Matrix: (Units=GPa)
#
#
# Indices 1 2 3 4 5 6 
#
# 1 139.9808 68.2146 72.0657 0.0000 0.0000 0.0000
# 2 68.2146 139.9827 72.0662 0.0000 0.0000 0.0000
# 3 72.0657 72.0662 183.8990 0.0000 0.0000 0.0000
# 4 0.0000 0.0000 0.0000 24.2407 0.0000 0.0000
# 5 0.0000 0.0000 0.0000 0.0000 24.2395 0.0000
# 6 0.0000 0.0000 0.0000 0.0000 0.0000 51.5376
#
#
#
# Elastic Compliance Matrix: (Units=1/GPa)
#
#
# Indices 1 2 3 4 5 6 
#
# 1 0.010263 -0.003671 -0.002583 0.000000 0.000000 0.000000
# 2 -0.003671 0.010263 -0.002583 0.000000 0.000000 0.000000
# 3 -0.002583 -0.002583 0.007462 0.000000 0.000000 0.000000
# 4 0.000000 0.000000 0.000000 0.041253 0.000000 0.000000
# 5 0.000000 0.000000 0.000000 0.000000 0.041255 0.000000
# 6 0.000000 0.000000 0.000000 0.000000 0.000000 0.019403
#
#
# Mechanical properties :
#
#
# Convention : Reuss Voigt Hill
#
# Bulk Modulus (GPa) = 96.96608 98.72840 97.84724
# Shear Modulus (GPa) = 33.11017 36.77129 34.94073
#
# Velocity S-wave (km/s) = 3.67267 3.87040 3.77283
# Velocity P-wave (km/s) = 7.58202 7.75845 7.67074
#
# Compressibility (1/GPa) = 0.01031288
#
# Stress axis : x y z
#
# Youngs Moduli (GPa) = 97.44012 97.44144 134.00856
#
# Poissons Ratio (x) = 0.35774 0.34615
# Poissons Ratio (y) = 0.35773 0.34614
# Poissons Ratio (z) = 0.25169 0.25169
#
# Static dielectric constant tensor:
#      x y z
#    x 2.017530 0.000000 0.000000 
#    y 0.000000 2.017530 0.000000 
#    z 0.000000 0.000000 1.922260 
# 
# From -- ./inp_files/2313.got.cif
#   From: 2010.05.17/outbox.cif.g08.bks.cpg/sg116_2_cif.got.tgz:2313.got - 2010.05.20 11:11:43.
