data_PCOD9558292
_publ_section_title
;
Structure prediction by ZEFSAII (Michael W. Deem and Ramdas Pophale) SiO2 
 PCOD9558292
Probable space group: P -4 B 2
;
_chemical_formula_sum "Si O2"
_cell_formula_units_Z 18
_cell_length_a 9.741929
_cell_length_b 9.741929
_cell_length_c 6.915934
_cell_angle_alpha 90.000000
_cell_angle_beta 90.000000
_cell_angle_gamma 90.000000
_cell_volume 656.357966
_symmetry_space_group_name_H-M "P -4 B 2"
_symmetry_group_IT_number 117
_symmetry_cell_setting 'tetragonal'
loop_
_space_group_symop_operation_xyz
x,y,z
y,-x,-z
-x,-y,z
-y,x,-z
1/2+y,1/2+x,-z
1/2-y,1/2-x,-z
1/2-x,1/2+y,z
1/2+x,1/2-y,z
loop_
_atom_site_type_symbol
_atom_site_label
_atom_site_fract_x
_atom_site_fract_y
_atom_site_fract_z
Si Si1 0.991226 0.310604 0.852606
Si Si2 0.219749 0.898695 0.761423
Si Si3 0.500000 0.500000 0.500000
O O1 0.127066 0.382084 0.269141
O O2 0.066539 0.213113 0.009627
O O3 0.908416 0.408416 0.000000
O O4 0.873799 0.235855 0.734493
O O5 0.134698 0.006562 0.635278
#
# Coordination Sequence:
#
# PCOD9558292 Si02
#       3
#     8   8   2
#     4  11  22  48  82 111 144 217 283 328 375 502
#     4  11  24  44  74 111 156 201 267 328 405 472
#     4  12  28  42  72 124 168 214 244 356 428 474
#
# _framework density 27.424061999999999
#
# number of rings (size 3 to 8) (size 9 to 14) (size 15 to 20)
#    0.000    0.889    4.444    5.333    0.000    1.778 
#    0.000    0.000    0.000   16.000    0.000    0.000 
#    0.000    0.000    0.000    0.000    0.000    0.000 
#
# Total GULP energy -100547.993129 kJ/mol
# GULP energy per Si atom -5585.999618 kJ/mol
# Density = 2.736164 g / cm^3
# Si number density = 27.424062 Si / 1000 Ang^3
#
#
#
# Elastic Constant Matrix: (Units=GPa)
#
#
# Indices 1 2 3 4 5 6 
#
# 1 145.8063 46.4234 33.8201 0.0000 0.0000 0.0000
# 2 46.4234 145.8063 33.8201 0.0000 0.0000 0.0000
# 3 33.8201 33.8201 115.8397 0.0000 0.0000 0.0000
# 4 0.0000 0.0000 0.0000 26.1221 0.0000 0.0000
# 5 0.0000 0.0000 0.0000 0.0000 26.1221 0.0000
# 6 0.0000 0.0000 0.0000 0.0000 0.0000 66.2372
#
#
#
# Elastic Compliance Matrix: (Units=1/GPa)
#
#
# Indices 1 2 3 4 5 6 
#
# 1 0.007930 -0.002132 -0.001693 0.000000 0.000000 0.000000
# 2 -0.002132 0.007930 -0.001693 0.000000 0.000000 0.000000
# 3 -0.001693 -0.001693 0.009621 0.000000 0.000000 0.000000
# 4 0.000000 0.000000 0.000000 0.038282 0.000000 0.000000
# 5 0.000000 0.000000 0.000000 0.000000 0.038282 0.000000
# 6 0.000000 0.000000 0.000000 0.000000 0.000000 0.015097
#
#
# Mechanical properties :
#
#
# Convention : Reuss Voigt Hill
#
# Bulk Modulus (GPa) = 69.22468 70.61994 69.92231
# Shear Modulus (GPa) = 37.59629 43.25554 40.42591
#
# Velocity S-wave (km/s) = 3.70662 3.97581 3.84357
# Velocity P-wave (km/s) = 6.60422 6.84712 6.72677
#
# Compressibility (1/GPa) = 0.01444572
#
# Stress axis : x y z
#
# Youngs Moduli (GPa) = 126.10491 126.10491 103.93934
#
# Poissons Ratio (x) = 0.26888 0.17594
# Poissons Ratio (y) = 0.26888 0.17594
# Poissons Ratio (z) = 0.21345 0.21345
#
# Static dielectric constant tensor:
#      x y z
#    x 2.254010 0.000000 0.000000 
#    y 0.000000 2.254010 0.000000 
#    z 0.000000 0.000000 2.217180 
# 
# From -- ./inp_files/1115.got.cif
#   From: 2010.05.17/outbox.cif.g08.bks.cpg/sg117_1_cif.got.tgz:1115.got - 2010.05.20 11:15:09.
