data_PCOD9558179
_publ_section_title
;
Structure prediction by ZEFSAII (Michael W. Deem and Ramdas Pophale) SiO2 
 PCOD9558179
Probable space group: P -4 B 2
;
_chemical_formula_sum "Si O2"
_cell_formula_units_Z 32
_cell_length_a 12.735489
_cell_length_b 12.735489
_cell_length_c 8.365341
_cell_angle_alpha 90.000000
_cell_angle_beta 90.000000
_cell_angle_gamma 90.000000
_cell_volume 1356.797076
_symmetry_space_group_name_H-M "P -4 B 2"
_symmetry_group_IT_number 117
_symmetry_cell_setting 'tetragonal'
loop_
_space_group_symop_operation_xyz
x,y,z
y,-x,-z
-x,-y,z
-y,x,-z
1/2+y,1/2+x,-z
1/2-y,1/2-x,-z
1/2-x,1/2+y,z
1/2+x,1/2-y,z
loop_
_atom_site_type_symbol
_atom_site_label
_atom_site_fract_x
_atom_site_fract_y
_atom_site_fract_z
Si Si1 0.931862 0.261691 0.509782
Si Si2 0.117246 0.211892 0.291916
Si Si3 0.412991 0.749058 0.808156
Si Si4 0.895427 0.216315 0.000009
O O1 0.872129 0.372129 0.500000
O O2 0.842021 0.177947 0.557812
O O3 0.012679 0.259280 0.656321
O O4 0.002357 0.238612 0.355646
O O5 0.138887 0.128742 0.150522
O O6 0.172303 0.317506 0.227636
O O7 0.356012 0.639120 0.851353
O O8 0.491167 0.764710 0.960338
O O9 0.811778 0.311778 0.000000
#
# Coordination Sequence:
#
# PCOD9558179 Si02
#       4
#     8   8   8   8
#     4  11  23  41  66  95 135 180 229 292 361 428
#     4  10  23  42  63  94 135 179 230 289 350 424
#     4  10  21  40  63  92 132 177 230 291 353 424
#     4   9  21  40  62  91 131 178 229 290 353 421
#
# _framework density 23.584955000000001
#
# number of rings (size 3 to 8) (size 9 to 14) (size 15 to 20)
#    0.000    2.000    0.000    2.250    0.000   11.000 
#    0.000   12.500    0.000    0.000    0.000    0.000 
#    0.000    0.000    0.000    0.000    0.000    0.000 
#
# Total GULP energy -178542.011505 kJ/mol
# GULP energy per Si atom -5579.437860 kJ/mol
# Density = 2.353127 g / cm^3
# Si number density = 23.584955 Si / 1000 Ang^3
#
#
#
# Elastic Constant Matrix: (Units=GPa)
#
#
# Indices 1 2 3 4 5 6 
#
# 1 142.6629 66.0378 69.5343 0.0000 0.0000 0.0000
# 2 66.0378 142.6629 69.5343 0.0000 0.0000 0.0000
# 3 69.5343 69.5343 103.1865 0.0000 0.0000 0.0000
# 4 0.0000 0.0000 0.0000 52.8952 0.0000 0.0000
# 5 0.0000 0.0000 0.0000 0.0000 52.8952 0.0000
# 6 0.0000 0.0000 0.0000 0.0000 0.0000 12.2249
#
#
#
# Elastic Compliance Matrix: (Units=1/GPa)
#
#
# Indices 1 2 3 4 5 6 
#
# 1 0.010874 -0.002177 -0.005860 0.000000 0.000000 0.000000
# 2 -0.002177 0.010874 -0.005860 0.000000 0.000000 0.000000
# 3 -0.005860 -0.005860 0.017590 0.000000 0.000000 0.000000
# 4 0.000000 0.000000 0.000000 0.018905 0.000000 0.000000
# 5 0.000000 0.000000 0.000000 0.000000 0.018905 0.000000
# 6 0.000000 0.000000 0.000000 0.000000 0.000000 0.081801
#
#
# Mechanical properties :
#
#
# Convention : Reuss Voigt Hill
#
# Bulk Modulus (GPa) = 86.64640 88.74721 87.69681
# Shear Modulus (GPa) = 26.23426 35.83013 31.03220
#
# Velocity S-wave (km/s) = 3.33878 3.90191 3.63128
# Velocity P-wave (km/s) = 7.18895 7.61645 7.40579
#
# Compressibility (1/GPa) = 0.01154116
#
# Stress axis : x y z
#
# Youngs Moduli (GPa) = 91.96581 91.96581 56.85209
#
# Poissons Ratio (x) = 0.20020 0.33318
# Poissons Ratio (y) = 0.20020 0.33318
# Poissons Ratio (z) = 0.53896 0.53896
#
# Static dielectric constant tensor:
#      x y z
#    x 1.886340 0.000000 0.000000 
#    y 0.000000 1.886340 0.000000 
#    z 0.000000 0.000000 2.040500 
# 
# From -- ./inp_files/1478.got.cif
#   From: 2010.05.17/outbox.cif.g08.bks.cpg/sg117_1_cif.got.tgz:1478.got - 2010.05.20 11:15:09.
