data_PCOD9558665
_publ_section_title
;
Structure prediction by ZEFSAII (Michael W. Deem and Ramdas Pophale) SiO2 
 PCOD9558665
Probable space group: P -4 N 2
;
_chemical_formula_sum "Si O2"
_cell_formula_units_Z 48
_cell_length_a 9.228290
_cell_length_b 9.228290
_cell_length_c 26.375547
_cell_angle_alpha 90.000000
_cell_angle_beta 90.000000
_cell_angle_gamma 90.000000
_cell_volume 2246.176829
_symmetry_space_group_name_H-M "P -4 N 2"
_symmetry_group_IT_number 118
_symmetry_cell_setting 'tetragonal'
loop_
_space_group_symop_operation_xyz
x,y,z
y,-x,-z
-x,-y,z
-y,x,-z
1/2+y,1/2+x,1/2-z
1/2-y,1/2-x,1/2-z
1/2-x,1/2+y,1/2+z
1/2+x,1/2-y,1/2+z
loop_
_atom_site_type_symbol
_atom_site_label
_atom_site_fract_x
_atom_site_fract_y
_atom_site_fract_z
Si Si1 0.932451 0.342102 0.376162
Si Si2 0.353470 0.402452 0.640328
Si Si3 0.444698 0.339457 0.265921
Si Si4 0.784453 0.903819 0.512641
Si Si5 0.789071 0.789266 0.329201
Si Si6 0.653415 0.920327 0.076198
O O1 0.768875 0.365934 0.357857
O O2 0.920317 0.261013 0.429571
O O3 0.000000 0.500000 0.384341
O O4 0.045909 0.254072 0.341069
O O5 0.500000 0.500000 0.639983
O O6 0.270896 0.450008 0.692086
O O7 0.269111 0.456952 0.590787
O O8 0.500000 0.500000 0.256410
O O9 0.292756 0.336353 0.297166
O O10 0.419942 0.273015 0.210921
O O11 0.658926 0.835499 0.477779
O O12 0.934288 0.816426 0.508142
O O13 0.704429 0.822825 0.381014
O O14 0.500000 0.000000 0.080198
#
# Coordination Sequence:
#
# PCOD9558665 Si02
#       6
#     8   8   8   8   8   8
#     4  12  23  41  70  98 136 185 232 291 354 422
#     4  10  23  44  65  96 138 173 223 285 342 425
#     4   9  19  40  65  92 133 174 217 283 344 413
#     4  11  24  41  65  99 131 175 234 285 346 425
#     4  10  22  41  65  97 134 178 229 284 350 419
#     4  11  22  43  64  93 135 175 222 282 346 405
#
# _framework density 21.369645999999999
#
# number of rings (size 3 to 8) (size 9 to 14) (size 15 to 20)
#    0.000    1.500    1.667    4.500    0.000    2.667 
#    0.000   23.333    0.000    0.000    0.000    0.000 
#    0.000    0.000    0.000    0.000    0.000    0.000 
#
# Total GULP energy -267821.921307 kJ/mol
# GULP energy per Si atom -5579.623361 kJ/mol
# Density = 2.132101 g / cm^3
# Si number density = 21.369646 Si / 1000 Ang^3
#
#
#
# Elastic Constant Matrix: (Units=GPa)
#
#
# Indices 1 2 3 4 5 6 
#
# 1 83.6948 11.4610 16.1718 0.0000 0.0000 0.0000
# 2 11.4610 83.6948 16.1718 0.0000 0.0000 0.0000
# 3 16.1718 16.1718 83.0222 0.0000 0.0000 0.0000
# 4 0.0000 0.0000 0.0000 31.5364 0.0000 0.0000
# 5 0.0000 0.0000 0.0000 0.0000 31.5364 0.0000
# 6 0.0000 0.0000 0.0000 0.0000 0.0000 33.8152
#
#
#
# Elastic Compliance Matrix: (Units=1/GPa)
#
#
# Indices 1 2 3 4 5 6 
#
# 1 0.012549 -0.001295 -0.002192 0.000000 0.000000 0.000000
# 2 -0.001295 0.012549 -0.002192 0.000000 0.000000 0.000000
# 3 -0.002192 -0.002192 0.012899 0.000000 0.000000 0.000000
# 4 0.000000 0.000000 0.000000 0.031709 0.000000 0.000000
# 5 0.000000 0.000000 0.000000 0.000000 0.031709 0.000000
# 6 0.000000 0.000000 0.000000 0.000000 0.000000 0.029572
#
#
# Mechanical properties :
#
#
# Convention : Reuss Voigt Hill
#
# Bulk Modulus (GPa) = 37.53946 37.55790 37.54868
# Shear Modulus (GPa) = 33.06297 33.15139 33.10718
#
# Velocity S-wave (km/s) = 3.93770 3.94297 3.94034
# Velocity P-wave (km/s) = 6.18699 6.19216 6.18958
#
# Compressibility (1/GPa) = 0.02663864
#
# Stress axis : x y z
#
# Youngs Moduli (GPa) = 79.68712 79.68712 77.52540
#
# Poissons Ratio (x) = 0.10318 0.16995
# Poissons Ratio (y) = 0.10318 0.16995
# Poissons Ratio (z) = 0.17469 0.17469
#
# Static dielectric constant tensor:
#      x y z
#    x 1.808350 0.000000 0.000000 
#    y 0.000000 1.808350 0.000000 
#    z 0.000000 0.000000 1.772730 
# 
# From -- ./inp_files/6886.got.cif
#   From: 2010.05.17/outbox.cif.g08.bks.cpg/sg118_4_cif.got.tgz:6886.got - 2010.05.20 11:17:24.
