data_PCOD9558607
_publ_section_title
;
Structure prediction by ZEFSAII (Michael W. Deem and Ramdas Pophale) SiO2 
 PCOD9558607
Probable space group: P -4 N 2
;
_chemical_formula_sum "Si O2"
_cell_formula_units_Z 24
_cell_length_a 12.050217
_cell_length_b 12.050217
_cell_length_c 7.319628
_cell_angle_alpha 90.000000
_cell_angle_beta 90.000000
_cell_angle_gamma 90.000000
_cell_volume 1062.866564
_symmetry_space_group_name_H-M "P -4 N 2"
_symmetry_group_IT_number 118
_symmetry_cell_setting 'tetragonal'
loop_
_space_group_symop_operation_xyz
x,y,z
y,-x,-z
-x,-y,z
-y,x,-z
1/2+y,1/2+x,1/2-z
1/2-y,1/2-x,1/2-z
1/2-x,1/2+y,1/2+z
1/2+x,1/2-y,1/2+z
loop_
_atom_site_type_symbol
_atom_site_label
_atom_site_fract_x
_atom_site_fract_y
_atom_site_fract_z
Si Si1 0.275340 0.921499 0.876626
Si Si2 0.798010 0.339390 0.467002
Si Si3 0.834888 0.965276 0.540635
O O1 0.375771 0.875771 0.750000
O O2 0.266654 0.101168 0.452531
O O3 0.193086 0.974339 0.728567
O O4 0.182712 0.216752 0.027442
O O5 0.817112 0.317112 0.250000
O O6 0.805887 0.471183 0.497295
O O7 0.880810 0.065137 0.419396
#
# Coordination Sequence:
#
# PCOD9558607 Si02
#       3
#     8   8   8
#     4  11  23  45  70 102 137 183 240 286 359 428
#     4  10  24  44  68 104 141 180 236 293 355 423
#     4  10  21  40  69  98 135 183 228 288 360 414
#
# _framework density 22.580445999999998
#
# number of rings (size 3 to 8) (size 9 to 14) (size 15 to 20)
#    0.000    1.667    3.333    0.000    0.000   17.333 
#    0.000    0.000    0.000    6.000    0.000    0.000 
#    0.000    0.000    0.000    0.000    0.000    0.000 
#
# Total GULP energy -133966.049773 kJ/mol
# GULP energy per Si atom -5581.918741 kJ/mol
# Density = 2.252905 g / cm^3
# Si number density = 22.580446 Si / 1000 Ang^3
#
#
#
# Elastic Constant Matrix: (Units=GPa)
#
#
# Indices 1 2 3 4 5 6 
#
# 1 101.6873 40.0689 18.7373 0.0000 0.0000 0.0000
# 2 40.0689 101.6873 18.7373 0.0000 0.0000 0.0000
# 3 18.7373 18.7373 28.9734 0.0000 0.0000 0.0000
# 4 0.0000 0.0000 0.0000 30.7280 0.0000 0.0000
# 5 0.0000 0.0000 0.0000 0.0000 30.7280 0.0000
# 6 0.0000 0.0000 0.0000 0.0000 0.0000 52.9917
#
#
#
# Elastic Compliance Matrix: (Units=1/GPa)
#
#
# Indices 1 2 3 4 5 6 
#
# 1 0.012369 -0.003860 -0.005503 0.000000 0.000000 0.000000
# 2 -0.003860 0.012369 -0.005503 0.000000 0.000000 0.000000
# 3 -0.005503 -0.005503 0.041632 0.000000 0.000000 0.000000
# 4 0.000000 0.000000 0.000000 0.032544 0.000000 0.000000
# 5 0.000000 0.000000 0.000000 0.000000 0.032544 0.000000
# 6 0.000000 0.000000 0.000000 0.000000 0.000000 0.018871
#
#
# Mechanical properties :
#
#
# Convention : Reuss Voigt Hill
#
# Bulk Modulus (GPa) = 27.29362 43.04833 35.17097
# Shear Modulus (GPa) = 26.00478 33.20985 29.60732
#
# Velocity S-wave (km/s) = 3.39728 3.83918 3.62497
# Velocity P-wave (km/s) = 5.24425 6.22561 5.75588
#
# Compressibility (1/GPa) = 0.03663860
#
# Stress axis : x y z
#
# Youngs Moduli (GPa) = 80.84717 80.84717 24.01999
#
# Poissons Ratio (x) = 0.31206 0.13218
# Poissons Ratio (y) = 0.31206 0.13218
# Poissons Ratio (z) = 0.44489 0.44489
#
# Static dielectric constant tensor:
#      x y z
#    x 1.972270 0.000000 0.000000 
#    y 0.000000 1.972270 0.000000 
#    z 0.000000 0.000000 1.956820 
# 
# From -- ./inp_files/3735.got.cif
#   From: 2010.05.17/outbox.cif.g08.bks.cpg/sg118_2_cif.got.tgz:3735.got - 2010.05.20 11:17:24.
