data_PCOD9558405
_publ_section_title
;
Structure prediction by ZEFSAII (Michael W. Deem and Ramdas Pophale) SiO2 
 PCOD9558405
Probable space group: P -4 N 2
;
_chemical_formula_sum "Si O2"
_cell_formula_units_Z 56
_cell_length_a 11.634487
_cell_length_b 11.634487
_cell_length_c 20.437960
_cell_angle_alpha 90.000000
_cell_angle_beta 90.000000
_cell_angle_gamma 90.000000
_cell_volume 2766.508585
_symmetry_space_group_name_H-M "P -4 N 2"
_symmetry_group_IT_number 118
_symmetry_cell_setting 'tetragonal'
loop_
_space_group_symop_operation_xyz
x,y,z
y,-x,-z
-x,-y,z
-y,x,-z
1/2+y,1/2+x,1/2-z
1/2-y,1/2-x,1/2-z
1/2-x,1/2+y,1/2+z
1/2+x,1/2-y,1/2+z
loop_
_atom_site_type_symbol
_atom_site_label
_atom_site_fract_x
_atom_site_fract_y
_atom_site_fract_z
Si Si1 0.613930 0.842161 0.011450
Si Si2 0.432199 0.894951 0.433265
Si Si3 0.591664 0.675426 0.899430
Si Si4 0.564335 0.758371 0.749781
Si Si5 0.737350 0.105083 0.194266
Si Si6 0.847623 0.918788 0.393768
Si Si7 0.636096 0.673214 0.256529
O O1 0.475016 0.862757 0.016371
O O2 0.640388 0.760534 0.072817
O O3 0.665929 0.967258 0.024968
O O4 0.639199 0.774734 0.945724
O O5 0.379949 0.817365 0.377338
O O6 0.500000 0.000000 0.395383
O O7 0.582338 0.714458 0.824393
O O8 0.655642 0.554568 0.906883
O O9 0.462430 0.639740 0.920797
O O10 0.608937 0.891064 0.750000
O O11 0.656197 0.689612 0.706257
O O12 0.438414 0.715238 0.726783
O O13 0.643910 0.143910 0.250000
O O14 0.787271 0.975772 0.202696
O O15 0.852247 0.910511 0.316049
O O16 0.719734 0.780267 0.250000
#
# Coordination Sequence:
#
# PCOD9558405 Si02
#       7
#     8   8   8   8   8   8   8
#     4   9  18  33  49  80 121 154 191 241 317 371
#     4   8  21  33  50  85 121 153 202 247 315 386
#     4  10  19  33  56  81 117 154 201 253 303 378
#     4  10  23  39  57  88 121 173 217 255 310 383
#     4  11  20  34  61  90 127 162 200 270 331 385
#     4  10  18  32  52  86 115 148 199 248 318 368
#     4  11  22  35  57  87 131 161 200 261 321 392
#
# _framework density 20.24212
#
# number of rings (size 3 to 8) (size 9 to 14) (size 15 to 20)
#    0.857    1.143    1.429    3.000    4.000    1.429 
#    0.000    5.714    0.000    0.000    0.000    0.000 
#    0.000    0.000    0.000    0.000    0.000    0.000 
#
# Total GULP energy -311750.614580 kJ/mol
# GULP energy per Si atom -5566.975260 kJ/mol
# Density = 2.019605 g / cm^3
# Si number density = 20.242120 Si / 1000 Ang^3
#
#
#
# Elastic Constant Matrix: (Units=GPa)
#
#
# Indices 1 2 3 4 5 6 
#
# 1 75.3562 17.7062 5.0470 0.0000 0.0000 0.0000
# 2 17.7062 75.3508 5.0468 0.0000 0.0000 0.0000
# 3 5.0470 5.0468 56.5188 0.0000 0.0000 0.0000
# 4 0.0000 0.0000 0.0000 21.5753 0.0000 0.0000
# 5 0.0000 0.0000 0.0000 0.0000 21.5784 0.0000
# 6 0.0000 0.0000 0.0000 0.0000 0.0000 31.3733
#
#
#
# Elastic Compliance Matrix: (Units=1/GPa)
#
#
# Indices 1 2 3 4 5 6 
#
# 1 0.014098 -0.003248 -0.000969 0.000000 0.000000 0.000000
# 2 -0.003248 0.014099 -0.000969 0.000000 0.000000 0.000000
# 3 -0.000969 -0.000969 0.017866 0.000000 0.000000 0.000000
# 4 0.000000 0.000000 0.000000 0.046349 0.000000 0.000000
# 5 0.000000 0.000000 0.000000 0.000000 0.046343 0.000000
# 6 0.000000 0.000000 0.000000 0.000000 0.000000 0.031874
#
#
# Mechanical properties :
#
#
# Convention : Reuss Voigt Hill
#
# Bulk Modulus (GPa) = 28.01725 29.20286 28.61005
# Shear Modulus (GPa) = 25.92025 26.86713 26.39369
#
# Velocity S-wave (km/s) = 3.58230 3.64715 3.61487
# Velocity P-wave (km/s) = 5.56612 5.67395 5.62029
#
# Compressibility (1/GPa) = 0.03569230
#
# Stress axis : x y z
#
# Youngs Moduli (GPa) = 70.93013 70.92512 55.97135
#
# Poissons Ratio (x) = 0.23036 0.05423
# Poissons Ratio (y) = 0.23038 0.05423
# Poissons Ratio (z) = 0.06873 0.06872
#
# Static dielectric constant tensor:
#      x y z
#    x 1.777260 0.000000 0.000000 
#    y 0.000000 1.777260 0.000000 
#    z 0.000000 0.000000 1.716540 
# 
# From -- ./inp_files/5696.got.cif
#   From: 2010.05.17/outbox.cif.g08.bks.cpg/sg118_3_cif.got.tgz:5696.got - 2010.05.20 11:17:24.
