data_PCOD9558361
_publ_section_title
;
Structure prediction by ZEFSAII (Michael W. Deem and Ramdas Pophale) SiO2 
 PCOD9558361
Probable space group: P -4 B 2
;
_chemical_formula_sum "Si O2"
_cell_formula_units_Z 26
_cell_length_a 14.239919
_cell_length_b 14.239919
_cell_length_c 4.795888
_cell_angle_alpha 90.000000
_cell_angle_beta 90.000000
_cell_angle_gamma 90.000000
_cell_volume 972.487595
_symmetry_space_group_name_H-M "P -4 B 2"
_symmetry_group_IT_number 117
_symmetry_cell_setting 'tetragonal'
loop_
_space_group_symop_operation_xyz
x,y,z
y,-x,-z
-x,-y,z
-y,x,-z
1/2+y,1/2+x,-z
1/2-y,1/2-x,-z
1/2-x,1/2+y,z
1/2+x,1/2-y,z
loop_
_atom_site_type_symbol
_atom_site_label
_atom_site_fract_x
_atom_site_fract_y
_atom_site_fract_z
Si Si1 0.500000 0.000000 0.500000
Si Si2 0.072912 0.810257 0.187093
Si Si3 0.881761 0.830021 0.332661
Si Si4 0.442790 0.818155 0.807458
O O1 0.504319 0.092234 0.685659
O O2 0.122388 0.800069 0.482680
O O3 0.985192 0.876933 0.281770
O O4 0.154863 0.843617 0.979734
O O5 0.013622 0.733980 0.017954
O O6 0.910007 0.743032 0.537869
O O7 0.358459 0.858459 0.000000
#
# Coordination Sequence:
#
# PCOD9558361 Si02
#       4
#     2   8   8   8
#     4  12  30  56  92 118 172 254 306 368 468 538
#     4  12  25  49  82 127 172 228 285 364 449 529
#     4  12  25  49  81 128 172 224 292 359 451 528
#     4  12  28  55  86 125 176 243 303 376 449 540
#
# _framework density 26.735557
#
# number of rings (size 3 to 8) (size 9 to 14) (size 15 to 20)
#    0.000    0.000    6.154    2.308    0.000    3.692 
#    5.538    0.000    0.000    0.000    0.000    0.000 
#    0.000    0.000    0.000    0.000    0.000    0.000 
#
# Total GULP energy -144815.870099 kJ/mol
# GULP energy per Si atom -5569.841158 kJ/mol
# Density = 2.667471 g / cm^3
# Si number density = 26.735557 Si / 1000 Ang^3
#
#
#
# Elastic Constant Matrix: (Units=GPa)
#
#
# Indices 1 2 3 4 5 6 
#
# 1 99.0427 79.1680 60.2711 0.0000 0.0000 0.0000
# 2 79.1680 99.0427 60.2711 0.0000 0.0000 0.0000
# 3 60.2711 60.2711 248.9199 0.0000 0.0000 0.0000
# 4 0.0000 0.0000 0.0000 51.5735 0.0000 0.0000
# 5 0.0000 0.0000 0.0000 0.0000 51.5735 0.0000
# 6 0.0000 0.0000 0.0000 0.0000 0.0000 40.1866
#
#
#
# Elastic Compliance Matrix: (Units=1/GPa)
#
#
# Indices 1 2 3 4 5 6 
#
# 1 0.028513 -0.021802 -0.001625 0.000000 0.000000 0.000000
# 2 -0.021802 0.028513 -0.001625 0.000000 0.000000 0.000000
# 3 -0.001625 -0.001625 0.004804 0.000000 0.000000 0.000000
# 4 0.000000 0.000000 0.000000 0.019390 0.000000 0.000000
# 5 0.000000 0.000000 0.000000 0.000000 0.019390 0.000000
# 6 0.000000 0.000000 0.000000 0.000000 0.000000 0.024884
#
#
# Mechanical properties :
#
#
# Convention : Reuss Voigt Hill
#
# Bulk Modulus (GPa) = 85.28247 94.04731 89.66489
# Shear Modulus (GPa) = 27.85422 45.15306 36.50364
#
# Velocity S-wave (km/s) = 3.23126 4.11405 3.69909
# Velocity P-wave (km/s) = 6.77415 7.60398 7.20103
#
# Compressibility (1/GPa) = 0.01172574
#
# Stress axis : x y z
#
# Youngs Moduli (GPa) = 35.07193 35.07193 208.15230
#
# Poissons Ratio (x) = 0.76466 0.33820
# Poissons Ratio (y) = 0.76466 0.33820
# Poissons Ratio (z) = 0.05698 0.05698
#
# Static dielectric constant tensor:
#      x y z
#    x 2.197840 0.000000 0.000000 
#    y 0.000000 2.197840 0.000000 
#    z 0.000000 0.000000 2.514960 
# 
# From -- ./inp_files/289.got.cif
#   From: 2010.05.17/outbox.cif.g08.bks.cpg/sg117_1_cif.got.tgz:289.got - 2010.05.20 11:15:09.
