data_PCOD9558858
_publ_section_title
;
Structure prediction by ZEFSAII (Michael W. Deem and Ramdas Pophale) SiO2 
 PCOD9558858
Probable space group: P -4 N 2
;
_chemical_formula_sum "Si O2"
_cell_formula_units_Z 26
_cell_length_a 8.390274
_cell_length_b 8.390274
_cell_length_c 16.613089
_cell_angle_alpha 90.000000
_cell_angle_beta 90.000000
_cell_angle_gamma 90.000000
_cell_volume 1169.506606
_symmetry_space_group_name_H-M "P -4 N 2"
_symmetry_group_IT_number 118
_symmetry_cell_setting 'tetragonal'
loop_
_space_group_symop_operation_xyz
x,y,z
y,-x,-z
-x,-y,z
-y,x,-z
1/2+y,1/2+x,1/2-z
1/2-y,1/2-x,1/2-z
1/2-x,1/2+y,1/2+z
1/2+x,1/2-y,1/2+z
loop_
_atom_site_type_symbol
_atom_site_label
_atom_site_fract_x
_atom_site_fract_y
_atom_site_fract_z
Si Si1 0.236677 0.733072 0.547922
Si Si2 0.199677 0.300324 0.750000
Si Si3 0.058874 0.819652 0.387724
Si Si4 0.500000 0.500000 0.500000
Si Si5 0.500000 0.000000 0.368196
O O1 0.186362 0.772170 0.456073
O O2 0.387919 0.618451 0.549621
O O3 0.083326 0.640716 0.582862
O O4 0.274154 0.895058 0.595836
O O5 0.191135 0.136915 0.700153
O O6 0.147557 0.431692 0.683923
O O7 0.000000 0.000000 0.402069
#
# Coordination Sequence:
#
# PCOD9558858 Si02
#       5
#     8   4   8   2   4
#     4  12  23  48  80 111 150 209 267 325 383 483
#     4  11  24  44  72 117 156 205 248 323 412 470
#     4  12  22  46  84 111 148 203 266 323 395 472
#     4  12  28  40  76 124 152 192 276 342 380 452
#     4  11  24  46  78 113 164 198 254 333 406 468
#
# _framework density 22.231594000000001
#
# number of rings (size 3 to 8) (size 9 to 14) (size 15 to 20)
#    0.000    0.308    6.154    3.692    0.000    0.000 
#   11.077    0.000    6.769    3.692    0.000    0.000 
#    0.000    0.000    0.000    0.000    0.000    0.000 
#
# Total GULP energy -145261.594361 kJ/mol
# GULP energy per Si atom -5586.984399 kJ/mol
# Density = 2.218099 g / cm^3
# Si number density = 22.231594 Si / 1000 Ang^3
#
#
#
# Elastic Constant Matrix: (Units=GPa)
#
#
# Indices 1 2 3 4 5 6 
#
# 1 126.0807 62.4247 57.6250 0.0000 0.0000 0.0000
# 2 62.4247 126.0809 57.6244 0.0000 0.0000 0.0000
# 3 57.6250 57.6244 113.9447 0.0000 0.0000 0.0000
# 4 0.0000 0.0000 0.0000 35.0568 0.0000 0.0000
# 5 0.0000 0.0000 0.0000 0.0000 35.0571 0.0000
# 6 0.0000 0.0000 0.0000 0.0000 0.0000 62.2348
#
#
#
# Elastic Compliance Matrix: (Units=1/GPa)
#
#
# Indices 1 2 3 4 5 6 
#
# 1 0.011694 -0.004015 -0.003884 0.000000 0.000000 0.000000
# 2 -0.004015 0.011694 -0.003884 0.000000 0.000000 0.000000
# 3 -0.003884 -0.003884 0.012704 0.000000 0.000000 0.000000
# 4 0.000000 0.000000 0.000000 0.028525 0.000000 0.000000
# 5 0.000000 0.000000 0.000000 0.000000 0.028525 0.000000
# 6 0.000000 0.000000 0.000000 0.000000 0.000000 0.016068
#
#
# Mechanical properties :
#
#
# Convention : Reuss Voigt Hill
#
# Bulk Modulus (GPa) = 79.81872 80.16161 79.99017
# Shear Modulus (GPa) = 36.50920 39.03189 37.77054
#
# Velocity S-wave (km/s) = 4.05683 4.19465 4.12631
# Velocity P-wave (km/s) = 7.61085 7.71984 7.66554
#
# Compressibility (1/GPa) = 0.01252839
#
# Stress axis : x y z
#
# Youngs Moduli (GPa) = 85.51114 85.51191 78.71384
#
# Poissons Ratio (x) = 0.34334 0.30570
# Poissons Ratio (y) = 0.34333 0.30569
# Poissons Ratio (z) = 0.33210 0.33209
#
# Static dielectric constant tensor:
#      x y z
#    x 1.869880 0.000000 0.000000 
#    y 0.000000 1.869880 0.000000 
#    z 0.000000 0.000000 1.813050 
# 
# From -- ./inp_files/4549.got.cif
#   From: 2010.05.17/outbox.cif.g08.bks.cpg/sg118_3_cif.got.tgz:4549.got - 2010.05.20 11:17:24.
