data_PCOD9558582
_publ_section_title
;
Structure prediction by ZEFSAII (Michael W. Deem and Ramdas Pophale) SiO2 
 PCOD9558582
Probable space group: P -4 N 2
;
_chemical_formula_sum "Si O2"
_cell_formula_units_Z 64
_cell_length_a 19.603383
_cell_length_b 19.603383
_cell_length_c 8.926686
_cell_angle_alpha 90.000000
_cell_angle_beta 90.000000
_cell_angle_gamma 90.000000
_cell_volume 3430.459596
_symmetry_space_group_name_H-M "P -4 N 2"
_symmetry_group_IT_number 118
_symmetry_cell_setting 'tetragonal'
loop_
_space_group_symop_operation_xyz
x,y,z
y,-x,-z
-x,-y,z
-y,x,-z
1/2+y,1/2+x,1/2-z
1/2-y,1/2-x,1/2-z
1/2-x,1/2+y,1/2+z
1/2+x,1/2-y,1/2+z
loop_
_atom_site_type_symbol
_atom_site_label
_atom_site_fract_x
_atom_site_fract_y
_atom_site_fract_z
Si Si1 0.650939 0.255671 0.092106
Si Si2 0.760449 0.131541 0.067861
Si Si3 0.467746 0.928984 0.420036
Si Si4 0.140990 0.776369 0.879094
Si Si5 0.838039 0.591173 0.122271
Si Si6 0.437982 0.172443 0.800593
Si Si7 0.847109 0.260450 0.538637
Si Si8 0.783819 0.482890 0.497824
O O1 0.702450 0.190598 0.074697
O O2 0.617441 0.266325 0.253760
O O3 0.599158 0.234561 0.959882
O O4 0.701533 0.318299 0.067961
O O5 0.823130 0.163735 0.974196
O O6 0.738516 0.061236 0.990989
O O7 0.446407 0.946407 0.250000
O O8 0.398582 0.908456 0.501980
O O9 0.516141 0.862692 0.441499
O O10 0.500000 0.000000 0.479841
O O11 0.150289 0.775122 0.700549
O O12 0.179504 0.708350 0.939737
O O13 0.060723 0.765443 0.898306
O O14 0.852620 0.647381 0.250000
O O15 0.848456 0.516531 0.190679
O O16 0.388436 0.111564 0.750000
O O17 0.442392 0.222173 0.658531
O O18 0.411182 0.205404 0.954628
#
# Coordination Sequence:
#
# PCOD9558582 Si02
#       8
#     8   8   8   8   8   8   8   8
#     4  10  21  38  60  82 114 155 204 250 313 337
#     4  10  21  39  62  85 114 153 201 259 300 371
#     4  11  24  36  52  79 121 164 205 240 290 353
#     4  10  23  39  60  88 114 152 206 250 311 357
#     4  12  24  36  55  84 121 161 209 250 287 359
#     4  12  24  38  54  84 125 168 206 237 299 354
#     4  10  23  37  61  82 119 156 197 261 296 361
#     4  12  22  39  60  83 120 161 202 247 302 362
#
# _framework density 18.656393000000001
#
# number of rings (size 3 to 8) (size 9 to 14) (size 15 to 20)
#    0.000    1.125    3.750    2.250   10.500    1.000 
#    0.000    0.000    0.000    0.375    0.000    0.000 
#    0.000    0.500    0.000    0.000    0.000    0.000 
#
# Total GULP energy -356630.832845 kJ/mol
# GULP energy per Si atom -5572.356763 kJ/mol
# Density = 1.861393 g / cm^3
# Si number density = 18.656393 Si / 1000 Ang^3
#
#
#
# Elastic Constant Matrix: (Units=GPa)
#
#
# Indices 1 2 3 4 5 6 
#
# 1 47.4609 35.2427 13.3586 0.0000 0.0000 0.0000
# 2 35.2427 47.4616 13.3590 0.0000 0.0000 0.0000
# 3 13.3586 13.3590 83.0958 0.0000 0.0000 0.0000
# 4 0.0000 0.0000 0.0000 25.4596 0.0000 0.0000
# 5 0.0000 0.0000 0.0000 0.0000 25.4598 0.0000
# 6 0.0000 0.0000 0.0000 0.0000 0.0000 26.4871
#
#
#
# Elastic Compliance Matrix: (Units=1/GPa)
#
#
# Indices 1 2 3 4 5 6 
#
# 1 0.047298 -0.034545 -0.002050 0.000000 0.000000 0.000000
# 2 -0.034545 0.047298 -0.002050 0.000000 0.000000 0.000000
# 3 -0.002050 -0.002050 0.012694 0.000000 0.000000 0.000000
# 4 0.000000 0.000000 0.000000 0.039278 0.000000 0.000000
# 5 0.000000 0.000000 0.000000 0.000000 0.039278 0.000000
# 6 0.000000 0.000000 0.000000 0.000000 0.000000 0.037754
#
#
# Mechanical properties :
#
#
# Convention : Reuss Voigt Hill
#
# Bulk Modulus (GPa) = 33.33378 33.54875 33.44127
# Shear Modulus (GPa) = 16.08287 23.21851 19.65069
#
# Velocity S-wave (km/s) = 2.93927 3.53162 3.24897
# Velocity P-wave (km/s) = 5.42449 5.88653 5.66023
#
# Compressibility (1/GPa) = 0.02999959
#
# Stress axis : x y z
#
# Youngs Moduli (GPa) = 21.14234 21.14257 78.78019
#
# Poissons Ratio (x) = 0.73036 0.16151
# Poissons Ratio (y) = 0.73035 0.16154
# Poissons Ratio (z) = 0.04335 0.04335
#
# Static dielectric constant tensor:
#      x y z
#    x 1.660260 0.000000 0.000000 
#    y 0.000000 1.660260 0.000000 
#    z 0.000000 0.000000 1.763410 
# 
# From -- ./inp_files/2329.got.cif
#   From: 2010.05.17/outbox.cif.g08.bks.cpg/sg118_2_cif.got.tgz:2329.got - 2010.05.20 11:17:24.
