data_PCOD9558346
_publ_section_title
;
Structure prediction by ZEFSAII (Michael W. Deem and Ramdas Pophale) SiO2 
 PCOD9558346
Probable space group: P -4 B 2
;
_chemical_formula_sum "Si O2"
_cell_formula_units_Z 20
_cell_length_a 9.271659
_cell_length_b 9.271659
_cell_length_c 10.105751
_cell_angle_alpha 90.000000
_cell_angle_beta 90.000000
_cell_angle_gamma 90.000000
_cell_volume 868.727349
_symmetry_space_group_name_H-M "P -4 B 2"
_symmetry_group_IT_number 117
_symmetry_cell_setting 'tetragonal'
loop_
_space_group_symop_operation_xyz
x,y,z
y,-x,-z
-x,-y,z
-y,x,-z
1/2+y,1/2+x,-z
1/2-y,1/2-x,-z
1/2-x,1/2+y,z
1/2+x,1/2-y,z
loop_
_atom_site_type_symbol
_atom_site_label
_atom_site_fract_x
_atom_site_fract_y
_atom_site_fract_z
Si Si1 0.327417 0.967522 0.330070
Si Si2 0.223881 0.723881 0.500000
Si Si3 0.788938 0.935785 0.050065
O O1 0.265154 0.059251 0.453659
O O2 0.249026 0.008014 0.194946
O O3 0.500000 0.000000 0.320457
O O4 0.280871 0.808687 0.372470
O O5 0.652058 0.847943 0.000000
O O6 0.928212 0.831447 0.041796
#
# Coordination Sequence:
#
# PCOD9558346 Si02
#       3
#     8   4   8
#     4  12  27  49  76 109 155 193 253 312 379 455
#     4  12  24  50  76 110 146 202 242 316 378 442
#     4  11  28  49  75 112 150 203 254 313 383 449
#
# _framework density 23.022182999999998
#
# number of rings (size 3 to 8) (size 9 to 14) (size 15 to 20)
#    0.000    0.400    4.000    2.400   11.200    7.200 
#    0.000    0.000    0.000    0.000    0.000    0.000 
#    0.000    0.000    0.000    0.000    0.000    0.000 
#
# Total GULP energy -111855.940506 kJ/mol
# GULP energy per Si atom -5592.797025 kJ/mol
# Density = 2.296978 g / cm^3
# Si number density = 23.022183 Si / 1000 Ang^3
#
#
#
# Elastic Constant Matrix: (Units=GPa)
#
#
# Indices 1 2 3 4 5 6 
#
# 1 73.4763 38.9804 48.6600 0.0000 0.0000 0.0000
# 2 38.9804 73.4711 48.6621 0.0000 0.0000 0.0000
# 3 48.6600 48.6621 110.7462 0.0000 0.0000 0.0000
# 4 0.0000 0.0000 0.0000 24.5732 0.0000 0.0000
# 5 0.0000 0.0000 0.0000 0.0000 24.5738 0.0000
# 6 0.0000 0.0000 0.0000 0.0000 0.0000 43.1603
#
#
#
# Elastic Compliance Matrix: (Units=1/GPa)
#
#
# Indices 1 2 3 4 5 6 
#
# 1 0.021669 -0.007321 -0.006304 0.000000 0.000000 0.000000
# 2 -0.007321 0.021672 -0.006306 0.000000 0.000000 0.000000
# 3 -0.006304 -0.006306 0.014570 0.000000 0.000000 0.000000
# 4 0.000000 0.000000 0.000000 0.040695 0.000000 0.000000
# 5 0.000000 0.000000 0.000000 0.000000 0.040694 0.000000
# 6 0.000000 0.000000 0.000000 0.000000 0.000000 0.023169
#
#
# Mechanical properties :
#
#
# Convention : Reuss Voigt Hill
#
# Bulk Modulus (GPa) = 55.40517 58.92205 57.16361
# Shear Modulus (GPa) = 23.99854 26.55420 25.27637
#
# Velocity S-wave (km/s) = 3.23214 3.39989 3.31707
# Velocity P-wave (km/s) = 6.16824 6.40792 6.28922
#
# Compressibility (1/GPa) = 0.01804886
#
# Stress axis : x y z
#
# Youngs Moduli (GPa) = 46.14980 46.14351 68.63305
#
# Poissons Ratio (x) = 0.33782 0.43266
# Poissons Ratio (y) = 0.33787 0.43278
# Poissons Ratio (z) = 0.29092 0.29097
#
# Static dielectric constant tensor:
#      x y z
#    x 1.842600 0.000000 0.000000 
#    y 0.000000 1.842600 0.000000 
#    z 0.000000 0.000000 1.815560 
# 
# From -- ./inp_files/2223.got.cif
#   From: 2010.05.17/outbox.cif.g08.bks.cpg/sg117_2_cif.got.tgz:2223.got - 2010.05.20 11:15:09.
