data_PCOD9558249
_publ_section_title
;
Structure prediction by ZEFSAII (Michael W. Deem and Ramdas Pophale) SiO2 
 PCOD9558249
Probable space group: P -4 B 2
;
_chemical_formula_sum "Si O2"
_cell_formula_units_Z 34
_cell_length_a 10.368153
_cell_length_b 10.368153
_cell_length_c 12.654290
_cell_angle_alpha 90.000000
_cell_angle_beta 90.000000
_cell_angle_gamma 90.000000
_cell_volume 1360.318416
_symmetry_space_group_name_H-M "P -4 B 2"
_symmetry_group_IT_number 117
_symmetry_cell_setting 'tetragonal'
loop_
_space_group_symop_operation_xyz
x,y,z
y,-x,-z
-x,-y,z
-y,x,-z
1/2+y,1/2+x,-z
1/2-y,1/2-x,-z
1/2-x,1/2+y,z
1/2+x,1/2-y,z
loop_
_atom_site_type_symbol
_atom_site_label
_atom_site_fract_x
_atom_site_fract_y
_atom_site_fract_z
Si Si1 0.356266 0.221170 0.118413
Si Si2 0.292763 0.207238 0.500000
Si Si3 0.457019 0.754417 0.640853
Si Si4 0.500000 0.500000 0.000000
Si Si5 0.000000 0.500000 0.767855
Si Si6 0.877475 0.112454 0.816375
O O1 0.415544 0.087668 0.156788
O O2 0.221651 0.232462 0.181321
O O3 0.471531 0.314430 0.160606
O O4 0.303498 0.196503 0.000000
O O5 0.428930 0.219824 0.557547
O O6 0.287223 0.326791 0.417721
O O7 0.526353 0.650797 0.721042
O O8 0.433545 0.893785 0.694164
O O9 0.618001 0.463341 0.075811
#
# Coordination Sequence:
#
# PCOD9558249 Si02
#       6
#     8   4   8   2   4   8
#     4  11  23  44  73 106 158 212 269 325 412 507
#     4  12  26  50  80 112 152 210 268 360 424 520
#     4  11  26  48  79 114 158 207 279 346 439 513
#     4  12  24  44  68 106 164 220 272 344 416 506
#     4  10  23  43  70 110 146 210 262 330 398 520
#     4  11  26  45  73 112 158 218 276 348 417 526
#
# _framework density 24.994147000000002
#
# number of rings (size 3 to 8) (size 9 to 14) (size 15 to 20)
#    0.000    0.941    2.353    3.176    0.000   13.647 
#    0.000    0.000    0.000    0.000    0.000    0.000 
#    0.000    0.000    0.000    0.000    0.000    0.000 
#
# Total GULP energy -189627.711958 kJ/mol
# GULP energy per Si atom -5577.285646 kJ/mol
# Density = 2.493726 g / cm^3
# Si number density = 24.994147 Si / 1000 Ang^3
#
#
#
# Elastic Constant Matrix: (Units=GPa)
#
#
# Indices 1 2 3 4 5 6 
#
# 1 107.1732 45.5973 22.8170 0.0000 0.0000 0.0000
# 2 45.5973 107.1713 22.8173 0.0000 0.0000 0.0000
# 3 22.8170 22.8173 96.8794 0.0000 0.0000 0.0000
# 4 0.0000 0.0000 0.0000 38.5275 0.0000 0.0000
# 5 0.0000 0.0000 0.0000 0.0000 38.5276 0.0000
# 6 0.0000 0.0000 0.0000 0.0000 0.0000 46.0742
#
#
#
# Elastic Compliance Matrix: (Units=1/GPa)
#
#
# Indices 1 2 3 4 5 6 
#
# 1 0.011641 -0.004600 -0.001658 0.000000 0.000000 0.000000
# 2 -0.004600 0.011641 -0.001658 0.000000 0.000000 0.000000
# 3 -0.001658 -0.001658 0.011103 0.000000 0.000000 0.000000
# 4 0.000000 0.000000 0.000000 0.025956 0.000000 0.000000
# 5 0.000000 0.000000 0.000000 0.000000 0.025955 0.000000
# 6 0.000000 0.000000 0.000000 0.000000 0.000000 0.021704
#
#
# Mechanical properties :
#
#
# Convention : Reuss Voigt Hill
#
# Bulk Modulus (GPa) = 53.90188 54.85413 54.37800
# Shear Modulus (GPa) = 38.45665 39.29200 38.87432
#
# Velocity S-wave (km/s) = 3.92679 3.96921 3.94805
# Velocity P-wave (km/s) = 6.49401 6.55748 6.52582
#
# Compressibility (1/GPa) = 0.01855223
#
# Stress axis : x y z
#
# Youngs Moduli (GPa) = 85.90585 85.90410 90.06362
#
# Poissons Ratio (x) = 0.39512 0.14935
# Poissons Ratio (y) = 0.39513 0.14936
# Poissons Ratio (z) = 0.14246 0.14246
#
# Static dielectric constant tensor:
#      x y z
#    x 2.211410 0.000000 0.000000 
#    y 0.000000 2.211410 0.000000 
#    z 0.000000 0.000000 2.091190 
# 
# From -- ./inp_files/2600.got.cif
#   From: 2010.05.17/outbox.cif.g08.bks.cpg/sg117_2_cif.got.tgz:2600.got - 2010.05.20 11:15:09.
