data_PCOD9558105
_publ_section_title
;
Structure prediction by ZEFSAII (Michael W. Deem and Ramdas Pophale) SiO2 
 PCOD9558105
Probable space group: P -4 B 2
;
_chemical_formula_sum "Si O2"
_cell_formula_units_Z 52
_cell_length_a 20.501231
_cell_length_b 20.501231
_cell_length_c 6.226050
_cell_angle_alpha 90.000000
_cell_angle_beta 90.000000
_cell_angle_gamma 90.000000
_cell_volume 2616.811757
_symmetry_space_group_name_H-M "P -4 B 2"
_symmetry_group_IT_number 117
_symmetry_cell_setting 'tetragonal'
loop_
_space_group_symop_operation_xyz
x,y,z
y,-x,-z
-x,-y,z
-y,x,-z
1/2+y,1/2+x,-z
1/2-y,1/2-x,-z
1/2-x,1/2+y,z
1/2+x,1/2-y,z
loop_
_atom_site_type_symbol
_atom_site_label
_atom_site_fract_x
_atom_site_fract_y
_atom_site_fract_z
Si Si1 0.346486 0.582237 0.148988
Si Si2 0.449608 0.267791 0.466408
Si Si3 0.513738 0.893576 0.127649
Si Si4 0.958113 0.698372 0.776737
Si Si5 0.781982 0.375836 0.884973
Si Si6 0.039232 0.181575 0.084517
Si Si7 0.907869 0.592132 0.500000
O O1 0.331350 0.561567 0.391094
O O2 0.398443 0.639190 0.139238
O O3 0.276967 0.602625 0.041488
O O4 0.363802 0.517690 0.014456
O O5 0.478294 0.213674 0.629338
O O6 0.381560 0.249987 0.350700
O O7 0.504921 0.281775 0.285964
O O8 0.572212 0.840847 0.156759
O O9 0.470180 0.910443 0.336156
O O10 0.547462 0.952539 0.000000
O O11 0.469497 0.855144 0.958979
O O12 0.910010 0.661506 0.618763
O O13 0.943174 0.764998 0.901532
O O14 0.814371 0.314371 0.000000
#
# Coordination Sequence:
#
# PCOD9558105 Si02
#       7
#     8   8   8   8   8   8   4
#     4  10  22  41  69  92 128 164 210 267 334 387
#     4  10  19  39  63  93 122 169 206 260 323 381
#     4  11  23  40  61  93 132 169 221 265 309 370
#     4  11  21  41  60  91 129 169 212 258 321 367
#     4  10  20  40  63  94 123 168 217 265 311 373
#     4  10  22  42  65  96 127 163 206 271 323 392
#     4  12  24  39  64  92 130 182 216 260 318 379
#
# _framework density 19.871511000000002
#
# number of rings (size 3 to 8) (size 9 to 14) (size 15 to 20)
#    0.000    1.538    6.154    0.462    0.000    8.308 
#    0.000    3.077    0.000    1.846    0.000    0.000 
#    0.000    0.000    0.000    0.000    0.000    0.000 
#
# Total GULP energy -289563.864412 kJ/mol
# GULP energy per Si atom -5568.535854 kJ/mol
# Density = 1.982628 g / cm^3
# Si number density = 19.871511 Si / 1000 Ang^3
#
#
#
# Elastic Constant Matrix: (Units=GPa)
#
#
# Indices 1 2 3 4 5 6 
#
# 1 123.5715 -9.1238 38.0056 0.0000 0.0000 0.0000
# 2 -9.1238 123.6193 38.0059 0.0000 0.0000 0.0000
# 3 38.0056 38.0059 111.5967 0.0000 0.0000 0.0000
# 4 0.0000 0.0000 0.0000 20.1437 0.0000 0.0000
# 5 0.0000 0.0000 0.0000 0.0000 20.1441 0.0000
# 6 0.0000 0.0000 0.0000 0.0000 0.0000 38.9344
#
#
#
# Elastic Compliance Matrix: (Units=1/GPa)
#
#
# Indices 1 2 3 4 5 6 
#
# 1 0.009414 0.001877 -0.003845 0.000000 0.000000 0.000000
# 2 0.001877 0.009410 -0.003844 0.000000 0.000000 0.000000
# 3 -0.003845 -0.003844 0.011579 0.000000 0.000000 0.000000
# 4 0.000000 0.000000 0.000000 0.049643 0.000000 0.000000
# 5 0.000000 0.000000 0.000000 0.000000 0.049642 0.000000
# 6 0.000000 0.000000 0.000000 0.000000 0.000000 0.025684
#
#
# Mechanical properties :
#
#
# Convention : Reuss Voigt Hill
#
# Bulk Modulus (GPa) = 53.25183 54.72919 53.99051
# Shear Modulus (GPa) = 28.85900 35.30443 32.08171
#
# Velocity S-wave (km/s) = 3.81501 4.21959 4.02239
# Velocity P-wave (km/s) = 6.80162 7.16528 6.98582
#
# Compressibility (1/GPa) = 0.01877870
#
# Stress axis : x y z
#
# Youngs Moduli (GPa) = 106.22844 106.27407 86.36017
#
# Poissons Ratio (x) = -0.19947 0.33207
# Poissons Ratio (y) = -0.19939 0.33195
# Poissons Ratio (z) = 0.40847 0.40850
#
# Static dielectric constant tensor:
#      x y z
#    x 1.724180 0.000000 0.000000 
#    y 0.000000 1.724180 0.000000 
#    z 0.000000 0.000000 1.627770 
# 
# From -- ./inp_files/875.got.cif
#   From: 2010.05.17/outbox.cif.g08.bks.cpg/sg117_1_cif.got.tgz:875.got - 2010.05.20 11:15:09.
