data_PCOD9558060
_publ_section_title
;
Structure prediction by ZEFSAII (Michael W. Deem and Ramdas Pophale) SiO2 
 PCOD9558060
Probable space group: P -4 B 2
;
_chemical_formula_sum "Si O2"
_cell_formula_units_Z 48
_cell_length_a 15.115859
_cell_length_b 15.115859
_cell_length_c 12.273367
_cell_angle_alpha 90.000000
_cell_angle_beta 90.000000
_cell_angle_gamma 90.000000
_cell_volume 2804.331725
_symmetry_space_group_name_H-M "P -4 B 2"
_symmetry_group_IT_number 117
_symmetry_cell_setting 'tetragonal'
loop_
_space_group_symop_operation_xyz
x,y,z
y,-x,-z
-x,-y,z
-y,x,-z
1/2+y,1/2+x,-z
1/2-y,1/2-x,-z
1/2-x,1/2+y,z
1/2+x,1/2-y,z
loop_
_atom_site_type_symbol
_atom_site_label
_atom_site_fract_x
_atom_site_fract_y
_atom_site_fract_z
Si Si1 0.453884 0.196785 0.265251
Si Si2 0.924003 0.575997 0.124490
Si Si3 0.046116 0.696785 0.734749
Si Si4 0.054826 0.861811 0.124020
Si Si5 0.861811 0.945174 0.124020
Si Si6 0.503485 0.148761 0.500000
O O1 0.532086 0.156215 0.190319
O O2 0.374343 0.125657 0.263318
O O3 0.423772 0.288012 0.212135
O O4 0.488608 0.201940 0.388848
O O5 0.843785 0.532086 0.190318
O O6 0.000000 0.500000 0.121739
O O7 0.901301 0.598700 0.000000
O O8 0.076228 0.788012 0.787865
O O9 0.011392 0.701940 0.611153
O O10 0.952014 0.889897 0.135299
O O11 0.110103 0.952014 0.135299
O O12 0.067851 0.828320 0.000000
O O13 0.596419 0.096419 0.500000
O O14 0.428782 0.071219 0.500000
#
# Coordination Sequence:
#
# PCOD9558060 Si02
#       6
#     8   8   8   8   8   8
#     4  10  18  31  52  77 105 133 171 217 257 303
#     4   9  16  25  43  73 105 130 153 198 261 308
#     4  10  18  31  52  77 105 133 171 217 257 303
#     4   9  19  37  56  72  99 140 176 209 261 323
#     4   9  19  37  56  72  99 140 176 209 261 323
#     4   9  16  30  50  73 104 144 173 199 254 316
#
# _framework density 17.116378000000001
#
# number of rings (size 3 to 8) (size 9 to 14) (size 15 to 20)
#    0.000    2.667    1.667    2.000    0.000    2.000 
#    3.000    1.667    0.000    4.000    0.000    0.000 
#    0.000    0.000    0.000    0.000    0.000    0.000 
#
# Total GULP energy -267561.321439 kJ/mol
# GULP energy per Si atom -5574.194197 kJ/mol
# Density = 1.707742 g / cm^3
# Si number density = 17.116378 Si / 1000 Ang^3
#
#
#
# Elastic Constant Matrix: (Units=GPa)
#
#
# Indices 1 2 3 4 5 6 
#
# 1 38.4801 -4.0778 32.4610 0.0000 0.0000 0.0000
# 2 -4.0778 38.4802 32.4609 0.0000 0.0000 0.0000
# 3 32.4610 32.4609 153.2561 0.0000 0.0000 0.0000
# 4 0.0000 0.0000 0.0000 19.0223 0.0000 0.0000
# 5 0.0000 0.0000 0.0000 0.0000 19.0224 0.0000
# 6 0.0000 0.0000 0.0000 0.0000 0.0000 3.1318
#
#
#
# Elastic Compliance Matrix: (Units=1/GPa)
#
#
# Indices 1 2 3 4 5 6 
#
# 1 0.035960 0.012463 -0.010256 0.000000 0.000000 0.000000
# 2 0.012463 0.035960 -0.010256 0.000000 0.000000 0.000000
# 3 -0.010256 -0.010256 0.010870 0.000000 0.000000 0.000000
# 4 0.000000 0.000000 0.000000 0.052570 0.000000 0.000000
# 5 0.000000 0.000000 0.000000 0.000000 0.052570 0.000000
# 6 0.000000 0.000000 0.000000 0.000000 0.000000 0.319302
#
#
# Mechanical properties :
#
#
# Convention : Reuss Voigt Hill
#
# Bulk Modulus (GPa) = 14.99470 39.10049 27.04759
# Shear Modulus (GPa) = 9.16487 19.52681 14.34584
#
# Velocity S-wave (km/s) = 2.31648 3.38128 2.89820
# Velocity P-wave (km/s) = 3.99177 6.17556 5.19960
#
# Compressibility (1/GPa) = 0.06669025
#
# Stress axis : x y z
#
# Youngs Moduli (GPa) = 27.80846 27.80860 91.99802
#
# Poissons Ratio (x) = -0.34657 0.94357
# Poissons Ratio (y) = -0.34657 0.94357
# Poissons Ratio (z) = 0.28522 0.28522
#
# Static dielectric constant tensor:
#      x y z
#    x 1.575990 0.000000 0.000000 
#    y 0.000000 1.575990 0.000000 
#    z 0.000000 0.000000 1.581560 
# 
# From -- ./inp_files/2787.got.cif
#   From: 2010.05.17/outbox.cif.g08.bks.cpg/sg117_2_cif.got.tgz:2787.got - 2010.05.20 11:15:09.
