data_PCOD9558848
_publ_section_title
;
Structure prediction by ZEFSAII (Michael W. Deem and Ramdas Pophale) SiO2 
 PCOD9558848
Probable space group: P -4 N 2
;
_chemical_formula_sum "Si O2"
_cell_formula_units_Z 24
_cell_length_a 11.189682
_cell_length_b 11.189682
_cell_length_c 7.276973
_cell_angle_alpha 90.000000
_cell_angle_beta 90.000000
_cell_angle_gamma 90.000000
_cell_volume 911.142391
_symmetry_space_group_name_H-M "P -4 N 2"
_symmetry_group_IT_number 118
_symmetry_cell_setting 'tetragonal'
loop_
_space_group_symop_operation_xyz
x,y,z
y,-x,-z
-x,-y,z
-y,x,-z
1/2+y,1/2+x,1/2-z
1/2-y,1/2-x,1/2-z
1/2-x,1/2+y,1/2+z
1/2+x,1/2-y,1/2+z
loop_
_atom_site_type_symbol
_atom_site_label
_atom_site_fract_x
_atom_site_fract_y
_atom_site_fract_z
Si Si1 0.340339 0.433907 0.560553
Si Si2 0.164771 0.102085 0.549531
Si Si3 0.566243 0.887224 0.535154
O O1 0.387246 0.569279 0.594877
O O2 0.355212 0.352147 0.738204
O O3 0.211145 0.463773 0.491206
O O4 0.296095 0.135844 0.471270
O O5 0.042382 0.154679 0.463185
O O6 0.587242 0.912759 0.750000
O O7 0.500000 0.000000 0.450051
#
# Coordination Sequence:
#
# PCOD9558848 Si02
#       3
#     8   8   8
#     4  11  23  46  77 109 150 206 254 315 389 462
#     4  11  25  46  74 112 152 201 261 312 391 466
#     4  11  26  47  77 116 156 198 259 329 390 457
#
# _framework density 26.340558999999999
#
# number of rings (size 3 to 8) (size 9 to 14) (size 15 to 20)
#    0.000    1.000    3.333    4.000    4.667    1.333 
#    0.000    1.667    0.000    0.000    0.000    0.000 
#    0.000    0.000    0.000    0.000    0.000    0.000 
#
# Total GULP energy -134062.107419 kJ/mol
# GULP energy per Si atom -5585.921142 kJ/mol
# Density = 2.628061 g / cm^3
# Si number density = 26.340559 Si / 1000 Ang^3
#
#
#
# Elastic Constant Matrix: (Units=GPa)
#
#
# Indices 1 2 3 4 5 6 
#
# 1 110.4018 38.8166 12.4320 0.0000 0.0000 0.0000
# 2 38.8166 110.4023 12.4322 0.0000 0.0000 0.0000
# 3 12.4320 12.4322 98.6903 0.0000 0.0000 0.0000
# 4 0.0000 0.0000 0.0000 11.5733 0.0000 0.0000
# 5 0.0000 0.0000 0.0000 0.0000 11.5732 0.0000
# 6 0.0000 0.0000 0.0000 0.0000 0.0000 50.9060
#
#
#
# Elastic Compliance Matrix: (Units=1/GPa)
#
#
# Indices 1 2 3 4 5 6 
#
# 1 0.010407 -0.003562 -0.000862 0.000000 0.000000 0.000000
# 2 -0.003562 0.010407 -0.000862 0.000000 0.000000 0.000000
# 3 -0.000862 -0.000862 0.010350 0.000000 0.000000 0.000000
# 4 0.000000 0.000000 0.000000 0.086406 0.000000 0.000000
# 5 0.000000 0.000000 0.000000 0.000000 0.086406 0.000000
# 6 0.000000 0.000000 0.000000 0.000000 0.000000 0.019644
#
#
# Mechanical properties :
#
#
# Convention : Reuss Voigt Hill
#
# Bulk Modulus (GPa) = 48.56427 49.65066 49.10746
# Shear Modulus (GPa) = 20.74188 31.86472 26.30330
#
# Velocity S-wave (km/s) = 2.80920 3.48188 3.16347
# Velocity P-wave (km/s) = 5.38509 5.92073 5.65925
#
# Compressibility (1/GPa) = 0.02059127
#
# Stress axis : x y z
#
# Youngs Moduli (GPa) = 96.08624 96.08669 96.61873
#
# Poissons Ratio (x) = 0.34226 0.08331
# Poissons Ratio (y) = 0.34226 0.08332
# Poissons Ratio (z) = 0.08285 0.08286
#
# Static dielectric constant tensor:
#      x y z
#    x 2.123430 0.000000 0.000000 
#    y 0.000000 2.123430 0.000000 
#    z 0.000000 0.000000 2.117830 
# 
# From -- ./inp_files/1360.got.cif
#   From: 2010.05.17/outbox.cif.g08.bks.cpg/sg118_1_cif.got.tgz:1360.got - 2010.05.20 11:17:24.
