data_PCOD9558505
_publ_section_title
;
Structure prediction by ZEFSAII (Michael W. Deem and Ramdas Pophale) SiO2 
 PCOD9558505
Probable space group: P -4 N 2
;
_chemical_formula_sum "Si O2"
_cell_formula_units_Z 36
_cell_length_a 9.619870
_cell_length_b 9.619870
_cell_length_c 19.266338
_cell_angle_alpha 90.000000
_cell_angle_beta 90.000000
_cell_angle_gamma 90.000000
_cell_volume 1782.943502
_symmetry_space_group_name_H-M "P -4 N 2"
_symmetry_group_IT_number 118
_symmetry_cell_setting 'tetragonal'
loop_
_space_group_symop_operation_xyz
x,y,z
y,-x,-z
-x,-y,z
-y,x,-z
1/2+y,1/2+x,1/2-z
1/2-y,1/2-x,1/2-z
1/2-x,1/2+y,1/2+z
1/2+x,1/2-y,1/2+z
loop_
_atom_site_type_symbol
_atom_site_label
_atom_site_fract_x
_atom_site_fract_y
_atom_site_fract_z
Si Si1 0.000000 0.500000 0.054518
Si Si2 0.213818 0.596520 0.936762
Si Si3 0.297220 0.003086 0.287011
Si Si4 0.417378 0.711702 0.608053
Si Si5 0.000000 0.000000 0.773130
Si Si6 0.000000 0.000000 0.500000
Si Si7 0.500000 0.500000 0.500000
O O1 0.949845 0.626604 0.102156
O O2 0.878831 0.446766 0.002565
O O3 0.174640 0.507893 0.868731
O O4 0.191727 0.755793 0.912580
O O5 0.374171 0.566370 0.955730
O O6 0.357281 0.142720 0.250000
O O7 0.136001 0.980850 0.272795
O O8 0.381917 0.881917 0.250000
O O9 0.462940 0.631183 0.677311
O O10 0.504756 0.633711 0.548380
#
# Coordination Sequence:
#
# PCOD9558505 Si02
#       7
#     4   8   8   8   4   2   2
#     4  12  24  40  69 103 134 172 216 276 344 390
#     4  12  24  42  67 100 137 171 220 280 329 401
#     4  11  24  45  70  96 129 180 230 270 322 398
#     4  11  23  40  67  97 136 167 222 273 332 395
#     4  11  25  47  68  97 131 179 224 278 324 389
#     4  12  26  40  66 100 142 172 208 274 360 380
#     4  10  20  36  62  96 124 178 204 266 328 398
#
# _framework density 20.191329
#
# number of rings (size 3 to 8) (size 9 to 14) (size 15 to 20)
#    0.000    0.667    6.667    2.000    0.000    1.778 
#    4.000    0.000    0.000    0.000    0.000    0.000 
#    0.000    0.000    0.000    0.000    0.000    0.000 
#
# Total GULP energy -201162.878311 kJ/mol
# GULP energy per Si atom -5587.857731 kJ/mol
# Density = 2.014537 g / cm^3
# Si number density = 20.191329 Si / 1000 Ang^3
#
#
#
# Elastic Constant Matrix: (Units=GPa)
#
#
# Indices 1 2 3 4 5 6 
#
# 1 113.6698 17.5074 11.0352 0.0000 0.0000 0.0000
# 2 17.5074 113.6687 11.0349 0.0000 0.0000 0.0000
# 3 11.0352 11.0349 54.2389 0.0000 0.0000 0.0000
# 4 0.0000 0.0000 0.0000 22.8827 0.0000 0.0000
# 5 0.0000 0.0000 0.0000 0.0000 22.8827 0.0000
# 6 0.0000 0.0000 0.0000 0.0000 0.0000 30.5598
#
#
#
# Elastic Compliance Matrix: (Units=1/GPa)
#
#
# Indices 1 2 3 4 5 6 
#
# 1 0.009146 -0.001253 -0.001606 0.000000 0.000000 0.000000
# 2 -0.001253 0.009146 -0.001606 0.000000 0.000000 0.000000
# 3 -0.001606 -0.001606 0.019090 0.000000 0.000000 0.000000
# 4 0.000000 0.000000 0.000000 0.043701 0.000000 0.000000
# 5 0.000000 0.000000 0.000000 0.000000 0.043701 0.000000
# 6 0.000000 0.000000 0.000000 0.000000 0.000000 0.032723
#
#
# Mechanical properties :
#
#
# Convention : Reuss Voigt Hill
#
# Bulk Modulus (GPa) = 35.14492 40.08137 37.61314
# Shear Modulus (GPa) = 28.42167 31.39836 29.91002
#
# Velocity S-wave (km/s) = 3.75589 3.94768 3.85298
# Velocity P-wave (km/s) = 6.02102 6.37752 6.20183
#
# Compressibility (1/GPa) = 0.02845362
#
# Stress axis : x y z
#
# Youngs Moduli (GPa) = 109.33408 109.33310 52.38230
#
# Poissons Ratio (x) = 0.13697 0.08412
# Poissons Ratio (y) = 0.13697 0.08412
# Poissons Ratio (z) = 0.17559 0.17558
#
# Static dielectric constant tensor:
#      x y z
#    x 1.712850 0.000000 0.000000 
#    y 0.000000 1.712850 0.000000 
#    z 0.000000 0.000000 1.683890 
# 
# From -- ./inp_files/5548.got.cif
#   From: 2010.05.17/outbox.cif.g08.bks.cpg/sg118_3_cif.got.tgz:5548.got - 2010.05.20 11:17:24.
