data_PCOD9558425
_publ_section_title
;
Structure prediction by ZEFSAII (Michael W. Deem and Ramdas Pophale) SiO2 
 PCOD9558425
Probable space group: P -4 N 2
;
_chemical_formula_sum "Si O2"
_cell_formula_units_Z 48
_cell_length_a 24.005003
_cell_length_b 24.005003
_cell_length_c 4.976762
_cell_angle_alpha 90.000000
_cell_angle_beta 90.000000
_cell_angle_gamma 90.000000
_cell_volume 2867.810176
_symmetry_space_group_name_H-M "P -4 N 2"
_symmetry_group_IT_number 118
_symmetry_cell_setting 'tetragonal'
loop_
_space_group_symop_operation_xyz
x,y,z
y,-x,-z
-x,-y,z
-y,x,-z
1/2+y,1/2+x,1/2-z
1/2-y,1/2-x,1/2-z
1/2-x,1/2+y,1/2+z
1/2+x,1/2-y,1/2+z
loop_
_atom_site_type_symbol
_atom_site_label
_atom_site_fract_x
_atom_site_fract_y
_atom_site_fract_z
Si Si1 0.134097 0.717469 0.181412
Si Si2 0.511468 0.589890 0.438975
Si Si3 0.915281 0.225546 0.700902
Si Si4 0.306312 0.725816 0.373672
Si Si5 0.636661 0.322397 0.853261
Si Si6 0.340457 0.493409 0.076240
O O1 0.155529 0.655529 0.250000
O O2 0.116953 0.742725 0.464852
O O3 0.187917 0.751556 0.069594
O O4 0.087966 0.735137 0.962160
O O5 0.559738 0.544428 0.454619
O O6 0.499468 0.609704 0.138684
O O7 0.522197 0.640559 0.645756
O O8 0.879703 0.167919 0.735248
O O9 0.974628 0.209096 0.576435
O O10 0.282920 0.782920 0.250000
O O11 0.341820 0.724216 0.644328
O O12 0.341763 0.694210 0.147055
O O13 0.570664 0.328270 0.861546
#
# Coordination Sequence:
#
# PCOD9558425 Si02
#       6
#     8   8   8   8   8   8
#     4   9  17  30  47  65  83 105 140 185 229 275
#     4  11  22  34  46  58  78 116 162 202 234 263
#     4  10  19  30  45  64  86 114 146 184 230 272
#     4   9  17  30  47  65  83 105 140 185 229 275
#     4  10  19  30  45  64  86 114 146 184 230 272
#     4  12  22  33  46  64  90 116 150 193 236 280
#
# _framework density 16.737507999999998
#
# number of rings (size 3 to 8) (size 9 to 14) (size 15 to 20)
#    0.000    1.833    0.000    6.000    0.000    8.000 
#    0.000    0.000    0.000    0.000    0.000    0.000 
#    0.000    0.000    0.000    0.000    0.000   23.333 
#
# Total GULP energy -267779.635919 kJ/mol
# GULP energy per Si atom -5578.742415 kJ/mol
# Density = 1.669941 g / cm^3
# Si number density = 16.737508 Si / 1000 Ang^3
#
#
#
# Elastic Constant Matrix: (Units=GPa)
#
#
# Indices 1 2 3 4 5 6 
#
# 1 24.4331 9.3613 1.5416 0.0000 0.0000 0.0000
# 2 9.3613 24.4331 1.5416 0.0000 0.0000 0.0000
# 3 1.5416 1.5416 74.8312 0.0000 0.0000 0.0000
# 4 0.0000 0.0000 0.0000 24.6398 0.0000 0.0000
# 5 0.0000 0.0000 0.0000 0.0000 24.6398 0.0000
# 6 0.0000 0.0000 0.0000 0.0000 0.0000 15.7651
#
#
#
# Elastic Compliance Matrix: (Units=1/GPa)
#
#
# Indices 1 2 3 4 5 6 
#
# 1 0.047998 -0.018351 -0.000611 0.000000 0.000000 0.000000
# 2 -0.018351 0.047998 -0.000611 0.000000 0.000000 0.000000
# 3 -0.000611 -0.000611 0.013389 0.000000 0.000000 0.000000
# 4 0.000000 0.000000 0.000000 0.040585 0.000000 0.000000
# 5 0.000000 0.000000 0.000000 0.000000 0.040585 0.000000
# 6 0.000000 0.000000 0.000000 0.000000 0.000000 0.063431
#
#
# Mechanical properties :
#
#
# Convention : Reuss Voigt Hill
#
# Bulk Modulus (GPa) = 14.23722 16.50959 15.37340
# Shear Modulus (GPa) = 15.79564 20.42580 18.11072
#
# Velocity S-wave (km/s) = 3.07535 3.49716 3.29301
# Velocity P-wave (km/s) = 4.59728 5.11782 4.86452
#
# Compressibility (1/GPa) = 0.07023843
#
# Stress axis : x y z
#
# Youngs Moduli (GPa) = 20.83433 20.83433 74.69055
#
# Poissons Ratio (x) = 0.38234 0.04562
# Poissons Ratio (y) = 0.38234 0.04562
# Poissons Ratio (z) = 0.01272 0.01272
#
# Static dielectric constant tensor:
#      x y z
#    x 1.594390 0.000000 0.000000 
#    y 0.000000 1.594390 0.000000 
#    z 0.000000 0.000000 1.596300 
# 
# From -- ./inp_files/818.got.cif
#   From: 2010.05.17/outbox.cif.g08.bks.cpg/sg118_1_cif.got.tgz:818.got - 2010.05.20 11:17:24.
