data_PCOD9558503
_publ_section_title
;
Structure prediction by ZEFSAII (Michael W. Deem and Ramdas Pophale) SiO2 
 PCOD9558503
Probable space group: P -4 N 2
;
_chemical_formula_sum "Si O2"
_cell_formula_units_Z 48
_cell_length_a 11.482921
_cell_length_b 11.482921
_cell_length_c 19.697295
_cell_angle_alpha 90.000000
_cell_angle_beta 90.000000
_cell_angle_gamma 90.000000
_cell_volume 2597.235577
_symmetry_space_group_name_H-M "P -4 N 2"
_symmetry_group_IT_number 118
_symmetry_cell_setting 'tetragonal'
loop_
_space_group_symop_operation_xyz
x,y,z
y,-x,-z
-x,-y,z
-y,x,-z
1/2+y,1/2+x,1/2-z
1/2-y,1/2-x,1/2-z
1/2-x,1/2+y,1/2+z
1/2+x,1/2-y,1/2+z
loop_
_atom_site_type_symbol
_atom_site_label
_atom_site_fract_x
_atom_site_fract_y
_atom_site_fract_z
Si Si1 0.690691 0.498789 0.596490
Si Si2 0.769492 0.707010 0.393748
Si Si3 0.500000 0.000000 0.250000
Si Si4 0.712786 0.976467 0.358530
Si Si5 0.000000 0.000000 0.000000
Si Si6 0.787673 0.712328 0.250000
Si Si7 0.014779 0.862244 0.756582
Si Si8 0.092622 0.404912 0.983761
O O1 0.658313 0.361762 0.598178
O O2 0.592875 0.558445 0.550275
O O3 0.693233 0.537752 0.674744
O O4 0.810182 0.518219 0.558116
O O5 0.746069 0.845012 0.381565
O O6 0.829248 0.667453 0.322904
O O7 0.844783 0.666580 0.457097
O O8 0.608065 0.985534 0.302697
O O9 0.818274 0.032490 0.315498
O O10 0.675527 0.040383 0.426606
O O11 0.817876 0.850520 0.245835
O O12 0.000000 0.000000 0.763457
O O13 0.000000 0.500000 0.009485
#
# Coordination Sequence:
#
# PCOD9558503 Si02
#       8
#     8   8   2   8   2   4   8   8
#     4  11  20  36  59  91 122 155 207 267 328 381
#     4  10  20  38  59  85 125 163 204 260 326 391
#     4  12  18  40  80  98 126 160 228 294 344 384
#     4  11  21  38  61  95 124 164 209 274 335 389
#     4  12  20  32  60  88 124 152 194 268 332 384
#     4   8  19  38  61  80 114 166 204 249 308 377
#     4  10  20  36  60  89 122 162 211 258 322 399
#     4  12  23  37  61  93 126 164 217 270 327 396
#
# _framework density 18.481188
#
# number of rings (size 3 to 8) (size 9 to 14) (size 15 to 20)
#    0.000    1.333    5.000    4.000    0.000    0.000 
#    6.000    0.417    0.000    0.000    8.667    0.000 
#    0.000    0.000    0.000    0.000    0.000    0.000 
#
# Total GULP energy -267256.633339 kJ/mol
# GULP energy per Si atom -5567.846528 kJ/mol
# Density = 1.843912 g / cm^3
# Si number density = 18.481188 Si / 1000 Ang^3
#
#
#
# Elastic Constant Matrix: (Units=GPa)
#
#
# Indices 1 2 3 4 5 6 
#
# 1 62.4139 23.3650 42.3357 0.0000 0.0000 0.0000
# 2 23.3650 62.4144 42.3356 0.0000 0.0000 0.0000
# 3 42.3357 42.3356 178.6535 0.0000 0.0000 0.0000
# 4 0.0000 0.0000 0.0000 24.4585 0.0000 0.0000
# 5 0.0000 0.0000 0.0000 0.0000 24.4585 0.0000
# 6 0.0000 0.0000 0.0000 0.0000 0.0000 20.3942
#
#
#
# Elastic Compliance Matrix: (Units=1/GPa)
#
#
# Indices 1 2 3 4 5 6 
#
# 1 0.020413 -0.005196 -0.003606 0.000000 0.000000 0.000000
# 2 -0.005196 0.020413 -0.003606 0.000000 0.000000 0.000000
# 3 -0.003606 -0.003606 0.007306 0.000000 0.000000 0.000000
# 4 0.000000 0.000000 0.000000 0.040885 0.000000 0.000000
# 5 0.000000 0.000000 0.000000 0.000000 0.040886 0.000000
# 6 0.000000 0.000000 0.000000 0.000000 0.000000 0.049034
#
#
# Mechanical properties :
#
#
# Convention : Reuss Voigt Hill
#
# Bulk Modulus (GPa) = 42.88736 57.72829 50.30782
# Shear Modulus (GPa) = 23.63785 26.89195 25.26490
#
# Velocity S-wave (km/s) = 3.58022 3.81871 3.70139
# Velocity P-wave (km/s) = 6.35193 7.12373 6.74887
#
# Compressibility (1/GPa) = 0.02331689
#
# Stress axis : x y z
#
# Youngs Moduli (GPa) = 48.98805 48.98856 136.86466
#
# Poissons Ratio (x) = 0.25453 0.49355
# Poissons Ratio (y) = 0.25453 0.49354
# Poissons Ratio (z) = 0.17666 0.17665
#
# Static dielectric constant tensor:
#      x y z
#    x 1.670990 0.000000 0.000000 
#    y 0.000000 1.670990 0.000000 
#    z 0.000000 0.000000 1.690870 
# 
# From -- ./inp_files/5668.got.cif
#   From: 2010.05.17/outbox.cif.g08.bks.cpg/sg118_3_cif.got.tgz:5668.got - 2010.05.20 11:17:24.
