data_PCOD9558203
_publ_section_title
;
Structure prediction by ZEFSAII (Michael W. Deem and Ramdas Pophale) SiO2 
 PCOD9558203
Probable space group: P -4 B 2
;
_chemical_formula_sum "Si O2"
_cell_formula_units_Z 34
_cell_length_a 10.867734
_cell_length_b 10.867734
_cell_length_c 11.883484
_cell_angle_alpha 90.000000
_cell_angle_beta 90.000000
_cell_angle_gamma 90.000000
_cell_volume 1403.530277
_symmetry_space_group_name_H-M "P -4 B 2"
_symmetry_group_IT_number 117
_symmetry_cell_setting 'tetragonal'
loop_
_space_group_symop_operation_xyz
x,y,z
y,-x,-z
-x,-y,z
-y,x,-z
1/2+y,1/2+x,-z
1/2-y,1/2-x,-z
1/2-x,1/2+y,z
1/2+x,1/2-y,z
loop_
_atom_site_type_symbol
_atom_site_label
_atom_site_fract_x
_atom_site_fract_y
_atom_site_fract_z
Si Si1 0.420907 0.759126 0.714832
Si Si2 0.824039 0.131076 0.655659
Si Si3 0.320343 0.988251 0.049585
Si Si4 0.028795 0.857697 0.138765
Si Si5 0.000000 0.000000 0.500000
O O1 0.311429 0.810638 0.635323
O O2 0.549113 0.712400 0.658424
O O3 0.478408 0.837005 0.817799
O O4 0.350691 0.654973 0.790396
O O5 0.877983 0.022785 0.575806
O O6 0.802244 0.075442 0.780251
O O7 0.356114 0.856114 0.000000
O O8 0.414119 0.085882 0.000000
O O9 0.197313 0.028521 0.985466
O O10 0.000000 0.000000 0.140688
#
# Coordination Sequence:
#
# PCOD9558203 Si02
#       5
#     8   8   8   8   2
#     4  11  23  41  70 104 146 190 239 304 365 450
#     4  11  24  45  69 103 136 185 249 309 377 439
#     4  11  23  37  62 100 147 192 228 279 358 441
#     4  10  22  40  61  99 137 189 234 284 353 454
#     4  12  24  52  76  94 132 188 252 324 380 454
#
# _framework density 24.224627000000002
#
# number of rings (size 3 to 8) (size 9 to 14) (size 15 to 20)
#    0.000    1.176    5.882    1.412    6.588    1.882 
#    0.000    0.000    0.000    0.000    6.118    0.000 
#    0.000    0.000    0.000    0.000    0.000    0.000 
#
# Total GULP energy -189399.374590 kJ/mol
# GULP energy per Si atom -5570.569841 kJ/mol
# Density = 2.416949 g / cm^3
# Si number density = 24.224627 Si / 1000 Ang^3
#
#
#
# Elastic Constant Matrix: (Units=GPa)
#
#
# Indices 1 2 3 4 5 6 
#
# 1 70.8116 39.7427 19.1682 0.0000 0.0000 0.0000
# 2 39.7427 70.8139 19.1683 0.0000 0.0000 0.0000
# 3 19.1682 19.1683 104.2178 0.0000 0.0000 0.0000
# 4 0.0000 0.0000 0.0000 30.3507 0.0000 0.0000
# 5 0.0000 0.0000 0.0000 0.0000 30.3514 0.0000
# 6 0.0000 0.0000 0.0000 0.0000 0.0000 38.5857
#
#
#
# Elastic Compliance Matrix: (Units=1/GPa)
#
#
# Indices 1 2 3 4 5 6 
#
# 1 0.020924 -0.011262 -0.001777 0.000000 0.000000 0.000000
# 2 -0.011262 0.020923 -0.001777 0.000000 0.000000 0.000000
# 3 -0.001777 -0.001777 0.010249 0.000000 0.000000 0.000000
# 4 0.000000 0.000000 0.000000 0.032948 0.000000 0.000000
# 5 0.000000 0.000000 0.000000 0.000000 0.032947 0.000000
# 6 0.000000 0.000000 0.000000 0.000000 0.000000 0.025916
#
#
# Mechanical properties :
#
#
# Convention : Reuss Voigt Hill
#
# Bulk Modulus (GPa) = 44.51589 44.66686 44.59138
# Shear Modulus (GPa) = 27.62013 31.04183 29.33098
#
# Velocity S-wave (km/s) = 3.38030 3.58357 3.48342
# Velocity P-wave (km/s) = 5.80098 5.96668 5.88442
#
# Compressibility (1/GPa) = 0.02246389
#
# Stress axis : x y z
#
# Youngs Moduli (GPa) = 47.79264 47.79426 97.57092
#
# Poissons Ratio (x) = 0.53826 0.17339
# Poissons Ratio (y) = 0.53824 0.17338
# Poissons Ratio (z) = 0.08493 0.08493
#
# Static dielectric constant tensor:
#      x y z
#    x 2.145280 0.000000 0.000000 
#    y 0.000000 2.145270 0.000000 
#    z 0.000000 0.000000 2.050860 
# 
# From -- ./inp_files/2441.got.cif
#   From: 2010.05.17/outbox.cif.g08.bks.cpg/sg117_2_cif.got.tgz:2441.got - 2010.05.20 11:15:09.
