data_PCOD9558511
_publ_section_title
;
Structure prediction by ZEFSAII (Michael W. Deem and Ramdas Pophale) SiO2 
 PCOD9558511
Probable space group: P -4 N 2
;
_chemical_formula_sum "Si O2"
_cell_formula_units_Z 48
_cell_length_a 14.674995
_cell_length_b 14.674995
_cell_length_c 11.012166
_cell_angle_alpha 90.000000
_cell_angle_beta 90.000000
_cell_angle_gamma 90.000000
_cell_volume 2371.530275
_symmetry_space_group_name_H-M "P -4 N 2"
_symmetry_group_IT_number 118
_symmetry_cell_setting 'tetragonal'
loop_
_space_group_symop_operation_xyz
x,y,z
y,-x,-z
-x,-y,z
-y,x,-z
1/2+y,1/2+x,1/2-z
1/2-y,1/2-x,1/2-z
1/2-x,1/2+y,1/2+z
1/2+x,1/2-y,1/2+z
loop_
_atom_site_type_symbol
_atom_site_label
_atom_site_fract_x
_atom_site_fract_y
_atom_site_fract_z
Si Si1 0.735416 0.776335 0.892812
Si Si2 0.500000 0.000000 0.750000
Si Si3 0.500000 0.500000 0.000000
Si Si4 0.678536 0.091821 0.129301
Si Si5 0.865439 0.510324 0.027568
Si Si6 0.605193 0.317751 0.937885
Si Si7 0.678241 0.896650 0.079672
Si Si8 0.244820 0.255181 0.250000
O O1 0.722207 0.777794 0.750000
O O2 0.842211 0.758360 0.911797
O O3 0.687972 0.687804 0.960019
O O4 0.705498 0.873843 0.942603
O O5 0.496783 0.086377 0.842283
O O6 0.418062 0.441414 0.066577
O O7 0.633951 0.133951 0.250000
O O8 0.706489 0.988807 0.142768
O O9 0.602790 0.092239 0.025085
O O10 0.757411 0.528535 0.029342
O O11 0.886141 0.430573 0.930386
O O12 0.650627 0.272964 0.815898
O O13 0.731091 0.817723 0.147759
#
# Coordination Sequence:
#
# PCOD9558511 Si02
#       8
#     8   2   2   8   8   8   8   4
#     4   9  21  37  58  85 121 165 202 254 321 385
#     4  12  22  36  58  96 136 162 212 268 358 404
#     4  12  24  44  68 100 130 180 232 288 332 406
#     4  10  20  37  58  84 118 154 199 259 314 376
#     4  11  22  37  58  93 124 161 205 267 331 395
#     4  10  22  41  63  92 131 168 223 273 335 399
#     4  11  20  35  59  85 115 154 207 255 313 382
#     4  10  21  38  61  89 122 167 210 274 326 388
#
# _framework density 20.240093999999999
#
# number of rings (size 3 to 8) (size 9 to 14) (size 15 to 20)
#    0.000    1.667    1.667    3.500    1.167    3.333 
#    0.000    0.000    0.000    0.500    0.000    1.167 
#    0.000    0.000    0.000    0.000    0.000    0.000 
#
# Total GULP energy -267202.379842 kJ/mol
# GULP energy per Si atom -5566.716247 kJ/mol
# Density = 2.019403 g / cm^3
# Si number density = 20.240094 Si / 1000 Ang^3
#
#
#
# Elastic Constant Matrix: (Units=GPa)
#
#
# Indices 1 2 3 4 5 6 
#
# 1 63.7345 28.3251 -0.7131 0.0000 0.0000 0.0000
# 2 28.3251 63.7344 -0.7129 0.0000 0.0000 0.0000
# 3 -0.7131 -0.7129 64.5045 0.0000 0.0000 0.0000
# 4 0.0000 0.0000 0.0000 -619.8819 0.0000 0.0000
# 5 0.0000 0.0000 0.0000 0.0000 -620.2851 0.0000
# 6 0.0000 0.0000 0.0000 0.0000 0.0000 24.3298
#
#
#
# Elastic Compliance Matrix: (Units=1/GPa)
#
#
# Indices 1 2 3 4 5 6 
#
# 1 0.019553 -0.008688 0.000120 0.000000 0.000000 0.000000
# 2 -0.008688 0.019553 0.000120 0.000000 0.000000 0.000000
# 3 0.000120 0.000120 0.015505 0.000000 0.000000 0.000000
# 4 0.000000 0.000000 0.000000 -0.001613 0.000000 0.000000
# 5 0.000000 0.000000 0.000000 0.000000 -0.001612 0.000000
# 6 0.000000 0.000000 0.000000 0.000000 0.000000 0.041102
#
#
# Mechanical properties :
#
#
# Convention : Reuss Voigt Hill
#
# Bulk Modulus (GPa) = 26.51494 27.30797 26.91146
# Shear Modulus (GPa) = 40.99856 -232.16250 -95.58197
#
# Velocity S-wave (km/s) = 4.50556 -10.72163 -6.87943
# Velocity P-wave (km/s) = 6.33999 11.82158 7.05529
#
# Compressibility (1/GPa) = 0.03771458
#
# Stress axis : x y z
#
# Youngs Moduli (GPa) = 51.14365 51.14361 64.49341
#
# Poissons Ratio (x) = 0.44436 -0.00775
# Poissons Ratio (y) = 0.44436 -0.00774
# Poissons Ratio (z) = -0.00614 -0.00614
#
# Static dielectric constant tensor:
#      x y z
#    x 1.993420 0.000000 0.000000 
#    y 0.000000 1.993280 0.000000 
#    z 0.000000 0.000000 1.755650 
# 
# From -- ./inp_files/3399.got.cif
#   From: 2010.05.17/outbox.cif.g08.bks.cpg/sg118_2_cif.got.tgz:3399.got - 2010.05.20 11:17:24.
