data_PCOD9558806
_publ_section_title
;
Structure prediction by ZEFSAII (Michael W. Deem and Ramdas Pophale) SiO2 
 PCOD9558806
Probable space group: P -4 N 2
;
_chemical_formula_sum "Si O2"
_cell_formula_units_Z 36
_cell_length_a 8.824734
_cell_length_b 8.824734
_cell_length_c 21.120331
_cell_angle_alpha 90.000000
_cell_angle_beta 90.000000
_cell_angle_gamma 90.000000
_cell_volume 1644.765422
_symmetry_space_group_name_H-M "P -4 N 2"
_symmetry_group_IT_number 118
_symmetry_cell_setting 'tetragonal'
loop_
_space_group_symop_operation_xyz
x,y,z
y,-x,-z
-x,-y,z
-y,x,-z
1/2+y,1/2+x,1/2-z
1/2-y,1/2-x,1/2-z
1/2-x,1/2+y,1/2+z
1/2+x,1/2-y,1/2+z
loop_
_atom_site_type_symbol
_atom_site_label
_atom_site_fract_x
_atom_site_fract_y
_atom_site_fract_z
Si Si1 0.000000 0.000000 0.268815
Si Si2 0.214866 0.568132 0.158874
Si Si3 0.179891 0.091505 0.038084
Si Si4 0.424688 0.738499 0.670538
Si Si5 0.430852 0.262387 0.988041
O O1 0.089376 0.882748 0.313738
O O2 0.902743 0.893426 0.221878
O O3 0.164127 0.397382 0.178443
O O4 0.207543 0.560148 0.083357
O O5 0.097470 0.699668 0.177653
O O6 0.113606 0.162642 0.102445
O O7 0.352972 0.138299 0.031700
O O8 0.085427 0.159240 0.977592
O O9 0.321052 0.407565 0.990409
#
# Coordination Sequence:
#
# PCOD9558806 Si02
#       5
#     4   8   8   8   8
#     4  12  24  42  70  94 128 182 244 280 320 402
#     4  11  24  44  69  98 136 182 229 280 342 410
#     4  11  22  39  66 100 136 172 219 278 343 408
#     4  11  24  44  69  98 136 182 229 280 342 410
#     4  11  22  39  66 100 136 172 219 278 343 408
#
# _framework density 21.887620999999999
#
# number of rings (size 3 to 8) (size 9 to 14) (size 15 to 20)
#    0.000    0.889    4.444    4.000    0.000    2.667 
#    0.000    0.000    0.000   10.667    0.000    0.000 
#    0.000    0.000    0.000    0.000    0.000    0.000 
#
# Total GULP energy -201024.962662 kJ/mol
# GULP energy per Si atom -5584.026741 kJ/mol
# Density = 2.183780 g / cm^3
# Si number density = 21.887621 Si / 1000 Ang^3
#
#
#
# Elastic Constant Matrix: (Units=GPa)
#
#
# Indices 1 2 3 4 5 6 
#
# 1 64.7907 25.9312 14.7975 0.0000 0.0000 0.0000
# 2 25.9312 64.7907 14.7975 0.0000 0.0000 0.0000
# 3 14.7975 14.7975 82.9087 0.0000 0.0000 0.0000
# 4 0.0000 0.0000 0.0000 32.3651 0.0000 0.0000
# 5 0.0000 0.0000 0.0000 0.0000 32.3651 0.0000
# 6 0.0000 0.0000 0.0000 0.0000 0.0000 35.4210
#
#
#
# Elastic Compliance Matrix: (Units=1/GPa)
#
#
# Indices 1 2 3 4 5 6 
#
# 1 0.018719 -0.007015 -0.002089 0.000000 0.000000 0.000000
# 2 -0.007015 0.018719 -0.002089 0.000000 0.000000 0.000000
# 3 -0.002089 -0.002089 0.012807 0.000000 0.000000 0.000000
# 4 0.000000 0.000000 0.000000 0.030897 0.000000 0.000000
# 5 0.000000 0.000000 0.000000 0.000000 0.030897 0.000000
# 6 0.000000 0.000000 0.000000 0.000000 0.000000 0.028232
#
#
# Mechanical properties :
#
#
# Convention : Reuss Voigt Hill
#
# Bulk Modulus (GPa) = 35.89427 35.94920 35.92173
# Shear Modulus (GPa) = 29.07929 30.49452 29.78690
#
# Velocity S-wave (km/s) = 3.64891 3.73665 3.69304
# Velocity P-wave (km/s) = 5.84703 5.92257 5.88492
#
# Compressibility (1/GPa) = 0.02785960
#
# Stress axis : x y z
#
# Youngs Moduli (GPa) = 53.42184 53.42184 78.08148
#
# Poissons Ratio (x) = 0.37474 0.16311
# Poissons Ratio (y) = 0.37474 0.16311
# Poissons Ratio (z) = 0.11160 0.11160
#
# Static dielectric constant tensor:
#      x y z
#    x 1.875840 0.000000 0.000000 
#    y 0.000000 1.875840 0.000000 
#    z 0.000000 0.000000 1.817790 
# 
# From -- ./inp_files/5457.got.cif
#   From: 2010.05.17/outbox.cif.g08.bks.cpg/sg118_3_cif.got.tgz:5457.got - 2010.05.20 11:17:24.
