data_PCOD9558646
_publ_section_title
;
Structure prediction by ZEFSAII (Michael W. Deem and Ramdas Pophale) SiO2 
 PCOD9558646
Probable space group: P -4 N 2
;
_chemical_formula_sum "Si O2"
_cell_formula_units_Z 32
_cell_length_a 11.153311
_cell_length_b 11.153311
_cell_length_c 13.469485
_cell_angle_alpha 90.000000
_cell_angle_beta 90.000000
_cell_angle_gamma 90.000000
_cell_volume 1675.554720
_symmetry_space_group_name_H-M "P -4 N 2"
_symmetry_group_IT_number 118
_symmetry_cell_setting 'tetragonal'
loop_
_space_group_symop_operation_xyz
x,y,z
y,-x,-z
-x,-y,z
-y,x,-z
1/2+y,1/2+x,1/2-z
1/2-y,1/2-x,1/2-z
1/2-x,1/2+y,1/2+z
1/2+x,1/2-y,1/2+z
loop_
_atom_site_type_symbol
_atom_site_label
_atom_site_fract_x
_atom_site_fract_y
_atom_site_fract_z
Si Si1 0.679035 0.480220 0.454512
Si Si2 0.136597 0.172468 0.770645
Si Si3 0.876814 0.559614 0.580489
Si Si4 0.557114 0.332280 0.050884
O O1 0.606417 0.383955 0.521320
O O2 0.656482 0.438616 0.343205
O O3 0.814516 0.487391 0.491097
O O4 0.264572 0.235429 0.750000
O O5 0.067491 0.276850 0.832598
O O6 0.072889 0.141102 0.668054
O O7 0.903934 0.694366 0.543830
O O8 0.000000 0.500000 0.613722
O O9 0.423963 0.359034 0.010627
#
# Coordination Sequence:
#
# PCOD9558646 Si02
#       4
#     8   8   8   8
#     4   9  19  36  63  92 119 159 201 251 307 365
#     4   9  20  39  63  89 124 160 203 254 308 363
#     4  10  22  37  68  92 123 159 204 257 307 372
#     4  10  23  40  63  86 123 163 203 255 312 362
#
# _framework density 19.098154000000001
#
# number of rings (size 3 to 8) (size 9 to 14) (size 15 to 20)
#    0.000    2.500    0.000    0.000   10.500   12.500 
#    0.000    1.250   11.000    0.000    0.000    0.000 
#    0.000    0.000    0.000    0.000    0.000    0.000 
#
# Total GULP energy -178492.635801 kJ/mol
# GULP energy per Si atom -5577.894869 kJ/mol
# Density = 1.905469 g / cm^3
# Si number density = 19.098154 Si / 1000 Ang^3
#
#
#
# Elastic Constant Matrix: (Units=GPa)
#
#
# Indices 1 2 3 4 5 6 
#
# 1 65.5435 19.0567 52.7657 0.0000 0.0000 0.0000
# 2 19.0567 65.5432 52.7658 0.0000 0.0000 0.0000
# 3 52.7657 52.7658 143.2659 0.0000 0.0000 0.0000
# 4 0.0000 0.0000 0.0000 23.6906 0.0000 0.0000
# 5 0.0000 0.0000 0.0000 0.0000 23.6893 0.0000
# 6 0.0000 0.0000 0.0000 0.0000 0.0000 15.5772
#
#
#
# Elastic Compliance Matrix: (Units=1/GPa)
#
#
# Indices 1 2 3 4 5 6 
#
# 1 0.021689 0.000177 -0.008054 0.000000 0.000000 0.000000
# 2 0.000177 0.021689 -0.008054 0.000000 0.000000 0.000000
# 3 -0.008054 -0.008054 0.012912 0.000000 0.000000 0.000000
# 4 0.000000 0.000000 0.000000 0.042211 0.000000 0.000000
# 5 0.000000 0.000000 0.000000 0.000000 0.042213 0.000000
# 6 0.000000 0.000000 0.000000 0.000000 0.000000 0.064196
#
#
# Mechanical properties :
#
#
# Convention : Reuss Voigt Hill
#
# Bulk Modulus (GPa) = 40.93142 58.16990 49.55066
# Shear Modulus (GPa) = 20.41534 22.57571 21.49552
#
# Velocity S-wave (km/s) = 3.27306 3.44188 3.35853
# Velocity P-wave (km/s) = 5.98018 6.80587 6.40634
#
# Compressibility (1/GPa) = 0.02443111
#
# Stress axis : x y z
#
# Youngs Moduli (GPa) = 46.10642 46.10604 77.44492
#
# Poissons Ratio (x) = -0.00818 0.62371
# Poissons Ratio (y) = -0.00818 0.62371
# Poissons Ratio (z) = 0.37132 0.37132
#
# Static dielectric constant tensor:
#      x y z
#    x 1.688970 0.000000 0.000000 
#    y 0.000000 1.688970 0.000000 
#    z 0.000000 0.000000 1.686660 
# 
# From -- ./inp_files/2867.got.cif
#   From: 2010.05.17/outbox.cif.g08.bks.cpg/sg118_2_cif.got.tgz:2867.got - 2010.05.20 11:17:24.
