data_PCOD9558674
_publ_section_title
;
Structure prediction by ZEFSAII (Michael W. Deem and Ramdas Pophale) SiO2 
 PCOD9558674
Probable space group: P -4 N 2
;
_chemical_formula_sum "Si O2"
_cell_formula_units_Z 26
_cell_length_a 12.400153
_cell_length_b 12.400153
_cell_length_c 6.465814
_cell_angle_alpha 90.000000
_cell_angle_beta 90.000000
_cell_angle_gamma 90.000000
_cell_volume 994.208095
_symmetry_space_group_name_H-M "P -4 N 2"
_symmetry_group_IT_number 118
_symmetry_cell_setting 'tetragonal'
loop_
_space_group_symop_operation_xyz
x,y,z
y,-x,-z
-x,-y,z
-y,x,-z
1/2+y,1/2+x,1/2-z
1/2-y,1/2-x,1/2-z
1/2-x,1/2+y,1/2+z
1/2+x,1/2-y,1/2+z
loop_
_atom_site_type_symbol
_atom_site_label
_atom_site_fract_x
_atom_site_fract_y
_atom_site_fract_z
Si Si1 0.071539 0.219867 0.670784
Si Si2 0.500000 0.500000 0.000000
Si Si3 0.795750 0.350491 0.985571
Si Si4 0.875692 0.530006 0.450746
O O1 0.189114 0.202067 0.576447
O O2 0.207908 0.426418 0.621274
O O3 0.024603 0.098585 0.656146
O O4 0.979424 0.278180 0.534199
O O5 0.810362 0.310362 0.750000
O O6 0.911309 0.324803 0.088249
O O7 0.896388 0.603613 0.250000
O O8 0.000000 0.500000 0.519763
#
# Coordination Sequence:
#
# PCOD9558674 Si02
#       4
#     8   2   8   8
#     4   9  18  37  72 113 155 194 249 320 383 451
#     4   8  16  36  72 124 154 186 252 332 402 452
#     4   9  19  37  70 115 150 192 253 317 383 446
#     4  10  22  42  69 110 159 204 252 304 370 460
#
# _framework density 26.151465999999999
#
# number of rings (size 3 to 8) (size 9 to 14) (size 15 to 20)
#    0.000    2.769    0.000    0.000    0.000    6.769 
#    0.000    6.154    0.000   43.385    0.000  120.615 
#    0.000    0.000    0.000    0.000    0.000    0.000 
#
# Total GULP energy -145178.161418 kJ/mol
# GULP energy per Si atom -5583.775439 kJ/mol
# Density = 2.609194 g / cm^3
# Si number density = 26.151466 Si / 1000 Ang^3
#
#
#
# Elastic Constant Matrix: (Units=GPa)
#
#
# Indices 1 2 3 4 5 6 
#
# 1 234.4935 69.0495 106.1219 0.0000 0.0000 0.0000
# 2 69.0495 234.4928 106.1219 0.0000 0.0000 0.0000
# 3 106.1219 106.1219 197.1504 0.0000 0.0000 0.0000
# 4 0.0000 0.0000 0.0000 54.3180 0.0000 0.0000
# 5 0.0000 0.0000 0.0000 0.0000 54.3180 0.0000
# 6 0.0000 0.0000 0.0000 0.0000 0.0000 40.8194
#
#
#
# Elastic Compliance Matrix: (Units=1/GPa)
#
#
# Indices 1 2 3 4 5 6 
#
# 1 0.005664 -0.000381 -0.002844 0.000000 0.000000 0.000000
# 2 -0.000381 0.005664 -0.002844 0.000000 0.000000 0.000000
# 3 -0.002844 -0.002844 0.008134 0.000000 0.000000 0.000000
# 4 0.000000 0.000000 0.000000 0.018410 0.000000 0.000000
# 5 0.000000 0.000000 0.000000 0.000000 0.018410 0.000000
# 6 0.000000 0.000000 0.000000 0.000000 0.000000 0.024498
#
#
# Mechanical properties :
#
#
# Convention : Reuss Voigt Hill
#
# Bulk Modulus (GPa) = 136.52476 136.52482 136.52479
# Shear Modulus (GPa) = 52.43481 55.54730 53.99105
#
# Velocity S-wave (km/s) = 4.48263 4.61375 4.54866
# Velocity P-wave (km/s) = 8.89442 8.98338 8.93901
#
# Compressibility (1/GPa) = 0.00732468
#
# Stress axis : x y z
#
# Youngs Moduli (GPa) = 176.56845 176.56773 122.94766
#
# Poissons Ratio (x) = 0.06724 0.34961
# Poissons Ratio (y) = 0.06724 0.34961
# Poissons Ratio (z) = 0.50208 0.50209
#
# Static dielectric constant tensor:
#      x y z
#    x 2.093210 0.000000 0.000000 
#    y 0.000000 2.093210 0.000000 
#    z 0.000000 0.000000 2.191550 
# 
# From -- ./inp_files/1398.got.cif
#   From: 2010.05.17/outbox.cif.g08.bks.cpg/sg118_1_cif.got.tgz:1398.got - 2010.05.20 11:17:24.
