data_PCOD9558820
_publ_section_title
;
Structure prediction by ZEFSAII (Michael W. Deem and Ramdas Pophale) SiO2 
 PCOD9558820
Probable space group: P -4 N 2
;
_chemical_formula_sum "Si O2"
_cell_formula_units_Z 40
_cell_length_a 8.124224
_cell_length_b 8.124224
_cell_length_c 24.596900
_cell_angle_alpha 90.000000
_cell_angle_beta 90.000000
_cell_angle_gamma 90.000000
_cell_volume 1623.469574
_symmetry_space_group_name_H-M "P -4 N 2"
_symmetry_group_IT_number 118
_symmetry_cell_setting 'tetragonal'
loop_
_space_group_symop_operation_xyz
x,y,z
y,-x,-z
-x,-y,z
-y,x,-z
1/2+y,1/2+x,1/2-z
1/2-y,1/2-x,1/2-z
1/2-x,1/2+y,1/2+z
1/2+x,1/2-y,1/2+z
loop_
_atom_site_type_symbol
_atom_site_label
_atom_site_fract_x
_atom_site_fract_y
_atom_site_fract_z
Si Si1 0.246723 0.653596 0.804740
Si Si2 0.661643 0.391657 0.611040
Si Si3 0.819354 0.419565 0.195509
Si Si4 0.783406 0.640797 0.891126
Si Si5 0.769746 0.160819 0.996224
O O1 0.140198 0.640198 0.750000
O O2 0.184236 0.826660 0.830303
O O3 0.436723 0.687973 0.794431
O O4 0.238798 0.516003 0.851889
O O5 0.500000 0.500000 0.599365
O O6 0.803669 0.527903 0.611051
O O7 0.692366 0.246294 0.567609
O O8 0.810035 0.310035 0.250000
O O9 0.777410 0.324445 0.140182
O O10 0.000000 0.500000 0.192565
O O11 0.760233 0.655135 0.957101
O O12 0.960385 0.223740 0.001349
#
# Coordination Sequence:
#
# PCOD9558820 Si02
#       5
#     8   8   8   8   8
#     4  12  27  44  66 110 157 191 255 321 404 477
#     4  11  22  42  74 102 141 198 250 310 379 475
#     4  11  24  46  69 101 136 201 254 303 384 468
#     4  11  24  42  72 104 144 191 245 330 382 452
#     4   9  17  39  69 100 132 181 252 300 364 458
#
# _framework density 24.638591999999999
#
# number of rings (size 3 to 8) (size 9 to 14) (size 15 to 20)
#    0.000    1.200    6.000    2.400    2.800    0.800 
#    3.600    0.000    0.000    0.000    0.000    0.000 
#    0.000    0.000    0.000    0.000    0.000    0.000 
#
# Total GULP energy -222986.381084 kJ/mol
# GULP energy per Si atom -5574.659527 kJ/mol
# Density = 2.458251 g / cm^3
# Si number density = 24.638592 Si / 1000 Ang^3
#
#
#
# Elastic Constant Matrix: (Units=GPa)
#
#
# Indices 1 2 3 4 5 6 
#
# 1 75.0171 26.8651 48.9259 0.0000 0.0000 0.0000
# 2 26.8651 75.0171 48.9259 0.0000 0.0000 0.0000
# 3 48.9259 48.9259 195.9440 0.0000 0.0000 0.0000
# 4 0.0000 0.0000 0.0000 36.5416 0.0000 0.0000
# 5 0.0000 0.0000 0.0000 0.0000 36.5416 0.0000
# 6 0.0000 0.0000 0.0000 0.0000 0.0000 40.7411
#
#
#
# Elastic Compliance Matrix: (Units=1/GPa)
#
#
# Indices 1 2 3 4 5 6 
#
# 1 0.016840 -0.003928 -0.003224 0.000000 0.000000 0.000000
# 2 -0.003928 0.016840 -0.003224 0.000000 0.000000 0.000000
# 3 -0.003224 -0.003224 0.006713 0.000000 0.000000 0.000000
# 4 0.000000 0.000000 0.000000 0.027366 0.000000 0.000000
# 5 0.000000 0.000000 0.000000 0.000000 0.027366 0.000000
# 6 0.000000 0.000000 0.000000 0.000000 0.000000 0.024545
#
#
# Mechanical properties :
#
#
# Convention : Reuss Voigt Hill
#
# Bulk Modulus (GPa) = 50.91388 66.15689 58.53538
# Shear Modulus (GPa) = 34.02081 37.51561 35.76821
#
# Velocity S-wave (km/s) = 3.71993 3.90633 3.81427
# Velocity P-wave (km/s) = 6.25777 6.87423 6.57323
#
# Compressibility (1/GPa) = 0.01964101
#
# Stress axis : x y z
#
# Youngs Moduli (GPa) = 59.38376 59.38376 148.95369
#
# Poissons Ratio (x) = 0.23326 0.48022
# Poissons Ratio (y) = 0.23326 0.48022
# Poissons Ratio (z) = 0.19145 0.19145
#
# Static dielectric constant tensor:
#      x y z
#    x 2.031680 0.000000 0.000000 
#    y 0.000000 2.031680 0.000000 
#    z 0.000000 0.000000 2.124050 
# 
# From -- ./inp_files/6037.got.cif
#   From: 2010.05.17/outbox.cif.g08.bks.cpg/sg118_4_cif.got.tgz:6037.got - 2010.05.20 11:17:24.
