data_PCOD9558634
_publ_section_title
;
Structure prediction by ZEFSAII (Michael W. Deem and Ramdas Pophale) SiO2 
 PCOD9558634
Probable space group: P -4 N 2
;
_chemical_formula_sum "Si O2"
_cell_formula_units_Z 34
_cell_length_a 10.246344
_cell_length_b 10.246344
_cell_length_c 12.424546
_cell_angle_alpha 90.000000
_cell_angle_beta 90.000000
_cell_angle_gamma 90.000000
_cell_volume 1304.422835
_symmetry_space_group_name_H-M "P -4 N 2"
_symmetry_group_IT_number 118
_symmetry_cell_setting 'tetragonal'
loop_
_space_group_symop_operation_xyz
x,y,z
y,-x,-z
-x,-y,z
-y,x,-z
1/2+y,1/2+x,1/2-z
1/2-y,1/2-x,1/2-z
1/2-x,1/2+y,1/2+z
1/2+x,1/2-y,1/2+z
loop_
_atom_site_type_symbol
_atom_site_label
_atom_site_fract_x
_atom_site_fract_y
_atom_site_fract_z
Si Si1 0.500000 0.000000 0.750000
Si Si2 0.973577 0.248674 0.395165
Si Si3 0.411615 0.788140 0.116304
Si Si4 0.091093 0.190047 0.022550
Si Si5 0.633552 0.417628 0.744438
O O1 0.622907 0.991866 0.673014
O O2 0.985965 0.275060 0.520148
O O3 0.085332 0.151783 0.353012
O O4 0.837077 0.181288 0.372396
O O5 0.497486 0.763521 0.225662
O O6 0.311964 0.888852 0.056998
O O7 0.144998 0.183970 0.145340
O O8 0.936926 0.161231 0.027887
O O9 0.500000 0.500000 0.715954
#
# Coordination Sequence:
#
# PCOD9558634 Si02
#       5
#     2   8   8   8   8
#     4  12  28  40  76 112 150 184 268 320 396 462
#     4  11  24  44  69 105 139 191 250 319 369 474
#     4  11  24  42  75  99 141 195 253 305 391 465
#     4  11  24  43  66 106 152 194 243 316 388 469
#     4  10  21  43  70  99 141 195 252 306 387 467
#
# _framework density 26.065168
#
# number of rings (size 3 to 8) (size 9 to 14) (size 15 to 20)
#    0.000    1.176    4.706    1.412    6.588    0.941 
#    0.000    0.000    0.000    0.000    0.000    0.000 
#    0.000    0.000    0.000    0.000    0.000    0.000 
#
# Total GULP energy -189789.217226 kJ/mol
# GULP energy per Si atom -5582.035801 kJ/mol
# Density = 2.600584 g / cm^3
# Si number density = 26.065168 Si / 1000 Ang^3
#
#
#
# Elastic Constant Matrix: (Units=GPa)
#
#
# Indices 1 2 3 4 5 6 
#
# 1 70.5550 -16.1480 6.0930 0.0000 0.0000 0.0000
# 2 -16.1480 70.5550 6.0930 0.0000 0.0000 0.0000
# 3 6.0930 6.0930 158.2668 0.0000 0.0000 0.0000
# 4 0.0000 0.0000 0.0000 21.9973 0.0000 0.0000
# 5 0.0000 0.0000 0.0000 0.0000 21.9973 0.0000
# 6 0.0000 0.0000 0.0000 0.0000 0.0000 21.8849
#
#
#
# Elastic Compliance Matrix: (Units=1/GPa)
#
#
# Indices 1 2 3 4 5 6 
#
# 1 0.015037 0.003503 -0.000714 0.000000 0.000000 0.000000
# 2 0.003503 0.015037 -0.000714 0.000000 0.000000 0.000000
# 3 -0.000714 -0.000714 0.006373 0.000000 0.000000 0.000000
# 4 0.000000 0.000000 0.000000 0.045460 0.000000 0.000000
# 5 0.000000 0.000000 0.000000 0.000000 0.045460 0.000000
# 6 0.000000 0.000000 0.000000 0.000000 0.000000 0.045694
#
#
# Mechanical properties :
#
#
# Convention : Reuss Voigt Hill
#
# Bulk Modulus (GPa) = 24.63171 32.38365 28.50768
# Shear Modulus (GPa) = 27.40594 33.39849 30.40222
#
# Velocity S-wave (km/s) = 3.24611 3.58347 3.41895
# Velocity P-wave (km/s) = 4.84976 5.43809 5.15233
#
# Compressibility (1/GPa) = 0.04059807
#
# Stress axis : x y z
#
# Youngs Moduli (GPa) = 66.50382 66.50382 156.90213
#
# Poissons Ratio (x) = -0.23297 0.11199
# Poissons Ratio (y) = -0.23297 0.11199
# Poissons Ratio (z) = 0.04747 0.04747
#
# Static dielectric constant tensor:
#      x y z
#    x 2.107950 0.000000 0.000000 
#    y 0.000000 2.107950 0.000000 
#    z 0.000000 0.000000 2.048740 
# 
# From -- ./inp_files/2965.got.cif
#   From: 2010.05.17/outbox.cif.g08.bks.cpg/sg118_2_cif.got.tgz:2965.got - 2010.05.20 11:17:24.
