data_PCOD9558464
_publ_section_title
;
Structure prediction by ZEFSAII (Michael W. Deem and Ramdas Pophale) SiO2 
 PCOD9558464
Probable space group: P -4 N 2
;
_chemical_formula_sum "Si O2"
_cell_formula_units_Z 48
_cell_length_a 13.703228
_cell_length_b 13.703228
_cell_length_c 12.087519
_cell_angle_alpha 90.000000
_cell_angle_beta 90.000000
_cell_angle_gamma 90.000000
_cell_volume 2269.775674
_symmetry_space_group_name_H-M "P -4 N 2"
_symmetry_group_IT_number 118
_symmetry_cell_setting 'tetragonal'
loop_
_space_group_symop_operation_xyz
x,y,z
y,-x,-z
-x,-y,z
-y,x,-z
1/2+y,1/2+x,1/2-z
1/2-y,1/2-x,1/2-z
1/2-x,1/2+y,1/2+z
1/2+x,1/2-y,1/2+z
loop_
_atom_site_type_symbol
_atom_site_label
_atom_site_fract_x
_atom_site_fract_y
_atom_site_fract_z
Si Si1 0.463257 0.192955 0.232397
Si Si2 0.759932 0.337624 0.974398
Si Si3 0.828309 0.890156 0.087191
Si Si4 0.599409 0.943397 0.877845
Si Si5 0.175142 0.023808 0.853036
Si Si6 0.299273 0.343636 0.809773
O O1 0.413966 0.086035 0.250000
O O2 0.452678 0.247539 0.349349
O O3 0.572147 0.217634 0.195418
O O4 0.395967 0.245768 0.139724
O O5 0.850005 0.385338 0.043382
O O6 0.674803 0.329911 0.063742
O O7 0.790553 0.227677 0.943086
O O8 0.919805 0.872995 0.164737
O O9 0.858646 0.935395 0.971297
O O10 0.582869 0.917132 0.750000
O O11 0.707761 0.990941 0.871149
O O12 0.500000 0.000000 0.913098
O O13 0.144527 0.102470 0.761779
O O14 0.249673 0.250328 0.750000
#
# Coordination Sequence:
#
# PCOD9558464 Si02
#       6
#     8   8   8   8   8   8
#     4  10  25  44  60  93 139 168 221 274 325 400
#     4  10  21  44  60  95 135 166 214 272 332 404
#     4  10  22  39  64  89 128 167 212 276 321 386
#     4  10  19  38  64  94 127 157 209 273 325 383
#     4  11  21  40  66  95 127 167 225 272 325 399
#     4  12  22  42  71  91 129 183 218 272 339 397
#
# _framework density 21.147463999999999
#
# number of rings (size 3 to 8) (size 9 to 14) (size 15 to 20)
#    0.000    1.500    5.000    1.000    0.000    5.333 
#   15.000    0.000    0.000    0.000    0.000    0.000 
#    0.000    0.000    0.000    0.000    0.000    0.000 
#
# Total GULP energy -267610.708718 kJ/mol
# GULP energy per Si atom -5575.223098 kJ/mol
# Density = 2.109933 g / cm^3
# Si number density = 21.147464 Si / 1000 Ang^3
#
#
#
# Elastic Constant Matrix: (Units=GPa)
#
#
# Indices 1 2 3 4 5 6 
#
# 1 41.5113 61.0550 1.0446 0.0000 0.0000 0.0000
# 2 61.0550 41.5142 1.0458 0.0000 0.0000 0.0000
# 3 1.0446 1.0458 85.7061 0.0000 0.0000 0.0000
# 4 0.0000 0.0000 0.0000 18.9331 0.0000 0.0000
# 5 0.0000 0.0000 0.0000 0.0000 18.9334 0.0000
# 6 0.0000 0.0000 0.0000 0.0000 0.0000 22.7488
#
#
#
# Elastic Compliance Matrix: (Units=1/GPa)
#
#
# Indices 1 2 3 4 5 6 
#
# 1 -0.020710 0.030462 -0.000119 0.000000 0.000000 0.000000
# 2 0.030462 -0.020709 -0.000119 0.000000 0.000000 0.000000
# 3 -0.000119 -0.000119 0.011671 0.000000 0.000000 0.000000
# 4 0.000000 0.000000 0.000000 0.052818 0.000000 0.000000
# 5 0.000000 0.000000 0.000000 0.000000 0.052817 0.000000
# 6 0.000000 0.000000 0.000000 0.000000 0.000000 0.043958
#
#
# Mechanical properties :
#
#
# Convention : Reuss Voigt Hill
#
# Bulk Modulus (GPa) = 32.57423 32.78027 32.67725
# Shear Modulus (GPa) = 71.80837 19.16213 45.48525
#
# Velocity S-wave (km/s) = 5.83350 3.01345 4.64277
# Velocity P-wave (km/s) = 7.79806 5.25759 6.65027
#
# Compressibility (1/GPa) = 0.03069912
#
# Stress axis : x y z
#
# Youngs Moduli (GPa) = -48.28518 -48.28859 85.68479
#
# Poissons Ratio (x) = 1.47095 0.01022
# Poissons Ratio (y) = 1.47085 0.01016
# Poissons Ratio (z) = -0.00576 -0.00573
#
# Static dielectric constant tensor:
#      x y z
#    x 1.810050 0.000000 0.000000 
#    y 0.000000 1.810050 0.000000 
#    z 0.000000 0.000000 1.740740 
# 
# From -- ./inp_files/3324.got.cif
#   From: 2010.05.17/outbox.cif.g08.bks.cpg/sg118_2_cif.got.tgz:3324.got - 2010.05.20 11:17:24.
