data_PCOD9558338
_publ_section_title
;
Structure prediction by ZEFSAII (Michael W. Deem and Ramdas Pophale) SiO2 
 PCOD9558338
Probable space group: P -4 B 2
;
_chemical_formula_sum "Si O2"
_cell_formula_units_Z 40
_cell_length_a 14.054614
_cell_length_b 14.054614
_cell_length_c 9.537508
_cell_angle_alpha 90.000000
_cell_angle_beta 90.000000
_cell_angle_gamma 90.000000
_cell_volume 1883.964696
_symmetry_space_group_name_H-M "P -4 B 2"
_symmetry_group_IT_number 117
_symmetry_cell_setting 'tetragonal'
loop_
_space_group_symop_operation_xyz
x,y,z
y,-x,-z
-x,-y,z
-y,x,-z
1/2+y,1/2+x,-z
1/2-y,1/2-x,-z
1/2-x,1/2+y,z
1/2+x,1/2-y,z
loop_
_atom_site_type_symbol
_atom_site_label
_atom_site_fract_x
_atom_site_fract_y
_atom_site_fract_z
Si Si1 0.709127 0.209127 0.000000
Si Si2 0.860020 0.932203 0.529308
Si Si3 0.135385 0.755268 0.205571
Si Si4 0.216154 0.996444 0.054887
Si Si5 0.000000 0.500000 0.500000
Si Si6 0.500000 0.500000 0.000000
Si Si7 0.439251 0.178302 0.667173
O O1 0.743258 0.258478 0.856051
O O2 0.600781 0.241565 0.006119
O O3 0.836073 0.891279 0.682978
O O4 0.766240 0.916305 0.435612
O O5 0.954799 0.882392 0.468884
O O6 0.124252 0.655590 0.282737
O O7 0.073800 0.765137 0.065242
O O8 0.273586 0.015878 0.196006
O O9 0.101825 0.995479 0.079299
O O10 0.903472 0.499641 0.408393
#
# Coordination Sequence:
#
# PCOD9558338 Si02
#       7
#     4   8   8   8   2   2   8
#     4  12  26  44  73 115 140 192 244 310 394 434
#     4  11  27  46  75 109 149 197 248 312 382 449
#     4  12  24  49  71 107 154 190 248 315 364 463
#     4  12  27  44  79 110 149 192 247 319 383 453
#     4  12  28  52  74 100 156 208 248 314 376 460
#     4  12  24  48  76 118 152 184 244 326 384 444
#     4  12  26  52  69 107 149 197 256 303 375 454
#
# _framework density 21.231819999999999
#
# number of rings (size 3 to 8) (size 9 to 14) (size 15 to 20)
#    0.000    0.200    6.000    1.200    8.400    0.000 
#    3.600    0.000    0.000    0.000    0.000    0.000 
#    0.000    0.000    0.000    0.000    0.000    0.000 
#
# Total GULP energy -223610.250018 kJ/mol
# GULP energy per Si atom -5590.256250 kJ/mol
# Density = 2.118350 g / cm^3
# Si number density = 21.231820 Si / 1000 Ang^3
#
#
#
# Elastic Constant Matrix: (Units=GPa)
#
#
# Indices 1 2 3 4 5 6 
#
# 1 113.2664 43.7800 60.1865 0.0000 0.0000 0.0000
# 2 43.7800 113.2664 60.1865 0.0000 0.0000 0.0000
# 3 60.1865 60.1865 152.9504 0.0000 0.0000 0.0000
# 4 0.0000 0.0000 0.0000 42.7860 0.0000 0.0000
# 5 0.0000 0.0000 0.0000 0.0000 42.7860 0.0000
# 6 0.0000 0.0000 0.0000 0.0000 0.0000 31.0208
#
#
#
# Elastic Compliance Matrix: (Units=1/GPa)
#
#
# Indices 1 2 3 4 5 6 
#
# 1 0.011754 -0.002637 -0.003588 0.000000 0.000000 0.000000
# 2 -0.002637 0.011754 -0.003588 0.000000 0.000000 0.000000
# 3 -0.003588 -0.003588 0.009362 0.000000 0.000000 0.000000
# 4 0.000000 0.000000 0.000000 0.023372 0.000000 0.000000
# 5 0.000000 0.000000 0.000000 0.000000 0.023372 0.000000
# 6 0.000000 0.000000 0.000000 0.000000 0.000000 0.032236
#
#
# Mechanical properties :
#
#
# Convention : Reuss Voigt Hill
#
# Bulk Modulus (GPa) = 75.49680 78.64325 77.07003
# Shear Modulus (GPa) = 36.79411 37.67389 37.23400
#
# Velocity S-wave (km/s) = 4.16741 4.21694 4.19225
# Velocity P-wave (km/s) = 7.66759 7.79941 7.73378
#
# Compressibility (1/GPa) = 0.01324559
#
# Stress axis : x y z
#
# Youngs Moduli (GPa) = 85.07447 85.07447 106.81855
#
# Poissons Ratio (x) = 0.22433 0.38324
# Poissons Ratio (y) = 0.22433 0.38324
# Poissons Ratio (z) = 0.30523 0.30523
#
# Static dielectric constant tensor:
#      x y z
#    x 1.763980 0.000000 0.000000 
#    y 0.000000 1.763980 0.000000 
#    z 0.000000 0.000000 1.835160 
# 
# From -- ./inp_files/1801.got.cif
#   From: 2010.05.17/outbox.cif.g08.bks.cpg/sg117_1_cif.got.tgz:1801.got - 2010.05.20 11:15:09.
