data_PCOD9558355
_publ_section_title
;
Structure prediction by ZEFSAII (Michael W. Deem and Ramdas Pophale) SiO2 
 PCOD9558355
Probable space group: P -4 B 2
;
_chemical_formula_sum "Si O2"
_cell_formula_units_Z 34
_cell_length_a 9.885733
_cell_length_b 9.885733
_cell_length_c 13.295226
_cell_angle_alpha 90.000000
_cell_angle_beta 90.000000
_cell_angle_gamma 90.000000
_cell_volume 1299.312083
_symmetry_space_group_name_H-M "P -4 B 2"
_symmetry_group_IT_number 117
_symmetry_cell_setting 'tetragonal'
loop_
_space_group_symop_operation_xyz
x,y,z
y,-x,-z
-x,-y,z
-y,x,-z
1/2+y,1/2+x,-z
1/2-y,1/2-x,-z
1/2-x,1/2+y,z
1/2+x,1/2-y,z
loop_
_atom_site_type_symbol
_atom_site_label
_atom_site_fract_x
_atom_site_fract_y
_atom_site_fract_z
Si Si1 0.215069 0.013990 0.125375
Si Si2 0.262188 0.880824 0.601933
Si Si3 0.771470 0.998711 0.904112
Si Si4 0.500000 0.500000 0.500000
Si Si5 0.869578 0.368884 0.718031
O O1 0.287438 0.002990 0.233291
O O2 0.142769 0.161898 0.122786
O O3 0.102466 0.899114 0.108871
O O4 0.285025 0.003221 0.016719
O O5 0.328693 0.828693 0.500000
O O6 0.221553 0.749960 0.668835
O O7 0.354419 0.002393 0.645010
O O8 0.120440 0.949328 0.570853
O O9 0.672838 0.941328 0.821868
#
# Coordination Sequence:
#
# PCOD9558355 Si02
#       5
#     8   8   8   2   8
#     4   9  19  37  67 105 144 204 247 321 391 504
#     4  12  28  49  78 112 146 213 272 340 408 486
#     4   9  19  38  66 104 150 190 260 311 407 488
#     4  12  28  56  76  96 166 200 260 356 428 460
#     4  12  23  42  73 107 147 197 265 327 407 478
#
# _framework density 26.167691999999999
#
# number of rings (size 3 to 8) (size 9 to 14) (size 15 to 20)
#    0.000    1.412    4.706    2.118    3.294    0.000 
#    0.000    8.235    0.000    0.000    0.000    0.000 
#    0.000    0.000    0.000    0.000    0.000    0.000 
#
# Total GULP energy -189955.466563 kJ/mol
# GULP energy per Si atom -5586.925487 kJ/mol
# Density = 2.610813 g / cm^3
# Si number density = 26.167692 Si / 1000 Ang^3
#
#
#
# Elastic Constant Matrix: (Units=GPa)
#
#
# Indices 1 2 3 4 5 6 
#
# 1 116.1706 55.8374 62.2471 0.0000 0.0000 0.0000
# 2 55.8374 116.1706 62.2471 0.0000 0.0000 0.0000
# 3 62.2471 62.2471 174.8564 0.0000 0.0000 0.0000
# 4 0.0000 0.0000 0.0000 32.7519 0.0000 0.0000
# 5 0.0000 0.0000 0.0000 0.0000 32.7519 0.0000
# 6 0.0000 0.0000 0.0000 0.0000 0.0000 43.7592
#
#
#
# Elastic Compliance Matrix: (Units=1/GPa)
#
#
# Indices 1 2 3 4 5 6 
#
# 1 0.012203 -0.004372 -0.002788 0.000000 0.000000 0.000000
# 2 -0.004372 0.012203 -0.002788 0.000000 0.000000 0.000000
# 3 -0.002788 -0.002788 0.007704 0.000000 0.000000 0.000000
# 4 0.000000 0.000000 0.000000 0.030533 0.000000 0.000000
# 5 0.000000 0.000000 0.000000 0.000000 0.030533 0.000000
# 6 0.000000 0.000000 0.000000 0.000000 0.000000 0.022852
#
#
# Mechanical properties :
#
#
# Convention : Reuss Voigt Hill
#
# Bulk Modulus (GPa) = 81.86523 85.31788 83.59156
# Shear Modulus (GPa) = 35.71580 36.97702 36.34641
#
# Velocity S-wave (km/s) = 3.69844 3.76317 3.73095
# Velocity P-wave (km/s) = 7.04207 7.18032 7.11153
#
# Compressibility (1/GPa) = 0.01221520
#
# Stress axis : x y z
#
# Youngs Moduli (GPa) = 81.94667 81.94667 129.80388
#
# Poissons Ratio (x) = 0.35823 0.36188
# Poissons Ratio (y) = 0.35823 0.36188
# Poissons Ratio (z) = 0.22846 0.22846
#
# Static dielectric constant tensor:
#      x y z
#    x 2.176520 0.000000 0.000000 
#    y 0.000000 2.176520 0.000000 
#    z 0.000000 0.000000 2.032610 
# 
# From -- ./inp_files/2434.got.cif
#   From: 2010.05.17/outbox.cif.g08.bks.cpg/sg117_2_cif.got.tgz:2434.got - 2010.05.20 11:15:09.
