data_PCOD9558570
_publ_section_title
;
Structure prediction by ZEFSAII (Michael W. Deem and Ramdas Pophale) SiO2 
 PCOD9558570
Probable space group: P -4 N 2
;
_chemical_formula_sum "Si O2"
_cell_formula_units_Z 56
_cell_length_a 14.450633
_cell_length_b 14.450633
_cell_length_c 13.901162
_cell_angle_alpha 90.000000
_cell_angle_beta 90.000000
_cell_angle_gamma 90.000000
_cell_volume 2902.851688
_symmetry_space_group_name_H-M "P -4 N 2"
_symmetry_group_IT_number 118
_symmetry_cell_setting 'tetragonal'
loop_
_space_group_symop_operation_xyz
x,y,z
y,-x,-z
-x,-y,z
-y,x,-z
1/2+y,1/2+x,1/2-z
1/2-y,1/2-x,1/2-z
1/2-x,1/2+y,1/2+z
1/2+x,1/2-y,1/2+z
loop_
_atom_site_type_symbol
_atom_site_label
_atom_site_fract_x
_atom_site_fract_y
_atom_site_fract_z
Si Si1 0.034617 0.770822 0.934901
Si Si2 0.002707 0.887549 0.259069
Si Si3 0.913474 0.567349 0.636372
Si Si4 0.642293 0.655710 0.614334
Si Si5 0.709787 0.175811 0.477483
Si Si6 0.782713 0.170965 0.832430
Si Si7 0.385819 0.427720 0.033731
O O1 0.125912 0.775643 0.868789
O O2 0.986974 0.674841 0.906200
O O3 0.952078 0.844596 0.917002
O O4 0.073593 0.791987 0.040983
O O5 0.924075 0.829644 0.202452
O O6 0.980492 0.863635 0.368417
O O7 0.099713 0.850220 0.219589
O O8 0.000000 0.000000 0.245765
O O9 0.907757 0.592244 0.750000
O O10 0.911775 0.658973 0.570394
O O11 0.000000 0.500000 0.624893
O O12 0.741584 0.702802 0.599729
O O13 0.661384 0.216433 0.574120
O O14 0.812377 0.148879 0.507708
O O15 0.726096 0.226096 0.750000
O O16 0.389171 0.510372 0.956268
#
# Coordination Sequence:
#
# PCOD9558570 Si02
#       7
#     8   8   8   8   8   8   8
#     4  10  21  36  59  95 127 157 209 267 338 385
#     4  12  21  38  65  95 126 166 217 274 324 395
#     4  10  23  40  61  89 121 169 216 266 332 406
#     4  10  21  36  61  93 127 159 207 271 329 389
#     4  10  23  42  59  93 132 165 212 279 331 404
#     4  11  22  37  65  96 128 168 213 265 334 399
#     4  11  24  41  61  89 126 173 222 266 331 400
#
# _framework density 19.291374999999999
#
# number of rings (size 3 to 8) (size 9 to 14) (size 15 to 20)
#    0.000    1.429    4.286    2.571    2.000    5.714 
#    0.000    0.000    0.000    0.429    0.000    0.000 
#    0.000    0.000    0.000    0.000    0.000    0.000 
#
# Total GULP energy -312085.528909 kJ/mol
# GULP energy per Si atom -5572.955873 kJ/mol
# Density = 1.924747 g / cm^3
# Si number density = 19.291375 Si / 1000 Ang^3
#
#
#
# Elastic Constant Matrix: (Units=GPa)
#
#
# Indices 1 2 3 4 5 6 
#
# 1 65.9357 32.8384 32.0673 0.0000 0.0000 0.0000
# 2 32.8384 65.9358 32.0674 0.0000 0.0000 0.0000
# 3 32.0673 32.0674 65.9311 0.0000 0.0000 0.0000
# 4 0.0000 0.0000 0.0000 30.0009 0.0000 0.0000
# 5 0.0000 0.0000 0.0000 0.0000 30.0008 0.0000
# 6 0.0000 0.0000 0.0000 0.0000 0.0000 39.6444
#
#
#
# Elastic Compliance Matrix: (Units=1/GPa)
#
#
# Indices 1 2 3 4 5 6 
#
# 1 0.022506 -0.007708 -0.007197 0.000000 0.000000 0.000000
# 2 -0.007708 0.022506 -0.007197 0.000000 0.000000 0.000000
# 3 -0.007197 -0.007197 0.022168 0.000000 0.000000 0.000000
# 4 0.000000 0.000000 0.000000 0.033332 0.000000 0.000000
# 5 0.000000 0.000000 0.000000 0.000000 0.033332 0.000000
# 6 0.000000 0.000000 0.000000 0.000000 0.000000 0.025224
#
#
# Mechanical properties :
#
#
# Convention : Reuss Voigt Hill
#
# Bulk Modulus (GPa) = 43.52633 43.52764 43.52699
# Shear Modulus (GPa) = 23.70440 26.65118 25.17779
#
# Velocity S-wave (km/s) = 3.50917 3.72090 3.61658
# Velocity P-wave (km/s) = 6.24744 6.40877 6.32862
#
# Compressibility (1/GPa) = 0.02297460
#
# Stress axis : x y z
#
# Youngs Moduli (GPa) = 44.43348 44.43356 45.10953
#
# Poissons Ratio (x) = 0.34251 0.32465
# Poissons Ratio (y) = 0.34251 0.32465
# Poissons Ratio (z) = 0.31979 0.31979
#
# Static dielectric constant tensor:
#      x y z
#    x 1.692270 0.000000 0.000000 
#    y 0.000000 1.692270 0.000000 
#    z 0.000000 0.000000 1.720750 
# 
# From -- ./inp_files/4245.got.cif
#   From: 2010.05.17/outbox.cif.g08.bks.cpg/sg118_3_cif.got.tgz:4245.got - 2010.05.20 11:17:24.
