data_PCOD9558644
_publ_section_title
;
Structure prediction by ZEFSAII (Michael W. Deem and Ramdas Pophale) SiO2 
 PCOD9558644
Probable space group: P -4 N 2
;
_chemical_formula_sum "Si O2"
_cell_formula_units_Z 40
_cell_length_a 11.018098
_cell_length_b 11.018098
_cell_length_c 15.641553
_cell_angle_alpha 90.000000
_cell_angle_beta 90.000000
_cell_angle_gamma 90.000000
_cell_volume 1898.860814
_symmetry_space_group_name_H-M "P -4 N 2"
_symmetry_group_IT_number 118
_symmetry_cell_setting 'tetragonal'
loop_
_space_group_symop_operation_xyz
x,y,z
y,-x,-z
-x,-y,z
-y,x,-z
1/2+y,1/2+x,1/2-z
1/2-y,1/2-x,1/2-z
1/2-x,1/2+y,1/2+z
1/2+x,1/2-y,1/2+z
loop_
_atom_site_type_symbol
_atom_site_label
_atom_site_fract_x
_atom_site_fract_y
_atom_site_fract_z
Si Si1 0.567129 0.317920 0.471716
Si Si2 0.105946 0.278964 0.457245
Si Si3 0.814288 0.507759 0.216943
Si Si4 0.826025 0.123670 0.227377
Si Si5 0.026843 0.855119 0.611289
O O1 0.429968 0.350741 0.495601
O O2 0.614991 0.196345 0.516524
O O3 0.584251 0.312758 0.369876
O O4 0.007917 0.316586 0.385964
O O5 0.049995 0.219168 0.541760
O O6 0.169713 0.166772 0.408513
O O7 0.862387 0.637614 0.250000
O O8 0.688316 0.456466 0.253608
O O9 0.911479 0.411479 0.250000
O O10 0.723033 0.223033 0.250000
O O11 0.817945 0.015439 0.294962
O O12 0.000000 0.000000 0.600112
#
# Coordination Sequence:
#
# PCOD9558644 Si02
#       5
#     8   8   8   8   8
#     4  11  27  46  67  98 138 183 225 281 358 423
#     4  12  22  42  67 100 137 173 231 286 336 409
#     4  10  22  37  61  99 134 174 227 281 340 400
#     4  11  22  42  66  93 133 180 225 277 344 412
#     4  12  22  38  69 102 130 174 228 284 338 405
#
# _framework density 21.065261
#
# number of rings (size 3 to 8) (size 9 to 14) (size 15 to 20)
#    0.000    0.800    6.000    1.200    5.600    1.600 
#    0.000    0.000    0.000    1.200    0.000    0.000 
#    0.000    0.000    0.000    0.000    0.000    0.000 
#
# Total GULP energy -223635.646743 kJ/mol
# GULP energy per Si atom -5590.891169 kJ/mol
# Density = 2.101732 g / cm^3
# Si number density = 21.065261 Si / 1000 Ang^3
#
#
#
# Elastic Constant Matrix: (Units=GPa)
#
#
# Indices 1 2 3 4 5 6 
#
# 1 30.0416 4.1718 23.4470 0.0000 0.0000 0.0000
# 2 4.1718 30.0418 23.4483 0.0000 0.0000 0.0000
# 3 23.4470 23.4483 162.2525 0.0000 0.0000 0.0000
# 4 0.0000 0.0000 0.0000 51.2195 0.0000 0.0000
# 5 0.0000 0.0000 0.0000 0.0000 51.2271 0.0000
# 6 0.0000 0.0000 0.0000 0.0000 0.0000 27.2080
#
#
#
# Elastic Compliance Matrix: (Units=1/GPa)
#
#
# Indices 1 2 3 4 5 6 
#
# 1 0.037551 -0.001104 -0.005267 0.000000 0.000000 0.000000
# 2 -0.001104 0.037551 -0.005267 0.000000 0.000000 0.000000
# 3 -0.005267 -0.005267 0.007686 0.000000 0.000000 0.000000
# 4 0.000000 0.000000 0.000000 0.019524 0.000000 0.000000
# 5 0.000000 0.000000 0.000000 0.000000 0.019521 0.000000
# 6 0.000000 0.000000 0.000000 0.000000 0.000000 0.036754
#
#
# Mechanical properties :
#
#
# Convention : Reuss Voigt Hill
#
# Bulk Modulus (GPa) = 16.80324 36.05225 26.42775
# Shear Modulus (GPa) = 24.78925 37.34885 31.06905
#
# Velocity S-wave (km/s) = 3.43415 4.21528 3.84460
# Velocity P-wave (km/s) = 4.87017 6.39086 5.68162
#
# Compressibility (1/GPa) = 0.05951233
#
# Stress axis : x y z
#
# Youngs Moduli (GPa) = 26.63029 26.63010 130.11363
#
# Poissons Ratio (x) = 0.02939 0.68531
# Poissons Ratio (y) = 0.02939 0.68535
# Poissons Ratio (z) = 0.14026 0.14027
#
# Static dielectric constant tensor:
#      x y z
#    x 1.788040 0.000000 0.000000 
#    y 0.000000 1.788040 0.000000 
#    z 0.000000 0.000000 1.752340 
# 
# From -- ./inp_files/4044.got.cif
#   From: 2010.05.17/outbox.cif.g08.bks.cpg/sg118_3_cif.got.tgz:4044.got - 2010.05.20 11:17:24.
