data_PCOD9558742
_publ_section_title
;
Structure prediction by ZEFSAII (Michael W. Deem and Ramdas Pophale) SiO2 
 PCOD9558742
Probable space group: P -4 N 2
;
_chemical_formula_sum "Si O2"
_cell_formula_units_Z 18
_cell_length_a 5.184419
_cell_length_b 5.184419
_cell_length_c 22.782081
_cell_angle_alpha 90.000000
_cell_angle_beta 90.000000
_cell_angle_gamma 90.000000
_cell_volume 612.341338
_symmetry_space_group_name_H-M "P -4 N 2"
_symmetry_group_IT_number 118
_symmetry_cell_setting 'tetragonal'
loop_
_space_group_symop_operation_xyz
x,y,z
y,-x,-z
-x,-y,z
-y,x,-z
1/2+y,1/2+x,1/2-z
1/2-y,1/2-x,1/2-z
1/2-x,1/2+y,1/2+z
1/2+x,1/2-y,1/2+z
loop_
_atom_site_type_symbol
_atom_site_label
_atom_site_fract_x
_atom_site_fract_y
_atom_site_fract_z
Si Si1 0.160370 0.251875 0.831303
Si Si2 0.787447 0.642541 0.967571
Si Si3 0.500000 0.000000 0.750000
O O1 0.167048 0.255131 0.901841
O O2 0.000000 0.500000 0.814009
O O3 0.431270 0.220177 0.798318
O O4 0.000000 0.000000 0.814109
O O5 0.500000 0.500000 0.950606
O O6 0.880881 0.331150 0.990750
#
# Coordination Sequence:
#
# PCOD9558742 Si02
#       3
#     8   8   2
#     4  11  29  52  84 129 174 233 308 374 454 550
#     4  10  25  44  76 119 166 217 285 359 451 532
#     4  12  30  52  94 106 192 236 300 370 464 538
#
# _framework density 29.395371000000001
#
# number of rings (size 3 to 8) (size 9 to 14) (size 15 to 20)
#    0.000    1.333    0.000    0.667   21.778    7.111 
#    0.000    0.000    0.000    0.000    0.000    0.000 
#    0.000    0.000    0.000    0.000    0.000    0.000 
#
# Total GULP energy -100219.087506 kJ/mol
# GULP energy per Si atom -5567.727084 kJ/mol
# Density = 2.932847 g / cm^3
# Si number density = 29.395371 Si / 1000 Ang^3
#
#
#
# Elastic Constant Matrix: (Units=GPa)
#
#
# Indices 1 2 3 4 5 6 
#
# 1 270.2903 122.8733 84.6768 0.0000 0.0000 0.0000
# 2 122.8733 270.2903 84.6768 0.0000 0.0000 0.0000
# 3 84.6768 84.6768 313.6605 0.0000 0.0000 0.0000
# 4 0.0000 0.0000 0.0000 8.4056 0.0000 0.0000
# 5 0.0000 0.0000 0.0000 0.0000 8.4056 0.0000
# 6 0.0000 0.0000 0.0000 0.0000 0.0000 113.6018
#
#
#
# Elastic Compliance Matrix: (Units=1/GPa)
#
#
# Indices 1 2 3 4 5 6 
#
# 1 0.004831 -0.001953 -0.000777 0.000000 0.000000 0.000000
# 2 -0.001953 0.004831 -0.000777 0.000000 0.000000 0.000000
# 3 -0.000777 -0.000777 0.003608 0.000000 0.000000 0.000000
# 4 0.000000 0.000000 0.000000 0.118968 0.000000 0.000000
# 5 0.000000 0.000000 0.000000 0.000000 0.118968 0.000000
# 6 0.000000 0.000000 0.000000 0.000000 0.000000 0.008803
#
#
# Mechanical properties :
#
#
# Convention : Reuss Voigt Hill
#
# Bulk Modulus (GPa) = 159.84626 159.85498 159.85062
# Shear Modulus (GPa) = 18.58002 63.55023 41.06513
#
# Velocity S-wave (km/s) = 2.51683 4.65468 3.74169
# Velocity P-wave (km/s) = 7.93360 9.13166 8.55363
#
# Compressibility (1/GPa) = 0.00625601
#
# Stress axis : x y z
#
# Youngs Moduli (GPa) = 207.00423 207.00423 277.18636
#
# Poissons Ratio (x) = 0.40421 0.21537
# Poissons Ratio (y) = 0.40421 0.21537
# Poissons Ratio (z) = 0.16084 0.16084
#
# Static dielectric constant tensor:
#      x y z
#    x 1.901940 0.000000 0.000000 
#    y 0.000000 1.901940 0.000000 
#    z 0.000000 0.000000 2.309120 
# 
# From -- ./inp_files/5813.got.cif
#   From: 2010.05.17/outbox.cif.g08.bks.cpg/sg118_3_cif.got.tgz:5813.got - 2010.05.20 11:17:24.
