data_PCOD9558148
_publ_section_title
;
Structure prediction by ZEFSAII (Michael W. Deem and Ramdas Pophale) SiO2 
 PCOD9558148
Probable space group: P -4 B 2
;
_chemical_formula_sum "Si O2"
_cell_formula_units_Z 38
_cell_length_a 14.821434
_cell_length_b 14.821434
_cell_length_c 8.216838
_cell_angle_alpha 90.000000
_cell_angle_beta 90.000000
_cell_angle_gamma 90.000000
_cell_volume 1805.033114
_symmetry_space_group_name_H-M "P -4 B 2"
_symmetry_group_IT_number 117
_symmetry_cell_setting 'tetragonal'
loop_
_space_group_symop_operation_xyz
x,y,z
y,-x,-z
-x,-y,z
-y,x,-z
1/2+y,1/2+x,-z
1/2-y,1/2-x,-z
1/2-x,1/2+y,z
1/2+x,1/2-y,z
loop_
_atom_site_type_symbol
_atom_site_label
_atom_site_fract_x
_atom_site_fract_y
_atom_site_fract_z
Si Si1 0.320427 0.412411 0.388778
Si Si2 0.319973 0.901887 0.157780
Si Si3 0.000000 0.000000 0.500000
Si Si4 0.292238 0.207763 0.500000
Si Si5 0.390049 0.126621 0.813790
Si Si6 0.656507 0.046290 0.609006
O O1 0.283623 0.413464 0.204292
O O2 0.417152 0.457282 0.401492
O O3 0.317484 0.310123 0.453180
O O4 0.245225 0.465545 0.499461
O O5 0.359068 0.837226 0.298483
O O6 0.363484 0.001612 0.169637
O O7 0.350898 0.850898 0.000000
O O8 0.350924 0.184753 0.663026
O O9 0.362219 0.027973 0.745508
O O10 0.356363 0.143638 0.000000
O O11 0.568315 0.068315 0.500000
#
# Coordination Sequence:
#
# PCOD9558148 Si02
#       6
#     8   8   2   4   8   8
#     4  11  24  45  70  95 132 194 243 303 357 433
#     4  11  21  39  66 100 141 171 222 290 363 438
#     4  12  24  44  76  98 132 188 272 302 352 432
#     4  12  24  46  63  99 144 184 240 292 372 430
#     4  12  24  37  64 106 138 175 221 288 360 440
#     4  10  20  39  63  97 137 177 221 283 359 427
#
# _framework density 21.052246
#
# number of rings (size 3 to 8) (size 9 to 14) (size 15 to 20)
#    0.000    0.842    5.263    5.684    0.000    3.368 
#    0.000    0.000    0.000    1.263    0.000    0.000 
#    0.000    0.000    0.000    0.000    0.000    0.000 
#
# Total GULP energy -211821.901015 kJ/mol
# GULP energy per Si atom -5574.260553 kJ/mol
# Density = 2.100433 g / cm^3
# Si number density = 21.052246 Si / 1000 Ang^3
#
#
#
# Elastic Constant Matrix: (Units=GPa)
#
#
# Indices 1 2 3 4 5 6 
#
# 1 119.1706 52.9837 53.5296 0.0000 0.0000 0.0000
# 2 52.9837 119.1706 53.5295 0.0000 0.0000 0.0000
# 3 53.5296 53.5295 162.7022 0.0000 0.0000 0.0000
# 4 0.0000 0.0000 0.0000 15.8563 0.0000 0.0000
# 5 0.0000 0.0000 0.0000 0.0000 15.8567 0.0000
# 6 0.0000 0.0000 0.0000 0.0000 0.0000 30.4325
#
#
#
# Elastic Compliance Matrix: (Units=1/GPa)
#
#
# Indices 1 2 3 4 5 6 
#
# 1 0.011206 -0.003903 -0.002403 0.000000 0.000000 0.000000
# 2 -0.003903 0.011206 -0.002403 0.000000 0.000000 0.000000
# 3 -0.002403 -0.002403 0.007727 0.000000 0.000000 0.000000
# 4 0.000000 0.000000 0.000000 0.063067 0.000000 0.000000
# 5 0.000000 0.000000 0.000000 0.000000 0.063065 0.000000
# 6 0.000000 0.000000 0.000000 0.000000 0.000000 0.032860
#
#
# Mechanical properties :
#
#
# Convention : Reuss Voigt Hill
#
# Bulk Modulus (GPa) = 78.60225 80.12545 79.36385
# Shear Modulus (GPa) = 23.72061 28.49579 26.10820
#
# Velocity S-wave (km/s) = 3.36035 3.68309 3.52541
# Velocity P-wave (km/s) = 7.24388 7.49865 7.37236
#
# Compressibility (1/GPa) = 0.01272228
#
# Stress axis : x y z
#
# Youngs Moduli (GPa) = 89.23922 89.23931 129.41334
#
# Poissons Ratio (x) = 0.34829 0.31094
# Poissons Ratio (y) = 0.34829 0.31094
# Poissons Ratio (z) = 0.21441 0.21441
#
# Static dielectric constant tensor:
#      x y z
#    x 1.811560 0.000000 0.000000 
#    y 0.000000 1.811560 0.000000 
#    z 0.000000 0.000000 1.846340 
# 
# From -- ./inp_files/1648.got.cif
#   From: 2010.05.17/outbox.cif.g08.bks.cpg/sg117_1_cif.got.tgz:1648.got - 2010.05.20 11:15:09.
