data_PCOD9558713
_publ_section_title
;
Structure prediction by ZEFSAII (Michael W. Deem and Ramdas Pophale) SiO2 
 PCOD9558713
Probable space group: P -4 N 2
;
_chemical_formula_sum "Si O2"
_cell_formula_units_Z 26
_cell_length_a 11.029777
_cell_length_b 11.029777
_cell_length_c 9.630816
_cell_angle_alpha 90.000000
_cell_angle_beta 90.000000
_cell_angle_gamma 90.000000
_cell_volume 1171.646365
_symmetry_space_group_name_H-M "P -4 N 2"
_symmetry_group_IT_number 118
_symmetry_cell_setting 'tetragonal'
loop_
_space_group_symop_operation_xyz
x,y,z
y,-x,-z
-x,-y,z
-y,x,-z
1/2+y,1/2+x,1/2-z
1/2-y,1/2-x,1/2-z
1/2-x,1/2+y,1/2+z
1/2+x,1/2-y,1/2+z
loop_
_atom_site_type_symbol
_atom_site_label
_atom_site_fract_x
_atom_site_fract_y
_atom_site_fract_z
Si Si1 0.000000 0.500000 0.750000
Si Si2 0.228932 0.901641 0.684327
Si Si3 0.685140 0.905881 0.467853
Si Si4 0.066290 0.839874 0.946757
O O1 0.010462 0.619436 0.650279
O O2 0.352148 0.852148 0.750000
O O3 0.171875 0.799732 0.584225
O O4 0.132887 0.889876 0.809543
O O5 0.265270 0.018821 0.597327
O O6 0.586210 0.799210 0.485496
O O7 0.925640 0.872195 0.937901
#
# Coordination Sequence:
#
# PCOD9558713 Si02
#       4
#     2   8   8   8
#     4  12  24  48  78 108 146 202 240 306 384 452
#     4  10  24  47  69 111 144 183 263 301 362 458
#     4  11  25  45  77 103 149 195 243 312 374 440
#     4  10  23  46  68 103 151 190 247 303 361 453
#
# _framework density 22.190998
#
# number of rings (size 3 to 8) (size 9 to 14) (size 15 to 20)
#    0.000    1.538    4.615    0.000    8.615    6.769 
#    0.000    3.077    0.000    0.000    0.000    0.000 
#    0.000    0.000    0.000    0.000    0.000    0.000 
#
# Total GULP energy -144874.974800 kJ/mol
# GULP energy per Si atom -5572.114415 kJ/mol
# Density = 2.214049 g / cm^3
# Si number density = 22.190998 Si / 1000 Ang^3
#
#
#
# Elastic Constant Matrix: (Units=GPa)
#
#
# Indices 1 2 3 4 5 6 
#
# 1 96.9118 24.8435 29.2165 0.0000 0.0000 0.0000
# 2 24.8435 96.9118 29.2165 0.0000 0.0000 0.0000
# 3 29.2165 29.2165 73.9341 0.0000 0.0000 0.0000
# 4 0.0000 0.0000 0.0000 15.1215 0.0000 0.0000
# 5 0.0000 0.0000 0.0000 0.0000 15.1215 0.0000
# 6 0.0000 0.0000 0.0000 0.0000 0.0000 38.4939
#
#
#
# Elastic Compliance Matrix: (Units=1/GPa)
#
#
# Indices 1 2 3 4 5 6 
#
# 1 0.012006 -0.001870 -0.004005 0.000000 0.000000 0.000000
# 2 -0.001870 0.012006 -0.004005 0.000000 0.000000 0.000000
# 3 -0.004005 -0.004005 0.016691 0.000000 0.000000 0.000000
# 4 0.000000 0.000000 0.000000 0.066131 0.000000 0.000000
# 5 0.000000 0.000000 0.000000 0.000000 0.066131 0.000000
# 6 0.000000 0.000000 0.000000 0.000000 0.000000 0.025978
#
#
# Mechanical properties :
#
#
# Convention : Reuss Voigt Hill
#
# Bulk Modulus (GPa) = 47.75318 48.25672 48.00495
# Shear Modulus (GPa) = 22.15490 26.04614 24.10052
#
# Velocity S-wave (km/s) = 3.16313 3.42968 3.29910
# Velocity P-wave (km/s) = 5.90817 6.12184 6.01595
#
# Compressibility (1/GPa) = 0.02094102
#
# Stress axis : x y z
#
# Youngs Moduli (GPa) = 83.29482 83.29482 59.91247
#
# Poissons Ratio (x) = 0.15578 0.23996
# Poissons Ratio (y) = 0.15578 0.23996
# Poissons Ratio (z) = 0.33361 0.33361
#
# Static dielectric constant tensor:
#      x y z
#    x 1.844890 0.000000 0.000000 
#    y 0.000000 1.844890 0.000000 
#    z 0.000000 0.000000 2.005390 
# 
# From -- ./inp_files/1400.got.cif
#   From: 2010.05.17/outbox.cif.g08.bks.cpg/sg118_1_cif.got.tgz:1400.got - 2010.05.20 11:17:24.
