data_PCOD9558721
_publ_section_title
;
Structure prediction by ZEFSAII (Michael W. Deem and Ramdas Pophale) SiO2 
 PCOD9558721
Probable space group: P -4 N 2
;
_chemical_formula_sum "Si O2"
_cell_formula_units_Z 34
_cell_length_a 10.868414
_cell_length_b 10.868414
_cell_length_c 13.972412
_cell_angle_alpha 90.000000
_cell_angle_beta 90.000000
_cell_angle_gamma 90.000000
_cell_volume 1650.455159
_symmetry_space_group_name_H-M "P -4 N 2"
_symmetry_group_IT_number 118
_symmetry_cell_setting 'tetragonal'
loop_
_space_group_symop_operation_xyz
x,y,z
y,-x,-z
-x,-y,z
-y,x,-z
1/2+y,1/2+x,1/2-z
1/2-y,1/2-x,1/2-z
1/2-x,1/2+y,1/2+z
1/2+x,1/2-y,1/2+z
loop_
_atom_site_type_symbol
_atom_site_label
_atom_site_fract_x
_atom_site_fract_y
_atom_site_fract_z
Si Si1 0.700675 0.218603 0.355338
Si Si2 0.387479 0.905189 0.541527
Si Si3 0.857959 0.984202 0.626123
Si Si4 0.984460 0.810731 0.156859
Si Si5 0.000000 0.000000 0.000000
O O1 0.667990 0.167990 0.250000
O O2 0.620284 0.167911 0.441818
O O3 0.840707 0.176028 0.370379
O O4 0.697055 0.367110 0.353617
O O5 0.423199 0.817014 0.629320
O O6 0.500000 0.000000 0.534883
O O7 0.251392 0.957822 0.562984
O O8 0.848762 0.038709 0.734264
O O9 0.000000 0.000000 0.598092
O O10 0.940079 0.904963 0.074712
#
# Coordination Sequence:
#
# PCOD9558721 Si02
#       5
#     8   8   8   8   2
#     4  10  24  43  65  94 135 177 219 283 349 400
#     4  12  25  41  71 101 134 182 233 279 343 423
#     4  11  25  41  66 100 137 177 224 286 344 408
#     4  11  22  43  67  96 131 176 228 283 342 409
#     4  12  20  40  72  88 126 176 228 276 336 404
#
# _framework density 20.600376000000001
#
# number of rings (size 3 to 8) (size 9 to 14) (size 15 to 20)
#    0.000    0.941    5.882    0.706    3.294    1.412 
#    0.000    0.000    5.176    0.000    0.000    0.000 
#    0.000    0.000    0.000    0.000    0.000    0.000 
#
# Total GULP energy -189891.814939 kJ/mol
# GULP energy per Si atom -5585.053381 kJ/mol
# Density = 2.055349 g / cm^3
# Si number density = 20.600376 Si / 1000 Ang^3
#
#
#
# Elastic Constant Matrix: (Units=GPa)
#
#
# Indices 1 2 3 4 5 6 
#
# 1 77.7937 33.6114 34.3027 0.0000 0.0000 0.0000
# 2 33.6114 77.7937 34.3027 0.0000 0.0000 0.0000
# 3 34.3027 34.3027 143.1611 0.0000 0.0000 0.0000
# 4 0.0000 0.0000 0.0000 18.7865 0.0000 0.0000
# 5 0.0000 0.0000 0.0000 0.0000 18.7865 0.0000
# 6 0.0000 0.0000 0.0000 0.0000 0.0000 14.8895
#
#
#
# Elastic Compliance Matrix: (Units=1/GPa)
#
#
# Indices 1 2 3 4 5 6 
#
# 1 0.016582 -0.006052 -0.002523 0.000000 0.000000 0.000000
# 2 -0.006052 0.016582 -0.002523 0.000000 0.000000 0.000000
# 3 -0.002523 -0.002523 0.008194 0.000000 0.000000 0.000000
# 4 0.000000 0.000000 0.000000 0.053230 0.000000 0.000000
# 5 0.000000 0.000000 0.000000 0.000000 0.053230 0.000000
# 6 0.000000 0.000000 0.000000 0.000000 0.000000 0.067161
#
#
# Mechanical properties :
#
#
# Convention : Reuss Voigt Hill
#
# Bulk Modulus (GPa) = 52.18679 55.90910 54.04795
# Shear Modulus (GPa) = 20.52866 23.59461 22.06164
#
# Velocity S-wave (km/s) = 3.16019 3.38797 3.27606
# Velocity P-wave (km/s) = 6.22123 6.51945 6.37208
#
# Compressibility (1/GPa) = 0.01916194
#
# Stress axis : x y z
#
# Youngs Moduli (GPa) = 60.30728 60.30728 122.03688
#
# Poissons Ratio (x) = 0.36496 0.30791
# Poissons Ratio (y) = 0.36496 0.30791
# Poissons Ratio (z) = 0.15216 0.15216
#
# Static dielectric constant tensor:
#      x y z
#    x 1.736520 0.000000 0.000000 
#    y 0.000000 1.736520 0.000000 
#    z 0.000000 0.000000 1.747760 
# 
# From -- ./inp_files/2917.got.cif
#   From: 2010.05.17/outbox.cif.g08.bks.cpg/sg118_2_cif.got.tgz:2917.got - 2010.05.20 11:17:24.
