data_PCOD9558702
_publ_section_title
;
Structure prediction by ZEFSAII (Michael W. Deem and Ramdas Pophale) SiO2 
 PCOD9558702
Probable space group: P -4 N 2
;
_chemical_formula_sum "Si O2"
_cell_formula_units_Z 28
_cell_length_a 9.269144
_cell_length_b 9.269144
_cell_length_c 16.246851
_cell_angle_alpha 90.000000
_cell_angle_beta 90.000000
_cell_angle_gamma 90.000000
_cell_volume 1395.881193
_symmetry_space_group_name_H-M "P -4 N 2"
_symmetry_group_IT_number 118
_symmetry_cell_setting 'tetragonal'
loop_
_space_group_symop_operation_xyz
x,y,z
y,-x,-z
-x,-y,z
-y,x,-z
1/2+y,1/2+x,1/2-z
1/2-y,1/2-x,1/2-z
1/2-x,1/2+y,1/2+z
1/2+x,1/2-y,1/2+z
loop_
_atom_site_type_symbol
_atom_site_label
_atom_site_fract_x
_atom_site_fract_y
_atom_site_fract_z
Si Si1 0.781523 0.161015 0.115714
Si Si2 0.500000 0.500000 0.267055
Si Si3 0.714791 0.957032 0.320285
Si Si4 0.584072 0.852696 0.486041
O O1 0.627058 0.184969 0.160568
O O2 0.907175 0.109492 0.176919
O O3 0.758281 0.035545 0.047839
O O4 0.830292 0.298809 0.064500
O O5 0.431622 0.376365 0.210632
O O6 0.611645 0.888356 0.250000
O O7 0.683819 0.880356 0.406696
O O8 0.500000 0.000000 0.503805
#
# Coordination Sequence:
#
# PCOD9558702 Si02
#       4
#     8   4   8   8
#     4  11  23  42  69 100 133 179 228 272 341 412
#     4  12  24  37  73  96 130 174 232 274 325 414
#     4  11  25  46  70  98 136 181 223 279 348 404
#     4  10  23  41  70  94 139 176 226 278 345 408
#
# _framework density 20.059014999999999
#
# number of rings (size 3 to 8) (size 9 to 14) (size 15 to 20)
#    0.000    1.143    2.857    2.571    8.000    4.571 
#    0.000    0.000    0.000    0.000    0.000    0.000 
#    0.000    0.000    0.000    0.000    0.000    0.000 
#
# Total GULP energy -156441.996289 kJ/mol
# GULP energy per Si atom -5587.214153 kJ/mol
# Density = 2.001336 g / cm^3
# Si number density = 20.059015 Si / 1000 Ang^3
#
#
#
# Elastic Constant Matrix: (Units=GPa)
#
#
# Indices 1 2 3 4 5 6 
#
# 1 107.0296 32.9822 41.2492 0.0000 0.0000 0.0000
# 2 32.9822 107.0287 41.2493 0.0000 0.0000 0.0000
# 3 41.2492 41.2493 82.9463 0.0000 0.0000 0.0000
# 4 0.0000 0.0000 0.0000 91.1998 0.0000 0.0000
# 5 0.0000 0.0000 0.0000 0.0000 90.9551 0.0000
# 6 0.0000 0.0000 0.0000 0.0000 0.0000 19.4908
#
#
#
# Elastic Compliance Matrix: (Units=1/GPa)
#
#
# Indices 1 2 3 4 5 6 
#
# 1 0.011804 -0.001701 -0.005024 0.000000 0.000000 0.000000
# 2 -0.001701 0.011804 -0.005024 0.000000 0.000000 0.000000
# 3 -0.005024 -0.005024 0.017053 0.000000 0.000000 0.000000
# 4 0.000000 0.000000 0.000000 0.010965 0.000000 0.000000
# 5 0.000000 0.000000 0.000000 0.000000 0.010994 0.000000
# 6 0.000000 0.000000 0.000000 0.000000 0.000000 0.051306
#
#
# Mechanical properties :
#
#
# Convention : Reuss Voigt Hill
#
# Bulk Modulus (GPa) = 58.26840 58.66289 58.46565
# Shear Modulus (GPa) = 34.92960 52.43075 43.68017
#
# Velocity S-wave (km/s) = 4.17747 5.11810 4.67152
# Velocity P-wave (km/s) = 7.23739 8.01469 7.63594
#
# Compressibility (1/GPa) = 0.01716196
#
# Stress axis : x y z
#
# Youngs Moduli (GPa) = 84.71936 84.71830 58.64119
#
# Poissons Ratio (x) = 0.14412 0.29461
# Poissons Ratio (y) = 0.14412 0.29462
# Poissons Ratio (z) = 0.42563 0.42563
#
# Static dielectric constant tensor:
#      x y z
#    x 1.487660 0.000000 0.000000 
#    y 0.000000 1.486820 0.000000 
#    z 0.000000 0.000000 1.709670 
# 
# From -- ./inp_files/4576.got.cif
#   From: 2010.05.17/outbox.cif.g08.bks.cpg/sg118_3_cif.got.tgz:4576.got - 2010.05.20 11:17:24.
