data_PCOD9558486
_publ_section_title
;
Structure prediction by ZEFSAII (Michael W. Deem and Ramdas Pophale) SiO2 
 PCOD9558486
Probable space group: P -4 N 2
;
_chemical_formula_sum "Si O2"
_cell_formula_units_Z 38
_cell_length_a 10.556620
_cell_length_b 10.556620
_cell_length_c 15.020905
_cell_angle_alpha 90.000000
_cell_angle_beta 90.000000
_cell_angle_gamma 90.000000
_cell_volume 1673.963087
_symmetry_space_group_name_H-M "P -4 N 2"
_symmetry_group_IT_number 118
_symmetry_cell_setting 'tetragonal'
loop_
_space_group_symop_operation_xyz
x,y,z
y,-x,-z
-x,-y,z
-y,x,-z
1/2+y,1/2+x,1/2-z
1/2-y,1/2-x,1/2-z
1/2-x,1/2+y,1/2+z
1/2+x,1/2-y,1/2+z
loop_
_atom_site_type_symbol
_atom_site_label
_atom_site_fract_x
_atom_site_fract_y
_atom_site_fract_z
Si Si1 0.481194 0.302822 0.470388
Si Si2 0.632095 0.867906 0.750000
Si Si3 0.422148 0.161447 0.940172
Si Si4 0.000000 0.000000 0.500000
Si Si5 0.277735 0.429757 0.909931
Si Si6 0.571732 0.363078 0.278635
O O1 0.367115 0.404724 0.475082
O O2 0.432964 0.175173 0.513407
O O3 0.527184 0.296957 0.369102
O O4 0.547067 0.876973 0.838831
O O5 0.613417 0.722650 0.716841
O O6 0.343346 0.293231 0.924081
O O7 0.535130 0.181061 0.011746
O O8 0.887616 0.968489 0.434211
O O9 0.266900 0.446018 0.804669
O O10 0.500000 0.500000 0.268908
#
# Coordination Sequence:
#
# PCOD9558486 Si02
#       6
#     8   4   8   2   8   8
#     4  11  20  36  58  84 114 157 201 240 291 365
#     4  10  20  34  60  87 119 156 202 254 306 366
#     4  10  20  36  56  87 117 150 199 245 299 361
#     4   8  12  28  48  76 106 128 176 220 276 328
#     4   9  19  31  54  83 113 144 185 246 297 347
#     4  11  19  34  60  88 118 155 199 255 307 367
#
# _framework density 22.700621999999999
#
# number of rings (size 3 to 8) (size 9 to 14) (size 15 to 20)
#    0.000    1.895    5.263    0.000    2.947    0.842 
#    0.000    1.053    0.000    1.263    0.000    1.474 
#    0.000    0.000    0.000    0.000    0.000    0.000 
#
# Total GULP energy -211739.422573 kJ/mol
# GULP energy per Si atom -5572.090068 kJ/mol
# Density = 2.264895 g / cm^3
# Si number density = 22.700622 Si / 1000 Ang^3
#
#
#
# Elastic Constant Matrix: (Units=GPa)
#
#
# Indices 1 2 3 4 5 6 
#
# 1 45.8045 9.4122 27.5545 0.0000 0.0000 0.0000
# 2 9.4122 45.8040 27.5545 0.0000 0.0000 0.0000
# 3 27.5545 27.5545 239.0847 0.0000 0.0000 0.0000
# 4 0.0000 0.0000 0.0000 18.6037 0.0000 0.0000
# 5 0.0000 0.0000 0.0000 0.0000 18.6038 0.0000
# 6 0.0000 0.0000 0.0000 0.0000 0.0000 41.3093
#
#
#
# Elastic Compliance Matrix: (Units=1/GPa)
#
#
# Indices 1 2 3 4 5 6 
#
# 1 0.023971 -0.003507 -0.002359 0.000000 0.000000 0.000000
# 2 -0.003507 0.023972 -0.002359 0.000000 0.000000 0.000000
# 3 -0.002359 -0.002359 0.004726 0.000000 0.000000 0.000000
# 4 0.000000 0.000000 0.000000 0.053753 0.000000 0.000000
# 5 0.000000 0.000000 0.000000 0.000000 0.053752 0.000000
# 6 0.000000 0.000000 0.000000 0.000000 0.000000 0.024208
#
#
# Mechanical properties :
#
#
# Convention : Reuss Voigt Hill
#
# Bulk Modulus (GPa) = 27.60822 51.08174 39.34498
# Shear Modulus (GPa) = 23.48477 33.44815 28.46646
#
# Velocity S-wave (km/s) = 3.21992 3.84271 3.54502
# Velocity P-wave (km/s) = 5.10021 6.49922 5.84174
#
# Compressibility (1/GPa) = 0.03622109
#
# Stress axis : x y z
#
# Youngs Moduli (GPa) = 41.71641 41.71597 211.58381
#
# Poissons Ratio (x) = 0.14630 0.49902
# Poissons Ratio (y) = 0.14630 0.49903
# Poissons Ratio (z) = 0.09839 0.09839
#
# Static dielectric constant tensor:
#      x y z
#    x 1.948980 0.000000 0.000000 
#    y 0.000000 1.948980 0.000000 
#    z 0.000000 0.000000 1.918100 
# 
# From -- ./inp_files/4102.got.cif
#   From: 2010.05.17/outbox.cif.g08.bks.cpg/sg118_3_cif.got.tgz:4102.got - 2010.05.20 11:17:24.
