data_PCOD9558508
_publ_section_title
;
Structure prediction by ZEFSAII (Michael W. Deem and Ramdas Pophale) SiO2 
 PCOD9558508
Probable space group: P -4 N 2
;
_chemical_formula_sum "Si O2"
_cell_formula_units_Z 40
_cell_length_a 11.566992
_cell_length_b 11.566992
_cell_length_c 11.278888
_cell_angle_alpha 90.000000
_cell_angle_beta 90.000000
_cell_angle_gamma 90.000000
_cell_volume 1509.062248
_symmetry_space_group_name_H-M "P -4 N 2"
_symmetry_group_IT_number 118
_symmetry_cell_setting 'tetragonal'
loop_
_space_group_symop_operation_xyz
x,y,z
y,-x,-z
-x,-y,z
-y,x,-z
1/2+y,1/2+x,1/2-z
1/2-y,1/2-x,1/2-z
1/2-x,1/2+y,1/2+z
1/2+x,1/2-y,1/2+z
loop_
_atom_site_type_symbol
_atom_site_label
_atom_site_fract_x
_atom_site_fract_y
_atom_site_fract_z
Si Si1 0.329047 0.662682 0.438617
Si Si2 0.278885 0.438578 0.129562
Si Si3 0.000000 0.000000 0.211620
Si Si4 0.790135 0.480672 0.623094
Si Si5 0.370137 0.129864 0.750000
Si Si6 0.930851 0.269145 0.609900
O O1 0.214528 0.661904 0.359210
O O2 0.422172 0.582476 0.371470
O O3 0.304026 0.602533 0.561510
O O4 0.396172 0.783969 0.440347
O O5 0.173619 0.502639 0.202740
O O6 0.308013 0.301517 0.116486
O O7 0.276121 0.495919 0.999675
O O8 0.966636 0.897300 0.301780
O O9 0.902745 0.405069 0.599359
O O10 0.765490 0.491844 0.762138
#
# Coordination Sequence:
#
# PCOD9558508 Si02
#       6
#     8   8   4   8   4   8
#     4  11  21  41  62  99 127 165 221 277 333 387
#     4  11  21  41  62  99 127 165 221 277 333 387
#     4  10  20  36  64  98 116 156 216 294 324 362
#     4  11  24  39  62  95 133 173 212 273 330 399
#     4  10  24  38  66  96 128 170 208 286 328 398
#     4  11  24  39  62  95 133 173 212 273 330 399
#
# _framework density 26.506525
#
# number of rings (size 3 to 8) (size 9 to 14) (size 15 to 20)
#    0.000    1.200    4.000    2.400    5.600    0.000 
#    0.000    0.000    0.000   15.600    0.000    0.000 
#    0.000    0.000    0.000    0.000    0.000    0.000 
#
# Total GULP energy -223305.791292 kJ/mol
# GULP energy per Si atom -5582.644782 kJ/mol
# Density = 2.644619 g / cm^3
# Si number density = 26.506525 Si / 1000 Ang^3
#
#
#
# Elastic Constant Matrix: (Units=GPa)
#
#
# Indices 1 2 3 4 5 6 
#
# 1 89.6633 48.6642 19.0826 0.0000 0.0000 0.0000
# 2 48.6642 89.6630 19.0825 0.0000 0.0000 0.0000
# 3 19.0826 19.0825 96.2940 0.0000 0.0000 0.0000
# 4 0.0000 0.0000 0.0000 24.2985 0.0000 0.0000
# 5 0.0000 0.0000 0.0000 0.0000 24.2986 0.0000
# 6 0.0000 0.0000 0.0000 0.0000 0.0000 37.5592
#
#
#
# Elastic Compliance Matrix: (Units=1/GPa)
#
#
# Indices 1 2 3 4 5 6 
#
# 1 0.016019 -0.008372 -0.001515 0.000000 0.000000 0.000000
# 2 -0.008372 0.016019 -0.001515 0.000000 0.000000 0.000000
# 3 -0.001515 -0.001515 0.010986 0.000000 0.000000 0.000000
# 4 0.000000 0.000000 0.000000 0.041155 0.000000 0.000000
# 5 0.000000 0.000000 0.000000 0.000000 0.041155 0.000000
# 6 0.000000 0.000000 0.000000 0.000000 0.000000 0.026625
#
#
# Mechanical properties :
#
#
# Convention : Reuss Voigt Hill
#
# Bulk Modulus (GPa) = 49.46012 49.91990 49.69001
# Shear Modulus (GPa) = 27.54779 29.81731 28.68255
#
# Velocity S-wave (km/s) = 3.22729 3.35760 3.29309
# Velocity P-wave (km/s) = 5.70853 5.82282 5.76596
#
# Compressibility (1/GPa) = 0.02021831
#
# Stress axis : x y z
#
# Youngs Moduli (GPa) = 62.42550 62.42530 91.02905
#
# Poissons Ratio (x) = 0.52261 0.13795
# Poissons Ratio (y) = 0.52261 0.13795
# Poissons Ratio (z) = 0.09460 0.09460
#
# Static dielectric constant tensor:
#      x y z
#    x 2.325140 0.000000 0.000000 
#    y 0.000000 2.325140 0.000000 
#    z 0.000000 0.000000 2.045970 
# 
# From -- ./inp_files/2045.got.cif
#   From: 2010.05.17/outbox.cif.g08.bks.cpg/sg118_2_cif.got.tgz:2045.got - 2010.05.20 11:17:24.
