data_PCOD9558328
_publ_section_title
;
Structure prediction by ZEFSAII (Michael W. Deem and Ramdas Pophale) SiO2 
 PCOD9558328
Probable space group: P -4 B 2
;
_chemical_formula_sum "Si O2"
_cell_formula_units_Z 56
_cell_length_a 11.939819
_cell_length_b 11.939819
_cell_length_c 20.707935
_cell_angle_alpha 90.000000
_cell_angle_beta 90.000000
_cell_angle_gamma 90.000000
_cell_volume 2952.108257
_symmetry_space_group_name_H-M "P -4 B 2"
_symmetry_group_IT_number 117
_symmetry_cell_setting 'tetragonal'
loop_
_space_group_symop_operation_xyz
x,y,z
y,-x,-z
-x,-y,z
-y,x,-z
1/2+y,1/2+x,-z
1/2-y,1/2-x,-z
1/2-x,1/2+y,z
1/2+x,1/2-y,z
loop_
_atom_site_type_symbol
_atom_site_label
_atom_site_fract_x
_atom_site_fract_y
_atom_site_fract_z
Si Si1 0.683153 0.518686 0.300660
Si Si2 0.499611 0.813189 0.569282
Si Si3 0.094530 0.406491 0.076993
Si Si4 0.467170 0.687445 0.843215
Si Si5 0.316724 0.008852 0.570741
Si Si6 0.029755 0.182742 0.299622
Si Si7 0.187827 0.969323 0.844093
O O1 0.746510 0.535251 0.367388
O O2 0.736070 0.538819 0.230233
O O3 0.574626 0.597591 0.298894
O O4 0.641273 0.391090 0.303052
O O5 0.620910 0.871765 0.576332
O O6 0.501465 0.754647 0.498745
O O7 0.412096 0.914718 0.566314
O O8 0.211861 0.446585 0.107834
O O9 0.057744 0.287656 0.107421
O O10 0.000000 0.500000 0.090742
O O11 0.104912 0.395089 0.000000
O O12 0.373827 0.589602 0.852558
O O13 0.586975 0.622663 0.848453
O O14 0.252238 0.984333 0.635955
O O15 0.031242 0.237477 0.228951
#
# Coordination Sequence:
#
# PCOD9558328 Si02
#       7
#     8   8   8   8   8   8   8
#     4   9  19  36  56  80 109 141 186 236 282 340
#     4   9  19  34  49  72 109 148 188 232 281 337
#     4  11  26  42  62  97 130 156 200 250 298 364
#     4   9  21  43  66  89 123 165 204 247 305 366
#     4   9  19  34  49  72 109 148 188 232 281 337
#     4   9  19  36  56  80 109 141 186 236 282 340
#     4   9  21  43  66  89 123 165 204 247 305 366
#
# _framework density 18.969491999999999
#
# number of rings (size 3 to 8) (size 9 to 14) (size 15 to 20)
#    0.000    2.714    0.000    2.571    4.000    4.571 
#    5.143    5.714    0.000    0.000    0.000    0.000 
#    0.000    0.000    0.000    0.000    0.000    0.000 
#
# Total GULP energy -311916.766401 kJ/mol
# GULP energy per Si atom -5569.942257 kJ/mol
# Density = 1.892632 g / cm^3
# Si number density = 18.969492 Si / 1000 Ang^3
#
#
#
# Elastic Constant Matrix: (Units=GPa)
#
#
# Indices 1 2 3 4 5 6 
#
# 1 71.2385 18.4508 66.6001 0.0000 0.0000 0.0000
# 2 18.4508 71.2384 66.5999 0.0000 0.0000 0.0000
# 3 66.6001 66.5999 165.7801 0.0000 0.0000 0.0000
# 4 0.0000 0.0000 0.0000 38.1066 0.0000 0.0000
# 5 0.0000 0.0000 0.0000 0.0000 38.1067 0.0000
# 6 0.0000 0.0000 0.0000 0.0000 0.0000 9.0023
#
#
#
# Elastic Compliance Matrix: (Units=1/GPa)
#
#
# Indices 1 2 3 4 5 6 
#
# 1 0.023293 0.004349 -0.011105 0.000000 0.000000 0.000000
# 2 0.004349 0.023293 -0.011105 0.000000 0.000000 0.000000
# 3 -0.011105 -0.011105 0.014954 0.000000 0.000000 0.000000
# 4 0.000000 0.000000 0.000000 0.026242 0.000000 0.000000
# 5 0.000000 0.000000 0.000000 0.000000 0.026242 0.000000
# 6 0.000000 0.000000 0.000000 0.000000 0.000000 0.111083
#
#
# Mechanical properties :
#
#
# Convention : Reuss Voigt Hill
#
# Bulk Modulus (GPa) = 38.73159 67.95095 53.34127
# Shear Modulus (GPa) = 18.55748 27.48354 23.02051
#
# Velocity S-wave (km/s) = 3.13114 3.81048 3.48739
# Velocity P-wave (km/s) = 5.79087 7.43361 6.66306
#
# Compressibility (1/GPa) = 0.02581872
#
# Stress axis : x y z
#
# Youngs Moduli (GPa) = 42.93222 42.93222 66.87050
#
# Poissons Ratio (x) = -0.18670 0.74257
# Poissons Ratio (y) = -0.18670 0.74256
# Poissons Ratio (z) = 0.47674 0.47674
#
# Static dielectric constant tensor:
#      x y z
#    x 1.664690 0.000000 0.000000 
#    y 0.000000 1.664690 0.000000 
#    z 0.000000 0.000000 1.696580 
# 
# From -- ./inp_files/3475.got.cif
#   From: 2010.05.17/outbox.cif.g08.bks.cpg/sg117_2_cif.got.tgz:3475.got - 2010.05.20 11:15:09.
