data_PCOD9558500
_publ_section_title
;
Structure prediction by ZEFSAII (Michael W. Deem and Ramdas Pophale) SiO2 
 PCOD9558500
Probable space group: P -4 N 2
;
_chemical_formula_sum "Si O2"
_cell_formula_units_Z 58
_cell_length_a 17.696746
_cell_length_b 17.696746
_cell_length_c 8.361944
_cell_angle_alpha 90.000000
_cell_angle_beta 90.000000
_cell_angle_gamma 90.000000
_cell_volume 2618.750299
_symmetry_space_group_name_H-M "P -4 N 2"
_symmetry_group_IT_number 118
_symmetry_cell_setting 'tetragonal'
loop_
_space_group_symop_operation_xyz
x,y,z
y,-x,-z
-x,-y,z
-y,x,-z
1/2+y,1/2+x,1/2-z
1/2-y,1/2-x,1/2-z
1/2-x,1/2+y,1/2+z
1/2+x,1/2-y,1/2+z
loop_
_atom_site_type_symbol
_atom_site_label
_atom_site_fract_x
_atom_site_fract_y
_atom_site_fract_z
Si Si1 0.688368 0.759543 0.079472
Si Si2 0.662601 0.967902 0.401100
Si Si3 0.878574 0.877617 0.263276
Si Si4 0.125514 0.500757 0.241204
Si Si5 0.831463 0.184749 0.097187
Si Si6 0.506288 0.720525 0.652544
Si Si7 0.500000 0.000000 0.250000
Si Si8 0.807209 0.023761 0.209149
O O1 0.728877 0.771124 0.250000
O O2 0.621966 0.822900 0.077536
O O3 0.652285 0.677498 0.099341
O O4 0.749212 0.772433 0.941715
O O5 0.671309 0.002066 0.576289
O O6 0.578135 0.993019 0.349442
O O7 0.727938 0.995375 0.282294
O O8 0.957030 0.832532 0.267504
O O9 0.872754 0.968679 0.277912
O O10 0.844798 0.854700 0.084691
O O11 0.063095 0.436906 0.250000
O O12 0.191479 0.485045 0.365691
O O13 0.079586 0.579586 0.250000
O O14 0.809444 0.113885 0.205946
O O15 0.904790 0.219663 0.182097
O O16 0.494431 0.687258 0.477904
#
# Coordination Sequence:
#
# PCOD9558500 Si02
#       8
#     8   8   8   8   8   8   2   8
#     4   9  16  33  57  84 119 166 201 243 305 382
#     4  11  23  38  61  87 119 157 206 256 312 381
#     4   8  17  32  54  86 118 161 202 246 308 369
#     4  11  25  40  57  85 122 157 196 249 318 385
#     4   9  17  31  59  88 119 153 205 254 309 357
#     4  10  20  36  59  85 121 160 203 252 308 381
#     4  12  24  36  66  88 112 160 202 256 316 364
#     4   9  20  37  60  88 121 155 206 262 304 377
#
# _framework density 22.147970000000001
#
# number of rings (size 3 to 8) (size 9 to 14) (size 15 to 20)
#    0.000    2.345    0.690    2.483    3.862    3.310 
#    0.000    5.517    1.517    0.000    0.000    3.862 
#    0.000    0.000    0.000    0.000    0.000    0.000 
#
# Total GULP energy -323168.978840 kJ/mol
# GULP energy per Si atom -5571.878946 kJ/mol
# Density = 2.209756 g / cm^3
# Si number density = 22.147970 Si / 1000 Ang^3
#
#
#
# Elastic Constant Matrix: (Units=GPa)
#
#
# Indices 1 2 3 4 5 6 
#
# 1 99.1713 63.2409 16.2814 0.0000 0.0000 0.0000
# 2 63.2409 99.1726 16.2825 0.0000 0.0000 0.0000
# 3 16.2814 16.2825 25.0641 0.0000 0.0000 0.0000
# 4 0.0000 0.0000 0.0000 8.5785 0.0000 0.0000
# 5 0.0000 0.0000 0.0000 0.0000 8.5784 0.0000
# 6 0.0000 0.0000 0.0000 0.0000 0.0000 24.8161
#
#
#
# Elastic Compliance Matrix: (Units=1/GPa)
#
#
# Indices 1 2 3 4 5 6 
#
# 1 0.017455 -0.010376 -0.004598 0.000000 0.000000 0.000000
# 2 -0.010376 0.017455 -0.004599 0.000000 0.000000 0.000000
# 3 -0.004598 -0.004599 0.045873 0.000000 0.000000 0.000000
# 4 0.000000 0.000000 0.000000 0.116570 0.000000 0.000000
# 5 0.000000 0.000000 0.000000 0.000000 0.116572 0.000000
# 6 0.000000 0.000000 0.000000 0.000000 0.000000 0.040296
#
#
# Mechanical properties :
#
#
# Convention : Reuss Voigt Hill
#
# Bulk Modulus (GPa) = 24.01768 46.11306 35.06537
# Shear Modulus (GPa) = 12.27755 16.90146 14.58950
#
# Velocity S-wave (km/s) = 2.35700 2.76545 2.56936
# Velocity P-wave (km/s) = 4.27493 5.57338 4.96677
#
# Compressibility (1/GPa) = 0.04163599
#
# Stress axis : x y z
#
# Youngs Moduli (GPa) = 57.28977 57.28973 21.79952
#
# Poissons Ratio (x) = 0.59443 0.10024
# Poissons Ratio (y) = 0.59443 0.10026
# Poissons Ratio (z) = 0.26343 0.26350
#
# Static dielectric constant tensor:
#      x y z
#    x 1.846450 0.000000 0.000000 
#    y 0.000000 1.846460 0.000000 
#    z 0.000000 0.000000 1.910410 
# 
# From -- ./inp_files/2232.got.cif
#   From: 2010.05.17/outbox.cif.g08.bks.cpg/sg118_2_cif.got.tgz:2232.got - 2010.05.20 11:17:24.
