data_PCOD9558347
_publ_section_title
;
Structure prediction by ZEFSAII (Michael W. Deem and Ramdas Pophale) SiO2 
 PCOD9558347
Probable space group: P -4 B 2
;
_chemical_formula_sum "Si O2"
_cell_formula_units_Z 18
_cell_length_a 9.744189
_cell_length_b 9.744189
_cell_length_c 7.534456
_cell_angle_alpha 90.000000
_cell_angle_beta 90.000000
_cell_angle_gamma 90.000000
_cell_volume 715.390715
_symmetry_space_group_name_H-M "P -4 B 2"
_symmetry_group_IT_number 117
_symmetry_cell_setting 'tetragonal'
loop_
_space_group_symop_operation_xyz
x,y,z
y,-x,-z
-x,-y,z
-y,x,-z
1/2+y,1/2+x,-z
1/2-y,1/2-x,-z
1/2-x,1/2+y,z
1/2+x,1/2-y,z
loop_
_atom_site_type_symbol
_atom_site_label
_atom_site_fract_x
_atom_site_fract_y
_atom_site_fract_z
Si Si1 0.927104 0.794641 0.438897
Si Si2 0.500000 0.500000 0.000000
Si Si3 0.005983 0.719188 0.037922
O O1 0.837580 0.662420 0.500000
O O2 0.069851 0.831665 0.539194
O O3 0.977145 0.767123 0.237945
O O4 0.351189 0.478026 0.084367
O O5 0.153812 0.653812 0.000000
O O6 0.897132 0.602869 0.000000
#
# Coordination Sequence:
#
# PCOD9558347 Si02
#       3
#     8   2   8
#     4  11  28  52  81 118 166 218 274 339 420 491
#     4  12  24  44  82 108 164 200 278 332 400 480
#     4  11  28  49  81 119 158 216 277 336 410 493
#
# _framework density 25.161075
#
# number of rings (size 3 to 8) (size 9 to 14) (size 15 to 20)
#    0.000    0.889    0.000    4.000   18.667    4.444 
#    0.000    0.000    0.000    0.000    0.000    0.000 
#    0.000    0.000    0.000    0.000    0.000    0.000 
#
# Total GULP energy -100609.208314 kJ/mol
# GULP energy per Si atom -5589.400462 kJ/mol
# Density = 2.510381 g / cm^3
# Si number density = 25.161075 Si / 1000 Ang^3
#
#
#
# Elastic Constant Matrix: (Units=GPa)
#
#
# Indices 1 2 3 4 5 6 
#
# 1 176.5858 89.3593 56.1468 0.0000 0.0000 0.0000
# 2 89.3593 176.5943 56.1473 0.0000 0.0000 0.0000
# 3 56.1468 56.1473 198.8047 0.0000 0.0000 0.0000
# 4 0.0000 0.0000 0.0000 34.6839 0.0000 0.0000
# 5 0.0000 0.0000 0.0000 0.0000 34.6834 0.0000
# 6 0.0000 0.0000 0.0000 0.0000 0.0000 75.4450
#
#
#
# Elastic Compliance Matrix: (Units=1/GPa)
#
#
# Indices 1 2 3 4 5 6 
#
# 1 0.007867 -0.003597 -0.001206 0.000000 0.000000 0.000000
# 2 -0.003597 0.007866 -0.001206 0.000000 0.000000 0.000000
# 3 -0.001206 -0.001206 0.005711 0.000000 0.000000 0.000000
# 4 0.000000 0.000000 0.000000 0.028832 0.000000 0.000000
# 5 0.000000 0.000000 0.000000 0.000000 0.028832 0.000000
# 6 0.000000 0.000000 0.000000 0.000000 0.000000 0.013255
#
#
# Mechanical properties :
#
#
# Convention : Reuss Voigt Hill
#
# Bulk Modulus (GPa) = 106.08227 106.14349 106.11288
# Shear Modulus (GPa) = 46.50180 52.31788 49.40984
#
# Velocity S-wave (km/s) = 4.30369 4.56490 4.43622
# Velocity P-wave (km/s) = 8.18220 8.37028 8.27678
#
# Compressibility (1/GPa) = 0.00942665
#
# Stress axis : x y z
#
# Youngs Moduli (GPa) = 127.11751 127.12403 175.09729
#
# Poissons Ratio (x) = 0.45731 0.21113
# Poissons Ratio (y) = 0.45728 0.21111
# Poissons Ratio (z) = 0.15327 0.15327
#
# Static dielectric constant tensor:
#      x y z
#    x 2.037680 0.000000 0.000000 
#    y 0.000000 2.037680 0.000000 
#    z 0.000000 0.000000 2.102130 
# 
# From -- ./inp_files/1073.got.cif
#   From: 2010.05.17/outbox.cif.g08.bks.cpg/sg117_1_cif.got.tgz:1073.got - 2010.05.20 11:15:09.
