data_PCOD9558873
_publ_section_title
;
Structure prediction by ZEFSAII (Michael W. Deem and Ramdas Pophale) SiO2 
 PCOD9558873
Probable space group: P -4 N 2
;
_chemical_formula_sum "Si O2"
_cell_formula_units_Z 20
_cell_length_a 8.062973
_cell_length_b 8.062973
_cell_length_c 12.027924
_cell_angle_alpha 90.000000
_cell_angle_beta 90.000000
_cell_angle_gamma 90.000000
_cell_volume 781.953785
_symmetry_space_group_name_H-M "P -4 N 2"
_symmetry_group_IT_number 118
_symmetry_cell_setting 'tetragonal'
loop_
_space_group_symop_operation_xyz
x,y,z
y,-x,-z
-x,-y,z
-y,x,-z
1/2+y,1/2+x,1/2-z
1/2-y,1/2-x,1/2-z
1/2-x,1/2+y,1/2+z
1/2+x,1/2-y,1/2+z
loop_
_atom_site_type_symbol
_atom_site_label
_atom_site_fract_x
_atom_site_fract_y
_atom_site_fract_z
Si Si1 0.000000 0.000000 0.000000
Si Si2 0.217965 0.299324 0.094109
Si Si3 0.000000 0.500000 0.250000
Si Si4 0.186940 0.435915 0.859734
O O1 0.862460 0.097185 0.923656
O O2 0.390864 0.275654 0.156279
O O3 0.139210 0.452383 0.159704
O O4 0.253955 0.344000 0.966473
O O5 0.174584 0.325417 0.750000
O O6 0.000000 0.500000 0.886018
#
# Coordination Sequence:
#
# PCOD9558873 Si02
#       4
#     2   8   2   8
#     4  12  24  48  72 108 154 200 268 336 392 478
#     4  12  25  49  76 114 156 207 269 331 408 492
#     4  12  24  48  72 112 156 206 268 340 396 492
#     4  11  24  50  77 107 158 209 260 330 409 482
#
# _framework density 25.576962000000002
#
# number of rings (size 3 to 8) (size 9 to 14) (size 15 to 20)
#    0.000    0.400    6.000    2.400    0.000    0.800 
#   18.000    0.000    0.000    0.000    0.000    0.000 
#    0.000    0.000    0.000    0.000    0.000    0.000 
#
# Total GULP energy -111766.969433 kJ/mol
# GULP energy per Si atom -5588.348472 kJ/mol
# Density = 2.551875 g / cm^3
# Si number density = 25.576962 Si / 1000 Ang^3
#
#
#
# Elastic Constant Matrix: (Units=GPa)
#
#
# Indices 1 2 3 4 5 6 
#
# 1 93.4562 72.9918 47.5390 0.0000 0.0000 0.0000
# 2 72.9918 93.4565 47.5390 0.0000 0.0000 0.0000
# 3 47.5390 47.5390 210.6319 0.0000 0.0000 0.0000
# 4 0.0000 0.0000 0.0000 32.7008 0.0000 0.0000
# 5 0.0000 0.0000 0.0000 0.0000 32.7020 0.0000
# 6 0.0000 0.0000 0.0000 0.0000 0.0000 68.3531
#
#
#
# Elastic Compliance Matrix: (Units=1/GPa)
#
#
# Indices 1 2 3 4 5 6 
#
# 1 0.027881 -0.020984 -0.001557 0.000000 0.000000 0.000000
# 2 -0.020984 0.027881 -0.001557 0.000000 0.000000 0.000000
# 3 -0.001557 -0.001557 0.005450 0.000000 0.000000 0.000000
# 4 0.000000 0.000000 0.000000 0.030580 0.000000 0.000000
# 5 0.000000 0.000000 0.000000 0.000000 0.030579 0.000000
# 6 0.000000 0.000000 0.000000 0.000000 0.000000 0.014630
#
#
# Mechanical properties :
#
#
# Convention : Reuss Voigt Hill
#
# Bulk Modulus (GPa) = 76.81778 81.52045 79.16911
# Shear Modulus (GPa) = 26.38030 42.04949 34.21489
#
# Velocity S-wave (km/s) = 3.21504 4.05907 3.66146
# Velocity P-wave (km/s) = 6.62428 7.34234 6.99253
#
# Compressibility (1/GPa) = 0.01301782
#
# Stress axis : x y z
#
# Youngs Moduli (GPa) = 35.86667 35.86680 183.47679
#
# Poissons Ratio (x) = 0.75263 0.28561
# Poissons Ratio (y) = 0.75262 0.28561
# Poissons Ratio (z) = 0.05583 0.05583
#
# Static dielectric constant tensor:
#      x y z
#    x 2.137770 0.000000 0.000000 
#    y 0.000000 2.137770 0.000000 
#    z 0.000000 0.000000 2.000970 
# 
# From -- ./inp_files/2504.got.cif
#   From: 2010.05.17/outbox.cif.g08.bks.cpg/sg118_2_cif.got.tgz:2504.got - 2010.05.20 11:17:24.
