data_PCOD9558278
_publ_section_title
;
Structure prediction by ZEFSAII (Michael W. Deem and Ramdas Pophale) SiO2 
 PCOD9558278
Probable space group: P -4 B 2
;
_chemical_formula_sum "Si O2"
_cell_formula_units_Z 40
_cell_length_a 19.910808
_cell_length_b 19.910808
_cell_length_c 4.942742
_cell_angle_alpha 90.000000
_cell_angle_beta 90.000000
_cell_angle_gamma 90.000000
_cell_volume 1959.501999
_symmetry_space_group_name_H-M "P -4 B 2"
_symmetry_group_IT_number 117
_symmetry_cell_setting 'tetragonal'
loop_
_space_group_symop_operation_xyz
x,y,z
y,-x,-z
-x,-y,z
-y,x,-z
1/2+y,1/2+x,-z
1/2-y,1/2-x,-z
1/2-x,1/2+y,z
1/2+x,1/2-y,z
loop_
_atom_site_type_symbol
_atom_site_label
_atom_site_fract_x
_atom_site_fract_y
_atom_site_fract_z
Si Si1 0.487650 0.659644 0.145285
Si Si2 0.901072 0.874504 0.654756
Si Si3 0.193135 0.472025 0.072693
Si Si4 0.825237 0.738390 0.768063
Si Si5 0.500451 0.889716 0.436145
O O1 0.554771 0.632970 0.284312
O O2 0.428386 0.642105 0.356586
O O3 0.464474 0.628063 0.860459
O O4 0.494181 0.737861 0.068450
O O5 0.849571 0.814211 0.721442
O O6 0.202185 0.392661 0.122563
O O7 0.174504 0.500791 0.365829
O O8 0.133994 0.492496 0.870477
O O9 0.797643 0.702358 0.500000
O O10 0.769920 0.730081 0.000000
O O11 0.564501 0.935500 0.500000
O O12 0.435571 0.935571 0.500000
#
# Coordination Sequence:
#
# PCOD9558278 Si02
#       5
#     8   8   8   8   8
#     4  11  24  41  63  88 120 154 195 248 298 358
#     4  11  24  41  62  91 120 154 196 242 297 352
#     4  11  21  37  58  83 117 155 194 242 295 341
#     4  11  21  37  62  89 116 151 198 243 285 340
#     4  11  22  35  55  85 119 156 200 242 285 347
#
# _framework density 20.413350000000001
#
# number of rings (size 3 to 8) (size 9 to 14) (size 15 to 20)
#    0.000    1.000    0.000   10.200    0.000    4.000 
#    0.000    3.000    0.000    0.000    0.000    0.000 
#    0.000    0.000    0.000    0.000    0.000    0.000 
#
# Total GULP energy -223519.585086 kJ/mol
# GULP energy per Si atom -5587.989627 kJ/mol
# Density = 2.036689 g / cm^3
# Si number density = 20.413350 Si / 1000 Ang^3
#
#
#
# Elastic Constant Matrix: (Units=GPa)
#
#
# Indices 1 2 3 4 5 6 
#
# 1 58.4014 60.1441 12.7108 0.0000 0.0000 0.0000
# 2 60.1441 58.4025 12.7122 0.0000 0.0000 0.0000
# 3 12.7108 12.7122 103.3033 0.0000 0.0000 0.0000
# 4 0.0000 0.0000 0.0000 2.5108 0.0000 0.0000
# 5 0.0000 0.0000 0.0000 0.0000 2.5093 0.0000
# 6 0.0000 0.0000 0.0000 0.0000 0.0000 22.0515
#
#
#
# Elastic Compliance Matrix: (Units=1/GPa)
#
#
# Indices 1 2 3 4 5 6 
#
# 1 -0.282671 0.291333 -0.001070 0.000000 0.000000 0.000000
# 2 0.291333 -0.282667 -0.001063 0.000000 0.000000 0.000000
# 3 -0.001070 -0.001063 0.009943 0.000000 0.000000 0.000000
# 4 0.000000 0.000000 0.000000 0.398280 0.000000 0.000000
# 5 0.000000 0.000000 0.000000 0.000000 0.398520 0.000000
# 6 0.000000 0.000000 0.000000 0.000000 0.000000 0.045348
#
#
# Mechanical properties :
#
#
# Convention : Reuss Voigt Hill
#
# Bulk Modulus (GPa) = 43.46607 43.47126 43.46866
# Shear Modulus (GPa) = -17.60693 14.38366 -1.61164
#
# Velocity S-wave (km/s) = -2.94006 2.65735 -0.88950
# Velocity P-wave (km/s) = 3.13272 5.54591 4.50394
#
# Compressibility (1/GPa) = 0.02300645
#
# Stress axis : x y z
#
# Youngs Moduli (GPa) = -3.53769 -3.53774 100.57725
#
# Poissons Ratio (x) = 1.03066 0.10758
# Poissons Ratio (y) = 1.03064 0.10688
# Poissons Ratio (z) = -0.00378 -0.00376
#
# Static dielectric constant tensor:
#      x y z
#    x 1.733010 0.000000 0.000000 
#    y 0.000000 1.733000 0.000000 
#    z 0.000000 0.000000 1.723170 
# 
# From -- ./inp_files/573.got.cif
#   From: 2010.05.17/outbox.cif.g08.bks.cpg/sg117_1_cif.got.tgz:573.got - 2010.05.20 11:15:09.
