data_PCOD9558153
_publ_section_title
;
Structure prediction by ZEFSAII (Michael W. Deem and Ramdas Pophale) SiO2 
 PCOD9558153
Probable space group: P -4 B 2
;
_chemical_formula_sum "Si O2"
_cell_formula_units_Z 24
_cell_length_a 12.063926
_cell_length_b 12.063926
_cell_length_c 7.503426
_cell_angle_alpha 90.000000
_cell_angle_beta 90.000000
_cell_angle_gamma 90.000000
_cell_volume 1092.035943
_symmetry_space_group_name_H-M "P -4 B 2"
_symmetry_group_IT_number 117
_symmetry_cell_setting 'tetragonal'
loop_
_space_group_symop_operation_xyz
x,y,z
y,-x,-z
-x,-y,z
-y,x,-z
1/2+y,1/2+x,-z
1/2-y,1/2-x,-z
1/2-x,1/2+y,z
1/2+x,1/2-y,z
loop_
_atom_site_type_symbol
_atom_site_label
_atom_site_fract_x
_atom_site_fract_y
_atom_site_fract_z
Si Si1 0.500000 0.500000 0.500000
Si Si2 0.169337 0.909853 0.747305
Si Si3 0.804498 0.304498 0.500000
Si Si4 0.500000 0.500000 0.000000
Si Si5 0.041775 0.625820 0.176922
O O1 0.501159 0.609819 0.380470
O O2 0.189523 0.807488 0.616417
O O3 0.070957 0.907133 0.893542
O O4 0.283722 0.944521 0.839777
O O5 0.894538 0.330207 0.348470
O O6 0.000000 0.500000 0.205265
O O7 0.117166 0.617166 0.000000
#
# Coordination Sequence:
#
# PCOD9558153 Si02
#       5
#     2   8   4   2   8
#     4  10  20  42  68 102 136 174 252 294 364 418
#     4  11  23  44  72 105 143 191 240 314 365 443
#     4  12  25  42  75 106 144 194 250 298 381 442
#     4  10  24  46  76 110 152 182 256 314 382 436
#     4  11  26  48  69 106 153 196 246 306 375 453
#
# _framework density 21.977295000000002
#
# number of rings (size 3 to 8) (size 9 to 14) (size 15 to 20)
#    0.000    1.000    3.333    2.500    4.667    0.000 
#   18.000    0.000    0.000    0.000    0.000    0.000 
#    0.000    0.000    0.000    0.000    0.000    0.000 
#
# Total GULP energy -133684.531204 kJ/mol
# GULP energy per Si atom -5570.188800 kJ/mol
# Density = 2.192727 g / cm^3
# Si number density = 21.977295 Si / 1000 Ang^3
#
#
#
# Elastic Constant Matrix: (Units=GPa)
#
#
# Indices 1 2 3 4 5 6 
#
# 1 101.9833 46.4349 44.3491 0.0000 0.0000 0.0000
# 2 46.4349 101.9833 44.3491 0.0000 0.0000 0.0000
# 3 44.3491 44.3491 121.7331 0.0000 0.0000 0.0000
# 4 0.0000 0.0000 0.0000 144.0283 0.0000 0.0000
# 5 0.0000 0.0000 0.0000 0.0000 144.0283 0.0000
# 6 0.0000 0.0000 0.0000 0.0000 0.0000 25.5733
#
#
#
# Elastic Compliance Matrix: (Units=1/GPa)
#
#
# Indices 1 2 3 4 5 6 
#
# 1 0.013308 -0.004695 -0.003138 0.000000 0.000000 0.000000
# 2 -0.004695 0.013308 -0.003138 0.000000 0.000000 0.000000
# 3 -0.003138 -0.003138 0.010501 0.000000 0.000000 0.000000
# 4 0.000000 0.000000 0.000000 0.006943 0.000000 0.000000
# 5 0.000000 0.000000 0.000000 0.000000 0.006943 0.000000
# 6 0.000000 0.000000 0.000000 0.000000 0.000000 0.039103
#
#
# Mechanical properties :
#
#
# Convention : Reuss Voigt Hill
#
# Bulk Modulus (GPa) = 65.89516 66.21843 66.05680
# Shear Modulus (GPa) = 42.69675 75.43041 59.06358
#
# Velocity S-wave (km/s) = 4.41246 5.86485 5.18972
# Velocity P-wave (km/s) = 7.48386 8.72111 8.12607
#
# Compressibility (1/GPa) = 0.01517562
#
# Stress axis : x y z
#
# Youngs Moduli (GPa) = 75.14480 75.14480 95.22900
#
# Poissons Ratio (x) = 0.35278 0.29881
# Poissons Ratio (y) = 0.35278 0.29881
# Poissons Ratio (z) = 0.23579 0.23579
#
# Static dielectric constant tensor:
#      x y z
#    x 1.819480 0.000000 0.000000 
#    y 0.000000 1.819480 0.000000 
#    z 0.000000 0.000000 1.874080 
# 
# From -- ./inp_files/1283.got.cif
#   From: 2010.05.17/outbox.cif.g08.bks.cpg/sg117_1_cif.got.tgz:1283.got - 2010.05.20 11:15:09.
