data_PCOD9558625
_publ_section_title
;
Structure prediction by ZEFSAII (Michael W. Deem and Ramdas Pophale) SiO2 
 PCOD9558625
Probable space group: P -4 N 2
;
_chemical_formula_sum "Si O2"
_cell_formula_units_Z 28
_cell_length_a 10.089064
_cell_length_b 10.089064
_cell_length_c 11.134771
_cell_angle_alpha 90.000000
_cell_angle_beta 90.000000
_cell_angle_gamma 90.000000
_cell_volume 1133.399570
_symmetry_space_group_name_H-M "P -4 N 2"
_symmetry_group_IT_number 118
_symmetry_cell_setting 'tetragonal'
loop_
_space_group_symop_operation_xyz
x,y,z
y,-x,-z
-x,-y,z
-y,x,-z
1/2+y,1/2+x,1/2-z
1/2-y,1/2-x,1/2-z
1/2-x,1/2+y,1/2+z
1/2+x,1/2-y,1/2+z
loop_
_atom_site_type_symbol
_atom_site_label
_atom_site_fract_x
_atom_site_fract_y
_atom_site_fract_z
Si Si1 0.569273 0.726702 0.719925
Si Si2 0.647161 0.147161 0.250000
Si Si3 0.648139 0.040180 0.996789
Si Si4 0.328539 0.403011 0.061148
O O1 0.626566 0.873435 0.750000
O O2 0.692601 0.639382 0.767168
O O3 0.538967 0.741558 0.578818
O O4 0.446503 0.680356 0.799983
O O5 0.546390 0.136113 0.359709
O O6 0.500000 0.000000 0.956644
O O7 0.672209 0.194035 0.965425
O O8 0.328427 0.541518 0.985252
#
# Coordination Sequence:
#
# PCOD9558625 Si02
#       4
#     8   4   8   8
#     4  10  21  42  67  96 136 185 236 289 359 443
#     4  10  23  44  61 108 146 164 258 297 349 456
#     4  12  22  41  71  99 133 190 235 294 362 437
#     4  11  22  41  67  99 140 178 235 301 358 435
#
# _framework density 24.704440000000002
#
# number of rings (size 3 to 8) (size 9 to 14) (size 15 to 20)
#    0.857    0.286    5.714    1.286    0.000    0.000 
#    5.143    2.857    0.000    0.000    0.000    0.000 
#    0.000    0.000    0.000    0.000    0.000    0.000 
#
# Total GULP energy -155933.193335 kJ/mol
# GULP energy per Si atom -5569.042619 kJ/mol
# Density = 2.464821 g / cm^3
# Si number density = 24.704440 Si / 1000 Ang^3
#
#
#
# Elastic Constant Matrix: (Units=GPa)
#
#
# Indices 1 2 3 4 5 6 
#
# 1 38.6014 28.5145 25.6682 0.0000 0.0000 0.0000
# 2 28.5145 38.5998 25.6682 0.0000 0.0000 0.0000
# 3 25.6682 25.6682 164.5271 0.0000 0.0000 0.0000
# 4 0.0000 0.0000 0.0000 29.6286 0.0000 0.0000
# 5 0.0000 0.0000 0.0000 0.0000 29.6286 0.0000
# 6 0.0000 0.0000 0.0000 0.0000 0.0000 22.3569
#
#
#
# Elastic Compliance Matrix: (Units=1/GPa)
#
#
# Indices 1 2 3 4 5 6 
#
# 1 0.058031 -0.041114 -0.002639 0.000000 0.000000 0.000000
# 2 -0.041114 0.058034 -0.002640 0.000000 0.000000 0.000000
# 3 -0.002639 -0.002640 0.006902 0.000000 0.000000 0.000000
# 4 0.000000 0.000000 0.000000 0.033751 0.000000 0.000000
# 5 0.000000 0.000000 0.000000 0.000000 0.033751 0.000000
# 6 0.000000 0.000000 0.000000 0.000000 0.000000 0.044729
#
#
# Mechanical properties :
#
#
# Convention : Reuss Voigt Hill
#
# Bulk Modulus (GPa) = 33.13338 44.60334 38.86836
# Shear Modulus (GPa) = 14.79097 27.11465 20.95281
#
# Velocity S-wave (km/s) = 2.44952 3.31654 2.91544
# Velocity P-wave (km/s) = 4.63047 5.72363 5.20582
#
# Compressibility (1/GPa) = 0.03018104
#
# Stress axis : x y z
#
# Youngs Moduli (GPa) = 17.23210 17.23130 144.89339
#
# Poissons Ratio (x) = 0.70844 0.38242
# Poissons Ratio (y) = 0.70848 0.38248
# Poissons Ratio (z) = 0.04548 0.04549
#
# Static dielectric constant tensor:
#      x y z
#    x 1.989740 0.000000 0.000000 
#    y 0.000000 1.989740 0.000000 
#    z 0.000000 0.000000 2.142690 
# 
# From -- ./inp_files/1498.got.cif
#   From: 2010.05.17/outbox.cif.g08.bks.cpg/sg118_1_cif.got.tgz:1498.got - 2010.05.20 11:17:24.
