data_PCOD9558115
_publ_section_title
;
Structure prediction by ZEFSAII (Michael W. Deem and Ramdas Pophale) SiO2 
 PCOD9558115
Probable space group: P -4 B 2
;
_chemical_formula_sum "Si O2"
_cell_formula_units_Z 40
_cell_length_a 19.501156
_cell_length_b 19.501156
_cell_length_c 5.225658
_cell_angle_alpha 90.000000
_cell_angle_beta 90.000000
_cell_angle_gamma 90.000000
_cell_volume 1987.292055
_symmetry_space_group_name_H-M "P -4 B 2"
_symmetry_group_IT_number 117
_symmetry_cell_setting 'tetragonal'
loop_
_space_group_symop_operation_xyz
x,y,z
y,-x,-z
-x,-y,z
-y,x,-z
1/2+y,1/2+x,-z
1/2-y,1/2-x,-z
1/2-x,1/2+y,z
1/2+x,1/2-y,z
loop_
_atom_site_type_symbol
_atom_site_label
_atom_site_fract_x
_atom_site_fract_y
_atom_site_fract_z
Si Si1 0.978938 0.712229 0.070416
Si Si2 0.138862 0.751567 0.061922
Si Si3 0.541769 0.295936 0.571778
Si Si4 0.331327 0.618082 0.434569
Si Si5 0.576596 0.968429 0.754651
O O1 0.060405 0.725844 0.042068
O O2 0.951975 0.757017 0.303383
O O3 0.975561 0.634241 0.180533
O O4 0.948379 0.741130 0.804352
O O5 0.144505 0.777473 0.352892
O O6 0.193773 0.693773 0.000000
O O7 0.145645 0.811035 0.846316
O O8 0.596833 0.356349 0.549392
O O9 0.464345 0.325041 0.584621
O O10 0.577780 0.922221 0.500000
O O11 0.500000 0.000000 0.748669
O O12 0.579020 0.920981 0.000000
#
# Coordination Sequence:
#
# PCOD9558115 Si02
#       5
#     8   8   8   8   8
#     4  10  20  35  58  85 110 151 193 245 294 335
#     4  10  20  35  59  84 109 144 201 244 283 342
#     4  10  21  37  59  85 118 153 194 240 296 353
#     4  10  21  37  59  87 117 152 194 242 293 352
#     4  10  20  34  56  80 113 149 192 236 284 351
#
# _framework density 20.127891999999999
#
# number of rings (size 3 to 8) (size 9 to 14) (size 15 to 20)
#    0.000    2.000    0.000    3.600    0.000    3.600 
#    0.000    0.000   44.000    7.200    0.000    0.000 
#    0.000    0.000    0.000    0.000    0.000    0.000 
#
# Total GULP energy -222740.611925 kJ/mol
# GULP energy per Si atom -5568.515298 kJ/mol
# Density = 2.008208 g / cm^3
# Si number density = 20.127892 Si / 1000 Ang^3
#
#
#
# Elastic Constant Matrix: (Units=GPa)
#
#
# Indices 1 2 3 4 5 6 
#
# 1 56.9837 23.5033 20.1862 0.0000 0.0000 0.0000
# 2 23.5033 56.9847 20.1858 0.0000 0.0000 0.0000
# 3 20.1862 20.1858 146.5553 0.0000 0.0000 0.0000
# 4 0.0000 0.0000 0.0000 5.3467 0.0000 0.0000
# 5 0.0000 0.0000 0.0000 0.0000 5.3476 0.0000
# 6 0.0000 0.0000 0.0000 0.0000 0.0000 24.2456
#
#
#
# Elastic Compliance Matrix: (Units=1/GPa)
#
#
# Indices 1 2 3 4 5 6 
#
# 1 0.021607 -0.008261 -0.001838 0.000000 0.000000 0.000000
# 2 -0.008261 0.021607 -0.001838 0.000000 0.000000 0.000000
# 3 -0.001838 -0.001838 0.007330 0.000000 0.000000 0.000000
# 4 0.000000 0.000000 0.000000 0.187032 0.000000 0.000000
# 5 0.000000 0.000000 0.000000 0.000000 0.186999 0.000000
# 6 0.000000 0.000000 0.000000 0.000000 0.000000 0.041245
#
#
# Mechanical properties :
#
#
# Convention : Reuss Voigt Hill
#
# Bulk Modulus (GPa) = 37.49625 43.14161 40.31893
# Shear Modulus (GPa) = 10.02841 20.09787 15.06314
#
# Velocity S-wave (km/s) = 2.23454 3.16335 2.73861
# Velocity P-wave (km/s) = 5.03259 5.90107 5.48405
#
# Compressibility (1/GPa) = 0.02666933
#
# Stress axis : x y z
#
# Youngs Moduli (GPa) = 46.28070 46.28164 136.43011
#
# Poissons Ratio (x) = 0.38232 0.25081
# Poissons Ratio (y) = 0.38231 0.25079
# Poissons Ratio (z) = 0.08508 0.08508
#
# Static dielectric constant tensor:
#      x y z
#    x 1.720110 0.000000 0.000000 
#    y 0.000000 1.720120 0.000000 
#    z 0.000000 0.000000 1.758400 
# 
# From -- ./inp_files/566.got.cif
#   From: 2010.05.17/outbox.cif.g08.bks.cpg/sg117_1_cif.got.tgz:566.got - 2010.05.20 11:15:09.
