data_PCOD9558938
_publ_section_title
;
Structure prediction by ZEFSAII (Michael W. Deem and Ramdas Pophale) SiO2 
 PCOD9558938
Probable space group: P -4 N 2
;
_chemical_formula_sum "Si O2"
_cell_formula_units_Z 44
_cell_length_a 9.000000
_cell_length_b 9.000000
_cell_length_c 30.000000
_cell_angle_alpha 90.000000
_cell_angle_beta 90.000000
_cell_angle_gamma 90.000000
_cell_volume 2430.000000
_symmetry_space_group_name_H-M "P -4 N 2"
_symmetry_group_IT_number 118
_symmetry_cell_setting 'tetragonal'
loop_
_space_group_symop_operation_xyz
x,y,z
y,-x,-z
-x,-y,z
-y,x,-z
1/2+y,1/2+x,1/2-z
1/2-y,1/2-x,1/2-z
1/2-x,1/2+y,1/2+z
1/2+x,1/2-y,1/2+z
loop_
_atom_site_type_symbol
_atom_site_label
_atom_site_fract_x
_atom_site_fract_y
_atom_site_fract_z
Si Si1 0.000000 0.000000 0.349747
Si Si2 0.702825 0.255951 0.098729
Si Si3 0.328915 0.547947 0.329694
Si Si4 0.661534 0.838467 0.750000
Si Si5 0.414955 0.270446 0.993693
Si Si6 0.500000 0.000000 0.442985
Si Si7 0.728171 0.143051 0.703060
O O1 0.900352 0.882707 0.320891
O O2 0.119888 0.904967 0.378454
O O3 0.840681 0.218686 0.130932
O O4 0.757964 0.331674 0.052797
O O5 0.611365 0.104636 0.086123
O O6 0.500000 0.500000 0.333393
O O7 0.298700 0.638992 0.283510
O O8 0.228289 0.397537 0.325825
O O9 0.517746 0.833159 0.781625
O O10 0.327980 0.414838 0.013686
O O11 0.421165 0.125232 0.025370
O O12 0.734817 0.234817 0.750000
#
# Coordination Sequence:
#
# PCOD9558938 Si02
#       7
#     4   8   8   4   8   4   8
#     4  12  24  40  69  96 124 174 232 268 321 378
#     4  11  24  41  65  98 127 172 214 272 324 391
#     4  11  24  40  63  96 133 167 211 274 322 379
#     4  10  21  44  64  85 130 175 228 246 311 380
#     4   9  19  42  67  89 118 170 213 259 317 401
#     4  10  22  42  64  93 134 159 210 280 336 386
#     4  10  23  40  64  89 125 179 221 266 308 388
#
# _framework density 18.106995999999999
#
# number of rings (size 3 to 8) (size 9 to 14) (size 15 to 20)
#    0.000    1.636    1.818    4.636    7.636    1.455 
#    6.545    0.000    0.000    1.091    0.000    0.000 
#    0.000    0.000    0.000    0.000    0.000    0.000 
#
# Total GULP energy -245388.104249 kJ/mol
# GULP energy per Si atom -5577.002369 kJ/mol
# Density = 1.806578 g / cm^3
# Si number density = 18.106996 Si / 1000 Ang^3
#
#
#
# Elastic Constant Matrix: (Units=GPa)
#
#
# Indices 1 2 3 4 5 6 
#
# 1 122.7468 61.6478 69.0684 0.0000 0.0000 0.0000
# 2 61.6478 122.7471 69.0683 0.0000 0.0000 0.0000
# 3 69.0684 69.0683 113.3180 0.0000 0.0000 0.0000
# 4 0.0000 0.0000 0.0000 34.8678 0.0000 0.0000
# 5 0.0000 0.0000 0.0000 0.0000 34.8677 0.0000
# 6 0.0000 0.0000 0.0000 0.0000 0.0000 36.9194
#
#
#
# Elastic Compliance Matrix: (Units=1/GPa)
#
#
# Indices 1 2 3 4 5 6 
#
# 1 0.013174 -0.003193 -0.006083 0.000000 0.000000 0.000000
# 2 -0.003193 0.013173 -0.006083 0.000000 0.000000 0.000000
# 3 -0.006083 -0.006083 0.016240 0.000000 0.000000 0.000000
# 4 0.000000 0.000000 0.000000 0.028680 0.000000 0.000000
# 5 0.000000 0.000000 0.000000 0.000000 0.028680 0.000000
# 6 0.000000 0.000000 0.000000 0.000000 0.000000 0.027086
#
#
# Mechanical properties :
#
#
# Convention : Reuss Voigt Hill
#
# Bulk Modulus (GPa) = 84.25791 84.26456 84.26123
# Shear Modulus (GPa) = 30.92007 31.93281 31.42644
#
# Velocity S-wave (km/s) = 4.13683 4.20403 4.17057
# Velocity P-wave (km/s) = 8.33380 8.37874 8.35630
#
# Compressibility (1/GPa) = 0.01186832
#
# Stress axis : x y z
#
# Youngs Moduli (GPa) = 75.90990 75.91028 61.57646
#
# Poissons Ratio (x) = 0.24241 0.37457
# Poissons Ratio (y) = 0.24241 0.37457
# Poissons Ratio (z) = 0.46176 0.46176
#
# Static dielectric constant tensor:
#      x y z
#    x 1.623430 0.000000 0.000000 
#    y 0.000000 1.623430 0.000000 
#    z 0.000000 0.000000 1.660200 
# 
# From -- ./inp_files/6786.got.cif
#   From: 2010.05.17/outbox.ucp.g08.bks.cvg/sg118_4_cif.got.tgz:6786.got - 2010.06.11 11:34:11.
