data_PCOD9558045
_publ_section_title
;
Structure prediction by ZEFSAII (Michael W. Deem and Ramdas Pophale) SiO2 
 PCOD9558045
Probable space group: P -4 C 2
;
_chemical_formula_sum "Si O2"
_cell_formula_units_Z 40
_cell_length_a 9.000000
_cell_length_b 9.000000
_cell_length_c 24.000000
_cell_angle_alpha 90.000000
_cell_angle_beta 90.000000
_cell_angle_gamma 90.000000
_cell_volume 1944.000000
_symmetry_space_group_name_H-M "P -4 C 2"
_symmetry_group_IT_number 116
_symmetry_cell_setting 'tetragonal'
loop_
_space_group_symop_operation_xyz
x,y,z
y,-x,-z
-x,-y,z
-y,x,-z
y,x,1/2-z
-y,-x,1/2-z
-x,y,1/2+z
x,-y,1/2+z
loop_
_atom_site_type_symbol
_atom_site_label
_atom_site_fract_x
_atom_site_fract_y
_atom_site_fract_z
Si Si1 0.227593 0.394042 0.200017
Si Si2 0.410599 0.152684 0.512679
Si Si3 0.110874 0.266845 0.698083
Si Si4 0.166212 0.952880 0.093253
Si Si5 0.671334 0.270026 0.587595
O O1 0.323995 0.323995 0.250000
O O2 0.190833 0.570819 0.201954
O O3 0.322097 0.358616 0.144841
O O4 0.066060 0.308159 0.198122
O O5 0.255390 0.123340 0.543498
O O6 0.515997 0.241512 0.555901
O O7 0.366227 0.232316 0.455897
O O8 0.500000 0.000000 0.501355
O O9 0.167167 0.167167 0.750000
O O10 0.151917 0.164889 0.644250
O O11 0.257867 0.107130 0.102244
O O12 0.000000 0.000000 0.078247
#
# Coordination Sequence:
#
# PCOD9558045 Si02
#       5
#     8   8   8   8   8
#     4  11  26  47  73 104 143 188 233 299 363 430
#     4  10  27  44  70 108 148 188 239 296 361 439
#     4  11  26  45  73 105 141 182 245 299 356 430
#     4  11  24  43  74 101 136 187 243 298 351 425
#     4  11  25  46  72 101 149 187 237 291 362 429
#
# _framework density 20.576132000000001
#
# number of rings (size 3 to 8) (size 9 to 14) (size 15 to 20)
#    0.000    1.200    2.000    1.200   14.000    0.800 
#    0.000    0.000    0.000    0.000    0.000    0.000 
#    0.000    0.000    0.000    0.000    0.000    0.000 
#
# Total GULP energy -223659.480285 kJ/mol
# GULP energy per Si atom -5591.487007 kJ/mol
# Density = 2.052930 g / cm^3
# Si number density = 20.576132 Si / 1000 Ang^3
#
#
#
# Elastic Constant Matrix: (Units=GPa)
#
#
# Indices 1 2 3 4 5 6 
#
# 1 100.2345 31.9566 62.1730 0.0000 0.0000 0.0000
# 2 31.9566 100.2345 62.1730 0.0000 0.0000 0.0000
# 3 62.1730 62.1730 168.2454 0.0000 0.0000 0.0000
# 4 0.0000 0.0000 0.0000 29.9073 0.0000 0.0000
# 5 0.0000 0.0000 0.0000 0.0000 29.9073 0.0000
# 6 0.0000 0.0000 0.0000 0.0000 0.0000 36.2298
#
#
#
# Elastic Compliance Matrix: (Units=1/GPa)
#
#
# Indices 1 2 3 4 5 6 
#
# 1 0.013121 -0.001525 -0.004285 0.000000 0.000000 0.000000
# 2 -0.001525 0.013121 -0.004285 0.000000 0.000000 0.000000
# 3 -0.004285 -0.004285 0.009111 0.000000 0.000000 0.000000
# 4 0.000000 0.000000 0.000000 0.033437 0.000000 0.000000
# 5 0.000000 0.000000 0.000000 0.000000 0.033437 0.000000
# 6 0.000000 0.000000 0.000000 0.000000 0.000000 0.027602
#
#
# Mechanical properties :
#
#
# Convention : Reuss Voigt Hill
#
# Bulk Modulus (GPa) = 65.95569 75.70221 70.82895
# Shear Modulus (GPa) = 32.24321 33.36965 32.80643
#
# Velocity S-wave (km/s) = 3.96286 4.03148 3.99732
# Velocity P-wave (km/s) = 7.28444 7.65125 7.47009
#
# Compressibility (1/GPa) = 0.01516169
#
# Stress axis : x y z
#
# Youngs Moduli (GPa) = 76.21518 76.21518 109.76210
#
# Poissons Ratio (x) = 0.11625 0.47033
# Poissons Ratio (y) = 0.11625 0.47033
# Poissons Ratio (z) = 0.32658 0.32658
#
# Static dielectric constant tensor:
#      x y z
#    x 1.736690 0.000000 0.000000 
#    y 0.000000 1.736690 0.000000 
#    z 0.000000 0.000000 1.729960 
# 
# From -- ./inp_files/4435.got.cif
#   From: 2010.05.17/outbox.ucp.g08.bks.cvg/sg116_3_cif.got.tgz:4435.got - 2010.06.11 11:33:53.
