data_PCOD9558926
_publ_section_title
;
Structure prediction by ZEFSAII (Michael W. Deem and Ramdas Pophale) SiO2 
 PCOD9558926
Probable space group: P -4 N 2
;
_chemical_formula_sum "Si O2"
_cell_formula_units_Z 20
_cell_length_a 5.099454
_cell_length_b 5.099454
_cell_length_c 32.197410
_cell_angle_alpha 90.000000
_cell_angle_beta 90.000000
_cell_angle_gamma 90.000000
_cell_volume 837.275330
_symmetry_space_group_name_H-M "P -4 N 2"
_symmetry_group_IT_number 118
_symmetry_cell_setting 'tetragonal'
loop_
_space_group_symop_operation_xyz
x,y,z
y,-x,-z
-x,-y,z
-y,x,-z
1/2+y,1/2+x,1/2-z
1/2-y,1/2-x,1/2-z
1/2-x,1/2+y,1/2+z
1/2+x,1/2-y,1/2+z
loop_
_atom_site_type_symbol
_atom_site_label
_atom_site_fract_x
_atom_site_fract_y
_atom_site_fract_z
Si Si1 0.500000 0.500000 0.690701
Si Si2 0.000000 0.500000 0.250000
Si Si3 0.000000 0.500000 0.946074
Si Si4 0.500000 0.500000 0.500000
Si Si5 0.268046 0.671645 0.127521
O O1 0.479919 0.749208 0.720295
O O2 0.280304 0.414700 0.657854
O O3 0.219817 0.373765 0.916139
O O4 0.090429 0.747987 0.973291
O O5 0.500000 0.500000 0.146289
O O6 0.000000 0.500000 0.123676
#
# Coordination Sequence:
#
# PCOD9558926 Si02
#       5
#     4   2   4   2   8
#     4  12  29  56  76 127 158 218 270 333 412 476
#     4  12  32  48  86 112 178 202 264 346 414 474
#     4  12  30  50  81 121 166 212 278 327 419 470
#     4  12  30  52  80 120 172 216 256 356 404 484
#     4  12  27  52  87 117 157 220 274 334 392 502
#
# _framework density 23.887008999999999
#
# number of rings (size 3 to 8) (size 9 to 14) (size 15 to 20)
#    0.000    0.000    2.000    6.000   11.200    4.000 
#    0.000    0.000    0.000    0.000    0.000    0.000 
#    0.000    0.000    0.000    0.000    0.000    0.000 
#
# Total GULP energy -111975.563910 kJ/mol
# GULP energy per Si atom -5598.778196 kJ/mol
# Density = 2.383264 g / cm^3
# Si number density = 23.887009 Si / 1000 Ang^3
#
#
#
# Elastic Constant Matrix: (Units=GPa)
#
#
# Indices 1 2 3 4 5 6 
#
# 1 198.1064 74.2802 72.7754 0.0000 0.0000 0.0000
# 2 74.2802 198.1064 72.7754 0.0000 0.0000 0.0000
# 3 72.7754 72.7754 143.0026 0.0000 0.0000 0.0000
# 4 0.0000 0.0000 0.0000 55.0241 0.0000 0.0000
# 5 0.0000 0.0000 0.0000 0.0000 55.0241 0.0000
# 6 0.0000 0.0000 0.0000 0.0000 0.0000 60.4556
#
#
#
# Elastic Compliance Matrix: (Units=1/GPa)
#
#
# Indices 1 2 3 4 5 6 
#
# 1 0.006559 -0.001517 -0.002566 0.000000 0.000000 0.000000
# 2 -0.001517 0.006559 -0.002566 0.000000 0.000000 0.000000
# 3 -0.002566 -0.002566 0.009605 0.000000 0.000000 0.000000
# 4 0.000000 0.000000 0.000000 0.018174 0.000000 0.000000
# 5 0.000000 0.000000 0.000000 0.000000 0.018174 0.000000
# 6 0.000000 0.000000 0.000000 0.000000 0.000000 0.016541
#
#
# Mechanical properties :
#
#
# Convention : Reuss Voigt Hill
#
# Bulk Modulus (GPa) = 106.09996 108.76417 107.43206
# Shear Modulus (GPa) = 54.31733 55.39303 54.85518
#
# Velocity S-wave (km/s) = 4.77374 4.82078 4.79732
# Velocity P-wave (km/s) = 8.65440 8.75318 8.70393
#
# Compressibility (1/GPa) = 0.00942507
#
# Stress axis : x y z
#
# Youngs Moduli (GPa) = 152.45836 152.45836 104.11478
#
# Poissons Ratio (x) = 0.23123 0.26718
# Poissons Ratio (y) = 0.23123 0.26718
# Poissons Ratio (z) = 0.39124 0.39124
#
# Static dielectric constant tensor:
#      x y z
#    x 1.914440 0.000000 0.000000 
#    y 0.000000 1.914440 0.000000 
#    z 0.000000 0.000000 1.925950 
# 
# From -- ./inp_files/6665.got.cif
#   From: 2010.05.17/outbox.cif.g08.bks.cpg/sg118_4_cif.got.tgz:6665.got - 2010.05.20 11:17:24.
