data_PCOD9558191
_publ_section_title
;
Structure prediction by ZEFSAII (Michael W. Deem and Ramdas Pophale) SiO2 
 PCOD9558191
Probable space group: P -4 B 2
;
_chemical_formula_sum "Si O2"
_cell_formula_units_Z 56
_cell_length_a 15.151609
_cell_length_b 15.151609
_cell_length_c 12.157230
_cell_angle_alpha 90.000000
_cell_angle_beta 90.000000
_cell_angle_gamma 90.000000
_cell_volume 2790.950552
_symmetry_space_group_name_H-M "P -4 B 2"
_symmetry_group_IT_number 117
_symmetry_cell_setting 'tetragonal'
loop_
_space_group_symop_operation_xyz
x,y,z
y,-x,-z
-x,-y,z
-y,x,-z
1/2+y,1/2+x,-z
1/2-y,1/2-x,-z
1/2-x,1/2+y,z
1/2+x,1/2-y,z
loop_
_atom_site_type_symbol
_atom_site_label
_atom_site_fract_x
_atom_site_fract_y
_atom_site_fract_z
Si Si1 0.550123 0.241068 0.756032
Si Si2 0.996076 0.136041 0.950311
Si Si3 0.153933 0.789867 0.284965
Si Si4 0.292272 0.084506 0.923625
Si Si5 0.580129 0.057645 0.868906
Si Si6 0.061131 0.869679 0.469471
Si Si7 0.108607 0.694866 0.595265
O O1 0.521816 0.330090 0.826742
O O2 0.637029 0.272357 0.692896
O O3 0.580652 0.156734 0.826651
O O4 0.473639 0.202695 0.677999
O O5 0.968990 0.229057 0.998278
O O6 0.071899 0.087615 0.023314
O O7 0.142429 0.768244 0.156556
O O8 0.068761 0.833760 0.344330
O O9 0.180796 0.696831 0.335544
O O10 0.339419 0.009339 0.851273
O O11 0.359610 0.140391 0.000000
O O12 0.500000 0.000000 0.821911
O O13 0.566484 0.066484 0.000000
O O14 0.105684 0.790102 0.536356
O O15 0.961632 0.888072 0.509689
O O16 0.119481 0.619481 0.500000
#
# Coordination Sequence:
#
# PCOD9558191 Si02
#       7
#     8   8   8   8   8   8   8
#     4  12  23  43  68 100 137 184 237 282 357 423
#     4  11  24  41  60  94 144 178 219 283 340 411
#     4  11  24  40  68 101 127 185 229 277 359 414
#     4  12  23  42  65  96 140 182 228 277 335 418
#     4  11  21  38  63  91 132 182 225 269 329 407
#     4  10  21  42  70  96 128 170 225 289 355 423
#     4  10  23  44  68  97 138 171 227 305 347 415
#
# _framework density 20.064848000000001
#
# number of rings (size 3 to 8) (size 9 to 14) (size 15 to 20)
#    0.000    1.000    5.714    1.714    0.000    5.143 
#    0.000    0.000    0.000    2.571    0.000    0.000 
#    0.000    0.000    0.000    0.000    0.000    0.000 
#
# Total GULP energy -311736.441814 kJ/mol
# GULP energy per Si atom -5566.722175 kJ/mol
# Density = 2.001918 g / cm^3
# Si number density = 20.064848 Si / 1000 Ang^3
#
#
#
# Elastic Constant Matrix: (Units=GPa)
#
#
# Indices 1 2 3 4 5 6 
#
# 1 88.8025 17.1025 14.9379 0.0000 0.0000 0.0000
# 2 17.1025 88.7978 14.9349 0.0000 0.0000 0.0000
# 3 14.9379 14.9349 58.9486 0.0000 0.0000 0.0000
# 4 0.0000 0.0000 0.0000 46.7457 0.0000 0.0000
# 5 0.0000 0.0000 0.0000 0.0000 46.2316 0.0000
# 6 0.0000 0.0000 0.0000 0.0000 0.0000 28.5505
#
#
#
# Elastic Compliance Matrix: (Units=1/GPa)
#
#
# Indices 1 2 3 4 5 6 
#
# 1 0.012058 -0.001889 -0.002577 0.000000 0.000000 0.000000
# 2 -0.001889 0.012059 -0.002576 0.000000 0.000000 0.000000
# 3 -0.002577 -0.002576 0.018270 0.000000 0.000000 0.000000
# 4 0.000000 0.000000 0.000000 0.021392 0.000000 0.000000
# 5 0.000000 0.000000 0.000000 0.000000 0.021630 0.000000
# 6 0.000000 0.000000 0.000000 0.000000 0.000000 0.035026
#
#
# Mechanical properties :
#
#
# Convention : Reuss Voigt Hill
#
# Bulk Modulus (GPa) = 35.33355 36.72215 36.02785
# Shear Modulus (GPa) = 34.73337 36.94379 35.83858
#
# Velocity S-wave (km/s) = 4.16511 4.29560 4.23086
# Velocity P-wave (km/s) = 6.38582 6.55319 6.47005
#
# Compressibility (1/GPa) = 0.02830172
#
# Stress axis : x y z
#
# Youngs Moduli (GPa) = 82.93084 82.92777 54.73537
#
# Poissons Ratio (x) = 0.15665 0.14106
# Poissons Ratio (y) = 0.15666 0.14102
# Poissons Ratio (z) = 0.21372 0.21366
#
# Static dielectric constant tensor:
#      x y z
#    x 1.616230 0.000000 0.000000 
#    y 0.000000 1.613500 0.000000 
#    z 0.000000 0.000000 1.534570 
# 
# From -- ./inp_files/2845.got.cif
#   From: 2010.05.17/outbox.cif.g08.bks.cpg/sg117_2_cif.got.tgz:2845.got - 2010.05.20 11:15:09.
