data_PCOD9558885
_publ_section_title
;
Structure prediction by ZEFSAII (Michael W. Deem and Ramdas Pophale) SiO2 
 PCOD9558885
Probable space group: P -4 N 2
;
_chemical_formula_sum "Si O2"
_cell_formula_units_Z 20
_cell_length_a 9.671680
_cell_length_b 9.671680
_cell_length_c 9.424132
_cell_angle_alpha 90.000000
_cell_angle_beta 90.000000
_cell_angle_gamma 90.000000
_cell_volume 881.546445
_symmetry_space_group_name_H-M "P -4 N 2"
_symmetry_group_IT_number 118
_symmetry_cell_setting 'tetragonal'
loop_
_space_group_symop_operation_xyz
x,y,z
y,-x,-z
-x,-y,z
-y,x,-z
1/2+y,1/2+x,1/2-z
1/2-y,1/2-x,1/2-z
1/2-x,1/2+y,1/2+z
1/2+x,1/2-y,1/2+z
loop_
_atom_site_type_symbol
_atom_site_label
_atom_site_fract_x
_atom_site_fract_y
_atom_site_fract_z
Si Si1 0.695157 0.804844 0.750000
Si Si2 0.407006 0.136652 0.454510
Si Si3 0.497201 0.334778 0.209917
O O1 0.590496 0.827984 0.620795
O O2 0.694800 0.655858 0.820757
O O3 0.459733 0.265587 0.361565
O O4 0.253296 0.096867 0.398105
O O5 0.500000 0.000000 0.426762
O O6 0.500000 0.500000 0.208782
#
# Coordination Sequence:
#
# PCOD9558885 Si02
#       3
#     4   8   8
#     4  12  27  41  78 106 140 184 248 298 352 430
#     4  11  25  51  72 102 147 192 236 300 365 419
#     4  11  26  46  74 105 144 192 237 294 360 431
#
# _framework density 22.687401999999999
#
# number of rings (size 3 to 8) (size 9 to 14) (size 15 to 20)
#    0.000    0.800    4.000    1.800   11.200    0.000 
#    7.200    0.000    0.000    0.000    0.000    0.000 
#    0.000    0.000    0.000    0.000    0.000    0.000 
#
# Total GULP energy -111701.467910 kJ/mol
# GULP energy per Si atom -5585.073395 kJ/mol
# Density = 2.263576 g / cm^3
# Si number density = 22.687402 Si / 1000 Ang^3
#
#
#
# Elastic Constant Matrix: (Units=GPa)
#
#
# Indices 1 2 3 4 5 6 
#
# 1 106.0365 26.5492 10.5029 0.0000 0.0000 0.0000
# 2 26.5492 106.0361 10.5032 0.0000 0.0000 0.0000
# 3 10.5029 10.5032 156.5389 0.0000 0.0000 0.0000
# 4 0.0000 0.0000 0.0000 8.5940 0.0000 0.0000
# 5 0.0000 0.0000 0.0000 0.0000 8.5947 0.0000
# 6 0.0000 0.0000 0.0000 0.0000 0.0000 18.3837
#
#
#
# Elastic Compliance Matrix: (Units=1/GPa)
#
#
# Indices 1 2 3 4 5 6 
#
# 1 0.010102 -0.002479 -0.000511 0.000000 0.000000 0.000000
# 2 -0.002479 0.010102 -0.000512 0.000000 0.000000 0.000000
# 3 -0.000511 -0.000512 0.006457 0.000000 0.000000 0.000000
# 4 0.000000 0.000000 0.000000 0.116360 0.000000 0.000000
# 5 0.000000 0.000000 0.000000 0.000000 0.116351 0.000000
# 6 0.000000 0.000000 0.000000 0.000000 0.000000 0.054396
#
#
# Mechanical properties :
#
#
# Convention : Reuss Voigt Hill
#
# Bulk Modulus (GPa) = 50.87107 51.52469 51.19788
# Shear Modulus (GPa) = 15.27539 28.51823 21.89681
#
# Velocity S-wave (km/s) = 2.59761 3.54928 3.11006
# Velocity P-wave (km/s) = 5.60964 6.28939 5.95922
#
# Compressibility (1/GPa) = 0.01965754
#
# Stress axis : x y z
#
# Youngs Moduli (GPa) = 98.99057 98.99014 154.87484
#
# Poissons Ratio (x) = 0.24536 0.07922
# Poissons Ratio (y) = 0.24536 0.07922
# Poissons Ratio (z) = 0.05063 0.05063
#
# Static dielectric constant tensor:
#      x y z
#    x 1.800330 0.000000 0.000000 
#    y 0.000000 1.800330 0.000000 
#    z 0.000000 0.000000 1.903570 
# 
# From -- ./inp_files/2541.got.cif
#   From: 2010.05.17/outbox.cif.g08.bks.cpg/sg118_2_cif.got.tgz:2541.got - 2010.05.20 11:17:24.
