data_PCOD9558824
_publ_section_title
;
Structure prediction by ZEFSAII (Michael W. Deem and Ramdas Pophale) SiO2 
 PCOD9558824
Probable space group: P -4 N 2
;
_chemical_formula_sum "Si O2"
_cell_formula_units_Z 40
_cell_length_a 7.732143
_cell_length_b 7.732143
_cell_length_c 28.303084
_cell_angle_alpha 90.000000
_cell_angle_beta 90.000000
_cell_angle_gamma 90.000000
_cell_volume 1692.129181
_symmetry_space_group_name_H-M "P -4 N 2"
_symmetry_group_IT_number 118
_symmetry_cell_setting 'tetragonal'
loop_
_space_group_symop_operation_xyz
x,y,z
y,-x,-z
-x,-y,z
-y,x,-z
1/2+y,1/2+x,1/2-z
1/2-y,1/2-x,1/2-z
1/2-x,1/2+y,1/2+z
1/2+x,1/2-y,1/2+z
loop_
_atom_site_type_symbol
_atom_site_label
_atom_site_fract_x
_atom_site_fract_y
_atom_site_fract_z
Si Si1 0.241079 0.648207 0.156549
Si Si2 0.165047 0.767812 0.053379
Si Si3 0.083845 0.683703 0.645445
Si Si4 0.616936 0.210657 0.696753
Si Si5 0.319016 0.260132 0.449607
O O1 0.233251 0.685006 0.100946
O O2 0.435431 0.700997 0.170095
O O3 0.190351 0.451829 0.166858
O O4 0.081690 0.744000 0.183448
O O5 0.956664 0.753249 0.055613
O O6 0.217038 0.971357 0.053378
O O7 0.220945 0.695662 0.002409
O O8 0.249533 0.647843 0.678665
O O9 0.145618 0.744893 0.593663
O O10 0.000000 0.500000 0.636360
O O11 0.651497 0.151497 0.750000
#
# Coordination Sequence:
#
# PCOD9558824 Si02
#       5
#     8   8   8   8   8
#     4  11  22  45  73  97 136 186 231 292 357 420
#     4   9  17  36  68  94 141 198 225 277 348 416
#     4  12  24  43  70 104 141 174 234 297 351 423
#     4  11  27  52  70  94 139 186 240 300 363 428
#     4   9  18  36  62 103 142 185 237 275 340 422
#
# _framework density 23.638859
#
# number of rings (size 3 to 8) (size 9 to 14) (size 15 to 20)
#    0.000    1.600    4.000    3.000    0.000    1.200 
#   18.000    0.000    0.000    0.000    0.000    0.000 
#    0.000    0.000    0.000    0.000    0.000    0.000 
#
# Total GULP energy -223551.656206 kJ/mol
# GULP energy per Si atom -5588.791405 kJ/mol
# Density = 2.358506 g / cm^3
# Si number density = 23.638859 Si / 1000 Ang^3
#
#
#
# Elastic Constant Matrix: (Units=GPa)
#
#
# Indices 1 2 3 4 5 6 
#
# 1 71.0063 15.3109 26.3013 0.0000 0.0000 0.0000
# 2 15.3109 71.0063 26.3013 0.0000 0.0000 0.0000
# 3 26.3013 26.3013 131.5586 0.0000 0.0000 0.0000
# 4 0.0000 0.0000 0.0000 14.8921 0.0000 0.0000
# 5 0.0000 0.0000 0.0000 0.0000 14.8921 0.0000
# 6 0.0000 0.0000 0.0000 0.0000 0.0000 28.5743
#
#
#
# Elastic Compliance Matrix: (Units=1/GPa)
#
#
# Indices 1 2 3 4 5 6 
#
# 1 0.015574 -0.002381 -0.002637 0.000000 0.000000 0.000000
# 2 -0.002381 0.015574 -0.002637 0.000000 0.000000 0.000000
# 3 -0.002637 -0.002637 0.008656 0.000000 0.000000 0.000000
# 4 0.000000 0.000000 0.000000 0.067150 0.000000 0.000000
# 5 0.000000 0.000000 0.000000 0.000000 0.067150 0.000000
# 6 0.000000 0.000000 0.000000 0.000000 0.000000 0.034996
#
#
# Mechanical properties :
#
#
# Convention : Reuss Voigt Hill
#
# Bulk Modulus (GPa) = 40.83152 45.48868 43.16010
# Shear Modulus (GPa) = 21.49847 25.38222 23.44035
#
# Velocity S-wave (km/s) = 3.01899 3.28037 3.15239
# Velocity P-wave (km/s) = 5.42798 5.79937 5.61674
#
# Compressibility (1/GPa) = 0.02449088
#
# Stress axis : x y z
#
# Youngs Moduli (GPa) = 64.21110 64.21110 115.53030
#
# Poissons Ratio (x) = 0.15290 0.30471
# Poissons Ratio (y) = 0.15290 0.30471
# Poissons Ratio (z) = 0.16935 0.16935
#
# Static dielectric constant tensor:
#      x y z
#    x 2.110690 0.000000 0.000000 
#    y 0.000000 2.110690 0.000000 
#    z 0.000000 0.000000 1.876650 
# 
# From -- ./inp_files/6469.got.cif
#   From: 2010.05.17/outbox.cif.g08.bks.cpg/sg118_4_cif.got.tgz:6469.got - 2010.05.20 11:17:24.
