data_PCOD9558272
_publ_section_title
;
Structure prediction by ZEFSAII (Michael W. Deem and Ramdas Pophale) SiO2 
 PCOD9558272
Probable space group: P -4 B 2
;
_chemical_formula_sum "Si O2"
_cell_formula_units_Z 42
_cell_length_a 15.290506
_cell_length_b 15.290506
_cell_length_c 8.565269
_cell_angle_alpha 90.000000
_cell_angle_beta 90.000000
_cell_angle_gamma 90.000000
_cell_volume 2002.556241
_symmetry_space_group_name_H-M "P -4 B 2"
_symmetry_group_IT_number 117
_symmetry_cell_setting 'tetragonal'
loop_
_space_group_symop_operation_xyz
x,y,z
y,-x,-z
-x,-y,z
-y,x,-z
1/2+y,1/2+x,-z
1/2-y,1/2-x,-z
1/2-x,1/2+y,z
1/2+x,1/2-y,z
loop_
_atom_site_type_symbol
_atom_site_label
_atom_site_fract_x
_atom_site_fract_y
_atom_site_fract_z
Si Si1 0.325554 0.436795 0.549826
Si Si2 0.015808 0.321722 0.673749
Si Si3 0.000000 0.500000 0.500000
Si Si4 0.733649 0.665388 0.136576
Si Si5 0.167449 0.734940 0.651213
Si Si6 0.577890 0.436651 0.763911
O O1 0.231144 0.459552 0.483752
O O2 0.332715 0.335951 0.598058
O O3 0.386241 0.453157 0.395719
O O4 0.349516 0.497986 0.694492
O O5 0.093237 0.298755 0.791934
O O6 0.004422 0.418916 0.617363
O O7 0.923185 0.285184 0.736242
O O8 0.716897 0.743585 0.258036
O O9 0.639234 0.615643 0.122973
O O10 0.783675 0.716326 0.000000
O O11 0.173506 0.673506 0.500000
O O12 0.500000 0.500000 0.819718
#
# Coordination Sequence:
#
# PCOD9558272 Si02
#       6
#     8   8   2   8   8   8
#     4  11  17  33  64 103 132 163 223 310 366 410
#     4  11  22  38  64  96 135 173 230 294 354 434
#     4  12  24  36  62 108 120 156 246 300 344 412
#     4  11  26  47  63  97 150 196 234 287 371 456
#     4  12  20  40  70 100 135 181 235 302 372 426
#     4  11  18  34  69 104 135 175 241 308 369 423
#
# _framework density 20.973193999999999
#
# number of rings (size 3 to 8) (size 9 to 14) (size 15 to 20)
#    0.000    0.762    8.571    2.286    0.000    0.000 
#    3.429    0.476    0.000    1.143    0.000    0.000 
#    0.000    0.000    0.000    0.000    0.000    0.000 
#
# Total GULP energy -234522.488772 kJ/mol
# GULP energy per Si atom -5583.868780 kJ/mol
# Density = 2.092546 g / cm^3
# Si number density = 20.973194 Si / 1000 Ang^3
#
#
#
# Elastic Constant Matrix: (Units=GPa)
#
#
# Indices 1 2 3 4 5 6 
#
# 1 153.3341 37.8623 29.4671 0.0000 0.0000 0.0000
# 2 37.8623 153.3336 29.4669 0.0000 0.0000 0.0000
# 3 29.4671 29.4669 44.9656 0.0000 0.0000 0.0000
# 4 0.0000 0.0000 0.0000 27.4145 0.0000 0.0000
# 5 0.0000 0.0000 0.0000 0.0000 27.4032 0.0000
# 6 0.0000 0.0000 0.0000 0.0000 0.0000 41.5964
#
#
#
# Elastic Compliance Matrix: (Units=1/GPa)
#
#
# Indices 1 2 3 4 5 6 
#
# 1 0.007607 -0.001053 -0.004295 0.000000 0.000000 0.000000
# 2 -0.001053 0.007607 -0.004295 0.000000 0.000000 0.000000
# 3 -0.004295 -0.004295 0.027869 0.000000 0.000000 0.000000
# 4 0.000000 0.000000 0.000000 0.036477 0.000000 0.000000
# 5 0.000000 0.000000 0.000000 0.000000 0.036492 0.000000
# 6 0.000000 0.000000 0.000000 0.000000 0.000000 0.024041
#
#
# Mechanical properties :
#
#
# Convention : Reuss Voigt Hill
#
# Bulk Modulus (GPa) = 42.02299 60.58067 51.30183
# Shear Modulus (GPa) = 29.88446 36.27195 33.07820
#
# Velocity S-wave (km/s) = 3.77886 4.16317 3.97566
# Velocity P-wave (km/s) = 6.25458 7.21504 6.75191
#
# Compressibility (1/GPa) = 0.02379650
#
# Stress axis : x y z
#
# Youngs Moduli (GPa) = 131.45559 131.45531 35.88277
#
# Poissons Ratio (x) = 0.13842 0.15412
# Poissons Ratio (y) = 0.13842 0.15412
# Poissons Ratio (z) = 0.56461 0.56461
#
# Static dielectric constant tensor:
#      x y z
#    x 1.776360 0.000000 0.000000 
#    y 0.000000 1.776360 0.000000 
#    z 0.000000 0.000000 1.787970 
# 
# From -- ./inp_files/1787.got.cif
#   From: 2010.05.17/outbox.cif.g08.bks.cpg/sg117_1_cif.got.tgz:1787.got - 2010.05.20 11:15:09.
