data_PCOD9558009
_publ_section_title
;
Structure prediction by ZEFSAII (Michael W. Deem and Ramdas Pophale) SiO2 
 PCOD9558009
Probable space group: P -4 C 2
;
_chemical_formula_sum "Si O2"
_cell_formula_units_Z 36
_cell_length_a 8.862054
_cell_length_b 8.862054
_cell_length_c 20.561577
_cell_angle_alpha 90.000000
_cell_angle_beta 90.000000
_cell_angle_gamma 90.000000
_cell_volume 1614.824034
_symmetry_space_group_name_H-M "P -4 C 2"
_symmetry_group_IT_number 116
_symmetry_cell_setting 'tetragonal'
loop_
_space_group_symop_operation_xyz
x,y,z
y,-x,-z
-x,-y,z
-y,x,-z
y,x,1/2-z
-y,-x,1/2-z
-x,y,1/2+z
x,-y,1/2+z
loop_
_atom_site_type_symbol
_atom_site_label
_atom_site_fract_x
_atom_site_fract_y
_atom_site_fract_z
Si Si1 0.834342 0.495167 0.435300
Si Si2 0.635592 0.375695 0.672380
Si Si3 0.661257 0.019963 0.814623
Si Si4 0.000000 0.000000 0.250000
Si Si5 0.000000 0.000000 0.500000
Si Si6 0.157222 0.285455 0.557786
O O1 0.736805 0.574403 0.381280
O O2 0.842897 0.584469 0.503477
O O3 0.777859 0.325885 0.443400
O O4 0.000000 0.500000 0.407587
O O5 0.500000 0.500000 0.667900
O O6 0.648512 0.351489 0.750000
O O7 0.814131 0.364250 0.655847
O O8 0.830293 0.004111 0.783440
O O9 0.500000 0.000000 0.775398
O O10 0.661570 0.895226 0.871598
O O11 0.954706 0.851977 0.540142
#
# Coordination Sequence:
#
# PCOD9558009 Si02
#       6
#     8   8   8   2   2   8
#     4  12  28  46  76 114 156 206 270 332 422 495
#     4  11  27  52  78 114 160 210 274 339 413 508
#     4  12  28  52  82 118 168 218 283 344 425 501
#     4  12  30  56  86 128 172 234 286 354 420 516
#     4  12  22  44  72 110 148 198 264 332 418 502
#     4  12  27  47  78 113 160 209 269 350 420 503
#
# _framework density 22.293453
#
# number of rings (size 3 to 8) (size 9 to 14) (size 15 to 20)
#    0.000    0.222    3.333    4.000    9.333    4.444 
#    0.000    0.000    0.000    0.000    0.000    0.000 
#    0.000    0.000    0.000    0.000    0.000    0.000 
#
# Total GULP energy -200462.680010 kJ/mol
# GULP energy per Si atom -5568.407778 kJ/mol
# Density = 2.224271 g / cm^3
# Si number density = 22.293453 Si / 1000 Ang^3
#
#
#
# Elastic Constant Matrix: (Units=GPa)
#
#
# Indices 1 2 3 4 5 6 
#
# 1 147.1386 52.5832 47.0020 0.0000 0.0000 0.0000
# 2 52.5832 147.1390 47.0020 0.0000 0.0000 0.0000
# 3 47.0020 47.0020 99.5123 0.0000 0.0000 0.0000
# 4 0.0000 0.0000 0.0000 14.8917 0.0000 0.0000
# 5 0.0000 0.0000 0.0000 0.0000 14.8920 0.0000
# 6 0.0000 0.0000 0.0000 0.0000 0.0000 34.5017
#
#
#
# Elastic Compliance Matrix: (Units=1/GPa)
#
#
# Indices 1 2 3 4 5 6 
#
# 1 0.008507 -0.002069 -0.003041 0.000000 0.000000 0.000000
# 2 -0.002069 0.008507 -0.003041 0.000000 0.000000 0.000000
# 3 -0.003041 -0.003041 0.012922 0.000000 0.000000 0.000000
# 4 0.000000 0.000000 0.000000 0.067152 0.000000 0.000000
# 5 0.000000 0.000000 0.000000 0.000000 0.067150 0.000000
# 6 0.000000 0.000000 0.000000 0.000000 0.000000 0.028984
#
#
# Mechanical properties :
#
#
# Convention : Reuss Voigt Hill
#
# Bulk Modulus (GPa) = 73.34406 76.32938 74.83672
# Shear Modulus (GPa) = 23.35709 29.33726 26.34717
#
# Velocity S-wave (km/s) = 3.24035 3.63155 3.44151
# Velocity P-wave (km/s) = 6.85351 7.20396 7.03092
#
# Compressibility (1/GPa) = 0.01363437
#
# Stress axis : x y z
#
# Youngs Moduli (GPa) = 117.54984 117.55016 77.38969
#
# Poissons Ratio (x) = 0.24318 0.23534
# Poissons Ratio (y) = 0.24318 0.23534
# Poissons Ratio (z) = 0.35746 0.35746
#
# Static dielectric constant tensor:
#      x y z
#    x 1.926940 0.000000 0.000000 
#    y 0.000000 1.926940 0.000000 
#    z 0.000000 0.000000 1.823060 
# 
# From -- ./inp_files/3958.got.cif
#   From: 2010.05.17/outbox.cif.g08.bks.cpg/sg116_2_cif.got.tgz:3958.got - 2010.05.20 11:11:43.
