data_PCOD9558039
_publ_section_title
;
Structure prediction by ZEFSAII (Michael W. Deem and Ramdas Pophale) SiO2 
 PCOD9558039
Probable space group: P -4 C 2
;
_chemical_formula_sum "Si O2"
_cell_formula_units_Z 16
_cell_length_a 5.042924
_cell_length_b 5.042924
_cell_length_c 24.842559
_cell_angle_alpha 90.000000
_cell_angle_beta 90.000000
_cell_angle_gamma 90.000000
_cell_volume 631.773167
_symmetry_space_group_name_H-M "P -4 C 2"
_symmetry_group_IT_number 116
_symmetry_cell_setting 'tetragonal'
loop_
_space_group_symop_operation_xyz
x,y,z
y,-x,-z
-x,-y,z
-y,x,-z
y,x,1/2-z
-y,-x,1/2-z
-x,y,1/2+z
x,-y,1/2+z
loop_
_atom_site_type_symbol
_atom_site_label
_atom_site_fract_x
_atom_site_fract_y
_atom_site_fract_z
Si Si1 0.500000 0.500000 0.250000
Si Si2 0.000000 0.500000 0.929869
Si Si3 0.820847 0.233073 0.166959
Si Si4 0.500000 0.500000 0.000000
O O1 0.571750 0.278194 0.206081
O O2 0.863914 0.715001 0.890612
O O3 0.752691 0.402596 0.965422
O O4 0.000000 0.500000 0.164214
O O5 0.000000 0.000000 0.189092
#
# Coordination Sequence:
#
# PCOD9558039 Si02
#       4
#     2   4   8   2
#     4  12  28  48  78 132 168 222 280 324 438 492
#     4  12  30  56  80 128 162 220 290 348 430 496
#     4  12  28  51  84 119 170 224 275 350 412 515
#     4  12  30  52  96 122 164 228 278 364 420 506
#
# _framework density 25.325547
#
# number of rings (size 3 to 8) (size 9 to 14) (size 15 to 20)
#    0.000    0.000    0.000    8.250   21.000    0.000 
#    0.000    0.000    0.000    0.000    0.000    0.000 
#    0.000    0.000    0.000    0.000    0.000    0.000 
#
# Total GULP energy -89469.781754 kJ/mol
# GULP energy per Si atom -5591.861360 kJ/mol
# Density = 2.526790 g / cm^3
# Si number density = 25.325547 Si / 1000 Ang^3
#
#
#
# Elastic Constant Matrix: (Units=GPa)
#
#
# Indices 1 2 3 4 5 6 
#
# 1 185.1118 78.6518 59.3183 0.0000 0.0000 0.0000
# 2 78.6518 185.1118 59.3183 0.0000 0.0000 0.0000
# 3 59.3183 59.3183 143.5559 0.0000 0.0000 0.0000
# 4 0.0000 0.0000 0.0000 52.1932 0.0000 0.0000
# 5 0.0000 0.0000 0.0000 0.0000 52.1932 0.0000
# 6 0.0000 0.0000 0.0000 0.0000 0.0000 72.9807
#
#
#
# Elastic Compliance Matrix: (Units=1/GPa)
#
#
# Indices 1 2 3 4 5 6 
#
# 1 0.007025 -0.002368 -0.001924 0.000000 0.000000 0.000000
# 2 -0.002368 0.007025 -0.001924 0.000000 0.000000 0.000000
# 3 -0.001924 -0.001924 0.008556 0.000000 0.000000 0.000000
# 4 0.000000 0.000000 0.000000 0.019160 0.000000 0.000000
# 5 0.000000 0.000000 0.000000 0.000000 0.019160 0.000000
# 6 0.000000 0.000000 0.000000 0.000000 0.000000 0.013702
#
#
# Mechanical properties :
#
#
# Convention : Reuss Voigt Hill
#
# Bulk Modulus (GPa) = 98.30126 100.92846 99.61486
# Shear Modulus (GPa) = 55.27816 56.57285 55.92551
#
# Velocity S-wave (km/s) = 4.67701 4.73146 4.70432
# Velocity P-wave (km/s) = 8.25016 8.35392 8.30220
#
# Compressibility (1/GPa) = 0.01017281
#
# Stress axis : x y z
#
# Youngs Moduli (GPa) = 142.34938 142.34938 116.87548
#
# Poissons Ratio (x) = 0.33711 0.22489
# Poissons Ratio (y) = 0.33711 0.22489
# Poissons Ratio (z) = 0.27391 0.27391
#
# Static dielectric constant tensor:
#      x y z
#    x 2.014060 0.000000 0.000000 
#    y 0.000000 2.014060 0.000000 
#    z 0.000000 0.000000 2.007740 
# 
# From -- ./inp_files/3573.got.cif
#   From: 2010.05.17/outbox.cif.g08.bks.cpg/sg116_2_cif.got.tgz:3573.got - 2010.05.20 11:11:43.
