data_PCOD9558730
_publ_section_title
;
Structure prediction by ZEFSAII (Michael W. Deem and Ramdas Pophale) SiO2 
 PCOD9558730
Probable space group: P -4 N 2
;
_chemical_formula_sum "Si O2"
_cell_formula_units_Z 38
_cell_length_a 13.962212
_cell_length_b 13.962212
_cell_length_c 9.048833
_cell_angle_alpha 90.000000
_cell_angle_beta 90.000000
_cell_angle_gamma 90.000000
_cell_volume 1764.009945
_symmetry_space_group_name_H-M "P -4 N 2"
_symmetry_group_IT_number 118
_symmetry_cell_setting 'tetragonal'
loop_
_space_group_symop_operation_xyz
x,y,z
y,-x,-z
-x,-y,z
-y,x,-z
1/2+y,1/2+x,1/2-z
1/2-y,1/2-x,1/2-z
1/2-x,1/2+y,1/2+z
1/2+x,1/2-y,1/2+z
loop_
_atom_site_type_symbol
_atom_site_label
_atom_site_fract_x
_atom_site_fract_y
_atom_site_fract_z
Si Si1 0.368734 0.464985 0.274203
Si Si2 0.500000 0.000000 0.750000
Si Si3 0.192652 0.545867 0.089581
Si Si4 0.570211 0.331175 0.385175
Si Si5 0.594268 0.746648 0.219807
Si Si6 0.233557 0.733557 0.250000
O O1 0.274160 0.501150 0.192311
O O2 0.350884 0.427481 0.440886
O O3 0.429643 0.564194 0.301987
O O4 0.390723 0.366684 0.184894
O O5 0.505927 0.907196 0.853226
O O6 0.205219 0.658992 0.121527
O O7 0.209132 0.535717 0.916498
O O8 0.478710 0.264046 0.356166
O O9 0.662654 0.281248 0.317824
O O10 0.688304 0.811697 0.250000
#
# Coordination Sequence:
#
# PCOD9558730 Si02
#       6
#     8   2   8   8   8   4
#     4  11  24  44  75 100 141 187 246 300 379 435
#     4  10  24  48  74  96 150 200 252 274 394 440
#     4  10  25  44  70 103 139 190 236 310 349 452
#     4  11  23  45  71 102 138 194 236 304 371 447
#     4  12  27  44  67 107 146 182 246 305 368 438
#     4   9  22  45  69  94 143 182 236 290 369 426
#
# _framework density 21.541829
#
# number of rings (size 3 to 8) (size 9 to 14) (size 15 to 20)
#    0.000    1.263    2.105    1.895   13.263    1.684 
#    0.000    0.000    0.000    0.000    0.000    0.000 
#    0.000    0.000    0.000    0.000    0.000    0.000 
#
# Total GULP energy -211904.644447 kJ/mol
# GULP energy per Si atom -5576.438012 kJ/mol
# Density = 2.149280 g / cm^3
# Si number density = 21.541829 Si / 1000 Ang^3
#
#
#
# Elastic Constant Matrix: (Units=GPa)
#
#
# Indices 1 2 3 4 5 6 
#
# 1 94.0144 73.2284 25.7576 0.0000 0.0000 0.0000
# 2 73.2284 94.0172 25.7582 0.0000 0.0000 0.0000
# 3 25.7576 25.7582 76.9525 0.0000 0.0000 0.0000
# 4 0.0000 0.0000 0.0000 4.2385 0.0000 0.0000
# 5 0.0000 0.0000 0.0000 0.0000 4.2386 0.0000
# 6 0.0000 0.0000 0.0000 0.0000 0.0000 44.2661
#
#
#
# Elastic Compliance Matrix: (Units=1/GPa)
#
#
# Indices 1 2 3 4 5 6 
#
# 1 0.027387 -0.020720 -0.002231 0.000000 0.000000 0.000000
# 2 -0.020720 0.027386 -0.002232 0.000000 0.000000 0.000000
# 3 -0.002231 -0.002232 0.014489 0.000000 0.000000 0.000000
# 4 0.000000 0.000000 0.000000 0.235934 0.000000 0.000000
# 5 0.000000 0.000000 0.000000 0.000000 0.235927 0.000000
# 6 0.000000 0.000000 0.000000 0.000000 0.000000 0.022591
#
#
# Mechanical properties :
#
#
# Convention : Reuss Voigt Hill
#
# Bulk Modulus (GPa) = 52.92061 57.16360 55.04211
# Shear Modulus (GPa) = 8.05961 19.89796 13.97879
#
# Velocity S-wave (km/s) = 1.93636 3.04252 2.55014
# Velocity P-wave (km/s) = 5.44234 6.23990 5.85472
#
# Compressibility (1/GPa) = 0.01889623
#
# Stress axis : x y z
#
# Youngs Moduli (GPa) = 36.51408 36.51512 69.01835
#
# Poissons Ratio (x) = 0.75658 0.15401
# Poissons Ratio (y) = 0.75656 0.15402
# Poissons Ratio (z) = 0.08148 0.08149
#
# Static dielectric constant tensor:
#      x y z
#    x 1.826410 0.000000 0.000000 
#    y 0.000000 1.826410 0.000000 
#    z 0.000000 0.000000 1.961210 
# 
# From -- ./inp_files/1813.got.cif
#   From: 2010.05.17/outbox.cif.g08.bks.cpg/sg118_1_cif.got.tgz:1813.got - 2010.05.20 11:17:24.
