data_PCOD9558523
_publ_section_title
;
Structure prediction by ZEFSAII (Michael W. Deem and Ramdas Pophale) SiO2 
 PCOD9558523
Probable space group: P -4 N 2
;
_chemical_formula_sum "Si O2"
_cell_formula_units_Z 48
_cell_length_a 11.687321
_cell_length_b 11.687321
_cell_length_c 16.620040
_cell_angle_alpha 90.000000
_cell_angle_beta 90.000000
_cell_angle_gamma 90.000000
_cell_volume 2270.188971
_symmetry_space_group_name_H-M "P -4 N 2"
_symmetry_group_IT_number 118
_symmetry_cell_setting 'tetragonal'
loop_
_space_group_symop_operation_xyz
x,y,z
y,-x,-z
-x,-y,z
-y,x,-z
1/2+y,1/2+x,1/2-z
1/2-y,1/2-x,1/2-z
1/2-x,1/2+y,1/2+z
1/2+x,1/2-y,1/2+z
loop_
_atom_site_type_symbol
_atom_site_label
_atom_site_fract_x
_atom_site_fract_y
_atom_site_fract_z
Si Si1 0.126674 0.122986 0.613841
Si Si2 0.163425 0.785098 0.098355
Si Si3 0.614273 0.302742 0.931727
Si Si4 0.245005 0.934803 0.233685
Si Si5 0.232561 0.414170 0.446259
Si Si6 0.820514 0.252843 0.833940
O O1 0.249878 0.184157 0.621245
O O2 0.093209 0.155973 0.522609
O O3 0.049545 0.180138 0.682017
O O4 0.143589 0.987488 0.619206
O O5 0.158194 0.864856 0.176570
O O6 0.048679 0.731725 0.062213
O O7 0.220085 0.866610 0.030483
O O8 0.619205 0.163108 0.931140
O O9 0.742829 0.325259 0.897292
O O10 0.354810 0.854810 0.250000
O O11 0.284024 0.051361 0.190492
O O12 0.319317 0.369499 0.377180
O O13 0.752781 0.252781 0.750000
#
# Coordination Sequence:
#
# PCOD9558523 Si02
#       6
#     8   8   8   8   8   8
#     4  10  22  41  63  93 131 167 224 269 333 397
#     4  10  20  38  61  93 127 172 215 276 327 396
#     4   9  23  41  60  93 129 171 217 273 328 405
#     4  10  23  40  66  94 125 167 217 277 328 387
#     4   9  21  37  60  90 129 169 221 264 333 395
#     4  10  23  41  60  91 128 164 220 265 323 396
#
# _framework density 21.143616000000002
#
# number of rings (size 3 to 8) (size 9 to 14) (size 15 to 20)
#    1.000    1.333    0.000    1.000    4.667    3.667 
#    0.000    0.000    3.667    4.000    0.000    0.000 
#    0.000    0.000    0.000    0.000    0.000    0.000 
#
# Total GULP energy -267305.076053 kJ/mol
# GULP energy per Si atom -5568.855751 kJ/mol
# Density = 2.109549 g / cm^3
# Si number density = 21.143616 Si / 1000 Ang^3
#
#
#
# Elastic Constant Matrix: (Units=GPa)
#
#
# Indices 1 2 3 4 5 6 
#
# 1 39.7343 49.1634 15.0103 0.0000 0.0000 0.0000
# 2 49.1634 39.7343 15.0103 0.0000 0.0000 0.0000
# 3 15.0103 15.0103 93.5114 0.0000 0.0000 0.0000
# 4 0.0000 0.0000 0.0000 19.1385 0.0000 0.0000
# 5 0.0000 0.0000 0.0000 0.0000 19.1385 0.0000
# 6 0.0000 0.0000 0.0000 0.0000 0.0000 12.1989
#
#
#
# Elastic Compliance Matrix: (Units=1/GPa)
#
#
# Indices 1 2 3 4 5 6 
#
# 1 -0.047081 0.058974 -0.001909 0.000000 0.000000 0.000000
# 2 0.058974 -0.047081 -0.001909 0.000000 0.000000 0.000000
# 3 -0.001909 -0.001909 0.011307 0.000000 0.000000 0.000000
# 4 0.000000 0.000000 0.000000 0.052251 0.000000 0.000000
# 5 0.000000 0.000000 0.000000 0.000000 0.052251 0.000000
# 6 0.000000 0.000000 0.000000 0.000000 0.000000 0.081975
#
#
# Mechanical properties :
#
#
# Convention : Reuss Voigt Hill
#
# Bulk Modulus (GPa) = 36.42002 36.81644 36.61823
# Shear Modulus (GPa) = 2031.15930 16.34825 1023.75377
#
# Velocity S-wave (km/s) = 31.02796 2.78366 22.02820
# Velocity P-wave (km/s) = 36.06811 5.27087 25.77490
#
# Compressibility (1/GPa) = 0.02745742
#
# Stress axis : x y z
#
# Youngs Moduli (GPa) = -21.24009 -21.24009 88.44244
#
# Poissons Ratio (x) = 1.25262 0.16885
# Poissons Ratio (y) = 1.25262 0.16885
# Poissons Ratio (z) = -0.04055 -0.04055
#
# Static dielectric constant tensor:
#      x y z
#    x 1.787540 0.000000 0.000000 
#    y 0.000000 1.787540 0.000000 
#    z 0.000000 0.000000 1.800350 
# 
# From -- ./inp_files/4953.got.cif
#   From: 2010.05.17/outbox.cif.g08.bks.cpg/sg118_3_cif.got.tgz:4953.got - 2010.05.20 11:17:24.
