data_PCOD9558722
_publ_section_title
;
Structure prediction by ZEFSAII (Michael W. Deem and Ramdas Pophale) SiO2 
 PCOD9558722
Probable space group: P -4 N 2
;
_chemical_formula_sum "Si O2"
_cell_formula_units_Z 38
_cell_length_a 9.229199
_cell_length_b 9.229199
_cell_length_c 21.831826
_cell_angle_alpha 90.000000
_cell_angle_beta 90.000000
_cell_angle_gamma 90.000000
_cell_volume 1859.593768
_symmetry_space_group_name_H-M "P -4 N 2"
_symmetry_group_IT_number 118
_symmetry_cell_setting 'tetragonal'
loop_
_space_group_symop_operation_xyz
x,y,z
y,-x,-z
-x,-y,z
-y,x,-z
1/2+y,1/2+x,1/2-z
1/2-y,1/2-x,1/2-z
1/2-x,1/2+y,1/2+z
1/2+x,1/2-y,1/2+z
loop_
_atom_site_type_symbol
_atom_site_label
_atom_site_fract_x
_atom_site_fract_y
_atom_site_fract_z
Si Si1 0.895678 0.640984 0.124171
Si Si2 0.759826 0.740174 0.250000
Si Si3 0.649100 0.324817 0.990970
Si Si4 0.500000 0.500000 0.500000
Si Si5 0.829815 0.542187 0.697820
Si Si6 0.660234 0.666752 0.586443
O O1 0.812257 0.652677 0.189621
O O2 0.779736 0.645330 0.068281
O O3 0.000000 0.500000 0.122626
O O4 0.009503 0.772515 0.113072
O O5 0.593855 0.739525 0.275766
O O6 0.492261 0.320451 0.024003
O O7 0.766345 0.280719 0.041426
O O8 0.634008 0.529580 0.542800
O O9 0.837168 0.662833 0.750000
O O10 0.762587 0.612361 0.639088
O O11 0.000000 0.500000 0.686953
#
# Coordination Sequence:
#
# PCOD9558722 Si02
#       6
#     8   4   8   2   8   8
#     4  12  25  45  69 103 138 186 233 297 358 420
#     4  10  24  44  66  94 146 180 230 286 350 428
#     4  11  26  46  71 103 143 189 237 295 364 438
#     4  12  24  36  64 108 136 176 220 294 348 420
#     4   9  23  44  68 100 131 184 235 284 348 421
#     4  12  24  42  71 104 140 179 245 291 358 421
#
# _framework density 20.434573
#
# number of rings (size 3 to 8) (size 9 to 14) (size 15 to 20)
#    0.000    1.263    4.211    1.579    5.895    2.526 
#    0.000    2.105    0.000    0.000    0.000    0.000 
#    0.000    0.000    0.000    0.000    0.000    0.000 
#
# Total GULP energy -211890.116025 kJ/mol
# GULP energy per Si atom -5576.055685 kJ/mol
# Density = 2.038806 g / cm^3
# Si number density = 20.434573 Si / 1000 Ang^3
#
#
#
# Elastic Constant Matrix: (Units=GPa)
#
#
# Indices 1 2 3 4 5 6 
#
# 1 54.8880 37.5602 40.1773 0.0000 0.0000 0.0000
# 2 37.5602 54.8861 40.1760 0.0000 0.0000 0.0000
# 3 40.1773 40.1760 130.3800 0.0000 0.0000 0.0000
# 4 0.0000 0.0000 0.0000 23.8632 0.0000 0.0000
# 5 0.0000 0.0000 0.0000 0.0000 23.8629 0.0000
# 6 0.0000 0.0000 0.0000 0.0000 0.0000 40.2441
#
#
#
# Elastic Compliance Matrix: (Units=1/GPa)
#
#
# Indices 1 2 3 4 5 6 
#
# 1 0.036243 -0.021470 -0.004553 0.000000 0.000000 0.000000
# 2 -0.021470 0.036244 -0.004552 0.000000 0.000000 0.000000
# 3 -0.004553 -0.004552 0.010476 0.000000 0.000000 0.000000
# 4 0.000000 0.000000 0.000000 0.041905 0.000000 0.000000
# 5 0.000000 0.000000 0.000000 0.000000 0.041906 0.000000
# 6 0.000000 0.000000 0.000000 0.000000 0.000000 0.024848
#
#
# Mechanical properties :
#
#
# Convention : Reuss Voigt Hill
#
# Bulk Modulus (GPa) = 45.84372 52.88678 49.36525
# Shear Modulus (GPa) = 19.22749 25.74344 22.48546
#
# Velocity S-wave (km/s) = 3.07078 3.55321 3.32077
# Velocity P-wave (km/s) = 5.92082 6.53995 6.23807
#
# Compressibility (1/GPa) = 0.02181324
#
# Stress axis : x y z
#
# Youngs Moduli (GPa) = 27.59125 27.59056 95.45925
#
# Poissons Ratio (x) = 0.59236 0.43460
# Poissons Ratio (y) = 0.59238 0.43458
# Poissons Ratio (z) = 0.12562 0.12561
#
# Static dielectric constant tensor:
#      x y z
#    x 1.773060 0.000000 0.000000 
#    y 0.000000 1.773060 0.000000 
#    z 0.000000 0.000000 1.694280 
# 
# From -- ./inp_files/6098.got.cif
#   From: 2010.05.17/outbox.cif.g08.bks.cpg/sg118_4_cif.got.tgz:6098.got - 2010.05.20 11:17:24.
