data_PCOD9558300
_publ_section_title
;
Structure prediction by ZEFSAII (Michael W. Deem and Ramdas Pophale) SiO2 
 PCOD9558300
Probable space group: P -4 B 2
;
_chemical_formula_sum "Si O2"
_cell_formula_units_Z 18
_cell_length_a 8.686600
_cell_length_b 8.686600
_cell_length_c 9.222920
_cell_angle_alpha 90.000000
_cell_angle_beta 90.000000
_cell_angle_gamma 90.000000
_cell_volume 695.934055
_symmetry_space_group_name_H-M "P -4 B 2"
_symmetry_group_IT_number 117
_symmetry_cell_setting 'tetragonal'
loop_
_space_group_symop_operation_xyz
x,y,z
y,-x,-z
-x,-y,z
-y,x,-z
1/2+y,1/2+x,-z
1/2-y,1/2-x,-z
1/2-x,1/2+y,z
1/2+x,1/2-y,z
loop_
_atom_site_type_symbol
_atom_site_label
_atom_site_fract_x
_atom_site_fract_y
_atom_site_fract_z
Si Si1 0.252952 0.568852 0.734809
Si Si2 0.428281 0.808904 0.847916
Si Si3 0.500000 0.500000 0.500000
O O1 0.372719 0.634024 0.853833
O O2 0.192616 0.394914 0.742620
O O3 0.359972 0.573218 0.592979
O O4 0.093893 0.657495 0.778580
O O5 0.390224 0.890224 0.000000
#
# Coordination Sequence:
#
# PCOD9558300 Si02
#       3
#     8   8   2
#     4  11  25  43  70 103 150 195 245 311 367 460
#     4  11  23  46  76 109 141 189 253 322 389 440
#     4  12  28  48  66 112 156 212 260 290 388 464
#
# _framework density 25.864519999999999
#
# number of rings (size 3 to 8) (size 9 to 14) (size 15 to 20)
#    0.000    0.889    0.000    8.000    0.000    7.111 
#    0.000   13.333    0.000    0.000    0.000    0.000 
#    0.000    0.000    0.000    0.000    0.000    0.000 
#
# Total GULP energy -100273.283322 kJ/mol
# GULP energy per Si atom -5570.737962 kJ/mol
# Density = 2.580565 g / cm^3
# Si number density = 25.864520 Si / 1000 Ang^3
#
#
#
# Elastic Constant Matrix: (Units=GPa)
#
#
# Indices 1 2 3 4 5 6 
#
# 1 136.5914 125.2525 62.7326 0.0000 0.0000 0.0000
# 2 125.2525 136.5914 62.7326 0.0000 0.0000 0.0000
# 3 62.7326 62.7326 115.5651 0.0000 0.0000 0.0000
# 4 0.0000 0.0000 0.0000 36.2863 0.0000 0.0000
# 5 0.0000 0.0000 0.0000 0.0000 36.2863 0.0000
# 6 0.0000 0.0000 0.0000 0.0000 0.0000 87.3858
#
#
#
# Elastic Compliance Matrix: (Units=1/GPa)
#
#
# Indices 1 2 3 4 5 6 
#
# 1 0.046677 -0.041515 -0.002802 0.000000 0.000000 0.000000
# 2 -0.041515 0.046677 -0.002802 0.000000 0.000000 0.000000
# 3 -0.002802 -0.002802 0.011695 0.000000 0.000000 0.000000
# 4 0.000000 0.000000 0.000000 0.027559 0.000000 0.000000
# 5 0.000000 0.000000 0.000000 0.000000 0.027559 0.000000
# 6 0.000000 0.000000 0.000000 0.000000 0.000000 0.011444
#
#
# Mechanical properties :
#
#
# Convention : Reuss Voigt Hill
#
# Bulk Modulus (GPa) = 92.50088 98.90925 95.70507
# Shear Modulus (GPa) = 18.55617 41.19368 29.87492
#
# Velocity S-wave (km/s) = 2.68141 3.99516 3.40230
# Velocity P-wave (km/s) = 6.74002 7.72049 7.24686
#
# Compressibility (1/GPa) = 0.01081071
#
# Stress axis : x y z
#
# Youngs Moduli (GPa) = 21.42379 21.42379 85.50611
#
# Poissons Ratio (x) = 0.88942 0.23958
# Poissons Ratio (y) = 0.88942 0.23958
# Poissons Ratio (z) = 0.06003 0.06003
#
# Static dielectric constant tensor:
#      x y z
#    x 2.076860 0.000000 0.000000 
#    y 0.000000 2.076860 0.000000 
#    z 0.000000 0.000000 2.080400 
# 
# From -- ./inp_files/2194.got.cif
#   From: 2010.05.17/outbox.cif.g08.bks.cpg/sg117_2_cif.got.tgz:2194.got - 2010.05.20 11:15:09.
