data_PCOD9558440
_publ_section_title
;
Structure prediction by ZEFSAII (Michael W. Deem and Ramdas Pophale) SiO2 
 PCOD9558440
Probable space group: P -4 N 2
;
_chemical_formula_sum "Si O2"
_cell_formula_units_Z 36
_cell_length_a 13.380831
_cell_length_b 13.380831
_cell_length_c 11.305168
_cell_angle_alpha 90.000000
_cell_angle_beta 90.000000
_cell_angle_gamma 90.000000
_cell_volume 2024.152325
_symmetry_space_group_name_H-M "P -4 N 2"
_symmetry_group_IT_number 118
_symmetry_cell_setting 'tetragonal'
loop_
_space_group_symop_operation_xyz
x,y,z
y,-x,-z
-x,-y,z
-y,x,-z
1/2+y,1/2+x,1/2-z
1/2-y,1/2-x,1/2-z
1/2-x,1/2+y,1/2+z
1/2+x,1/2-y,1/2+z
loop_
_atom_site_type_symbol
_atom_site_label
_atom_site_fract_x
_atom_site_fract_y
_atom_site_fract_z
Si Si1 0.597323 0.066238 0.567680
Si Si2 0.914762 0.084028 0.647139
Si Si3 0.494901 0.767897 0.708745
Si Si4 0.220517 0.720517 0.250000
Si Si5 0.581355 0.278913 0.091240
O O1 0.565638 0.177995 0.605124
O O2 0.660407 0.020726 0.677030
O O3 0.668120 0.065461 0.455746
O O4 0.500000 0.000000 0.552870
O O5 0.837928 0.050624 0.749605
O O6 0.849864 0.091098 0.526120
O O7 0.982712 0.182576 0.659545
O O8 0.000000 0.000000 0.638349
O O9 0.613248 0.770328 0.684498
O O10 0.316628 0.717898 0.164769
#
# Coordination Sequence:
#
# PCOD9558440 Si02
#       5
#     8   8   8   4   8
#     4  10  19  35  56  82 108 143 183 233 282 331
#     4  11  18  34  59  85 106 141 192 237 271 322
#     4  10  19  33  59  83 106 138 188 236 273 326
#     4  12  20  33  55  84 110 146 186 232 276 334
#     4  11  21  33  56  83 112 146 190 232 279 338
#
# _framework density 17.785223999999999
#
# number of rings (size 3 to 8) (size 9 to 14) (size 15 to 20)
#    0.000    1.333    6.667    2.000    0.000    0.000 
#    0.000    2.778    9.778    0.000    0.000    0.000 
#    0.000    0.000    0.000    0.000    0.000    0.000 
#
# Total GULP energy -200683.949116 kJ/mol
# GULP energy per Si atom -5574.554142 kJ/mol
# Density = 1.774474 g / cm^3
# Si number density = 17.785224 Si / 1000 Ang^3
#
#
#
# Elastic Constant Matrix: (Units=GPa)
#
#
# Indices 1 2 3 4 5 6 
#
# 1 134.9910 55.1291 32.5156 0.0000 0.0000 0.0000
# 2 55.1291 134.9910 32.5156 0.0000 0.0000 0.0000
# 3 32.5156 32.5156 19.0570 0.0000 0.0000 0.0000
# 4 0.0000 0.0000 0.0000 12.5415 0.0000 0.0000
# 5 0.0000 0.0000 0.0000 0.0000 12.5415 0.0000
# 6 0.0000 0.0000 0.0000 0.0000 0.0000 25.0331
#
#
#
# Elastic Compliance Matrix: (Units=1/GPa)
#
#
# Indices 1 2 3 4 5 6 
#
# 1 0.012577 0.000055 -0.021554 0.000000 0.000000 0.000000
# 2 0.000055 0.012577 -0.021554 0.000000 0.000000 0.000000
# 3 -0.021554 -0.021554 0.126025 0.000000 0.000000 0.000000
# 4 0.000000 0.000000 0.000000 0.079735 0.000000 0.000000
# 5 0.000000 0.000000 0.000000 0.000000 0.079735 0.000000
# 6 0.000000 0.000000 0.000000 0.000000 0.000000 0.039947
#
#
# Mechanical properties :
#
#
# Convention : Reuss Voigt Hill
#
# Bulk Modulus (GPa) = 15.36689 58.81772 37.09230
# Shear Modulus (GPa) = 10.90773 21.28183 16.09478
#
# Velocity S-wave (km/s) = 2.47918 3.46295 3.01151
# Velocity P-wave (km/s) = 4.10538 7.00944 5.74397
#
# Compressibility (1/GPa) = 0.06507500
#
# Stress axis : x y z
#
# Youngs Moduli (GPa) = 79.51053 79.51053 7.93496
#
# Poissons Ratio (x) = -0.00440 0.17103
# Poissons Ratio (y) = -0.00440 0.17103
# Poissons Ratio (z) = 1.71373 1.71373
#
# Static dielectric constant tensor:
#      x y z
#    x 1.643750 0.000000 0.000000 
#    y 0.000000 1.643750 0.000000 
#    z 0.000000 0.000000 1.601500 
# 
# From -- ./inp_files/3955.got.cif
#   From: 2010.05.17/outbox.cif.g08.bks.cpg/sg118_2_cif.got.tgz:3955.got - 2010.05.20 11:17:24.
