data_PCOD9558827
_publ_section_title
;
Structure prediction by ZEFSAII (Michael W. Deem and Ramdas Pophale) SiO2 
 PCOD9558827
Probable space group: P -4 N 2
;
_chemical_formula_sum "Si O2"
_cell_formula_units_Z 48
_cell_length_a 8.292372
_cell_length_b 8.292372
_cell_length_c 32.216248
_cell_angle_alpha 90.000000
_cell_angle_beta 90.000000
_cell_angle_gamma 90.000000
_cell_volume 2215.299823
_symmetry_space_group_name_H-M "P -4 N 2"
_symmetry_group_IT_number 118
_symmetry_cell_setting 'tetragonal'
loop_
_space_group_symop_operation_xyz
x,y,z
y,-x,-z
-x,-y,z
-y,x,-z
1/2+y,1/2+x,1/2-z
1/2-y,1/2-x,1/2-z
1/2-x,1/2+y,1/2+z
1/2+x,1/2-y,1/2+z
loop_
_atom_site_type_symbol
_atom_site_label
_atom_site_fract_x
_atom_site_fract_y
_atom_site_fract_z
Si Si1 0.811928 0.305571 0.701737
Si Si2 0.181895 0.349165 0.673244
Si Si3 0.084477 0.157648 0.432336
Si Si4 0.914853 0.655258 0.580771
Si Si5 0.189751 0.508948 0.152197
Si Si6 0.153136 0.224368 0.998155
O O1 0.778584 0.278584 0.750000
O O2 0.744937 0.485601 0.691333
O O3 0.003717 0.322947 0.692505
O O4 0.748861 0.152686 0.675635
O O5 0.166544 0.384797 0.624102
O O6 0.267224 0.175370 0.675803
O O7 0.158724 0.279496 0.465748
O O8 0.986763 0.232886 0.394060
O O9 0.231444 0.065750 0.409872
O O10 0.000000 0.000000 0.452095
O O11 0.792391 0.713662 0.545779
O O12 0.000000 0.500000 0.561493
O O13 0.000000 0.500000 0.147168
O O14 0.958928 0.214307 0.997221
#
# Coordination Sequence:
#
# PCOD9558827 Si02
#       6
#     8   8   8   8   8   8
#     4  11  24  49  78 109 142 192 245 298 368 449
#     4  11  22  47  78 104 138 190 242 299 365 433
#     4  12  25  45  70  97 137 190 242 293 358 427
#     4  12  22  42  72  98 136 187 241 289 360 427
#     4  12  27  47  72 110 151 189 239 305 367 449
#     4  11  28  45  66 104 142 183 238 308 359 426
#
# _framework density 21.667494999999999
#
# number of rings (size 3 to 8) (size 9 to 14) (size 15 to 20)
#    0.000    0.500    6.667    1.500    4.667    1.667 
#    9.000    0.000    0.000    0.000    0.000    0.000 
#    0.000    0.000    0.000    0.000    0.000    0.000 
#
# Total GULP energy -268054.076178 kJ/mol
# GULP energy per Si atom -5584.459920 kJ/mol
# Density = 2.161818 g / cm^3
# Si number density = 21.667495 Si / 1000 Ang^3
#
#
#
# Elastic Constant Matrix: (Units=GPa)
#
#
# Indices 1 2 3 4 5 6 
#
# 1 105.9197 40.8637 26.8032 0.0000 0.0000 0.0000
# 2 40.8637 105.9197 26.8032 0.0000 0.0000 0.0000
# 3 26.8032 26.8032 135.0829 0.0000 0.0000 0.0000
# 4 0.0000 0.0000 0.0000 21.0229 0.0000 0.0000
# 5 0.0000 0.0000 0.0000 0.0000 21.0229 0.0000
# 6 0.0000 0.0000 0.0000 0.0000 0.0000 23.1336
#
#
#
# Elastic Compliance Matrix: (Units=1/GPa)
#
#
# Indices 1 2 3 4 5 6 
#
# 1 0.011358 -0.004013 -0.001457 0.000000 0.000000 0.000000
# 2 -0.004013 0.011358 -0.001457 0.000000 0.000000 0.000000
# 3 -0.001457 -0.001457 0.007981 0.000000 0.000000 0.000000
# 4 0.000000 0.000000 0.000000 0.047567 0.000000 0.000000
# 5 0.000000 0.000000 0.000000 0.000000 0.047567 0.000000
# 6 0.000000 0.000000 0.000000 0.000000 0.000000 0.043227
#
#
# Mechanical properties :
#
#
# Convention : Reuss Voigt Hill
#
# Bulk Modulus (GPa) = 59.37661 59.54026 59.45843
# Shear Modulus (GPa) = 26.52114 29.86604 28.19359
#
# Velocity S-wave (km/s) = 3.50238 3.71668 3.61112
# Velocity P-wave (km/s) = 6.61956 6.77916 6.69983
#
# Compressibility (1/GPa) = 0.01684165
#
# Stress axis : x y z
#
# Youngs Moduli (GPa) = 88.04217 88.04217 125.29419
#
# Poissons Ratio (x) = 0.35333 0.18260
# Poissons Ratio (y) = 0.35333 0.18260
# Poissons Ratio (z) = 0.12831 0.12831
#
# Static dielectric constant tensor:
#      x y z
#    x 1.852930 0.000000 0.000000 
#    y 0.000000 1.852930 0.000000 
#    z 0.000000 0.000000 1.751360 
# 
# From -- ./inp_files/6848.got.cif
#   From: 2010.05.17/outbox.cif.g08.bks.cpg/sg118_4_cif.got.tgz:6848.got - 2010.05.20 11:17:24.
