data_PCOD9558251
_publ_section_title
;
Structure prediction by ZEFSAII (Michael W. Deem and Ramdas Pophale) SiO2 
 PCOD9558251
Probable space group: P -4 B 2
;
_chemical_formula_sum "Si O2"
_cell_formula_units_Z 38
_cell_length_a 14.061025
_cell_length_b 14.061025
_cell_length_c 9.559807
_cell_angle_alpha 90.000000
_cell_angle_beta 90.000000
_cell_angle_gamma 90.000000
_cell_volume 1890.092615
_symmetry_space_group_name_H-M "P -4 B 2"
_symmetry_group_IT_number 117
_symmetry_cell_setting 'tetragonal'
loop_
_space_group_symop_operation_xyz
x,y,z
y,-x,-z
-x,-y,z
-y,x,-z
1/2+y,1/2+x,-z
1/2-y,1/2-x,-z
1/2-x,1/2+y,z
1/2+x,1/2-y,z
loop_
_atom_site_type_symbol
_atom_site_label
_atom_site_fract_x
_atom_site_fract_y
_atom_site_fract_z
Si Si1 0.007215 0.640975 0.434491
Si Si2 0.500000 0.500000 0.000000
Si Si3 0.362389 0.522740 0.551732
Si Si4 0.128616 0.848569 0.156862
Si Si5 0.823478 0.676523 0.000000
Si Si6 0.150148 0.529701 0.889354
O O1 0.922334 0.577667 0.500000
O O2 0.105289 0.605289 0.500000
O O3 0.995751 0.752395 0.466963
O O4 0.023636 0.618181 0.271210
O O5 0.438394 0.578014 0.916128
O O6 0.423668 0.578408 0.432663
O O7 0.360706 0.596132 0.682050
O O8 0.084754 0.749369 0.104793
O O9 0.237650 0.833062 0.111325
O O10 0.922455 0.676964 0.078579
O O11 0.077400 0.577400 0.000000
#
# Coordination Sequence:
#
# PCOD9558251 Si02
#       6
#     8   2   8   8   4   8
#     4  10  25  45  65 100 138 184 235 295 356 430
#     4  12  20  44  62  96 132 184 224 294 344 400
#     4  10  23  45  67 100 137 185 235 289 359 432
#     4  11  24  43  69 101 139 178 242 292 357 426
#     4  12  25  42  72 103 136 190 228 300 358 427
#     4  11  25  45  69 102 139 182 238 297 360 432
#
# _framework density 20.104837
#
# number of rings (size 3 to 8) (size 9 to 14) (size 15 to 20)
#    0.000    1.263    3.158    1.579    8.842    0.842 
#   15.158    0.000    0.000    0.000    0.000    0.000 
#    0.000    0.000    0.000    0.000    0.000    0.000 
#
# Total GULP energy -211705.159230 kJ/mol
# GULP energy per Si atom -5571.188401 kJ/mol
# Density = 2.005908 g / cm^3
# Si number density = 20.104837 Si / 1000 Ang^3
#
#
#
# Elastic Constant Matrix: (Units=GPa)
#
#
# Indices 1 2 3 4 5 6 
#
# 1 141.8850 52.5931 48.9156 0.0000 0.0000 0.0000
# 2 52.5931 141.8850 48.9158 0.0000 0.0000 0.0000
# 3 48.9156 48.9158 91.9162 0.0000 0.0000 0.0000
# 4 0.0000 0.0000 0.0000 47.1159 0.0000 0.0000
# 5 0.0000 0.0000 0.0000 0.0000 47.1180 0.0000
# 6 0.0000 0.0000 0.0000 0.0000 0.0000 38.7749
#
#
#
# Elastic Compliance Matrix: (Units=1/GPa)
#
#
# Indices 1 2 3 4 5 6 
#
# 1 0.009110 -0.002089 -0.003737 0.000000 0.000000 0.000000
# 2 -0.002089 0.009110 -0.003737 0.000000 0.000000 0.000000
# 3 -0.003737 -0.003737 0.014857 0.000000 0.000000 0.000000
# 4 0.000000 0.000000 0.000000 0.021224 0.000000 0.000000
# 5 0.000000 0.000000 0.000000 0.000000 0.021223 0.000000
# 6 0.000000 0.000000 0.000000 0.000000 0.000000 0.025790
#
#
# Mechanical properties :
#
#
# Convention : Reuss Voigt Hill
#
# Bulk Modulus (GPa) = 71.66912 75.17058 73.41985
# Shear Modulus (GPa) = 39.97091 41.61920 40.79506
#
# Velocity S-wave (km/s) = 4.46368 4.55478 4.50946
# Velocity P-wave (km/s) = 7.89246 8.07043 7.98194
#
# Compressibility (1/GPa) = 0.01395301
#
# Stress axis : x y z
#
# Youngs Moduli (GPa) = 109.76371 109.76350 67.30939
#
# Poissons Ratio (x) = 0.22927 0.25152
# Poissons Ratio (y) = 0.22927 0.25152
# Poissons Ratio (z) = 0.41017 0.41017
#
# Static dielectric constant tensor:
#      x y z
#    x 1.709180 0.000000 0.000000 
#    y 0.000000 1.709180 0.000000 
#    z 0.000000 0.000000 1.828750 
# 
# From -- ./inp_files/1638.got.cif
#   From: 2010.05.17/outbox.cif.g08.bks.cpg/sg117_1_cif.got.tgz:1638.got - 2010.05.20 11:15:09.
