data_PCOD9558245
_publ_section_title
;
Structure prediction by ZEFSAII (Michael W. Deem and Ramdas Pophale) SiO2 
 PCOD9558245
Probable space group: P -4 B 2
;
_chemical_formula_sum "Si O2"
_cell_formula_units_Z 32
_cell_length_a 11.660582
_cell_length_b 11.660582
_cell_length_c 10.768570
_cell_angle_alpha 90.000000
_cell_angle_beta 90.000000
_cell_angle_gamma 90.000000
_cell_volume 1464.193553
_symmetry_space_group_name_H-M "P -4 B 2"
_symmetry_group_IT_number 117
_symmetry_cell_setting 'tetragonal'
loop_
_space_group_symop_operation_xyz
x,y,z
y,-x,-z
-x,-y,z
-y,x,-z
1/2+y,1/2+x,-z
1/2-y,1/2-x,-z
1/2-x,1/2+y,z
1/2+x,1/2-y,z
loop_
_atom_site_type_symbol
_atom_site_label
_atom_site_fract_x
_atom_site_fract_y
_atom_site_fract_z
Si Si1 0.145306 0.311169 0.867805
Si Si2 0.007218 0.626458 0.325406
Si Si3 0.397752 0.239777 0.799328
Si Si4 0.677872 0.450560 0.475896
O O1 0.147479 0.388922 0.744694
O O2 0.280466 0.274023 0.868995
O O3 0.026623 0.236934 0.853077
O O4 0.127881 0.372120 0.000000
O O5 0.000000 0.500000 0.377455
O O6 0.104248 0.618475 0.220217
O O7 0.040031 0.717960 0.428646
O O8 0.402056 0.290140 0.658779
O O9 0.578254 0.373509 0.536171
#
# Coordination Sequence:
#
# PCOD9558245 Si02
#       4
#     8   8   8   8
#     4  11  26  45  70 101 140 192 248 300 362 439
#     4  10  23  42  68 100 133 179 233 294 359 436
#     4  11  24  44  71 101 141 186 240 299 369 438
#     4  11  22  41  68 104 145 181 229 299 377 446
#
# _framework density 21.855034
#
# number of rings (size 3 to 8) (size 9 to 14) (size 15 to 20)
#    0.000    1.250    2.500    2.250    3.500   10.500 
#    0.000    0.000    0.000    0.000    0.000    0.000 
#    0.000    0.000    0.000    0.000    0.000    0.000 
#
# Total GULP energy -178352.680191 kJ/mol
# GULP energy per Si atom -5573.521256 kJ/mol
# Density = 2.180529 g / cm^3
# Si number density = 21.855034 Si / 1000 Ang^3
#
#
#
# Elastic Constant Matrix: (Units=GPa)
#
#
# Indices 1 2 3 4 5 6 
#
# 1 102.6473 37.3442 27.0330 0.0000 0.0000 0.0000
# 2 37.3442 102.6459 27.0331 0.0000 0.0000 0.0000
# 3 27.0330 27.0331 96.3982 0.0000 0.0000 0.0000
# 4 0.0000 0.0000 0.0000 -49.5170 0.0000 0.0000
# 5 0.0000 0.0000 0.0000 0.0000 -49.5218 0.0000
# 6 0.0000 0.0000 0.0000 0.0000 0.0000 19.5036
#
#
#
# Elastic Compliance Matrix: (Units=1/GPa)
#
#
# Indices 1 2 3 4 5 6 
#
# 1 0.011662 -0.003651 -0.002246 0.000000 0.000000 0.000000
# 2 -0.003651 0.011662 -0.002247 0.000000 0.000000 0.000000
# 3 -0.002246 -0.002247 0.011634 0.000000 0.000000 0.000000
# 4 0.000000 0.000000 0.000000 -0.020195 0.000000 0.000000
# 5 0.000000 0.000000 0.000000 0.000000 -0.020193 0.000000
# 6 0.000000 0.000000 0.000000 0.000000 0.000000 0.051273
#
#
# Mechanical properties :
#
#
# Convention : Reuss Voigt Hill
#
# Bulk Modulus (GPa) = 53.56340 53.83465 53.69902
# Shear Modulus (GPa) = 73.14873 -1.88829 35.63022
#
# Velocity S-wave (km/s) = 5.79160 -0.93053 4.04208
# Velocity P-wave (km/s) = 8.32377 4.85094 6.81237
#
# Compressibility (1/GPa) = 0.01866946
#
# Stress axis : x y z
#
# Youngs Moduli (GPa) = 85.74804 85.74670 85.95777
#
# Poissons Ratio (x) = 0.31308 0.19310
# Poissons Ratio (y) = 0.31308 0.19311
# Poissons Ratio (z) = 0.19263 0.19263
#
# Static dielectric constant tensor:
#      x y z
#    x 1.938600 0.000000 0.000000 
#    y 0.000000 1.938590 0.000000 
#    z 0.000000 0.000000 1.757760 
# 
# From -- ./inp_files/2385.got.cif
#   From: 2010.05.17/outbox.cif.g08.bks.cpg/sg117_2_cif.got.tgz:2385.got - 2010.05.20 11:15:09.
