data_PCOD9558696
_publ_section_title
;
Structure prediction by ZEFSAII (Michael W. Deem and Ramdas Pophale) SiO2 
 PCOD9558696
Probable space group: P -4 N 2
;
_chemical_formula_sum "Si O2"
_cell_formula_units_Z 20
_cell_length_a 5.107758
_cell_length_b 5.107758
_cell_length_c 33.383452
_cell_angle_alpha 90.000000
_cell_angle_beta 90.000000
_cell_angle_gamma 90.000000
_cell_volume 870.947282
_symmetry_space_group_name_H-M "P -4 N 2"
_symmetry_group_IT_number 118
_symmetry_cell_setting 'tetragonal'
loop_
_space_group_symop_operation_xyz
x,y,z
y,-x,-z
-x,-y,z
-y,x,-z
1/2+y,1/2+x,1/2-z
1/2-y,1/2-x,1/2-z
1/2-x,1/2+y,1/2+z
1/2+x,1/2-y,1/2+z
loop_
_atom_site_type_symbol
_atom_site_label
_atom_site_fract_x
_atom_site_fract_y
_atom_site_fract_z
Si Si1 0.000000 0.500000 0.750000
Si Si2 0.237462 0.672045 0.060777
Si Si3 0.000000 0.000000 0.000000
Si Si4 0.500000 0.500000 0.807346
Si Si5 0.500000 0.000000 0.862634
O O1 0.250379 0.477899 0.778712
O O2 0.500000 0.500000 0.061660
O O3 0.000000 0.500000 0.043443
O O4 0.871580 0.289650 0.106111
O O5 0.224731 0.917695 0.031771
O O6 0.439221 0.753625 0.834742
#
# Coordination Sequence:
#
# PCOD9558696 Si02
#       5
#     2   8   2   4   4
#     4  12  28  44  76 114 144 184 236 290 392 440
#     4  10  25  45  68 108 142 200 254 315 371 446
#     4  12  28  40  82  96 164 200 268 328 390 440
#     4  12  24  48  73 109 146 188 234 307 361 468
#     4  10  22  47  74 101 146 192 250 297 374 441
#
# _framework density 22.963501000000001
#
# number of rings (size 3 to 8) (size 9 to 14) (size 15 to 20)
#    1.200    0.000    2.000    2.400    5.600    3.200 
#    0.000    0.000    0.000    0.000    0.000    0.000 
#    0.000    0.000    0.000    0.000    0.000    0.000 
#
# Total GULP energy -111381.272790 kJ/mol
# GULP energy per Si atom -5569.063639 kJ/mol
# Density = 2.291124 g / cm^3
# Si number density = 22.963501 Si / 1000 Ang^3
#
#
#
# Elastic Constant Matrix: (Units=GPa)
#
#
# Indices 1 2 3 4 5 6 
#
# 1 163.9333 45.5695 81.3933 0.0000 0.0000 0.0000
# 2 45.5695 163.9333 81.3933 0.0000 0.0000 0.0000
# 3 81.3933 81.3933 221.1050 0.0000 0.0000 0.0000
# 4 0.0000 0.0000 0.0000 83.6450 0.0000 0.0000
# 5 0.0000 0.0000 0.0000 0.0000 83.6450 0.0000
# 6 0.0000 0.0000 0.0000 0.0000 0.0000 19.3756
#
#
#
# Elastic Compliance Matrix: (Units=1/GPa)
#
#
# Indices 1 2 3 4 5 6 
#
# 1 0.007567 -0.000882 -0.002461 0.000000 0.000000 0.000000
# 2 -0.000882 0.007567 -0.002461 0.000000 0.000000 0.000000
# 3 -0.002461 -0.002461 0.006335 0.000000 0.000000 0.000000
# 4 0.000000 0.000000 0.000000 0.011955 0.000000 0.000000
# 5 0.000000 0.000000 0.000000 0.000000 0.011955 0.000000
# 6 0.000000 0.000000 0.000000 0.000000 0.000000 0.051611
#
#
# Mechanical properties :
#
#
# Convention : Reuss Voigt Hill
#
# Bulk Modulus (GPa) = 101.40558 107.29818 104.35188
# Shear Modulus (GPa) = 44.68870 60.04082 52.36476
#
# Velocity S-wave (km/s) = 4.41622 5.11888 4.78048
# Velocity P-wave (km/s) = 8.38208 9.04236 8.71847
#
# Compressibility (1/GPa) = 0.00986139
#
# Stress axis : x y z
#
# Youngs Moduli (GPa) = 132.15265 132.15265 157.86137
#
# Poissons Ratio (x) = 0.11650 0.38851
# Poissons Ratio (y) = 0.11650 0.38851
# Poissons Ratio (z) = 0.32524 0.32524
#
# Static dielectric constant tensor:
#      x y z
#    x 0.703730 0.000000 0.000000 
#    y 0.000000 0.703730 0.000000 
#    z 0.000000 0.000000 1.856220 
# 
# From -- ./inp_files/6300.got.cif
#   From: 2010.05.17/outbox.cif.g08.bks.cpg/sg118_4_cif.got.tgz:6300.got - 2010.05.20 11:17:24.
