data_PCOD9558849
_publ_section_title
;
Structure prediction by ZEFSAII (Michael W. Deem and Ramdas Pophale) SiO2 
 PCOD9558849
Probable space group: P -4 N 2
;
_chemical_formula_sum "Si O2"
_cell_formula_units_Z 40
_cell_length_a 14.437886
_cell_length_b 14.437886
_cell_length_c 7.868912
_cell_angle_alpha 90.000000
_cell_angle_beta 90.000000
_cell_angle_gamma 90.000000
_cell_volume 1640.294789
_symmetry_space_group_name_H-M "P -4 N 2"
_symmetry_group_IT_number 118
_symmetry_cell_setting 'tetragonal'
loop_
_space_group_symop_operation_xyz
x,y,z
y,-x,-z
-x,-y,z
-y,x,-z
1/2+y,1/2+x,1/2-z
1/2-y,1/2-x,1/2-z
1/2-x,1/2+y,1/2+z
1/2+x,1/2-y,1/2+z
loop_
_atom_site_type_symbol
_atom_site_label
_atom_site_fract_x
_atom_site_fract_y
_atom_site_fract_z
Si Si1 0.210134 0.148160 0.303491
Si Si2 0.427707 0.923386 0.455158
Si Si3 0.420105 0.707823 0.492108
Si Si4 0.048548 0.899786 0.212792
Si Si5 0.542431 0.280248 0.008940
O O1 0.310629 0.189372 0.250000
O O2 0.152113 0.183722 0.140584
O O3 0.214114 0.038391 0.342197
O O4 0.150685 0.190583 0.463233
O O5 0.425322 0.925322 0.250000
O O6 0.442644 0.815449 0.495630
O O7 0.500000 0.000000 0.514717
O O8 0.328328 0.952598 0.525081
O O9 0.390097 0.659143 0.315208
O O10 0.508436 0.647152 0.544361
O O11 0.009861 0.842329 0.368945
O O12 0.000000 0.000000 0.232498
#
# Coordination Sequence:
#
# PCOD9558849 Si02
#       5
#     8   8   8   8   8
#     4  11  26  47  75 111 156 199 266 329 404 495
#     4  11  28  51  77 108 160 216 271 332 400 492
#     4  11  23  46  78 109 157 201 254 332 401 479
#     4  11  24  45  77 121 154 194 257 335 407 481
#     4  11  28  47  75 113 153 207 262 334 407 482
#
# _framework density 24.385861999999999
#
# number of rings (size 3 to 8) (size 9 to 14) (size 15 to 20)
#    0.000    1.000    4.000    0.000   14.000    0.000 
#    0.000   12.000    0.000    0.000    0.000    0.000 
#    0.000    0.000    0.000    0.000    0.000    0.000 
#
# Total GULP energy -222922.586020 kJ/mol
# GULP energy per Si atom -5573.064650 kJ/mol
# Density = 2.433036 g / cm^3
# Si number density = 24.385862 Si / 1000 Ang^3
#
#
#
# Elastic Constant Matrix: (Units=GPa)
#
#
# Indices 1 2 3 4 5 6 
#
# 1 142.8436 67.0852 40.1403 0.0000 0.0000 0.0000
# 2 67.0852 142.8445 40.1403 0.0000 0.0000 0.0000
# 3 40.1403 40.1403 53.9137 0.0000 0.0000 0.0000
# 4 0.0000 0.0000 0.0000 42.2357 0.0000 0.0000
# 5 0.0000 0.0000 0.0000 0.0000 42.2348 0.0000
# 6 0.0000 0.0000 0.0000 0.0000 0.0000 24.1668
#
#
#
# Elastic Compliance Matrix: (Units=1/GPa)
#
#
# Indices 1 2 3 4 5 6 
#
# 1 0.009930 -0.003270 -0.004958 0.000000 0.000000 0.000000
# 2 -0.003270 0.009930 -0.004958 0.000000 0.000000 0.000000
# 3 -0.004958 -0.004958 0.025931 0.000000 0.000000 0.000000
# 4 0.000000 0.000000 0.000000 0.023677 0.000000 0.000000
# 5 0.000000 0.000000 0.000000 0.000000 0.023677 0.000000
# 6 0.000000 0.000000 0.000000 0.000000 0.000000 0.041379
#
#
# Mechanical properties :
#
#
# Convention : Reuss Voigt Hill
#
# Bulk Modulus (GPa) = 51.50004 70.48148 60.99076
# Shear Modulus (GPa) = 29.87401 34.54318 32.20859
#
# Velocity S-wave (km/s) = 3.50388 3.76776 3.63821
# Velocity P-wave (km/s) = 6.12651 6.92050 6.53558
#
# Compressibility (1/GPa) = 0.01941746
#
# Stress axis : x y z
#
# Youngs Moduli (GPa) = 100.70748 100.70823 38.56337
#
# Poissons Ratio (x) = 0.32932 0.19121
# Poissons Ratio (y) = 0.32932 0.19121
# Poissons Ratio (z) = 0.49934 0.49934
#
# Static dielectric constant tensor:
#      x y z
#    x 1.984270 0.000000 0.000000 
#    y 0.000000 1.984260 0.000000 
#    z 0.000000 0.000000 2.258340 
# 
# From -- ./inp_files/1878.got.cif
#   From: 2010.05.17/outbox.cif.g08.bks.cpg/sg118_1_cif.got.tgz:1878.got - 2010.05.20 11:17:24.
