data_PCOD9558225
_publ_section_title
;
Structure prediction by ZEFSAII (Michael W. Deem and Ramdas Pophale) SiO2 
 PCOD9558225
Probable space group: P -4 B 2
;
_chemical_formula_sum "Si O2"
_cell_formula_units_Z 20
_cell_length_a 8.732020
_cell_length_b 8.732020
_cell_length_c 11.355182
_cell_angle_alpha 90.000000
_cell_angle_beta 90.000000
_cell_angle_gamma 90.000000
_cell_volume 865.811885
_symmetry_space_group_name_H-M "P -4 B 2"
_symmetry_group_IT_number 117
_symmetry_cell_setting 'tetragonal'
loop_
_space_group_symop_operation_xyz
x,y,z
y,-x,-z
-x,-y,z
-y,x,-z
1/2+y,1/2+x,-z
1/2-y,1/2-x,-z
1/2-x,1/2+y,z
1/2+x,1/2-y,z
loop_
_atom_site_type_symbol
_atom_site_label
_atom_site_fract_x
_atom_site_fract_y
_atom_site_fract_z
Si Si1 0.539743 0.793420 0.285181
Si Si2 0.000000 0.000000 0.000000
Si Si3 0.750190 0.565272 0.193592
Si Si4 0.000000 0.500000 0.500000
O O1 0.622613 0.632144 0.281877
O O2 0.394312 0.816325 0.198798
O O3 0.666303 0.913221 0.237340
O O4 0.496890 0.854405 0.413755
O O5 0.151051 0.959665 0.076762
#
# Coordination Sequence:
#
# PCOD9558225 Si02
#       4
#     8   2   8   2
#     4  10  22  43  64  99 129 168 220 277 327 415
#     4  12  24  44  64  94 136 192 220 288 348 382
#     4  10  23  39  63  91 130 167 224 265 327 400
#     4   8  20  40  68  88 132 170 204 272 348 376
#
# _framework density 23.099708
#
# number of rings (size 3 to 8) (size 9 to 14) (size 15 to 20)
#    0.000    2.400    0.000    2.400    0.000   12.800 
#    0.000   12.000    0.000   19.200    0.000    0.000 
#    0.000    0.000    0.000    0.000    0.000    0.000 
#
# Total GULP energy -111582.376949 kJ/mol
# GULP energy per Si atom -5579.118847 kJ/mol
# Density = 2.304713 g / cm^3
# Si number density = 23.099708 Si / 1000 Ang^3
#
#
#
# Elastic Constant Matrix: (Units=GPa)
#
#
# Indices 1 2 3 4 5 6 
#
# 1 101.4556 95.8550 53.3840 0.0000 0.0000 0.0000
# 2 95.8550 101.4556 53.3840 0.0000 0.0000 0.0000
# 3 53.3840 53.3840 139.9744 0.0000 0.0000 0.0000
# 4 0.0000 0.0000 0.0000 27.4705 0.0000 0.0000
# 5 0.0000 0.0000 0.0000 0.0000 27.4705 0.0000
# 6 0.0000 0.0000 0.0000 0.0000 0.0000 77.5483
#
#
#
# Elastic Compliance Matrix: (Units=1/GPa)
#
#
# Indices 1 2 3 4 5 6 
#
# 1 0.092470 -0.086084 -0.002436 0.000000 0.000000 0.000000
# 2 -0.086084 0.092470 -0.002436 0.000000 0.000000 0.000000
# 3 -0.002436 -0.002436 0.009002 0.000000 0.000000 0.000000
# 4 0.000000 0.000000 0.000000 0.036403 0.000000 0.000000
# 5 0.000000 0.000000 0.000000 0.000000 0.036403 0.000000
# 6 0.000000 0.000000 0.000000 0.000000 0.000000 0.012895
#
#
# Mechanical properties :
#
#
# Convention : Reuss Voigt Hill
#
# Bulk Modulus (GPa) = 83.11258 83.12574 83.11916
# Shear Modulus (GPa) = 10.73966 35.84869 23.29417
#
# Velocity S-wave (km/s) = 2.15855 3.94370 3.17901
# Velocity P-wave (km/s) = 6.50158 7.53663 7.03816
#
# Compressibility (1/GPa) = 0.01203187
#
# Stress axis : x y z
#
# Youngs Moduli (GPa) = 10.81428 10.81428 111.08739
#
# Poissons Ratio (x) = 0.93094 0.27056
# Poissons Ratio (y) = 0.93094 0.27056
# Poissons Ratio (z) = 0.02634 0.02634
#
# Static dielectric constant tensor:
#      x y z
#    x 1.722000 0.000000 0.000000 
#    y 0.000000 1.722000 0.000000 
#    z 0.000000 0.000000 1.848150 
# 
# From -- ./inp_files/2242.got.cif
#   From: 2010.05.17/outbox.cif.g08.bks.cpg/sg117_2_cif.got.tgz:2242.got - 2010.05.20 11:15:09.
