data_PCOD9558805
_publ_section_title
;
Structure prediction by ZEFSAII (Michael W. Deem and Ramdas Pophale) SiO2 
 PCOD9558805
Probable space group: P -4 N 2
;
_chemical_formula_sum "Si O2"
_cell_formula_units_Z 60
_cell_length_a 12.016629
_cell_length_b 12.016629
_cell_length_c 21.423030
_cell_angle_alpha 90.000000
_cell_angle_beta 90.000000
_cell_angle_gamma 90.000000
_cell_volume 3093.472090
_symmetry_space_group_name_H-M "P -4 N 2"
_symmetry_group_IT_number 118
_symmetry_cell_setting 'tetragonal'
loop_
_space_group_symop_operation_xyz
x,y,z
y,-x,-z
-x,-y,z
-y,x,-z
1/2+y,1/2+x,1/2-z
1/2-y,1/2-x,1/2-z
1/2-x,1/2+y,1/2+z
1/2+x,1/2-y,1/2+z
loop_
_atom_site_type_symbol
_atom_site_label
_atom_site_fract_x
_atom_site_fract_y
_atom_site_fract_z
Si Si1 0.326767 0.673512 0.419109
Si Si2 0.500000 0.500000 0.748322
Si Si3 0.233468 0.887850 0.576305
Si Si4 0.516744 0.656760 0.143943
Si Si5 0.273857 0.425209 0.447612
Si Si6 0.133273 0.822025 0.445609
Si Si7 0.836980 0.949560 0.145611
Si Si8 0.402938 0.081103 0.324784
O O1 0.269647 0.556370 0.436217
O O2 0.394792 0.716797 0.479676
O O3 0.229802 0.761023 0.406965
O O4 0.417861 0.660850 0.365288
O O5 0.593540 0.539714 0.797840
O O6 0.577536 0.426007 0.702460
O O7 0.145557 0.878161 0.632806
O O8 0.350519 0.824567 0.582294
O O9 0.173562 0.829523 0.516861
O O10 0.241833 0.017479 0.560177
O O11 0.444936 0.624229 0.083471
O O12 0.525719 0.787361 0.155524
O O13 0.386990 0.385221 0.414299
O O14 0.709269 0.912966 0.153758
O O15 0.412357 0.087644 0.250000
O O16 0.500000 0.000000 0.348835
#
# Coordination Sequence:
#
# PCOD9558805 Si02
#       8
#     8   4   8   8   8   8   8   8
#     4  11  23  39  60  89 121 156 196 247 305 358
#     4  12  24  34  66  88 114 162 214 236 294 344
#     4  11  22  38  64  88 116 158 198 244 298 361
#     4  12  22  40  61  90 118 157 203 249 289 360
#     4  11  22  38  64  88 116 158 198 244 298 361
#     4  11  23  39  60  89 121 156 196 247 305 358
#     4  12  22  40  61  90 118 157 203 249 289 360
#     4  11  24  40  60  90 125 157 193 248 308 353
#
# _framework density 19.395682999999998
#
# number of rings (size 3 to 8) (size 9 to 14) (size 15 to 20)
#    0.000    0.667    8.000    0.800    0.000    0.533 
#    0.000    0.000    0.000    0.000    0.000    1.867 
#    0.000    0.000    0.000    0.000    0.000    0.000 
#
# Total GULP energy -334724.070862 kJ/mol
# GULP energy per Si atom -5578.734514 kJ/mol
# Density = 1.935154 g / cm^3
# Si number density = 19.395683 Si / 1000 Ang^3
#
#
#
# Elastic Constant Matrix: (Units=GPa)
#
#
# Indices 1 2 3 4 5 6 
#
# 1 82.1459 32.3514 -4.2757 0.0000 0.0000 0.0000
# 2 32.3514 82.1459 -4.2758 0.0000 0.0000 0.0000
# 3 -4.2757 -4.2758 26.3851 0.0000 0.0000 0.0000
# 4 0.0000 0.0000 0.0000 13.6826 0.0000 0.0000
# 5 0.0000 0.0000 0.0000 0.0000 13.6827 0.0000
# 6 0.0000 0.0000 0.0000 0.0000 0.0000 23.7263
#
#
#
# Elastic Compliance Matrix: (Units=1/GPa)
#
#
# Indices 1 2 3 4 5 6 
#
# 1 0.014462 -0.005621 0.001433 0.000000 0.000000 0.000000
# 2 -0.005621 0.014462 0.001433 0.000000 0.000000 0.000000
# 3 0.001433 0.001433 0.038364 0.000000 0.000000 0.000000
# 4 0.000000 0.000000 0.000000 0.073085 0.000000 0.000000
# 5 0.000000 0.000000 0.000000 0.000000 0.073085 0.000000
# 6 0.000000 0.000000 0.000000 0.000000 0.000000 0.042147
#
#
# Mechanical properties :
#
#
# Convention : Reuss Voigt Hill
#
# Bulk Modulus (GPa) = 16.18729 26.47518 21.33124
# Shear Modulus (GPa) = 17.74883 21.34346 19.54615
#
# Velocity S-wave (km/s) = 3.02833 3.32086 3.17796
# Velocity P-wave (km/s) = 4.53780 5.32765 4.94851
#
# Compressibility (1/GPa) = 0.06177686
#
# Stress axis : x y z
#
# Youngs Moduli (GPa) = 69.14822 69.14824 26.06577
#
# Poissons Ratio (x) = 0.38867 -0.03734
# Poissons Ratio (y) = 0.38867 -0.03735
# Poissons Ratio (z) = -0.09906 -0.09907
#
# Static dielectric constant tensor:
#      x y z
#    x 1.683120 0.000000 0.000000 
#    y 0.000000 1.683120 0.000000 
#    z 0.000000 0.000000 1.699160 
# 
# From -- ./inp_files/5761.got.cif
#   From: 2010.05.17/outbox.cif.g08.bks.cpg/sg118_3_cif.got.tgz:5761.got - 2010.05.20 11:17:24.
