data_PCOD9558836
_publ_section_title
;
Structure prediction by ZEFSAII (Michael W. Deem and Ramdas Pophale) SiO2 
 PCOD9558836
Probable space group: P -4 N 2
;
_chemical_formula_sum "Si O2"
_cell_formula_units_Z 42
_cell_length_a 14.743353
_cell_length_b 14.743353
_cell_length_c 7.973297
_cell_angle_alpha 90.000000
_cell_angle_beta 90.000000
_cell_angle_gamma 90.000000
_cell_volume 1733.127325
_symmetry_space_group_name_H-M "P -4 N 2"
_symmetry_group_IT_number 118
_symmetry_cell_setting 'tetragonal'
loop_
_space_group_symop_operation_xyz
x,y,z
y,-x,-z
-x,-y,z
-y,x,-z
1/2+y,1/2+x,1/2-z
1/2-y,1/2-x,1/2-z
1/2-x,1/2+y,1/2+z
1/2+x,1/2-y,1/2+z
loop_
_atom_site_type_symbol
_atom_site_label
_atom_site_fract_x
_atom_site_fract_y
_atom_site_fract_z
Si Si1 0.685426 0.006122 0.131569
Si Si2 0.000000 0.000000 0.500000
Si Si3 0.867264 0.847510 0.372898
Si Si4 0.631705 0.563412 0.488879
Si Si5 0.601244 0.832961 0.026454
Si Si6 0.921859 0.651619 0.420299
O O1 0.675423 0.911314 0.030576
O O2 0.660861 0.969094 0.314994
O O3 0.784867 0.049047 0.114630
O O4 0.617475 0.078485 0.050850
O O5 0.071390 0.064206 0.405146
O O6 0.876962 0.837902 0.170999
O O7 0.766763 0.860272 0.445938
O O8 0.904097 0.756970 0.459778
O O9 0.605031 0.460218 0.434640
O O10 0.529035 0.852080 0.882396
O O11 0.869429 0.630571 0.250000
#
# Coordination Sequence:
#
# PCOD9558836 Si02
#       6
#     8   2   8   8   8   8
#     4  11  25  44  76 100 142 196 246 297 374 455
#     4  12  24  48  70 100 152 192 244 294 388 448
#     4  12  25  45  73 108 147 195 245 313 373 449
#     4  11  23  42  71 108 142 188 247 308 370 443
#     4  11  26  48  71 103 146 199 245 302 380 451
#     4  12  26  46  73 107 148 190 248 309 369 449
#
# _framework density 24.233650000000001
#
# number of rings (size 3 to 8) (size 9 to 14) (size 15 to 20)
#    0.000    0.571    5.714    2.286    5.333    3.048 
#    0.000    0.000    4.190    0.000    0.000    0.000 
#    0.000    0.000    0.000    0.000    0.000    0.000 
#
# Total GULP energy -234735.784396 kJ/mol
# GULP energy per Si atom -5588.947248 kJ/mol
# Density = 2.417849 g / cm^3
# Si number density = 24.233650 Si / 1000 Ang^3
#
#
#
# Elastic Constant Matrix: (Units=GPa)
#
#
# Indices 1 2 3 4 5 6 
#
# 1 31.0916 91.1129 7.1917 0.0000 0.0000 0.0000
# 2 91.1129 31.0916 7.1917 0.0000 0.0000 0.0000
# 3 7.1917 7.1917 34.0084 0.0000 0.0000 0.0000
# 4 0.0000 0.0000 0.0000 25.9395 0.0000 0.0000
# 5 0.0000 0.0000 0.0000 0.0000 25.9395 0.0000
# 6 0.0000 0.0000 0.0000 0.0000 0.0000 49.6298
#
#
#
# Elastic Compliance Matrix: (Units=1/GPa)
#
#
# Indices 1 2 3 4 5 6 
#
# 1 -0.004134 0.012526 -0.001775 0.000000 0.000000 0.000000
# 2 0.012526 -0.004134 -0.001775 0.000000 0.000000 0.000000
# 3 -0.001775 -0.001775 0.030155 0.000000 0.000000 0.000000
# 4 0.000000 0.000000 0.000000 0.038551 0.000000 0.000000
# 5 0.000000 0.000000 0.000000 0.000000 0.038551 0.000000
# 6 0.000000 0.000000 0.000000 0.000000 0.000000 0.020149
#
#
# Mechanical properties :
#
#
# Convention : Reuss Voigt Hill
#
# Bulk Modulus (GPa) = 25.10019 34.13158 29.61589
# Shear Modulus (GPa) = 43.68189 19.68142 31.68166
#
# Velocity S-wave (km/s) = 4.25023 2.85292 3.61964
# Velocity P-wave (km/s) = 5.87077 4.99672 5.45129
#
# Compressibility (1/GPa) = 0.03984033
#
# Stress axis : x y z
#
# Youngs Moduli (GPa) = -241.87118 -241.87118 33.16193
#
# Poissons Ratio (x) = 3.02975 0.05885
# Poissons Ratio (y) = 3.02975 0.05885
# Poissons Ratio (z) = -0.42923 -0.42923
#
# Static dielectric constant tensor:
#      x y z
#    x 1.953670 0.000000 0.000000 
#    y 0.000000 1.953670 0.000000 
#    z 0.000000 0.000000 2.228210 
# 
# From -- ./inp_files/1947.got.cif
#   From: 2010.05.17/outbox.cif.g08.bks.cpg/sg118_1_cif.got.tgz:1947.got - 2010.05.20 11:17:24.
