data_PCOD9558167
_publ_section_title
;
Structure prediction by ZEFSAII (Michael W. Deem and Ramdas Pophale) SiO2 
 PCOD9558167
Probable space group: P -4 B 2
;
_chemical_formula_sum "Si O2"
_cell_formula_units_Z 38
_cell_length_a 16.706943
_cell_length_b 16.706943
_cell_length_c 7.204016
_cell_angle_alpha 90.000000
_cell_angle_beta 90.000000
_cell_angle_gamma 90.000000
_cell_volume 2010.798953
_symmetry_space_group_name_H-M "P -4 B 2"
_symmetry_group_IT_number 117
_symmetry_cell_setting 'tetragonal'
loop_
_space_group_symop_operation_xyz
x,y,z
y,-x,-z
-x,-y,z
-y,x,-z
1/2+y,1/2+x,-z
1/2-y,1/2-x,-z
1/2-x,1/2+y,z
1/2+x,1/2-y,z
loop_
_atom_site_type_symbol
_atom_site_label
_atom_site_fract_x
_atom_site_fract_y
_atom_site_fract_z
Si Si1 0.853115 0.353115 0.000000
Si Si2 0.036327 0.875702 0.535421
Si Si3 0.000000 0.500000 0.500000
Si Si4 0.696747 0.404989 0.824489
Si Si5 0.621180 0.026273 0.163503
Si Si6 0.297738 0.455475 0.112854
O O1 0.856187 0.276493 0.130866
O O2 0.854858 0.436284 0.108945
O O3 0.079108 0.817156 0.391852
O O4 0.954223 0.908789 0.442258
O O5 0.011489 0.833708 0.724688
O O6 0.985042 0.572746 0.645714
O O7 0.620321 0.356061 0.899157
O O8 0.702841 0.490383 0.928778
O O9 0.707350 0.069790 0.168236
O O10 0.567394 0.067394 0.000000
#
# Coordination Sequence:
#
# PCOD9558167 Si02
#       6
#     4   8   2   8   8   8
#     4  10  21  40  56  86 118 151 192 252 290 348
#     4   9  18  34  56  85 121 156 195 233 279 354
#     4  12  22  40  68  78 108 164 198 248 298 340
#     4  10  21  37  59  84 125 153 197 238 293 348
#     4  11  23  40  61  87 113 151 204 246 294 353
#     4  10  22  36  61  91 117 161 191 238 299 348
#
# _framework density 18.897963000000001
#
# number of rings (size 3 to 8) (size 9 to 14) (size 15 to 20)
#    0.000    1.895    2.105    1.263    4.421    2.105 
#    0.000    0.000    0.000    0.000    0.000    0.000 
#    0.000    0.000    0.000    0.000    0.000    0.000 
#
# Total GULP energy -211839.986721 kJ/mol
# GULP energy per Si atom -5574.736493 kJ/mol
# Density = 1.885495 g / cm^3
# Si number density = 18.897963 Si / 1000 Ang^3
#
#
#
# Elastic Constant Matrix: (Units=GPa)
#
#
# Indices 1 2 3 4 5 6 
#
# 1 61.4757 18.8094 19.0172 0.0000 0.0000 0.0000
# 2 18.8094 61.4757 19.0172 0.0000 0.0000 0.0000
# 3 19.0172 19.0172 48.0795 0.0000 0.0000 0.0000
# 4 0.0000 0.0000 0.0000 21.7907 0.0000 0.0000
# 5 0.0000 0.0000 0.0000 0.0000 21.7907 0.0000
# 6 0.0000 0.0000 0.0000 0.0000 0.0000 22.7564
#
#
#
# Elastic Compliance Matrix: (Units=1/GPa)
#
#
# Indices 1 2 3 4 5 6 
#
# 1 0.019383 -0.004055 -0.006063 0.000000 0.000000 0.000000
# 2 -0.004055 0.019383 -0.006063 0.000000 0.000000 0.000000
# 3 -0.006063 -0.006063 0.025595 0.000000 0.000000 0.000000
# 4 0.000000 0.000000 0.000000 0.045891 0.000000 0.000000
# 5 0.000000 0.000000 0.000000 0.000000 0.045891 0.000000
# 6 0.000000 0.000000 0.000000 0.000000 0.000000 0.043944
#
#
# Mechanical properties :
#
#
# Convention : Reuss Voigt Hill
#
# Bulk Modulus (GPa) = 31.25034 31.63541 31.44288
# Shear Modulus (GPa) = 20.56651 20.88002 20.72326
#
# Velocity S-wave (km/s) = 3.30251 3.32758 3.31507
# Velocity P-wave (km/s) = 5.57802 5.61607 5.59708
#
# Compressibility (1/GPa) = 0.03199965
#
# Stress axis : x y z
#
# Youngs Moduli (GPa) = 51.59233 51.59233 39.07024
#
# Poissons Ratio (x) = 0.20920 0.23687
# Poissons Ratio (y) = 0.20920 0.23687
# Poissons Ratio (z) = 0.31279 0.31279
#
# Static dielectric constant tensor:
#      x y z
#    x 1.673730 0.000000 0.000000 
#    y 0.000000 1.673730 0.000000 
#    z 0.000000 0.000000 1.636640 
# 
# From -- ./inp_files/596.got.cif
#   From: 2010.05.17/outbox.cif.g08.bks.cpg/sg117_1_cif.got.tgz:596.got - 2010.05.20 11:15:09.
