data_PCOD9558213
_publ_section_title
;
Structure prediction by ZEFSAII (Michael W. Deem and Ramdas Pophale) SiO2 
 PCOD9558213
Probable space group: P -4 B 2
;
_chemical_formula_sum "Si O2"
_cell_formula_units_Z 26
_cell_length_a 14.689926
_cell_length_b 14.689926
_cell_length_c 5.297620
_cell_angle_alpha 90.000000
_cell_angle_beta 90.000000
_cell_angle_gamma 90.000000
_cell_volume 1143.194218
_symmetry_space_group_name_H-M "P -4 B 2"
_symmetry_group_IT_number 117
_symmetry_cell_setting 'tetragonal'
loop_
_space_group_symop_operation_xyz
x,y,z
y,-x,-z
-x,-y,z
-y,x,-z
1/2+y,1/2+x,-z
1/2-y,1/2-x,-z
1/2-x,1/2+y,z
1/2+x,1/2-y,z
loop_
_atom_site_type_symbol
_atom_site_label
_atom_site_fract_x
_atom_site_fract_y
_atom_site_fract_z
Si Si1 0.000000 0.500000 0.500000
Si Si2 0.725559 0.382708 0.993488
Si Si3 0.812502 0.162174 0.501589
Si Si4 0.671776 0.053592 0.185946
O O1 0.005205 0.412834 0.679165
O O2 0.658373 0.358228 0.226030
O O3 0.773771 0.478594 0.032329
O O4 0.804434 0.304434 0.000000
O O5 0.672628 0.381170 0.730378
O O6 0.756682 0.256682 0.500000
O O7 0.737145 0.090867 0.406833
O O8 0.632744 0.132744 0.000000
#
# Coordination Sequence:
#
# PCOD9558213 Si02
#       4
#     2   8   8   8
#     4  12  26  36  64 106 140 160 200 294 358 388
#     4  10  23  40  64  93 131 178 228 266 337 414
#     4  10  22  41  63  90 133 184 220 267 330 423
#     4  12  25  42  65 103 140 175 222 290 356 396
#
# _framework density 22.743295
#
# number of rings (size 3 to 8) (size 9 to 14) (size 15 to 20)
#    0.000    1.231    1.538    5.077   10.769    0.000 
#    0.000    0.000    0.000    5.538    0.000    0.000 
#    0.000    0.000    0.000    0.000    0.000    0.000 
#
# Total GULP energy -145454.888555 kJ/mol
# GULP energy per Si atom -5594.418791 kJ/mol
# Density = 2.269153 g / cm^3
# Si number density = 22.743295 Si / 1000 Ang^3
#
#
#
# Elastic Constant Matrix: (Units=GPa)
#
#
# Indices 1 2 3 4 5 6 
#
# 1 71.1855 57.8622 51.1488 0.0000 0.0000 0.0000
# 2 57.8622 71.1855 51.1488 0.0000 0.0000 0.0000
# 3 51.1488 51.1488 133.5328 0.0000 0.0000 0.0000
# 4 0.0000 0.0000 0.0000 22.6936 0.0000 0.0000
# 5 0.0000 0.0000 0.0000 0.0000 22.6936 0.0000
# 6 0.0000 0.0000 0.0000 0.0000 0.0000 48.4021
#
#
#
# Elastic Compliance Matrix: (Units=1/GPa)
#
#
# Indices 1 2 3 4 5 6 
#
# 1 0.043092 -0.031964 -0.004263 0.000000 0.000000 0.000000
# 2 -0.031964 0.043092 -0.004263 0.000000 0.000000 0.000000
# 3 -0.004263 -0.004263 0.010754 0.000000 0.000000 0.000000
# 4 0.000000 0.000000 0.000000 0.044065 0.000000 0.000000
# 5 0.000000 0.000000 0.000000 0.000000 0.044065 0.000000
# 6 0.000000 0.000000 0.000000 0.000000 0.000000 0.020660
#
#
# Mechanical properties :
#
#
# Convention : Reuss Voigt Hill
#
# Bulk Modulus (GPa) = 62.65569 66.24705 64.45137
# Shear Modulus (GPa) = 17.12166 26.47413 21.79789
#
# Velocity S-wave (km/s) = 2.74674 3.41551 3.09921
# Velocity P-wave (km/s) = 6.13745 6.68922 6.41927
#
# Compressibility (1/GPa) = 0.01596024
#
# Stress axis : x y z
#
# Youngs Moduli (GPa) = 23.20608 23.20608 92.98648
#
# Poissons Ratio (x) = 0.74176 0.39636
# Poissons Ratio (y) = 0.74176 0.39636
# Poissons Ratio (z) = 0.09892 0.09892
#
# Static dielectric constant tensor:
#      x y z
#    x 1.843590 0.000000 0.000000 
#    y 0.000000 1.843590 0.000000 
#    z 0.000000 0.000000 1.883690 
# 
# From -- ./inp_files/275.got.cif
#   From: 2010.05.17/outbox.cif.g08.bks.cpg/sg117_1_cif.got.tgz:275.got - 2010.05.20 11:15:09.
