data_PCOD9558417
_publ_section_title
;
Structure prediction by ZEFSAII (Michael W. Deem and Ramdas Pophale) SiO2 
 PCOD9558417
Probable space group: P -4 N 2
;
_chemical_formula_sum "Si O2"
_cell_formula_units_Z 48
_cell_length_a 14.592753
_cell_length_b 14.592753
_cell_length_c 11.446393
_cell_angle_alpha 90.000000
_cell_angle_beta 90.000000
_cell_angle_gamma 90.000000
_cell_volume 2437.491534
_symmetry_space_group_name_H-M "P -4 N 2"
_symmetry_group_IT_number 118
_symmetry_cell_setting 'tetragonal'
loop_
_space_group_symop_operation_xyz
x,y,z
y,-x,-z
-x,-y,z
-y,x,-z
1/2+y,1/2+x,1/2-z
1/2-y,1/2-x,1/2-z
1/2-x,1/2+y,1/2+z
1/2+x,1/2-y,1/2+z
loop_
_atom_site_type_symbol
_atom_site_label
_atom_site_fract_x
_atom_site_fract_y
_atom_site_fract_z
Si Si1 0.724831 0.282118 0.460789
Si Si2 0.311015 0.068432 0.544348
Si Si3 0.114332 0.937103 0.939054
Si Si4 0.500000 0.000000 0.039739
Si Si5 0.580432 0.271416 0.120880
Si Si6 0.902086 0.597915 0.750000
Si Si7 0.080367 0.824888 0.249078
O O1 0.826684 0.310529 0.499216
O O2 0.641079 0.310501 0.542975
O O3 0.734687 0.174229 0.438837
O O4 0.704457 0.341323 0.343869
O O5 0.415414 0.035505 0.535940
O O6 0.263798 0.062094 0.670950
O O7 0.248348 0.005091 0.461090
O O8 0.135804 0.994584 0.822812
O O9 0.014750 0.889339 0.957366
O O10 0.569928 0.044607 0.132866
O O11 0.573490 0.203259 0.230108
O O12 0.600416 0.373106 0.165521
#
# Coordination Sequence:
#
# PCOD9558417 Si02
#       7
#     8   8   8   4   8   4   8
#     4  10  20  40  64  88 119 166 208 259 311 378
#     4  10  21  36  61  93 126 164 203 260 322 389
#     4   9  20  39  62  92 117 156 219 260 300 365
#     4   9  20  34  55  94 126 152 219 254 321 370
#     4  10  18  36  63  88 119 167 208 244 320 371
#     4   9  16  32  58  84 116 161 208 260 288 369
#     4  10  20  40  65  83 123 170 207 250 325 381
#
# _framework density 19.692375999999999
#
# number of rings (size 3 to 8) (size 9 to 14) (size 15 to 20)
#    0.000    2.333    1.667    1.500    0.000    5.333 
#    3.000   19.167   22.000    4.500    0.000    0.000 
#    0.000    0.000    0.000    0.000    0.000    0.000 
#
# Total GULP energy -267529.462261 kJ/mol
# GULP energy per Si atom -5573.530464 kJ/mol
# Density = 1.964756 g / cm^3
# Si number density = 19.692376 Si / 1000 Ang^3
#
#
#
# Elastic Constant Matrix: (Units=GPa)
#
#
# Indices 1 2 3 4 5 6 
#
# 1 114.3289 54.5657 46.7892 0.0000 0.0000 0.0000
# 2 54.5657 114.3298 46.7892 0.0000 0.0000 0.0000
# 3 46.7892 46.7892 61.7997 0.0000 0.0000 0.0000
# 4 0.0000 0.0000 0.0000 17.2877 0.0000 0.0000
# 5 0.0000 0.0000 0.0000 0.0000 17.2872 0.0000
# 6 0.0000 0.0000 0.0000 0.0000 0.0000 28.3274
#
#
#
# Elastic Compliance Matrix: (Units=1/GPa)
#
#
# Indices 1 2 3 4 5 6 
#
# 1 0.013466 -0.003267 -0.007722 0.000000 0.000000 0.000000
# 2 -0.003267 0.013466 -0.007722 0.000000 0.000000 0.000000
# 3 -0.007722 -0.007722 0.027874 0.000000 0.000000 0.000000
# 4 0.000000 0.000000 0.000000 0.057845 0.000000 0.000000
# 5 0.000000 0.000000 0.000000 0.000000 0.057846 0.000000
# 6 0.000000 0.000000 0.000000 0.000000 0.000000 0.035302
#
#
# Mechanical properties :
#
#
# Convention : Reuss Voigt Hill
#
# Bulk Modulus (GPa) = 57.52173 65.19406 61.35790
# Shear Modulus (GPa) = 20.07913 22.06806 21.07360
#
# Velocity S-wave (km/s) = 3.19664 3.35123 3.27485
# Velocity P-wave (km/s) = 6.54968 6.93919 6.74725
#
# Compressibility (1/GPa) = 0.01738474
#
# Stress axis : x y z
#
# Youngs Moduli (GPa) = 74.26101 74.26175 35.87554
#
# Poissons Ratio (x) = 0.24259 0.27703
# Poissons Ratio (y) = 0.24258 0.27703
# Poissons Ratio (z) = 0.57345 0.57345
#
# Static dielectric constant tensor:
#      x y z
#    x 1.730720 0.000000 0.000000 
#    y 0.000000 1.730720 0.000000 
#    z 0.000000 0.000000 1.702570 
# 
# From -- ./inp_files/3377.got.cif
#   From: 2010.05.17/outbox.cif.g08.bks.cpg/sg118_2_cif.got.tgz:3377.got - 2010.05.20 11:17:24.
