data_PCOD9558651
_publ_section_title
;
Structure prediction by ZEFSAII (Michael W. Deem and Ramdas Pophale) SiO2 
 PCOD9558651
Probable space group: P -4 N 2
;
_chemical_formula_sum "Si O2"
_cell_formula_units_Z 28
_cell_length_a 8.861992
_cell_length_b 8.861992
_cell_length_c 18.029212
_cell_angle_alpha 90.000000
_cell_angle_beta 90.000000
_cell_angle_gamma 90.000000
_cell_volume 1415.922401
_symmetry_space_group_name_H-M "P -4 N 2"
_symmetry_group_IT_number 118
_symmetry_cell_setting 'tetragonal'
loop_
_space_group_symop_operation_xyz
x,y,z
y,-x,-z
-x,-y,z
-y,x,-z
1/2+y,1/2+x,1/2-z
1/2-y,1/2-x,1/2-z
1/2-x,1/2+y,1/2+z
1/2+x,1/2-y,1/2+z
loop_
_atom_site_type_symbol
_atom_site_label
_atom_site_fract_x
_atom_site_fract_y
_atom_site_fract_z
Si Si1 0.514444 0.332852 0.132546
Si Si2 0.806879 0.824108 0.113743
Si Si3 0.655964 0.089952 0.030196
Si Si4 0.500000 0.500000 0.273452
O O1 0.500000 0.500000 0.097718
O O2 0.352713 0.248728 0.138589
O O3 0.623123 0.233714 0.082007
O O4 0.563935 0.373212 0.216467
O O5 0.770615 0.981222 0.072543
O O6 0.922380 0.869768 0.178083
O O7 0.870894 0.715242 0.050691
O O8 0.500000 0.000000 0.023820
#
# Coordination Sequence:
#
# PCOD9558651 Si02
#       4
#     8   8   8   4
#     4   9  23  38  62  92 129 170 217 272 334 397
#     4  11  21  40  63  93 129 171 220 274 333 393
#     4  10  23  38  64  96 128 171 221 275 332 399
#     4  10  22  39  61  88 134 172 214 274 328 394
#
# _framework density 19.775095
#
# number of rings (size 3 to 8) (size 9 to 14) (size 15 to 20)
#    0.857    1.143    0.000    2.571    8.000    1.143 
#    0.000    4.286    0.000    1.714    0.000    0.000 
#    0.000    0.000    0.000    0.000    0.000    0.000 
#
# Total GULP energy -156165.753468 kJ/mol
# GULP energy per Si atom -5577.348338 kJ/mol
# Density = 1.973009 g / cm^3
# Si number density = 19.775095 Si / 1000 Ang^3
#
#
#
# Elastic Constant Matrix: (Units=GPa)
#
#
# Indices 1 2 3 4 5 6 
#
# 1 50.4765 -3.4159 28.2249 0.0000 0.0000 0.0000
# 2 -3.4159 50.4765 28.2249 0.0000 0.0000 0.0000
# 3 28.2249 28.2249 123.3569 0.0000 0.0000 0.0000
# 4 0.0000 0.0000 0.0000 30.1958 0.0000 0.0000
# 5 0.0000 0.0000 0.0000 0.0000 30.1958 0.0000
# 6 0.0000 0.0000 0.0000 0.0000 0.0000 10.4209
#
#
#
# Elastic Compliance Matrix: (Units=1/GPa)
#
#
# Indices 1 2 3 4 5 6 
#
# 1 0.023921 0.005366 -0.006701 0.000000 0.000000 0.000000
# 2 0.005366 0.023921 -0.006701 0.000000 0.000000 0.000000
# 3 -0.006701 -0.006701 0.011173 0.000000 0.000000 0.000000
# 4 0.000000 0.000000 0.000000 0.033117 0.000000 0.000000
# 5 0.000000 0.000000 0.000000 0.000000 0.033117 0.000000
# 6 0.000000 0.000000 0.000000 0.000000 0.000000 0.095961
#
#
# Mechanical properties :
#
#
# Convention : Reuss Voigt Hill
#
# Bulk Modulus (GPa) = 23.28661 36.70861 29.99761
# Shear Modulus (GPa) = 19.87291 25.58088 22.72689
#
# Velocity S-wave (km/s) = 3.17353 3.60055 3.39376
# Velocity P-wave (km/s) = 5.02291 5.99072 5.52803
#
# Compressibility (1/GPa) = 0.04294313
#
# Stress axis : x y z
#
# Youngs Moduli (GPa) = 41.80361 41.80361 89.50082
#
# Poissons Ratio (x) = -0.22431 0.59976
# Poissons Ratio (y) = -0.22431 0.59976
# Poissons Ratio (z) = 0.28013 0.28013
#
# Static dielectric constant tensor:
#      x y z
#    x 1.717630 0.000000 0.000000 
#    y 0.000000 1.717630 0.000000 
#    z 0.000000 0.000000 1.698700 
# 
# From -- ./inp_files/4585.got.cif
#   From: 2010.05.17/outbox.cif.g08.bks.cpg/sg118_3_cif.got.tgz:4585.got - 2010.05.20 11:17:24.
