data_PCOD9558122
_publ_section_title
;
Structure prediction by ZEFSAII (Michael W. Deem and Ramdas Pophale) SiO2 
 PCOD9558122
Probable space group: P -4 B 2
;
_chemical_formula_sum "Si O2"
_cell_formula_units_Z 34
_cell_length_a 12.803335
_cell_length_b 12.803335
_cell_length_c 11.226743
_cell_angle_alpha 90.000000
_cell_angle_beta 90.000000
_cell_angle_gamma 90.000000
_cell_volume 1840.348192
_symmetry_space_group_name_H-M "P -4 B 2"
_symmetry_group_IT_number 117
_symmetry_cell_setting 'tetragonal'
loop_
_space_group_symop_operation_xyz
x,y,z
y,-x,-z
-x,-y,z
-y,x,-z
1/2+y,1/2+x,-z
1/2-y,1/2-x,-z
1/2-x,1/2+y,z
1/2+x,1/2-y,z
loop_
_atom_site_type_symbol
_atom_site_label
_atom_site_fract_x
_atom_site_fract_y
_atom_site_fract_z
Si Si1 0.651974 0.409100 0.503975
Si Si2 0.000000 0.500000 0.500000
Si Si3 0.392616 0.110744 0.140712
Si Si4 0.890197 0.582641 0.721853
Si Si5 0.232399 0.731499 0.314655
O O1 0.534192 0.361273 0.499640
O O2 0.719441 0.361299 0.395448
O O3 0.713222 0.364364 0.618305
O O4 0.090816 0.478576 0.596533
O O5 0.501010 0.159466 0.187176
O O6 0.301413 0.183176 0.189608
O O7 0.386908 0.000307 0.213555
O O8 0.399199 0.100802 0.000000
O O9 0.819682 0.680803 0.697848
#
# Coordination Sequence:
#
# PCOD9558122 Si02
#       5
#     8   2   8   8   8
#     4  10  21  36  53  79 113 139 166 215 278 334
#     4   8  16  32  54  80 108 134 164 216 284 340
#     4  10  22  37  54  77 108 147 188 229 270 316
#     4  10  20  36  58  83 112 143 182 232 284 338
#     4  11  21  34  57  83 105 141 184 223 267 330
#
# _framework density 18.474764
#
# number of rings (size 3 to 8) (size 9 to 14) (size 15 to 20)
#    0.000    2.118    0.000    5.647    0.000   13.176 
#    0.000    0.000    0.000    0.000    0.000    9.882 
#    0.000    0.000    0.000    0.000    0.000    0.000 
#
# Total GULP energy -189505.201698 kJ/mol
# GULP energy per Si atom -5573.682403 kJ/mol
# Density = 1.843271 g / cm^3
# Si number density = 18.474764 Si / 1000 Ang^3
#
#
#
# Elastic Constant Matrix: (Units=GPa)
#
#
# Indices 1 2 3 4 5 6 
#
# 1 68.5063 36.5620 34.0548 0.0000 0.0000 0.0000
# 2 36.5620 68.5062 34.0546 0.0000 0.0000 0.0000
# 3 34.0548 34.0546 145.7047 0.0000 0.0000 0.0000
# 4 0.0000 0.0000 0.0000 -3.6261 0.0000 0.0000
# 5 0.0000 0.0000 0.0000 0.0000 -3.6256 0.0000
# 6 0.0000 0.0000 0.0000 0.0000 0.0000 41.4939
#
#
#
# Elastic Compliance Matrix: (Units=1/GPa)
#
#
# Indices 1 2 3 4 5 6 
#
# 1 0.021261 -0.010044 -0.002622 0.000000 0.000000 0.000000
# 2 -0.010044 0.021261 -0.002622 0.000000 0.000000 0.000000
# 3 -0.002622 -0.002622 0.008089 0.000000 0.000000 0.000000
# 4 0.000000 0.000000 0.000000 -0.275775 0.000000 0.000000
# 5 0.000000 0.000000 0.000000 0.000000 -0.275818 0.000000
# 6 0.000000 0.000000 0.000000 0.000000 0.000000 0.024100
#
#
# Mechanical properties :
#
#
# Convention : Reuss Voigt Hill
#
# Bulk Modulus (GPa) = 49.90989 54.67333 52.29161
# Shear Modulus (GPa) = -11.37320 18.71817 3.67249
#
# Velocity S-wave (km/s) = -2.48384 3.18649 1.41144
# Velocity P-wave (km/s) = 4.34142 6.57237 5.56974
#
# Compressibility (1/GPa) = 0.02003611
#
# Stress axis : x y z
#
# Youngs Moduli (GPa) = 47.03491 47.03486 123.62914
#
# Poissons Ratio (x) = 0.47240 0.32412
# Poissons Ratio (y) = 0.47240 0.32412
# Poissons Ratio (z) = 0.12331 0.12331
#
# Static dielectric constant tensor:
#      x y z
#    x 1.674290 0.000000 0.000000 
#    y 0.000000 1.674290 0.000000 
#    z 0.000000 0.000000 1.610930 
# 
# From -- ./inp_files/2558.got.cif
#   From: 2010.05.17/outbox.cif.g08.bks.cpg/sg117_2_cif.got.tgz:2558.got - 2010.05.20 11:15:09.
