data_PCOD9558161
_publ_section_title
;
Structure prediction by ZEFSAII (Michael W. Deem and Ramdas Pophale) SiO2 
 PCOD9558161
Probable space group: P -4 B 2
;
_chemical_formula_sum "Si O2"
_cell_formula_units_Z 40
_cell_length_a 12.688355
_cell_length_b 12.688355
_cell_length_c 13.749996
_cell_angle_alpha 90.000000
_cell_angle_beta 90.000000
_cell_angle_gamma 90.000000
_cell_volume 2213.671704
_symmetry_space_group_name_H-M "P -4 B 2"
_symmetry_group_IT_number 117
_symmetry_cell_setting 'tetragonal'
loop_
_space_group_symop_operation_xyz
x,y,z
y,-x,-z
-x,-y,z
-y,x,-z
1/2+y,1/2+x,-z
1/2-y,1/2-x,-z
1/2-x,1/2+y,z
1/2+x,1/2-y,z
loop_
_atom_site_type_symbol
_atom_site_label
_atom_site_fract_x
_atom_site_fract_y
_atom_site_fract_z
Si Si1 0.134373 0.225036 0.058459
Si Si2 0.375789 0.121729 0.391951
Si Si3 0.939688 0.113641 0.118111
Si Si4 0.228920 0.226049 0.763850
Si Si5 0.622509 0.128912 0.608512
O O1 0.225264 0.217306 0.139640
O O2 0.024182 0.209127 0.113815
O O3 0.168838 0.331163 0.000000
O O4 0.124709 0.130434 0.980047
O O5 0.342244 0.157757 0.500000
O O6 0.331419 0.188521 0.304468
O O7 0.502463 0.127517 0.389431
O O8 0.342683 0.000388 0.382581
O O9 0.855918 0.138282 0.202715
O O10 0.000000 0.000000 0.125873
O O11 0.182346 0.318727 0.697483
O O12 0.660327 0.160327 0.500000
#
# Coordination Sequence:
#
# PCOD9558161 Si02
#       5
#     8   8   8   8   8
#     4  10  21  35  56  78 108 150 191 227 287 345
#     4   9  19  37  57  80 119 153 183 233 287 332
#     4  11  21  39  57  78 117 154 183 238 303 338
#     4  11  22  32  60  91 107 145 206 233 269 347
#     4   9  19  37  57  81 117 156 185 229 290 336
#
# _framework density 18.069526
#
# number of rings (size 3 to 8) (size 9 to 14) (size 15 to 20)
#    0.000    2.000    2.000    3.000    2.800    0.000 
#    0.000    0.000    0.000    4.200    0.000    0.000 
#    0.000    0.000    0.000    0.000    0.000    0.000 
#
# Total GULP energy -222708.274948 kJ/mol
# GULP energy per Si atom -5567.706874 kJ/mol
# Density = 1.802840 g / cm^3
# Si number density = 18.069526 Si / 1000 Ang^3
#
#
#
# Elastic Constant Matrix: (Units=GPa)
#
#
# Indices 1 2 3 4 5 6 
#
# 1 52.7777 29.5748 29.5960 0.0000 0.0000 0.0000
# 2 29.5748 52.7770 29.5957 0.0000 0.0000 0.0000
# 3 29.5960 29.5957 106.1517 0.0000 0.0000 0.0000
# 4 0.0000 0.0000 0.0000 25.6252 0.0000 0.0000
# 5 0.0000 0.0000 0.0000 0.0000 25.6255 0.0000
# 6 0.0000 0.0000 0.0000 0.0000 0.0000 31.8149
#
#
#
# Elastic Compliance Matrix: (Units=1/GPa)
#
#
# Indices 1 2 3 4 5 6 
#
# 1 0.029142 -0.013956 -0.004234 0.000000 0.000000 0.000000
# 2 -0.013956 0.029143 -0.004234 0.000000 0.000000 0.000000
# 3 -0.004234 -0.004234 0.011781 0.000000 0.000000 0.000000
# 4 0.000000 0.000000 0.000000 0.039024 0.000000 0.000000
# 5 0.000000 0.000000 0.000000 0.000000 0.039024 0.000000
# 6 0.000000 0.000000 0.000000 0.000000 0.000000 0.031432
#
#
# Mechanical properties :
#
#
# Convention : Reuss Voigt Hill
#
# Bulk Modulus (GPa) = 39.65456 43.24883 41.45170
# Shear Modulus (GPa) = 21.47760 24.80909 23.14335
#
# Velocity S-wave (km/s) = 3.45136 3.70939 3.58270
# Velocity P-wave (km/s) = 6.15432 6.50636 6.33279
#
# Compressibility (1/GPa) = 0.02521778
#
# Stress axis : x y z
#
# Youngs Moduli (GPa) = 34.31436 34.31393 84.87926
#
# Poissons Ratio (x) = 0.47889 0.35938
# Poissons Ratio (y) = 0.47890 0.35938
# Poissons Ratio (z) = 0.14529 0.14529
#
# Static dielectric constant tensor:
#      x y z
#    x 1.628210 0.000000 0.000000 
#    y 0.000000 1.628210 0.000000 
#    z 0.000000 0.000000 1.647720 
# 
# From -- ./inp_files/3105.got.cif
#   From: 2010.05.17/outbox.cif.g08.bks.cpg/sg117_2_cif.got.tgz:3105.got - 2010.05.20 11:15:09.
