data_PCOD9558363
_publ_section_title
;
Structure prediction by ZEFSAII (Michael W. Deem and Ramdas Pophale) SiO2 
 PCOD9558363
Probable space group: P -4 B 2
;
_chemical_formula_sum "Si O2"
_cell_formula_units_Z 22
_cell_length_a 9.856685
_cell_length_b 9.856685
_cell_length_c 9.797382
_cell_angle_alpha 90.000000
_cell_angle_beta 90.000000
_cell_angle_gamma 90.000000
_cell_volume 951.857194
_symmetry_space_group_name_H-M "P -4 B 2"
_symmetry_group_IT_number 117
_symmetry_cell_setting 'tetragonal'
loop_
_space_group_symop_operation_xyz
x,y,z
y,-x,-z
-x,-y,z
-y,x,-z
1/2+y,1/2+x,-z
1/2-y,1/2-x,-z
1/2-x,1/2+y,z
1/2+x,1/2-y,z
loop_
_atom_site_type_symbol
_atom_site_label
_atom_site_fract_x
_atom_site_fract_y
_atom_site_fract_z
Si Si1 0.311596 0.678047 0.367475
Si Si2 0.500000 0.000000 0.000000
Si Si3 0.432007 0.752762 0.812823
Si Si4 0.500000 0.500000 0.500000
Si Si5 0.500000 0.500000 0.000000
O O1 0.238645 0.738645 0.500000
O O2 0.255598 0.535342 0.313528
O O3 0.296527 0.786409 0.246268
O O4 0.463682 0.631351 0.409482
O O5 0.507323 0.132158 0.908269
O O6 0.435317 0.614372 0.900924
#
# Coordination Sequence:
#
# PCOD9558363 Si02
#       5
#     8   2   8   2   2
#     4  12  27  47  80 111 151 202 249 318 391 450
#     4  12  28  44  66 116 148 208 260 314 364 452
#     4  12  27  46  78 107 159 199 264 309 382 456
#     4  12  26  52  72 118 156 198 240 316 414 436
#     4  12  26  52  78 108 156 218 248 314 380 448
#
# _framework density 23.112711999999998
#
# number of rings (size 3 to 8) (size 9 to 14) (size 15 to 20)
#    0.000    0.000    3.636    5.455    5.091    0.000 
#    0.000    0.000    0.000    0.000    0.000    0.000 
#    0.000    0.000    0.000    0.000    0.000    0.000 
#
# Total GULP energy -123153.372767 kJ/mol
# GULP energy per Si atom -5597.880580 kJ/mol
# Density = 2.306011 g / cm^3
# Si number density = 23.112712 Si / 1000 Ang^3
#
#
#
# Elastic Constant Matrix: (Units=GPa)
#
#
# Indices 1 2 3 4 5 6 
#
# 1 123.2440 41.6673 44.6236 0.0000 0.0000 0.0000
# 2 41.6673 123.2440 44.6236 0.0000 0.0000 0.0000
# 3 44.6236 44.6236 117.1202 0.0000 0.0000 0.0000
# 4 0.0000 0.0000 0.0000 41.2737 0.0000 0.0000
# 5 0.0000 0.0000 0.0000 0.0000 41.2737 0.0000
# 6 0.0000 0.0000 0.0000 0.0000 0.0000 40.8526
#
#
#
# Elastic Compliance Matrix: (Units=1/GPa)
#
#
# Indices 1 2 3 4 5 6 
#
# 1 0.009949 -0.002310 -0.002911 0.000000 0.000000 0.000000
# 2 -0.002310 0.009949 -0.002911 0.000000 0.000000 0.000000
# 3 -0.002911 -0.002911 0.010756 0.000000 0.000000 0.000000
# 4 0.000000 0.000000 0.000000 0.024228 0.000000 0.000000
# 5 0.000000 0.000000 0.000000 0.000000 0.024228 0.000000
# 6 0.000000 0.000000 0.000000 0.000000 0.000000 0.024478
#
#
# Mechanical properties :
#
#
# Convention : Reuss Voigt Hill
#
# Bulk Modulus (GPa) = 69.48291 69.49302 69.48796
# Shear Modulus (GPa) = 40.11313 40.19293 40.15303
#
# Velocity S-wave (km/s) = 4.17051 4.17465 4.17258
# Velocity P-wave (km/s) = 7.30197 7.30543 7.30370
#
# Compressibility (1/GPa) = 0.01439203
#
# Stress axis : x y z
#
# Youngs Moduli (GPa) = 100.51574 100.51574 92.97070
#
# Poissons Ratio (x) = 0.23216 0.27059
# Poissons Ratio (y) = 0.23216 0.27059
# Poissons Ratio (z) = 0.29255 0.29255
#
# Static dielectric constant tensor:
#      x y z
#    x 1.751610 0.000000 0.000000 
#    y 0.000000 1.751610 0.000000 
#    z 0.000000 0.000000 2.040830 
# 
# From -- ./inp_files/2258.got.cif
#   From: 2010.05.17/outbox.cif.g08.bks.cpg/sg117_2_cif.got.tgz:2258.got - 2010.05.20 11:15:09.
