data_PCOD9558108
_publ_section_title
;
Structure prediction by ZEFSAII (Michael W. Deem and Ramdas Pophale) SiO2 
 PCOD9558108
Probable space group: P -4 B 2
;
_chemical_formula_sum "Si O2"
_cell_formula_units_Z 26
_cell_length_a 14.477556
_cell_length_b 14.477556
_cell_length_c 5.285155
_cell_angle_alpha 90.000000
_cell_angle_beta 90.000000
_cell_angle_gamma 90.000000
_cell_volume 1107.766521
_symmetry_space_group_name_H-M "P -4 B 2"
_symmetry_group_IT_number 117
_symmetry_cell_setting 'tetragonal'
loop_
_space_group_symop_operation_xyz
x,y,z
y,-x,-z
-x,-y,z
-y,x,-z
1/2+y,1/2+x,-z
1/2-y,1/2-x,-z
1/2-x,1/2+y,z
1/2+x,1/2-y,z
loop_
_atom_site_type_symbol
_atom_site_label
_atom_site_fract_x
_atom_site_fract_y
_atom_site_fract_z
Si Si1 0.902572 0.835137 0.318163
Si Si2 0.481530 0.838266 0.094892
Si Si3 0.266159 0.053841 0.407221
Si Si4 0.000000 0.000000 0.000000
O O1 0.908125 0.744758 0.141395
O O2 0.967768 0.804645 0.549835
O O3 0.951493 0.920054 0.169999
O O4 0.801505 0.859610 0.415412
O O5 0.536557 0.836141 0.360364
O O6 0.427295 0.927295 0.000000
O O7 0.546544 0.808674 0.867067
#
# Coordination Sequence:
#
# PCOD9558108 Si02
#       4
#     8   8   8   2
#     4  10  20  28  51  71 106 130 176 204 257 301
#     4  10  22  34  46  66 105 145 169 205 261 309
#     4  10  20  31  49  70  98 137 171 213 240 312
#     4  12  16  34  44  86 104 138 164 210 244 306
#
# _framework density 23.470648000000001
#
# number of rings (size 3 to 8) (size 9 to 14) (size 15 to 20)
#    1.846    0.000    3.077    2.769    4.308    0.000 
#    0.000    0.000    0.000    0.000    0.000    0.000 
#    0.000    1.231    1.846    0.000    0.000    0.000 
#
# Total GULP energy -145069.760773 kJ/mol
# GULP energy per Si atom -5579.606184 kJ/mol
# Density = 2.341723 g / cm^3
# Si number density = 23.470648 Si / 1000 Ang^3
#
#
#
# Elastic Constant Matrix: (Units=GPa)
#
#
# Indices 1 2 3 4 5 6 
#
# 1 15.6510 117.6399 30.4014 0.0000 0.0000 0.0000
# 2 117.6399 15.6510 30.4014 0.0000 0.0000 0.0000
# 3 30.4014 30.4014 136.4676 0.0000 0.0000 0.0000
# 4 0.0000 0.0000 0.0000 28.9636 0.0000 0.0000
# 5 0.0000 0.0000 0.0000 0.0000 28.9636 0.0000
# 6 0.0000 0.0000 0.0000 0.0000 0.0000 52.3556
#
#
#
# Elastic Compliance Matrix: (Units=1/GPa)
#
#
# Indices 1 2 3 4 5 6 
#
# 1 -0.000727 0.009078 -0.001860 0.000000 0.000000 0.000000
# 2 0.009078 -0.000727 -0.001860 0.000000 0.000000 0.000000
# 3 -0.001860 -0.001860 0.008157 0.000000 0.000000 0.000000
# 4 0.000000 0.000000 0.000000 0.034526 0.000000 0.000000
# 5 0.000000 0.000000 0.000000 0.000000 0.034526 0.000000
# 6 0.000000 0.000000 0.000000 0.000000 0.000000 0.019100
#
#
# Mechanical properties :
#
#
# Convention : Reuss Voigt Hill
#
# Bulk Modulus (GPa) = 57.41471 58.29501 57.85486
# Shear Modulus (GPa) = 55.58877 21.34503 38.46690
#
# Velocity S-wave (km/s) = 4.87194 3.01896 4.05277
# Velocity P-wave (km/s) = 7.49421 6.08633 6.82666
#
# Compressibility (1/GPa) = 0.01741714
#
# Stress axis : x y z
#
# Youngs Moduli (GPa) = -1375.55558 -1375.55558 122.59946
#
# Poissons Ratio (x) = 12.48731 0.22808
# Poissons Ratio (y) = 12.48731 0.22808
# Poissons Ratio (z) = -2.55907 -2.55907
#
# Static dielectric constant tensor:
#      x y z
#    x 1.933690 0.000000 0.000000 
#    y 0.000000 1.933690 0.000000 
#    z 0.000000 0.000000 1.853140 
# 
# From -- ./inp_files/282.got.cif
#   From: 2010.05.17/outbox.cif.g08.bks.cpg/sg117_1_cif.got.tgz:282.got - 2010.05.20 11:15:09.
