data_PCOD9558799
_publ_section_title
;
Structure prediction by ZEFSAII (Michael W. Deem and Ramdas Pophale) SiO2 
 PCOD9558799
Probable space group: P -4 N 2
;
_chemical_formula_sum "Si O2"
_cell_formula_units_Z 40
_cell_length_a 9.772347
_cell_length_b 9.772347
_cell_length_c 15.823619
_cell_angle_alpha 90.000000
_cell_angle_beta 90.000000
_cell_angle_gamma 90.000000
_cell_volume 1511.136086
_symmetry_space_group_name_H-M "P -4 N 2"
_symmetry_group_IT_number 118
_symmetry_cell_setting 'tetragonal'
loop_
_space_group_symop_operation_xyz
x,y,z
y,-x,-z
-x,-y,z
-y,x,-z
1/2+y,1/2+x,1/2-z
1/2-y,1/2-x,1/2-z
1/2-x,1/2+y,1/2+z
1/2+x,1/2-y,1/2+z
loop_
_atom_site_type_symbol
_atom_site_label
_atom_site_fract_x
_atom_site_fract_y
_atom_site_fract_z
Si Si1 0.438905 0.357856 0.116447
Si Si2 0.460840 0.820021 0.970198
Si Si3 0.362740 0.341194 0.297759
Si Si4 0.851305 0.420219 0.337917
Si Si5 0.715586 0.503038 0.528750
O O1 0.500000 0.500000 0.086325
O O2 0.281456 0.366921 0.085756
O O3 0.460503 0.359229 0.216730
O O4 0.505091 0.238398 0.062185
O O5 0.601250 0.820963 0.914273
O O6 0.638718 0.050855 0.991033
O O7 0.256187 0.243814 0.250000
O O8 0.274166 0.471673 0.330622
O O9 0.446436 0.279862 0.376044
O O10 0.839579 0.339579 0.250000
O O11 0.000000 0.500000 0.334535
O O12 0.633568 0.384962 0.478156
#
# Coordination Sequence:
#
# PCOD9558799 Si02
#       5
#     8   8   8   8   8
#     4  12  26  51  80 115 162 208 277 346 406 490
#     4  12  25  51  82 118 162 221 274 338 416 496
#     4  12  26  51  78 118 165 209 274 350 408 500
#     4  11  21  42  80 122 147 211 281 326 399 495
#     4  11  28  52  76 118 171 212 273 351 416 487
#
# _framework density 26.470154000000001
#
# number of rings (size 3 to 8) (size 9 to 14) (size 15 to 20)
#    0.000    0.400    6.000    2.400    2.800    8.800 
#    3.600    3.000    0.000    0.000    0.000    0.000 
#    0.000    0.000    0.000    0.000    0.000    0.000 
#
# Total GULP energy -223530.438726 kJ/mol
# GULP energy per Si atom -5588.260968 kJ/mol
# Density = 2.640991 g / cm^3
# Si number density = 26.470154 Si / 1000 Ang^3
#
#
#
# Elastic Constant Matrix: (Units=GPa)
#
#
# Indices 1 2 3 4 5 6 
#
# 1 99.4628 28.0152 65.6787 0.0000 0.0000 0.0000
# 2 28.0152 99.4623 65.6787 0.0000 0.0000 0.0000
# 3 65.6787 65.6787 253.8907 0.0000 0.0000 0.0000
# 4 0.0000 0.0000 0.0000 37.3738 0.0000 0.0000
# 5 0.0000 0.0000 0.0000 0.0000 37.3749 0.0000
# 6 0.0000 0.0000 0.0000 0.0000 0.0000 45.4338
#
#
#
# Elastic Compliance Matrix: (Units=1/GPa)
#
#
# Indices 1 2 3 4 5 6 
#
# 1 0.012346 -0.001650 -0.002767 0.000000 0.000000 0.000000
# 2 -0.001650 0.012346 -0.002767 0.000000 0.000000 0.000000
# 3 -0.002767 -0.002767 0.005370 0.000000 0.000000 0.000000
# 4 0.000000 0.000000 0.000000 0.026757 0.000000 0.000000
# 5 0.000000 0.000000 0.000000 0.000000 0.026756 0.000000
# 6 0.000000 0.000000 0.000000 0.000000 0.000000 0.022010
#
#
# Mechanical properties :
#
#
# Convention : Reuss Voigt Hill
#
# Bulk Modulus (GPa) = 63.71868 85.72901 74.72384
# Shear Modulus (GPa) = 39.94118 43.59938 41.77028
#
# Velocity S-wave (km/s) = 3.88869 4.06287 3.97673
# Velocity P-wave (km/s) = 6.65482 7.38015 7.02685
#
# Compressibility (1/GPa) = 0.01569398
#
# Stress axis : x y z
#
# Youngs Moduli (GPa) = 80.99861 80.99818 186.21306
#
# Poissons Ratio (x) = 0.13368 0.51522
# Poissons Ratio (y) = 0.13368 0.51522
# Poissons Ratio (z) = 0.22411 0.22411
#
# Static dielectric constant tensor:
#      x y z
#    x 2.233780 0.000000 0.000000 
#    y 0.000000 2.233790 0.000000 
#    z 0.000000 0.000000 2.219120 
# 
# From -- ./inp_files/4087.got.cif
#   From: 2010.05.17/outbox.cif.g08.bks.cpg/sg118_3_cif.got.tgz:4087.got - 2010.05.20 11:17:24.
