data_PCOD9558344
_publ_section_title
;
Structure prediction by ZEFSAII (Michael W. Deem and Ramdas Pophale) SiO2 
 PCOD9558344
Probable space group: P -4 B 2
;
_chemical_formula_sum "Si O2"
_cell_formula_units_Z 24
_cell_length_a 10.550564
_cell_length_b 10.550564
_cell_length_c 8.902707
_cell_angle_alpha 90.000000
_cell_angle_beta 90.000000
_cell_angle_gamma 90.000000
_cell_volume 990.999494
_symmetry_space_group_name_H-M "P -4 B 2"
_symmetry_group_IT_number 117
_symmetry_cell_setting 'tetragonal'
loop_
_space_group_symop_operation_xyz
x,y,z
y,-x,-z
-x,-y,z
-y,x,-z
1/2+y,1/2+x,-z
1/2-y,1/2-x,-z
1/2-x,1/2+y,z
1/2+x,1/2-y,z
loop_
_atom_site_type_symbol
_atom_site_label
_atom_site_fract_x
_atom_site_fract_y
_atom_site_fract_z
Si Si1 0.647996 0.483631 0.798090
Si Si2 0.492121 0.808861 0.935825
Si Si3 0.206484 0.325383 0.324255
O O1 0.500000 0.500000 0.766165
O O2 0.698436 0.353976 0.719132
O O3 0.723572 0.605893 0.738831
O O4 0.683837 0.471258 0.974679
O O5 0.462375 0.812722 0.759724
O O6 0.592699 0.907302 0.000000
O O7 0.357418 0.857418 0.000000
O O8 0.179194 0.320806 0.500000
#
# Coordination Sequence:
#
# PCOD9558344 Si02
#       3
#     8   8   8
#     4  11  28  49  78 114 162 217 282 344 423 518
#     4   9  22  47  75 111 153 207 274 333 404 508
#     4  11  28  48  81 119 168 217 281 362 438 505
#
# _framework density 24.217973000000001
#
# number of rings (size 3 to 8) (size 9 to 14) (size 15 to 20)
#    0.000    1.667    0.000    0.000   14.000    1.333 
#    0.000   11.667    0.000    0.000    0.000    0.000 
#    0.000    0.000    0.000    0.000    0.000    0.000 
#
# Total GULP energy -133988.248728 kJ/mol
# GULP energy per Si atom -5582.843697 kJ/mol
# Density = 2.416285 g / cm^3
# Si number density = 24.217973 Si / 1000 Ang^3
#
#
#
# Elastic Constant Matrix: (Units=GPa)
#
#
# Indices 1 2 3 4 5 6 
#
# 1 144.3162 112.5032 83.9950 0.0000 0.0000 0.0000
# 2 112.5032 144.3133 83.9943 0.0000 0.0000 0.0000
# 3 83.9950 83.9943 207.5828 0.0000 0.0000 0.0000
# 4 0.0000 0.0000 0.0000 34.2173 0.0000 0.0000
# 5 0.0000 0.0000 0.0000 0.0000 34.2165 0.0000
# 6 0.0000 0.0000 0.0000 0.0000 0.0000 52.2611
#
#
#
# Elastic Compliance Matrix: (Units=1/GPa)
#
#
# Indices 1 2 3 4 5 6 
#
# 1 0.018365 -0.013070 -0.002143 0.000000 0.000000 0.000000
# 2 -0.013070 0.018365 -0.002143 0.000000 0.000000 0.000000
# 3 -0.002143 -0.002143 0.006551 0.000000 0.000000 0.000000
# 4 0.000000 0.000000 0.000000 0.029225 0.000000 0.000000
# 5 0.000000 0.000000 0.000000 0.000000 0.029226 0.000000
# 6 0.000000 0.000000 0.000000 0.000000 0.000000 0.019135
#
#
# Mechanical properties :
#
#
# Convention : Reuss Voigt Hill
#
# Bulk Modulus (GPa) = 116.66727 117.46635 117.06681
# Shear Modulus (GPa) = 31.55875 38.52031 35.03953
#
# Velocity S-wave (km/s) = 3.61378 3.99252 3.80786
# Velocity P-wave (km/s) = 8.10500 8.35839 8.23267
#
# Compressibility (1/GPa) = 0.00857138
#
# Stress axis : x y z
#
# Youngs Moduli (GPa) = 54.45129 54.45011 152.64042
#
# Poissons Ratio (x) = 0.71166 0.32705
# Poissons Ratio (y) = 0.71167 0.32706
# Poissons Ratio (z) = 0.11667 0.11667
#
# Static dielectric constant tensor:
#      x y z
#    x 2.029310 0.000000 0.000000 
#    y 0.000000 2.029300 0.000000 
#    z 0.000000 0.000000 1.982720 
# 
# From -- ./inp_files/1229.got.cif
#   From: 2010.05.17/outbox.cif.g08.bks.cpg/sg117_1_cif.got.tgz:1229.got - 2010.05.20 11:15:09.
