data_PCOD9558459
_publ_section_title
;
Structure prediction by ZEFSAII (Michael W. Deem and Ramdas Pophale) SiO2 
 PCOD9558459
Probable space group: P -4 N 2
;
_chemical_formula_sum "Si O2"
_cell_formula_units_Z 54
_cell_length_a 13.503283
_cell_length_b 13.503283
_cell_length_c 14.283656
_cell_angle_alpha 90.000000
_cell_angle_beta 90.000000
_cell_angle_gamma 90.000000
_cell_volume 2604.462578
_symmetry_space_group_name_H-M "P -4 N 2"
_symmetry_group_IT_number 118
_symmetry_cell_setting 'tetragonal'
loop_
_space_group_symop_operation_xyz
x,y,z
y,-x,-z
-x,-y,z
-y,x,-z
1/2+y,1/2+x,1/2-z
1/2-y,1/2-x,1/2-z
1/2-x,1/2+y,1/2+z
1/2+x,1/2-y,1/2+z
loop_
_atom_site_type_symbol
_atom_site_label
_atom_site_fract_x
_atom_site_fract_y
_atom_site_fract_z
Si Si1 0.652567 0.158958 0.529480
Si Si2 0.154878 0.953458 0.478616
Si Si3 0.500000 0.000000 0.470442
Si Si4 0.003840 0.115195 0.724264
Si Si5 0.640856 0.357165 0.620858
Si Si6 0.000000 0.000000 0.000000
Si Si7 0.129688 0.256053 0.825389
Si Si8 0.081715 0.654180 0.844093
O O1 0.753633 0.096084 0.531783
O O2 0.632939 0.240792 0.607842
O O3 0.659056 0.222735 0.432100
O O4 0.560646 0.083690 0.524259
O O5 0.059648 0.880891 0.482922
O O6 0.176310 0.973185 0.369015
O O7 0.578977 0.944758 0.404178
O O8 0.899655 0.135692 0.774041
O O9 0.087612 0.147351 0.799725
O O10 0.000000 0.000000 0.700101
O O11 0.561522 0.420672 0.561901
O O12 0.753420 0.385375 0.593025
O O13 0.210105 0.289896 0.750000
O O14 0.031196 0.323388 0.813655
O O15 0.143335 0.643335 0.750000
#
# Coordination Sequence:
#
# PCOD9558459 Si02
#       8
#     8   8   4   8   8   2   8   8
#     4  11  24  41  62  98 133 176 224 277 339 415
#     4  11  24  43  69  95 130 168 226 282 342 405
#     4  10  21  38  60  86 133 168 208 270 331 396
#     4  11  21  41  64  91 131 173 218 278 342 400
#     4  11  25  37  63  94 131 173 221 273 338 411
#     4  12  20  44  60  88 134 176 216 276 328 416
#     4  10  19  36  61  90 125 172 214 272 336 405
#     4  10  20  34  58  92 121 159 210 272 336 386
#
# _framework density 20.733643000000001
#
# number of rings (size 3 to 8) (size 9 to 14) (size 15 to 20)
#    0.000    1.333    3.704    4.667    4.148    0.000 
#    0.000    0.000    0.000    0.000    0.000    3.630 
#    0.000    0.000    0.000    0.000    0.000    0.000 
#
# Total GULP energy -301455.171514 kJ/mol
# GULP energy per Si atom -5582.503176 kJ/mol
# Density = 2.068645 g / cm^3
# Si number density = 20.733643 Si / 1000 Ang^3
#
#
#
# Elastic Constant Matrix: (Units=GPa)
#
#
# Indices 1 2 3 4 5 6 
#
# 1 105.6604 38.2851 19.4691 0.0000 0.0000 0.0000
# 2 38.2851 105.6605 19.4690 0.0000 0.0000 0.0000
# 3 19.4691 19.4690 40.4269 0.0000 0.0000 0.0000
# 4 0.0000 0.0000 0.0000 27.3961 0.0000 0.0000
# 5 0.0000 0.0000 0.0000 0.0000 27.3958 0.0000
# 6 0.0000 0.0000 0.0000 0.0000 0.0000 29.4122
#
#
#
# Elastic Compliance Matrix: (Units=1/GPa)
#
#
# Indices 1 2 3 4 5 6 
#
# 1 0.011415 -0.003427 -0.003847 0.000000 0.000000 0.000000
# 2 -0.003427 0.011415 -0.003847 0.000000 0.000000 0.000000
# 3 -0.003847 -0.003847 0.028441 0.000000 0.000000 0.000000
# 4 0.000000 0.000000 0.000000 0.036502 0.000000 0.000000
# 5 0.000000 0.000000 0.000000 0.000000 0.036502 0.000000
# 6 0.000000 0.000000 0.000000 0.000000 0.000000 0.034000
#
#
# Mechanical properties :
#
#
# Convention : Reuss Voigt Hill
#
# Bulk Modulus (GPa) = 34.44783 45.13267 39.79025
# Shear Modulus (GPa) = 26.28923 28.47579 27.38251
#
# Velocity S-wave (km/s) = 3.56469 3.70997 3.63806
# Velocity P-wave (km/s) = 5.79597 6.33774 6.07290
#
# Compressibility (1/GPa) = 0.02902941
#
# Stress axis : x y z
#
# Youngs Moduli (GPa) = 87.60450 87.60464 35.16040
#
# Poissons Ratio (x) = 0.30025 0.13525
# Poissons Ratio (y) = 0.30025 0.13525
# Poissons Ratio (z) = 0.33699 0.33699
#
# Static dielectric constant tensor:
#      x y z
#    x 1.783730 0.000000 0.000000 
#    y 0.000000 1.783730 0.000000 
#    z 0.000000 0.000000 1.785330 
# 
# From -- ./inp_files/4287.got.cif
#   From: 2010.05.17/outbox.cif.g08.bks.cpg/sg118_3_cif.got.tgz:4287.got - 2010.05.20 11:17:24.
