data_PCOD9558941
_publ_section_title
;
Structure prediction by ZEFSAII (Michael W. Deem and Ramdas Pophale) SiO2 
 PCOD9558941
Probable space group: P -4 N 2
;
_chemical_formula_sum "Si O2"
_cell_formula_units_Z 56
_cell_length_a 15.000000
_cell_length_b 15.000000
_cell_length_c 12.000000
_cell_angle_alpha 90.000000
_cell_angle_beta 90.000000
_cell_angle_gamma 90.000000
_cell_volume 2700.000000
_symmetry_space_group_name_H-M "P -4 N 2"
_symmetry_group_IT_number 118
_symmetry_cell_setting 'tetragonal'
loop_
_space_group_symop_operation_xyz
x,y,z
y,-x,-z
-x,-y,z
-y,x,-z
1/2+y,1/2+x,1/2-z
1/2-y,1/2-x,1/2-z
1/2-x,1/2+y,1/2+z
1/2+x,1/2-y,1/2+z
loop_
_atom_site_type_symbol
_atom_site_label
_atom_site_fract_x
_atom_site_fract_y
_atom_site_fract_z
Si Si1 0.618873 0.217913 0.341997
Si Si2 0.350481 0.321268 0.043460
Si Si3 0.340316 0.278873 0.503409
Si Si4 0.040555 0.666998 0.174816
Si Si5 0.579875 0.059285 0.509304
Si Si6 0.996921 0.240892 0.392774
Si Si7 0.265278 0.083249 0.232638
O O1 0.694751 0.194751 0.250000
O O2 0.641070 0.305620 0.416536
O O3 0.612638 0.134371 0.425757
O O4 0.521833 0.219810 0.284476
O O5 0.310139 0.416654 0.066364
O O6 0.401473 0.290054 0.154784
O O7 0.272481 0.251050 0.022305
O O8 0.412615 0.313485 0.935698
O O9 0.405142 0.216728 0.577468
O O10 0.383662 0.286091 0.380112
O O11 0.105761 0.605761 0.250000
O O12 0.002029 0.738576 0.261873
O O13 0.964233 0.607716 0.116838
O O14 0.662397 0.998779 0.546648
O O15 0.500000 0.000000 0.459931
O O16 0.355089 0.144912 0.250000
#
# Coordination Sequence:
#
# PCOD9558941 Si02
#       7
#     8   8   8   8   8   8   8
#     4  12  26  40  71 102 139 182 229 280 353 429
#     4  11  25  45  65  95 135 187 227 284 345 423
#     4  11  23  45  67  98 140 185 228 279 351 428
#     4  12  23  40  69 103 136 174 223 291 346 412
#     4  12  24  40  67 108 135 169 221 290 354 404
#     4  12  26  42  70  98 139 176 236 280 350 417
#     4  10  25  43  66  97 141 181 226 285 352 418
#
# _framework density 20.740741
#
# number of rings (size 3 to 8) (size 9 to 14) (size 15 to 20)
#    0.000    0.571    5.714    1.714    6.000    1.429 
#    0.000    0.000    0.000    2.143    0.000    0.000 
#    0.000    0.000    0.000    0.000    0.000    0.000 
#
# Total GULP energy -313176.116465 kJ/mol
# GULP energy per Si atom -5592.430651 kJ/mol
# Density = 2.069353 g / cm^3
# Si number density = 20.740741 Si / 1000 Ang^3
#
#
#
# Elastic Constant Matrix: (Units=GPa)
#
#
# Indices 1 2 3 4 5 6 
#
# 1 36.5824 28.7065 9.6675 0.0000 0.0000 0.0000
# 2 28.7065 36.5827 9.6671 0.0000 0.0000 0.0000
# 3 9.6675 9.6671 61.2543 0.0000 0.0000 0.0000
# 4 0.0000 0.0000 0.0000 25.3604 0.0000 0.0000
# 5 0.0000 0.0000 0.0000 0.0000 25.3602 0.0000
# 6 0.0000 0.0000 0.0000 0.0000 0.0000 37.0856
#
#
#
# Elastic Compliance Matrix: (Units=1/GPa)
#
#
# Indices 1 2 3 4 5 6 
#
# 1 0.071517 -0.055449 -0.002536 0.000000 0.000000 0.000000
# 2 -0.055449 0.071516 -0.002535 0.000000 0.000000 0.000000
# 3 -0.002536 -0.002535 0.017126 0.000000 0.000000 0.000000
# 4 0.000000 0.000000 0.000000 0.039432 0.000000 0.000000
# 5 0.000000 0.000000 0.000000 0.000000 0.039432 0.000000
# 6 0.000000 0.000000 0.000000 0.000000 0.000000 0.026965
#
#
# Mechanical properties :
#
#
# Convention : Reuss Voigt Hill
#
# Bulk Modulus (GPa) = 25.56400 25.61128 25.58764
# Shear Modulus (GPa) = 12.49787 23.31982 17.90884
#
# Velocity S-wave (km/s) = 2.45740 3.35677 2.94166
# Velocity P-wave (km/s) = 4.51708 5.23440 4.88892
#
# Compressibility (1/GPa) = 0.03911751
#
# Stress axis : x y z
#
# Youngs Moduli (GPa) = 13.98265 13.98282 58.39149
#
# Poissons Ratio (x) = 0.77534 0.14810
# Poissons Ratio (y) = 0.77533 0.14804
# Poissons Ratio (z) = 0.03546 0.03545
#
# Static dielectric constant tensor:
#      x y z
#    x 1.745750 0.000000 0.000000 
#    y 0.000000 1.745750 0.000000 
#    z 0.000000 0.000000 1.766150 
# 
# From -- ./inp_files/3409.got.cif
#   From: 2010.05.17/outbox.ucp.g08.bks.cvg/sg118_2_cif.got.tgz:3409.got - 2010.06.11 11:34:11.
