data_PCOD9558706
_publ_section_title
;
Structure prediction by ZEFSAII (Michael W. Deem and Ramdas Pophale) SiO2 
 PCOD9558706
Probable space group: P -4 N 2
;
_chemical_formula_sum "Si O2"
_cell_formula_units_Z 36
_cell_length_a 12.703894
_cell_length_b 12.703894
_cell_length_c 10.956863
_cell_angle_alpha 90.000000
_cell_angle_beta 90.000000
_cell_angle_gamma 90.000000
_cell_volume 1768.316316
_symmetry_space_group_name_H-M "P -4 N 2"
_symmetry_group_IT_number 118
_symmetry_cell_setting 'tetragonal'
loop_
_space_group_symop_operation_xyz
x,y,z
y,-x,-z
-x,-y,z
-y,x,-z
1/2+y,1/2+x,1/2-z
1/2-y,1/2-x,1/2-z
1/2-x,1/2+y,1/2+z
1/2+x,1/2-y,1/2+z
loop_
_atom_site_type_symbol
_atom_site_label
_atom_site_fract_x
_atom_site_fract_y
_atom_site_fract_z
Si Si1 0.808307 0.854575 0.297360
Si Si2 0.879614 0.379614 0.250000
Si Si3 0.000000 0.000000 0.699991
Si Si4 0.671933 0.348855 0.089515
Si Si5 0.000000 0.500000 0.435006
Si Si6 0.344451 0.961930 0.348660
O O1 0.755343 0.744658 0.250000
O O2 0.914868 0.912832 0.243878
O O3 0.819352 0.846437 0.443917
O O4 0.719518 0.943632 0.288007
O O5 0.773720 0.381058 0.169092
O O6 0.900636 0.473452 0.347606
O O7 0.923045 0.925936 0.623914
O O8 0.634145 0.234241 0.128157
O O9 0.987324 0.599252 0.523969
O O10 0.425751 0.925751 0.250000
#
# Coordination Sequence:
#
# PCOD9558706 Si02
#       6
#     8   4   4   8   4   8
#     4  11  22  38  67  97 125 168 219 265 329 402
#     4  11  24  40  62  91 132 162 208 269 328 382
#     4  10  23  42  68  95 130 165 224 274 323 394
#     4  11  22  43  63  94 126 167 212 273 327 384
#     4  11  23  40  62  92 125 167 210 258 324 399
#     4  11  22  39  64  91 126 163 212 268 316 390
#
# _framework density 20.358349
#
# number of rings (size 3 to 8) (size 9 to 14) (size 15 to 20)
#    0.000    1.111    3.333    5.000    0.000    1.778 
#    0.000    0.000    0.000    1.333    0.000    0.000 
#    0.000    0.000    0.000    0.000    0.000    0.000 
#
# Total GULP energy -200432.386129 kJ/mol
# GULP energy per Si atom -5567.566281 kJ/mol
# Density = 2.031201 g / cm^3
# Si number density = 20.358349 Si / 1000 Ang^3
#
#
#
# Elastic Constant Matrix: (Units=GPa)
#
#
# Indices 1 2 3 4 5 6 
#
# 1 86.7164 48.5644 25.1542 0.0000 0.0000 0.0000
# 2 48.5644 86.7179 25.1553 0.0000 0.0000 0.0000
# 3 25.1542 25.1553 57.7117 0.0000 0.0000 0.0000
# 4 0.0000 0.0000 0.0000 27.6320 0.0000 0.0000
# 5 0.0000 0.0000 0.0000 0.0000 27.6317 0.0000
# 6 0.0000 0.0000 0.0000 0.0000 0.0000 54.9695
#
#
#
# Elastic Compliance Matrix: (Units=1/GPa)
#
#
# Indices 1 2 3 4 5 6 
#
# 1 0.017516 -0.008694 -0.003845 0.000000 0.000000 0.000000
# 2 -0.008694 0.017516 -0.003845 0.000000 0.000000 0.000000
# 3 -0.003845 -0.003845 0.020680 0.000000 0.000000 0.000000
# 4 0.000000 0.000000 0.000000 0.036190 0.000000 0.000000
# 5 0.000000 0.000000 0.000000 0.000000 0.036190 0.000000
# 6 0.000000 0.000000 0.000000 0.000000 0.000000 0.018192
#
#
# Mechanical properties :
#
#
# Convention : Reuss Voigt Hill
#
# Bulk Modulus (GPa) = 43.58705 47.65486 45.62095
# Shear Modulus (GPa) = 26.78078 30.86477 28.82277
#
# Velocity S-wave (km/s) = 3.63087 3.89790 3.76676
# Velocity P-wave (km/s) = 6.24772 6.61189 6.43238
#
# Compressibility (1/GPa) = 0.02294260
#
# Stress axis : x y z
#
# Youngs Moduli (GPa) = 57.08978 57.09025 48.35694
#
# Poissons Ratio (x) = 0.49635 0.18593
# Poissons Ratio (y) = 0.49635 0.18595
# Poissons Ratio (z) = 0.21951 0.21954
#
# Static dielectric constant tensor:
#      x y z
#    x 1.782880 0.000000 0.000000 
#    y 0.000000 1.782880 0.000000 
#    z 0.000000 0.000000 1.759120 
# 
# From -- ./inp_files/3082.got.cif
#   From: 2010.05.17/outbox.cif.g08.bks.cpg/sg118_2_cif.got.tgz:3082.got - 2010.05.20 11:17:24.
