data_PCOD9558407
_publ_section_title
;
Structure prediction by ZEFSAII (Michael W. Deem and Ramdas Pophale) SiO2 
 PCOD9558407
Probable space group: P -4 N 2
;
_chemical_formula_sum "Si O2"
_cell_formula_units_Z 38
_cell_length_a 14.124671
_cell_length_b 14.124671
_cell_length_c 9.934125
_cell_angle_alpha 90.000000
_cell_angle_beta 90.000000
_cell_angle_gamma 90.000000
_cell_volume 1981.920829
_symmetry_space_group_name_H-M "P -4 N 2"
_symmetry_group_IT_number 118
_symmetry_cell_setting 'tetragonal'
loop_
_space_group_symop_operation_xyz
x,y,z
y,-x,-z
-x,-y,z
-y,x,-z
1/2+y,1/2+x,1/2-z
1/2-y,1/2-x,1/2-z
1/2-x,1/2+y,1/2+z
1/2+x,1/2-y,1/2+z
loop_
_atom_site_type_symbol
_atom_site_label
_atom_site_fract_x
_atom_site_fract_y
_atom_site_fract_z
Si Si1 0.739796 0.109216 0.171553
Si Si2 0.593812 0.175956 0.632240
Si Si3 0.805274 0.924669 0.874452
Si Si4 0.593158 0.816187 0.365178
Si Si5 0.000000 0.500000 0.999486
Si Si6 0.000000 0.000000 0.000000
O O1 0.652940 0.152940 0.250000
O O2 0.835004 0.162865 0.211696
O O3 0.738731 0.997560 0.195256
O O4 0.723518 0.119409 0.010595
O O5 0.669322 0.169322 0.750000
O O6 0.503620 0.235678 0.684427
O O7 0.564484 0.068779 0.590705
O O8 0.744586 0.885701 0.002064
O O9 0.903859 0.973592 0.920179
O O10 0.669476 0.830525 0.250000
O O11 0.557929 0.921785 0.412228
#
# Coordination Sequence:
#
# PCOD9558407 Si02
#       6
#     8   8   8   8   4   2
#     4  10  20  35  53  83 115 147 186 232 285 340
#     4  10  20  34  56  84 111 146 189 235 288 332
#     4  10  21  34  59  77 111 156 193 230 285 337
#     4  10  18  32  55  84 109 147 189 231 290 335
#     4   8  16  30  50  78 115 148 167 232 293 348
#     4  12  16  44  52  76 118 156 204 232 266 352
#
# _framework density 19.173318999999999
#
# number of rings (size 3 to 8) (size 9 to 14) (size 15 to 20)
#    0.000    2.526    4.211    3.158    0.000    4.211 
#    0.000    0.000    0.000    0.000    0.000    0.000 
#    0.000    0.000    0.000    0.000    0.000    0.000 
#
# Total GULP energy -211594.471907 kJ/mol
# GULP energy per Si atom -5568.275576 kJ/mol
# Density = 1.912968 g / cm^3
# Si number density = 19.173319 Si / 1000 Ang^3
#
#
#
# Elastic Constant Matrix: (Units=GPa)
#
#
# Indices 1 2 3 4 5 6 
#
# 1 54.9338 39.5608 5.7283 0.0000 0.0000 0.0000
# 2 39.5608 54.9341 5.7284 0.0000 0.0000 0.0000
# 3 5.7283 5.7284 33.8188 0.0000 0.0000 0.0000
# 4 0.0000 0.0000 0.0000 8.2795 0.0000 0.0000
# 5 0.0000 0.0000 0.0000 0.0000 8.2792 0.0000
# 6 0.0000 0.0000 0.0000 0.0000 0.0000 42.9884
#
#
#
# Elastic Compliance Matrix: (Units=1/GPa)
#
#
# Indices 1 2 3 4 5 6 
#
# 1 0.037927 -0.027122 -0.001830 0.000000 0.000000 0.000000
# 2 -0.027122 0.037926 -0.001830 0.000000 0.000000 0.000000
# 3 -0.001830 -0.001830 0.030189 0.000000 0.000000 0.000000
# 4 0.000000 0.000000 0.000000 0.120780 0.000000 0.000000
# 5 0.000000 0.000000 0.000000 0.000000 0.120785 0.000000
# 6 0.000000 0.000000 0.000000 0.000000 0.000000 0.023262
#
#
# Mechanical properties :
#
#
# Convention : Reuss Voigt Hill
#
# Bulk Modulus (GPa) = 22.48309 27.30241 24.89275
# Shear Modulus (GPa) = 11.17917 18.08735 14.63326
#
# Velocity S-wave (km/s) = 2.41728 3.07475 2.76562
# Velocity P-wave (km/s) = 4.42071 5.18422 4.81762
#
# Compressibility (1/GPa) = 0.04447788
#
# Stress axis : x y z
#
# Youngs Moduli (GPa) = 26.36672 26.36687 33.12432
#
# Poissons Ratio (x) = 0.71512 0.06062
# Poissons Ratio (y) = 0.71512 0.06062
# Poissons Ratio (z) = 0.04825 0.04826
#
# Static dielectric constant tensor:
#      x y z
#    x 1.705360 0.000000 0.000000 
#    y 0.000000 1.705360 0.000000 
#    z 0.000000 0.000000 1.678260 
# 
# From -- ./inp_files/3179.got.cif
#   From: 2010.05.17/outbox.cif.g08.bks.cpg/sg118_2_cif.got.tgz:3179.got - 2010.05.20 11:17:24.
