data_PCOD9558660
_publ_section_title
;
Structure prediction by ZEFSAII (Michael W. Deem and Ramdas Pophale) SiO2 
 PCOD9558660
Probable space group: P -4 N 2
;
_chemical_formula_sum "Si O2"
_cell_formula_units_Z 42
_cell_length_a 15.815241
_cell_length_b 15.815241
_cell_length_c 8.412331
_cell_angle_alpha 90.000000
_cell_angle_beta 90.000000
_cell_angle_gamma 90.000000
_cell_volume 2104.107775
_symmetry_space_group_name_H-M "P -4 N 2"
_symmetry_group_IT_number 118
_symmetry_cell_setting 'tetragonal'
loop_
_space_group_symop_operation_xyz
x,y,z
y,-x,-z
-x,-y,z
-y,x,-z
1/2+y,1/2+x,1/2-z
1/2-y,1/2-x,1/2-z
1/2-x,1/2+y,1/2+z
1/2+x,1/2-y,1/2+z
loop_
_atom_site_type_symbol
_atom_site_label
_atom_site_fract_x
_atom_site_fract_y
_atom_site_fract_z
Si Si1 0.153846 0.704156 0.571448
Si Si2 0.726844 0.417255 0.441008
Si Si3 0.985062 0.196933 0.406663
Si Si4 0.230011 0.355811 0.962310
Si Si5 0.231402 0.903473 0.097991
Si Si6 0.500000 0.500000 0.000000
O O1 0.178790 0.678790 0.750000
O O2 0.180366 0.621561 0.472512
O O3 0.065165 0.750932 0.543933
O O4 0.216026 0.773716 0.500077
O O5 0.717345 0.441439 0.258399
O O6 0.653476 0.346703 0.467519
O O7 0.716295 0.500373 0.548538
O O8 0.076570 0.239294 0.411114
O O9 0.989793 0.094707 0.423545
O O10 0.134773 0.320513 0.966195
O O11 0.258239 0.388190 0.787524
#
# Coordination Sequence:
#
# PCOD9558660 Si02
#       6
#     8   8   8   8   8   2
#     4  11  23  41  67  89 128 180 221 260 336 400
#     4  11  24  39  66  93 131 169 221 270 325 393
#     4  12  23  40  63 100 133 168 221 273 329 396
#     4  10  22  40  63  88 131 169 209 268 328 400
#     4  10  22  42  61  94 128 170 213 269 332 395
#     4  12  24  36  68 102 140 176 206 280 344 388
#
# _framework density 19.960954000000001
#
# number of rings (size 3 to 8) (size 9 to 14) (size 15 to 20)
#    0.000    1.143    3.810    1.714    5.333    3.429 
#    0.000    0.952    0.000    5.714    0.000    0.000 
#    0.000    0.000    0.000    0.000    0.000    0.000 
#
# Total GULP energy -233970.677805 kJ/mol
# GULP energy per Si atom -5570.730424 kJ/mol
# Density = 1.991552 g / cm^3
# Si number density = 19.960954 Si / 1000 Ang^3
#
#
#
# Elastic Constant Matrix: (Units=GPa)
#
#
# Indices 1 2 3 4 5 6 
#
# 1 100.7625 57.3192 35.6764 0.0000 0.0000 0.0000
# 2 57.3192 100.7625 35.6764 0.0000 0.0000 0.0000
# 3 35.6764 35.6764 83.2894 0.0000 0.0000 0.0000
# 4 0.0000 0.0000 0.0000 -89.5847 0.0000 0.0000
# 5 0.0000 0.0000 0.0000 0.0000 -89.5847 0.0000
# 6 0.0000 0.0000 0.0000 0.0000 0.0000 70.1902
#
#
#
# Elastic Compliance Matrix: (Units=1/GPa)
#
#
# Indices 1 2 3 4 5 6 
#
# 1 0.015430 -0.007588 -0.003359 0.000000 0.000000 0.000000
# 2 -0.007588 0.015430 -0.003359 0.000000 0.000000 0.000000
# 3 -0.003359 -0.003359 0.014884 0.000000 0.000000 0.000000
# 4 0.000000 0.000000 0.000000 -0.011163 0.000000 0.000000
# 5 0.000000 0.000000 0.000000 0.000000 -0.011163 0.000000
# 6 0.000000 0.000000 0.000000 0.000000 0.000000 0.014247
#
#
# Mechanical properties :
#
#
# Convention : Reuss Voigt Hill
#
# Bulk Modulus (GPa) = 58.37113 60.23979 59.30546
# Shear Modulus (GPa) = 69.45448 -11.38634 29.03407
#
# Velocity S-wave (km/s) = 5.90514 -2.39096 3.81799
# Velocity P-wave (km/s) = 8.70634 4.75627 7.01507
#
# Compressibility (1/GPa) = 0.01713176
#
# Stress axis : x y z
#
# Youngs Moduli (GPa) = 64.80776 64.80776 67.18624
#
# Poissons Ratio (x) = 0.49178 0.22568
# Poissons Ratio (y) = 0.49178 0.22568
# Poissons Ratio (z) = 0.21769 0.21769
#
# Static dielectric constant tensor:
#      x y z
#    x 1.937470 0.000000 0.000000 
#    y 0.000000 1.937470 0.000000 
#    z 0.000000 0.000000 1.747500 
# 
# From -- ./inp_files/1955.got.cif
#   From: 2010.05.17/outbox.cif.g08.bks.cpg/sg118_1_cif.got.tgz:1955.got - 2010.05.20 11:17:24.
