data_PCOD9558253
_publ_section_title
;
Structure prediction by ZEFSAII (Michael W. Deem and Ramdas Pophale) SiO2 
 PCOD9558253
Probable space group: P -4 B 2
;
_chemical_formula_sum "Si O2"
_cell_formula_units_Z 36
_cell_length_a 9.879104
_cell_length_b 9.879104
_cell_length_c 18.397563
_cell_angle_alpha 90.000000
_cell_angle_beta 90.000000
_cell_angle_gamma 90.000000
_cell_volume 1795.541360
_symmetry_space_group_name_H-M "P -4 B 2"
_symmetry_group_IT_number 117
_symmetry_cell_setting 'tetragonal'
loop_
_space_group_symop_operation_xyz
x,y,z
y,-x,-z
-x,-y,z
-y,x,-z
1/2+y,1/2+x,-z
1/2-y,1/2-x,-z
1/2-x,1/2+y,z
1/2+x,1/2-y,z
loop_
_atom_site_type_symbol
_atom_site_label
_atom_site_fract_x
_atom_site_fract_y
_atom_site_fract_z
Si Si1 0.500000 0.500000 0.000000
Si Si2 0.619138 0.099914 0.686535
Si Si3 0.000000 0.000000 0.500000
Si Si4 0.629427 0.416360 0.641450
Si Si5 0.355208 0.955982 0.145724
Si Si6 0.317527 0.287342 0.929422
O O1 0.382308 0.429340 0.953694
O O2 0.630151 0.254497 0.656063
O O3 0.591578 0.124734 0.771936
O O4 0.500000 0.000000 0.658430
O O5 0.747571 0.004324 0.672129
O O6 0.111348 0.061284 0.554550
O O7 0.500000 0.500000 0.672104
O O8 0.298583 0.834260 0.098402
O O9 0.500000 0.000000 0.116303
O O10 0.264317 0.087553 0.135142
O O11 0.309736 0.190265 0.000000
#
# Coordination Sequence:
#
# PCOD9558253 Si02
#       6
#     2   8   2   8   8   8
#     4  12  24  40  66  96 124 188 220 302 380 408
#     4  11  25  45  72 107 142 192 237 301 359 430
#     4   8  24  44  74 108 148 184 226 288 356 412
#     4  10  23  46  71 104 150 181 237 287 356 432
#     4  11  28  43  68 100 135 186 237 297 368 428
#     4  12  25  44  66  96 138 176 240 300 365 436
#
# _framework density 20.049661
#
# number of rings (size 3 to 8) (size 9 to 14) (size 15 to 20)
#    0.667    0.444    2.222    2.667    9.333    0.889 
#    0.000    1.111    0.000    0.000    0.000    0.000 
#    0.000    0.000    0.000    0.000    0.000    0.000 
#
# Total GULP energy -200636.576934 kJ/mol
# GULP energy per Si atom -5573.238248 kJ/mol
# Density = 2.000403 g / cm^3
# Si number density = 20.049661 Si / 1000 Ang^3
#
#
#
# Elastic Constant Matrix: (Units=GPa)
#
#
# Indices 1 2 3 4 5 6 
#
# 1 148.9222 58.3199 33.9965 0.0000 0.0000 0.0000
# 2 58.3199 148.9229 33.9968 0.0000 0.0000 0.0000
# 3 33.9965 33.9968 86.0047 0.0000 0.0000 0.0000
# 4 0.0000 0.0000 0.0000 29.7057 0.0000 0.0000
# 5 0.0000 0.0000 0.0000 0.0000 29.7053 0.0000
# 6 0.0000 0.0000 0.0000 0.0000 0.0000 42.6798
#
#
#
# Elastic Compliance Matrix: (Units=1/GPa)
#
#
# Indices 1 2 3 4 5 6 
#
# 1 0.008291 -0.002746 -0.002192 0.000000 0.000000 0.000000
# 2 -0.002746 0.008291 -0.002192 0.000000 0.000000 0.000000
# 3 -0.002192 -0.002192 0.013360 0.000000 0.000000 0.000000
# 4 0.000000 0.000000 0.000000 0.033664 0.000000 0.000000
# 5 0.000000 0.000000 0.000000 0.000000 0.033664 0.000000
# 6 0.000000 0.000000 0.000000 0.000000 0.000000 0.023430
#
#
# Mechanical properties :
#
#
# Convention : Reuss Voigt Hill
#
# Bulk Modulus (GPa) = 63.76696 70.71960 67.24328
# Shear Modulus (GPa) = 35.66690 37.58726 36.62708
#
# Velocity S-wave (km/s) = 4.22231 4.33449 4.27877
# Velocity P-wave (km/s) = 7.45950 7.77169 7.61719
#
# Compressibility (1/GPa) = 0.01568210
#
# Stress axis : x y z
#
# Youngs Moduli (GPa) = 120.61611 120.61656 74.85086
#
# Poissons Ratio (x) = 0.33127 0.16404
# Poissons Ratio (y) = 0.33127 0.16404
# Poissons Ratio (z) = 0.26434 0.26434
#
# Static dielectric constant tensor:
#      x y z
#    x 1.746230 0.000000 0.000000 
#    y 0.000000 1.746230 0.000000 
#    z 0.000000 0.000000 1.702240 
# 
# From -- ./inp_files/3447.got.cif
#   From: 2010.05.17/outbox.cif.g08.bks.cpg/sg117_2_cif.got.tgz:3447.got - 2010.05.20 11:15:09.
