data_PCOD9558059
_publ_section_title
;
Structure prediction by ZEFSAII (Michael W. Deem and Ramdas Pophale) SiO2 
 PCOD9558059
Probable space group: P -4 B 2
;
_chemical_formula_sum "Si O2"
_cell_formula_units_Z 40
_cell_length_a 17.790914
_cell_length_b 17.790914
_cell_length_c 5.573628
_cell_angle_alpha 90.000000
_cell_angle_beta 90.000000
_cell_angle_gamma 90.000000
_cell_volume 1764.145901
_symmetry_space_group_name_H-M "P -4 B 2"
_symmetry_group_IT_number 117
_symmetry_cell_setting 'tetragonal'
loop_
_space_group_symop_operation_xyz
x,y,z
y,-x,-z
-x,-y,z
-y,x,-z
1/2+y,1/2+x,-z
1/2-y,1/2-x,-z
1/2-x,1/2+y,z
1/2+x,1/2-y,z
loop_
_atom_site_type_symbol
_atom_site_label
_atom_site_fract_x
_atom_site_fract_y
_atom_site_fract_z
Si Si1 0.096355 0.435856 0.250000
Si Si2 0.183320 0.895333 0.250000
Si Si3 0.570026 0.724467 0.250000
Si Si4 0.391292 0.756965 0.250000
Si Si5 0.452771 0.237445 0.750000
O O1 0.054690 0.445311 0.500000
O O2 0.116577 0.346682 0.250000
O O3 0.166744 0.491178 0.250000
O O4 0.054690 0.445311 0.000000
O O5 0.222198 0.865796 0.496173
O O6 0.193166 0.986182 0.250000
O O7 0.100273 0.860487 0.250000
O O8 0.222198 0.865796 0.003827
O O9 0.480595 0.737849 0.250000
O O10 0.593217 0.760322 0.504064
O O11 0.593217 0.760322 0.995936
#
# Coordination Sequence:
#
# PCOD9558059 Si02
#       5
#     8   8   8   8   8
#     4  12  16  30  48  64  88 100 144 194 208 262
#     4  10  18  29  43  60  85 110 143 182 219 263
#     4  10  18  29  43  60  85 110 143 182 219 263
#     4  10  19  30  45  64  80 114 148 178 221 252
#     4  10  19  30  45  64  80 114 148 178 221 252
#
# _framework density 22.673862
#
# number of rings (size 3 to 8) (size 9 to 14) (size 15 to 20)
#    0.000    1.600    8.000    1.200    0.000    0.000 
#    0.000    0.000    0.000   57.600    0.000    0.000 
#    0.000    0.000    0.000    0.000    0.000   96.000 
#
# Total GULP energy -222871.869427 kJ/mol
# GULP energy per Si atom -5571.796736 kJ/mol
# Density = 2.262226 g / cm^3
# Si number density = 22.673862 Si / 1000 Ang^3
#
#
#
# Elastic Constant Matrix: (Units=GPa)
#
#
# Indices 1 2 3 4 5 6 
#
# 1 58.6104 3.6738 13.2535 0.0000 0.0000 0.0000
# 2 3.6738 58.6099 13.2549 0.0000 0.0000 0.0000
# 3 13.2535 13.2549 277.5948 0.0000 0.0000 0.0000
# 4 0.0000 0.0000 0.0000 32.8728 0.0000 0.0000
# 5 0.0000 0.0000 0.0000 0.0000 32.8735 0.0000
# 6 0.0000 0.0000 0.0000 0.0000 0.0000 15.9717
#
#
#
# Elastic Compliance Matrix: (Units=1/GPa)
#
#
# Indices 1 2 3 4 5 6 
#
# 1 0.017296 -0.000907 -0.000782 0.000000 0.000000 0.000000
# 2 -0.000907 0.017296 -0.000783 0.000000 0.000000 0.000000
# 3 -0.000782 -0.000783 0.003677 0.000000 0.000000 0.000000
# 4 0.000000 0.000000 0.000000 0.030420 0.000000 0.000000
# 5 0.000000 0.000000 0.000000 0.000000 0.030420 0.000000
# 6 0.000000 0.000000 0.000000 0.000000 0.000000 0.062611
#
#
# Mechanical properties :
#
#
# Convention : Reuss Voigt Hill
#
# Bulk Modulus (GPa) = 30.00824 50.57549 40.29187
# Shear Modulus (GPa) = 28.12595 40.65244 34.38920
#
# Velocity S-wave (km/s) = 3.52583 4.23888 3.89869
# Velocity P-wave (km/s) = 5.46249 6.80526 6.17051
#
# Compressibility (1/GPa) = 0.03332418
#
# Stress axis : x y z
#
# Youngs Moduli (GPa) = 57.81813 57.81751 271.95370
#
# Poissons Ratio (x) = 0.05245 0.21279
# Poissons Ratio (y) = 0.05245 0.21282
# Poissons Ratio (z) = 0.04524 0.04525
#
# Static dielectric constant tensor:
#      x y z
#    x 1.825670 0.000000 0.000000 
#    y 0.000000 1.825670 0.000000 
#    z 0.000000 0.000000 2.026650 
# 
# From -- ./inp_files/715.got.cif
#   From: 2010.05.17/outbox.cif.g08.bks.cpg/sg117_1_cif.got.tgz:715.got - 2010.05.20 11:15:09.
