data_PCOD9558022
_publ_section_title
;
Structure prediction by ZEFSAII (Michael W. Deem and Ramdas Pophale) SiO2 
 PCOD9558022
Probable space group: P -4 C 2
;
_chemical_formula_sum "Si O2"
_cell_formula_units_Z 38
_cell_length_a 11.065866
_cell_length_b 11.065866
_cell_length_c 14.103975
_cell_angle_alpha 90.000000
_cell_angle_beta 90.000000
_cell_angle_gamma 90.000000
_cell_volume 1727.079556
_symmetry_space_group_name_H-M "P -4 C 2"
_symmetry_group_IT_number 116
_symmetry_cell_setting 'tetragonal'
loop_
_space_group_symop_operation_xyz
x,y,z
y,-x,-z
-x,-y,z
-y,x,-z
y,x,1/2-z
-y,-x,1/2-z
-x,y,1/2+z
x,-y,1/2+z
loop_
_atom_site_type_symbol
_atom_site_label
_atom_site_fract_x
_atom_site_fract_y
_atom_site_fract_z
Si Si1 0.239187 0.239187 0.750000
Si Si2 0.978684 0.263884 0.948902
Si Si3 0.653083 0.241916 0.442595
Si Si4 0.973184 0.356018 0.748103
Si Si5 0.000000 0.000000 0.000000
Si Si6 0.626562 0.810737 0.429726
O O1 0.295507 0.294742 0.654547
O O2 0.097944 0.277706 0.742894
O O3 0.930502 0.325793 0.854127
O O4 0.881161 0.277768 0.031518
O O5 0.998568 0.121300 0.937664
O O6 0.096761 0.331191 0.987820
O O7 0.682744 0.322965 0.533992
O O8 0.516140 0.203965 0.427351
O O9 0.000000 0.500000 0.739874
O O10 0.874011 0.328298 0.667097
#
# Coordination Sequence:
#
# PCOD9558022 Si02
#       6
#     4   8   8   8   2   8
#     4  12  22  42  72 114 150 194 254 316 384 459
#     4  12  24  45  71 106 151 196 245 315 383 458
#     4  12  26  45  73 105 149 201 255 313 380 462
#     4  12  24  43  75 111 150 199 254 312 385 465
#     4  12  24  48  70 112 152 186 252 310 388 464
#     4  12  25  47  73 107 150 201 260 312 382 457
#
# _framework density 22.002462000000001
#
# number of rings (size 3 to 8) (size 9 to 14) (size 15 to 20)
#    0.000    0.000    8.421    1.895    0.000    1.263 
#    0.000    1.053    0.000    1.263    0.000    0.000 
#    0.000    0.000    0.000    0.000    0.000    0.000 
#
# Total GULP energy -212260.934623 kJ/mol
# GULP energy per Si atom -5585.814069 kJ/mol
# Density = 2.195238 g / cm^3
# Si number density = 22.002462 Si / 1000 Ang^3
#
#
#
# Elastic Constant Matrix: (Units=GPa)
#
#
# Indices 1 2 3 4 5 6 
#
# 1 93.9328 24.2183 43.9413 0.0000 0.0000 0.0000
# 2 24.2183 93.9328 43.9413 0.0000 0.0000 0.0000
# 3 43.9413 43.9413 151.1615 0.0000 0.0000 0.0000
# 4 0.0000 0.0000 0.0000 25.0130 0.0000 0.0000
# 5 0.0000 0.0000 0.0000 0.0000 25.0130 0.0000
# 6 0.0000 0.0000 0.0000 0.0000 0.0000 23.7755
#
#
#
# Elastic Compliance Matrix: (Units=1/GPa)
#
#
# Indices 1 2 3 4 5 6 
#
# 1 0.012571 -0.001773 -0.003139 0.000000 0.000000 0.000000
# 2 -0.001773 0.012571 -0.003139 0.000000 0.000000 0.000000
# 3 -0.003139 -0.003139 0.008440 0.000000 0.000000 0.000000
# 4 0.000000 0.000000 0.000000 0.039979 0.000000 0.000000
# 5 0.000000 0.000000 0.000000 0.000000 0.039979 0.000000
# 6 0.000000 0.000000 0.000000 0.000000 0.000000 0.042060
#
#
# Mechanical properties :
#
#
# Convention : Reuss Voigt Hill
#
# Bulk Modulus (GPa) = 57.20357 62.58098 59.89228
# Shear Modulus (GPa) = 28.16412 29.88871 29.02642
#
# Velocity S-wave (km/s) = 3.58165 3.68968 3.63607
# Velocity P-wave (km/s) = 6.56959 6.83053 6.70133
#
# Compressibility (1/GPa) = 0.01748143
#
# Stress axis : x y z
#
# Youngs Moduli (GPa) = 79.54551 79.54551 118.47733
#
# Poissons Ratio (x) = 0.14102 0.37191
# Poissons Ratio (y) = 0.14102 0.37191
# Poissons Ratio (z) = 0.24970 0.24970
#
# Static dielectric constant tensor:
#      x y z
#    x 1.865180 0.000000 0.000000 
#    y 0.000000 1.865180 0.000000 
#    z 0.000000 0.000000 1.840200 
# 
# From -- ./inp_files/2633.got.cif
#   From: 2010.05.17/outbox.cif.g08.bks.cpg/sg116_2_cif.got.tgz:2633.got - 2010.05.20 11:11:43.
