data_PCOD9558415
_publ_section_title
;
Structure prediction by ZEFSAII (Michael W. Deem and Ramdas Pophale) SiO2 
 PCOD9558415
Probable space group: P -4 N 2
;
_chemical_formula_sum "Si O2"
_cell_formula_units_Z 40
_cell_length_a 15.618130
_cell_length_b 15.618130
_cell_length_c 9.417516
_cell_angle_alpha 90.000000
_cell_angle_beta 90.000000
_cell_angle_gamma 90.000000
_cell_volume 2297.176864
_symmetry_space_group_name_H-M "P -4 N 2"
_symmetry_group_IT_number 118
_symmetry_cell_setting 'tetragonal'
loop_
_space_group_symop_operation_xyz
x,y,z
y,-x,-z
-x,-y,z
-y,x,-z
1/2+y,1/2+x,1/2-z
1/2-y,1/2-x,1/2-z
1/2-x,1/2+y,1/2+z
1/2+x,1/2-y,1/2+z
loop_
_atom_site_type_symbol
_atom_site_label
_atom_site_fract_x
_atom_site_fract_y
_atom_site_fract_z
Si Si1 0.440673 0.192426 0.684872
Si Si2 0.161105 0.375642 0.414683
Si Si3 0.772091 0.822656 0.047421
Si Si4 0.034513 0.234707 0.455471
Si Si5 0.305759 0.622887 0.859397
O O1 0.383195 0.116806 0.750000
O O2 0.522761 0.155605 0.599564
O O3 0.383740 0.250625 0.582383
O O4 0.478640 0.246731 0.815088
O O5 0.158884 0.341117 0.250000
O O6 0.250358 0.343911 0.479593
O O7 0.084150 0.323990 0.486945
O O8 0.685409 0.769595 0.083207
O O9 0.800371 0.872095 0.189466
O O10 0.106877 0.165461 0.416858
O O11 0.971194 0.206820 0.579002
#
# Coordination Sequence:
#
# PCOD9558415 Si02
#       5
#     8   8   8   8   8
#     4  11  20  34  61  93 109 146 200 236 281 347
#     4   9  18  37  58  81 115 150 186 234 289 333
#     4  10  18  36  58  79 117 152 182 230 297 346
#     4  10  20  37  60  82 111 154 195 233 281 348
#     4  10  19  38  58  80 113 155 190 232 292 342
#
# _framework density 17.412676000000001
#
# number of rings (size 3 to 8) (size 9 to 14) (size 15 to 20)
#    0.000    2.000    8.000    0.000    0.000    4.000 
#    3.600    1.000    0.000    3.000    0.000    0.000 
#    0.000    0.000    0.000    0.000    0.000    0.000 
#
# Total GULP energy -223049.006523 kJ/mol
# GULP energy per Si atom -5576.225163 kJ/mol
# Density = 1.737304 g / cm^3
# Si number density = 17.412676 Si / 1000 Ang^3
#
#
#
# Elastic Constant Matrix: (Units=GPa)
#
#
# Indices 1 2 3 4 5 6 
#
# 1 96.3839 55.2840 50.9088 0.0000 0.0000 0.0000
# 2 55.2840 96.3924 50.9087 0.0000 0.0000 0.0000
# 3 50.9088 50.9087 58.5381 0.0000 0.0000 0.0000
# 4 0.0000 0.0000 0.0000 28.7728 0.0000 0.0000
# 5 0.0000 0.0000 0.0000 0.0000 28.7726 0.0000
# 6 0.0000 0.0000 0.0000 0.0000 0.0000 16.9438
#
#
#
# Elastic Compliance Matrix: (Units=1/GPa)
#
#
# Indices 1 2 3 4 5 6 
#
# 1 0.020087 -0.004243 -0.013778 0.000000 0.000000 0.000000
# 2 -0.004243 0.020083 -0.013775 0.000000 0.000000 0.000000
# 3 -0.013778 -0.013775 0.041046 0.000000 0.000000 0.000000
# 4 0.000000 0.000000 0.000000 0.034755 0.000000 0.000000
# 5 0.000000 0.000000 0.000000 0.000000 0.034755 0.000000
# 6 0.000000 0.000000 0.000000 0.000000 0.000000 0.059019
#
#
# Mechanical properties :
#
#
# Convention : Reuss Voigt Hill
#
# Bulk Modulus (GPa) = 56.75023 62.83526 59.79274
# Shear Modulus (GPa) = 17.90745 21.17868 19.54307
#
# Velocity S-wave (km/s) = 3.21037 3.49130 3.35378
# Velocity P-wave (km/s) = 6.81205 7.23993 7.02925
#
# Compressibility (1/GPa) = 0.01762107
#
# Stress axis : x y z
#
# Youngs Moduli (GPa) = 49.78406 49.79242 24.36308
#
# Poissons Ratio (x) = 0.21129 0.33569
# Poissons Ratio (y) = 0.21125 0.33561
# Poissons Ratio (z) = 0.68595 0.68592
#
# Static dielectric constant tensor:
#      x y z
#    x 1.598660 0.000000 0.000000 
#    y 0.000000 1.598660 0.000000 
#    z 0.000000 0.000000 1.591710 
# 
# From -- ./inp_files/1856.got.cif
#   From: 2010.05.17/outbox.cif.g08.bks.cpg/sg118_1_cif.got.tgz:1856.got - 2010.05.20 11:17:24.
