data_PCOD9558729
_publ_section_title
;
Structure prediction by ZEFSAII (Michael W. Deem and Ramdas Pophale) SiO2 
 PCOD9558729
Probable space group: P -4 N 2
;
_chemical_formula_sum "Si O2"
_cell_formula_units_Z 16
_cell_length_a 5.043301
_cell_length_b 5.043301
_cell_length_c 25.229351
_cell_angle_alpha 90.000000
_cell_angle_beta 90.000000
_cell_angle_gamma 90.000000
_cell_volume 641.705641
_symmetry_space_group_name_H-M "P -4 N 2"
_symmetry_group_IT_number 118
_symmetry_cell_setting 'tetragonal'
loop_
_space_group_symop_operation_xyz
x,y,z
y,-x,-z
-x,-y,z
-y,x,-z
1/2+y,1/2+x,1/2-z
1/2-y,1/2-x,1/2-z
1/2-x,1/2+y,1/2+z
1/2+x,1/2-y,1/2+z
loop_
_atom_site_type_symbol
_atom_site_label
_atom_site_fract_x
_atom_site_fract_y
_atom_site_fract_z
Si Si1 0.000000 0.000000 0.500000
Si Si2 0.000000 0.500000 0.750000
Si Si3 0.321500 0.768769 0.829030
Si Si4 0.500000 0.000000 0.569546
O O1 0.907835 0.252746 0.465472
O O2 0.934613 0.275979 0.793351
O O3 0.500000 0.500000 0.829163
O O4 0.288555 0.867099 0.889533
O O5 0.500000 0.000000 0.805645
#
# Coordination Sequence:
#
# PCOD9558729 Si02
#       4
#     2   2   8   4
#     4  12  24  52  76 104 148 204 248 344 396 442
#     4  12  26  38  82 102 168 206 246 306 412 452
#     4  10  24  47  69 109 154 195 262 314 382 482
#     4  10  24  48  72 110 146 196 270 320 394 464
#
# _framework density 24.933554000000001
#
# number of rings (size 3 to 8) (size 9 to 14) (size 15 to 20)
#    1.500    0.000    2.500    0.750    7.000    3.000 
#    9.000    0.000    0.000    0.000    0.000    0.000 
#    0.000    0.000    0.000    0.000    0.000    0.000 
#
# Total GULP energy -89100.592561 kJ/mol
# GULP energy per Si atom -5568.787035 kJ/mol
# Density = 2.487680 g / cm^3
# Si number density = 24.933554 Si / 1000 Ang^3
#
#
#
# Elastic Constant Matrix: (Units=GPa)
#
#
# Indices 1 2 3 4 5 6 
#
# 1 166.0708 58.3283 52.0562 0.0000 0.0000 0.0000
# 2 58.3283 166.0708 52.0562 0.0000 0.0000 0.0000
# 3 52.0562 52.0562 167.1033 0.0000 0.0000 0.0000
# 4 0.0000 0.0000 0.0000 94.0443 0.0000 0.0000
# 5 0.0000 0.0000 0.0000 0.0000 94.0443 0.0000
# 6 0.0000 0.0000 0.0000 0.0000 0.0000 43.8985
#
#
#
# Elastic Compliance Matrix: (Units=1/GPa)
#
#
# Indices 1 2 3 4 5 6 
#
# 1 0.007245 -0.002036 -0.001623 0.000000 0.000000 0.000000
# 2 -0.002036 0.007245 -0.001623 0.000000 0.000000 0.000000
# 3 -0.001623 -0.001623 0.006995 0.000000 0.000000 0.000000
# 4 0.000000 0.000000 0.000000 0.010633 0.000000 0.000000
# 5 0.000000 0.000000 0.000000 0.000000 0.010633 0.000000
# 6 0.000000 0.000000 0.000000 0.000000 0.000000 0.022780
#
#
# Mechanical properties :
#
#
# Convention : Reuss Voigt Hill
#
# Bulk Modulus (GPa) = 91.55218 91.56959 91.56089
# Shear Modulus (GPa) = 62.70642 68.85104 65.77873
#
# Velocity S-wave (km/s) = 5.02036 5.26059 5.14188
# Velocity P-wave (km/s) = 8.39068 8.58508 8.48843
#
# Compressibility (1/GPa) = 0.01092273
#
# Stress axis : x y z
#
# Youngs Moduli (GPa) = 138.02000 138.02000 142.95122
#
# Poissons Ratio (x) = 0.28102 0.23198
# Poissons Ratio (y) = 0.28102 0.23198
# Poissons Ratio (z) = 0.22398 0.22398
#
# Static dielectric constant tensor:
#      x y z
#    x 1.988040 0.000000 0.000000 
#    y 0.000000 1.988040 0.000000 
#    z 0.000000 0.000000 2.018860 
# 
# From -- ./inp_files/5824.got.cif
#   From: 2010.05.17/outbox.cif.g08.bks.cpg/sg118_3_cif.got.tgz:5824.got - 2010.05.20 11:17:24.
