data_PCOD9558114
_publ_section_title
;
Structure prediction by ZEFSAII (Michael W. Deem and Ramdas Pophale) SiO2 
 PCOD9558114
Probable space group: P -4 B 2
;
_chemical_formula_sum "Si O2"
_cell_formula_units_Z 58
_cell_length_a 17.781637
_cell_length_b 17.781637
_cell_length_c 9.756608
_cell_angle_alpha 90.000000
_cell_angle_beta 90.000000
_cell_angle_gamma 90.000000
_cell_volume 3084.908852
_symmetry_space_group_name_H-M "P -4 B 2"
_symmetry_group_IT_number 117
_symmetry_cell_setting 'tetragonal'
loop_
_space_group_symop_operation_xyz
x,y,z
y,-x,-z
-x,-y,z
-y,x,-z
1/2+y,1/2+x,-z
1/2-y,1/2-x,-z
1/2-x,1/2+y,z
1/2+x,1/2-y,z
loop_
_atom_site_type_symbol
_atom_site_label
_atom_site_fract_x
_atom_site_fract_y
_atom_site_fract_z
Si Si1 0.321339 0.575510 0.630067
Si Si2 0.910810 0.310378 0.578093
Si Si3 0.383671 0.366050 0.073870
Si Si4 0.000000 0.000000 0.000000
Si Si5 0.660560 0.216750 0.869783
Si Si6 0.098117 0.173913 0.434695
Si Si7 0.823069 0.586792 0.408544
Si Si8 0.717963 0.336920 0.194749
O O1 0.253188 0.606612 0.537463
O O2 0.321168 0.595065 0.788812
O O3 0.322129 0.486791 0.614062
O O4 0.392612 0.612155 0.553672
O O5 0.884672 0.384672 0.500000
O O6 0.870003 0.287831 0.719534
O O7 0.998796 0.310116 0.606586
O O8 0.294470 0.383027 0.096514
O O9 0.439944 0.438373 0.064493
O O10 0.381815 0.312955 0.938400
O O11 0.626354 0.178112 0.737315
O O12 0.749647 0.232738 0.842920
O O13 0.662282 0.162282 0.000000
O O14 0.119136 0.252569 0.505352
O O15 0.150195 0.159398 0.304556
O O16 0.894989 0.605012 0.500000
#
# Coordination Sequence:
#
# PCOD9558114 Si02
#       8
#     8   8   8   2   8   8   8   8
#     4  10  21  36  57  81 123 160 218 254 304 373
#     4  10  23  39  62  92 119 155 199 265 324 373
#     4  11  23  38  56  86 125 174 211 247 310 371
#     4  12  28  36  56  86 148 176 188 258 312 388
#     4  10  21  38  65  89 119 162 219 258 296 368
#     4  10  20  34  54  84 115 161 203 256 307 367
#     4  11  21  38  63  89 117 158 200 264 322 371
#     4  10  21  38  62  88 119 162 214 259 304 365
#
# _framework density 18.801205
#
# number of rings (size 3 to 8) (size 9 to 14) (size 15 to 20)
#    0.000    1.655    2.759    1.655    3.862    2.759 
#    0.000    0.000    0.000    0.000    0.000    0.966 
#    0.000    0.000    0.000    0.000    0.000    0.000 
#
# Total GULP energy -323237.260987 kJ/mol
# GULP energy per Si atom -5573.056224 kJ/mol
# Density = 1.875841 g / cm^3
# Si number density = 18.801205 Si / 1000 Ang^3
#
#
#
# Elastic Constant Matrix: (Units=GPa)
#
#
# Indices 1 2 3 4 5 6 
#
# 1 29.6414 24.2759 37.2845 0.0000 0.0000 0.0000
# 2 24.2759 29.6436 37.2853 0.0000 0.0000 0.0000
# 3 37.2845 37.2853 162.8903 0.0000 0.0000 0.0000
# 4 0.0000 0.0000 0.0000 17.3591 0.0000 0.0000
# 5 0.0000 0.0000 0.0000 0.0000 17.3584 0.0000
# 6 0.0000 0.0000 0.0000 0.0000 0.0000 28.5159
#
#
#
# Elastic Compliance Matrix: (Units=1/GPa)
#
#
# Indices 1 2 3 4 5 6 
#
# 1 0.106743 -0.079601 -0.006212 0.000000 0.000000 0.000000
# 2 -0.079601 0.106734 -0.006211 0.000000 0.000000 0.000000
# 3 -0.006212 -0.006211 0.008983 0.000000 0.000000 0.000000
# 4 0.000000 0.000000 0.000000 0.057607 0.000000 0.000000
# 5 0.000000 0.000000 0.000000 0.000000 0.057609 0.000000
# 6 0.000000 0.000000 0.000000 0.000000 0.000000 0.035068
#
#
# Mechanical properties :
#
#
# Convention : Reuss Voigt Hill
#
# Bulk Modulus (GPa) = 26.03433 46.65184 36.34309
# Shear Modulus (GPa) = 8.77814 20.86865 14.82340
#
# Velocity S-wave (km/s) = 2.16311 3.33523 2.81094
# Velocity P-wave (km/s) = 4.48508 6.30069 5.46876
#
# Compressibility (1/GPa) = 0.03841082
#
# Stress axis : x y z
#
# Youngs Moduli (GPa) = 9.36827 9.36908 111.32494
#
# Poissons Ratio (x) = 0.74579 0.69157
# Poissons Ratio (y) = 0.74573 0.69144
# Poissons Ratio (z) = 0.05820 0.05819
#
# Static dielectric constant tensor:
#      x y z
#    x 1.678620 0.000000 0.000000 
#    y 0.000000 1.678620 0.000000 
#    z 0.000000 0.000000 1.660700 
# 
# From -- ./inp_files/2091.got.cif
#   From: 2010.05.17/outbox.cif.g08.bks.cpg/sg117_2_cif.got.tgz:2091.got - 2010.05.20 11:15:09.
