data_PCOD9558984
_publ_section_title
;
Structure prediction by ZEFSAII (Michael W. Deem and Ramdas Pophale) SiO2 
 PCOD9558984
Probable space group: I -4 M 2
;
_chemical_formula_sum "Si O2"
_cell_formula_units_Z 112
_cell_length_a 23.615569
_cell_length_b 23.615569
_cell_length_c 12.118042
_cell_angle_alpha 90.000000
_cell_angle_beta 90.000000
_cell_angle_gamma 90.000000
_cell_volume 6758.172635
_symmetry_space_group_name_H-M "I -4 M 2"
_symmetry_group_IT_number 119
_symmetry_cell_setting 'tetragonal'
loop_
_space_group_symop_operation_xyz
x,y,z
y,-x,-z
-x,-y,z
-y,x,-z
y,x,-z
-y,-x,-z
-x,y,z
x,-y,z
1/2+x,1/2+y,1/2+z
1/2+y,1/2-x,1/2-z
1/2-x,1/2-y,1/2+z
1/2-y,1/2+x,1/2-z
1/2+y,1/2+x,1/2-z
1/2-y,1/2-x,1/2-z
1/2-x,1/2+y,1/2+z
1/2+x,1/2-y,1/2+z
loop_
_atom_site_type_symbol
_atom_site_label
_atom_site_fract_x
_atom_site_fract_y
_atom_site_fract_z
Si Si1 0.061720 0.116884 0.404685
Si Si2 0.351564 0.270084 0.073572
Si Si3 0.824227 0.267656 0.956199
Si Si4 0.565637 0.435586 0.327409
Si Si5 0.268822 0.148238 0.806276
Si Si6 0.324842 0.364006 0.693115
Si Si7 0.564783 0.252528 0.877312
O O1 0.105878 0.105878 0.500000
O O2 0.064668 0.073012 0.305275
O O3 0.065542 0.179490 0.354357
O O4 0.000000 0.111963 0.458216
O O5 0.314663 0.214259 0.103761
O O6 0.373697 0.304565 0.180169
O O7 0.309248 0.309248 0.000000
O O8 0.400582 0.249420 0.991079
O O9 0.866606 0.231463 0.881405
O O10 0.778048 0.221953 0.000000
O O11 0.854044 0.289782 0.067838
O O12 0.500000 0.430652 0.359107
O O13 0.585061 0.500000 0.361881
O O14 0.599980 0.377893 0.354095
O O15 0.297298 0.202703 0.750000
O O16 0.201504 0.156593 0.808990
O O17 0.278452 0.096451 0.722810
O O18 0.500000 0.235055 0.888649
#
# Coordination Sequence:
#
# PCOD9558984 Si02
#       7
#    16  16  16  16  16  16  16
#     4  10  18  28  41  62  92 128 175 220 256 293
#     4  11  17  30  47  72 105 132 164 212 269 321
#     4   9  19  30  49  73  94 127 167 219 274 318
#     4  10  20  32  45  62  92 139 188 229 263 293
#     4  11  18  34  53  71 100 131 167 218 266 320
#     4  11  19  30  49  74  99 127 180 229 272 317
#     4  11  21  30  47  75 103 134 165 205 262 312
#
# _framework density 16.572527999999998
#
# number of rings (size 3 to 8) (size 9 to 14) (size 15 to 20)
#    0.000    1.571    4.286    3.857    0.000    2.429 
#    0.000    0.714    0.000    5.143    0.000    9.000 
#    0.000    0.286    0.000    0.000    0.000    0.429 
#
# Total GULP energy -311861.025181 kJ/mol
# GULP energy per Si atom -5568.946878 kJ/mol
# Density = 1.653481 g / cm^3
# Si number density = 16.572528 Si / 1000 Ang^3
#
#
#
# Elastic Constant Matrix: (Units=GPa)
#
#
# Indices 1 2 3 4 5 6 
#
# 1 61.7469 44.1195 15.7125 0.0000 0.0000 0.0000
# 2 44.1195 61.7409 15.7087 0.0000 0.0000 0.0000
# 3 15.7125 15.7087 56.9812 0.0000 0.0000 0.0000
# 4 0.0000 0.0000 0.0000 15.8567 0.0000 0.0000
# 5 0.0000 0.0000 0.0000 0.0000 15.8569 0.0000
# 6 0.0000 0.0000 0.0000 0.0000 0.0000 27.0474
#
#
#
# Elastic Compliance Matrix: (Units=1/GPa)
#
#
# Indices 1 2 3 4 5 6 
#
# 1 0.033513 -0.023226 -0.002838 0.000000 0.000000 0.000000
# 2 -0.023226 0.033515 -0.002835 0.000000 0.000000 0.000000
# 3 -0.002838 -0.002835 0.019114 0.000000 0.000000 0.000000
# 4 0.000000 0.000000 0.000000 0.063065 0.000000 0.000000
# 5 0.000000 0.000000 0.000000 0.000000 0.063064 0.000000
# 6 0.000000 0.000000 0.000000 0.000000 0.000000 0.036972
#
#
# Mechanical properties :
#
#
# Convention : Reuss Voigt Hill
#
# Bulk Modulus (GPa) = 35.28129 36.83893 36.06011
# Shear Modulus (GPa) = 15.79838 18.74741 17.27290
#
# Velocity S-wave (km/s) = 3.09088 3.36703 3.23191
# Velocity P-wave (km/s) = 5.83724 6.11498 5.97772
#
# Compressibility (1/GPa) = 0.02834363
#
# Stress axis : x y z
#
# Youngs Moduli (GPa) = 29.83950 29.83748 52.31819
#
# Poissons Ratio (x) = 0.69300 0.14849
# Poissons Ratio (y) = 0.69304 0.14832
# Poissons Ratio (z) = 0.08469 0.08459
#
# Static dielectric constant tensor:
#      x y z
#    x 1.592410 0.000000 0.000000 
#    y 0.000000 1.592410 0.000000 
#    z 0.000000 0.000000 1.633960 
# 
# From -- ./inp_files/4415.got.cif
#   From: 2010.05.17/outbox.cif.g08.bks.cpg/sg119_3_cif.got.tgz:4415.got - 2010.05.20 11:21:29.
