data_PCOD9558680
_publ_section_title
;
Structure prediction by ZEFSAII (Michael W. Deem and Ramdas Pophale) SiO2 
 PCOD9558680
Probable space group: P -4 N 2
;
_chemical_formula_sum "Si O2"
_cell_formula_units_Z 48
_cell_length_a 8.543444
_cell_length_b 8.543444
_cell_length_c 30.251192
_cell_angle_alpha 90.000000
_cell_angle_beta 90.000000
_cell_angle_gamma 90.000000
_cell_volume 2208.047675
_symmetry_space_group_name_H-M "P -4 N 2"
_symmetry_group_IT_number 118
_symmetry_cell_setting 'tetragonal'
loop_
_space_group_symop_operation_xyz
x,y,z
y,-x,-z
-x,-y,z
-y,x,-z
1/2+y,1/2+x,1/2-z
1/2-y,1/2-x,1/2-z
1/2-x,1/2+y,1/2+z
1/2+x,1/2-y,1/2+z
loop_
_atom_site_type_symbol
_atom_site_label
_atom_site_fract_x
_atom_site_fract_y
_atom_site_fract_z
Si Si1 0.500000 0.500000 0.825654
Si Si2 0.498698 0.822830 0.389547
Si Si3 0.000000 0.500000 0.440686
Si Si4 0.309088 0.160520 0.636118
Si Si5 0.042773 0.250169 0.991404
Si Si6 0.254008 0.495616 0.749537
Si Si7 0.854804 0.087415 0.837270
O O1 0.547694 0.665910 0.848736
O O2 0.354660 0.525495 0.792817
O O3 0.330882 0.764288 0.371804
O O4 0.493345 0.808317 0.442287
O O5 0.651956 0.737016 0.369230
O O6 0.500000 0.000000 0.374764
O O7 0.908982 0.383336 0.408273
O O8 0.883095 0.588387 0.473906
O O9 0.467015 0.209507 0.665278
O O10 0.885209 0.171073 0.010029
O O11 0.108493 0.608493 0.750000
O O12 0.351703 0.562834 0.707683
O O13 0.181598 0.318403 0.750000
O O14 0.000000 0.000000 0.861396
#
# Coordination Sequence:
#
# PCOD9558680 Si02
#       7
#     4   8   4   8   8   8   8
#     4  12  28  48  68 103 150 190 235 306 366 438
#     4  11  23  41  73 102 134 179 240 297 354 428
#     4  12  24  46  68 101 148 186 231 300 360 440
#     4  11  27  44  67 102 143 192 236 294 367 429
#     4  11  23  42  68 101 135 181 237 289 354 424
#     4  11  25  44  70 102 135 182 238 295 359 429
#     4  10  22  43  68  98 133 178 235 293 346 429
#
# _framework density 21.738662999999999
#
# number of rings (size 3 to 8) (size 9 to 14) (size 15 to 20)
#    0.000    1.000    3.333    3.000   11.667    1.333 
#    0.000    0.833    0.000    0.000    0.000    0.000 
#    0.000    0.000    0.000    0.000    0.000    0.000 
#
# Total GULP energy -267463.906786 kJ/mol
# GULP energy per Si atom -5572.164725 kJ/mol
# Density = 2.168918 g / cm^3
# Si number density = 21.738663 Si / 1000 Ang^3
#
#
#
# Elastic Constant Matrix: (Units=GPa)
#
#
# Indices 1 2 3 4 5 6 
#
# 1 111.1545 47.2802 40.5609 0.0000 0.0000 0.0000
# 2 47.2802 111.1553 40.5609 0.0000 0.0000 0.0000
# 3 40.5609 40.5609 107.7496 0.0000 0.0000 0.0000
# 4 0.0000 0.0000 0.0000 42.9438 0.0000 0.0000
# 5 0.0000 0.0000 0.0000 0.0000 42.9439 0.0000
# 6 0.0000 0.0000 0.0000 0.0000 0.0000 41.6605
#
#
#
# Elastic Compliance Matrix: (Units=1/GPa)
#
#
# Indices 1 2 3 4 5 6 
#
# 1 0.011737 -0.003918 -0.002943 0.000000 0.000000 0.000000
# 2 -0.003918 0.011737 -0.002943 0.000000 0.000000 0.000000
# 3 -0.002943 -0.002943 0.011497 0.000000 0.000000 0.000000
# 4 0.000000 0.000000 0.000000 0.023286 0.000000 0.000000
# 5 0.000000 0.000000 0.000000 0.000000 0.023286 0.000000
# 6 0.000000 0.000000 0.000000 0.000000 0.000000 0.024004
#
#
# Mechanical properties :
#
#
# Convention : Reuss Voigt Hill
#
# Bulk Modulus (GPa) = 65.09944 65.20705 65.15324
# Shear Modulus (GPa) = 38.37964 38.95346 38.66655
#
# Velocity S-wave (km/s) = 4.20635 4.23767 4.22204
# Velocity P-wave (km/s) = 7.32137 7.34880 7.33510
#
# Compressibility (1/GPa) = 0.01536112
#
# Stress axis : x y z
#
# Youngs Moduli (GPa) = 85.19895 85.19959 86.98167
#
# Poissons Ratio (x) = 0.33385 0.25601
# Poissons Ratio (y) = 0.33385 0.25601
# Poissons Ratio (z) = 0.25076 0.25076
#
# Static dielectric constant tensor:
#      x y z
#    x 1.828860 0.000000 0.000000 
#    y 0.000000 1.828850 0.000000 
#    z 0.000000 0.000000 1.820520 
# 
# From -- ./inp_files/6915.got.cif
#   From: 2010.05.17/outbox.cif.g08.bks.cpg/sg118_4_cif.got.tgz:6915.got - 2010.05.20 11:17:24.
