data_PCOD9558709
_publ_section_title
;
Structure prediction by ZEFSAII (Michael W. Deem and Ramdas Pophale) SiO2 
 PCOD9558709
Probable space group: P -4 N 2
;
_chemical_formula_sum "Si O2"
_cell_formula_units_Z 58
_cell_length_a 18.135041
_cell_length_b 18.135041
_cell_length_c 8.695947
_cell_angle_alpha 90.000000
_cell_angle_beta 90.000000
_cell_angle_gamma 90.000000
_cell_volume 2859.920546
_symmetry_space_group_name_H-M "P -4 N 2"
_symmetry_group_IT_number 118
_symmetry_cell_setting 'tetragonal'
loop_
_space_group_symop_operation_xyz
x,y,z
y,-x,-z
-x,-y,z
-y,x,-z
1/2+y,1/2+x,1/2-z
1/2-y,1/2-x,1/2-z
1/2-x,1/2+y,1/2+z
1/2+x,1/2-y,1/2+z
loop_
_atom_site_type_symbol
_atom_site_label
_atom_site_fract_x
_atom_site_fract_y
_atom_site_fract_z
Si Si1 0.716628 0.102811 0.302990
Si Si2 0.347864 0.999276 0.560516
Si Si3 0.514201 0.713769 0.379213
Si Si4 0.708090 0.483402 0.278159
Si Si5 0.365913 0.355025 0.953677
Si Si6 0.715909 0.876445 0.366040
Si Si7 0.000000 0.500000 0.250000
Si Si8 0.934563 0.941236 0.267291
O O1 0.678028 0.178028 0.250000
O O2 0.661859 0.058340 0.418451
O O3 0.793389 0.104944 0.396581
O O4 0.743647 0.062069 0.148140
O O5 0.278840 0.989441 0.679691
O O6 0.335807 0.079898 0.484337
O O7 0.425936 0.997148 0.645936
O O8 0.539962 0.729588 0.550732
O O9 0.562711 0.747789 0.243530
O O10 0.520629 0.627061 0.340562
O O11 0.673044 0.415509 0.185872
O O12 0.639559 0.540525 0.293920
O O13 0.339582 0.282557 0.043768
O O14 0.419162 0.400934 0.066534
O O15 0.676103 0.823898 0.250000
O O16 0.000000 0.000000 0.280069
#
# Coordination Sequence:
#
# PCOD9558709 Si02
#       8
#     8   8   8   8   8   8   2   8
#     4  11  24  46  66  93 142 182 230 287 352 417
#     4  10  25  46  68 101 130 175 232 290 356 412
#     4  10  25  41  62 102 132 175 229 280 340 417
#     4  11  24  41  69  97 143 173 225 294 334 423
#     4  10  23  43  62  99 130 187 225 266 350 416
#     4   9  21  44  67  89 131 167 217 273 341 413
#     4  12  28  44  78 104 124 180 250 304 354 406
#     4  11  24  39  69  98 141 186 226 277 349 419
#
# _framework density 20.280282
#
# number of rings (size 3 to 8) (size 9 to 14) (size 15 to 20)
#    0.000    1.655    1.379    1.655    9.655    2.207 
#    6.207    0.000    0.000    0.000    0.000    0.000 
#    0.000    0.000    0.000    0.000    0.000    0.000 
#
# Total GULP energy -323645.944911 kJ/mol
# GULP energy per Si atom -5580.102498 kJ/mol
# Density = 2.023412 g / cm^3
# Si number density = 20.280282 Si / 1000 Ang^3
#
#
#
# Elastic Constant Matrix: (Units=GPa)
#
#
# Indices 1 2 3 4 5 6 
#
# 1 57.1891 24.7487 10.2376 0.0000 0.0000 0.0000
# 2 24.7487 57.1906 10.2361 0.0000 0.0000 0.0000
# 3 10.2376 10.2361 79.9727 0.0000 0.0000 0.0000
# 4 0.0000 0.0000 0.0000 19.6874 0.0000 0.0000
# 5 0.0000 0.0000 0.0000 0.0000 19.6869 0.0000
# 6 0.0000 0.0000 0.0000 0.0000 0.0000 22.5917
#
#
#
# Elastic Compliance Matrix: (Units=1/GPa)
#
#
# Indices 1 2 3 4 5 6 
#
# 1 0.021717 -0.009109 -0.001614 0.000000 0.000000 0.000000
# 2 -0.009109 0.021716 -0.001613 0.000000 0.000000 0.000000
# 3 -0.001614 -0.001613 0.012917 0.000000 0.000000 0.000000
# 4 0.000000 0.000000 0.000000 0.050794 0.000000 0.000000
# 5 0.000000 0.000000 0.000000 0.000000 0.050795 0.000000
# 6 0.000000 0.000000 0.000000 0.000000 0.000000 0.044264
#
#
# Mechanical properties :
#
#
# Convention : Reuss Voigt Hill
#
# Bulk Modulus (GPa) = 31.56848 31.64414 31.60631
# Shear Modulus (GPa) = 21.05840 22.33520 21.69680
#
# Velocity S-wave (km/s) = 3.22587 3.32222 3.27440
# Velocity P-wave (km/s) = 5.42908 5.50940 5.46939
#
# Compressibility (1/GPa) = 0.03167717
#
# Stress axis : x y z
#
# Youngs Moduli (GPa) = 46.04771 46.04926 77.41490
#
# Poissons Ratio (x) = 0.41945 0.12496
# Poissons Ratio (y) = 0.41944 0.12491
# Poissons Ratio (z) = 0.07433 0.07430
#
# Static dielectric constant tensor:
#      x y z
#    x 1.800490 0.000000 0.000000 
#    y 0.000000 1.800490 0.000000 
#    z 0.000000 0.000000 1.713420 
# 
# From -- ./inp_files/2218.got.cif
#   From: 2010.05.17/outbox.cif.g08.bks.cpg/sg118_2_cif.got.tgz:2218.got - 2010.05.20 11:17:24.
