data_PCOD9558657
_publ_section_title
;
Structure prediction by ZEFSAII (Michael W. Deem and Ramdas Pophale) SiO2 
 PCOD9558657
Probable space group: P -4 N 2
;
_chemical_formula_sum "Si O2"
_cell_formula_units_Z 36
_cell_length_a 10.051949
_cell_length_b 10.051949
_cell_length_c 19.598179
_cell_angle_alpha 90.000000
_cell_angle_beta 90.000000
_cell_angle_gamma 90.000000
_cell_volume 1980.232906
_symmetry_space_group_name_H-M "P -4 N 2"
_symmetry_group_IT_number 118
_symmetry_cell_setting 'tetragonal'
loop_
_space_group_symop_operation_xyz
x,y,z
y,-x,-z
-x,-y,z
-y,x,-z
1/2+y,1/2+x,1/2-z
1/2-y,1/2-x,1/2-z
1/2-x,1/2+y,1/2+z
1/2+x,1/2-y,1/2+z
loop_
_atom_site_type_symbol
_atom_site_label
_atom_site_fract_x
_atom_site_fract_y
_atom_site_fract_z
Si Si1 0.256460 0.814967 0.353264
Si Si2 0.430224 0.712766 0.002999
Si Si3 0.229846 0.270155 0.250000
Si Si4 0.660476 0.517594 0.725561
Si Si5 0.343902 0.982195 0.636798
O O1 0.277779 0.880010 0.427054
O O2 0.376656 0.722569 0.327256
O O3 0.215875 0.927654 0.298092
O O4 0.125398 0.724217 0.357299
O O5 0.581006 0.658491 0.010785
O O6 0.425919 0.807835 0.937712
O O7 0.371399 0.282437 0.286104
O O8 0.113164 0.285371 0.305159
O O9 0.500000 0.500000 0.725288
O O10 0.500000 0.000000 0.646529
#
# Coordination Sequence:
#
# PCOD9558657 Si02
#       5
#     8   8   4   8   8
#     4  10  22  40  62  88 125 160 207 256 308 368
#     4   9  19  38  62  86 117 160 205 252 312 372
#     4  12  23  37  66  92 124 162 206 252 318 362
#     4  11  22  39  62  92 125 162 201 260 308 362
#     4  11  22  38  63  94 118 163 213 256 302 374
#
# _framework density 18.179679
#
# number of rings (size 3 to 8) (size 9 to 14) (size 15 to 20)
#    0.000    1.556    2.222    3.000    6.222    1.778 
#   12.000    0.000    0.000    0.000    0.000    0.000 
#    0.000    0.000    0.000    0.000    0.000    0.000 
#
# Total GULP energy -201029.637783 kJ/mol
# GULP energy per Si atom -5584.156605 kJ/mol
# Density = 1.813830 g / cm^3
# Si number density = 18.179679 Si / 1000 Ang^3
#
#
#
# Elastic Constant Matrix: (Units=GPa)
#
#
# Indices 1 2 3 4 5 6 
#
# 1 87.7481 34.4978 40.6311 0.0000 0.0000 0.0000
# 2 34.4978 87.7486 40.6314 0.0000 0.0000 0.0000
# 3 40.6311 40.6314 120.8671 0.0000 0.0000 0.0000
# 4 0.0000 0.0000 0.0000 -22.5362 0.0000 0.0000
# 5 0.0000 0.0000 0.0000 0.0000 -22.5252 0.0000
# 6 0.0000 0.0000 0.0000 0.0000 0.0000 25.6466
#
#
#
# Elastic Compliance Matrix: (Units=1/GPa)
#
#
# Indices 1 2 3 4 5 6 
#
# 1 0.014657 -0.004122 -0.003541 0.000000 0.000000 0.000000
# 2 -0.004122 0.014657 -0.003541 0.000000 0.000000 0.000000
# 3 -0.003541 -0.003541 0.010654 0.000000 0.000000 0.000000
# 4 0.000000 0.000000 0.000000 -0.044373 0.000000 0.000000
# 5 0.000000 0.000000 0.000000 0.000000 -0.044395 0.000000
# 6 0.000000 0.000000 0.000000 0.000000 0.000000 0.038991
#
#
# Mechanical properties :
#
#
# Convention : Reuss Voigt Hill
#
# Bulk Modulus (GPa) = 56.95428 58.65384 57.80406
# Shear Modulus (GPa) = 270.94230 8.15727 139.54978
#
# Velocity S-wave (km/s) = 12.22127 2.12056 8.77086
# Velocity P-wave (km/s) = 15.18362 6.19105 11.59464
#
# Compressibility (1/GPa) = 0.01755794
#
# Stress axis : x y z
#
# Youngs Moduli (GPa) = 68.22804 68.22835 93.85769
#
# Poissons Ratio (x) = 0.28127 0.33237
# Poissons Ratio (y) = 0.28127 0.33237
# Poissons Ratio (z) = 0.24161 0.24161
#
# Static dielectric constant tensor:
#      x y z
#    x 1.644550 0.000000 0.000000 
#    y 0.000000 1.644540 0.000000 
#    z 0.000000 0.000000 1.614920 
# 
# From -- ./inp_files/5471.got.cif
#   From: 2010.05.17/outbox.cif.g08.bks.cpg/sg118_3_cif.got.tgz:5471.got - 2010.05.20 11:17:24.
