data_PCOD9558912
_publ_section_title
;
Structure prediction by ZEFSAII (Michael W. Deem and Ramdas Pophale) SiO2 
 PCOD9558912
Probable space group: P -4 N 2
;
_chemical_formula_sum "Si O2"
_cell_formula_units_Z 40
_cell_length_a 8.391659
_cell_length_b 8.391659
_cell_length_c 25.854498
_cell_angle_alpha 90.000000
_cell_angle_beta 90.000000
_cell_angle_gamma 90.000000
_cell_volume 1820.672218
_symmetry_space_group_name_H-M "P -4 N 2"
_symmetry_group_IT_number 118
_symmetry_cell_setting 'tetragonal'
loop_
_space_group_symop_operation_xyz
x,y,z
y,-x,-z
-x,-y,z
-y,x,-z
1/2+y,1/2+x,1/2-z
1/2-y,1/2-x,1/2-z
1/2-x,1/2+y,1/2+z
1/2+x,1/2-y,1/2+z
loop_
_atom_site_type_symbol
_atom_site_label
_atom_site_fract_x
_atom_site_fract_y
_atom_site_fract_z
Si Si1 0.117765 0.740832 0.628590
Si Si2 0.186207 0.279157 0.555341
Si Si3 0.166382 0.438537 0.053017
Si Si4 0.500000 0.500000 0.790607
Si Si5 0.178280 0.936828 0.149857
Si Si6 0.737090 0.762911 0.750000
O O1 0.248237 0.830379 0.594337
O O2 0.199506 0.583095 0.649418
O O3 0.972704 0.708798 0.589636
O O4 0.061052 0.855879 0.673925
O O5 0.154518 0.361562 0.500617
O O6 0.317291 0.355539 0.593111
O O7 0.226117 0.095194 0.543435
O O8 0.000000 0.500000 0.074081
O O9 0.569156 0.663576 0.763503
O O10 0.248020 0.819019 0.193431
O O11 0.000000 0.000000 0.160330
#
# Coordination Sequence:
#
# PCOD9558912 Si02
#       6
#     8   8   8   4   8   4
#     4  12  24  45  75 105 144 190 243 308 366 445
#     4  12  24  44  70 105 145 191 252 297 368 449
#     4  12  24  42  69 103 145 193 239 303 372 444
#     4  12  26  46  79 108 142 189 254 314 372 452
#     4  12  27  49  73 110 152 191 248 317 379 447
#     4  12  26  51  77 108 144 200 251 311 386 450
#
# _framework density 21.969906000000002
#
# number of rings (size 3 to 8) (size 9 to 14) (size 15 to 20)
#    0.000    0.000    7.000    3.000    0.000    1.600 
#    0.000    1.000    0.000    0.000    0.000    0.000 
#    0.000    0.000    0.000    0.000    0.000    0.000 
#
# Total GULP energy -223160.803257 kJ/mol
# GULP energy per Si atom -5579.020081 kJ/mol
# Density = 2.191990 g / cm^3
# Si number density = 21.969906 Si / 1000 Ang^3
#
#
#
# Elastic Constant Matrix: (Units=GPa)
#
#
# Indices 1 2 3 4 5 6 
#
# 1 71.1861 25.3763 27.9476 0.0000 0.0000 0.0000
# 2 25.3763 71.1859 27.9473 0.0000 0.0000 0.0000
# 3 27.9476 27.9473 68.1971 0.0000 0.0000 0.0000
# 4 0.0000 0.0000 0.0000 85.6581 0.0000 0.0000
# 5 0.0000 0.0000 0.0000 0.0000 85.6676 0.0000
# 6 0.0000 0.0000 0.0000 0.0000 0.0000 29.4223
#
#
#
# Elastic Compliance Matrix: (Units=1/GPa)
#
#
# Indices 1 2 3 4 5 6 
#
# 1 0.017703 -0.004126 -0.005564 0.000000 0.000000 0.000000
# 2 -0.004126 0.017703 -0.005564 0.000000 0.000000 0.000000
# 3 -0.005564 -0.005564 0.019223 0.000000 0.000000 0.000000
# 4 0.000000 0.000000 0.000000 0.011674 0.000000 0.000000
# 5 0.000000 0.000000 0.000000 0.000000 0.011673 0.000000
# 6 0.000000 0.000000 0.000000 0.000000 0.000000 0.033988
#
#
# Mechanical properties :
#
#
# Convention : Reuss Voigt Hill
#
# Bulk Modulus (GPa) = 41.45649 41.45681 41.45665
# Shear Modulus (GPa) = 33.21975 48.76948 40.99461
#
# Velocity S-wave (km/s) = 3.89274 4.71662 4.32434
# Velocity P-wave (km/s) = 6.25421 6.96942 6.62148
#
# Compressibility (1/GPa) = 0.02412168
#
# Stress axis : x y z
#
# Youngs Moduli (GPa) = 56.48758 56.48764 52.01985
#
# Poissons Ratio (x) = 0.23309 0.28943
# Poissons Ratio (y) = 0.23309 0.28942
# Poissons Ratio (z) = 0.31428 0.31428
#
# Static dielectric constant tensor:
#      x y z
#    x 1.758770 0.000000 0.000000 
#    y 0.000000 1.758780 0.000000 
#    z 0.000000 0.000000 1.794810 
# 
# From -- ./inp_files/6495.got.cif
#   From: 2010.05.17/outbox.cif.g08.bks.cpg/sg118_4_cif.got.tgz:6495.got - 2010.05.20 11:17:24.
