data_PCOD9558288
_publ_section_title
;
Structure prediction by ZEFSAII (Michael W. Deem and Ramdas Pophale) SiO2 
 PCOD9558288
Probable space group: P -4 B 2
;
_chemical_formula_sum "Si O2"
_cell_formula_units_Z 56
_cell_length_a 13.793879
_cell_length_b 13.793879
_cell_length_c 13.020214
_cell_angle_alpha 90.000000
_cell_angle_beta 90.000000
_cell_angle_gamma 90.000000
_cell_volume 2477.370412
_symmetry_space_group_name_H-M "P -4 B 2"
_symmetry_group_IT_number 117
_symmetry_cell_setting 'tetragonal'
loop_
_space_group_symop_operation_xyz
x,y,z
y,-x,-z
-x,-y,z
-y,x,-z
1/2+y,1/2+x,-z
1/2-y,1/2-x,-z
1/2-x,1/2+y,z
1/2+x,1/2-y,z
loop_
_atom_site_type_symbol
_atom_site_label
_atom_site_fract_x
_atom_site_fract_y
_atom_site_fract_z
Si Si1 0.222922 0.378430 0.816910
Si Si2 0.627991 0.764117 0.702266
Si Si3 0.502334 0.116791 0.860728
Si Si4 0.511261 0.277063 0.999061
Si Si5 0.079905 0.082852 0.837497
Si Si6 0.842787 0.983402 0.478426
Si Si7 0.758046 0.937798 0.677615
O O1 0.298003 0.309657 0.758110
O O2 0.111496 0.350377 0.829126
O O3 0.264586 0.393461 0.931349
O O4 0.220105 0.482644 0.759250
O O5 0.570230 0.833079 0.780868
O O6 0.557626 0.705407 0.625045
O O7 0.696195 0.843881 0.649019
O O8 0.500000 0.000000 0.860725
O O9 0.480869 0.168576 0.969986
O O10 0.447101 0.345846 0.071174
O O11 0.523104 0.330167 0.890481
O O12 0.144291 0.097488 0.737017
O O13 0.000000 0.000000 0.817533
O O14 0.768966 0.995106 0.571743
O O15 0.917986 0.903325 0.522831
#
# Coordination Sequence:
#
# PCOD9558288 Si02
#       7
#     8   8   8   8   8   8   8
#     4  11  25  47  69 105 149 194 256 292 369 458
#     4  12  26  50  78 101 152 195 243 317 382 449
#     4  12  27  48  73 107 147 200 250 308 376 450
#     4  11  22  40  68 104 149 195 244 300 360 442
#     4  11  22  40  71 112 153 189 251 311 374 444
#     4  11  26  45  76 112 141 187 251 312 385 443
#     4  11  25  45  70 106 145 190 239 308 366 457
#
# _framework density 22.604614000000002
#
# number of rings (size 3 to 8) (size 9 to 14) (size 15 to 20)
#    0.000    0.714    4.286    2.571    8.000    1.143 
#    0.000    2.143    0.000    0.000    0.000    0.000 
#    0.000    0.000    0.000    0.000    0.000    0.000 
#
# Total GULP energy -312773.980472 kJ/mol
# GULP energy per Si atom -5585.249651 kJ/mol
# Density = 2.255317 g / cm^3
# Si number density = 22.604614 Si / 1000 Ang^3
#
#
#
# Elastic Constant Matrix: (Units=GPa)
#
#
# Indices 1 2 3 4 5 6 
#
# 1 73.0722 26.9023 0.4180 0.0000 0.0000 0.0000
# 2 26.9023 73.0722 0.4180 0.0000 0.0000 0.0000
# 3 0.4180 0.4180 39.1570 0.0000 0.0000 0.0000
# 4 0.0000 0.0000 0.0000 25.0689 0.0000 0.0000
# 5 0.0000 0.0000 0.0000 0.0000 25.0689 0.0000
# 6 0.0000 0.0000 0.0000 0.0000 0.0000 40.1078
#
#
#
# Elastic Compliance Matrix: (Units=1/GPa)
#
#
# Indices 1 2 3 4 5 6 
#
# 1 0.015831 -0.005828 -0.000107 0.000000 0.000000 0.000000
# 2 -0.005828 0.015831 -0.000107 0.000000 0.000000 0.000000
# 3 -0.000107 -0.000107 0.025540 0.000000 0.000000 0.000000
# 4 0.000000 0.000000 0.000000 0.039890 0.000000 0.000000
# 5 0.000000 0.000000 0.000000 0.000000 0.039890 0.000000
# 6 0.000000 0.000000 0.000000 0.000000 0.000000 0.024933
#
#
# Mechanical properties :
#
#
# Convention : Reuss Voigt Hill
#
# Bulk Modulus (GPa) = 22.16303 26.75314 24.45808
# Shear Modulus (GPa) = 26.44957 28.55332 27.50145
#
# Velocity S-wave (km/s) = 3.42438 3.55796 3.49181
# Velocity P-wave (km/s) = 5.04590 5.36094 5.20580
#
# Compressibility (1/GPa) = 0.04512019
#
# Stress axis : x y z
#
# Youngs Moduli (GPa) = 63.16611 63.16611 39.15351
#
# Poissons Ratio (x) = 0.36812 0.00418
# Poissons Ratio (y) = 0.36812 0.00418
# Poissons Ratio (z) = 0.00675 0.00675
#
# Static dielectric constant tensor:
#      x y z
#    x 1.914150 0.000000 0.000000 
#    y 0.000000 1.914150 0.000000 
#    z 0.000000 0.000000 1.840070 
# 
# From -- ./inp_files/2862.got.cif
#   From: 2010.05.17/outbox.cif.g08.bks.cpg/sg117_2_cif.got.tgz:2862.got - 2010.05.20 11:15:09.
