data_PCOD9558980
_publ_section_title
;
Structure prediction by ZEFSAII (Michael W. Deem and Ramdas Pophale) SiO2 
 PCOD9558980
Probable space group: I -4 M 2
;
_chemical_formula_sum "Si O2"
_cell_formula_units_Z 88
_cell_length_a 13.991487
_cell_length_b 13.991487
_cell_length_c 32.682067
_cell_angle_alpha 90.000000
_cell_angle_beta 90.000000
_cell_angle_gamma 90.000000
_cell_volume 6397.897272
_symmetry_space_group_name_H-M "I -4 M 2"
_symmetry_group_IT_number 119
_symmetry_cell_setting 'tetragonal'
loop_
_space_group_symop_operation_xyz
x,y,z
y,-x,-z
-x,-y,z
-y,x,-z
y,x,-z
-y,-x,-z
-x,y,z
x,-y,z
1/2+x,1/2+y,1/2+z
1/2+y,1/2-x,1/2-z
1/2-x,1/2-y,1/2+z
1/2-y,1/2+x,1/2-z
1/2+y,1/2+x,1/2-z
1/2-y,1/2-x,1/2-z
1/2-x,1/2+y,1/2+z
1/2+x,1/2-y,1/2+z
loop_
_atom_site_type_symbol
_atom_site_label
_atom_site_fract_x
_atom_site_fract_y
_atom_site_fract_z
Si Si1 0.724129 0.385853 0.035961
Si Si2 0.113345 0.889942 0.620019
Si Si3 0.614065 0.768801 0.500149
Si Si4 0.884814 0.708159 0.666086
Si Si5 0.614288 0.885713 0.250000
Si Si6 0.109455 0.385946 0.581142
O O1 0.732655 0.500000 0.030849
O O2 0.672686 0.367088 0.079208
O O3 0.658962 0.341039 0.000000
O O4 0.826632 0.334034 0.032079
O O5 0.137328 0.818114 0.656605
O O6 0.000000 0.878501 0.610881
O O7 0.129931 0.000000 0.630674
O O8 0.665945 0.665945 0.500000
O O9 0.500000 0.765590 0.506451
O O10 0.634641 0.821405 0.456727
O O11 0.850133 0.665582 0.708761
O O12 0.855608 0.653982 0.624534
O O13 0.000000 0.696958 0.667631
O O14 0.500000 0.871181 0.254586
O O15 0.104361 0.500000 0.584550
O O16 0.000000 0.350915 0.573400
#
# Coordination Sequence:
#
# PCOD9558980 Si02
#       6
#    16  16  16  16   8  16
#     4  10  18  27  41  62  87 112 137 166 200 240
#     4   9  17  27  39  58  84 112 137 157 185 234
#     4  10  20  31  42  57  77 106 145 182 211 238
#     4   9  15  24  38  56  81 108 128 152 190 234
#     4   9  16  24  36  58  82 100 124 159 198 238
#     4   9  16  26  41  60  81 104 128 156 196 247
#
# _framework density 13.754519999999999
#
# number of rings (size 3 to 8) (size 9 to 14) (size 15 to 20)
#    0.000    2.636    0.000    3.818    0.000    5.818 
#    0.000    0.000    0.000    0.000    0.000    5.091 
#    0.000   11.636    0.000    0.000    0.000    0.000 
#
# Total GULP energy -245021.109292 kJ/mol
# GULP energy per Si atom -5568.661575 kJ/mol
# Density = 1.372321 g / cm^3
# Si number density = 13.754520 Si / 1000 Ang^3
#
#
#
# Elastic Constant Matrix: (Units=GPa)
#
#
# Indices 1 2 3 4 5 6 
#
# 1 72.2808 35.9510 43.1389 0.0000 0.0000 0.0000
# 2 35.9510 72.2803 43.1392 0.0000 0.0000 0.0000
# 3 43.1389 43.1392 91.8557 0.0000 0.0000 0.0000
# 4 0.0000 0.0000 0.0000 18.6008 0.0000 0.0000
# 5 0.0000 0.0000 0.0000 0.0000 18.6008 0.0000
# 6 0.0000 0.0000 0.0000 0.0000 0.0000 17.2943
#
#
#
# Elastic Compliance Matrix: (Units=1/GPa)
#
#
# Indices 1 2 3 4 5 6 
#
# 1 0.021147 -0.006379 -0.006936 0.000000 0.000000 0.000000
# 2 -0.006379 0.021147 -0.006936 0.000000 0.000000 0.000000
# 3 -0.006936 -0.006936 0.017401 0.000000 0.000000 0.000000
# 4 0.000000 0.000000 0.000000 0.053761 0.000000 0.000000
# 5 0.000000 0.000000 0.000000 0.000000 0.053761 0.000000
# 6 0.000000 0.000000 0.000000 0.000000 0.000000 0.057823
#
#
# Mechanical properties :
#
#
# Convention : Reuss Voigt Hill
#
# Bulk Modulus (GPa) = 52.09732 53.43056 52.76394
# Shear Modulus (GPa) = 18.38644 18.51168 18.44906
#
# Velocity S-wave (km/s) = 3.66013 3.67258 3.66636
# Velocity P-wave (km/s) = 7.47133 7.54413 7.50782
#
# Compressibility (1/GPa) = 0.01919485
#
# Stress axis : x y z
#
# Youngs Moduli (GPa) = 47.28814 47.28739 57.46680
#
# Poissons Ratio (x) = 0.30163 0.39857
# Poissons Ratio (y) = 0.30164 0.39859
# Poissons Ratio (z) = 0.32798 0.32798
#
# Static dielectric constant tensor:
#      x y z
#    x 1.466060 0.000000 0.000000 
#    y 0.000000 1.466060 0.000000 
#    z 0.000000 0.000000 1.442390 
# 
# From -- ./inp_files/9467.got.cif
#   From: 2010.05.17/outbox.cif.g08.bks.cpg/sg119_5_cif.got.tgz:9467.got - 2010.05.20 11:21:29.
