data_PCOD9558758
_publ_section_title
;
Structure prediction by ZEFSAII (Michael W. Deem and Ramdas Pophale) SiO2 
 PCOD9558758
Probable space group: P -4 N 2
;
_chemical_formula_sum "Si O2"
_cell_formula_units_Z 56
_cell_length_a 12.102351
_cell_length_b 12.102351
_cell_length_c 20.982583
_cell_angle_alpha 90.000000
_cell_angle_beta 90.000000
_cell_angle_gamma 90.000000
_cell_volume 3073.253880
_symmetry_space_group_name_H-M "P -4 N 2"
_symmetry_group_IT_number 118
_symmetry_cell_setting 'tetragonal'
loop_
_space_group_symop_operation_xyz
x,y,z
y,-x,-z
-x,-y,z
-y,x,-z
1/2+y,1/2+x,1/2-z
1/2-y,1/2-x,1/2-z
1/2-x,1/2+y,1/2+z
1/2+x,1/2-y,1/2+z
loop_
_atom_site_type_symbol
_atom_site_label
_atom_site_fract_x
_atom_site_fract_y
_atom_site_fract_z
Si Si1 0.632010 0.517020 0.262706
Si Si2 0.082657 0.746721 0.774052
Si Si3 0.097806 0.655761 0.910725
Si Si4 0.651128 0.296273 0.208807
Si Si5 0.672388 0.287798 0.500109
Si Si6 0.094708 0.338656 0.583526
Si Si7 0.132317 0.021281 0.907140
O O1 0.500000 0.500000 0.267744
O O2 0.648586 0.646096 0.248980
O O3 0.664571 0.428368 0.209682
O O4 0.672224 0.488780 0.334186
O O5 0.132087 0.632087 0.750000
O O6 0.100947 0.736008 0.849253
O O7 0.958372 0.762946 0.749938
O O8 0.150817 0.725278 0.967250
O O9 0.161590 0.538349 0.909512
O O10 0.968372 0.626384 0.913656
O O11 0.750478 0.250478 0.250000
O O12 0.639239 0.235603 0.141662
O O13 0.696030 0.161356 0.480284
O O14 0.567647 0.307566 0.546915
O O15 0.648362 0.357108 0.435857
O O16 0.000000 0.000000 0.909946
#
# Coordination Sequence:
#
# PCOD9558758 Si02
#       7
#     8   8   8   8   8   8   8
#     4   9  21  33  53  86 118 148 192 239 295 360
#     4  11  20  35  58  85 114 154 194 241 297 354
#     4  11  22  37  57  86 122 155 197 247 302 367
#     4  11  20  34  57  88 124 148 185 246 308 364
#     4  12  20  34  56  85 115 151 194 248 298 357
#     4  11  23  36  57  86 120 159 195 243 308 366
#     4  11  17  29  54  85 115 142 182 241 305 354
#
# _framework density 18.221730000000001
#
# number of rings (size 3 to 8) (size 9 to 14) (size 15 to 20)
#    0.000    1.143    7.143    0.857    2.000    0.286 
#    0.000    1.429    0.000    0.429    0.000    0.000 
#    0.000    0.000    0.000    0.000    0.000    0.000 
#
# Total GULP energy -311986.876488 kJ/mol
# GULP energy per Si atom -5571.194223 kJ/mol
# Density = 1.818026 g / cm^3
# Si number density = 18.221730 Si / 1000 Ang^3
#
#
#
# Elastic Constant Matrix: (Units=GPa)
#
#
# Indices 1 2 3 4 5 6 
#
# 1 60.7163 15.1328 10.9967 0.0000 0.0000 0.0000
# 2 15.1328 60.7163 10.9967 0.0000 0.0000 0.0000
# 3 10.9967 10.9967 50.7120 0.0000 0.0000 0.0000
# 4 0.0000 0.0000 0.0000 9.8948 0.0000 0.0000
# 5 0.0000 0.0000 0.0000 0.0000 9.8948 0.0000
# 6 0.0000 0.0000 0.0000 0.0000 0.0000 15.1490
#
#
#
# Elastic Compliance Matrix: (Units=1/GPa)
#
#
# Indices 1 2 3 4 5 6 
#
# 1 0.018003 -0.003935 -0.003051 0.000000 0.000000 0.000000
# 2 -0.003935 0.018003 -0.003051 0.000000 0.000000 0.000000
# 3 -0.003051 -0.003051 0.021042 0.000000 0.000000 0.000000
# 4 0.000000 0.000000 0.000000 0.101063 0.000000 0.000000
# 5 0.000000 0.000000 0.000000 0.000000 0.101063 0.000000
# 6 0.000000 0.000000 0.000000 0.000000 0.000000 0.066011
#
#
# Mechanical properties :
#
#
# Convention : Reuss Voigt Hill
#
# Bulk Modulus (GPa) = 27.04408 27.37744 27.21076
# Shear Modulus (GPa) = 13.98278 15.98897 14.98588
#
# Velocity S-wave (km/s) = 2.77315 2.96542 2.87089
# Velocity P-wave (km/s) = 5.01275 5.17515 5.09460
#
# Compressibility (1/GPa) = 0.03697667
#
# Stress axis : x y z
#
# Youngs Moduli (GPa) = 55.54563 55.54563 47.52342
#
# Poissons Ratio (x) = 0.21855 0.14498
# Poissons Ratio (y) = 0.21855 0.14498
# Poissons Ratio (z) = 0.16945 0.16945
#
# Static dielectric constant tensor:
#      x y z
#    x 1.651470 0.000000 0.000000 
#    y 0.000000 1.651470 0.000000 
#    z 0.000000 0.000000 1.680200 
# 
# From -- ./inp_files/5734.got.cif
#   From: 2010.05.17/outbox.cif.g08.bks.cpg/sg118_3_cif.got.tgz:5734.got - 2010.05.20 11:17:24.
