data_PCOD9558212
_publ_section_title
;
Structure prediction by ZEFSAII (Michael W. Deem and Ramdas Pophale) SiO2 
 PCOD9558212
Probable space group: P -4 B 2
;
_chemical_formula_sum "Si O2"
_cell_formula_units_Z 60
_cell_length_a 11.423534
_cell_length_b 11.423534
_cell_length_c 20.541203
_cell_angle_alpha 90.000000
_cell_angle_beta 90.000000
_cell_angle_gamma 90.000000
_cell_volume 2680.568019
_symmetry_space_group_name_H-M "P -4 B 2"
_symmetry_group_IT_number 117
_symmetry_cell_setting 'tetragonal'
loop_
_space_group_symop_operation_xyz
x,y,z
y,-x,-z
-x,-y,z
-y,x,-z
1/2+y,1/2+x,-z
1/2-y,1/2-x,-z
1/2-x,1/2+y,z
1/2+x,1/2-y,z
loop_
_atom_site_type_symbol
_atom_site_label
_atom_site_fract_x
_atom_site_fract_y
_atom_site_fract_z
Si Si1 0.181080 0.064984 0.486620
Si Si2 0.490435 0.310779 0.145299
Si Si3 0.179150 0.999974 0.098864
Si Si4 0.678120 0.854121 0.607595
Si Si5 0.500000 0.000000 0.308834
Si Si6 0.473292 0.213193 0.778722
Si Si7 0.340170 0.291646 0.260853
Si Si8 0.317360 0.993214 0.978471
O O1 0.273036 0.086555 0.543473
O O2 0.239498 0.108156 0.418786
O O3 0.068865 0.141514 0.507947
O O4 0.375812 0.374281 0.114774
O O5 0.592839 0.403407 0.130447
O O6 0.462035 0.280798 0.219864
O O7 0.510747 0.203289 0.097921
O O8 0.293523 0.016063 0.143422
O O9 0.203383 0.015133 0.023169
O O10 0.597468 0.946665 0.644660
O O11 0.778411 0.832017 0.661398
O O12 0.395443 0.974791 0.260049
O O13 0.573606 0.306952 0.757268
O O14 0.333131 0.223671 0.761374
O O15 0.369260 0.869260 0.000000
O O16 0.407989 0.092012 0.000000
#
# Coordination Sequence:
#
# PCOD9558212 Si02
#       8
#     8   8   8   8   4   8   8   8
#     4  10  24  44  67 105 140 180 231 287 343 425
#     4  10  22  42  63  93 130 167 236 286 363 438
#     4  10  22  41  63  90 127 181 224 297 360 432
#     4  10  24  42  70  98 135 188 224 286 352 424
#     4  10  24  41  62 102 131 184 226 286 352 426
#     4  10  23  41  64  96 136 174 236 283 357 427
#     4  10  23  42  67 101 132 185 224 292 354 431
#     4  11  24  38  59  91 128 176 229 295 363 432
#
# _framework density 22.383316000000001
#
# number of rings (size 3 to 8) (size 9 to 14) (size 15 to 20)
#    0.000    1.867    0.000    1.600    5.600   12.800 
#    2.400    1.333    0.000    0.000    0.000    0.000 
#    0.000    0.000    0.000    0.000    0.000    0.000 
#
# Total GULP energy -334167.509754 kJ/mol
# GULP energy per Si atom -5569.458496 kJ/mol
# Density = 2.233237 g / cm^3
# Si number density = 22.383316 Si / 1000 Ang^3
#
#
#
# Elastic Constant Matrix: (Units=GPa)
#
#
# Indices 1 2 3 4 5 6 
#
# 1 53.9084 18.7958 12.3187 0.0000 0.0000 0.0000
# 2 18.7958 53.9080 12.3183 0.0000 0.0000 0.0000
# 3 12.3187 12.3183 106.2217 0.0000 0.0000 0.0000
# 4 0.0000 0.0000 0.0000 40.4855 0.0000 0.0000
# 5 0.0000 0.0000 0.0000 0.0000 40.4850 0.0000
# 6 0.0000 0.0000 0.0000 0.0000 0.0000 6.6384
#
#
#
# Elastic Compliance Matrix: (Units=1/GPa)
#
#
# Indices 1 2 3 4 5 6 
#
# 1 0.021398 -0.007081 -0.001660 0.000000 0.000000 0.000000
# 2 -0.007081 0.021399 -0.001660 0.000000 0.000000 0.000000
# 3 -0.001660 -0.001660 0.009799 0.000000 0.000000 0.000000
# 4 0.000000 0.000000 0.000000 0.024700 0.000000 0.000000
# 5 0.000000 0.000000 0.000000 0.000000 0.024701 0.000000
# 6 0.000000 0.000000 0.000000 0.000000 0.000000 0.150640
#
#
# Mechanical properties :
#
#
# Convention : Reuss Voigt Hill
#
# Bulk Modulus (GPa) = 31.45437 33.43373 32.44405
# Shear Modulus (GPa) = 17.60326 28.89546 23.24936
#
# Velocity S-wave (km/s) = 2.80741 3.59686 3.22637
# Velocity P-wave (km/s) = 4.95901 5.67620 5.32968
#
# Compressibility (1/GPa) = 0.03179208
#
# Stress axis : x y z
#
# Youngs Moduli (GPa) = 46.73232 46.73210 102.04743
#
# Poissons Ratio (x) = 0.33093 0.16944
# Poissons Ratio (y) = 0.33093 0.16943
# Poissons Ratio (z) = 0.07759 0.07759
#
# Static dielectric constant tensor:
#      x y z
#    x 1.826910 0.000000 0.000000 
#    y 0.000000 1.826910 0.000000 
#    z 0.000000 0.000000 1.839840 
# 
# From -- ./inp_files/3504.got.cif
#   From: 2010.05.17/outbox.cif.g08.bks.cpg/sg117_2_cif.got.tgz:3504.got - 2010.05.20 11:15:09.
