data_PCOD9558550
_publ_section_title
;
Structure prediction by ZEFSAII (Michael W. Deem and Ramdas Pophale) SiO2 
 PCOD9558550
Probable space group: P -4 N 2
;
_chemical_formula_sum "Si O2"
_cell_formula_units_Z 28
_cell_length_a 9.506303
_cell_length_b 9.506303
_cell_length_c 13.523637
_cell_angle_alpha 90.000000
_cell_angle_beta 90.000000
_cell_angle_gamma 90.000000
_cell_volume 1222.128327
_symmetry_space_group_name_H-M "P -4 N 2"
_symmetry_group_IT_number 118
_symmetry_cell_setting 'tetragonal'
loop_
_space_group_symop_operation_xyz
x,y,z
y,-x,-z
-x,-y,z
-y,x,-z
1/2+y,1/2+x,1/2-z
1/2-y,1/2-x,1/2-z
1/2-x,1/2+y,1/2+z
1/2+x,1/2-y,1/2+z
loop_
_atom_site_type_symbol
_atom_site_label
_atom_site_fract_x
_atom_site_fract_y
_atom_site_fract_z
Si Si1 0.500000 0.500000 0.500000
Si Si2 0.500000 0.000000 0.581140
Si Si3 0.000000 0.000000 0.667925
Si Si4 0.712173 0.920997 0.407530
Si Si5 0.000000 0.500000 0.750000
Si Si6 0.409372 0.710974 0.657631
O O1 0.490726 0.633403 0.569531
O O2 0.372854 0.050321 0.508340
O O3 0.549620 0.128405 0.647508
O O4 0.008816 0.864495 0.597916
O O5 0.129610 0.962340 0.743954
O O6 0.701535 0.757263 0.371210
O O7 0.631472 0.003177 0.321155
#
# Coordination Sequence:
#
# PCOD9558550 Si02
#       6
#     2   4   4   8   2   8
#     4  10  20  40  72  88 130 180 226 278 344 404
#     4  11  26  43  75  98 145 178 240 285 360 405
#     4  11  24  45  73  96 145 178 238 281 358 407
#     4  11  23  44  69 104 133 183 232 295 344 423
#     4  10  20  44  68  90 128 172 234 270 344 418
#     4  11  22  44  68 105 132 186 233 289 339 429
#
# _framework density 22.910851000000001
#
# number of rings (size 3 to 8) (size 9 to 14) (size 15 to 20)
#    0.000    1.143    5.714    0.000    0.000    2.286 
#    5.143    1.429    0.000    0.000    0.000    0.000 
#    0.000    0.000    0.000    0.000    0.000    0.000 
#
# Total GULP energy -156441.369844 kJ/mol
# GULP energy per Si atom -5587.191780 kJ/mol
# Density = 2.285870 g / cm^3
# Si number density = 22.910851 Si / 1000 Ang^3
#
#
#
# Elastic Constant Matrix: (Units=GPa)
#
#
# Indices 1 2 3 4 5 6 
#
# 1 151.6233 54.2541 56.4351 0.0000 0.0000 0.0000
# 2 54.2541 151.6233 56.4351 0.0000 0.0000 0.0000
# 3 56.4351 56.4351 117.3394 0.0000 0.0000 0.0000
# 4 0.0000 0.0000 0.0000 -1.6631 0.0000 0.0000
# 5 0.0000 0.0000 0.0000 0.0000 -1.6631 0.0000
# 6 0.0000 0.0000 0.0000 0.0000 0.0000 35.0185
#
#
#
# Elastic Compliance Matrix: (Units=1/GPa)
#
#
# Indices 1 2 3 4 5 6 
#
# 1 0.008433 -0.001837 -0.003173 0.000000 0.000000 0.000000
# 2 -0.001837 0.008433 -0.003173 0.000000 0.000000 0.000000
# 3 -0.003173 -0.003173 0.011574 0.000000 0.000000 0.000000
# 4 0.000000 0.000000 0.000000 -0.601300 0.000000 0.000000
# 5 0.000000 0.000000 0.000000 0.000000 -0.601300 0.000000
# 6 0.000000 0.000000 0.000000 0.000000 0.000000 0.028556
#
#
# Mechanical properties :
#
#
# Convention : Reuss Voigt Hill
#
# Bulk Modulus (GPa) = 82.80436 83.87049 83.33743
# Shear Modulus (GPa) = -4.44360 23.23591 9.39616
#
# Velocity S-wave (km/s) = -1.39418 3.18809 2.02733
# Velocity P-wave (km/s) = 5.79903 7.08792 6.47563
#
# Compressibility (1/GPa) = 0.01207666
#
# Stress axis : x y z
#
# Youngs Moduli (GPa) = 118.57579 118.57579 86.39942
#
# Poissons Ratio (x) = 0.21780 0.27412
# Poissons Ratio (y) = 0.21780 0.27412
# Poissons Ratio (z) = 0.37621 0.37621
#
# Static dielectric constant tensor:
#      x y z
#    x 1.893890 0.000000 0.000000 
#    y 0.000000 1.893890 0.000000 
#    z 0.000000 0.000000 1.830770 
# 
# From -- ./inp_files/4674.got.cif
#   From: 2010.05.17/outbox.cif.g08.bks.cpg/sg118_3_cif.got.tgz:4674.got - 2010.05.20 11:17:24.
