data_PCOD9558754
_publ_section_title
;
Structure prediction by ZEFSAII (Michael W. Deem and Ramdas Pophale) SiO2 
 PCOD9558754
Probable space group: P -4 N 2
;
_chemical_formula_sum "Si O2"
_cell_formula_units_Z 38
_cell_length_a 11.489321
_cell_length_b 11.489321
_cell_length_c 13.552535
_cell_angle_alpha 90.000000
_cell_angle_beta 90.000000
_cell_angle_gamma 90.000000
_cell_volume 1788.995566
_symmetry_space_group_name_H-M "P -4 N 2"
_symmetry_group_IT_number 118
_symmetry_cell_setting 'tetragonal'
loop_
_space_group_symop_operation_xyz
x,y,z
y,-x,-z
-x,-y,z
-y,x,-z
1/2+y,1/2+x,1/2-z
1/2-y,1/2-x,1/2-z
1/2-x,1/2+y,1/2+z
1/2+x,1/2-y,1/2+z
loop_
_atom_site_type_symbol
_atom_site_label
_atom_site_fract_x
_atom_site_fract_y
_atom_site_fract_z
Si Si1 0.169228 0.952021 0.544040
Si Si2 0.500000 0.000000 0.250000
Si Si3 0.184649 0.964515 0.976950
Si Si4 0.641721 0.514802 0.263868
Si Si5 0.264616 0.235385 0.750000
Si Si6 0.365439 0.884410 0.410363
O O1 0.296348 0.936771 0.501337
O O2 0.082186 0.874428 0.478233
O O3 0.155169 0.922879 0.658593
O O4 0.602247 0.018288 0.329150
O O5 0.191646 0.926606 0.862658
O O6 0.302501 0.963809 0.040283
O O7 0.090479 0.876398 0.023748
O O8 0.500000 0.500000 0.277056
O O9 0.719847 0.397446 0.253561
O O10 0.203650 0.288694 0.653673
#
# Coordination Sequence:
#
# PCOD9558754 Si02
#       6
#     8   2   8   8   4   8
#     4  11  22  40  67  95 133 175 222 277 330 403
#     4  10  28  44  68  90 134 166 216 280 336 434
#     4  11  22  40  67  95 133 175 222 277 330 403
#     4  12  21  38  64  95 126 170 222 269 329 398
#     4  11  20  37  66  85 119 176 208 249 342 387
#     4  11  23  42  63  97 128 170 214 273 341 393
#
# _framework density 21.240967999999999
#
# number of rings (size 3 to 8) (size 9 to 14) (size 15 to 20)
#    0.000    0.842    8.421    0.000    0.000    5.895 
#    0.000    0.000    0.000    2.526    0.000    0.000 
#    0.000    0.000    0.000    0.000    0.000    0.000 
#
# Total GULP energy -211698.747903 kJ/mol
# GULP energy per Si atom -5571.019682 kJ/mol
# Density = 2.119262 g / cm^3
# Si number density = 21.240968 Si / 1000 Ang^3
#
#
#
# Elastic Constant Matrix: (Units=GPa)
#
#
# Indices 1 2 3 4 5 6 
#
# 1 34.0470 37.6661 7.6107 0.0000 0.0000 0.0000
# 2 37.6661 34.0461 7.6109 0.0000 0.0000 0.0000
# 3 7.6107 7.6109 157.3931 0.0000 0.0000 0.0000
# 4 0.0000 0.0000 0.0000 27.7466 0.0000 0.0000
# 5 0.0000 0.0000 0.0000 0.0000 27.7467 0.0000
# 6 0.0000 0.0000 0.0000 0.0000 0.0000 20.5698
#
#
#
# Elastic Compliance Matrix: (Units=1/GPa)
#
#
# Indices 1 2 3 4 5 6 
#
# 1 -0.131093 0.145184 -0.000681 0.000000 0.000000 0.000000
# 2 0.145184 -0.131097 -0.000681 0.000000 0.000000 0.000000
# 3 -0.000681 -0.000681 0.006419 0.000000 0.000000 0.000000
# 4 0.000000 0.000000 0.000000 0.036040 0.000000 0.000000
# 5 0.000000 0.000000 0.000000 0.000000 0.036040 0.000000
# 6 0.000000 0.000000 0.000000 0.000000 0.000000 0.048615
#
#
# Mechanical properties :
#
#
# Convention : Reuss Voigt Hill
#
# Bulk Modulus (GPa) = 31.37492 36.80682 34.09087
# Shear Modulus (GPa) = -12.13316 26.71920 7.29302
#
# Velocity S-wave (km/s) = -2.39260 3.55055 1.85497
# Velocity P-wave (km/s) = 2.67774 5.84588 4.54668
#
# Compressibility (1/GPa) = 0.03187259
#
# Stress axis : x y z
#
# Youngs Moduli (GPa) = -7.62816 -7.62796 155.77760
#
# Poissons Ratio (x) = 1.10746 0.10616
# Poissons Ratio (y) = 1.10749 0.10610
# Poissons Ratio (z) = -0.00520 -0.00520
#
# Static dielectric constant tensor:
#      x y z
#    x 1.818550 0.000000 0.000000 
#    y 0.000000 1.818550 0.000000 
#    z 0.000000 0.000000 1.783210 
# 
# From -- ./inp_files/4137.got.cif
#   From: 2010.05.17/outbox.cif.g08.bks.cpg/sg118_3_cif.got.tgz:4137.got - 2010.05.20 11:17:24.
