data_PCOD9558741
_publ_section_title
;
Structure prediction by ZEFSAII (Michael W. Deem and Ramdas Pophale) SiO2 
 PCOD9558741
Probable space group: P -4 N 2
;
_chemical_formula_sum "Si O2"
_cell_formula_units_Z 20
_cell_length_a 5.188206
_cell_length_b 5.188206
_cell_length_c 27.709112
_cell_angle_alpha 90.000000
_cell_angle_beta 90.000000
_cell_angle_gamma 90.000000
_cell_volume 745.859510
_symmetry_space_group_name_H-M "P -4 N 2"
_symmetry_group_IT_number 118
_symmetry_cell_setting 'tetragonal'
loop_
_space_group_symop_operation_xyz
x,y,z
y,-x,-z
-x,-y,z
-y,x,-z
1/2+y,1/2+x,1/2-z
1/2-y,1/2-x,1/2-z
1/2-x,1/2+y,1/2+z
1/2+x,1/2-y,1/2+z
loop_
_atom_site_type_symbol
_atom_site_label
_atom_site_fract_x
_atom_site_fract_y
_atom_site_fract_z
Si Si1 0.249070 0.172599 0.805405
Si Si2 0.861827 0.289801 0.527052
Si Si3 0.000000 0.500000 0.879233
O O1 0.235145 0.264856 0.750000
O O2 0.218927 0.395978 0.844177
O O3 0.500000 0.000000 0.810822
O O4 0.000000 0.000000 0.813917
O O5 0.800554 0.385883 0.581374
O O6 0.622425 0.167698 0.495474
O O7 0.000000 0.000000 0.541717
#
# Coordination Sequence:
#
# PCOD9558741 Si02
#       3
#     8   8   4
#     4  11  28  49  79 116 158 207 268 339 415 494
#     4   9  21  40  62  96 140 190 247 317 376 462
#     4  10  25  44  76 106 154 204 271 326 416 494
#
# _framework density 26.814696999999999
#
# number of rings (size 3 to 8) (size 9 to 14) (size 15 to 20)
#    1.200    0.800    0.000    0.600   11.200   12.000 
#    0.000    0.000    0.000    0.000    0.000    0.000 
#    0.000    0.000    0.000    0.000    0.000    0.000 
#
# Total GULP energy -111358.968166 kJ/mol
# GULP energy per Si atom -5567.948408 kJ/mol
# Density = 2.675367 g / cm^3
# Si number density = 26.814697 Si / 1000 Ang^3
#
#
#
# Elastic Constant Matrix: (Units=GPa)
#
#
# Indices 1 2 3 4 5 6 
#
# 1 185.1461 74.0472 85.5413 0.0000 0.0000 0.0000
# 2 74.0472 185.1456 85.5412 0.0000 0.0000 0.0000
# 3 85.5413 85.5412 284.9038 0.0000 0.0000 0.0000
# 4 0.0000 0.0000 0.0000 52.9060 0.0000 0.0000
# 5 0.0000 0.0000 0.0000 0.0000 52.9054 0.0000
# 6 0.0000 0.0000 0.0000 0.0000 0.0000 73.8165
#
#
#
# Elastic Compliance Matrix: (Units=1/GPa)
#
#
# Indices 1 2 3 4 5 6 
#
# 1 0.006906 -0.002095 -0.001445 0.000000 0.000000 0.000000
# 2 -0.002095 0.006906 -0.001445 0.000000 0.000000 0.000000
# 3 -0.001445 -0.001445 0.004377 0.000000 0.000000 0.000000
# 4 0.000000 0.000000 0.000000 0.018901 0.000000 0.000000
# 5 0.000000 0.000000 0.000000 0.000000 0.018902 0.000000
# 6 0.000000 0.000000 0.000000 0.000000 0.000000 0.013547
#
#
# Mechanical properties :
#
#
# Convention : Reuss Voigt Hill
#
# Bulk Modulus (GPa) = 121.62313 127.27277 124.44795
# Shear Modulus (GPa) = 60.79083 63.26329 62.02706
#
# Velocity S-wave (km/s) = 4.76654 4.86251 4.81476
# Velocity P-wave (km/s) = 8.70337 8.89338 8.79889
#
# Compressibility (1/GPa) = 0.00822212
#
# Stress axis : x y z
#
# Youngs Moduli (GPa) = 144.79423 144.79383 228.44154
#
# Poissons Ratio (x) = 0.30329 0.33003
# Poissons Ratio (y) = 0.30329 0.33003
# Poissons Ratio (z) = 0.20918 0.20918
#
# Static dielectric constant tensor:
#      x y z
#    x 3.047260 0.000000 0.000000 
#    y 0.000000 3.047260 0.000000 
#    z 0.000000 0.000000 2.029450 
# 
# From -- ./inp_files/6304.got.cif
#   From: 2010.05.17/outbox.cif.g08.bks.cpg/sg118_4_cif.got.tgz:6304.got - 2010.05.20 11:17:24.
