data_PCOD9558606
_publ_section_title
;
Structure prediction by ZEFSAII (Michael W. Deem and Ramdas Pophale) SiO2 
 PCOD9558606
Probable space group: P -4 N 2
;
_chemical_formula_sum "Si O2"
_cell_formula_units_Z 46
_cell_length_a 7.607972
_cell_length_b 7.607972
_cell_length_c 36.799802
_cell_angle_alpha 90.000000
_cell_angle_beta 90.000000
_cell_angle_gamma 90.000000
_cell_volume 2130.018096
_symmetry_space_group_name_H-M "P -4 N 2"
_symmetry_group_IT_number 118
_symmetry_cell_setting 'tetragonal'
loop_
_space_group_symop_operation_xyz
x,y,z
y,-x,-z
-x,-y,z
-y,x,-z
1/2+y,1/2+x,1/2-z
1/2-y,1/2-x,1/2-z
1/2-x,1/2+y,1/2+z
1/2+x,1/2-y,1/2+z
loop_
_atom_site_type_symbol
_atom_site_label
_atom_site_fract_x
_atom_site_fract_y
_atom_site_fract_z
Si Si1 0.374530 0.745656 0.447027
Si Si2 0.500000 0.500000 0.000000
Si Si3 0.633239 0.741526 0.056877
Si Si4 0.000000 0.500000 0.750000
Si Si5 0.500000 0.500000 0.500000
Si Si6 0.671378 0.773607 0.631792
Si Si7 0.753125 0.661761 0.137299
Si Si8 0.210829 0.024572 0.189248
O O1 0.586818 0.744820 0.444325
O O2 0.347719 0.598511 0.477113
O O3 0.283335 0.706260 0.409132
O O4 0.311815 0.941354 0.454222
O O5 0.581613 0.354123 0.971852
O O6 0.649697 0.689646 0.099360
O O7 0.996893 0.671532 0.775551
O O8 0.461103 0.798469 0.632025
O O9 0.736867 0.620883 0.658055
O O10 0.758787 0.954860 0.644381
O O11 0.719804 0.794297 0.170492
O O12 0.000000 0.000000 0.197049
#
# Coordination Sequence:
#
# PCOD9558606 Si02
#       8
#     8   2   8   2   2   8   8   8
#     4  11  23  38  60  89 123 176 230 291 349 405
#     4  12  24  40  52  88 136 178 228 300 364 412
#     4  11  23  38  59  87 130 171 230 294 345 409
#     4  12  28  44  76 112 136 184 216 268 360 408
#     4  12  24  40  60  88 132 186 228 296 364 408
#     4  10  21  40  68  97 130 175 231 274 337 415
#     4  10  21  40  68  97 129 180 223 278 342 405
#     4  10  24  46  69 104 145 174 223 281 330 422
#
# _framework density 21.596060000000001
#
# number of rings (size 3 to 8) (size 9 to 14) (size 15 to 20)
#    0.000    1.391    1.739    3.130    3.652    1.391 
#    0.000    3.478    0.000    0.000    0.000    0.000 
#    0.000    0.000    0.000    0.000    0.000    0.000 
#
# Total GULP energy -256632.410291 kJ/mol
# GULP energy per Si atom -5578.965441 kJ/mol
# Density = 2.154691 g / cm^3
# Si number density = 21.596060 Si / 1000 Ang^3
#
#
#
# Elastic Constant Matrix: (Units=GPa)
#
#
# Indices 1 2 3 4 5 6 
#
# 1 73.6113 16.8243 41.7338 0.0000 0.0000 0.0000
# 2 16.8243 73.6113 41.7338 0.0000 0.0000 0.0000
# 3 41.7338 41.7338 136.9280 0.0000 0.0000 0.0000
# 4 0.0000 0.0000 0.0000 13.5612 0.0000 0.0000
# 5 0.0000 0.0000 0.0000 0.0000 13.5612 0.0000
# 6 0.0000 0.0000 0.0000 0.0000 0.0000 23.3769
#
#
#
# Elastic Compliance Matrix: (Units=1/GPa)
#
#
# Indices 1 2 3 4 5 6 
#
# 1 0.016498 -0.001112 -0.004689 0.000000 0.000000 0.000000
# 2 -0.001112 0.016498 -0.004689 0.000000 0.000000 0.000000
# 3 -0.004689 -0.004689 0.010162 0.000000 0.000000 0.000000
# 4 0.000000 0.000000 0.000000 0.073740 0.000000 0.000000
# 5 0.000000 0.000000 0.000000 0.000000 0.073740 0.000000
# 6 0.000000 0.000000 0.000000 0.000000 0.000000 0.042777
#
#
# Mechanical properties :
#
#
# Convention : Reuss Voigt Hill
#
# Bulk Modulus (GPa) = 45.09481 53.85938 49.47710
# Shear Modulus (GPa) = 19.09947 22.35710 20.72829
#
# Velocity S-wave (km/s) = 2.97711 3.22100 3.10145
# Velocity P-wave (km/s) = 5.72223 6.23111 5.98208
#
# Compressibility (1/GPa) = 0.02217550
#
# Stress axis : x y z
#
# Youngs Moduli (GPa) = 60.61479 60.61479 98.40978
#
# Poissons Ratio (x) = 0.06741 0.46148
# Poissons Ratio (y) = 0.06741 0.46148
# Poissons Ratio (z) = 0.28424 0.28424
#
# Static dielectric constant tensor:
#      x y z
#    x 1.909260 0.000000 0.000000 
#    y 0.000000 1.909260 0.000000 
#    z 0.000000 0.000000 1.783190 
# 
# From -- ./inp_files/6809.got.cif
#   From: 2010.05.17/outbox.cif.g08.bks.cpg/sg118_4_cif.got.tgz:6809.got - 2010.05.20 11:17:24.
