data_PCOD9558516
_publ_section_title
;
Structure prediction by ZEFSAII (Michael W. Deem and Ramdas Pophale) SiO2 
 PCOD9558516
Probable space group: P -4 N 2
;
_chemical_formula_sum "Si O2"
_cell_formula_units_Z 34
_cell_length_a 14.532282
_cell_length_b 14.532282
_cell_length_c 7.890310
_cell_angle_alpha 90.000000
_cell_angle_beta 90.000000
_cell_angle_gamma 90.000000
_cell_volume 1666.332635
_symmetry_space_group_name_H-M "P -4 N 2"
_symmetry_group_IT_number 118
_symmetry_cell_setting 'tetragonal'
loop_
_space_group_symop_operation_xyz
x,y,z
y,-x,-z
-x,-y,z
-y,x,-z
1/2+y,1/2+x,1/2-z
1/2-y,1/2-x,1/2-z
1/2-x,1/2+y,1/2+z
1/2+x,1/2-y,1/2+z
loop_
_atom_site_type_symbol
_atom_site_label
_atom_site_fract_x
_atom_site_fract_y
_atom_site_fract_z
Si Si1 0.028062 0.649364 0.623089
Si Si2 0.000000 0.000000 0.000000
Si Si3 0.638357 0.162352 0.550773
Si Si4 0.988977 0.204160 0.908877
Si Si5 0.201821 0.714779 0.956576
O O1 0.075186 0.575186 0.750000
O O2 0.008140 0.741054 0.731842
O O3 0.110114 0.678223 0.494446
O O4 0.933479 0.616757 0.541125
O O5 0.095580 0.996615 0.102926
O O6 0.644920 0.144920 0.750000
O O7 0.563248 0.241083 0.519567
O O8 0.734121 0.206844 0.482873
O O9 0.888486 0.224605 0.987749
O O10 0.211834 0.711834 0.750000
#
# Coordination Sequence:
#
# PCOD9558516 Si02
#       5
#     8   2   8   8   8
#     4   9  21  42  62  85 123 167 201 250 316 372
#     4  12  20  36  64  94 120 160 212 258 292 384
#     4  11  21  38  62  92 122 158 210 261 304 366
#     4  10  20  37  62  86 118 164 199 247 311 368
#     4   8  18  37  56  79 120 155 193 245 307 356
#
# _framework density 20.404088000000002
#
# number of rings (size 3 to 8) (size 9 to 14) (size 15 to 20)
#    0.000    2.824    2.353    0.706    0.000    7.529 
#    4.235    9.412    0.000    1.412    0.000    0.000 
#    0.000    0.000    0.000    0.000    0.000    0.000 
#
# Total GULP energy -189477.167034 kJ/mol
# GULP energy per Si atom -5572.857854 kJ/mol
# Density = 2.035765 g / cm^3
# Si number density = 20.404088 Si / 1000 Ang^3
#
#
#
# Elastic Constant Matrix: (Units=GPa)
#
#
# Indices 1 2 3 4 5 6 
#
# 1 162.9887 54.6587 34.2965 0.0000 0.0000 0.0000
# 2 54.6587 162.9887 34.2965 0.0000 0.0000 0.0000
# 3 34.2965 34.2965 26.6261 0.0000 0.0000 0.0000
# 4 0.0000 0.0000 0.0000 8.9802 0.0000 0.0000
# 5 0.0000 0.0000 0.0000 0.0000 8.9802 0.0000
# 6 0.0000 0.0000 0.0000 0.0000 0.0000 29.7928
#
#
#
# Elastic Compliance Matrix: (Units=1/GPa)
#
#
# Indices 1 2 3 4 5 6 
#
# 1 0.008483 -0.000748 -0.009962 0.000000 0.000000 0.000000
# 2 -0.000748 0.008483 -0.009962 0.000000 0.000000 0.000000
# 3 -0.009962 -0.009962 0.063222 0.000000 0.000000 0.000000
# 4 0.000000 0.000000 0.000000 0.111355 0.000000 0.000000
# 5 0.000000 0.000000 0.000000 0.000000 0.111355 0.000000
# 6 0.000000 0.000000 0.000000 0.000000 0.000000 0.033565
#
#
# Mechanical properties :
#
#
# Convention : Reuss Voigt Hill
#
# Bulk Modulus (GPa) = 25.74607 66.56741 46.15674
# Shear Modulus (GPa) = 12.79570 24.84079 18.81824
#
# Velocity S-wave (km/s) = 2.50694 3.49297 3.04020
# Velocity P-wave (km/s) = 4.58532 6.99737 5.91559
#
# Compressibility (1/GPa) = 0.03884088
#
# Stress axis : x y z
#
# Youngs Moduli (GPa) = 117.88740 117.88740 15.81733
#
# Poissons Ratio (x) = 0.08822 0.15758
# Poissons Ratio (y) = 0.08822 0.15758
# Poissons Ratio (z) = 1.17444 1.17444
#
# Static dielectric constant tensor:
#      x y z
#    x 1.783240 0.000000 0.000000 
#    y 0.000000 1.783240 0.000000 
#    z 0.000000 0.000000 1.727610 
# 
# From -- ./inp_files/1647.got.cif
#   From: 2010.05.17/outbox.cif.g08.bks.cpg/sg118_1_cif.got.tgz:1647.got - 2010.05.20 11:17:24.
