data_PCOD9558335
_publ_section_title
;
Structure prediction by ZEFSAII (Michael W. Deem and Ramdas Pophale) SiO2 
 PCOD9558335
Probable space group: P -4 B 2
;
_chemical_formula_sum "Si O2"
_cell_formula_units_Z 26
_cell_length_a 10.247099
_cell_length_b 10.247099
_cell_length_c 11.379974
_cell_angle_alpha 90.000000
_cell_angle_beta 90.000000
_cell_angle_gamma 90.000000
_cell_volume 1194.931841
_symmetry_space_group_name_H-M "P -4 B 2"
_symmetry_group_IT_number 117
_symmetry_cell_setting 'tetragonal'
loop_
_space_group_symop_operation_xyz
x,y,z
y,-x,-z
-x,-y,z
-y,x,-z
1/2+y,1/2+x,-z
1/2-y,1/2-x,-z
1/2-x,1/2+y,z
1/2+x,1/2-y,z
loop_
_atom_site_type_symbol
_atom_site_label
_atom_site_fract_x
_atom_site_fract_y
_atom_site_fract_z
Si Si1 0.048621 0.369018 0.130702
Si Si2 0.358268 0.647197 0.545443
Si Si3 0.500000 0.500000 0.000000
Si Si4 0.162433 0.845739 0.178301
O O1 0.184552 0.312939 0.176353
O O2 0.000000 0.500000 0.195074
O O3 0.929574 0.271071 0.136308
O O4 0.088877 0.411124 0.000000
O O5 0.502829 0.679620 0.498757
O O6 0.253451 0.753451 0.500000
O O7 0.371704 0.635163 0.685909
O O8 0.381713 0.460307 0.087922
#
# Coordination Sequence:
#
# PCOD9558335 Si02
#       4
#     8   8   2   8
#     4  11  27  44  70 110 148 186 247 301 382 466
#     4  11  26  49  74 106 145 197 258 310 371 447
#     4  12  24  40  74 104 148 200 228 310 396 436
#     4  12  26  46  74 105 150 192 248 311 381 457
#
# _framework density 21.758564
#
# number of rings (size 3 to 8) (size 9 to 14) (size 15 to 20)
#    0.000    0.615    3.077    3.692   12.923    0.615 
#    0.000    0.000    0.000    0.000    0.000    0.000 
#    0.000    0.000    0.000    0.000    0.000    0.000 
#
# Total GULP energy -145286.724269 kJ/mol
# GULP energy per Si atom -5587.950933 kJ/mol
# Density = 2.170904 g / cm^3
# Si number density = 21.758564 Si / 1000 Ang^3
#
#
#
# Elastic Constant Matrix: (Units=GPa)
#
#
# Indices 1 2 3 4 5 6 
#
# 1 147.6419 82.2789 38.7456 0.0000 0.0000 0.0000
# 2 82.2789 147.6423 38.7461 0.0000 0.0000 0.0000
# 3 38.7456 38.7461 137.9646 0.0000 0.0000 0.0000
# 4 0.0000 0.0000 0.0000 -6.1455 0.0000 0.0000
# 5 0.0000 0.0000 0.0000 0.0000 -6.1454 0.0000
# 6 0.0000 0.0000 0.0000 0.0000 0.0000 46.9347
#
#
#
# Elastic Compliance Matrix: (Units=1/GPa)
#
#
# Indices 1 2 3 4 5 6 
#
# 1 0.010052 -0.005248 -0.001349 0.000000 0.000000 0.000000
# 2 -0.005248 0.010052 -0.001349 0.000000 0.000000 0.000000
# 3 -0.001349 -0.001349 0.008006 0.000000 0.000000 0.000000
# 4 0.000000 0.000000 0.000000 -0.162720 0.000000 0.000000
# 5 0.000000 0.000000 0.000000 0.000000 -0.162725 0.000000
# 6 0.000000 0.000000 0.000000 0.000000 0.000000 0.021306
#
#
# Mechanical properties :
#
#
# Convention : Reuss Voigt Hill
#
# Bulk Modulus (GPa) = 81.85005 83.64330 82.74668
# Shear Modulus (GPa) = -19.52633 25.16065 2.81716
#
# Velocity S-wave (km/s) = -2.99893 3.40421 1.13910
# Velocity P-wave (km/s) = 5.07027 7.34687 6.31206
#
# Compressibility (1/GPa) = 0.01221746
#
# Stress axis : x y z
#
# Youngs Moduli (GPa) = 99.48678 99.48690 124.90584
#
# Poissons Ratio (x) = 0.52206 0.16851
# Poissons Ratio (y) = 0.52206 0.16852
# Poissons Ratio (z) = 0.13422 0.13423
#
# Static dielectric constant tensor:
#      x y z
#    x 1.852740 0.000000 0.000000 
#    y 0.000000 1.852740 0.000000 
#    z 0.000000 0.000000 1.806960 
# 
# From -- ./inp_files/1281.got.cif
#   From: 2010.05.17/outbox.cif.g08.bks.cpg/sg117_1_cif.got.tgz:1281.got - 2010.05.20 11:15:09.
