data_PCOD9558560
_publ_section_title
;
Structure prediction by ZEFSAII (Michael W. Deem and Ramdas Pophale) SiO2 
 PCOD9558560
Probable space group: P -4 N 2
;
_chemical_formula_sum "Si O2"
_cell_formula_units_Z 42
_cell_length_a 8.803013
_cell_length_b 8.803013
_cell_length_c 27.794625
_cell_angle_alpha 90.000000
_cell_angle_beta 90.000000
_cell_angle_gamma 90.000000
_cell_volume 2153.889928
_symmetry_space_group_name_H-M "P -4 N 2"
_symmetry_group_IT_number 118
_symmetry_cell_setting 'tetragonal'
loop_
_space_group_symop_operation_xyz
x,y,z
y,-x,-z
-x,-y,z
-y,x,-z
1/2+y,1/2+x,1/2-z
1/2-y,1/2-x,1/2-z
1/2-x,1/2+y,1/2+z
1/2+x,1/2-y,1/2+z
loop_
_atom_site_type_symbol
_atom_site_label
_atom_site_fract_x
_atom_site_fract_y
_atom_site_fract_z
Si Si1 0.000000 0.000000 0.500000
Si Si2 0.202034 0.268294 0.526330
Si Si3 0.501609 0.246605 0.331620
Si Si4 0.500000 0.000000 0.250000
Si Si5 0.500000 0.000000 0.750000
Si Si6 0.994047 0.245602 0.168498
Si Si7 0.173743 0.474802 0.439166
Si Si8 0.500000 0.000000 0.412184
O O1 0.101078 0.873287 0.473039
O O2 0.225198 0.334636 0.472389
O O3 0.370573 0.263936 0.548384
O O4 0.082216 0.374392 0.554730
O O5 0.504416 0.144190 0.284537
O O6 0.663166 0.331003 0.338639
O O7 0.382130 0.379625 0.324000
O O8 0.454465 0.137313 0.375978
O O9 0.357456 0.005387 0.786290
O O10 0.043181 0.319800 0.117973
O O11 0.000000 0.500000 0.453011
#
# Coordination Sequence:
#
# PCOD9558560 Si02
#       8
#     2   8   8   2   2   8   8   4
#     4  12  24  40  64  88 132 176 216 272 316 400
#     4  12  25  42  66  95 136 177 219 273 336 399
#     4  10  23  40  67  89 127 157 219 266 337 388
#     4  10  20  44  64  90 116 160 200 278 328 398
#     4  12  24  42  68  90 136 170 228 268 338 384
#     4  11  24  41  63  96 125 174 215 279 323 401
#     4  12  25  42  65  98 135 175 224 271 335 400
#     4  11  22  42  64  98 124 174 214 275 328 402
#
# _framework density 19.499601999999999
#
# number of rings (size 3 to 8) (size 9 to 14) (size 15 to 20)
#    0.000    0.762    5.714    1.143    5.333    0.381 
#    0.000    0.000    0.000    0.000    0.000    0.000 
#    0.000    0.000    0.000    0.000    0.000    0.000 
#
# Total GULP energy -234389.703620 kJ/mol
# GULP energy per Si atom -5580.707229 kJ/mol
# Density = 1.945522 g / cm^3
# Si number density = 19.499602 Si / 1000 Ang^3
#
#
#
# Elastic Constant Matrix: (Units=GPa)
#
#
# Indices 1 2 3 4 5 6 
#
# 1 80.3233 18.5565 34.9538 0.0000 0.0000 0.0000
# 2 18.5565 80.3233 34.9538 0.0000 0.0000 0.0000
# 3 34.9538 34.9538 145.0868 0.0000 0.0000 0.0000
# 4 0.0000 0.0000 0.0000 -0.1072 0.0000 0.0000
# 5 0.0000 0.0000 0.0000 0.0000 -0.1072 0.0000
# 6 0.0000 0.0000 0.0000 0.0000 0.0000 31.4405
#
#
#
# Elastic Compliance Matrix: (Units=1/GPa)
#
#
# Indices 1 2 3 4 5 6 
#
# 1 0.014190 -0.002000 -0.002937 0.000000 0.000000 0.000000
# 2 -0.002000 0.014190 -0.002937 0.000000 0.000000 0.000000
# 3 -0.002937 -0.002937 0.008307 0.000000 0.000000 0.000000
# 4 0.000000 0.000000 0.000000 -9.324165 0.000000 0.000000
# 5 0.000000 0.000000 0.000000 0.000000 -9.324165 0.000000
# 6 0.000000 0.000000 0.000000 0.000000 0.000000 0.031806
#
#
# Mechanical properties :
#
#
# Convention : Reuss Voigt Hill
#
# Bulk Modulus (GPa) = 47.75597 53.62904 50.69251
# Shear Modulus (GPa) = -0.26944 20.72982 10.23019
#
# Velocity S-wave (km/s) = -0.37212 3.26404 2.29298
# Velocity P-wave (km/s) = 4.93551 6.46279 5.75008
#
# Compressibility (1/GPa) = 0.02093979
#
# Stress axis : x y z
#
# Youngs Moduli (GPa) = 70.47364 70.47364 120.37468
#
# Poissons Ratio (x) = 0.14096 0.35350
# Poissons Ratio (y) = 0.14096 0.35350
# Poissons Ratio (z) = 0.20696 0.20696
#
# Static dielectric constant tensor:
#      x y z
#    x 1.759020 0.000000 0.000000 
#    y 0.000000 1.759020 0.000000 
#    z 0.000000 0.000000 1.666990 
# 
# From -- ./inp_files/6550.got.cif
#   From: 2010.05.17/outbox.cif.g08.bks.cpg/sg118_4_cif.got.tgz:6550.got - 2010.05.20 11:17:24.
