data_PCOD9558091
_publ_section_title
;
Structure prediction by ZEFSAII (Michael W. Deem and Ramdas Pophale) SiO2 
 PCOD9558091
Probable space group: P -4 B 2
;
_chemical_formula_sum "Si O2"
_cell_formula_units_Z 40
_cell_length_a 14.831336
_cell_length_b 14.831336
_cell_length_c 8.710604
_cell_angle_alpha 90.000000
_cell_angle_beta 90.000000
_cell_angle_gamma 90.000000
_cell_volume 1916.058736
_symmetry_space_group_name_H-M "P -4 B 2"
_symmetry_group_IT_number 117
_symmetry_cell_setting 'tetragonal'
loop_
_space_group_symop_operation_xyz
x,y,z
y,-x,-z
-x,-y,z
-y,x,-z
1/2+y,1/2+x,-z
1/2-y,1/2-x,-z
1/2-x,1/2+y,z
1/2+x,1/2-y,z
loop_
_atom_site_type_symbol
_atom_site_label
_atom_site_fract_x
_atom_site_fract_y
_atom_site_fract_z
Si Si1 0.612999 0.887002 0.000000
Si Si2 0.370682 0.432904 0.012668
Si Si3 0.144620 0.644620 0.500000
Si Si4 0.292659 0.863750 0.839142
Si Si5 0.664751 0.732232 0.225092
Si Si6 0.603138 0.015611 0.280149
O O1 0.616173 0.799716 0.107214
O O2 0.616404 0.973041 0.110452
O O3 0.289993 0.427699 0.888119
O O4 0.391626 0.536163 0.053676
O O5 0.347637 0.368934 0.159236
O O6 0.232809 0.639255 0.607761
O O7 0.053596 0.650706 0.603567
O O8 0.247896 0.771076 0.785380
O O9 0.376439 0.884390 0.726702
O O10 0.339676 0.839676 0.000000
O O11 0.500000 0.000000 0.317944
#
# Coordination Sequence:
#
# PCOD9558091 Si02
#       6
#     4   8   4   8   8   8
#     4  10  19  36  64  96 131 170 218 272 330 386
#     4  10  22  38  65 101 131 168 228 292 326 373
#     4  10  25  42  58  94 151 182 208 256 354 418
#     4  10  21  37  67 101 127 166 231 280 335 384
#     4  10  21  40  64  96 135 179 218 272 331 396
#     4  11  23  38  64  99 138 175 217 274 347 407
#
# _framework density 20.876187000000002
#
# number of rings (size 3 to 8) (size 9 to 14) (size 15 to 20)
#    0.000    1.800    3.000    1.800   11.200    0.000 
#    3.600    0.000    0.000    0.000    0.000    2.800 
#    0.000    0.000    0.000    0.000    0.000    0.000 
#
# Total GULP energy -223001.955851 kJ/mol
# GULP energy per Si atom -5575.048896 kJ/mol
# Density = 2.082867 g / cm^3
# Si number density = 20.876187 Si / 1000 Ang^3
#
#
#
# Elastic Constant Matrix: (Units=GPa)
#
#
# Indices 1 2 3 4 5 6 
#
# 1 113.6865 32.2618 31.3197 0.0000 0.0000 0.0000
# 2 32.2618 113.6867 31.3197 0.0000 0.0000 0.0000
# 3 31.3197 31.3197 95.6817 0.0000 0.0000 0.0000
# 4 0.0000 0.0000 0.0000 -41.2223 0.0000 0.0000
# 5 0.0000 0.0000 0.0000 0.0000 -41.2178 0.0000
# 6 0.0000 0.0000 0.0000 0.0000 0.0000 29.8491
#
#
#
# Elastic Compliance Matrix: (Units=1/GPa)
#
#
# Indices 1 2 3 4 5 6 
#
# 1 0.010126 -0.002155 -0.002609 0.000000 0.000000 0.000000
# 2 -0.002155 0.010126 -0.002609 0.000000 0.000000 0.000000
# 3 -0.002609 -0.002609 0.012160 0.000000 0.000000 0.000000
# 4 0.000000 0.000000 0.000000 -0.024259 0.000000 0.000000
# 5 0.000000 0.000000 0.000000 0.000000 -0.024261 0.000000
# 6 0.000000 0.000000 0.000000 0.000000 0.000000 0.033502
#
#
# Mechanical properties :
#
#
# Convention : Reuss Voigt Hill
#
# Bulk Modulus (GPa) = 56.60788 56.98412 56.79600
# Shear Modulus (GPa) = 131.47583 4.69207 68.08395
#
# Velocity S-wave (km/s) = 7.94453 1.50082 5.71699
# Velocity P-wave (km/s) = 10.55125 5.50988 8.41688
#
# Compressibility (1/GPa) = 0.01766538
#
# Stress axis : x y z
#
# Youngs Moduli (GPa) = 98.75114 98.75127 82.23963
#
# Poissons Ratio (x) = 0.21279 0.21459
# Poissons Ratio (y) = 0.21279 0.21459
# Poissons Ratio (z) = 0.25768 0.25768
#
# Static dielectric constant tensor:
#      x y z
#    x 2.038730 0.000000 0.000000 
#    y 0.000000 2.038740 0.000000 
#    z 0.000000 0.000000 1.637960 
# 
# From -- ./inp_files/1760.got.cif
#   From: 2010.05.17/outbox.cif.g08.bks.cpg/sg117_1_cif.got.tgz:1760.got - 2010.05.20 11:15:09.
