data_PCOD9558789
_publ_section_title
;
Structure prediction by ZEFSAII (Michael W. Deem and Ramdas Pophale) SiO2 
 PCOD9558789
Probable space group: P -4 N 2
;
_chemical_formula_sum "Si O2"
_cell_formula_units_Z 52
_cell_length_a 15.897469
_cell_length_b 15.897469
_cell_length_c 9.333581
_cell_angle_alpha 90.000000
_cell_angle_beta 90.000000
_cell_angle_gamma 90.000000
_cell_volume 2358.871452
_symmetry_space_group_name_H-M "P -4 N 2"
_symmetry_group_IT_number 118
_symmetry_cell_setting 'tetragonal'
loop_
_space_group_symop_operation_xyz
x,y,z
y,-x,-z
-x,-y,z
-y,x,-z
1/2+y,1/2+x,1/2-z
1/2-y,1/2-x,1/2-z
1/2-x,1/2+y,1/2+z
1/2+x,1/2-y,1/2+z
loop_
_atom_site_type_symbol
_atom_site_label
_atom_site_fract_x
_atom_site_fract_y
_atom_site_fract_z
Si Si1 0.162843 0.108711 0.676900
Si Si2 0.451723 0.133315 0.496175
Si Si3 0.626879 0.735480 0.278780
Si Si4 0.392194 0.945349 0.410958
Si Si5 0.669931 0.830070 0.750000
Si Si6 0.985685 0.794162 0.543150
Si Si7 0.095092 0.895909 0.004212
O O1 0.245826 0.165242 0.656509
O O2 0.078409 0.136020 0.597261
O O3 0.144431 0.116214 0.844078
O O4 0.188128 0.017766 0.616367
O O5 0.430216 0.201272 0.375144
O O6 0.550201 0.114210 0.508955
O O7 0.407885 0.162284 0.641466
O O8 0.413906 0.043009 0.445350
O O9 0.711389 0.788612 0.250000
O O10 0.570274 0.712267 0.140864
O O11 0.639367 0.653017 0.375245
O O12 0.420678 0.920678 0.250000
O O13 0.293946 0.938140 0.437092
O O14 0.994529 0.886095 0.986777
#
# Coordination Sequence:
#
# PCOD9558789 Si02
#       7
#     8   8   8   8   4   8   8
#     4  12  28  47  70 106 147 186 248 309 365 429
#     4  11  21  38  69  99 145 184 230 290 366 443
#     4  12  21  43  74 105 138 187 236 297 372 436
#     4  11  21  38  66 105 137 184 239 281 359 458
#     4  12  24  45  66 106 149 188 236 312 374 424
#     4  12  27  46  72 106 142 195 243 305 366 435
#     4  11  26  48  74 101 138 194 249 293 357 441
#
# _framework density 22.044440000000002
#
# number of rings (size 3 to 8) (size 9 to 14) (size 15 to 20)
#    0.000    0.462    7.692    0.923    3.231    1.538 
#    0.000    0.000    0.000    0.000    0.000    0.000 
#    0.000    0.000    0.000    0.000    0.000    0.000 
#
# Total GULP energy -290862.619598 kJ/mol
# GULP energy per Si atom -5593.511915 kJ/mol
# Density = 2.199427 g / cm^3
# Si number density = 22.044440 Si / 1000 Ang^3
#
#
#
# Elastic Constant Matrix: (Units=GPa)
#
#
# Indices 1 2 3 4 5 6 
#
# 1 54.9684 32.7032 9.5622 0.0000 0.0000 0.0000
# 2 32.7032 54.9690 9.5597 0.0000 0.0000 0.0000
# 3 9.5622 9.5597 28.4116 0.0000 0.0000 0.0000
# 4 0.0000 0.0000 0.0000 17.0275 0.0000 0.0000
# 5 0.0000 0.0000 0.0000 0.0000 17.0269 0.0000
# 6 0.0000 0.0000 0.0000 0.0000 0.0000 26.2885
#
#
#
# Elastic Compliance Matrix: (Units=1/GPa)
#
#
# Indices 1 2 3 4 5 6 
#
# 1 0.028612 -0.016301 -0.004145 0.000000 0.000000 0.000000
# 2 -0.016301 0.028610 -0.004140 0.000000 0.000000 0.000000
# 3 -0.004145 -0.004140 0.037985 0.000000 0.000000 0.000000
# 4 0.000000 0.000000 0.000000 0.058729 0.000000 0.000000
# 5 0.000000 0.000000 0.000000 0.000000 0.058730 0.000000
# 6 0.000000 0.000000 0.000000 0.000000 0.000000 0.038040
#
#
# Mechanical properties :
#
#
# Convention : Reuss Voigt Hill
#
# Bulk Modulus (GPa) = 21.72282 26.88880 24.30581
# Shear Modulus (GPa) = 15.86180 17.83684 16.84932
#
# Velocity S-wave (km/s) = 2.68533 2.84761 2.76766
# Velocity P-wave (km/s) = 4.41477 4.79957 4.61118
#
# Compressibility (1/GPa) = 0.04603455
#
# Stress axis : x y z
#
# Youngs Moduli (GPa) = 34.95076 34.95225 26.32633
#
# Poissons Ratio (x) = 0.56977 0.10911
# Poissons Ratio (y) = 0.56975 0.10900
# Poissons Ratio (z) = 0.14485 0.14471
#
# Static dielectric constant tensor:
#      x y z
#    x 1.804140 0.000000 0.000000 
#    y 0.000000 1.804140 0.000000 
#    z 0.000000 0.000000 1.810750 
# 
# From -- ./inp_files/2177.got.cif
#   From: 2010.05.17/outbox.cif.g08.bks.cpg/sg118_2_cif.got.tgz:2177.got - 2010.05.20 11:17:24.
