data_PCOD9558462
_publ_section_title
;
Structure prediction by ZEFSAII (Michael W. Deem and Ramdas Pophale) SiO2 
 PCOD9558462
Probable space group: P -4 N 2
;
_chemical_formula_sum "Si O2"
_cell_formula_units_Z 44
_cell_length_a 14.222537
_cell_length_b 14.222537
_cell_length_c 10.996371
_cell_angle_alpha 90.000000
_cell_angle_beta 90.000000
_cell_angle_gamma 90.000000
_cell_volume 2224.352070
_symmetry_space_group_name_H-M "P -4 N 2"
_symmetry_group_IT_number 118
_symmetry_cell_setting 'tetragonal'
loop_
_space_group_symop_operation_xyz
x,y,z
y,-x,-z
-x,-y,z
-y,x,-z
1/2+y,1/2+x,1/2-z
1/2-y,1/2-x,1/2-z
1/2-x,1/2+y,1/2+z
1/2+x,1/2-y,1/2+z
loop_
_atom_site_type_symbol
_atom_site_label
_atom_site_fract_x
_atom_site_fract_y
_atom_site_fract_z
Si Si1 0.855086 0.803753 0.219331
Si Si2 0.593656 0.810234 0.360471
Si Si3 0.747196 0.369116 0.046682
Si Si4 0.346762 0.944667 0.941972
Si Si5 0.425978 0.738711 0.975867
Si Si6 0.896831 0.396831 0.250000
O O1 0.773700 0.726301 0.250000
O O2 0.796959 0.896191 0.185084
O O3 0.914111 0.754363 0.112941
O O4 0.912470 0.809179 0.343555
O O5 0.620169 0.879832 0.250000
O O6 0.677097 0.818967 0.460212
O O7 0.499705 0.835756 0.431898
O O8 0.722294 0.468173 0.984152
O O9 0.802387 0.394445 0.169217
O O10 0.655745 0.304958 0.058470
O O11 0.407216 0.850161 0.958667
O O12 0.391611 0.015241 0.842141
#
# Coordination Sequence:
#
# PCOD9558462 Si02
#       6
#     8   8   8   8   8   4
#     4   9  16  37  62  80 112 165 195 232 296 364
#     4  10  19  37  62  88 122 159 190 239 309 369
#     4  11  22  38  60  88 121 156 200 250 297 361
#     4  10  20  36  63  92 119 150 202 254 299 352
#     4  11  22  40  62  86 118 164 204 245 303 359
#     4  10  22  35  62 102 116 139 210 268 290 349
#
# _framework density 19.781041999999999
#
# number of rings (size 3 to 8) (size 9 to 14) (size 15 to 20)
#    0.000    1.818    7.273    0.000    0.000    4.000 
#    3.273    0.909    0.000    0.545    0.000    0.000 
#    0.000    0.000    0.000    0.000    0.000    0.000 
#
# Total GULP energy -245567.716514 kJ/mol
# GULP energy per Si atom -5581.084466 kJ/mol
# Density = 1.973602 g / cm^3
# Si number density = 19.781042 Si / 1000 Ang^3
#
#
#
# Elastic Constant Matrix: (Units=GPa)
#
#
# Indices 1 2 3 4 5 6 
#
# 1 73.2191 54.0157 30.1091 0.0000 0.0000 0.0000
# 2 54.0157 73.2191 30.1095 0.0000 0.0000 0.0000
# 3 30.1091 30.1095 69.7143 0.0000 0.0000 0.0000
# 4 0.0000 0.0000 0.0000 24.8836 0.0000 0.0000
# 5 0.0000 0.0000 0.0000 0.0000 24.8836 0.0000
# 6 0.0000 0.0000 0.0000 0.0000 0.0000 14.9275
#
#
#
# Elastic Compliance Matrix: (Units=1/GPa)
#
#
# Indices 1 2 3 4 5 6 
#
# 1 0.030976 -0.021098 -0.004266 0.000000 0.000000 0.000000
# 2 -0.021098 0.030976 -0.004267 0.000000 0.000000 0.000000
# 3 -0.004266 -0.004267 0.018030 0.000000 0.000000 0.000000
# 4 0.000000 0.000000 0.000000 0.040187 0.000000 0.000000
# 5 0.000000 0.000000 0.000000 0.000000 0.040187 0.000000
# 6 0.000000 0.000000 0.000000 0.000000 0.000000 0.066990
#
#
# Mechanical properties :
#
#
# Convention : Reuss Voigt Hill
#
# Bulk Modulus (GPa) = 48.26049 49.40236 48.83142
# Shear Modulus (GPa) = 17.03487 19.73349 18.38418
#
# Velocity S-wave (km/s) = 2.93776 3.16190 3.05189
# Velocity P-wave (km/s) = 5.99646 6.19346 6.09576
#
# Compressibility (1/GPa) = 0.02072089
#
# Stress axis : x y z
#
# Youngs Moduli (GPa) = 32.28277 32.28260 55.46388
#
# Poissons Ratio (x) = 0.68108 0.23663
# Poissons Ratio (y) = 0.68109 0.23665
# Poissons Ratio (z) = 0.13773 0.13774
#
# Static dielectric constant tensor:
#      x y z
#    x 1.720390 0.000000 0.000000 
#    y 0.000000 1.720390 0.000000 
#    z 0.000000 0.000000 1.737440 
# 
# From -- ./inp_files/3256.got.cif
#   From: 2010.05.17/outbox.cif.g08.bks.cpg/sg118_2_cif.got.tgz:3256.got - 2010.05.20 11:17:24.
