data_PCOD9558014
_publ_section_title
;
Structure prediction by ZEFSAII (Michael W. Deem and Ramdas Pophale) SiO2 
 PCOD9558014
Probable space group: P -4 C 2
;
_chemical_formula_sum "Si O2"
_cell_formula_units_Z 22
_cell_length_a 8.487203
_cell_length_b 8.487203
_cell_length_c 12.312028
_cell_angle_alpha 90.000000
_cell_angle_beta 90.000000
_cell_angle_gamma 90.000000
_cell_volume 886.867570
_symmetry_space_group_name_H-M "P -4 C 2"
_symmetry_group_IT_number 116
_symmetry_cell_setting 'tetragonal'
loop_
_space_group_symop_operation_xyz
x,y,z
y,-x,-z
-x,-y,z
-y,x,-z
y,x,1/2-z
-y,-x,1/2-z
-x,y,1/2+z
x,-y,1/2+z
loop_
_atom_site_type_symbol
_atom_site_label
_atom_site_fract_x
_atom_site_fract_y
_atom_site_fract_z
Si Si1 0.704833 0.540670 0.936859
Si Si2 0.961817 0.742920 0.825587
Si Si3 0.295504 0.704497 0.750000
Si Si4 0.000000 0.000000 0.000000
O O1 0.865513 0.617898 0.897048
O O2 0.663970 0.419502 0.842057
O O3 0.682409 0.417614 0.037100
O O4 0.840844 0.840844 0.750000
O O5 0.104376 0.686199 0.748625
O O6 0.035231 0.857085 0.918016
#
# Coordination Sequence:
#
# PCOD9558014 Si02
#       4
#     8   8   4   2
#     4  11  29  50  79 119 168 223 284 353 433 525
#     4  12  26  50  84 120 168 219 287 361 428 516
#     4  12  25  55  78 122 164 219 285 360 430 512
#     4  12  22  52  84 122 160 216 294 332 420 538
#
# _framework density 24.806412000000002
#
# number of rings (size 3 to 8) (size 9 to 14) (size 15 to 20)
#    0.000    0.364    3.636    3.273   10.182    0.000 
#    0.000    0.000    0.000    0.000    0.000    0.000 
#    0.000    0.000    0.000    0.000    0.000    0.000 
#
# Total GULP energy -122586.897474 kJ/mol
# GULP energy per Si atom -5572.131703 kJ/mol
# Density = 2.474995 g / cm^3
# Si number density = 24.806412 Si / 1000 Ang^3
#
#
#
# Elastic Constant Matrix: (Units=GPa)
#
#
# Indices 1 2 3 4 5 6 
#
# 1 90.6656 73.9194 49.2385 0.0000 0.0000 0.0000
# 2 73.9194 90.6648 49.2381 0.0000 0.0000 0.0000
# 3 49.2385 49.2381 90.4429 0.0000 0.0000 0.0000
# 4 0.0000 0.0000 0.0000 146.8403 0.0000 0.0000
# 5 0.0000 0.0000 0.0000 0.0000 146.8429 0.0000
# 6 0.0000 0.0000 0.0000 0.0000 0.0000 62.0178
#
#
#
# Elastic Compliance Matrix: (Units=1/GPa)
#
#
# Indices 1 2 3 4 5 6 
#
# 1 0.034364 -0.025353 -0.004906 0.000000 0.000000 0.000000
# 2 -0.025353 0.034364 -0.004906 0.000000 0.000000 0.000000
# 3 -0.004906 -0.004906 0.016398 0.000000 0.000000 0.000000
# 4 0.000000 0.000000 0.000000 0.006810 0.000000 0.000000
# 5 0.000000 0.000000 0.000000 0.000000 0.006810 0.000000
# 6 0.000000 0.000000 0.000000 0.000000 0.000000 0.016124
#
#
# Mechanical properties :
#
#
# Convention : Reuss Voigt Hill
#
# Bulk Modulus (GPa) = 67.57930 68.50725 68.04327
# Shear Modulus (GPa) = 26.29761 77.76536 52.03149
#
# Velocity S-wave (km/s) = 3.25947 5.60508 4.58482
# Velocity P-wave (km/s) = 6.43951 8.34062 7.45095
#
# Compressibility (1/GPa) = 0.01479743
#
# Stress axis : x y z
#
# Youngs Moduli (GPa) = 29.10050 29.10029 60.98194
#
# Poissons Ratio (x) = 0.73777 0.29917
# Poissons Ratio (y) = 0.73777 0.29916
# Poissons Ratio (z) = 0.14276 0.14276
#
# Static dielectric constant tensor:
#      x y z
#    x 1.882450 0.000000 0.000000 
#    y 0.000000 1.882450 0.000000 
#    z 0.000000 0.000000 2.272340 
# 
# From -- ./inp_files/2156.got.cif
#   From: 2010.05.17/outbox.cif.g08.bks.cpg/sg116_2_cif.got.tgz:2156.got - 2010.05.20 11:11:43.
