data_PCOD9558988
_publ_section_title
;
Structure prediction by ZEFSAII (Michael W. Deem and Ramdas Pophale) SiO2 
 PCOD9558988
Probable space group: I -4 M 2
;
_chemical_formula_sum "Si O2"
_cell_formula_units_Z 80
_cell_length_a 14.038505
_cell_length_b 14.038505
_cell_length_c 26.812135
_cell_angle_alpha 90.000000
_cell_angle_beta 90.000000
_cell_angle_gamma 90.000000
_cell_volume 5284.125448
_symmetry_space_group_name_H-M "I -4 M 2"
_symmetry_group_IT_number 119
_symmetry_cell_setting 'tetragonal'
loop_
_space_group_symop_operation_xyz
x,y,z
y,-x,-z
-x,-y,z
-y,x,-z
y,x,-z
-y,-x,-z
-x,y,z
x,-y,z
1/2+x,1/2+y,1/2+z
1/2+y,1/2-x,1/2-z
1/2-x,1/2-y,1/2+z
1/2-y,1/2+x,1/2-z
1/2+y,1/2+x,1/2-z
1/2-y,1/2-x,1/2-z
1/2-x,1/2+y,1/2+z
1/2+x,1/2-y,1/2+z
loop_
_atom_site_type_symbol
_atom_site_label
_atom_site_fract_x
_atom_site_fract_y
_atom_site_fract_z
Si Si1 0.787479 0.387430 0.704474
Si Si2 0.611318 0.610821 0.356446
Si Si3 0.113665 0.267941 0.501387
Si Si4 0.108236 0.386321 0.900977
Si Si5 0.726043 0.613880 0.457079
O O1 0.800169 0.500000 0.715350
O O2 0.827792 0.327792 0.750000
O O3 0.678136 0.368426 0.690304
O O4 0.841534 0.367879 0.652305
O O5 0.500000 0.627164 0.370254
O O6 0.622559 0.500000 0.344583
O O7 0.676570 0.633419 0.403973
O O8 0.165706 0.165706 0.500000
O O9 0.134171 0.318126 0.554887
O O10 0.171811 0.335020 0.463022
O O11 0.000000 0.264777 0.493794
O O12 0.106328 0.500000 0.895250
O O13 0.000000 0.355285 0.914715
O O14 0.659445 0.659445 0.500000
O O15 0.733167 0.500000 0.463233
#
# Coordination Sequence:
#
# PCOD9558988 Si02
#       5
#    16  16  16  16  16
#     4  10  18  28  45  67  90 115 144 180 220 264
#     4   9  18  31  46  67  95 122 145 174 219 273
#     4  10  20  32  46  64  89 124 162 195 227 264
#     4   9  17  29  45  67  94 117 138 174 228 281
#     4  10  18  28  46  72  99 124 150 180 219 273
#
# _framework density 15.139685999999999
#
# number of rings (size 3 to 8) (size 9 to 14) (size 15 to 20)
#    0.000    2.400    0.000    4.200    0.000    5.000 
#    0.000    0.000    0.000    4.800    0.000    5.600 
#    0.000    0.000    0.000    0.000    0.000    0.000 
#
# Total GULP energy -222987.638887 kJ/mol
# GULP energy per Si atom -5574.690972 kJ/mol
# Density = 1.510523 g / cm^3
# Si number density = 15.139686 Si / 1000 Ang^3
#
#
#
# Elastic Constant Matrix: (Units=GPa)
#
#
# Indices 1 2 3 4 5 6 
#
# 1 103.6748 58.5230 59.0168 0.0000 0.0000 0.0000
# 2 58.5230 103.6748 59.0168 0.0000 0.0000 0.0000
# 3 59.0168 59.0168 88.3383 0.0000 0.0000 0.0000
# 4 0.0000 0.0000 0.0000 26.8902 0.0000 0.0000
# 5 0.0000 0.0000 0.0000 0.0000 26.8902 0.0000
# 6 0.0000 0.0000 0.0000 0.0000 0.0000 23.2718
#
#
#
# Elastic Compliance Matrix: (Units=1/GPa)
#
#
# Indices 1 2 3 4 5 6 
#
# 1 0.017073 -0.005074 -0.008016 0.000000 0.000000 0.000000
# 2 -0.005074 0.017073 -0.008016 0.000000 0.000000 0.000000
# 3 -0.008016 -0.008016 0.022031 0.000000 0.000000 0.000000
# 4 0.000000 0.000000 0.000000 0.037188 0.000000 0.000000
# 5 0.000000 0.000000 0.000000 0.000000 0.037188 0.000000
# 6 0.000000 0.000000 0.000000 0.000000 0.000000 0.042970
#
#
# Mechanical properties :
#
#
# Convention : Reuss Voigt Hill
#
# Bulk Modulus (GPa) = 71.61280 72.08900 71.85090
# Shear Modulus (GPa) = 22.68689 23.35255 23.01972
#
# Velocity S-wave (km/s) = 3.87525 3.93169 3.90357
# Velocity P-wave (km/s) = 8.21143 8.26621 8.23886
#
# Compressibility (1/GPa) = 0.01396398
#
# Stress axis : x y z
#
# Youngs Moduli (GPa) = 58.57164 58.57164 45.39105
#
# Poissons Ratio (x) = 0.29722 0.36386
# Poissons Ratio (y) = 0.29722 0.36386
# Poissons Ratio (z) = 0.46951 0.46951
#
# Static dielectric constant tensor:
#      x y z
#    x 1.522500 0.000000 0.000000 
#    y 0.000000 1.522500 0.000000 
#    z 0.000000 0.000000 1.475070 
# 
# From -- ./inp_files/7580.got.cif
#   From: 2010.05.17/outbox.cif.g08.bks.cpg/sg119_4_cif.got.tgz:7580.got - 2010.05.20 11:21:29.
