data_PCOD9558343
_publ_section_title
;
Structure prediction by ZEFSAII (Michael W. Deem and Ramdas Pophale) SiO2 
 PCOD9558343
Probable space group: P -4 B 2
;
_chemical_formula_sum "Si O2"
_cell_formula_units_Z 34
_cell_length_a 8.972321
_cell_length_b 8.972321
_cell_length_c 17.450014
_cell_angle_alpha 90.000000
_cell_angle_beta 90.000000
_cell_angle_gamma 90.000000
_cell_volume 1404.770522
_symmetry_space_group_name_H-M "P -4 B 2"
_symmetry_group_IT_number 117
_symmetry_cell_setting 'tetragonal'
loop_
_space_group_symop_operation_xyz
x,y,z
y,-x,-z
-x,-y,z
-y,x,-z
1/2+y,1/2+x,-z
1/2-y,1/2-x,-z
1/2-x,1/2+y,z
1/2+x,1/2-y,z
loop_
_atom_site_type_symbol
_atom_site_label
_atom_site_fract_x
_atom_site_fract_y
_atom_site_fract_z
Si Si1 0.556415 0.719152 0.968794
Si Si2 0.955314 0.337991 0.807637
Si Si3 0.482174 0.322379 0.406353
Si Si4 0.000000 0.500000 0.500000
Si Si5 0.223458 0.283396 0.299381
O O1 0.521162 0.730195 0.879166
O O2 0.673830 0.586910 0.982908
O O3 0.632424 0.867577 0.000000
O O4 0.794735 0.309080 0.770928
O O5 0.000000 0.500000 0.837521
O O6 0.058487 0.319707 0.733775
O O7 0.500000 0.500000 0.428078
O O8 0.316207 0.304104 0.376141
O O9 0.581985 0.306421 0.329583
O O10 0.502900 0.166215 0.456603
#
# Coordination Sequence:
#
# PCOD9558343 Si02
#       5
#     8   8   8   2   8
#     4  11  28  48  70 111 160 212 274 336 414 509
#     4  12  26  45  81 112 155 208 272 350 417 490
#     4  12  28  56  84 121 173 216 273 356 420 502
#     4  12  32  60  84 136 168 232 294 324 436 556
#     4  12  25  51  80 118 155 205 276 349 413 494
#
# _framework density 24.203243000000001
#
# number of rings (size 3 to 8) (size 9 to 14) (size 15 to 20)
#    0.000    0.235    4.706    2.824    6.588    4.706 
#    4.235    0.000    0.000    0.000    0.000    0.000 
#    0.000    0.000    0.000    0.000    0.000    0.000 
#
# Total GULP energy -189660.313431 kJ/mol
# GULP energy per Si atom -5578.244513 kJ/mol
# Density = 2.414816 g / cm^3
# Si number density = 24.203243 Si / 1000 Ang^3
#
#
#
# Elastic Constant Matrix: (Units=GPa)
#
#
# Indices 1 2 3 4 5 6 
#
# 1 88.1576 27.7801 30.6623 0.0000 0.0000 0.0000
# 2 27.7801 88.1550 30.6632 0.0000 0.0000 0.0000
# 3 30.6623 30.6632 106.0608 0.0000 0.0000 0.0000
# 4 0.0000 0.0000 0.0000 26.0233 0.0000 0.0000
# 5 0.0000 0.0000 0.0000 0.0000 26.0235 0.0000
# 6 0.0000 0.0000 0.0000 0.0000 0.0000 36.8197
#
#
#
# Elastic Compliance Matrix: (Units=1/GPa)
#
#
# Indices 1 2 3 4 5 6 
#
# 1 0.013372 -0.003190 -0.002944 0.000000 0.000000 0.000000
# 2 -0.003190 0.013373 -0.002944 0.000000 0.000000 0.000000
# 3 -0.002944 -0.002944 0.011131 0.000000 0.000000 0.000000
# 4 0.000000 0.000000 0.000000 0.038427 0.000000 0.000000
# 5 0.000000 0.000000 0.000000 0.000000 0.038427 0.000000
# 6 0.000000 0.000000 0.000000 0.000000 0.000000 0.027159
#
#
# Mechanical properties :
#
#
# Convention : Reuss Voigt Hill
#
# Bulk Modulus (GPa) = 50.70859 51.17607 50.94233
# Shear Modulus (GPa) = 30.00867 30.65782 30.33324
#
# Velocity S-wave (km/s) = 3.52499 3.56291 3.54400
# Velocity P-wave (km/s) = 6.12895 6.17381 6.15142
#
# Compressibility (1/GPa) = 0.01972052
#
# Stress axis : x y z
#
# Youngs Moduli (GPa) = 74.78070 74.77780 89.84150
#
# Poissons Ratio (x) = 0.23855 0.26447
# Poissons Ratio (y) = 0.23856 0.26449
# Poissons Ratio (z) = 0.22013 0.22014
#
# Static dielectric constant tensor:
#      x y z
#    x 1.988240 0.000000 0.000000 
#    y 0.000000 1.988240 0.000000 
#    z 0.000000 0.000000 1.860260 
# 
# From -- ./inp_files/3442.got.cif
#   From: 2010.05.17/outbox.cif.g08.bks.cpg/sg117_2_cif.got.tgz:3442.got - 2010.05.20 11:15:09.
