data_PCOD9558000
_publ_section_title
;
Structure prediction by ZEFSAII (Michael W. Deem and Ramdas Pophale) SiO2 
 PCOD9558000
Probable space group: P -4 C 2
;
_chemical_formula_sum "Si O2"
_cell_formula_units_Z 20
_cell_length_a 8.597164
_cell_length_b 8.597164
_cell_length_c 11.954949
_cell_angle_alpha 90.000000
_cell_angle_beta 90.000000
_cell_angle_gamma 90.000000
_cell_volume 883.604971
_symmetry_space_group_name_H-M "P -4 C 2"
_symmetry_group_IT_number 116
_symmetry_cell_setting 'tetragonal'
loop_
_space_group_symop_operation_xyz
x,y,z
y,-x,-z
-x,-y,z
-y,x,-z
y,x,1/2-z
-y,-x,1/2-z
-x,y,1/2+z
x,-y,1/2+z
loop_
_atom_site_type_symbol
_atom_site_label
_atom_site_fract_x
_atom_site_fract_y
_atom_site_fract_z
Si Si1 0.299253 0.700748 0.750000
Si Si2 0.883864 0.223368 0.975752
Si Si3 0.606636 0.155983 0.303292
O O1 0.191328 0.746968 0.855609
O O2 0.279856 0.524721 0.716284
O O3 0.861074 0.357484 0.065933
O O4 0.067254 0.191584 0.973102
O O5 0.767939 0.232062 0.250000
O O6 0.500000 0.000000 0.268765
#
# Coordination Sequence:
#
# PCOD9558000 Si02
#       3
#     4   8   8
#     4  12  27  49  80 118 165 218 269 352 429 504
#     4  11  26  48  81 117 158 213 284 342 416 514
#     4  12  27  51  80 117 164 216 278 351 427 509
#
# _framework density 22.634550000000001
#
# number of rings (size 3 to 8) (size 9 to 14) (size 15 to 20)
#    0.000    0.400    4.000    3.000    5.600    3.200 
#    0.000    0.000    0.000    0.000    0.000    0.000 
#    0.000    0.000    0.000    0.000    0.000    0.000 
#
# Total GULP energy -111397.612586 kJ/mol
# GULP energy per Si atom -5569.880629 kJ/mol
# Density = 2.258303 g / cm^3
# Si number density = 22.634550 Si / 1000 Ang^3
#
#
#
# Elastic Constant Matrix: (Units=GPa)
#
#
# Indices 1 2 3 4 5 6 
#
# 1 94.6433 82.8979 64.2343 0.0000 0.0000 0.0000
# 2 82.8979 94.6417 64.2365 0.0000 0.0000 0.0000
# 3 64.2343 64.2365 130.3585 0.0000 0.0000 0.0000
# 4 0.0000 0.0000 0.0000 -11.9821 0.0000 0.0000
# 5 0.0000 0.0000 0.0000 0.0000 -11.9771 0.0000
# 6 0.0000 0.0000 0.0000 0.0000 0.0000 38.2423
#
#
#
# Elastic Compliance Matrix: (Units=1/GPa)
#
#
# Indices 1 2 3 4 5 6 
#
# 1 0.046948 -0.038196 -0.004312 0.000000 0.000000 0.000000
# 2 -0.038196 0.046951 -0.004315 0.000000 0.000000 0.000000
# 3 -0.004312 -0.004315 0.011922 0.000000 0.000000 0.000000
# 4 0.000000 0.000000 0.000000 -0.083458 0.000000 0.000000
# 5 0.000000 0.000000 0.000000 0.000000 -0.083493 0.000000
# 6 0.000000 0.000000 0.000000 0.000000 0.000000 0.026149
#
#
# Mechanical properties :
#
#
# Convention : Reuss Voigt Hill
#
# Bulk Modulus (GPa) = 82.13034 82.48677 82.30855
# Shear Modulus (GPa) = 79.71366 10.07495 44.89430
#
# Velocity S-wave (km/s) = 5.94089 2.11206 4.45842
# Velocity P-wave (km/s) = 9.13362 6.51688 7.93387
#
# Compressibility (1/GPa) = 0.01217577
#
# Stress axis : x y z
#
# Youngs Moduli (GPa) = 21.29999 21.29873 83.87688
#
# Poissons Ratio (x) = 0.81352 0.36169
# Poissons Ratio (y) = 0.81357 0.36193
# Poissons Ratio (z) = 0.09185 0.09190
#
# Static dielectric constant tensor:
#      x y z
#    x 1.937070 0.000000 0.000000 
#    y 0.000000 1.937070 0.000000 
#    z 0.000000 0.000000 1.837750 
# 
# From -- ./inp_files/1222.got.cif
#   From: 2010.05.17/outbox.cif.g08.bks.cpg/sg116_1_cif.got.tgz:1222.got - 2010.05.20 11:11:43.
