data_PCOD9558791
_publ_section_title
;
Structure prediction by ZEFSAII (Michael W. Deem and Ramdas Pophale) SiO2 
 PCOD9558791
Probable space group: P -4 N 2
;
_chemical_formula_sum "Si O2"
_cell_formula_units_Z 18
_cell_length_a 7.603817
_cell_length_b 7.603817
_cell_length_c 17.561206
_cell_angle_alpha 90.000000
_cell_angle_beta 90.000000
_cell_angle_gamma 90.000000
_cell_volume 1015.354387
_symmetry_space_group_name_H-M "P -4 N 2"
_symmetry_group_IT_number 118
_symmetry_cell_setting 'tetragonal'
loop_
_space_group_symop_operation_xyz
x,y,z
y,-x,-z
-x,-y,z
-y,x,-z
1/2+y,1/2+x,1/2-z
1/2-y,1/2-x,1/2-z
1/2-x,1/2+y,1/2+z
1/2+x,1/2-y,1/2+z
loop_
_atom_site_type_symbol
_atom_site_label
_atom_site_fract_x
_atom_site_fract_y
_atom_site_fract_z
Si Si1 0.795891 0.000000 0.376708
Si Si2 0.294006 0.294006 0.500000
Si Si3 0.000000 0.500000 0.750000
O O1 0.755811 0.831199 0.429797
O O2 0.244189 0.831199 0.429797
O O3 0.000000 0.000000 0.355493
O O4 0.267253 0.500000 0.482109
O O5 0.331273 1.000000 0.304732
#
# Coordination Sequence:
#
# PCOD9558791 Si02
#       3
#     8   8   2
#     4  12  24  42  68  98 134 173 218 274 330 385
#     4  11  21  38  70 100 123 173 226 262 316 405
#     4  12  28  44  60 104 148 162 212 292 336 368
#
# _framework density 17.727799999999998
#
# number of rings (size 3 to 8) (size 9 to 14) (size 15 to 20)
#    0.000    0.444    8.889    0.000    0.000    3.556 
#    0.000    0.000    0.000    0.000    0.000    0.000 
#    0.000    0.000    0.000    0.000    0.000    0.000 
#
# Total GULP energy -100645.265796 kJ/mol
# GULP energy per Si atom -5591.403655 kJ/mol
# Density = 1.768745 g / cm^3
# Si number density = 17.727800 Si / 1000 Ang^3
#
#
#
# Elastic Constant Matrix: (Units=GPa)
#
#
# Indices 1 2 3 4 5 6 
#
# 1 176.3882 77.8525 90.7254 0.0000 0.0000 0.0000
# 2 77.8525 176.3882 90.7254 0.0000 0.0000 0.0000
# 3 90.7254 90.7254 160.7811 0.0000 0.0000 0.0000
# 4 0.0000 0.0000 0.0000 40.6509 0.0000 0.0000
# 5 0.0000 0.0000 0.0000 0.0000 40.6509 0.0000
# 6 0.0000 0.0000 0.0000 0.0000 0.0000 28.1424
#
#
#
# Elastic Compliance Matrix: (Units=1/GPa)
#
#
# Indices 1 2 3 4 5 6 
#
# 1 0.008367 -0.001782 -0.003716 0.000000 0.000000 0.000000
# 2 -0.001782 0.008367 -0.003716 0.000000 0.000000 0.000000
# 3 -0.003716 -0.003716 0.010413 0.000000 0.000000 0.000000
# 4 0.000000 0.000000 0.000000 0.024600 0.000000 0.000000
# 5 0.000000 0.000000 0.000000 0.000000 0.024600 0.000000
# 6 0.000000 0.000000 0.000000 0.000000 0.000000 0.035534
#
#
# Mechanical properties :
#
#
# Convention : Reuss Voigt Hill
#
# Bulk Modulus (GPa) = 114.67708 114.68488 114.68098
# Shear Modulus (GPa) = 37.53353 38.83911 38.18632
#
# Velocity S-wave (km/s) = 4.60631 4.68574 4.64619
# Velocity P-wave (km/s) = 9.64981 9.70090 9.67539
#
# Compressibility (1/GPa) = 0.00872014
#
# Stress axis : x y z
#
# Youngs Moduli (GPa) = 119.51734 119.51734 96.03060
#
# Poissons Ratio (x) = 0.21293 0.35685
# Poissons Ratio (y) = 0.21293 0.35685
# Poissons Ratio (z) = 0.44412 0.44412
#
# Static dielectric constant tensor:
#      x y z
#    x 1.608230 0.000000 0.000000 
#    y 0.000000 1.608230 0.000000 
#    z 0.000000 0.000000 1.551280 
# 
# From -- ./inp_files/2475.got.cif
#   From: 2010.05.17/outbox.cif.g08.bks.cpg/sg118_2_cif.got.tgz:2475.got - 2010.05.20 11:17:24.
