data_PCOD9558670
_publ_section_title
;
Structure prediction by ZEFSAII (Michael W. Deem and Ramdas Pophale) SiO2 
 PCOD9558670
Probable space group: P -4 N 2
;
_chemical_formula_sum "Si O2"
_cell_formula_units_Z 36
_cell_length_a 15.021602
_cell_length_b 15.021602
_cell_length_c 8.361782
_cell_angle_alpha 90.000000
_cell_angle_beta 90.000000
_cell_angle_gamma 90.000000
_cell_volume 1886.823788
_symmetry_space_group_name_H-M "P -4 N 2"
_symmetry_group_IT_number 118
_symmetry_cell_setting 'tetragonal'
loop_
_space_group_symop_operation_xyz
x,y,z
y,-x,-z
-x,-y,z
-y,x,-z
1/2+y,1/2+x,1/2-z
1/2-y,1/2-x,1/2-z
1/2-x,1/2+y,1/2+z
1/2+x,1/2-y,1/2+z
loop_
_atom_site_type_symbol
_atom_site_label
_atom_site_fract_x
_atom_site_fract_y
_atom_site_fract_z
Si Si1 0.721429 0.200108 0.936875
Si Si2 0.500000 0.000000 0.250000
Si Si3 0.165989 0.915721 0.159520
Si Si4 0.000000 0.000000 0.000000
Si Si5 0.311857 0.970761 0.408326
Si Si6 0.739046 0.872444 0.634337
O O1 0.704467 0.204467 0.750000
O O2 0.789745 0.126088 0.000405
O O3 0.629525 0.181219 0.028132
O O4 0.754240 0.295865 0.999689
O O5 0.590785 0.000043 0.351469
O O6 0.241017 0.966503 0.262870
O O7 0.133298 0.830798 0.264730
O O8 0.084620 0.977060 0.109277
O O9 0.276854 0.034723 0.548056
O O10 0.659166 0.840835 0.750000
#
# Coordination Sequence:
#
# PCOD9558670 Si02
#       6
#     8   2   8   2   8   8
#     4  10  22  42  66  90 130 174 208 274 337 391
#     4  12  24  40  66 100 128 180 218 272 332 400
#     4  10  24  45  60  95 134 170 219 273 335 391
#     4  12  28  36  74  96 128 176 230 276 312 416
#     4  11  23  42  66  93 134 171 217 277 328 404
#     4   9  22  41  65  93 128 168 215 265 332 401
#
# _framework density 19.079684
#
# number of rings (size 3 to 8) (size 9 to 14) (size 15 to 20)
#    0.000    1.778    2.222    1.333    7.778    5.333 
#    0.000    0.000    0.000    0.000    0.000    0.000 
#    0.000    0.000    0.000    0.000    0.000    0.000 
#
# Total GULP energy -201127.703619 kJ/mol
# GULP energy per Si atom -5586.880656 kJ/mol
# Density = 1.903626 g / cm^3
# Si number density = 19.079684 Si / 1000 Ang^3
#
#
#
# Elastic Constant Matrix: (Units=GPa)
#
#
# Indices 1 2 3 4 5 6 
#
# 1 86.7996 44.6825 32.9504 0.0000 0.0000 0.0000
# 2 44.6825 86.7995 32.9506 0.0000 0.0000 0.0000
# 3 32.9504 32.9506 99.4322 0.0000 0.0000 0.0000
# 4 0.0000 0.0000 0.0000 21.1013 0.0000 0.0000
# 5 0.0000 0.0000 0.0000 0.0000 21.1013 0.0000
# 6 0.0000 0.0000 0.0000 0.0000 0.0000 36.1635
#
#
#
# Elastic Compliance Matrix: (Units=1/GPa)
#
#
# Indices 1 2 3 4 5 6 
#
# 1 0.016432 -0.007311 -0.003022 0.000000 0.000000 0.000000
# 2 -0.007311 0.016432 -0.003022 0.000000 0.000000 0.000000
# 3 -0.003022 -0.003022 0.012060 0.000000 0.000000 0.000000
# 4 0.000000 0.000000 0.000000 0.047390 0.000000 0.000000
# 5 0.000000 0.000000 0.000000 0.000000 0.047390 0.000000
# 6 0.000000 0.000000 0.000000 0.000000 0.000000 0.027652
#
#
# Mechanical properties :
#
#
# Convention : Reuss Voigt Hill
#
# Bulk Modulus (GPa) = 54.91000 54.91091 54.91045
# Shear Modulus (GPa) = 24.98250 26.50308 25.74279
#
# Velocity S-wave (km/s) = 3.62246 3.73107 3.67716
# Velocity P-wave (km/s) = 6.80721 6.88502 6.84622
#
# Compressibility (1/GPa) = 0.01821162
#
# Stress axis : x y z
#
# Youngs Moduli (GPa) = 60.85732 60.85707 82.91690
#
# Poissons Ratio (x) = 0.44495 0.25060
# Poissons Ratio (y) = 0.44495 0.25061
# Poissons Ratio (z) = 0.18393 0.18394
#
# Static dielectric constant tensor:
#      x y z
#    x 1.645770 0.000000 0.000000 
#    y 0.000000 1.645770 0.000000 
#    z 0.000000 0.000000 1.650440 
# 
# From -- ./inp_files/1794.got.cif
#   From: 2010.05.17/outbox.cif.g08.bks.cpg/sg118_1_cif.got.tgz:1794.got - 2010.05.20 11:17:24.
