data_PCOD9558564
_publ_section_title
;
Structure prediction by ZEFSAII (Michael W. Deem and Ramdas Pophale) SiO2 
 PCOD9558564
Probable space group: P -4 N 2
;
_chemical_formula_sum "Si O2"
_cell_formula_units_Z 34
_cell_length_a 16.546755
_cell_length_b 16.546755
_cell_length_c 5.969094
_cell_angle_alpha 90.000000
_cell_angle_beta 90.000000
_cell_angle_gamma 90.000000
_cell_volume 1634.308695
_symmetry_space_group_name_H-M "P -4 N 2"
_symmetry_group_IT_number 118
_symmetry_cell_setting 'tetragonal'
loop_
_space_group_symop_operation_xyz
x,y,z
y,-x,-z
-x,-y,z
-y,x,-z
1/2+y,1/2+x,1/2-z
1/2-y,1/2-x,1/2-z
1/2-x,1/2+y,1/2+z
1/2+x,1/2-y,1/2+z
loop_
_atom_site_type_symbol
_atom_site_label
_atom_site_fract_x
_atom_site_fract_y
_atom_site_fract_z
Si Si1 0.752682 0.846025 0.405560
Si Si2 0.898958 0.429219 0.493850
Si Si3 0.616500 0.376539 0.245450
Si Si4 0.272950 0.514106 0.551066
Si Si5 0.000000 0.000000 0.500000
O O1 0.729812 0.770189 0.250000
O O2 0.664942 0.868552 0.508573
O O3 0.825885 0.830848 0.571422
O O4 0.777047 0.925763 0.265177
O O5 0.939908 0.439908 0.250000
O O6 0.820980 0.486886 0.491982
O O7 0.935715 0.435715 0.750000
O O8 0.675607 0.439109 0.366358
O O9 0.571584 0.313101 0.403358
O O10 0.545437 0.431045 0.140544
#
# Coordination Sequence:
#
# PCOD9558564 Si02
#       5
#     8   8   8   8   2
#     4   9  20  35  52  65  94 147 197 232 274 332
#     4   9  17  34  52  69  91 137 193 226 273 323
#     4  12  20  34  45  71 112 139 197 226 296 356
#     4  10  21  30  48  71  97 146 178 236 277 338
#     4  12  24  30  44  72 114 156 176 230 280 370
#
# _framework density 20.803902999999998
#
# number of rings (size 3 to 8) (size 9 to 14) (size 15 to 20)
#    0.000    2.353    4.706    1.412    0.000    0.000 
#    0.000    0.000    0.000    0.000    0.000    0.000 
#    0.000    0.000    0.000  406.588    0.000    9.412 
#
# Total GULP energy -189485.752374 kJ/mol
# GULP energy per Si atom -5573.110364 kJ/mol
# Density = 2.075655 g / cm^3
# Si number density = 20.803903 Si / 1000 Ang^3
#
#
#
# Elastic Constant Matrix: (Units=GPa)
#
#
# Indices 1 2 3 4 5 6 
#
# 1 24.9081 86.9143 32.5164 0.0000 0.0000 0.0000
# 2 86.9143 24.9086 32.5171 0.0000 0.0000 0.0000
# 3 32.5164 32.5171 116.6508 0.0000 0.0000 0.0000
# 4 0.0000 0.0000 0.0000 129.7404 0.0000 0.0000
# 5 0.0000 0.0000 0.0000 0.0000 129.7604 0.0000
# 6 0.0000 0.0000 0.0000 0.0000 0.0000 18.1956
#
#
#
# Elastic Compliance Matrix: (Units=1/GPa)
#
#
# Indices 1 2 3 4 5 6 
#
# 1 -0.002727 0.013400 -0.002975 0.000000 0.000000 0.000000
# 2 0.013400 -0.002727 -0.002975 0.000000 0.000000 0.000000
# 3 -0.002975 -0.002975 0.010231 0.000000 0.000000 0.000000
# 4 0.000000 0.000000 0.000000 0.007708 0.000000 0.000000
# 5 0.000000 0.000000 0.000000 0.000000 0.007707 0.000000
# 6 0.000000 0.000000 0.000000 0.000000 0.000000 0.054958
#
#
# Mechanical properties :
#
#
# Convention : Reuss Voigt Hill
#
# Bulk Modulus (GPa) = 50.82147 52.26258 51.54203
# Shear Modulus (GPa) = 74.84112 56.50728 65.67420
#
# Velocity S-wave (km/s) = 6.00439 5.21736 5.62465
# Velocity P-wave (km/s) = 8.51775 7.84031 8.18604
#
# Compressibility (1/GPa) = 0.01967672
#
# Stress axis : x y z
#
# Youngs Moduli (GPa) = -366.66896 -366.67192 97.73980
#
# Poissons Ratio (x) = 4.91349 0.29079
# Poissons Ratio (y) = 4.91345 0.29078
# Poissons Ratio (z) = -1.09091 -1.09088
#
# Static dielectric constant tensor:
#      x y z
#    x 1.591070 0.000000 0.000000 
#    y 0.000000 1.591090 0.000000 
#    z 0.000000 0.000000 1.846510 
# 
# From -- ./inp_files/536.got.cif
#   From: 2010.05.17/outbox.cif.g08.bks.cpg/sg118_1_cif.got.tgz:536.got - 2010.05.20 11:17:24.
