data_PCOD9558075
_publ_section_title
;
Structure prediction by ZEFSAII (Michael W. Deem and Ramdas Pophale) SiO2 
 PCOD9558075
Probable space group: P -4 B 2
;
_chemical_formula_sum "Si O2"
_cell_formula_units_Z 40
_cell_length_a 18.085234
_cell_length_b 18.085234
_cell_length_c 5.539367
_cell_angle_alpha 90.000000
_cell_angle_beta 90.000000
_cell_angle_gamma 90.000000
_cell_volume 1811.792277
_symmetry_space_group_name_H-M "P -4 B 2"
_symmetry_group_IT_number 117
_symmetry_cell_setting 'tetragonal'
loop_
_space_group_symop_operation_xyz
x,y,z
y,-x,-z
-x,-y,z
-y,x,-z
1/2+y,1/2+x,-z
1/2-y,1/2-x,-z
1/2-x,1/2+y,z
1/2+x,1/2-y,z
loop_
_atom_site_type_symbol
_atom_site_label
_atom_site_fract_x
_atom_site_fract_y
_atom_site_fract_z
Si Si1 0.438142 0.651729 0.250000
Si Si2 0.661251 0.481256 0.250000
Si Si3 0.316521 0.151349 0.750000
Si Si4 0.339572 0.010048 0.250000
Si Si5 0.312735 0.981431 0.750000
O O1 0.364592 0.603276 0.250000
O O2 0.481013 0.633999 0.500687
O O3 0.430205 0.740523 0.250000
O O4 0.481013 0.633999 0.999312
O O5 0.749643 0.488409 0.250000
O O6 0.305040 0.194961 0.500000
O O7 0.404992 0.136163 0.750000
O O8 0.282997 0.068491 0.750000
O O9 0.305040 0.194961 0.000000
O O10 0.357704 0.974347 0.504529
O O11 0.357703 0.974347 0.995471
#
# Coordination Sequence:
#
# PCOD9558075 Si02
#       5
#     8   8   8   8   8
#     4  10  19  28  36  46  61  82 109 138 166 192
#     4  10  19  28  36  46  61  82 109 138 166 192
#     4   8  12  20  34  48  60  72  88 116 158 194
#     4   8  14  23  34  47  60  74  94 123 160 191
#     4   8  14  23  34  47  60  74  94 123 160 191
#
# _framework density 22.077586
#
# number of rings (size 3 to 8) (size 9 to 14) (size 15 to 20)
#    0.000    3.200    0.000    1.200    0.000    2.400 
#    0.000    0.000    0.000    0.000    0.000    0.000 
#    0.000    0.000    0.000    0.000    0.000    0.000 
#
# Total GULP energy -222785.148212 kJ/mol
# GULP energy per Si atom -5569.628705 kJ/mol
# Density = 2.202734 g / cm^3
# Si number density = 22.077586 Si / 1000 Ang^3
#
#
#
# Elastic Constant Matrix: (Units=GPa)
#
#
# Indices 1 2 3 4 5 6 
#
# 1 -16.4747 61.7442 10.6705 0.0000 0.0000 0.0000
# 2 61.7442 -16.4764 10.6696 0.0000 0.0000 0.0000
# 3 10.6705 10.6696 252.0940 0.0000 0.0000 0.0000
# 4 0.0000 0.0000 0.0000 31.5840 0.0000 0.0000
# 5 0.0000 0.0000 0.0000 0.0000 31.5842 0.0000
# 6 0.0000 0.0000 0.0000 0.0000 0.0000 30.3242
#
#
#
# Elastic Compliance Matrix: (Units=1/GPa)
#
#
# Indices 1 2 3 4 5 6 
#
# 1 0.004878 0.017662 -0.000954 0.000000 0.000000 0.000000
# 2 0.017662 0.004878 -0.000954 0.000000 0.000000 0.000000
# 3 -0.000954 -0.000954 0.004048 0.000000 0.000000 0.000000
# 4 0.000000 0.000000 0.000000 0.031662 0.000000 0.000000
# 5 0.000000 0.000000 0.000000 0.000000 0.031661 0.000000
# 6 0.000000 0.000000 0.000000 0.000000 0.000000 0.032977
#
#
# Mechanical properties :
#
#
# Convention : Reuss Voigt Hill
#
# Bulk Modulus (GPa) = 22.06944 42.81241 32.44093
# Shear Modulus (GPa) = 53.36273 27.76907 40.56590
#
# Velocity S-wave (km/s) = 4.92169 3.55039 4.29117
# Velocity P-wave (km/s) = 6.50503 6.02004 6.26723
#
# Compressibility (1/GPa) = 0.04531152
#
# Stress axis : x y z
#
# Youngs Moduli (GPa) = 205.00184 205.02148 247.06401
#
# Poissons Ratio (x) = -3.62114 0.23570
# Poissons Ratio (y) = -3.62080 0.23571
# Poissons Ratio (z) = 0.19557 0.19560
#
# Static dielectric constant tensor:
#      x y z
#    x 1.768850 0.000000 0.000000 
#    y 0.000000 1.768850 0.000000 
#    z 0.000000 0.000000 1.991500 
# 
# From -- ./inp_files/704.got.cif
#   From: 2010.05.17/outbox.cif.g08.bks.cpg/sg117_1_cif.got.tgz:704.got - 2010.05.20 11:15:09.
