data_PCOD9558111
_publ_section_title
;
Structure prediction by ZEFSAII (Michael W. Deem and Ramdas Pophale) SiO2 
 PCOD9558111
Probable space group: P -4 B 2
;
_chemical_formula_sum "Si O2"
_cell_formula_units_Z 48
_cell_length_a 14.998995
_cell_length_b 14.998995
_cell_length_c 11.286509
_cell_angle_alpha 90.000000
_cell_angle_beta 90.000000
_cell_angle_gamma 90.000000
_cell_volume 2539.124248
_symmetry_space_group_name_H-M "P -4 B 2"
_symmetry_group_IT_number 117
_symmetry_cell_setting 'tetragonal'
loop_
_space_group_symop_operation_xyz
x,y,z
y,-x,-z
-x,-y,z
-y,x,-z
1/2+y,1/2+x,-z
1/2-y,1/2-x,-z
1/2-x,1/2+y,z
1/2+x,1/2-y,z
loop_
_atom_site_type_symbol
_atom_site_label
_atom_site_fract_x
_atom_site_fract_y
_atom_site_fract_z
Si Si1 0.224538 0.451312 0.906644
Si Si2 0.864573 0.341981 0.132240
Si Si3 0.648682 0.041042 0.152833
Si Si4 0.199979 0.379352 0.391993
Si Si5 0.183180 0.188979 0.262357
Si Si6 0.614429 0.584316 0.521526
O O1 0.222753 0.551081 0.853288
O O2 0.127060 0.411283 0.874377
O O3 0.294292 0.384806 0.846607
O O4 0.224844 0.456284 0.049866
O O5 0.896114 0.444989 0.136587
O O6 0.781549 0.334910 0.219202
O O7 0.827504 0.327504 0.000000
O O8 0.680419 0.051193 0.287726
O O9 0.128908 0.371093 0.500000
O O10 0.193656 0.283388 0.329056
O O11 0.297588 0.394293 0.445922
O O12 0.138632 0.122662 0.356175
O O13 0.610735 0.477923 0.541253
#
# Coordination Sequence:
#
# PCOD9558111 Si02
#       6
#     8   8   8   8   8   8
#     4   9  19  33  54  84 111 147 180 232 289 349
#     4  10  20  32  55  86 111 145 188 227 293 361
#     4   9  17  34  56  78 115 147 179 234 286 346
#     4   9  19  34  54  78 107 147 183 228 282 331
#     4  10  21  34  55  81 111 142 186 239 288 338
#     4  10  21  37  56  75 104 149 198 236 277 345
#
# _framework density 18.904156
#
# number of rings (size 3 to 8) (size 9 to 14) (size 15 to 20)
#    0.000    2.500    0.000    1.500    7.000    2.000 
#    0.000    0.000    0.000    8.000    0.000    2.333 
#    0.000    0.000    0.000    0.000    0.000    0.000 
#
# Total GULP energy -267388.828959 kJ/mol
# GULP energy per Si atom -5570.600603 kJ/mol
# Density = 1.886113 g / cm^3
# Si number density = 18.904156 Si / 1000 Ang^3
#
#
#
# Elastic Constant Matrix: (Units=GPa)
#
#
# Indices 1 2 3 4 5 6 
#
# 1 58.4963 9.6463 28.7211 0.0000 0.0000 0.0000
# 2 9.6463 58.4956 28.7212 0.0000 0.0000 0.0000
# 3 28.7211 28.7212 109.0842 0.0000 0.0000 0.0000
# 4 0.0000 0.0000 0.0000 22.9698 0.0000 0.0000
# 5 0.0000 0.0000 0.0000 0.0000 22.9700 0.0000
# 6 0.0000 0.0000 0.0000 0.0000 0.0000 21.5154
#
#
#
# Elastic Compliance Matrix: (Units=1/GPa)
#
#
# Indices 1 2 3 4 5 6 
#
# 1 0.019666 -0.000805 -0.004966 0.000000 0.000000 0.000000
# 2 -0.000805 0.019666 -0.004966 0.000000 0.000000 0.000000
# 3 -0.004966 -0.004966 0.011782 0.000000 0.000000 0.000000
# 4 0.000000 0.000000 0.000000 0.043535 0.000000 0.000000
# 5 0.000000 0.000000 0.000000 0.000000 0.043535 0.000000
# 6 0.000000 0.000000 0.000000 0.000000 0.000000 0.046478
#
#
# Mechanical properties :
#
#
# Convention : Reuss Voigt Hill
#
# Bulk Modulus (GPa) = 33.73719 40.02815 36.88267
# Shear Modulus (GPa) = 23.14625 24.09022 23.61823
#
# Velocity S-wave (km/s) = 3.50294 3.57365 3.53847
# Velocity P-wave (km/s) = 5.85200 6.18452 6.02056
#
# Compressibility (1/GPa) = 0.02964088
#
# Stress axis : x y z
#
# Youngs Moduli (GPa) = 50.84893 50.84821 84.87294
#
# Poissons Ratio (x) = 0.04092 0.42148
# Poissons Ratio (y) = 0.04092 0.42149
# Poissons Ratio (z) = 0.25252 0.25252
#
# Static dielectric constant tensor:
#      x y z
#    x 1.659620 0.000000 0.000000 
#    y 0.000000 1.659620 0.000000 
#    z 0.000000 0.000000 1.698390 
# 
# From -- ./inp_files/2749.got.cif
#   From: 2010.05.17/outbox.cif.g08.bks.cpg/sg117_2_cif.got.tgz:2749.got - 2010.05.20 11:15:09.
