data_PCOD9558183
_publ_section_title
;
Structure prediction by ZEFSAII (Michael W. Deem and Ramdas Pophale) SiO2 
 PCOD9558183
Probable space group: P -4 B 2
;
_chemical_formula_sum "Si O2"
_cell_formula_units_Z 40
_cell_length_a 19.002048
_cell_length_b 19.002048
_cell_length_c 4.952985
_cell_angle_alpha 90.000000
_cell_angle_beta 90.000000
_cell_angle_gamma 90.000000
_cell_volume 1788.413067
_symmetry_space_group_name_H-M "P -4 B 2"
_symmetry_group_IT_number 117
_symmetry_cell_setting 'tetragonal'
loop_
_space_group_symop_operation_xyz
x,y,z
y,-x,-z
-x,-y,z
-y,x,-z
1/2+y,1/2+x,-z
1/2-y,1/2-x,-z
1/2-x,1/2+y,z
1/2+x,1/2-y,z
loop_
_atom_site_type_symbol
_atom_site_label
_atom_site_fract_x
_atom_site_fract_y
_atom_site_fract_z
Si Si1 0.469633 0.859997 0.502333
Si Si2 0.315739 0.118401 0.731737
Si Si3 0.085023 0.138048 0.260809
Si Si4 0.286841 0.894805 0.993616
Si Si5 0.345441 0.576920 0.774515
O O1 0.439928 0.939928 0.500000
O O2 0.549986 0.848218 0.420237
O O3 0.426609 0.826041 0.261208
O O4 0.443473 0.815214 0.761738
O O5 0.321629 0.178372 0.500000
O O6 0.236379 0.097091 0.812837
O O7 0.357789 0.142212 0.000000
O O8 0.103385 0.206138 0.081450
O O9 0.124905 0.127751 0.541554
O O10 0.002922 0.144941 0.325272
O O11 0.111337 0.078520 0.054185
O O12 0.315400 0.815400 0.000000
#
# Coordination Sequence:
#
# PCOD9558183 Si02
#       5
#     8   8   8   8   8
#     4  10  21  41  70 103 140 191 238 283 344 423
#     4  12  26  45  73 105 150 190 236 297 363 434
#     4  12  26  46  74 103 141 184 235 302 357 436
#     4  10  21  40  71 102 138 185 237 283 345 421
#     4  12  28  46  74 102 139 186 238 293 369 420
#
# _framework density 22.366197
#
# number of rings (size 3 to 8) (size 9 to 14) (size 15 to 20)
#    0.000    0.800    2.000    4.800    2.800    5.200 
#    0.000    1.000    0.000    0.000    0.000    0.000 
#    0.000    0.000    0.000    0.000    0.000    0.000 
#
# Total GULP energy -223419.680228 kJ/mol
# GULP energy per Si atom -5585.492006 kJ/mol
# Density = 2.231529 g / cm^3
# Si number density = 22.366197 Si / 1000 Ang^3
#
#
#
# Elastic Constant Matrix: (Units=GPa)
#
#
# Indices 1 2 3 4 5 6 
#
# 1 37.6439 86.5459 26.8427 0.0000 0.0000 0.0000
# 2 86.5459 37.6443 26.8439 0.0000 0.0000 0.0000
# 3 26.8427 26.8439 154.9032 0.0000 0.0000 0.0000
# 4 0.0000 0.0000 0.0000 30.7001 0.0000 0.0000
# 5 0.0000 0.0000 0.0000 0.0000 30.6998 0.0000
# 6 0.0000 0.0000 0.0000 0.0000 0.0000 22.2505
#
#
#
# Elastic Compliance Matrix: (Units=1/GPa)
#
#
# Indices 1 2 3 4 5 6 
#
# 1 -0.005872 0.014577 -0.001508 0.000000 0.000000 0.000000
# 2 0.014577 -0.005872 -0.001508 0.000000 0.000000 0.000000
# 3 -0.001508 -0.001508 0.006978 0.000000 0.000000 0.000000
# 4 0.000000 0.000000 0.000000 0.032573 0.000000 0.000000
# 5 0.000000 0.000000 0.000000 0.000000 0.032573 0.000000
# 6 0.000000 0.000000 0.000000 0.000000 0.000000 0.044943
#
#
# Mechanical properties :
#
#
# Convention : Reuss Voigt Hill
#
# Bulk Modulus (GPa) = 54.48575 56.73962 55.61268
# Shear Modulus (GPa) = 56.61173 22.72733 39.66953
#
# Velocity S-wave (km/s) = 5.03649 3.19116 4.21603
# Velocity P-wave (km/s) = 7.63121 6.24512 6.97269
#
# Compressibility (1/GPa) = 0.01835342
#
# Stress axis : x y z
#
# Youngs Moduli (GPa) = -170.28634 -170.28624 143.29896
#
# Poissons Ratio (x) = 2.48221 0.21616
# Poissons Ratio (y) = 2.48221 0.21614
# Poissons Ratio (z) = -0.25687 -0.25684
#
# Static dielectric constant tensor:
#      x y z
#    x 1.927370 0.000000 0.000000 
#    y 0.000000 1.927370 0.000000 
#    z 0.000000 0.000000 1.814930 
# 
# From -- ./inp_files/580.got.cif
#   From: 2010.05.17/outbox.cif.g08.bks.cpg/sg117_1_cif.got.tgz:580.got - 2010.05.20 11:15:09.
