data_PCOD9558624
_publ_section_title
;
Structure prediction by ZEFSAII (Michael W. Deem and Ramdas Pophale) SiO2 
 PCOD9558624
Probable space group: P -4 N 2
;
_chemical_formula_sum "Si O2"
_cell_formula_units_Z 48
_cell_length_a 9.237368
_cell_length_b 9.237368
_cell_length_c 30.655261
_cell_angle_alpha 90.000000
_cell_angle_beta 90.000000
_cell_angle_gamma 90.000000
_cell_volume 2615.781772
_symmetry_space_group_name_H-M "P -4 N 2"
_symmetry_group_IT_number 118
_symmetry_cell_setting 'tetragonal'
loop_
_space_group_symop_operation_xyz
x,y,z
y,-x,-z
-x,-y,z
-y,x,-z
1/2+y,1/2+x,1/2-z
1/2-y,1/2-x,1/2-z
1/2-x,1/2+y,1/2+z
1/2+x,1/2-y,1/2+z
loop_
_atom_site_type_symbol
_atom_site_label
_atom_site_fract_x
_atom_site_fract_y
_atom_site_fract_z
Si Si1 0.885437 0.630538 0.199991
Si Si2 0.845231 0.579864 0.529247
Si Si3 0.052222 0.836478 0.134833
Si Si4 0.800579 0.156114 0.391913
Si Si5 0.163586 0.878389 0.625038
Si Si6 0.158302 0.191197 0.059166
O O1 0.843281 0.656719 0.250000
O O2 0.744607 0.601956 0.170734
O O3 0.000000 0.500000 0.199459
O O4 0.969620 0.753174 0.173177
O O5 0.863655 0.707564 0.564407
O O6 0.787009 0.642298 0.483839
O O7 0.723760 0.464415 0.545782
O O8 0.000000 0.500000 0.524394
O O9 0.219025 0.784964 0.134440
O O10 0.992042 0.802978 0.086008
O O11 0.000000 0.000000 0.140725
O O12 0.969222 0.194333 0.399740
O O13 0.827715 0.001464 0.368808
O O14 0.233149 0.757017 0.594629
#
# Coordination Sequence:
#
# PCOD9558624 Si02
#       6
#     8   8   8   8   8   8
#     4  10  21  42  67  95 126 159 207 260 322 394
#     4  12  25  40  58  90 127 171 219 269 314 372
#     4  11  22  40  65  93 124 166 213 262 321 384
#     4  11  22  40  62  89 123 164 213 255 318 377
#     4  10  23  41  63  90 123 168 202 260 322 389
#     4  11  25  38  60  85 122 168 213 265 311 366
#
# _framework density 18.350155999999998
#
# number of rings (size 3 to 8) (size 9 to 14) (size 15 to 20)
#    0.000    1.167    5.000    1.000    4.667    0.000 
#    3.000    1.667    0.000    1.000    0.000    0.000 
#    0.000    0.000    0.000    0.000    0.000    0.000 
#
# Total GULP energy -267542.914451 kJ/mol
# GULP energy per Si atom -5573.810718 kJ/mol
# Density = 1.830839 g / cm^3
# Si number density = 18.350156 Si / 1000 Ang^3
#
#
#
# Elastic Constant Matrix: (Units=GPa)
#
#
# Indices 1 2 3 4 5 6 
#
# 1 90.4497 32.0097 39.6327 0.0000 0.0000 0.0000
# 2 32.0097 90.4494 39.6325 0.0000 0.0000 0.0000
# 3 39.6327 39.6325 119.7387 0.0000 0.0000 0.0000
# 4 0.0000 0.0000 0.0000 -1.9675 0.0000 0.0000
# 5 0.0000 0.0000 0.0000 0.0000 -1.9675 0.0000
# 6 0.0000 0.0000 0.0000 0.0000 0.0000 34.0308
#
#
#
# Elastic Compliance Matrix: (Units=1/GPa)
#
#
# Indices 1 2 3 4 5 6 
#
# 1 0.013752 -0.003360 -0.003440 0.000000 0.000000 0.000000
# 2 -0.003360 0.013752 -0.003440 0.000000 0.000000 0.000000
# 3 -0.003440 -0.003440 0.010629 0.000000 0.000000 0.000000
# 4 0.000000 0.000000 0.000000 -0.508262 0.000000 0.000000
# 5 0.000000 0.000000 0.000000 0.000000 -0.508252 0.000000
# 6 0.000000 0.000000 0.000000 0.000000 0.000000 0.029385
#
#
# Mechanical properties :
#
#
# Convention : Reuss Voigt Hill
#
# Bulk Modulus (GPa) = 56.64341 58.13194 57.38768
# Shear Modulus (GPa) = -5.41928 18.64335 6.61204
#
# Velocity S-wave (km/s) = -1.72037 3.19090 1.90028
# Velocity P-wave (km/s) = 5.19508 6.73230 6.01301
#
# Compressibility (1/GPa) = 0.01765431
#
# Stress axis : x y z
#
# Youngs Moduli (GPa) = 72.71643 72.71630 94.08538
#
# Poissons Ratio (x) = 0.24429 0.32364
# Poissons Ratio (y) = 0.24429 0.32364
# Poissons Ratio (z) = 0.25013 0.25013
#
# Static dielectric constant tensor:
#      x y z
#    x 1.615230 0.000000 0.000000 
#    y 0.000000 1.615230 0.000000 
#    z 0.000000 0.000000 1.597190 
# 
# From -- ./inp_files/6823.got.cif
#   From: 2010.05.17/outbox.cif.g08.bks.cpg/sg118_4_cif.got.tgz:6823.got - 2010.05.20 11:17:24.
