data_PCOD9558447
_publ_section_title
;
Structure prediction by ZEFSAII (Michael W. Deem and Ramdas Pophale) SiO2 
 PCOD9558447
Probable space group: P -4 N 2
;
_chemical_formula_sum "Si O2"
_cell_formula_units_Z 56
_cell_length_a 14.034784
_cell_length_b 14.034784
_cell_length_c 13.082252
_cell_angle_alpha 90.000000
_cell_angle_beta 90.000000
_cell_angle_gamma 90.000000
_cell_volume 2576.878706
_symmetry_space_group_name_H-M "P -4 N 2"
_symmetry_group_IT_number 118
_symmetry_cell_setting 'tetragonal'
loop_
_space_group_symop_operation_xyz
x,y,z
y,-x,-z
-x,-y,z
-y,x,-z
1/2+y,1/2+x,1/2-z
1/2-y,1/2-x,1/2-z
1/2-x,1/2+y,1/2+z
1/2+x,1/2-y,1/2+z
loop_
_atom_site_type_symbol
_atom_site_label
_atom_site_fract_x
_atom_site_fract_y
_atom_site_fract_z
Si Si1 0.112166 0.288803 0.586457
Si Si2 0.306062 0.398578 0.568916
Si Si3 0.956170 0.863553 0.722598
Si Si4 0.540027 0.764872 0.581757
Si Si5 0.732660 0.485848 0.194142
Si Si6 0.657630 0.346376 0.897006
Si Si7 0.159976 0.584445 0.991487
O O1 0.203098 0.354306 0.590546
O O2 0.093819 0.234890 0.691088
O O3 0.121886 0.199866 0.504839
O O4 0.019696 0.348772 0.555556
O O5 0.349666 0.469734 0.655487
O O6 0.373514 0.307767 0.567040
O O7 0.291708 0.450337 0.461551
O O8 0.875064 0.943583 0.705516
O O9 0.048031 0.870166 0.647512
O O10 0.532909 0.786385 0.700953
O O11 0.565745 0.857944 0.517158
O O12 0.722931 0.599434 0.177683
O O13 0.782553 0.434524 0.098134
O O14 0.770152 0.355871 0.916068
#
# Coordination Sequence:
#
# PCOD9558447 Si02
#       7
#     8   8   8   8   8   8   8
#     4  10  20  38  64  93 120 157 206 264 320 376
#     4  11  24  41  61  85 124 173 211 251 310 378
#     4  10  20  35  61  93 126 156 203 258 324 376
#     4  11  24  41  61  85 124 173 211 251 310 378
#     4  10  20  35  61  93 126 156 203 258 324 376
#     4  10  19  34  60  94 123 154 200 263 316 363
#     4  10  20  38  64  93 120 157 206 264 320 376
#
# _framework density 21.731718000000001
#
# number of rings (size 3 to 8) (size 9 to 14) (size 15 to 20)
#    0.000    1.714    2.857    1.286    2.000    3.143 
#    2.571    7.143    0.000    6.857    0.000    0.000 
#    0.000    0.000    0.000    0.000    0.000    0.000 
#
# Total GULP energy -312001.873286 kJ/mol
# GULP energy per Si atom -5571.462023 kJ/mol
# Density = 2.168226 g / cm^3
# Si number density = 21.731718 Si / 1000 Ang^3
#
#
#
# Elastic Constant Matrix: (Units=GPa)
#
#
# Indices 1 2 3 4 5 6 
#
# 1 32.0626 24.4021 14.7846 0.0000 0.0000 0.0000
# 2 24.4021 32.0626 14.7846 0.0000 0.0000 0.0000
# 3 14.7846 14.7846 47.2573 0.0000 0.0000 0.0000
# 4 0.0000 0.0000 0.0000 8.0550 0.0000 0.0000
# 5 0.0000 0.0000 0.0000 0.0000 8.0550 0.0000
# 6 0.0000 0.0000 0.0000 0.0000 0.0000 -25.4376
#
#
#
# Elastic Compliance Matrix: (Units=1/GPa)
#
#
# Indices 1 2 3 4 5 6 
#
# 1 0.075860 -0.054680 -0.006626 0.000000 0.000000 0.000000
# 2 -0.054680 0.075860 -0.006626 0.000000 0.000000 0.000000
# 3 -0.006626 -0.006626 0.025307 0.000000 0.000000 0.000000
# 4 0.000000 0.000000 0.000000 0.124147 0.000000 0.000000
# 5 0.000000 0.000000 0.000000 0.000000 0.124147 0.000000
# 6 0.000000 0.000000 0.000000 0.000000 0.000000 -0.039312
#
#
# Mechanical properties :
#
#
# Convention : Reuss Voigt Hill
#
# Bulk Modulus (GPa) = 24.29420 24.36947 24.33184
# Shear Modulus (GPa) = 9.33544 1.96189 5.64867
#
# Velocity S-wave (km/s) = 2.07487 0.95118 1.61398
# Velocity P-wave (km/s) = 4.11625 3.52767 3.83327
#
# Compressibility (1/GPa) = 0.04116208
#
# Stress axis : x y z
#
# Youngs Moduli (GPa) = 13.18221 13.18221 39.51497
#
# Poissons Ratio (x) = 0.72080 0.26184
# Poissons Ratio (y) = 0.72080 0.26184
# Poissons Ratio (z) = 0.08735 0.08735
#
# Static dielectric constant tensor:
#      x y z
#    x 1.793340 0.000000 0.000000 
#    y 0.000000 1.793340 0.000000 
#    z 0.000000 0.000000 1.810700 
# 
# From -- ./inp_files/3411.got.cif
#   From: 2010.05.17/outbox.cif.g08.bks.cpg/sg118_2_cif.got.tgz:3411.got - 2010.05.20 11:17:24.
