data_PCOD9558717
_publ_section_title
;
Structure prediction by ZEFSAII (Michael W. Deem and Ramdas Pophale) SiO2 
 PCOD9558717
Probable space group: P -4 N 2
;
_chemical_formula_sum "Si O2"
_cell_formula_units_Z 28
_cell_length_a 11.966095
_cell_length_b 11.966095
_cell_length_c 7.105298
_cell_angle_alpha 90.000000
_cell_angle_beta 90.000000
_cell_angle_gamma 90.000000
_cell_volume 1017.389357
_symmetry_space_group_name_H-M "P -4 N 2"
_symmetry_group_IT_number 118
_symmetry_cell_setting 'tetragonal'
loop_
_space_group_symop_operation_xyz
x,y,z
y,-x,-z
-x,-y,z
-y,x,-z
1/2+y,1/2+x,1/2-z
1/2-y,1/2-x,1/2-z
1/2-x,1/2+y,1/2+z
1/2+x,1/2-y,1/2+z
loop_
_atom_site_type_symbol
_atom_site_label
_atom_site_fract_x
_atom_site_fract_y
_atom_site_fract_z
Si Si1 0.739379 0.239379 0.750000
Si Si2 0.862131 0.362131 0.250000
Si Si3 0.500000 0.500000 0.500000
Si Si4 0.500000 0.500000 0.000000
Si Si5 0.249524 0.520164 0.952399
Si Si6 0.293222 0.377266 0.615130
O O1 0.737160 0.360982 0.847601
O O2 0.644592 0.236000 0.586905
O O3 0.958928 0.350986 0.401985
O O4 0.740443 0.355559 0.350173
O O5 0.389206 0.471775 0.610812
O O6 0.499050 0.632565 0.940903
O O7 0.231177 0.421814 0.801974
#
# Coordination Sequence:
#
# PCOD9558717 Si02
#       6
#     4   4   2   2   8   8
#     4  10  24  38  58 105 145 188 252 344 408 474
#     4  10  24  38  58 105 145 188 252 344 408 474
#     4  12  22  36  74 104 130 192 274 332 386 472
#     4  12  22  36  74 104 130 192 274 332 386 472
#     4  11  22  39  62  99 145 189 253 341 403 465
#     4  11  22  39  62  99 145 189 253 341 403 465
#
# _framework density 27.521419000000002
#
# number of rings (size 3 to 8) (size 9 to 14) (size 15 to 20)
#    0.000    1.143    5.714    0.857    0.000    0.000 
#    0.000    0.000    0.000    0.857    0.000    4.000 
#    0.000    0.000    0.000    0.000    0.000   31.143 
#
# Total GULP energy -156328.176115 kJ/mol
# GULP energy per Si atom -5583.149147 kJ/mol
# Density = 2.745878 g / cm^3
# Si number density = 27.521419 Si / 1000 Ang^3
#
#
#
# Elastic Constant Matrix: (Units=GPa)
#
#
# Indices 1 2 3 4 5 6 
#
# 1 65.6884 72.2230 60.4091 0.0000 0.0000 0.0000
# 2 72.2230 65.6884 60.4091 0.0000 0.0000 0.0000
# 3 60.4091 60.4091 184.4420 0.0000 0.0000 0.0000
# 4 0.0000 0.0000 0.0000 54.6856 0.0000 0.0000
# 5 0.0000 0.0000 0.0000 0.0000 54.6856 0.0000
# 6 0.0000 0.0000 0.0000 0.0000 0.0000 54.0357
#
#
#
# Elastic Compliance Matrix: (Units=1/GPa)
#
#
# Indices 1 2 3 4 5 6 
#
# 1 -0.071431 0.081600 -0.003330 0.000000 0.000000 0.000000
# 2 0.081600 -0.071431 -0.003330 0.000000 0.000000 0.000000
# 3 -0.003330 -0.003330 0.007603 0.000000 0.000000 0.000000
# 4 0.000000 0.000000 0.000000 0.018286 0.000000 0.000000
# 5 0.000000 0.000000 0.000000 0.000000 0.018286 0.000000
# 6 0.000000 0.000000 0.000000 0.000000 0.000000 0.018506
#
#
# Mechanical properties :
#
#
# Convention : Reuss Voigt Hill
#
# Bulk Modulus (GPa) = 68.40474 77.98900 73.19687
# Shear Modulus (GPa) = -22.20399 40.86657 9.33129
#
# Velocity S-wave (km/s) = -2.84349 3.85762 1.84334
# Velocity P-wave (km/s) = 3.75879 6.94556 5.58432
#
# Compressibility (1/GPa) = 0.01461887
#
# Stress axis : x y z
#
# Youngs Moduli (GPa) = -13.99950 -13.99950 131.52030
#
# Poissons Ratio (x) = 1.14236 0.43803
# Poissons Ratio (y) = 1.14236 0.43803
# Poissons Ratio (z) = -0.04663 -0.04663
#
# Static dielectric constant tensor:
#      x y z
#    x 2.116590 0.000000 0.000000 
#    y 0.000000 2.116590 0.000000 
#    z 0.000000 0.000000 2.588650 
# 
# From -- ./inp_files/1466.got.cif
#   From: 2010.05.17/outbox.cif.g08.bks.cpg/sg118_1_cif.got.tgz:1466.got - 2010.05.20 11:17:24.
