data_PCOD9558837
_publ_section_title
;
Structure prediction by ZEFSAII (Michael W. Deem and Ramdas Pophale) SiO2 
 PCOD9558837
Probable space group: P -4 N 2
;
_chemical_formula_sum "Si O2"
_cell_formula_units_Z 24
_cell_length_a 11.261276
_cell_length_b 11.261276
_cell_length_c 7.356385
_cell_angle_alpha 90.000000
_cell_angle_beta 90.000000
_cell_angle_gamma 90.000000
_cell_volume 932.909800
_symmetry_space_group_name_H-M "P -4 N 2"
_symmetry_group_IT_number 118
_symmetry_cell_setting 'tetragonal'
loop_
_space_group_symop_operation_xyz
x,y,z
y,-x,-z
-x,-y,z
-y,x,-z
1/2+y,1/2+x,1/2-z
1/2-y,1/2-x,1/2-z
1/2-x,1/2+y,1/2+z
1/2+x,1/2-y,1/2+z
loop_
_atom_site_type_symbol
_atom_site_label
_atom_site_fract_x
_atom_site_fract_y
_atom_site_fract_z
Si Si1 0.278288 0.581386 0.797488
Si Si2 0.478948 0.738696 0.821733
Si Si3 0.953338 0.633975 0.980789
O O1 0.181709 0.681709 0.750000
O O2 0.407193 0.627457 0.741593
O O3 0.221920 0.470094 0.688402
O O4 0.290626 0.565193 0.013835
O O5 0.385561 0.824971 0.929500
O O6 0.526852 0.809486 0.648276
O O7 0.000000 0.500000 0.946119
#
# Coordination Sequence:
#
# PCOD9558837 Si02
#       3
#     8   8   8
#     4  12  25  43  71 100 141 185 228 297 359 413
#     4  11  25  45  68 106 141 183 240 287 354 424
#     4  11  23  42  72 105 135 176 242 298 339 412
#
# _framework density 25.725959
#
# number of rings (size 3 to 8) (size 9 to 14) (size 15 to 20)
#    0.000    0.667    6.667    3.000    0.000    3.333 
#    6.000    0.000    0.000    0.000    0.000    0.000 
#    0.000    0.000    0.000    0.000    0.000    0.000 
#
# Total GULP energy -134104.333007 kJ/mol
# GULP energy per Si atom -5587.680542 kJ/mol
# Density = 2.566741 g / cm^3
# Si number density = 25.725959 Si / 1000 Ang^3
#
#
#
# Elastic Constant Matrix: (Units=GPa)
#
#
# Indices 1 2 3 4 5 6 
#
# 1 43.4683 39.9533 20.3511 0.0000 0.0000 0.0000
# 2 39.9533 43.4683 20.3511 0.0000 0.0000 0.0000
# 3 20.3511 20.3511 160.9498 0.0000 0.0000 0.0000
# 4 0.0000 0.0000 0.0000 32.0802 0.0000 0.0000
# 5 0.0000 0.0000 0.0000 0.0000 32.0802 0.0000
# 6 0.0000 0.0000 0.0000 0.0000 0.0000 41.5232
#
#
#
# Elastic Compliance Matrix: (Units=1/GPa)
#
#
# Indices 1 2 3 4 5 6 
#
# 1 0.148637 -0.135862 -0.001615 0.000000 0.000000 0.000000
# 2 -0.135862 0.148637 -0.001615 0.000000 0.000000 0.000000
# 3 -0.001615 -0.001615 0.006622 0.000000 0.000000 0.000000
# 4 0.000000 0.000000 0.000000 0.031172 0.000000 0.000000
# 5 0.000000 0.000000 0.000000 0.000000 0.031172 0.000000
# 6 0.000000 0.000000 0.000000 0.000000 0.000000 0.024083
#
#
# Mechanical properties :
#
#
# Convention : Reuss Voigt Hill
#
# Bulk Modulus (GPa) = 38.89379 45.46637 42.18008
# Shear Modulus (GPa) = 7.38467 32.28546 19.83506
#
# Velocity S-wave (km/s) = 1.69610 3.54641 2.77973
# Velocity P-wave (km/s) = 4.35741 5.87206 5.17049
#
# Compressibility (1/GPa) = 0.02571104
#
# Stress axis : x y z
#
# Youngs Moduli (GPa) = 6.72778 6.72778 151.02034
#
# Poissons Ratio (x) = 0.91405 0.24395
# Poissons Ratio (y) = 0.91405 0.24395
# Poissons Ratio (z) = 0.01087 0.01087
#
# Static dielectric constant tensor:
#      x y z
#    x 2.082860 0.000000 0.000000 
#    y 0.000000 2.082860 0.000000 
#    z 0.000000 0.000000 2.071710 
# 
# From -- ./inp_files/1379.got.cif
#   From: 2010.05.17/outbox.cif.g08.bks.cpg/sg118_1_cif.got.tgz:1379.got - 2010.05.20 11:17:24.
