data_PCOD9558258
_publ_section_title
;
Structure prediction by ZEFSAII (Michael W. Deem and Ramdas Pophale) SiO2 
 PCOD9558258
Probable space group: P -4 B 2
;
_chemical_formula_sum "Si O2"
_cell_formula_units_Z 40
_cell_length_a 9.418273
_cell_length_b 9.418273
_cell_length_c 20.355982
_cell_angle_alpha 90.000000
_cell_angle_beta 90.000000
_cell_angle_gamma 90.000000
_cell_volume 1805.654306
_symmetry_space_group_name_H-M "P -4 B 2"
_symmetry_group_IT_number 117
_symmetry_cell_setting 'tetragonal'
loop_
_space_group_symop_operation_xyz
x,y,z
y,-x,-z
-x,-y,z
-y,x,-z
1/2+y,1/2+x,-z
1/2-y,1/2-x,-z
1/2-x,1/2+y,z
1/2+x,1/2-y,z
loop_
_atom_site_type_symbol
_atom_site_label
_atom_site_fract_x
_atom_site_fract_y
_atom_site_fract_z
Si Si1 0.155204 0.997519 0.335357
Si Si2 0.921146 0.801160 0.974597
Si Si3 0.752183 0.749231 0.756263
Si Si4 0.497944 0.847060 0.846751
Si Si5 0.780825 0.060248 0.475877
O O1 0.183493 0.142272 0.296030
O O2 0.159571 0.865403 0.285094
O O3 0.249351 0.973376 0.399114
O O4 0.000000 0.000000 0.365140
O O5 0.974555 0.772142 0.901275
O O6 0.827307 0.672694 0.000000
O O7 0.056667 0.828252 0.020485
O O8 0.643697 0.821042 0.807526
O O9 0.862677 0.653245 0.797541
O O10 0.500000 0.000000 0.880099
O O11 0.641401 0.141401 0.500000
O O12 0.914187 0.168862 0.488765
#
# Coordination Sequence:
#
# PCOD9558258 Si02
#       5
#     8   8   8   8   8
#     4  11  21  41  67  96 138 177 234 288 345 417
#     4  11  27  47  72 105 140 186 236 289 354 423
#     4  10  24  42  67 104 131 185 226 291 347 416
#     4  11  24  45  70 100 143 179 235 287 350 420
#     4  11  23  42  66  97 136 184 231 286 350 408
#
# _framework density 22.152633999999999
#
# number of rings (size 3 to 8) (size 9 to 14) (size 15 to 20)
#    0.000    1.200    2.000    3.600    5.600    0.400 
#   14.400    0.000    0.000    0.000    0.000    0.000 
#    0.000    0.000    0.000    0.000    0.000    0.000 
#
# Total GULP energy -223369.000448 kJ/mol
# GULP energy per Si atom -5584.225011 kJ/mol
# Density = 2.210221 g / cm^3
# Si number density = 22.152634 Si / 1000 Ang^3
#
#
#
# Elastic Constant Matrix: (Units=GPa)
#
#
# Indices 1 2 3 4 5 6 
#
# 1 89.7422 25.3201 33.1447 0.0000 0.0000 0.0000
# 2 25.3201 89.7455 33.1420 0.0000 0.0000 0.0000
# 3 33.1447 33.1420 77.6352 0.0000 0.0000 0.0000
# 4 0.0000 0.0000 0.0000 33.6424 0.0000 0.0000
# 5 0.0000 0.0000 0.0000 0.0000 33.6405 0.0000
# 6 0.0000 0.0000 0.0000 0.0000 0.0000 20.4860
#
#
#
# Elastic Compliance Matrix: (Units=1/GPa)
#
#
# Indices 1 2 3 4 5 6 
#
# 1 0.013524 -0.001998 -0.004921 0.000000 0.000000 0.000000
# 2 -0.001998 0.013523 -0.004920 0.000000 0.000000 0.000000
# 3 -0.004921 -0.004920 0.017082 0.000000 0.000000 0.000000
# 4 0.000000 0.000000 0.000000 0.029724 0.000000 0.000000
# 5 0.000000 0.000000 0.000000 0.000000 0.029726 0.000000
# 6 0.000000 0.000000 0.000000 0.000000 0.000000 0.048814
#
#
# Mechanical properties :
#
#
# Convention : Reuss Voigt Hill
#
# Bulk Modulus (GPa) = 48.89666 48.92628 48.91147
# Shear Modulus (GPa) = 27.33903 28.58820 27.96362
#
# Velocity S-wave (km/s) = 3.51682 3.59626 3.55676
# Velocity P-wave (km/s) = 6.21379 6.27520 6.24457
#
# Compressibility (1/GPa) = 0.02045130
#
# Stress axis : x y z
#
# Youngs Moduli (GPa) = 73.94109 73.94660 58.54181
#
# Poissons Ratio (x) = 0.14778 0.28807
# Poissons Ratio (y) = 0.14777 0.28801
# Poissons Ratio (z) = 0.36385 0.36380
#
# Static dielectric constant tensor:
#      x y z
#    x 1.779280 0.000000 0.000000 
#    y 0.000000 1.779290 0.000000 
#    z 0.000000 0.000000 1.796060 
# 
# From -- ./inp_files/3531.got.cif
#   From: 2010.05.17/outbox.cif.g08.bks.cpg/sg117_2_cif.got.tgz:3531.got - 2010.05.20 11:15:09.
