data_PCOD9558386
_publ_section_title
;
Structure prediction by ZEFSAII (Michael W. Deem and Ramdas Pophale) SiO2 
 PCOD9558386
Probable space group: P -4 N 2
;
_chemical_formula_sum "Si O2"
_cell_formula_units_Z 40
_cell_length_a 12.489416
_cell_length_b 12.489416
_cell_length_c 14.295356
_cell_angle_alpha 90.000000
_cell_angle_beta 90.000000
_cell_angle_gamma 90.000000
_cell_volume 2229.868425
_symmetry_space_group_name_H-M "P -4 N 2"
_symmetry_group_IT_number 118
_symmetry_cell_setting 'tetragonal'
loop_
_space_group_symop_operation_xyz
x,y,z
y,-x,-z
-x,-y,z
-y,x,-z
1/2+y,1/2+x,1/2-z
1/2-y,1/2-x,1/2-z
1/2-x,1/2+y,1/2+z
1/2+x,1/2-y,1/2+z
loop_
_atom_site_type_symbol
_atom_site_label
_atom_site_fract_x
_atom_site_fract_y
_atom_site_fract_z
Si Si1 0.965845 0.609076 0.853450
Si Si2 0.151183 0.097852 0.498311
Si Si3 0.716941 0.801351 0.144899
Si Si4 0.253068 0.761252 0.138662
Si Si5 0.384525 0.367757 0.503604
O O1 0.925829 0.574172 0.750000
O O2 0.863233 0.672459 0.890455
O O3 0.000000 0.500000 0.905239
O O4 0.076105 0.674334 0.846749
O O5 0.224896 0.133252 0.410071
O O6 0.202836 0.156234 0.587986
O O7 0.029733 0.141990 0.489654
O O8 0.736987 0.763014 0.250000
O O9 0.820528 0.811957 0.079333
O O10 0.251558 0.751558 0.250000
O O11 0.140305 0.794633 0.093438
O O12 0.360936 0.491301 0.522938
#
# Coordination Sequence:
#
# PCOD9558386 Si02
#       5
#     8   8   8   8   8
#     4  10  17  29  53  82 106 134 185 233 273 315
#     4  10  23  39  56  84 118 150 186 232 288 343
#     4  11  21  36  58  87 113 148 193 237 280 337
#     4  10  21  36  58  81 110 150 190 227 278 337
#     4  10  21  37  56  84 118 148 184 232 288 343
#
# _framework density 17.938278
#
# number of rings (size 3 to 8) (size 9 to 14) (size 15 to 20)
#    0.000    1.800    4.000    1.200    2.800    1.600 
#    0.000    4.000    0.000    0.000    0.000    5.600 
#    0.000    0.000    0.000    0.000    0.000    0.000 
#
# Total GULP energy -222839.989014 kJ/mol
# GULP energy per Si atom -5570.999725 kJ/mol
# Density = 1.789745 g / cm^3
# Si number density = 17.938278 Si / 1000 Ang^3
#
#
#
# Elastic Constant Matrix: (Units=GPa)
#
#
# Indices 1 2 3 4 5 6 
#
# 1 42.1053 45.4430 31.2292 0.0000 0.0000 0.0000
# 2 45.4430 42.1057 31.2294 0.0000 0.0000 0.0000
# 3 31.2292 31.2294 119.5710 0.0000 0.0000 0.0000
# 4 0.0000 0.0000 0.0000 16.7573 0.0000 0.0000
# 5 0.0000 0.0000 0.0000 0.0000 16.7573 0.0000
# 6 0.0000 0.0000 0.0000 0.0000 0.0000 32.7417
#
#
#
# Elastic Compliance Matrix: (Units=1/GPa)
#
#
# Indices 1 2 3 4 5 6 
#
# 1 -0.142795 0.156833 -0.003667 0.000000 0.000000 0.000000
# 2 0.156833 -0.142794 -0.003666 0.000000 0.000000 0.000000
# 3 -0.003667 -0.003666 0.010278 0.000000 0.000000 0.000000
# 4 0.000000 0.000000 0.000000 0.059676 0.000000 0.000000
# 5 0.000000 0.000000 0.000000 0.000000 0.059676 0.000000
# 6 0.000000 0.000000 0.000000 0.000000 0.000000 0.030542
#
#
# Mechanical properties :
#
#
# Convention : Reuss Voigt Hill
#
# Bulk Modulus (GPa) = 42.21431 46.62056 44.41744
# Shear Modulus (GPa) = -12.00418 19.64328 3.81955
#
# Velocity S-wave (km/s) = -2.58968 3.31274 1.46079
# Velocity P-wave (km/s) = 3.82652 6.37795 5.25930
#
# Compressibility (1/GPa) = 0.02368865
#
# Stress axis : x y z
#
# Youngs Moduli (GPa) = -7.00303 -7.00309 97.29147
#
# Poissons Ratio (x) = 1.09831 0.35672
# Poissons Ratio (y) = 1.09830 0.35669
# Poissons Ratio (z) = -0.02568 -0.02567
#
# Static dielectric constant tensor:
#      x y z
#    x 1.642240 0.000000 0.000000 
#    y 0.000000 1.642240 0.000000 
#    z 0.000000 0.000000 1.613750 
# 
# From -- ./inp_files/4046.got.cif
#   From: 2010.05.17/outbox.cif.g08.bks.cpg/sg118_3_cif.got.tgz:4046.got - 2010.05.20 11:17:24.
