data_PCOD9558265
_publ_section_title
;
Structure prediction by ZEFSAII (Michael W. Deem and Ramdas Pophale) SiO2 
 PCOD9558265
Probable space group: P -4 B 2
;
_chemical_formula_sum "Si O2"
_cell_formula_units_Z 34
_cell_length_a 8.918611
_cell_length_b 8.918611
_cell_length_c 19.133373
_cell_angle_alpha 90.000000
_cell_angle_beta 90.000000
_cell_angle_gamma 90.000000
_cell_volume 1521.899526
_symmetry_space_group_name_H-M "P -4 B 2"
_symmetry_group_IT_number 117
_symmetry_cell_setting 'tetragonal'
loop_
_space_group_symop_operation_xyz
x,y,z
y,-x,-z
-x,-y,z
-y,x,-z
1/2+y,1/2+x,-z
1/2-y,1/2-x,-z
1/2-x,1/2+y,z
1/2+x,1/2-y,z
loop_
_atom_site_type_symbol
_atom_site_label
_atom_site_fract_x
_atom_site_fract_y
_atom_site_fract_z
Si Si1 0.000000 0.000000 0.000000
Si Si2 0.109487 0.628401 0.785998
Si Si3 0.383593 0.863706 0.420439
Si Si4 0.139843 0.903312 0.133646
Si Si5 0.590078 0.646192 0.333677
O O1 0.869669 0.063871 0.050658
O O2 0.230161 0.612166 0.848926
O O3 0.230127 0.647125 0.723036
O O4 0.000000 0.500000 0.758848
O O5 0.981736 0.730863 0.822078
O O6 0.333473 0.833473 0.500000
O O7 0.473718 0.727553 0.385501
O O8 0.238319 0.902304 0.374855
O O9 0.500000 0.000000 0.421548
O O10 0.000000 0.000000 0.158333
O O11 0.500000 0.500000 0.306589
#
# Coordination Sequence:
#
# PCOD9558265 Si02
#       5
#     2   8   8   8   8
#     4   8  24  48  72 112 156 196 242 308 384 456
#     4  12  27  47  76 112 149 200 255 320 383 448
#     4  11  28  49  74 108 152 204 260 319 398 467
#     4  10  24  48  74 106 154 195 252 309 374 459
#     4  12  29  47  78 112 154 203 260 324 390 465
#
# _framework density 22.340503999999999
#
# number of rings (size 3 to 8) (size 9 to 14) (size 15 to 20)
#    0.706    0.235    0.000    4.235   19.765    0.941 
#    0.000    1.176    0.000    0.000    0.000    0.000 
#    0.000    0.000    0.000    0.000    0.000    0.000 
#
# Total GULP energy -189454.976906 kJ/mol
# GULP energy per Si atom -5572.205203 kJ/mol
# Density = 2.228966 g / cm^3
# Si number density = 22.340504 Si / 1000 Ang^3
#
#
#
# Elastic Constant Matrix: (Units=GPa)
#
#
# Indices 1 2 3 4 5 6 
#
# 1 94.2812 12.4150 33.4441 0.0000 0.0000 0.0000
# 2 12.4150 94.2812 33.4441 0.0000 0.0000 0.0000
# 3 33.4441 33.4441 157.1012 0.0000 0.0000 0.0000
# 4 0.0000 0.0000 0.0000 142.9240 0.0000 0.0000
# 5 0.0000 0.0000 0.0000 0.0000 142.9240 0.0000
# 6 0.0000 0.0000 0.0000 0.0000 0.0000 35.5927
#
#
#
# Elastic Compliance Matrix: (Units=1/GPa)
#
#
# Indices 1 2 3 4 5 6 
#
# 1 0.011515 -0.000700 -0.002303 0.000000 0.000000 0.000000
# 2 -0.000700 0.011515 -0.002303 0.000000 0.000000 0.000000
# 3 -0.002303 -0.002303 0.007346 0.000000 0.000000 0.000000
# 4 0.000000 0.000000 0.000000 0.006997 0.000000 0.000000
# 5 0.000000 0.000000 0.000000 0.000000 0.006997 0.000000
# 6 0.000000 0.000000 0.000000 0.000000 0.000000 0.028096
#
#
# Mechanical properties :
#
#
# Convention : Reuss Voigt Hill
#
# Bulk Modulus (GPa) = 50.58848 56.02998 53.30923
# Shear Modulus (GPa) = 55.76375 82.04550 68.90463
#
# Velocity S-wave (km/s) = 5.00150 6.06669 5.55966
# Velocity P-wave (km/s) = 7.48644 8.61437 8.07014
#
# Compressibility (1/GPa) = 0.01976735
#
# Stress axis : x y z
#
# Youngs Moduli (GPa) = 86.83979 86.83979 136.13494
#
# Poissons Ratio (x) = 0.06075 0.31345
# Poissons Ratio (y) = 0.06075 0.31345
# Poissons Ratio (z) = 0.19995 0.19995
#
# Static dielectric constant tensor:
#      x y z
#    x 1.467230 0.000000 0.000000 
#    y 0.000000 1.467230 0.000000 
#    z 0.000000 0.000000 1.882310 
# 
# From -- ./inp_files/3433.got.cif
#   From: 2010.05.17/outbox.cif.g08.bks.cpg/sg117_2_cif.got.tgz:3433.got - 2010.05.20 11:15:09.
