data_PCOD9558352
_publ_section_title
;
Structure prediction by ZEFSAII (Michael W. Deem and Ramdas Pophale) SiO2 
 PCOD9558352
Probable space group: P -4 B 2
;
_chemical_formula_sum "Si O2"
_cell_formula_units_Z 20
_cell_length_a 8.607231
_cell_length_b 8.607231
_cell_length_c 9.992045
_cell_angle_alpha 90.000000
_cell_angle_beta 90.000000
_cell_angle_gamma 90.000000
_cell_volume 740.254913
_symmetry_space_group_name_H-M "P -4 B 2"
_symmetry_group_IT_number 117
_symmetry_cell_setting 'tetragonal'
loop_
_space_group_symop_operation_xyz
x,y,z
y,-x,-z
-x,-y,z
-y,x,-z
1/2+y,1/2+x,-z
1/2-y,1/2-x,-z
1/2-x,1/2+y,z
1/2+x,1/2-y,z
loop_
_atom_site_type_symbol
_atom_site_label
_atom_site_fract_x
_atom_site_fract_y
_atom_site_fract_z
Si Si1 0.500000 0.500000 0.000000
Si Si2 0.820039 0.506953 0.672802
Si Si3 0.198470 0.763791 0.858519
Si Si4 0.500000 0.500000 0.500000
O O1 0.365219 0.547786 0.104985
O O2 0.825313 0.411691 0.813681
O O3 0.783197 0.676580 0.727167
O O4 0.666680 0.476496 0.579551
O O5 0.000000 0.500000 0.626937
O O6 0.280647 0.780647 0.000000
#
# Coordination Sequence:
#
# PCOD9558352 Si02
#       4
#     2   8   8   2
#     4  12  22  44  84 134 184 218 284 368 466 556
#     4  12  31  57  86 129 172 236 299 368 448 535
#     4  12  26  50  88 131 175 223 288 376 464 535
#     4  12  34  68  86 124 184 250 312 362 432 552
#
# _framework density 27.017721999999999
#
# number of rings (size 3 to 8) (size 9 to 14) (size 15 to 20)
#    0.000    0.000    4.000    3.600    5.600    1.600 
#    7.200    0.000    0.000    0.000    0.000    0.000 
#    0.000    0.000    0.000    0.000    0.000    0.000 
#
# Total GULP energy -111378.756423 kJ/mol
# GULP energy per Si atom -5568.937821 kJ/mol
# Density = 2.695623 g / cm^3
# Si number density = 27.017722 Si / 1000 Ang^3
#
#
#
# Elastic Constant Matrix: (Units=GPa)
#
#
# Indices 1 2 3 4 5 6 
#
# 1 152.6304 27.8371 65.9379 0.0000 0.0000 0.0000
# 2 27.8371 152.6304 65.9379 0.0000 0.0000 0.0000
# 3 65.9379 65.9379 150.2770 0.0000 0.0000 0.0000
# 4 0.0000 0.0000 0.0000 33.2022 0.0000 0.0000
# 5 0.0000 0.0000 0.0000 0.0000 33.2022 0.0000
# 6 0.0000 0.0000 0.0000 0.0000 0.0000 8.8512
#
#
#
# Elastic Compliance Matrix: (Units=1/GPa)
#
#
# Indices 1 2 3 4 5 6 
#
# 1 0.008085 0.000072 -0.003579 0.000000 0.000000 0.000000
# 2 0.000072 0.008085 -0.003579 0.000000 0.000000 0.000000
# 3 -0.003579 -0.003579 0.009795 0.000000 0.000000 0.000000
# 4 0.000000 0.000000 0.000000 0.030118 0.000000 0.000000
# 5 0.000000 0.000000 0.000000 0.000000 0.030118 0.000000
# 6 0.000000 0.000000 0.000000 0.000000 0.000000 0.112979
#
#
# Mechanical properties :
#
#
# Convention : Reuss Voigt Hill
#
# Bulk Modulus (GPa) = 84.80005 86.10705 85.45355
# Shear Modulus (GPa) = 23.01140 34.77278 28.89209
#
# Velocity S-wave (km/s) = 2.92158 3.59142 3.27368
# Velocity P-wave (km/s) = 6.54491 7.00981 6.78135
#
# Compressibility (1/GPa) = 0.01179245
#
# Stress axis : x y z
#
# Youngs Moduli (GPa) = 123.68875 123.68875 102.09316
#
# Poissons Ratio (x) = -0.00885 0.36537
# Poissons Ratio (y) = -0.00885 0.36537
# Poissons Ratio (z) = 0.44266 0.44266
#
# Static dielectric constant tensor:
#      x y z
#    x 1.993100 0.000000 0.000000 
#    y 0.000000 1.993100 0.000000 
#    z 0.000000 0.000000 2.010020 
# 
# From -- ./inp_files/2201.got.cif
#   From: 2010.05.17/outbox.cif.g08.bks.cpg/sg117_2_cif.got.tgz:2201.got - 2010.05.20 11:15:09.
