data_PCOD9558842
_publ_section_title
;
Structure prediction by ZEFSAII (Michael W. Deem and Ramdas Pophale) SiO2 
 PCOD9558842
Probable space group: P -4 N 2
;
_chemical_formula_sum "Si O2"
_cell_formula_units_Z 48
_cell_length_a 8.837483
_cell_length_b 8.837483
_cell_length_c 26.373718
_cell_angle_alpha 90.000000
_cell_angle_beta 90.000000
_cell_angle_gamma 90.000000
_cell_volume 2059.816539
_symmetry_space_group_name_H-M "P -4 N 2"
_symmetry_group_IT_number 118
_symmetry_cell_setting 'tetragonal'
loop_
_space_group_symop_operation_xyz
x,y,z
y,-x,-z
-x,-y,z
-y,x,-z
1/2+y,1/2+x,1/2-z
1/2-y,1/2-x,1/2-z
1/2-x,1/2+y,1/2+z
1/2+x,1/2-y,1/2+z
loop_
_atom_site_type_symbol
_atom_site_label
_atom_site_fract_x
_atom_site_fract_y
_atom_site_fract_z
Si Si1 0.907888 0.359862 0.034732
Si Si2 0.611266 0.777737 0.341715
Si Si3 0.632572 0.371160 0.557343
Si Si4 0.331460 0.534167 0.118312
Si Si5 0.365695 0.883672 0.810798
Si Si6 0.692045 0.115985 0.307144
O O1 0.773553 0.412697 0.071639
O O2 0.000000 0.500000 0.010041
O O3 0.038451 0.280510 0.067763
O O4 0.864500 0.226467 0.995354
O O5 0.622099 0.765331 0.401948
O O6 0.685164 0.623660 0.319588
O O7 0.432904 0.784664 0.334716
O O8 0.659783 0.935407 0.313625
O O9 0.500000 0.500000 0.559852
O O10 0.500000 0.500000 0.099021
O O11 0.257444 0.400718 0.151627
O O12 0.349806 0.656903 0.162822
O O13 0.375170 0.875170 0.750000
O O14 0.500000 0.000000 0.825306
O O15 0.674399 0.174399 0.250000
#
# Coordination Sequence:
#
# PCOD9558842 Si02
#       6
#     8   8   8   8   8   8
#     4  12  27  49  76 106 153 197 253 323 395 461
#     4  11  23  43  74 105 154 192 251 318 389 453
#     4  12  25  50  77 110 145 197 258 320 389 479
#     4  12  26  48  74 111 153 196 259 319 387 473
#     4  11  24  45  71 103 155 205 248 306 383 454
#     4  11  25  43  74 111 149 199 253 316 381 459
#
# _framework density 23.303048
#
# number of rings (size 3 to 8) (size 9 to 14) (size 15 to 20)
#    0.000    0.500    3.333    5.500    4.667    0.000 
#    0.000    0.000    3.667    0.000    0.000    0.000 
#    0.000    0.000    0.000    0.000    0.000    0.000 
#
# Total GULP energy -267420.681730 kJ/mol
# GULP energy per Si atom -5571.264203 kJ/mol
# Density = 2.325001 g / cm^3
# Si number density = 23.303048 Si / 1000 Ang^3
#
#
#
# Elastic Constant Matrix: (Units=GPa)
#
#
# Indices 1 2 3 4 5 6 
#
# 1 -11.0368 153.3193 39.9522 0.0000 0.0000 0.0000
# 2 153.3193 -11.0368 39.9522 0.0000 0.0000 0.0000
# 3 39.9522 39.9522 115.5214 0.0000 0.0000 0.0000
# 4 0.0000 0.0000 0.0000 20.3330 0.0000 0.0000
# 5 0.0000 0.0000 0.0000 0.0000 20.3330 0.0000
# 6 0.0000 0.0000 0.0000 0.0000 0.0000 53.9520
#
#
#
# Elastic Compliance Matrix: (Units=1/GPa)
#
#
# Indices 1 2 3 4 5 6 
#
# 1 0.001319 0.007403 -0.003017 0.000000 0.000000 0.000000
# 2 0.007403 0.001319 -0.003017 0.000000 0.000000 0.000000
# 3 -0.003017 -0.003017 0.010743 0.000000 0.000000 0.000000
# 4 0.000000 0.000000 0.000000 0.049181 0.000000 0.000000
# 5 0.000000 0.000000 0.000000 0.000000 0.049181 0.000000
# 6 0.000000 0.000000 0.000000 0.000000 0.000000 0.018535
#
#
# Mechanical properties :
#
#
# Convention : Reuss Voigt Hill
#
# Bulk Modulus (GPa) = 62.02947 62.21057 62.12002
# Shear Modulus (GPa) = 37.61896 9.60518 23.61207
#
# Velocity S-wave (km/s) = 4.02224 2.03244 3.18663
# Velocity P-wave (km/s) = 6.94605 5.67997 6.34467
#
# Compressibility (1/GPa) = 0.01612137
#
# Stress axis : x y z
#
# Youngs Moduli (GPa) = 758.15136 758.15136 93.08462
#
# Poissons Ratio (x) = -5.61286 0.28080
# Poissons Ratio (y) = -5.61286 0.28080
# Poissons Ratio (z) = 2.28701 2.28701
#
# Static dielectric constant tensor:
#      x y z
#    x 1.946720 0.000000 0.000000 
#    y 0.000000 1.946720 0.000000 
#    z 0.000000 0.000000 11.577380 
# 
# From -- ./inp_files/6857.got.cif
#   From: 2010.05.17/outbox.cif.g08.bks.cpg/sg118_4_cif.got.tgz:6857.got - 2010.05.20 11:17:24.
