data_PCOD9558831
_publ_section_title
;
Structure prediction by ZEFSAII (Michael W. Deem and Ramdas Pophale) SiO2 
 PCOD9558831
Probable space group: P -4 N 2
;
_chemical_formula_sum "Si O2"
_cell_formula_units_Z 28
_cell_length_a 7.753880
_cell_length_b 7.753880
_cell_length_c 18.154626
_cell_angle_alpha 90.000000
_cell_angle_beta 90.000000
_cell_angle_gamma 90.000000
_cell_volume 1091.504317
_symmetry_space_group_name_H-M "P -4 N 2"
_symmetry_group_IT_number 118
_symmetry_cell_setting 'tetragonal'
loop_
_space_group_symop_operation_xyz
x,y,z
y,-x,-z
-x,-y,z
-y,x,-z
1/2+y,1/2+x,1/2-z
1/2-y,1/2-x,1/2-z
1/2-x,1/2+y,1/2+z
1/2+x,1/2-y,1/2+z
loop_
_atom_site_type_symbol
_atom_site_label
_atom_site_fract_x
_atom_site_fract_y
_atom_site_fract_z
Si Si1 0.831231 0.194110 0.677040
Si Si2 0.364834 0.149899 0.864577
Si Si3 0.179224 0.320777 0.750000
Si Si4 0.841597 0.238816 0.515180
O O1 0.715430 0.215430 0.750000
O O2 0.786841 0.281929 0.598140
O O3 0.005071 0.287246 0.705484
O O4 0.814469 0.993185 0.651426
O O5 0.208085 0.169154 0.809289
O O6 0.500000 0.000000 0.850713
O O7 0.298863 0.137321 0.947700
O O8 0.050749 0.226293 0.510754
#
# Coordination Sequence:
#
# PCOD9558831 Si02
#       4
#     8   8   4   8
#     4  11  23  40  64  98 132 168 225 278 340 399
#     4  11  23  40  65  93 128 176 225 271 334 413
#     4  12  22  38  62  94 130 170 220 282 334 390
#     4   9  18  39  64  90 124 174 218 261 324 405
#
# _framework density 25.652671999999999
#
# number of rings (size 3 to 8) (size 9 to 14) (size 15 to 20)
#    0.000    1.429    2.857    3.429    0.000    2.286 
#    0.000    0.000    0.000    0.000    0.000    0.000 
#    0.000    0.000    0.000    0.000    0.000    0.000 
#
# Total GULP energy -156212.451336 kJ/mol
# GULP energy per Si atom -5579.016119 kJ/mol
# Density = 2.559429 g / cm^3
# Si number density = 25.652672 Si / 1000 Ang^3
#
#
#
# Elastic Constant Matrix: (Units=GPa)
#
#
# Indices 1 2 3 4 5 6 
#
# 1 37.3544 1.9175 31.9972 0.0000 0.0000 0.0000
# 2 1.9175 37.3540 31.9972 0.0000 0.0000 0.0000
# 3 31.9972 31.9972 273.4686 0.0000 0.0000 0.0000
# 4 0.0000 0.0000 0.0000 37.0345 0.0000 0.0000
# 5 0.0000 0.0000 0.0000 0.0000 37.0345 0.0000
# 6 0.0000 0.0000 0.0000 0.0000 0.0000 18.5785
#
#
#
# Elastic Compliance Matrix: (Units=1/GPa)
#
#
# Indices 1 2 3 4 5 6 
#
# 1 0.029841 0.001621 -0.003681 0.000000 0.000000 0.000000
# 2 0.001621 0.029841 -0.003681 0.000000 0.000000 0.000000
# 3 -0.003681 -0.003681 0.004518 0.000000 0.000000 0.000000
# 4 0.000000 0.000000 0.000000 0.027002 0.000000 0.000000
# 5 0.000000 0.000000 0.000000 0.000000 0.027002 0.000000
# 6 0.000000 0.000000 0.000000 0.000000 0.000000 0.053826
#
#
# Mechanical properties :
#
#
# Convention : Reuss Voigt Hill
#
# Bulk Modulus (GPa) = 18.96893 53.33344 36.15119
# Shear Modulus (GPa) = 24.86526 37.34718 31.10622
#
# Velocity S-wave (km/s) = 3.11674 3.81974 3.48601
# Velocity P-wave (km/s) = 4.51250 6.34741 5.50692
#
# Compressibility (1/GPa) = 0.05271778
#
# Stress axis : x y z
#
# Youngs Moduli (GPa) = 33.51136 33.51098 221.32831
#
# Poissons Ratio (x) = -0.05434 0.81476
# Poissons Ratio (y) = -0.05434 0.81477
# Poissons Ratio (z) = 0.12336 0.12336
#
# Static dielectric constant tensor:
#      x y z
#    x 2.177340 0.000000 0.000000 
#    y 0.000000 2.177330 0.000000 
#    z 0.000000 0.000000 2.026420 
# 
# From -- ./inp_files/4582.got.cif
#   From: 2010.05.17/outbox.cif.g08.bks.cpg/sg118_3_cif.got.tgz:4582.got - 2010.05.20 11:17:24.
