data_PCOD9558539
_publ_section_title
;
Structure prediction by ZEFSAII (Michael W. Deem and Ramdas Pophale) SiO2 
 PCOD9558539
Probable space group: P -4 N 2
;
_chemical_formula_sum "Si O2"
_cell_formula_units_Z 48
_cell_length_a 8.757509
_cell_length_b 8.757509
_cell_length_c 28.631099
_cell_angle_alpha 90.000000
_cell_angle_beta 90.000000
_cell_angle_gamma 90.000000
_cell_volume 2195.832473
_symmetry_space_group_name_H-M "P -4 N 2"
_symmetry_group_IT_number 118
_symmetry_cell_setting 'tetragonal'
loop_
_space_group_symop_operation_xyz
x,y,z
y,-x,-z
-x,-y,z
-y,x,-z
1/2+y,1/2+x,1/2-z
1/2-y,1/2-x,1/2-z
1/2-x,1/2+y,1/2+z
1/2+x,1/2-y,1/2+z
loop_
_atom_site_type_symbol
_atom_site_label
_atom_site_fract_x
_atom_site_fract_y
_atom_site_fract_z
Si Si1 0.183579 0.487832 0.641027
Si Si2 0.646518 0.324686 0.977838
Si Si3 0.895033 0.292224 0.137435
Si Si4 0.141644 0.893323 0.938026
Si Si5 0.166842 0.938446 0.630833
Si Si6 0.219904 0.819989 0.800625
O O1 0.247900 0.317719 0.635324
O O2 0.263199 0.575946 0.597264
O O3 0.269326 0.546994 0.688311
O O4 0.000000 0.500000 0.641592
O O5 0.770710 0.190961 0.979714
O O6 0.603415 0.337044 0.923520
O O7 0.489054 0.294027 0.005077
O O8 0.815091 0.455083 0.138572
O O9 0.000538 0.256851 0.092269
O O10 0.009795 0.253574 0.180225
O O11 0.000000 0.000000 0.949671
O O12 0.199945 0.800133 0.664800
O O13 0.000000 0.000000 0.642814
O O14 0.285459 0.785459 0.750000
#
# Coordination Sequence:
#
# PCOD9558539 Si02
#       6
#     8   8   8   8   8   8
#     4  10  20  39  69 102 138 184 232 294 368 434
#     4  11  22  39  73 108 142 182 247 305 366 441
#     4  10  22  39  72  97 140 183 233 293 369 431
#     4   9  20  42  71 102 138 189 233 291 370 434
#     4  12  23  41  68 104 137 186 236 302 372 431
#     4  11  24  42  65 100 142 192 244 292 361 445
#
# _framework density 21.859589
#
# number of rings (size 3 to 8) (size 9 to 14) (size 15 to 20)
#    0.000    1.500    5.000    3.000    0.000    3.000 
#    0.000    1.667   18.333    4.000    0.000    0.000 
#    0.000    0.000    0.000    0.000    0.000    0.000 
#
# Total GULP energy -268055.724145 kJ/mol
# GULP energy per Si atom -5584.494253 kJ/mol
# Density = 2.180984 g / cm^3
# Si number density = 21.859589 Si / 1000 Ang^3
#
#
#
# Elastic Constant Matrix: (Units=GPa)
#
#
# Indices 1 2 3 4 5 6 
#
# 1 118.9195 37.8111 22.7867 0.0000 0.0000 0.0000
# 2 37.8111 118.9195 22.7867 0.0000 0.0000 0.0000
# 3 22.7867 22.7867 80.1680 0.0000 0.0000 0.0000
# 4 0.0000 0.0000 0.0000 14.7293 0.0000 0.0000
# 5 0.0000 0.0000 0.0000 0.0000 14.7293 0.0000
# 6 0.0000 0.0000 0.0000 0.0000 0.0000 48.5768
#
#
#
# Elastic Compliance Matrix: (Units=1/GPa)
#
#
# Indices 1 2 3 4 5 6 
#
# 1 0.009642 -0.002687 -0.001977 0.000000 0.000000 0.000000
# 2 -0.002687 0.009642 -0.001977 0.000000 0.000000 0.000000
# 3 -0.001977 -0.001977 0.013598 0.000000 0.000000 0.000000
# 4 0.000000 0.000000 0.000000 0.067892 0.000000 0.000000
# 5 0.000000 0.000000 0.000000 0.000000 0.067892 0.000000
# 6 0.000000 0.000000 0.000000 0.000000 0.000000 0.020586
#
#
# Mechanical properties :
#
#
# Convention : Reuss Voigt Hill
#
# Bulk Modulus (GPa) = 51.01945 53.86398 52.44172
# Shear Modulus (GPa) = 23.91583 31.24860 27.58221
#
# Velocity S-wave (km/s) = 3.31126 3.78499 3.55602
# Velocity P-wave (km/s) = 6.16518 6.61785 6.39552
#
# Compressibility (1/GPa) = 0.01960037
#
# Stress axis : x y z
#
# Youngs Moduli (GPa) = 103.71077 103.71077 73.54218
#
# Poissons Ratio (x) = 0.27867 0.14539
# Poissons Ratio (y) = 0.27867 0.14539
# Poissons Ratio (z) = 0.20503 0.20503
#
# Static dielectric constant tensor:
#      x y z
#    x 1.846370 0.000000 0.000000 
#    y 0.000000 1.846370 0.000000 
#    z 0.000000 0.000000 1.791920 
# 
# From -- ./inp_files/6834.got.cif
#   From: 2010.05.17/outbox.cif.g08.bks.cpg/sg118_4_cif.got.tgz:6834.got - 2010.05.20 11:17:24.
