data_PCOD9558155
_publ_section_title
;
Structure prediction by ZEFSAII (Michael W. Deem and Ramdas Pophale) SiO2 
 PCOD9558155
Probable space group: P -4 B 2
;
_chemical_formula_sum "Si O2"
_cell_formula_units_Z 54
_cell_length_a 14.955634
_cell_length_b 14.955634
_cell_length_c 11.301445
_cell_angle_alpha 90.000000
_cell_angle_beta 90.000000
_cell_angle_gamma 90.000000
_cell_volume 2527.805373
_symmetry_space_group_name_H-M "P -4 B 2"
_symmetry_group_IT_number 117
_symmetry_cell_setting 'tetragonal'
loop_
_space_group_symop_operation_xyz
x,y,z
y,-x,-z
-x,-y,z
-y,x,-z
1/2+y,1/2+x,-z
1/2-y,1/2-x,-z
1/2-x,1/2+y,z
1/2+x,1/2-y,z
loop_
_atom_site_type_symbol
_atom_site_label
_atom_site_fract_x
_atom_site_fract_y
_atom_site_fract_z
Si Si1 0.199757 0.818807 0.697796
Si Si2 0.965297 0.183917 0.870985
Si Si3 0.625460 0.576406 0.515139
Si Si4 0.396029 0.755158 0.681142
Si Si5 0.133938 0.498284 0.055418
Si Si6 0.098757 0.530248 0.336471
Si Si7 0.830974 0.330974 0.500000
Si Si8 0.000000 0.000000 0.000000
O O1 0.129193 0.802466 0.802945
O O2 0.177222 0.914534 0.639336
O O3 0.304018 0.801152 0.724027
O O4 0.173738 0.755557 0.585837
O O5 0.046449 0.205610 0.781217
O O6 0.982281 0.262128 0.966659
O O7 0.972673 0.085384 0.921878
O O8 0.614990 0.474019 0.474998
O O9 0.679061 0.625580 0.412160
O O10 0.462208 0.825415 0.615325
O O11 0.115921 0.512388 0.196041
O O12 0.093162 0.406839 0.000000
O O13 0.075386 0.575386 0.000000
O O14 0.106660 0.628682 0.393125
O O15 0.000000 0.500000 0.362139
#
# Coordination Sequence:
#
# PCOD9558155 Si02
#       8
#     8   8   8   8   8   8   4   2
#     4  12  24  43  69 103 148 185 236 296 373 447
#     4  11  27  51  68 104 140 180 255 313 360 439
#     4  11  22  37  67 100 141 198 231 281 352 447
#     4  11  24  42  69 103 141 183 238 289 361 447
#     4  10  20  42  78 100 138 180 238 295 367 436
#     4  11  23  41  64 105 142 182 226 294 361 443
#     4  12  21  40  64 102 147 178 222 298 358 436
#     4  12  32  52  72  94 136 196 260 328 356 426
#
# _framework density 21.362404000000002
#
# number of rings (size 3 to 8) (size 9 to 14) (size 15 to 20)
#    0.000    0.889    7.407    0.222    2.074    7.111 
#    0.000    0.000    0.000    0.000    0.000    0.000 
#    0.000    0.000    0.000    0.000    0.000    0.000 
#
# Total GULP energy -300647.369903 kJ/mol
# GULP energy per Si atom -5567.543887 kJ/mol
# Density = 2.131378 g / cm^3
# Si number density = 21.362404 Si / 1000 Ang^3
#
#
#
# Elastic Constant Matrix: (Units=GPa)
#
#
# Indices 1 2 3 4 5 6 
#
# 1 103.8205 17.0737 20.0012 0.0000 0.0000 0.0000
# 2 17.0737 103.8215 20.0014 0.0000 0.0000 0.0000
# 3 20.0012 20.0014 56.8698 0.0000 0.0000 0.0000
# 4 0.0000 0.0000 0.0000 31.1214 0.0000 0.0000
# 5 0.0000 0.0000 0.0000 0.0000 31.1210 0.0000
# 6 0.0000 0.0000 0.0000 0.0000 0.0000 25.3413
#
#
#
# Elastic Compliance Matrix: (Units=1/GPa)
#
#
# Indices 1 2 3 4 5 6 
#
# 1 0.010444 -0.001083 -0.003292 0.000000 0.000000 0.000000
# 2 -0.001083 0.010444 -0.003292 0.000000 0.000000 0.000000
# 3 -0.003292 -0.003292 0.019900 0.000000 0.000000 0.000000
# 4 0.000000 0.000000 0.000000 0.032132 0.000000 0.000000
# 5 0.000000 0.000000 0.000000 0.000000 0.032133 0.000000
# 6 0.000000 0.000000 0.000000 0.000000 0.000000 0.039461
#
#
# Mechanical properties :
#
#
# Convention : Reuss Voigt Hill
#
# Bulk Modulus (GPa) = 39.28853 42.07380 40.68117
# Shear Modulus (GPa) = 29.70267 31.34577 30.52422
#
# Velocity S-wave (km/s) = 3.73288 3.83473 3.78415
# Velocity P-wave (km/s) = 6.08363 6.27255 6.17881
#
# Compressibility (1/GPa) = 0.02545272
#
# Stress axis : x y z
#
# Youngs Moduli (GPa) = 95.74476 95.74557 50.25159
#
# Poissons Ratio (x) = 0.10372 0.16544
# Poissons Ratio (y) = 0.10372 0.16544
# Poissons Ratio (z) = 0.31522 0.31522
#
# Static dielectric constant tensor:
#      x y z
#    x 1.889180 0.000000 0.000000 
#    y 0.000000 1.889180 0.000000 
#    z 0.000000 0.000000 1.905970 
# 
# From -- ./inp_files/2909.got.cif
#   From: 2010.05.17/outbox.cif.g08.bks.cpg/sg117_2_cif.got.tgz:2909.got - 2010.05.20 11:15:09.
