data_PCOD9558037
_publ_section_title
;
Structure prediction by ZEFSAII (Michael W. Deem and Ramdas Pophale) SiO2 
 PCOD9558037
Probable space group: P -4 C 2
;
_chemical_formula_sum "Si O2"
_cell_formula_units_Z 34
_cell_length_a 10.660766
_cell_length_b 10.660766
_cell_length_c 12.125222
_cell_angle_alpha 90.000000
_cell_angle_beta 90.000000
_cell_angle_gamma 90.000000
_cell_volume 1378.054903
_symmetry_space_group_name_H-M "P -4 C 2"
_symmetry_group_IT_number 116
_symmetry_cell_setting 'tetragonal'
loop_
_space_group_symop_operation_xyz
x,y,z
y,-x,-z
-x,-y,z
-y,x,-z
y,x,1/2-z
-y,-x,1/2-z
-x,y,1/2+z
x,-y,1/2+z
loop_
_atom_site_type_symbol
_atom_site_label
_atom_site_fract_x
_atom_site_fract_y
_atom_site_fract_z
Si Si1 0.000000 0.500000 0.739359
Si Si2 0.654358 0.345643 0.250000
Si Si3 0.000000 0.000000 0.750000
Si Si4 0.250171 0.736811 0.016185
Si Si5 0.400786 0.255745 0.321311
Si Si6 0.739059 0.997213 0.609003
O O1 0.114730 0.552006 0.669669
O O2 0.037324 0.379826 0.813682
O O3 0.728046 0.304702 0.140761
O O4 0.506804 0.320301 0.247425
O O5 0.129075 0.997624 0.676939
O O6 0.244470 0.887131 0.020609
O O7 0.367809 0.695179 0.941767
O O8 0.122558 0.699416 0.956136
O O9 0.273867 0.273867 0.250000
#
# Coordination Sequence:
#
# PCOD9558037 Si02
#       6
#     4   4   2   8   8   8
#     4  12  26  48  82 118 158 210 280 348 420 504
#     4  12  30  50  77 115 166 216 273 335 423 516
#     4  12  26  54  82 122 178 218 290 346 440 508
#     4  12  28  49  83 119 163 215 279 346 432 506
#     4  12  28  53  79 116 160 217 276 350 423 508
#     4  12  26  48  82 121 161 219 272 357 422 518
#
# _framework density 24.672456
#
# number of rings (size 3 to 8) (size 9 to 14) (size 15 to 20)
#    0.000    0.000    4.706    3.882    9.882    0.000 
#    0.000    0.000    0.000    0.000    0.000    0.000 
#    0.000    0.000    0.000    0.000    0.000    0.000 
#
# Total GULP energy -190226.531610 kJ/mol
# GULP energy per Si atom -5594.897989 kJ/mol
# Density = 2.461630 g / cm^3
# Si number density = 24.672456 Si / 1000 Ang^3
#
#
#
# Elastic Constant Matrix: (Units=GPa)
#
#
# Indices 1 2 3 4 5 6 
#
# 1 115.3695 19.4986 41.3233 0.0000 0.0000 0.0000
# 2 19.4986 115.3701 41.3232 0.0000 0.0000 0.0000
# 3 41.3233 41.3232 140.9711 0.0000 0.0000 0.0000
# 4 0.0000 0.0000 0.0000 40.3270 0.0000 0.0000
# 5 0.0000 0.0000 0.0000 0.0000 40.3278 0.0000
# 6 0.0000 0.0000 0.0000 0.0000 0.0000 42.5418
#
#
#
# Elastic Compliance Matrix: (Units=1/GPa)
#
#
# Indices 1 2 3 4 5 6 
#
# 1 0.009734 -0.000696 -0.002649 0.000000 0.000000 0.000000
# 2 -0.000696 0.009734 -0.002649 0.000000 0.000000 0.000000
# 3 -0.002649 -0.002649 0.008647 0.000000 0.000000 0.000000
# 4 0.000000 0.000000 0.000000 0.024797 0.000000 0.000000
# 5 0.000000 0.000000 0.000000 0.000000 0.024797 0.000000
# 6 0.000000 0.000000 0.000000 0.000000 0.000000 0.023506
#
#
# Mechanical properties :
#
#
# Convention : Reuss Voigt Hill
#
# Bulk Modulus (GPa) = 62.01288 64.00012 63.00650
# Shear Modulus (GPa) = 42.16514 42.61035 42.38774
#
# Velocity S-wave (km/s) = 4.13849 4.16028 4.14940
# Velocity P-wave (km/s) = 6.93001 7.00524 6.96773
#
# Compressibility (1/GPa) = 0.01612568
#
# Stress axis : x y z
#
# Youngs Moduli (GPa) = 102.72804 102.72868 115.64844
#
# Poissons Ratio (x) = 0.07153 0.30640
# Poissons Ratio (y) = 0.07152 0.30640
# Poissons Ratio (z) = 0.27217 0.27217
#
# Static dielectric constant tensor:
#      x y z
#    x 2.023930 0.000000 0.000000 
#    y 0.000000 2.023930 0.000000 
#    z 0.000000 0.000000 1.919430 
# 
# From -- ./inp_files/1632.got.cif
#   From: 2010.05.17/outbox.cif.g08.bks.cpg/sg116_1_cif.got.tgz:1632.got - 2010.05.20 11:11:43.
