data_PCOD9558759
_publ_section_title
;
Structure prediction by ZEFSAII (Michael W. Deem and Ramdas Pophale) SiO2 
 PCOD9558759
Probable space group: P -4 N 2
;
_chemical_formula_sum "Si O2"
_cell_formula_units_Z 48
_cell_length_a 12.240028
_cell_length_b 12.240028
_cell_length_c 19.368687
_cell_angle_alpha 90.000000
_cell_angle_beta 90.000000
_cell_angle_gamma 90.000000
_cell_volume 2901.783478
_symmetry_space_group_name_H-M "P -4 N 2"
_symmetry_group_IT_number 118
_symmetry_cell_setting 'tetragonal'
loop_
_space_group_symop_operation_xyz
x,y,z
y,-x,-z
-x,-y,z
-y,x,-z
1/2+y,1/2+x,1/2-z
1/2-y,1/2-x,1/2-z
1/2-x,1/2+y,1/2+z
1/2+x,1/2-y,1/2+z
loop_
_atom_site_type_symbol
_atom_site_label
_atom_site_fract_x
_atom_site_fract_y
_atom_site_fract_z
Si Si1 0.639304 0.207943 0.041997
Si Si2 0.381670 0.213462 0.030333
Si Si3 0.276574 0.158973 0.172935
Si Si4 0.237184 0.010588 0.999269
Si Si5 0.901535 0.066152 0.885528
Si Si6 0.434388 0.889276 0.329533
O O1 0.511574 0.214666 0.022537
O O2 0.635176 0.168174 0.121962
O O3 0.698050 0.317854 0.016260
O O4 0.710662 0.109165 0.008860
O O5 0.342888 0.219712 0.111403
O O6 0.333591 0.096914 0.007233
O O7 0.310322 0.189679 0.250000
O O8 0.147821 0.167946 0.160986
O O9 0.300374 0.029416 0.164811
O O10 0.178913 0.014533 0.925592
O O11 0.143352 0.044883 0.054294
O O12 0.000000 0.000000 0.851407
O O13 0.402984 0.902984 0.250000
O O14 0.500000 0.000000 0.351307
#
# Coordination Sequence:
#
# PCOD9558759 Si02
#       6
#     8   8   8   8   8   8
#     4  12  20  36  53  83 115 146 190 223 285 332
#     4  11  23  33  58  81 108 154 182 232 275 336
#     4  11  20  33  54  80 110 143 181 222 290 339
#     4  11  17  32  54  86 110 130 179 227 284 327
#     4  11  18  29  54  86 115 134 170 238 292 331
#     4  11  18  32  59  85 108 134 178 240 287 331
#
# _framework density 16.541553
#
# number of rings (size 3 to 8) (size 9 to 14) (size 15 to 20)
#    0.000    0.833   11.667    0.500    0.000    0.333 
#    0.000    0.000    7.333    0.000    0.000    1.167 
#    0.000    0.000    0.000    0.000    0.000    0.000 
#
# Total GULP energy -267417.742979 kJ/mol
# GULP energy per Si atom -5571.202979 kJ/mol
# Density = 1.650390 g / cm^3
# Si number density = 16.541553 Si / 1000 Ang^3
#
#
#
# Elastic Constant Matrix: (Units=GPa)
#
#
# Indices 1 2 3 4 5 6 
#
# 1 54.4051 11.9000 22.5018 0.0000 0.0000 0.0000
# 2 11.9000 54.4049 22.5019 0.0000 0.0000 0.0000
# 3 22.5018 22.5019 78.5119 0.0000 0.0000 0.0000
# 4 0.0000 0.0000 0.0000 22.6700 0.0000 0.0000
# 5 0.0000 0.0000 0.0000 0.0000 22.6700 0.0000
# 6 0.0000 0.0000 0.0000 0.0000 0.0000 30.5742
#
#
#
# Elastic Compliance Matrix: (Units=1/GPa)
#
#
# Indices 1 2 3 4 5 6 
#
# 1 0.021125 -0.002401 -0.005366 0.000000 0.000000 0.000000
# 2 -0.002401 0.021125 -0.005366 0.000000 0.000000 0.000000
# 3 -0.005366 -0.005366 0.015813 0.000000 0.000000 0.000000
# 4 0.000000 0.000000 0.000000 0.044111 0.000000 0.000000
# 5 0.000000 0.000000 0.000000 0.000000 0.044111 0.000000
# 6 0.000000 0.000000 0.000000 0.000000 0.000000 0.032707
#
#
# Mechanical properties :
#
#
# Convention : Reuss Voigt Hill
#
# Bulk Modulus (GPa) = 31.45083 33.45883 32.45483
# Shear Modulus (GPa) = 23.16314 23.87739 23.52027
#
# Velocity S-wave (km/s) = 3.74612 3.80344 3.77489
# Velocity P-wave (km/s) = 6.14538 6.28961 6.21791
#
# Compressibility (1/GPa) = 0.03179567
#
# Stress axis : x y z
#
# Youngs Moduli (GPa) = 47.33641 47.33621 63.23908
#
# Poissons Ratio (x) = 0.11367 0.33937
# Poissons Ratio (y) = 0.11367 0.33937
# Poissons Ratio (z) = 0.25403 0.25403
#
# Static dielectric constant tensor:
#      x y z
#    x 1.589590 0.000000 0.000000 
#    y 0.000000 1.589590 0.000000 
#    z 0.000000 0.000000 1.594080 
# 
# From -- ./inp_files/5622.got.cif
#   From: 2010.05.17/outbox.cif.g08.bks.cpg/sg118_3_cif.got.tgz:5622.got - 2010.05.20 11:17:24.
