data_PCOD9558252
_publ_section_title
;
Structure prediction by ZEFSAII (Michael W. Deem and Ramdas Pophale) SiO2 
 PCOD9558252
Probable space group: P -4 B 2
;
_chemical_formula_sum "Si O2"
_cell_formula_units_Z 36
_cell_length_a 13.932327
_cell_length_b 13.932327
_cell_length_c 9.374028
_cell_angle_alpha 90.000000
_cell_angle_beta 90.000000
_cell_angle_gamma 90.000000
_cell_volume 1819.590097
_symmetry_space_group_name_H-M "P -4 B 2"
_symmetry_group_IT_number 117
_symmetry_cell_setting 'tetragonal'
loop_
_space_group_symop_operation_xyz
x,y,z
y,-x,-z
-x,-y,z
-y,x,-z
1/2+y,1/2+x,-z
1/2-y,1/2-x,-z
1/2-x,1/2+y,z
1/2+x,1/2-y,z
loop_
_atom_site_type_symbol
_atom_site_label
_atom_site_fract_x
_atom_site_fract_y
_atom_site_fract_z
Si Si1 0.003982 0.654607 0.466681
Si Si2 0.928363 0.819541 0.675368
Si Si3 0.000000 0.000000 0.500000
Si Si4 0.500000 0.000000 0.000000
Si Si5 0.710027 0.954267 0.101253
Si Si6 0.385329 0.226027 0.216166
O O1 0.929328 0.570673 0.500000
O O2 0.963149 0.739160 0.563597
O O3 0.108365 0.608365 0.500000
O O4 0.022177 0.690843 0.306508
O O5 0.816248 0.837071 0.706508
O O6 0.976252 0.783918 0.822204
O O7 0.967313 0.915926 0.605093
O O8 0.502672 0.898843 0.914710
O O9 0.691225 0.859595 0.195841
O O10 0.744374 0.922074 0.944812
#
# Coordination Sequence:
#
# PCOD9558252 Si02
#       6
#     8   8   2   2   8   8
#     4  11  24  41  73 103 133 171 227 290 354 412
#     4  12  25  44  68  94 136 191 228 285 352 419
#     4  12  28  44  62  92 140 192 242 292 348 416
#     4   8  20  40  72 110 132 168 220 306 356 404
#     4  10  24  42  73  98 145 172 230 300 342 426
#     4  10  23  46  63 105 137 175 230 284 346 420
#
# _framework density 19.784675
#
# number of rings (size 3 to 8) (size 9 to 14) (size 15 to 20)
#    0.000    1.556    4.444    0.000    6.222    6.222 
#    0.000    0.000    0.000    0.000    0.000    0.000 
#    0.000    0.000    0.000    0.000    0.000    0.000 
#
# Total GULP energy -200729.150391 kJ/mol
# GULP energy per Si atom -5575.809733 kJ/mol
# Density = 1.973964 g / cm^3
# Si number density = 19.784675 Si / 1000 Ang^3
#
#
#
# Elastic Constant Matrix: (Units=GPa)
#
#
# Indices 1 2 3 4 5 6 
#
# 1 109.7037 68.4667 43.1278 0.0000 0.0000 0.0000
# 2 68.4667 109.7046 43.1277 0.0000 0.0000 0.0000
# 3 43.1278 43.1277 102.1086 0.0000 0.0000 0.0000
# 4 0.0000 0.0000 0.0000 32.3622 0.0000 0.0000
# 5 0.0000 0.0000 0.0000 0.0000 32.3616 0.0000
# 6 0.0000 0.0000 0.0000 0.0000 0.0000 37.4922
#
#
#
# Elastic Compliance Matrix: (Units=1/GPa)
#
#
# Indices 1 2 3 4 5 6 
#
# 1 0.015653 -0.008597 -0.002980 0.000000 0.000000 0.000000
# 2 -0.008597 0.015652 -0.002980 0.000000 0.000000 0.000000
# 3 -0.002980 -0.002980 0.012311 0.000000 0.000000 0.000000
# 4 0.000000 0.000000 0.000000 0.030900 0.000000 0.000000
# 5 0.000000 0.000000 0.000000 0.000000 0.030901 0.000000
# 6 0.000000 0.000000 0.000000 0.000000 0.000000 0.026672
#
#
# Mechanical properties :
#
#
# Convention : Reuss Voigt Hill
#
# Bulk Modulus (GPa) = 68.95832 70.10681 69.53257
# Shear Modulus (GPa) = 30.11375 31.56286 30.83830
#
# Velocity S-wave (km/s) = 3.90561 3.99848 3.95232
# Velocity P-wave (km/s) = 7.43428 7.53850 7.48657
#
# Compressibility (1/GPa) = 0.01450151
#
# Stress axis : x y z
#
# Youngs Moduli (GPa) = 63.88717 63.88787 81.22978
#
# Poissons Ratio (x) = 0.54926 0.24206
# Poissons Ratio (y) = 0.54926 0.24205
# Poissons Ratio (z) = 0.19038 0.19038
#
# Static dielectric constant tensor:
#      x y z
#    x 1.701400 0.000000 0.000000 
#    y 0.000000 1.701400 0.000000 
#    z 0.000000 0.000000 1.740640 
# 
# From -- ./inp_files/1637.got.cif
#   From: 2010.05.17/outbox.cif.g08.bks.cpg/sg117_1_cif.got.tgz:1637.got - 2010.05.20 11:15:09.
