data_PCOD9558899
_publ_section_title
;
Structure prediction by ZEFSAII (Michael W. Deem and Ramdas Pophale) SiO2 
 PCOD9558899
Probable space group: P -4 N 2
;
_chemical_formula_sum "Si O2"
_cell_formula_units_Z 20
_cell_length_a 5.205332
_cell_length_b 5.205332
_cell_length_c 28.366516
_cell_angle_alpha 90.000000
_cell_angle_beta 90.000000
_cell_angle_gamma 90.000000
_cell_volume 768.604402
_symmetry_space_group_name_H-M "P -4 N 2"
_symmetry_group_IT_number 118
_symmetry_cell_setting 'tetragonal'
loop_
_space_group_symop_operation_xyz
x,y,z
y,-x,-z
-x,-y,z
-y,x,-z
1/2+y,1/2+x,1/2-z
1/2-y,1/2-x,1/2-z
1/2-x,1/2+y,1/2+z
1/2+x,1/2-y,1/2+z
loop_
_atom_site_type_symbol
_atom_site_label
_atom_site_fract_x
_atom_site_fract_y
_atom_site_fract_z
Si Si1 0.252832 0.675467 0.573893
Si Si2 0.500000 0.500000 0.000000
Si Si3 0.738756 0.170736 0.818363
Si Si4 0.500000 0.000000 0.250000
O O1 0.500000 0.500000 0.566136
O O2 0.267296 0.790018 0.626461
O O3 0.000000 0.500000 0.572211
O O4 0.216277 0.888785 0.534328
O O5 0.779079 0.427569 0.787808
O O6 0.500000 0.000000 0.803109
O O7 0.000000 0.000000 0.813237
#
# Coordination Sequence:
#
# PCOD9558899 Si02
#       4
#     8   2   8   2
#     4  11  29  54  79 121 168 222 280 354 424 507
#     4  12  32  48  92 120 172 220 296 336 444 502
#     4  11  28  51  81 117 170 220 282 349 424 506
#     4  12  26  48  82 122 164 220 286 338 436 496
#
# _framework density 26.021186
#
# number of rings (size 3 to 8) (size 9 to 14) (size 15 to 20)
#    0.000    0.800    2.000    0.600   22.400    0.000 
#    0.000    0.000    0.000    0.000    0.000    0.000 
#    0.000    0.000    0.000    0.000    0.000    0.000 
#
# Total GULP energy -112172.739924 kJ/mol
# GULP energy per Si atom -5608.636996 kJ/mol
# Density = 2.596196 g / cm^3
# Si number density = 26.021186 Si / 1000 Ang^3
#
#
#
# Elastic Constant Matrix: (Units=GPa)
#
#
# Indices 1 2 3 4 5 6 
#
# 1 167.5692 75.9072 68.5693 0.0000 0.0000 0.0000
# 2 75.9072 167.5692 68.5693 0.0000 0.0000 0.0000
# 3 68.5693 68.5693 246.9670 0.0000 0.0000 0.0000
# 4 0.0000 0.0000 0.0000 2.5761 0.0000 0.0000
# 5 0.0000 0.0000 0.0000 0.0000 2.5761 0.0000
# 6 0.0000 0.0000 0.0000 0.0000 0.0000 64.1722
#
#
#
# Elastic Compliance Matrix: (Units=1/GPa)
#
#
# Indices 1 2 3 4 5 6 
#
# 1 0.007889 -0.003021 -0.001352 0.000000 0.000000 0.000000
# 2 -0.003021 0.007889 -0.001352 0.000000 0.000000 0.000000
# 3 -0.001352 -0.001352 0.004800 0.000000 0.000000 0.000000
# 4 0.000000 0.000000 0.000000 0.388188 0.000000 0.000000
# 5 0.000000 0.000000 0.000000 0.000000 0.388188 0.000000
# 6 0.000000 0.000000 0.000000 0.000000 0.000000 0.015583
#
#
# Mechanical properties :
#
#
# Convention : Reuss Voigt Hill
#
# Bulk Modulus (GPa) = 109.53036 112.02191 110.77613
# Shear Modulus (GPa) = 6.04574 38.46885 22.25729
#
# Velocity S-wave (km/s) = 1.52592 3.84912 2.92781
# Velocity P-wave (km/s) = 6.72969 7.93083 7.35482
#
# Compressibility (1/GPa) = 0.00912989
#
# Stress axis : x y z
#
# Youngs Moduli (GPa) = 126.75737 126.75737 208.34517
#
# Poissons Ratio (x) = 0.38288 0.28163
# Poissons Ratio (y) = 0.38288 0.28163
# Poissons Ratio (z) = 0.17134 0.17134
#
# Static dielectric constant tensor:
#      x y z
#    x 1.974030 0.000000 0.000000 
#    y 0.000000 1.974030 0.000000 
#    z 0.000000 0.000000 1.996690 
# 
# From -- ./inp_files/5818.got.cif
#   From: 2010.05.17/outbox.cif.g08.bks.cpg/sg118_3_cif.got.tgz:5818.got - 2010.05.20 11:17:24.
