data_PCOD9558991
_publ_section_title
;
Structure prediction by ZEFSAII (Michael W. Deem and Ramdas Pophale) SiO2 
 PCOD9558991
Probable space group: I -4 M 2
;
_chemical_formula_sum "Si O2"
_cell_formula_units_Z 112
_cell_length_a 20.680379
_cell_length_b 20.680379
_cell_length_c 16.887038
_cell_angle_alpha 90.000000
_cell_angle_beta 90.000000
_cell_angle_gamma 90.000000
_cell_volume 7222.215914
_symmetry_space_group_name_H-M "I -4 M 2"
_symmetry_group_IT_number 119
_symmetry_cell_setting 'tetragonal'
loop_
_space_group_symop_operation_xyz
x,y,z
y,-x,-z
-x,-y,z
-y,x,-z
y,x,-z
-y,-x,-z
-x,y,z
x,-y,z
1/2+x,1/2+y,1/2+z
1/2+y,1/2-x,1/2-z
1/2-x,1/2-y,1/2+z
1/2-y,1/2+x,1/2-z
1/2+y,1/2+x,1/2-z
1/2-y,1/2-x,1/2-z
1/2-x,1/2+y,1/2+z
1/2+x,1/2-y,1/2+z
loop_
_atom_site_type_symbol
_atom_site_label
_atom_site_fract_x
_atom_site_fract_y
_atom_site_fract_z
Si Si1 0.320228 0.925964 0.555446
Si Si2 0.294757 0.641767 0.601902
Si Si3 0.208795 0.816546 0.269122
Si Si4 0.678555 0.239747 0.058606
Si Si5 0.073257 0.750746 0.283073
Si Si6 0.156264 0.572400 0.358102
Si Si7 0.791974 0.071291 0.948440
O O1 0.297902 0.879247 0.484778
O O2 0.266323 0.926369 0.624492
O O3 0.380113 0.894489 0.602353
O O4 0.332231 0.000000 0.531079
O O5 0.282250 0.635284 0.695235
O O6 0.240083 0.692419 0.572240
O O7 0.289909 0.581830 0.542824
O O8 0.366530 0.671133 0.587126
O O9 0.252289 0.752289 0.250000
O O10 0.231690 0.839104 0.355416
O O11 0.133584 0.797133 0.269162
O O12 0.704513 0.295488 0.000000
O O13 0.085511 0.687281 0.228410
O O14 0.000000 0.772689 0.261664
O O15 0.129687 0.500000 0.355799
O O16 0.220009 0.574406 0.413398
O O17 0.818835 0.000000 0.929571
#
# Coordination Sequence:
#
# PCOD9558991 Si02
#       7
#    16  16  16  16  16  16  16
#     4  11  21  32  46  69 103 134 166 211 255 288
#     4  10  18  31  48  70  97 128 161 199 251 296
#     4  10  19  28  48  70  93 125 163 205 253 300
#     4  11  18  31  49  70  94 124 169 212 249 294
#     4  10  19  28  43  71 103 132 164 202 244 294
#     4  10  18  30  47  67  99 136 169 199 234 295
#     4  10  18  28  48  75 100 126 161 200 238 290
#
# _framework density 15.507706000000001
#
# number of rings (size 3 to 8) (size 9 to 14) (size 15 to 20)
#    0.000    1.714    5.714    1.286    0.000    0.286 
#    0.000    0.714    0.000    6.000    0.000    0.000 
#    0.000    3.143    0.000    0.000    0.000    0.000 
#
# Total GULP energy -311783.880996 kJ/mol
# GULP energy per Si atom -5567.569303 kJ/mol
# Density = 1.547241 g / cm^3
# Si number density = 15.507706 Si / 1000 Ang^3
#
#
#
# Elastic Constant Matrix: (Units=GPa)
#
#
# Indices 1 2 3 4 5 6 
#
# 1 58.8383 17.4641 32.2314 0.0000 0.0000 0.0000
# 2 17.4641 58.8379 32.2313 0.0000 0.0000 0.0000
# 3 32.2314 32.2313 123.3082 0.0000 0.0000 0.0000
# 4 0.0000 0.0000 0.0000 11.9250 0.0000 0.0000
# 5 0.0000 0.0000 0.0000 0.0000 11.9254 0.0000
# 6 0.0000 0.0000 0.0000 0.0000 0.0000 9.9336
#
#
#
# Elastic Compliance Matrix: (Units=1/GPa)
#
#
# Indices 1 2 3 4 5 6 
#
# 1 0.020495 -0.003675 -0.004397 0.000000 0.000000 0.000000
# 2 -0.003675 0.020495 -0.004397 0.000000 0.000000 0.000000
# 3 -0.004397 -0.004397 0.010408 0.000000 0.000000 0.000000
# 4 0.000000 0.000000 0.000000 0.083857 0.000000 0.000000
# 5 0.000000 0.000000 0.000000 0.000000 0.083855 0.000000
# 6 0.000000 0.000000 0.000000 0.000000 0.000000 0.100669
#
#
# Mechanical properties :
#
#
# Convention : Reuss Voigt Hill
#
# Bulk Modulus (GPa) = 37.78982 44.98199 41.38591
# Shear Modulus (GPa) = 14.14283 17.36063 15.75173
#
# Velocity S-wave (km/s) = 3.02319 3.34950 3.19052
# Velocity P-wave (km/s) = 6.05042 6.63536 6.34963
#
# Compressibility (1/GPa) = 0.02646215
#
# Stress axis : x y z
#
# Youngs Moduli (GPa) = 48.79262 48.79231 96.07811
#
# Poissons Ratio (x) = 0.17930 0.42242
# Poissons Ratio (y) = 0.17930 0.42242
# Poissons Ratio (z) = 0.21452 0.21452
#
# Static dielectric constant tensor:
#      x y z
#    x 1.520370 0.000000 0.000000 
#    y 0.000000 1.520370 0.000000 
#    z 0.000000 0.000000 1.550920 
# 
# From -- ./inp_files/6881.got.cif
#   From: 2010.05.17/outbox.cif.g08.bks.cpg/sg119_4_cif.got.tgz:6881.got - 2010.05.20 11:21:29.
