data_PCOD9558996
_publ_section_title
;
Structure prediction by ZEFSAII (Michael W. Deem and Ramdas Pophale) SiO2 
 PCOD9558996
Probable space group: I -4 M 2
;
_chemical_formula_sum "Si O2"
_cell_formula_units_Z 96
_cell_length_a 14.496983
_cell_length_b 14.496983
_cell_length_c 22.483618
_cell_angle_alpha 90.000000
_cell_angle_beta 90.000000
_cell_angle_gamma 90.000000
_cell_volume 4725.213730
_symmetry_space_group_name_H-M "I -4 M 2"
_symmetry_group_IT_number 119
_symmetry_cell_setting 'tetragonal'
loop_
_space_group_symop_operation_xyz
x,y,z
y,-x,-z
-x,-y,z
-y,x,-z
y,x,-z
-y,-x,-z
-x,y,z
x,-y,z
1/2+x,1/2+y,1/2+z
1/2+y,1/2-x,1/2-z
1/2-x,1/2-y,1/2+z
1/2-y,1/2+x,1/2-z
1/2+y,1/2+x,1/2-z
1/2-y,1/2-x,1/2-z
1/2-x,1/2+y,1/2+z
1/2+x,1/2-y,1/2+z
loop_
_atom_site_type_symbol
_atom_site_label
_atom_site_fract_x
_atom_site_fract_y
_atom_site_fract_z
Si Si1 0.107198 0.846272 0.673335
Si Si2 0.239121 0.804585 0.564942
Si Si3 0.606659 0.889026 0.859536
Si Si4 0.096016 0.370905 0.682880
Si Si5 0.222993 0.897767 0.112589
Si Si6 0.605191 0.707107 0.707406
O O1 0.162790 0.843213 0.611440
O O2 0.103282 0.738634 0.689484
O O3 0.170865 0.888427 0.725155
O O4 0.000000 0.879906 0.671028
O O5 0.195052 0.804949 0.500000
O O6 0.330108 0.863906 0.582271
O O7 0.267604 0.696044 0.573997
O O8 0.500000 0.867207 0.841462
O O9 0.688688 0.864384 0.812068
O O10 0.609362 0.000000 0.868803
O O11 0.096072 0.403929 0.750000
O O12 0.178561 0.404912 0.643857
O O13 0.000000 0.393276 0.652730
O O14 0.157356 0.866769 0.166556
O O15 0.198691 0.000000 0.087879
O O16 0.500000 0.704460 0.689408
#
# Coordination Sequence:
#
# PCOD9558996 Si02
#       6
#    16  16  16  16  16  16
#     4  10  21  37  56  80 116 157 195 241 299 364
#     4  10  23  40  59  83 115 160 212 260 300 351
#     4   9  20  40  66  95 125 157 198 255 319 376
#     4  10  18  29  48  76 111 144 174 214 272 342
#     4  10  20  34  54  82 116 150 187 236 294 360
#     4  10  20  36  60  89 120 152 188 235 301 375
#
# _framework density 20.316541999999998
#
# number of rings (size 3 to 8) (size 9 to 14) (size 15 to 20)
#    0.000    2.167    1.667    1.000    0.000    4.500 
#    0.000    2.500    0.000    4.000    0.000    3.500 
#    0.000    0.000    0.000    0.000    0.000    0.000 
#
# Total GULP energy -267288.293459 kJ/mol
# GULP energy per Si atom -5568.506114 kJ/mol
# Density = 2.027030 g / cm^3
# Si number density = 20.316542 Si / 1000 Ang^3
#
#
#
# Elastic Constant Matrix: (Units=GPa)
#
#
# Indices 1 2 3 4 5 6 
#
# 1 109.3003 31.1658 12.4060 0.0000 0.0000 0.0000
# 2 31.1658 109.3007 12.4057 0.0000 0.0000 0.0000
# 3 12.4060 12.4057 80.2462 0.0000 0.0000 0.0000
# 4 0.0000 0.0000 0.0000 3.8176 0.0000 0.0000
# 5 0.0000 0.0000 0.0000 0.0000 3.8171 0.0000
# 6 0.0000 0.0000 0.0000 0.0000 0.0000 3.9034
#
#
#
# Elastic Compliance Matrix: (Units=1/GPa)
#
#
# Indices 1 2 3 4 5 6 
#
# 1 0.010059 -0.002740 -0.001132 0.000000 0.000000 0.000000
# 2 -0.002740 0.010059 -0.001131 0.000000 0.000000 0.000000
# 3 -0.001132 -0.001131 0.012812 0.000000 0.000000 0.000000
# 4 0.000000 0.000000 0.000000 0.261946 0.000000 0.000000
# 5 0.000000 0.000000 0.000000 0.000000 0.261977 0.000000
# 6 0.000000 0.000000 0.000000 0.000000 0.000000 0.256187
#
#
# Mechanical properties :
#
#
# Convention : Reuss Voigt Hill
#
# Bulk Modulus (GPa) = 43.62330 45.64469 44.63400
# Shear Modulus (GPa) = 6.01912 18.49893 12.25903
#
# Velocity S-wave (km/s) = 1.72311 3.02078 2.45909
# Velocity P-wave (km/s) = 5.04750 5.88917 5.48451
#
# Compressibility (1/GPa) = 0.02292353
#
# Stress axis : x y z
#
# Youngs Moduli (GPa) = 99.41613 99.41652 78.05483
#
# Poissons Ratio (x) = 0.27237 0.08832
# Poissons Ratio (y) = 0.27237 0.08832
# Poissons Ratio (z) = 0.11249 0.11249
#
# Static dielectric constant tensor:
#      x y z
#    x 1.765760 0.000000 0.000000 
#    y 0.000000 1.765760 0.000000 
#    z 0.000000 0.000000 1.712060 
# 
# From -- ./inp_files/7763.got.cif
#   From: 2010.05.17/outbox.cif.g08.bks.cpg/sg119_4_cif.got.tgz:7763.got - 2010.05.20 11:21:29.
