data_PCOD9558645
_publ_section_title
;
Structure prediction by ZEFSAII (Michael W. Deem and Ramdas Pophale) SiO2 
 PCOD9558645
Probable space group: P -4 N 2
;
_chemical_formula_sum "Si O2"
_cell_formula_units_Z 28
_cell_length_a 7.692735
_cell_length_b 7.692735
_cell_length_c 19.094766
_cell_angle_alpha 90.000000
_cell_angle_beta 90.000000
_cell_angle_gamma 90.000000
_cell_volume 1129.993342
_symmetry_space_group_name_H-M "P -4 N 2"
_symmetry_group_IT_number 118
_symmetry_cell_setting 'tetragonal'
loop_
_space_group_symop_operation_xyz
x,y,z
y,-x,-z
-x,-y,z
-y,x,-z
1/2+y,1/2+x,1/2-z
1/2-y,1/2-x,1/2-z
1/2-x,1/2+y,1/2+z
1/2+x,1/2-y,1/2+z
loop_
_atom_site_type_symbol
_atom_site_label
_atom_site_fract_x
_atom_site_fract_y
_atom_site_fract_z
Si Si1 0.684233 0.557058 0.248147
Si Si2 0.000000 0.500000 0.875676
Si Si3 0.783516 0.289113 0.145887
Si Si4 0.627404 0.759317 0.005159
O O1 0.500000 0.500000 0.275178
O O2 0.745679 0.754322 0.250000
O O3 0.695480 0.468310 0.172072
O O4 0.794090 0.453119 0.305774
O O5 0.136233 0.361878 0.840402
O O6 0.120644 0.618053 0.926947
O O7 0.835331 0.287828 0.065087
O O8 0.718809 0.573651 0.013925
#
# Coordination Sequence:
#
# PCOD9558645 Si02
#       4
#     8   4   8   8
#     4  11  27  44  70  95 129 182 227 297 356 426
#     4  10  22  37  68 101 132 178 224 296 334 430
#     4  10  23  43  65  95 136 172 233 278 353 428
#     4   9  20  38  63  96 127 178 216 271 345 405
#
# _framework density 24.778905000000002
#
# number of rings (size 3 to 8) (size 9 to 14) (size 15 to 20)
#    0.000    2.000    0.000    1.714   16.000    1.143 
#    5.143    0.000    0.000    0.000    0.000    0.000 
#    0.000    0.000    0.000    0.000    0.000    0.000 
#
# Total GULP energy -156143.073011 kJ/mol
# GULP energy per Si atom -5576.538322 kJ/mol
# Density = 2.472251 g / cm^3
# Si number density = 24.778905 Si / 1000 Ang^3
#
#
#
# Elastic Constant Matrix: (Units=GPa)
#
#
# Indices 1 2 3 4 5 6 
#
# 1 84.2457 26.4148 -0.1265 0.0000 0.0000 0.0000
# 2 26.4148 84.2434 -0.1269 0.0000 0.0000 0.0000
# 3 -0.1265 -0.1269 78.1476 0.0000 0.0000 0.0000
# 4 0.0000 0.0000 0.0000 17.2413 0.0000 0.0000
# 5 0.0000 0.0000 0.0000 0.0000 17.2421 0.0000
# 6 0.0000 0.0000 0.0000 0.0000 0.0000 49.0524
#
#
#
# Elastic Compliance Matrix: (Units=1/GPa)
#
#
# Indices 1 2 3 4 5 6 
#
# 1 0.013164 -0.004128 0.000015 0.000000 0.000000 0.000000
# 2 -0.004128 0.013165 0.000015 0.000000 0.000000 0.000000
# 3 0.000015 0.000015 0.012796 0.000000 0.000000 0.000000
# 4 0.000000 0.000000 0.000000 0.058000 0.000000 0.000000
# 5 0.000000 0.000000 0.000000 0.000000 0.057997 0.000000
# 6 0.000000 0.000000 0.000000 0.000000 0.000000 0.020386
#
#
# Mechanical properties :
#
#
# Convention : Reuss Voigt Hill
#
# Bulk Modulus (GPa) = 32.33264 33.21772 32.77518
# Shear Modulus (GPa) = 25.77112 31.40552 28.58832
#
# Velocity S-wave (km/s) = 3.22847 3.56396 3.40035
# Velocity P-wave (km/s) = 5.19366 5.51094 5.35465
#
# Compressibility (1/GPa) = 0.03092850
#
# Stress axis : x y z
#
# Youngs Moduli (GPa) = 75.96320 75.96107 78.14727
#
# Poissons Ratio (x) = 0.31354 -0.00114
# Poissons Ratio (y) = 0.31355 -0.00115
# Poissons Ratio (z) = -0.00111 -0.00112
#
# Static dielectric constant tensor:
#      x y z
#    x 1.262820 0.000000 0.000000 
#    y 0.000000 1.262890 0.000000 
#    z 0.000000 0.000000 1.949430 
# 
# From -- ./inp_files/4608.got.cif
#   From: 2010.05.17/outbox.cif.g08.bks.cpg/sg118_3_cif.got.tgz:4608.got - 2010.05.20 11:17:24.
