data_PCOD9558439
_publ_section_title
;
Structure prediction by ZEFSAII (Michael W. Deem and Ramdas Pophale) SiO2 
 PCOD9558439
Probable space group: P -4 N 2
;
_chemical_formula_sum "Si O2"
_cell_formula_units_Z 42
_cell_length_a 15.788221
_cell_length_b 15.788221
_cell_length_c 8.764277
_cell_angle_alpha 90.000000
_cell_angle_beta 90.000000
_cell_angle_gamma 90.000000
_cell_volume 2184.653119
_symmetry_space_group_name_H-M "P -4 N 2"
_symmetry_group_IT_number 118
_symmetry_cell_setting 'tetragonal'
loop_
_space_group_symop_operation_xyz
x,y,z
y,-x,-z
-x,-y,z
-y,x,-z
1/2+y,1/2+x,1/2-z
1/2-y,1/2-x,1/2-z
1/2-x,1/2+y,1/2+z
1/2+x,1/2-y,1/2+z
loop_
_atom_site_type_symbol
_atom_site_label
_atom_site_fract_x
_atom_site_fract_y
_atom_site_fract_z
Si Si1 0.000000 0.000000 0.500000
Si Si2 0.615926 0.417591 0.524892
Si Si3 0.120071 0.871262 0.629021
Si Si4 0.005659 0.253348 0.447378
Si Si5 0.441507 0.079675 0.071455
Si Si6 0.717468 0.897898 0.844389
O O1 0.958224 0.932386 0.390907
O O2 0.520891 0.387330 0.481536
O O3 0.643831 0.383798 0.691504
O O4 0.689663 0.386404 0.413266
O O5 0.209040 0.902499 0.560416
O O6 0.067000 0.803783 0.531363
O O7 0.000305 0.340123 0.536670
O O8 0.974329 0.272757 0.276182
O O9 0.420270 0.079731 0.250000
O O10 0.500000 0.000000 0.033019
O O11 0.355645 0.083931 0.970280
O O12 0.682066 0.817935 0.750000
#
# Coordination Sequence:
#
# PCOD9558439 Si02
#       6
#     2   8   8   8   8   8
#     4   8  16  28  50  84 116 168 190 232 300 368
#     4  11  21  34  61  92 125 166 211 256 316 383
#     4  10  19  33  57  88 130 161 204 252 311 378
#     4  10  21  37  62  93 125 168 206 262 318 374
#     4  10  22  44  71  88 117 171 220 265 318 376
#     4  10  22  40  61  89 127 167 210 264 314 364
#
# _framework density 19.225021000000002
#
# number of rings (size 3 to 8) (size 9 to 14) (size 15 to 20)
#    0.000    1.905    1.905    2.286    5.333    3.429 
#    0.000    3.810   12.571    0.000    0.000    0.000 
#    0.000    0.000    0.000    0.000    0.000    0.000 
#
# Total GULP energy -234090.848591 kJ/mol
# GULP energy per Si atom -5573.591633 kJ/mol
# Density = 1.918126 g / cm^3
# Si number density = 19.225021 Si / 1000 Ang^3
#
#
#
# Elastic Constant Matrix: (Units=GPa)
#
#
# Indices 1 2 3 4 5 6 
#
# 1 96.2556 49.5787 37.6904 0.0000 0.0000 0.0000
# 2 49.5787 96.2558 37.6906 0.0000 0.0000 0.0000
# 3 37.6904 37.6906 80.1243 0.0000 0.0000 0.0000
# 4 0.0000 0.0000 0.0000 -0.8669 0.0000 0.0000
# 5 0.0000 0.0000 0.0000 0.0000 -0.8774 0.0000
# 6 0.0000 0.0000 0.0000 0.0000 0.0000 23.0682
#
#
#
# Elastic Compliance Matrix: (Units=1/GPa)
#
#
# Indices 1 2 3 4 5 6 
#
# 1 0.015242 -0.006182 -0.004262 0.000000 0.000000 0.000000
# 2 -0.006182 0.015242 -0.004262 0.000000 0.000000 0.000000
# 3 -0.004262 -0.004262 0.016490 0.000000 0.000000 0.000000
# 4 0.000000 0.000000 0.000000 -1.153554 0.000000 0.000000
# 5 0.000000 0.000000 0.000000 0.000000 -1.139739 0.000000
# 6 0.000000 0.000000 0.000000 0.000000 0.000000 0.043350
#
#
# Mechanical properties :
#
#
# Convention : Reuss Voigt Hill
#
# Bulk Modulus (GPa) = 56.93841 58.06168 57.50004
# Shear Modulus (GPa) = -2.30659 14.10984 5.90162
#
# Velocity S-wave (km/s) = -1.09654 2.71205 1.75397
# Velocity P-wave (km/s) = 5.29886 6.33038 5.83745
#
# Compressibility (1/GPa) = 0.01756284
#
# Stress axis : x y z
#
# Youngs Moduli (GPa) = 65.60846 65.60851 60.64224
#
# Poissons Ratio (x) = 0.40559 0.25845
# Poissons Ratio (y) = 0.40559 0.25845
# Poissons Ratio (z) = 0.27961 0.27961
#
# Static dielectric constant tensor:
#      x y z
#    x 1.698090 0.000000 0.000000 
#    y 0.000000 1.698080 0.000000 
#    z 0.000000 0.000000 1.743720 
# 
# From -- ./inp_files/1948.got.cif
#   From: 2010.05.17/outbox.cif.g08.bks.cpg/sg118_1_cif.got.tgz:1948.got - 2010.05.20 11:17:24.
