data_PCOD9558725
_publ_section_title
;
Structure prediction by ZEFSAII (Michael W. Deem and Ramdas Pophale) SiO2 
 PCOD9558725
Probable space group: P -4 N 2
;
_chemical_formula_sum "Si O2"
_cell_formula_units_Z 38
_cell_length_a 9.038371
_cell_length_b 9.038371
_cell_length_c 22.085909
_cell_angle_alpha 90.000000
_cell_angle_beta 90.000000
_cell_angle_gamma 90.000000
_cell_volume 1804.245398
_symmetry_space_group_name_H-M "P -4 N 2"
_symmetry_group_IT_number 118
_symmetry_cell_setting 'tetragonal'
loop_
_space_group_symop_operation_xyz
x,y,z
y,-x,-z
-x,-y,z
-y,x,-z
1/2+y,1/2+x,1/2-z
1/2-y,1/2-x,1/2-z
1/2-x,1/2+y,1/2+z
1/2+x,1/2-y,1/2+z
loop_
_atom_site_type_symbol
_atom_site_label
_atom_site_fract_x
_atom_site_fract_y
_atom_site_fract_z
Si Si1 0.174624 0.490951 0.140333
Si Si2 0.772960 0.727041 0.250000
Si Si3 0.599383 0.279304 0.985567
Si Si4 0.500000 0.500000 0.500000
Si Si5 0.824309 0.531763 0.697179
Si Si6 0.702201 0.682619 0.583334
O O1 0.224601 0.408957 0.202075
O O2 0.227344 0.393536 0.083249
O O3 0.213580 0.656775 0.116717
O O4 0.000000 0.500000 0.145155
O O5 0.612098 0.735647 0.280909
O O6 0.432059 0.312590 0.005418
O O7 0.669176 0.169940 0.033561
O O8 0.559550 0.630191 0.544797
O O9 0.843192 0.656809 0.750000
O O10 0.738802 0.577197 0.638076
O O11 0.000000 0.500000 0.684317
#
# Coordination Sequence:
#
# PCOD9558725 Si02
#       6
#     8   4   8   2   8   8
#     4  11  24  43  65 100 131 179 225 284 339 400
#     4  10  24  44  72  94 144 178 234 282 336 402
#     4   9  21  40  68  98 130 170 222 284 340 411
#     4  12  28  44  64 104 140 176 220 302 348 428
#     4   9  23  45  67 101 133 183 227 282 348 410
#     4  11  25  43  68  98 137 176 229 272 358 412
#
# _framework density 21.061437999999999
#
# number of rings (size 3 to 8) (size 9 to 14) (size 15 to 20)
#    0.000    2.105    0.000    1.579   11.789    4.211 
#    0.000    0.000    0.000    0.000    0.000    0.000 
#    0.000    0.000    0.000    0.000    0.000    0.000 
#
# Total GULP energy -211587.442382 kJ/mol
# GULP energy per Si atom -5568.090589 kJ/mol
# Density = 2.101350 g / cm^3
# Si number density = 21.061438 Si / 1000 Ang^3
#
#
#
# Elastic Constant Matrix: (Units=GPa)
#
#
# Indices 1 2 3 4 5 6 
#
# 1 151.6732 -49.4518 74.3849 0.0000 0.0000 0.0000
# 2 -49.4518 151.6734 74.3846 0.0000 0.0000 0.0000
# 3 74.3849 74.3846 176.4477 0.0000 0.0000 0.0000
# 4 0.0000 0.0000 0.0000 -561.9592 0.0000 0.0000
# 5 0.0000 0.0000 0.0000 0.0000 -563.0860 0.0000
# 6 0.0000 0.0000 0.0000 0.0000 0.0000 127.5058
#
#
#
# Elastic Compliance Matrix: (Units=1/GPa)
#
#
# Indices 1 2 3 4 5 6 
#
# 1 0.015143 0.010171 -0.010671 0.000000 0.000000 0.000000
# 2 0.010171 0.015143 -0.010671 0.000000 0.000000 0.000000
# 3 -0.010671 -0.010671 0.014665 0.000000 0.000000 0.000000
# 4 0.000000 0.000000 0.000000 -0.001779 0.000000 0.000000
# 5 0.000000 0.000000 0.000000 0.000000 -0.001776 0.000000
# 6 0.000000 0.000000 0.000000 0.000000 0.000000 0.007843
#
#
# Mechanical properties :
#
#
# Convention : Reuss Voigt Hill
#
# Bulk Modulus (GPa) = 44.23563 75.38106 59.80835
# Shear Modulus (GPa) = 63.19775 -174.14279 -55.47252
#
# Velocity S-wave (km/s) = 5.48375 -9.10290 -5.13767
# Velocity P-wave (km/s) = 7.81947 8.63799 2.59527
#
# Compressibility (1/GPa) = 0.02260621
#
# Stress axis : x y z
#
# Youngs Moduli (GPa) = 66.03847 66.03868 68.19069
#
# Poissons Ratio (x) = -0.67166 0.72768
# Poissons Ratio (y) = -0.67165 0.72768
# Poissons Ratio (z) = 0.70472 0.70472
#
# Static dielectric constant tensor:
#      x y z
#    x 1.966190 0.000000 0.000000 
#    y 0.000000 1.966190 0.000000 
#    z 0.000000 0.000000 1.640790 
# 
# From -- ./inp_files/6103.got.cif
#   From: 2010.05.17/outbox.cif.g08.bks.cpg/sg118_4_cif.got.tgz:6103.got - 2010.05.20 11:17:24.
