data_PCOD9558808
_publ_section_title
;
Structure prediction by ZEFSAII (Michael W. Deem and Ramdas Pophale) SiO2 
 PCOD9558808
Probable space group: P -4 N 2
;
_chemical_formula_sum "Si O2"
_cell_formula_units_Z 40
_cell_length_a 12.372609
_cell_length_b 12.372609
_cell_length_c 13.846462
_cell_angle_alpha 90.000000
_cell_angle_beta 90.000000
_cell_angle_gamma 90.000000
_cell_volume 2119.636528
_symmetry_space_group_name_H-M "P -4 N 2"
_symmetry_group_IT_number 118
_symmetry_cell_setting 'tetragonal'
loop_
_space_group_symop_operation_xyz
x,y,z
y,-x,-z
-x,-y,z
-y,x,-z
1/2+y,1/2+x,1/2-z
1/2-y,1/2-x,1/2-z
1/2-x,1/2+y,1/2+z
1/2+x,1/2-y,1/2+z
loop_
_atom_site_type_symbol
_atom_site_label
_atom_site_fract_x
_atom_site_fract_y
_atom_site_fract_z
Si Si1 0.243047 0.436865 0.526721
Si Si2 0.453390 0.378249 0.638016
Si Si3 0.743047 0.063136 0.473279
Si Si4 0.592944 0.907056 0.360632
Si Si5 0.878249 0.953391 0.638016
O O1 0.332834 0.383520 0.595499
O O2 0.301045 0.476214 0.429731
O O3 0.147753 0.352247 0.507439
O O4 0.192065 0.539603 0.582558
O O5 0.500000 0.500000 0.629655
O O6 0.454749 0.346788 0.750000
O O7 0.832834 0.116481 0.404501
O O8 0.692065 0.960397 0.417441
O O9 0.801045 0.023787 0.570269
O O10 0.620604 0.879397 0.250000
O O11 0.500000 0.000000 0.357234
O O12 0.000000 0.000000 0.629655
#
# Coordination Sequence:
#
# PCOD9558808 Si02
#       5
#     8   8   8   8   8
#     4  11  22  40  63  90 125 160 201 253 300 361
#     4  11  23  41  62  87 122 161 203 253 306 361
#     4  11  22  40  63  90 125 160 201 253 300 361
#     4   9  20  38  61  91 121 154 200 249 298 355
#     4  11  23  41  62  87 122 161 203 253 306 361
#
# _framework density 18.871158999999999
#
# number of rings (size 3 to 8) (size 9 to 14) (size 15 to 20)
#    0.000    1.400    4.000    1.200    2.800    3.200 
#    0.000    0.000    0.000    3.600    0.000    0.000 
#    0.000    0.000    0.000    0.000    0.000    0.000 
#
# Total GULP energy -223596.629231 kJ/mol
# GULP energy per Si atom -5589.915731 kJ/mol
# Density = 1.882821 g / cm^3
# Si number density = 18.871159 Si / 1000 Ang^3
#
#
#
# Elastic Constant Matrix: (Units=GPa)
#
#
# Indices 1 2 3 4 5 6 
#
# 1 90.0184 33.8116 75.3846 0.0000 0.0000 0.0000
# 2 33.8116 90.0184 75.3846 0.0000 0.0000 0.0000
# 3 75.3846 75.3846 217.7958 0.0000 0.0000 0.0000
# 4 0.0000 0.0000 0.0000 16.2196 0.0000 0.0000
# 5 0.0000 0.0000 0.0000 0.0000 16.2197 0.0000
# 6 0.0000 0.0000 0.0000 0.0000 0.0000 39.6555
#
#
#
# Elastic Compliance Matrix: (Units=1/GPa)
#
#
# Indices 1 2 3 4 5 6 
#
# 1 0.015875 -0.001917 -0.004831 0.000000 0.000000 0.000000
# 2 -0.001917 0.015875 -0.004831 0.000000 0.000000 0.000000
# 3 -0.004831 -0.004831 0.007936 0.000000 0.000000 0.000000
# 4 0.000000 0.000000 0.000000 0.061654 0.000000 0.000000
# 5 0.000000 0.000000 0.000000 0.000000 0.061653 0.000000
# 6 0.000000 0.000000 0.000000 0.000000 0.000000 0.025217
#
#
# Mechanical properties :
#
#
# Convention : Reuss Voigt Hill
#
# Bulk Modulus (GPa) = 60.50792 85.22158 72.86475
# Shear Modulus (GPa) = 23.05461 28.63576 25.84518
#
# Velocity S-wave (km/s) = 3.49905 3.89965 3.70477
# Velocity P-wave (km/s) = 6.96116 8.09531 7.54957
#
# Compressibility (1/GPa) = 0.01652676
#
# Stress axis : x y z
#
# Youngs Moduli (GPa) = 62.99378 62.99381 126.01121
#
# Poissons Ratio (x) = 0.12075 0.60877
# Poissons Ratio (y) = 0.12075 0.60878
# Poissons Ratio (z) = 0.30433 0.30433
#
# Static dielectric constant tensor:
#      x y z
#    x 1.652700 0.000000 0.000000 
#    y 0.000000 1.652700 0.000000 
#    z 0.000000 0.000000 1.627560 
# 
# From -- ./inp_files/4049.got.cif
#   From: 2010.05.17/outbox.cif.g08.bks.cpg/sg118_3_cif.got.tgz:4049.got - 2010.05.20 11:17:24.
