data_PCOD9558647
_publ_section_title
;
Structure prediction by ZEFSAII (Michael W. Deem and Ramdas Pophale) SiO2 
 PCOD9558647
Probable space group: P -4 N 2
;
_chemical_formula_sum "Si O2"
_cell_formula_units_Z 48
_cell_length_a 14.189107
_cell_length_b 14.189107
_cell_length_c 11.906694
_cell_angle_alpha 90.000000
_cell_angle_beta 90.000000
_cell_angle_gamma 90.000000
_cell_volume 2397.183722
_symmetry_space_group_name_H-M "P -4 N 2"
_symmetry_group_IT_number 118
_symmetry_cell_setting 'tetragonal'
loop_
_space_group_symop_operation_xyz
x,y,z
y,-x,-z
-x,-y,z
-y,x,-z
1/2+y,1/2+x,1/2-z
1/2-y,1/2-x,1/2-z
1/2-x,1/2+y,1/2+z
1/2+x,1/2-y,1/2+z
loop_
_atom_site_type_symbol
_atom_site_label
_atom_site_fract_x
_atom_site_fract_y
_atom_site_fract_z
Si Si1 0.391564 0.108437 0.750000
Si Si2 0.567174 0.684796 0.751303
Si Si3 0.047758 0.139008 0.044418
Si Si4 0.248708 0.938276 0.304007
Si Si5 0.000000 0.500000 0.065074
Si Si6 0.413037 0.830704 0.421865
Si Si7 0.023995 0.843664 0.498827
O O1 0.402800 0.214162 0.704793
O O2 0.460427 0.080265 0.851588
O O3 0.483672 0.645309 0.674201
O O4 0.654395 0.612564 0.757320
O O5 0.538485 0.703720 0.879383
O O6 0.115174 0.050732 0.019608
O O7 0.088297 0.237025 0.998060
O O8 0.310843 0.864009 0.376117
O O9 0.306338 0.967479 0.194001
O O10 0.220410 0.018992 0.391399
O O11 0.959729 0.584189 0.989526
O O12 0.924069 0.897355 0.492166
#
# Coordination Sequence:
#
# PCOD9558647 Si02
#       7
#     4   8   8   8   4   8   8
#     4  11  22  38  60  92 124 165 222 262 318 395
#     4  11  21  39  64  91 126 170 215 267 326 385
#     4  11  24  39  65 100 130 164 212 277 330 383
#     4  10  22  38  62  88 126 170 213 260 324 393
#     4  11  24  39  62  90 126 171 217 266 320 386
#     4  11  22  41  61  91 127 166 216 261 326 390
#     4   9  20  36  60  91 127 171 219 267 322 387
#
# _framework density 20.023499000000001
#
# number of rings (size 3 to 8) (size 9 to 14) (size 15 to 20)
#    0.000    1.500    3.333    2.000    2.333    2.667 
#    0.000    0.000    0.000    0.000    0.000    0.000 
#    0.000    0.000    0.000    0.000    0.000    0.000 
#
# Total GULP energy -267956.761746 kJ/mol
# GULP energy per Si atom -5582.432536 kJ/mol
# Density = 1.997792 g / cm^3
# Si number density = 20.023499 Si / 1000 Ang^3
#
#
#
# Elastic Constant Matrix: (Units=GPa)
#
#
# Indices 1 2 3 4 5 6 
#
# 1 47.3943 -4.8778 18.1799 0.0000 0.0000 0.0000
# 2 -4.8778 47.3943 18.1796 0.0000 0.0000 0.0000
# 3 18.1799 18.1796 99.2026 0.0000 0.0000 0.0000
# 4 0.0000 0.0000 0.0000 37.1982 0.0000 0.0000
# 5 0.0000 0.0000 0.0000 0.0000 37.1989 0.0000
# 6 0.0000 0.0000 0.0000 0.0000 0.0000 6.9732
#
#
#
# Elastic Compliance Matrix: (Units=1/GPa)
#
#
# Indices 1 2 3 4 5 6 
#
# 1 0.023511 0.004380 -0.005111 0.000000 0.000000 0.000000
# 2 0.004380 0.023511 -0.005111 0.000000 0.000000 0.000000
# 3 -0.005111 -0.005111 0.011954 0.000000 0.000000 0.000000
# 4 0.000000 0.000000 0.000000 0.026883 0.000000 0.000000
# 5 0.000000 0.000000 0.000000 0.000000 0.026883 0.000000
# 6 0.000000 0.000000 0.000000 0.000000 0.000000 0.143407
#
#
# Mechanical properties :
#
#
# Convention : Reuss Voigt Hill
#
# Bulk Modulus (GPa) = 21.14557 28.55053 24.84805
# Shear Modulus (GPa) = 17.63069 27.10803 22.36936
#
# Velocity S-wave (km/s) = 2.97054 3.68341 3.34601
# Velocity P-wave (km/s) = 4.72745 5.69030 5.23107
#
# Compressibility (1/GPa) = 0.04729123
#
# Stress axis : x y z
#
# Youngs Moduli (GPa) = 42.53311 42.53328 83.65554
#
# Poissons Ratio (x) = -0.18631 0.42760
# Poissons Ratio (y) = -0.18631 0.42759
# Poissons Ratio (z) = 0.21740 0.21740
#
# Static dielectric constant tensor:
#      x y z
#    x 1.709770 0.000000 0.000000 
#    y 0.000000 1.709760 0.000000 
#    z 0.000000 0.000000 1.742440 
# 
# From -- ./inp_files/3371.got.cif
#   From: 2010.05.17/outbox.cif.g08.bks.cpg/sg118_2_cif.got.tgz:3371.got - 2010.05.20 11:17:24.
