data_PCOD9558324
_publ_section_title
;
Structure prediction by ZEFSAII (Michael W. Deem and Ramdas Pophale) SiO2 
 PCOD9558324
Probable space group: P -4 B 2
;
_chemical_formula_sum "Si O2"
_cell_formula_units_Z 34
_cell_length_a 9.066658
_cell_length_b 9.066658
_cell_length_c 18.700662
_cell_angle_alpha 90.000000
_cell_angle_beta 90.000000
_cell_angle_gamma 90.000000
_cell_volume 1537.274592
_symmetry_space_group_name_H-M "P -4 B 2"
_symmetry_group_IT_number 117
_symmetry_cell_setting 'tetragonal'
loop_
_space_group_symop_operation_xyz
x,y,z
y,-x,-z
-x,-y,z
-y,x,-z
1/2+y,1/2+x,-z
1/2-y,1/2-x,-z
1/2-x,1/2+y,z
1/2+x,1/2-y,z
loop_
_atom_site_type_symbol
_atom_site_label
_atom_site_fract_x
_atom_site_fract_y
_atom_site_fract_z
Si Si1 0.500000 0.500000 0.000000
Si Si2 0.642926 0.401537 0.668493
Si Si3 0.589646 0.658496 0.169214
Si Si4 0.638496 0.106974 0.580439
Si Si5 0.125036 0.292022 0.073160
O O1 0.623476 0.598284 0.957662
O O2 0.500000 0.500000 0.677875
O O3 0.698183 0.371618 0.749184
O O4 0.612933 0.247217 0.630421
O O5 0.741185 0.502464 0.616798
O O6 0.500000 0.500000 0.170029
O O7 0.727240 0.661095 0.114869
O O8 0.493704 0.790776 0.135760
O O9 0.665924 0.165924 0.500000
O O10 0.500000 0.000000 0.576783
O O11 0.116453 0.383548 0.000000
#
# Coordination Sequence:
#
# PCOD9558324 Si02
#       5
#     2   8   8   8   8
#     4  12  24  48  64 112 136 188 254 292 376 436
#     4  11  25  46  74 106 149 196 246 307 374 444
#     4  11  25  46  71 105 146 191 241 308 369 444
#     4  11  26  44  72 111 147 193 250 301 372 453
#     4  12  22  43  75  98 149 184 246 306 358 444
#
# _framework density 22.117066000000001
#
# number of rings (size 3 to 8) (size 9 to 14) (size 15 to 20)
#    0.000    0.706    3.529    2.824    6.588    1.882 
#    0.000    8.235    0.000    0.000    0.000    0.000 
#    0.000    0.000    0.000    0.000    0.000    0.000 
#
# Total GULP energy -189504.029199 kJ/mol
# GULP energy per Si atom -5573.647918 kJ/mol
# Density = 2.206673 g / cm^3
# Si number density = 22.117066 Si / 1000 Ang^3
#
#
#
# Elastic Constant Matrix: (Units=GPa)
#
#
# Indices 1 2 3 4 5 6 
#
# 1 84.8228 27.5093 59.1696 0.0000 0.0000 0.0000
# 2 27.5093 84.8218 59.1693 0.0000 0.0000 0.0000
# 3 59.1696 59.1693 238.1691 0.0000 0.0000 0.0000
# 4 0.0000 0.0000 0.0000 29.8005 0.0000 0.0000
# 5 0.0000 0.0000 0.0000 0.0000 29.8005 0.0000
# 6 0.0000 0.0000 0.0000 0.0000 0.0000 33.8967
#
#
#
# Elastic Compliance Matrix: (Units=1/GPa)
#
#
# Indices 1 2 3 4 5 6 
#
# 1 0.014753 -0.002695 -0.002996 0.000000 0.000000 0.000000
# 2 -0.002695 0.014753 -0.002996 0.000000 0.000000 0.000000
# 3 -0.002996 -0.002996 0.005687 0.000000 0.000000 0.000000
# 4 0.000000 0.000000 0.000000 0.033557 0.000000 0.000000
# 5 0.000000 0.000000 0.000000 0.000000 0.033556 0.000000
# 6 0.000000 0.000000 0.000000 0.000000 0.000000 0.029501
#
#
# Mechanical properties :
#
#
# Convention : Reuss Voigt Hill
#
# Bulk Modulus (GPa) = 56.11452 77.72334 66.91893
# Shear Modulus (GPa) = 32.23303 36.16391 34.19847
#
# Velocity S-wave (km/s) = 3.82171 4.04804 3.93650
# Velocity P-wave (km/s) = 6.70079 7.55427 7.14029
#
# Compressibility (1/GPa) = 0.01782070
#
# Stress axis : x y z
#
# Youngs Moduli (GPa) = 67.78296 67.78225 175.83534
#
# Poissons Ratio (x) = 0.18267 0.52674
# Poissons Ratio (y) = 0.18267 0.52674
# Poissons Ratio (z) = 0.20305 0.20305
#
# Static dielectric constant tensor:
#      x y z
#    x 1.945650 0.000000 0.000000 
#    y 0.000000 1.945650 0.000000 
#    z 0.000000 0.000000 1.905340 
# 
# From -- ./inp_files/3426.got.cif
#   From: 2010.05.17/outbox.cif.g08.bks.cpg/sg117_2_cif.got.tgz:3426.got - 2010.05.20 11:15:09.
