data_PCOD9558465
_publ_section_title
;
Structure prediction by ZEFSAII (Michael W. Deem and Ramdas Pophale) SiO2 
 PCOD9558465
Probable space group: P -4 N 2
;
_chemical_formula_sum "Si O2"
_cell_formula_units_Z 48
_cell_length_a 13.849118
_cell_length_b 13.849118
_cell_length_c 11.730252
_cell_angle_alpha 90.000000
_cell_angle_beta 90.000000
_cell_angle_gamma 90.000000
_cell_volume 2249.839687
_symmetry_space_group_name_H-M "P -4 N 2"
_symmetry_group_IT_number 118
_symmetry_cell_setting 'tetragonal'
loop_
_space_group_symop_operation_xyz
x,y,z
y,-x,-z
-x,-y,z
-y,x,-z
1/2+y,1/2+x,1/2-z
1/2-y,1/2-x,1/2-z
1/2-x,1/2+y,1/2+z
1/2+x,1/2-y,1/2+z
loop_
_atom_site_type_symbol
_atom_site_label
_atom_site_fract_x
_atom_site_fract_y
_atom_site_fract_z
Si Si1 0.633148 0.640050 0.258070
Si Si2 0.244513 0.814322 0.146375
Si Si3 0.267151 0.042092 0.754011
Si Si4 0.573455 0.915157 0.561289
Si Si5 0.279778 0.198892 0.426059
Si Si6 0.627074 0.528809 0.569033
O O1 0.691942 0.542861 0.237051
O O2 0.687137 0.708779 0.351143
O O3 0.635863 0.703969 0.144493
O O4 0.530694 0.614804 0.314995
O O5 0.318569 0.818569 0.250000
O O6 0.225617 0.915033 0.083996
O O7 0.144208 0.783089 0.211766
O O8 0.261993 0.738380 0.045619
O O9 0.338647 0.051385 0.645593
O O10 0.336398 0.019000 0.860852
O O11 0.625679 0.862775 0.456916
O O12 0.500000 0.000000 0.533098
O O13 0.609539 0.452109 0.467570
#
# Coordination Sequence:
#
# PCOD9558465 Si02
#       6
#     8   8   8   8   8   8
#     4  11  24  40  65  96 133 174 231 278 357 409
#     4  11  21  42  66  97 140 175 219 295 350 413
#     4  10  19  38  66  96 125 168 222 282 326 405
#     4  10  21  38  65  97 130 166 231 275 336 421
#     4  10  23  42  59  95 136 173 213 290 348 417
#     4  11  22  39  67  99 129 172 238 291 325 423
#
# _framework density 21.334852999999999
#
# number of rings (size 3 to 8) (size 9 to 14) (size 15 to 20)
#    0.000    1.500    5.000    3.000    7.000    0.000 
#    3.000    1.667    0.000    0.000    0.000    0.000 
#    0.000    0.000    0.000    0.000    0.000    0.000 
#
# Total GULP energy -267914.432452 kJ/mol
# GULP energy per Si atom -5581.550676 kJ/mol
# Density = 2.128629 g / cm^3
# Si number density = 21.334853 Si / 1000 Ang^3
#
#
#
# Elastic Constant Matrix: (Units=GPa)
#
#
# Indices 1 2 3 4 5 6 
#
# 1 54.1690 25.1644 32.9345 0.0000 0.0000 0.0000
# 2 25.1644 54.1690 32.9345 0.0000 0.0000 0.0000
# 3 32.9345 32.9345 112.2528 0.0000 0.0000 0.0000
# 4 0.0000 0.0000 0.0000 32.2027 0.0000 0.0000
# 5 0.0000 0.0000 0.0000 0.0000 32.2027 0.0000
# 6 0.0000 0.0000 0.0000 0.0000 0.0000 26.6430
#
#
#
# Elastic Compliance Matrix: (Units=1/GPa)
#
#
# Indices 1 2 3 4 5 6 
#
# 1 0.025571 -0.008906 -0.004889 0.000000 0.000000 0.000000
# 2 -0.008906 0.025571 -0.004889 0.000000 0.000000 0.000000
# 3 -0.004889 -0.004889 0.011777 0.000000 0.000000 0.000000
# 4 0.000000 0.000000 0.000000 0.031053 0.000000 0.000000
# 5 0.000000 0.000000 0.000000 0.000000 0.031053 0.000000
# 6 0.000000 0.000000 0.000000 0.000000 0.000000 0.037533
#
#
# Mechanical properties :
#
#
# Convention : Reuss Voigt Hill
#
# Bulk Modulus (GPa) = 39.13999 44.73972 41.93985
# Shear Modulus (GPa) = 23.98709 26.84686 25.41698
#
# Velocity S-wave (km/s) = 3.35672 3.55118 3.45532
# Velocity P-wave (km/s) = 5.78003 6.15063 5.96821
#
# Compressibility (1/GPa) = 0.02554932
#
# Stress axis : x y z
#
# Youngs Moduli (GPa) = 39.10694 39.10694 84.90796
#
# Poissons Ratio (x) = 0.34830 0.41514
# Poissons Ratio (y) = 0.34830 0.41514
# Poissons Ratio (z) = 0.19121 0.19121
#
# Static dielectric constant tensor:
#      x y z
#    x 1.822700 0.000000 0.000000 
#    y 0.000000 1.822700 0.000000 
#    z 0.000000 0.000000 1.785280 
# 
# From -- ./inp_files/3321.got.cif
#   From: 2010.05.17/outbox.cif.g08.bks.cpg/sg118_2_cif.got.tgz:3321.got - 2010.05.20 11:17:24.
