data_PCOD9558693
_publ_section_title
;
Structure prediction by ZEFSAII (Michael W. Deem and Ramdas Pophale) SiO2 
 PCOD9558693
Probable space group: P -4 N 2
;
_chemical_formula_sum "Si O2"
_cell_formula_units_Z 40
_cell_length_a 14.769913
_cell_length_b 14.769913
_cell_length_c 8.090312
_cell_angle_alpha 90.000000
_cell_angle_beta 90.000000
_cell_angle_gamma 90.000000
_cell_volume 1764.904233
_symmetry_space_group_name_H-M "P -4 N 2"
_symmetry_group_IT_number 118
_symmetry_cell_setting 'tetragonal'
loop_
_space_group_symop_operation_xyz
x,y,z
y,-x,-z
-x,-y,z
-y,x,-z
1/2+y,1/2+x,1/2-z
1/2-y,1/2-x,1/2-z
1/2-x,1/2+y,1/2+z
1/2+x,1/2-y,1/2+z
loop_
_atom_site_type_symbol
_atom_site_label
_atom_site_fract_x
_atom_site_fract_y
_atom_site_fract_z
Si Si1 0.790090 0.342660 0.067370
Si Si2 0.953834 0.868350 0.068386
Si Si3 0.090731 0.900745 0.557724
Si Si4 0.904628 0.528530 0.062156
Si Si5 0.831890 0.714530 0.062197
O O1 0.811170 0.311170 0.250000
O O2 0.847243 0.435610 0.051590
O O3 0.688642 0.369387 0.018747
O O4 0.790047 0.245188 0.975898
O O5 0.929387 0.875760 0.262262
O O6 0.925510 0.766658 0.026347
O O7 0.895591 0.943516 0.969952
O O8 0.983049 0.890461 0.565722
O O9 0.935748 0.564253 0.250000
O O10 0.847208 0.613150 0.988799
O O11 0.000000 0.500000 0.981795
O O12 0.808549 0.691452 0.250000
#
# Coordination Sequence:
#
# PCOD9558693 Si02
#       5
#     8   8   8   8   8
#     4  12  25  41  73 104 141 196 246 303 376 461
#     4  11  25  44  69 101 144 197 241 305 386 450
#     4  11  24  42  67 101 145 183 242 318 364 444
#     4  10  22  45  72 103 138 195 255 306 375 460
#     4  11  25  44  69 104 143 185 251 313 370 465
#
# _framework density 22.66412
#
# number of rings (size 3 to 8) (size 9 to 14) (size 15 to 20)
#    0.000    1.000    4.000    3.600   11.200    0.000 
#    0.000    0.000    0.000    0.000    0.000    0.000 
#    0.000    0.000    0.000    0.000    0.000    0.000 
#
# Total GULP energy -222709.926178 kJ/mol
# GULP energy per Si atom -5567.748154 kJ/mol
# Density = 2.261254 g / cm^3
# Si number density = 22.664120 Si / 1000 Ang^3
#
#
#
# Elastic Constant Matrix: (Units=GPa)
#
#
# Indices 1 2 3 4 5 6 
#
# 1 83.4455 33.3034 26.6841 0.0000 0.0000 0.0000
# 2 33.3034 83.4466 26.6837 0.0000 0.0000 0.0000
# 3 26.6841 26.6837 23.7225 0.0000 0.0000 0.0000
# 4 0.0000 0.0000 0.0000 16.1812 0.0000 0.0000
# 5 0.0000 0.0000 0.0000 0.0000 16.1816 0.0000
# 6 0.0000 0.0000 0.0000 0.0000 0.0000 52.3134
#
#
#
# Elastic Compliance Matrix: (Units=1/GPa)
#
#
# Indices 1 2 3 4 5 6 
#
# 1 0.018787 -0.001156 -0.019832 0.000000 0.000000 0.000000
# 2 -0.001156 0.018786 -0.019831 0.000000 0.000000 0.000000
# 3 -0.019832 -0.019831 0.086768 0.000000 0.000000 0.000000
# 4 0.000000 0.000000 0.000000 0.061800 0.000000 0.000000
# 5 0.000000 0.000000 0.000000 0.000000 0.061799 0.000000
# 6 0.000000 0.000000 0.000000 0.000000 0.000000 0.019116
#
#
# Mechanical properties :
#
#
# Convention : Reuss Voigt Hill
#
# Bulk Modulus (GPa) = 23.41727 40.43967 31.92847
# Shear Modulus (GPa) = 13.77678 23.86479 18.82079
#
# Velocity S-wave (km/s) = 2.46817 3.24848 2.88483
# Velocity P-wave (km/s) = 4.29852 5.65260 5.02141
#
# Compressibility (1/GPa) = 0.04270353
#
# Stress axis : x y z
#
# Youngs Moduli (GPa) = 53.22773 53.22977 11.52495
#
# Poissons Ratio (x) = 0.06155 0.22856
# Poissons Ratio (y) = 0.06154 0.22855
# Poissons Ratio (z) = 1.05562 1.05559
#
# Static dielectric constant tensor:
#      x y z
#    x 2.049500 0.000000 0.000000 
#    y 0.000000 2.049500 0.000000 
#    z 0.000000 0.000000 1.851810 
# 
# From -- ./inp_files/1865.got.cif
#   From: 2010.05.17/outbox.cif.g08.bks.cpg/sg118_1_cif.got.tgz:1865.got - 2010.05.20 11:17:24.
