data_PCOD9558195
_publ_section_title
;
Structure prediction by ZEFSAII (Michael W. Deem and Ramdas Pophale) SiO2 
 PCOD9558195
Probable space group: P -4 B 2
;
_chemical_formula_sum "Si O2"
_cell_formula_units_Z 36
_cell_length_a 11.570624
_cell_length_b 11.570624
_cell_length_c 12.950978
_cell_angle_alpha 90.000000
_cell_angle_beta 90.000000
_cell_angle_gamma 90.000000
_cell_volume 1733.868384
_symmetry_space_group_name_H-M "P -4 B 2"
_symmetry_group_IT_number 117
_symmetry_cell_setting 'tetragonal'
loop_
_space_group_symop_operation_xyz
x,y,z
y,-x,-z
-x,-y,z
-y,x,-z
1/2+y,1/2+x,-z
1/2-y,1/2-x,-z
1/2-x,1/2+y,z
1/2+x,1/2-y,z
loop_
_atom_site_type_symbol
_atom_site_label
_atom_site_fract_x
_atom_site_fract_y
_atom_site_fract_z
Si Si1 0.376596 0.667033 0.651582
Si Si2 0.342971 0.478222 0.814959
Si Si3 0.879610 0.249587 0.694496
Si Si4 0.000000 0.000000 0.500000
Si Si5 0.387869 0.078509 0.885042
Si Si6 0.500000 0.500000 0.000000
O O1 0.381343 0.599946 0.762627
O O2 0.243346 0.711775 0.641826
O O3 0.489982 0.751362 0.645724
O O4 0.407394 0.570827 0.566954
O O5 0.358756 0.381883 0.728849
O O6 0.213193 0.494024 0.849668
O O7 0.409328 0.448354 0.919846
O O8 0.891323 0.323422 0.798817
O O9 0.500000 0.000000 0.885334
O O10 0.371667 0.128334 0.000000
#
# Coordination Sequence:
#
# PCOD9558195 Si02
#       6
#     8   8   8   2   8   2
#     4  11  24  41  70  92 134 163 229 272 344 400
#     4  11  21  38  60  91 126 176 219 264 327 397
#     4  11  21  42  63  97 127 181 210 285 330 395
#     4  12  22  48  68  98 120 172 218 284 352 426
#     4  10  22  37  55  91 134 173 220 272 317 385
#     4  12  18  32  64  86 132 176 234 260 308 410
#
# _framework density 20.762823000000001
#
# number of rings (size 3 to 8) (size 9 to 14) (size 15 to 20)
#    0.000    1.111    4.444    2.667    0.000    0.889 
#    8.000    0.000    0.000    0.000    5.778    0.000 
#    0.000    0.000    0.000    0.000    0.000    0.000 
#
# Total GULP energy -200594.735542 kJ/mol
# GULP energy per Si atom -5572.075987 kJ/mol
# Density = 2.071557 g / cm^3
# Si number density = 20.762823 Si / 1000 Ang^3
#
#
#
# Elastic Constant Matrix: (Units=GPa)
#
#
# Indices 1 2 3 4 5 6 
#
# 1 98.9833 43.3312 22.5165 0.0000 0.0000 0.0000
# 2 43.3312 98.9835 22.5166 0.0000 0.0000 0.0000
# 3 22.5165 22.5166 55.2683 0.0000 0.0000 0.0000
# 4 0.0000 0.0000 0.0000 40.5110 0.0000 0.0000
# 5 0.0000 0.0000 0.0000 0.0000 40.5085 0.0000
# 6 0.0000 0.0000 0.0000 0.0000 0.0000 35.8484
#
#
#
# Elastic Compliance Matrix: (Units=1/GPa)
#
#
# Indices 1 2 3 4 5 6 
#
# 1 0.013018 -0.004951 -0.003286 0.000000 0.000000 0.000000
# 2 -0.004951 0.013018 -0.003286 0.000000 0.000000 0.000000
# 3 -0.003286 -0.003286 0.020771 0.000000 0.000000 0.000000
# 4 0.000000 0.000000 0.000000 0.024685 0.000000 0.000000
# 5 0.000000 0.000000 0.000000 0.000000 0.024686 0.000000
# 6 0.000000 0.000000 0.000000 0.000000 0.000000 0.027895
#
#
# Mechanical properties :
#
#
# Convention : Reuss Voigt Hill
#
# Bulk Modulus (GPa) = 42.08921 47.77373 44.93147
# Shear Modulus (GPa) = 32.24972 34.36496 33.30734
#
# Velocity S-wave (km/s) = 3.94540 4.07273 4.00957
# Velocity P-wave (km/s) = 6.40861 6.72126 6.56680
#
# Compressibility (1/GPa) = 0.02375906
#
# Stress axis : x y z
#
# Youngs Moduli (GPa) = 76.81853 76.81868 48.14327
#
# Poissons Ratio (x) = 0.38034 0.15822
# Poissons Ratio (y) = 0.38033 0.15822
# Poissons Ratio (z) = 0.25245 0.25245
#
# Static dielectric constant tensor:
#      x y z
#    x 1.774260 0.000000 0.000000 
#    y 0.000000 1.774260 0.000000 
#    z 0.000000 0.000000 1.739650 
# 
# From -- ./inp_files/2566.got.cif
#   From: 2010.05.17/outbox.cif.g08.bks.cpg/sg117_2_cif.got.tgz:2566.got - 2010.05.20 11:15:09.
