data_PCOD9558453
_publ_section_title
;
Structure prediction by ZEFSAII (Michael W. Deem and Ramdas Pophale) SiO2 
 PCOD9558453
Probable space group: P -4 N 2
;
_chemical_formula_sum "Si O2"
_cell_formula_units_Z 56
_cell_length_a 11.024717
_cell_length_b 11.024717
_cell_length_c 24.203242
_cell_angle_alpha 90.000000
_cell_angle_beta 90.000000
_cell_angle_gamma 90.000000
_cell_volume 2941.768162
_symmetry_space_group_name_H-M "P -4 N 2"
_symmetry_group_IT_number 118
_symmetry_cell_setting 'tetragonal'
loop_
_space_group_symop_operation_xyz
x,y,z
y,-x,-z
-x,-y,z
-y,x,-z
1/2+y,1/2+x,1/2-z
1/2-y,1/2-x,1/2-z
1/2-x,1/2+y,1/2+z
1/2+x,1/2-y,1/2+z
loop_
_atom_site_type_symbol
_atom_site_label
_atom_site_fract_x
_atom_site_fract_y
_atom_site_fract_z
Si Si1 0.780361 0.770007 0.620495
Si Si2 0.611895 0.096957 0.850780
Si Si3 0.363428 0.548998 0.332516
Si Si4 0.639029 0.006250 0.424741
Si Si5 0.800386 0.328657 0.494652
Si Si6 0.894922 0.672892 0.030895
Si Si7 0.946951 0.263526 0.278849
O O1 0.676167 0.669511 0.636323
O O2 0.914873 0.714954 0.617971
O O3 0.753468 0.822569 0.559346
O O4 0.768803 0.870087 0.667257
O O5 0.616826 0.150806 0.912182
O O6 0.575362 0.190250 0.802626
O O7 0.500000 0.000000 0.850679
O O8 0.745822 0.037092 0.845729
O O9 0.500000 0.500000 0.344765
O O10 0.342884 0.559469 0.266258
O O11 0.635322 0.085016 0.480757
O O12 0.500000 0.000000 0.405206
O O13 0.686631 0.881001 0.450188
O O14 0.816844 0.461663 0.470496
O O15 0.666005 0.299596 0.515739
O O16 0.877423 0.377423 0.250000
#
# Coordination Sequence:
#
# PCOD9558453 Si02
#       7
#     8   8   8   8   8   8   8
#     4  10  19  37  64  82 118 166 197 250 313 368
#     4  12  19  36  66  92 116 158 212 252 303 375
#     4  11  24  37  58  95 131 146 197 272 325 360
#     4   9  19  34  55  79 119 161 207 232 288 380
#     4  10  19  36  51  89 117 155 199 247 294 367
#     4  10  20  32  57  84 120 153 197 253 297 363
#     4  10  20  37  65  90 114 154 212 258 310 373
#
# _framework density 19.036172000000001
#
# number of rings (size 3 to 8) (size 9 to 14) (size 15 to 20)
#    0.000    1.714    4.286    2.571    0.000    3.714 
#    2.571    0.000    3.143    6.857    0.000    0.000 
#    0.000    0.000    0.000    0.000    0.000    0.000 
#
# Total GULP energy -311779.086996 kJ/mol
# GULP energy per Si atom -5567.483696 kJ/mol
# Density = 1.899284 g / cm^3
# Si number density = 19.036172 Si / 1000 Ang^3
#
#
#
# Elastic Constant Matrix: (Units=GPa)
#
#
# Indices 1 2 3 4 5 6 
#
# 1 54.3816 35.3242 13.1473 0.0000 0.0000 0.0000
# 2 35.3242 54.3816 13.1473 0.0000 0.0000 0.0000
# 3 13.1473 13.1473 45.9139 0.0000 0.0000 0.0000
# 4 0.0000 0.0000 0.0000 20.5965 0.0000 0.0000
# 5 0.0000 0.0000 0.0000 0.0000 20.5965 0.0000
# 6 0.0000 0.0000 0.0000 0.0000 0.0000 27.1525
#
#
#
# Elastic Compliance Matrix: (Units=1/GPa)
#
#
# Indices 1 2 3 4 5 6 
#
# 1 0.032321 -0.020152 -0.003485 0.000000 0.000000 0.000000
# 2 -0.020152 0.032321 -0.003485 0.000000 0.000000 0.000000
# 3 -0.003485 -0.003485 0.023775 0.000000 0.000000 0.000000
# 4 0.000000 0.000000 0.000000 0.048552 0.000000 0.000000
# 5 0.000000 0.000000 0.000000 0.000000 0.048552 0.000000
# 6 0.000000 0.000000 0.000000 0.000000 0.000000 0.036829
#
#
# Mechanical properties :
#
#
# Convention : Reuss Voigt Hill
#
# Bulk Modulus (GPa) = 29.26097 30.87939 30.07018
# Shear Modulus (GPa) = 17.36205 19.87298 18.61751
#
# Velocity S-wave (km/s) = 3.02330 3.23454 3.13070
# Velocity P-wave (km/s) = 5.25279 5.49603 5.37578
#
# Compressibility (1/GPa) = 0.03417522
#
# Stress axis : x y z
#
# Youngs Moduli (GPa) = 30.93962 30.93962 42.06019
#
# Poissons Ratio (x) = 0.62350 0.14656
# Poissons Ratio (y) = 0.62350 0.14656
# Poissons Ratio (z) = 0.10781 0.10781
#
# Static dielectric constant tensor:
#      x y z
#    x 1.725950 0.000000 0.000000 
#    y 0.000000 1.725950 0.000000 
#    z 0.000000 0.000000 1.707430 
# 
# From -- ./inp_files/6214.got.cif
#   From: 2010.05.17/outbox.cif.g08.bks.cpg/sg118_4_cif.got.tgz:6214.got - 2010.05.20 11:17:24.
