data_PCOD9558638
_publ_section_title
;
Structure prediction by ZEFSAII (Michael W. Deem and Ramdas Pophale) SiO2 
 PCOD9558638
Probable space group: P -4 N 2
;
_chemical_formula_sum "Si O2"
_cell_formula_units_Z 52
_cell_length_a 18.857723
_cell_length_b 18.857723
_cell_length_c 6.476173
_cell_angle_alpha 90.000000
_cell_angle_beta 90.000000
_cell_angle_gamma 90.000000
_cell_volume 2303.015951
_symmetry_space_group_name_H-M "P -4 N 2"
_symmetry_group_IT_number 118
_symmetry_cell_setting 'tetragonal'
loop_
_space_group_symop_operation_xyz
x,y,z
y,-x,-z
-x,-y,z
-y,x,-z
1/2+y,1/2+x,1/2-z
1/2-y,1/2-x,1/2-z
1/2-x,1/2+y,1/2+z
1/2+x,1/2-y,1/2+z
loop_
_atom_site_type_symbol
_atom_site_label
_atom_site_fract_x
_atom_site_fract_y
_atom_site_fract_z
Si Si1 0.359657 0.029353 0.744958
Si Si2 0.732968 0.681978 0.097097
Si Si3 0.500000 0.500000 0.750188
Si Si4 0.591176 0.732447 0.986403
Si Si5 0.160054 0.412735 0.915873
Si Si6 0.254038 0.011817 0.124588
Si Si7 0.661731 0.537679 0.264587
O O1 0.436034 0.063967 0.750000
O O2 0.310368 0.081131 0.606741
O O3 0.360253 0.956875 0.616700
O O4 0.318161 0.022458 0.961367
O O5 0.754914 0.745087 0.250000
O O6 0.669397 0.704026 0.946997
O O7 0.703652 0.609302 0.202728
O O8 0.806186 0.660812 0.986567
O O9 0.500000 0.500000 0.500000
O O10 0.542899 0.421826 0.750412
O O11 0.500000 0.500000 0.000000
O O12 0.578907 0.735208 0.233358
O O13 0.528666 0.686628 0.879991
O O14 0.098582 0.401419 0.750000
O O15 0.220549 0.454969 0.792562
O O16 0.188245 0.984371 0.992187
#
# Coordination Sequence:
#
# PCOD9558638 Si02
#       7
#     8   8   4   8   8   8   8
#     4  10  23  45  72 102 141 186 243 313 380 466
#     4  12  25  44  71 109 145 195 254 312 384 474
#     4  12  30  46  72 112 150 210 270 330 404 478
#     4  10  24  43  69 102 142 191 250 306 382 467
#     4  11  24  45  73 103 147 193 241 311 385 466
#     4  10  21  45  72  95 144 196 232 307 383 452
#     4  11  24  48  70 103 152 199 251 320 387 468
#
# _framework density 22.579087000000001
#
# number of rings (size 3 to 8) (size 9 to 14) (size 15 to 20)
#    0.000    1.231    4.615    1.846    6.462    3.692 
#    5.538    2.308    0.000    0.000    0.000    0.000 
#    0.000    0.000    0.000    0.000    0.000    0.000 
#
# Total GULP energy -289611.419282 kJ/mol
# GULP energy per Si atom -5569.450371 kJ/mol
# Density = 2.252770 g / cm^3
# Si number density = 22.579087 Si / 1000 Ang^3
#
#
#
# Elastic Constant Matrix: (Units=GPa)
#
#
# Indices 1 2 3 4 5 6 
#
# 1 57.7975 40.2219 12.1022 0.0000 0.0000 0.0000
# 2 40.2219 57.7951 12.0999 0.0000 0.0000 0.0000
# 3 12.1022 12.0999 123.6307 0.0000 0.0000 0.0000
# 4 0.0000 0.0000 0.0000 -18.5865 0.0000 0.0000
# 5 0.0000 0.0000 0.0000 0.0000 -18.6002 0.0000
# 6 0.0000 0.0000 0.0000 0.0000 0.0000 34.7835
#
#
#
# Elastic Compliance Matrix: (Units=1/GPa)
#
#
# Indices 1 2 3 4 5 6 
#
# 1 0.033677 -0.023223 -0.001024 0.000000 0.000000 0.000000
# 2 -0.023223 0.033678 -0.001023 0.000000 0.000000 0.000000
# 3 -0.001024 -0.001023 0.008289 0.000000 0.000000 0.000000
# 4 0.000000 0.000000 0.000000 -0.053803 0.000000 0.000000
# 5 0.000000 0.000000 0.000000 0.000000 -0.053763 0.000000
# 6 0.000000 0.000000 0.000000 0.000000 0.000000 0.028749
#
#
# Mechanical properties :
#
#
# Convention : Reuss Voigt Hill
#
# Bulk Modulus (GPa) = 39.83214 40.89679 40.36447
# Shear Modulus (GPa) = 89.70803 11.17265 50.44034
#
# Velocity S-wave (km/s) = 6.31006 2.22687 4.73159
# Velocity P-wave (km/s) = 8.41241 4.97634 6.91131
#
# Compressibility (1/GPa) = 0.02510536
#
# Stress axis : x y z
#
# Youngs Moduli (GPa) = 29.69357 29.69254 120.64272
#
# Poissons Ratio (x) = 0.68955 0.12351
# Poissons Ratio (y) = 0.68957 0.12340
# Poissons Ratio (z) = 0.03040 0.03037
#
# Static dielectric constant tensor:
#      x y z
#    x 1.897650 0.000000 0.000000 
#    y 0.000000 1.897640 0.000000 
#    z 0.000000 0.000000 1.823860 
# 
# From -- ./inp_files/872.got.cif
#   From: 2010.05.17/outbox.cif.g08.bks.cpg/sg118_1_cif.got.tgz:872.got - 2010.05.20 11:17:24.
