data_PCOD9558384
_publ_section_title
;
Structure prediction by ZEFSAII (Michael W. Deem and Ramdas Pophale) SiO2 
 PCOD9558384
Probable space group: P -4 N 2
;
_chemical_formula_sum "Si O2"
_cell_formula_units_Z 36
_cell_length_a 14.023789
_cell_length_b 14.023789
_cell_length_c 9.185733
_cell_angle_alpha 90.000000
_cell_angle_beta 90.000000
_cell_angle_gamma 90.000000
_cell_volume 1806.527410
_symmetry_space_group_name_H-M "P -4 N 2"
_symmetry_group_IT_number 118
_symmetry_cell_setting 'tetragonal'
loop_
_space_group_symop_operation_xyz
x,y,z
y,-x,-z
-x,-y,z
-y,x,-z
1/2+y,1/2+x,1/2-z
1/2-y,1/2-x,1/2-z
1/2-x,1/2+y,1/2+z
1/2+x,1/2-y,1/2+z
loop_
_atom_site_type_symbol
_atom_site_label
_atom_site_fract_x
_atom_site_fract_y
_atom_site_fract_z
Si Si1 0.148268 0.556764 0.965520
Si Si2 0.146515 0.806578 0.714735
Si Si3 0.454231 0.792236 0.762309
Si Si4 0.265132 0.007402 0.065959
Si Si5 0.883222 0.616779 0.750000
O O1 0.251443 0.587480 0.906854
O O2 0.072973 0.639162 0.929765
O O3 0.115759 0.464520 0.874284
O O4 0.162708 0.533559 0.133976
O O5 0.232313 0.732313 0.750000
O O6 0.200228 0.901943 0.668493
O O7 0.074702 0.811507 0.853041
O O8 0.376222 0.876222 0.750000
O O9 0.484576 0.756329 0.603209
O O10 0.288255 0.911360 0.158787
#
# Coordination Sequence:
#
# PCOD9558384 Si02
#       5
#     8   8   8   8   4
#     4  10  18  31  52  77 108 134 165 210 269 306
#     4   8  19  36  49  69 110 146 158 203 273 318
#     4  11  20  31  54  81 104 128 180 222 247 306
#     4  10  18  31  52  77 108 134 165 210 269 306
#     4  10  17  28  48  80 106 132 154 203 270 321
#
# _framework density 19.927734999999998
#
# number of rings (size 3 to 8) (size 9 to 14) (size 15 to 20)
#    0.000    2.222    2.222    4.000    0.000    0.889 
#    0.000    4.444    0.000    4.000    0.000    0.000 
#    0.000    0.000    0.000    0.000    0.000    0.000 
#
# Total GULP energy -200439.152378 kJ/mol
# GULP energy per Si atom -5567.754233 kJ/mol
# Density = 1.988238 g / cm^3
# Si number density = 19.927735 Si / 1000 Ang^3
#
#
#
# Elastic Constant Matrix: (Units=GPa)
#
#
# Indices 1 2 3 4 5 6 
#
# 1 4.0865 6.9579 4.3208 0.0000 0.0000 0.0000
# 2 6.9579 4.0864 4.3207 0.0000 0.0000 0.0000
# 3 4.3208 4.3207 79.3330 0.0000 0.0000 0.0000
# 4 0.0000 0.0000 0.0000 11.4615 0.0000 0.0000
# 5 0.0000 0.0000 0.0000 0.0000 11.4615 0.0000
# 6 0.0000 0.0000 0.0000 0.0000 0.0000 4.4110
#
#
#
# Elastic Compliance Matrix: (Units=1/GPa)
#
#
# Indices 1 2 3 4 5 6 
#
# 1 -0.126838 0.221413 -0.005151 0.000000 0.000000 0.000000
# 2 0.221413 -0.126840 -0.005151 0.000000 0.000000 0.000000
# 3 -0.005151 -0.005151 0.013166 0.000000 0.000000 0.000000
# 4 0.000000 0.000000 0.000000 0.087249 0.000000 0.000000
# 5 0.000000 0.000000 0.000000 0.000000 0.087248 0.000000
# 6 0.000000 0.000000 0.000000 0.000000 0.000000 0.226708
#
#
# Mechanical properties :
#
#
# Convention : Reuss Voigt Hill
#
# Bulk Modulus (GPa) = 5.50325 13.18943 9.34634
# Shear Modulus (GPa) = -24.88072 10.26056 -7.31008
#
# Velocity S-wave (km/s) = -3.53731 2.27158 -1.91736
# Velocity P-wave (km/s) = 3.73039 3.67601 0.44875
#
# Compressibility (1/GPa) = 0.18171075
#
# Stress axis : x y z
#
# Youngs Moduli (GPa) = -7.88407 -7.88396 75.95222
#
# Poissons Ratio (x) = 1.74561 0.39121
# Poissons Ratio (y) = 1.74564 0.39123
# Poissons Ratio (z) = -0.04061 -0.04061
#
# Static dielectric constant tensor:
#      x y z
#    x 1.720700 0.000000 0.000000 
#    y 0.000000 1.720700 0.000000 
#    z 0.000000 0.000000 1.745520 
# 
# From -- ./inp_files/1753.got.cif
#   From: 2010.05.17/outbox.cif.g08.bks.cpg/sg118_1_cif.got.tgz:1753.got - 2010.05.20 11:17:24.
