data_PCOD9558995
_publ_section_title
;
Structure prediction by ZEFSAII (Michael W. Deem and Ramdas Pophale) SiO2 
 PCOD9558995
Probable space group: I -4 M 2
;
_chemical_formula_sum "Si O2"
_cell_formula_units_Z 72
_cell_length_a 13.972915
_cell_length_b 13.972915
_cell_length_c 20.949026
_cell_angle_alpha 90.000000
_cell_angle_beta 90.000000
_cell_angle_gamma 90.000000
_cell_volume 4090.137142
_symmetry_space_group_name_H-M "I -4 M 2"
_symmetry_group_IT_number 119
_symmetry_cell_setting 'tetragonal'
loop_
_space_group_symop_operation_xyz
x,y,z
y,-x,-z
-x,-y,z
-y,x,-z
y,x,-z
-y,-x,-z
-x,y,z
x,-y,z
1/2+x,1/2+y,1/2+z
1/2+y,1/2-x,1/2-z
1/2-x,1/2-y,1/2+z
1/2-y,1/2+x,1/2-z
1/2+y,1/2+x,1/2-z
1/2-y,1/2-x,1/2-z
1/2-x,1/2+y,1/2+z
1/2+x,1/2-y,1/2+z
loop_
_atom_site_type_symbol
_atom_site_label
_atom_site_fract_x
_atom_site_fract_y
_atom_site_fract_z
Si Si1 0.213369 0.713369 0.250000
Si Si2 0.888574 0.885726 0.200913
Si Si3 0.108323 0.383433 0.514532
Si Si4 0.388609 0.884928 0.631026
Si Si5 0.385245 0.303616 0.434964
O O1 0.183402 0.823672 0.243430
O O2 0.162298 0.670532 0.312644
O O3 0.862209 0.858428 0.127865
O O4 0.000000 0.862790 0.213864
O O5 0.876501 0.000000 0.207915
O O6 0.105456 0.500000 0.514359
O O7 0.135635 0.356100 0.441660
O O8 0.192765 0.352366 0.561800
O O9 0.000000 0.350777 0.528517
O O10 0.500000 0.856139 0.636812
O O11 0.385036 0.000000 0.637619
O O12 0.351685 0.351685 0.500000
O O13 0.500000 0.302231 0.435473
#
# Coordination Sequence:
#
# PCOD9558995 Si02
#       5
#     8  16  16  16  16
#     4  12  20  31  50  67  92 134 174 204 250 312
#     4  10  22  37  51  72 101 130 165 211 257 302
#     4   8  15  28  45  68  99 128 154 190 235 284
#     4   9  16  25  42  73 105 127 154 197 249 305
#     4  10  18  29  48  73 101 133 165 199 249 309
#
# _framework density 17.603321000000001
#
# number of rings (size 3 to 8) (size 9 to 14) (size 15 to 20)
#    0.000    2.444    0.000    5.333    0.000    3.778 
#    0.000    1.111    0.000    1.667    0.000    0.000 
#    0.000    0.444    0.000    1.111    0.000    0.000 
#
# Total GULP energy -200720.908007 kJ/mol
# GULP energy per Si atom -5575.580778 kJ/mol
# Density = 1.756326 g / cm^3
# Si number density = 17.603321 Si / 1000 Ang^3
#
#
#
# Elastic Constant Matrix: (Units=GPa)
#
#
# Indices 1 2 3 4 5 6 
#
# 1 54.0309 37.3212 26.0164 0.0000 0.0000 0.0000
# 2 37.3212 54.0309 26.0164 0.0000 0.0000 0.0000
# 3 26.0164 26.0164 26.0991 0.0000 0.0000 0.0000
# 4 0.0000 0.0000 0.0000 20.8013 0.0000 0.0000
# 5 0.0000 0.0000 0.0000 0.0000 20.8013 0.0000
# 6 0.0000 0.0000 0.0000 0.0000 0.0000 20.3624
#
#
#
# Elastic Compliance Matrix: (Units=1/GPa)
#
#
# Indices 1 2 3 4 5 6 
#
# 1 0.042586 -0.017259 -0.025247 0.000000 0.000000 0.000000
# 2 -0.017259 0.042586 -0.025247 0.000000 0.000000 0.000000
# 3 -0.025247 -0.025247 0.088649 0.000000 0.000000 0.000000
# 4 0.000000 0.000000 0.000000 0.048074 0.000000 0.000000
# 5 0.000000 0.000000 0.000000 0.000000 0.048074 0.000000
# 6 0.000000 0.000000 0.000000 0.000000 0.000000 0.049110
#
#
# Mechanical properties :
#
#
# Convention : Reuss Voigt Hill
#
# Bulk Modulus (GPa) = 26.09876 34.76321 30.43099
# Shear Modulus (GPa) = 10.69849 15.38011 13.03930
#
# Velocity S-wave (km/s) = 2.46794 2.95906 2.72459
# Velocity P-wave (km/s) = 4.79366 5.60943 5.21751
#
# Compressibility (1/GPa) = 0.03831599
#
# Stress axis : x y z
#
# Youngs Moduli (GPa) = 23.48182 23.48182 11.28050
#
# Poissons Ratio (x) = 0.40528 0.28479
# Poissons Ratio (y) = 0.40528 0.28479
# Poissons Ratio (z) = 0.59283 0.59283
#
# Static dielectric constant tensor:
#      x y z
#    x 1.625970 0.000000 0.000000 
#    y 0.000000 1.625970 0.000000 
#    z 0.000000 0.000000 1.595750 
# 
# From -- ./inp_files/6407.got.cif
#   From: 2010.05.17/outbox.cif.g08.bks.cpg/sg119_4_cif.got.tgz:6407.got - 2010.05.20 11:21:29.
