data_PCOD9558719
_publ_section_title
;
Structure prediction by ZEFSAII (Michael W. Deem and Ramdas Pophale) SiO2 
 PCOD9558719
Probable space group: P -4 N 2
;
_chemical_formula_sum "Si O2"
_cell_formula_units_Z 28
_cell_length_a 8.079929
_cell_length_b 8.079929
_cell_length_c 20.580098
_cell_angle_alpha 90.000000
_cell_angle_beta 90.000000
_cell_angle_gamma 90.000000
_cell_volume 1343.576897
_symmetry_space_group_name_H-M "P -4 N 2"
_symmetry_group_IT_number 118
_symmetry_cell_setting 'tetragonal'
loop_
_space_group_symop_operation_xyz
x,y,z
y,-x,-z
-x,-y,z
-y,x,-z
1/2+y,1/2+x,1/2-z
1/2-y,1/2-x,1/2-z
1/2-x,1/2+y,1/2+z
1/2+x,1/2-y,1/2+z
loop_
_atom_site_type_symbol
_atom_site_label
_atom_site_fract_x
_atom_site_fract_y
_atom_site_fract_z
Si Si1 0.699837 0.996455 0.593801
Si Si2 0.654164 0.658693 0.372740
Si Si3 0.000000 0.000000 0.000000
Si Si4 0.500000 0.500000 0.000000
Si Si5 0.819440 0.792825 0.820049
O O1 0.740668 0.168062 0.630048
O O2 0.822123 0.993358 0.534285
O O3 0.500000 0.000000 0.581402
O O4 0.745656 0.835571 0.634634
O O5 0.613818 0.599776 0.447704
O O6 0.670493 0.493517 0.328164
O O7 0.497144 0.760839 0.348044
O O8 0.777188 0.722813 0.750000
#
# Coordination Sequence:
#
# PCOD9558719 Si02
#       5
#     8   8   2   2   8
#     4  10  24  41  60  92 126 169 202 260 326 365
#     4   9  20  35  66  93 117 178 202 256 319 373
#     4   8  16  32  62  88 116 156 224 234 300 388
#     4  12  28  36  62 104 128 156 224 270 296 400
#     4   9  19  39  64  93 123 163 215 256 308 380
#
# _framework density 20.839891999999999
#
# number of rings (size 3 to 8) (size 9 to 14) (size 15 to 20)
#    0.000    2.857    0.000    0.000   12.000    7.429 
#    0.000    0.000    0.000    8.571    0.000    0.000 
#    0.000    0.000    0.000    0.000    0.000    0.000 
#
# Total GULP energy -155886.779680 kJ/mol
# GULP energy per Si atom -5567.384989 kJ/mol
# Density = 2.079246 g / cm^3
# Si number density = 20.839892 Si / 1000 Ang^3
#
#
#
# Elastic Constant Matrix: (Units=GPa)
#
#
# Indices 1 2 3 4 5 6 
#
# 1 81.4902 70.0660 49.7849 0.0000 0.0000 0.0000
# 2 70.0660 81.4869 49.7855 0.0000 0.0000 0.0000
# 3 49.7849 49.7855 76.2720 0.0000 0.0000 0.0000
# 4 0.0000 0.0000 0.0000 0.4275 0.0000 0.0000
# 5 0.0000 0.0000 0.0000 0.0000 0.4271 0.0000
# 6 0.0000 0.0000 0.0000 0.0000 0.0000 -12.2529
#
#
#
# Elastic Compliance Matrix: (Units=1/GPa)
#
#
# Indices 1 2 3 4 5 6 
#
# 1 0.049547 -0.037997 -0.007539 0.000000 0.000000 0.000000
# 2 -0.037997 0.049551 -0.007542 0.000000 0.000000 0.000000
# 3 -0.007539 -0.007542 0.022955 0.000000 0.000000 0.000000
# 4 0.000000 0.000000 0.000000 2.339059 0.000000 0.000000
# 5 0.000000 0.000000 0.000000 0.000000 2.341542 0.000000
# 6 0.000000 0.000000 0.000000 0.000000 0.000000 -0.081613
#
#
# Mechanical properties :
#
#
# Convention : Reuss Voigt Hill
#
# Bulk Modulus (GPa) = 62.90375 64.28021 63.59198
# Shear Modulus (GPa) = 1.03466 2.36119 1.69793
#
# Velocity S-wave (km/s) = 0.70538 1.06559 0.90361
# Velocity P-wave (km/s) = 5.55997 5.69436 5.62756
#
# Compressibility (1/GPa) = 0.01589730
#
# Stress axis : x y z
#
# Youngs Moduli (GPa) = 20.18278 20.18105 43.56344
#
# Poissons Ratio (x) = 0.76682 0.32842
# Poissons Ratio (y) = 0.76688 0.32857
# Poissons Ratio (z) = 0.15216 0.15221
#
# Static dielectric constant tensor:
#      x y z
#    x 1.831880 0.000000 0.000000 
#    y 0.000000 1.831880 0.000000 
#    z 0.000000 0.000000 1.738040 
# 
# From -- ./inp_files/5235.got.cif
#   From: 2010.05.17/outbox.cif.g08.bks.cpg/sg118_3_cif.got.tgz:5235.got - 2010.05.20 11:17:24.
