data_PCOD9558113
_publ_section_title
;
Structure prediction by ZEFSAII (Michael W. Deem and Ramdas Pophale) SiO2 
 PCOD9558113
Probable space group: P -4 B 2
;
_chemical_formula_sum "Si O2"
_cell_formula_units_Z 60
_cell_length_a 14.338695
_cell_length_b 14.338695
_cell_length_c 15.715710
_cell_angle_alpha 90.000000
_cell_angle_beta 90.000000
_cell_angle_gamma 90.000000
_cell_volume 3231.121284
_symmetry_space_group_name_H-M "P -4 B 2"
_symmetry_group_IT_number 117
_symmetry_cell_setting 'tetragonal'
loop_
_space_group_symop_operation_xyz
x,y,z
y,-x,-z
-x,-y,z
-y,x,-z
1/2+y,1/2+x,-z
1/2-y,1/2-x,-z
1/2-x,1/2+y,z
1/2+x,1/2-y,z
loop_
_atom_site_type_symbol
_atom_site_label
_atom_site_fract_x
_atom_site_fract_y
_atom_site_fract_z
Si Si1 0.223138 0.529412 0.476297
Si Si2 0.238012 0.230888 0.285337
Si Si3 0.211332 0.848167 0.543060
Si Si4 0.122633 0.592555 0.639715
Si Si5 0.255071 0.244930 0.000000
Si Si6 0.800218 0.622683 0.151608
Si Si7 0.715695 0.898857 0.134499
Si Si8 0.394242 0.010218 0.822479
O O1 0.284317 0.622402 0.473762
O O2 0.292076 0.445470 0.495058
O O3 0.156013 0.535175 0.558345
O O4 0.157518 0.536588 0.392646
O O5 0.156238 0.226238 0.355230
O O6 0.333867 0.204067 0.334041
O O7 0.240921 0.329043 0.236463
O O8 0.231583 0.150502 0.213284
O O9 0.299402 0.799402 0.500000
O O10 0.104142 0.529817 0.721345
O O11 0.175390 0.257090 0.929013
O O12 0.354210 0.253620 0.951844
O O13 0.786893 0.510788 0.145125
O O14 0.910838 0.648765 0.155192
O O15 0.608343 0.860809 0.139632
O O16 0.500000 0.000000 0.853483
#
# Coordination Sequence:
#
# PCOD9558113 Si02
#       8
#     8   8   8   8   4   8   8   8
#     4  10  20  34  53  78 114 154 194 243 288 337
#     4   9  18  35  54  81 111 147 190 226 286 343
#     4  11  21  36  56  82 112 157 198 243 290 343
#     4   9  17  35  51  78 117 145 186 246 289 332
#     4  10  22  36  56  90 110 150 184 220 292 350
#     4  10  20  35  59  89 109 148 189 227 295 361
#     4   9  20  36  56  83 115 143 175 237 285 338
#     4   9  18  32  53  86 112 139 178 235 292 347
#
# _framework density 18.569406000000001
#
# number of rings (size 3 to 8) (size 9 to 14) (size 15 to 20)
#    0.000    2.400    2.667    0.800    1.867    5.600 
#    0.000    1.333    0.000    0.400    0.000    0.000 
#    0.000    0.000    0.000    0.000    0.000    0.000 
#
# Total GULP energy -334097.944788 kJ/mol
# GULP energy per Si atom -5568.299080 kJ/mol
# Density = 1.852714 g / cm^3
# Si number density = 18.569406 Si / 1000 Ang^3
#
#
#
# Elastic Constant Matrix: (Units=GPa)
#
#
# Indices 1 2 3 4 5 6 
#
# 1 73.6260 11.4011 34.2537 0.0000 0.0000 0.0000
# 2 11.4011 73.6257 34.2535 0.0000 0.0000 0.0000
# 3 34.2537 34.2535 99.2680 0.0000 0.0000 0.0000
# 4 0.0000 0.0000 0.0000 21.6617 0.0000 0.0000
# 5 0.0000 0.0000 0.0000 0.0000 21.6617 0.0000
# 6 0.0000 0.0000 0.0000 0.0000 0.0000 15.3665
#
#
#
# Elastic Compliance Matrix: (Units=1/GPa)
#
#
# Indices 1 2 3 4 5 6 
#
# 1 0.016180 0.000110 -0.005621 0.000000 0.000000 0.000000
# 2 0.000110 0.016180 -0.005621 0.000000 0.000000 0.000000
# 3 -0.005621 -0.005621 0.013953 0.000000 0.000000 0.000000
# 4 0.000000 0.000000 0.000000 0.046164 0.000000 0.000000
# 5 0.000000 0.000000 0.000000 0.000000 0.046164 0.000000
# 6 0.000000 0.000000 0.000000 0.000000 0.000000 0.065077
#
#
# Mechanical properties :
#
#
# Convention : Reuss Voigt Hill
#
# Bulk Modulus (GPa) = 41.58237 45.14847 43.36542
# Shear Modulus (GPa) = 21.36750 22.84541 22.10645
#
# Velocity S-wave (km/s) = 3.39585 3.51133 3.45407
# Velocity P-wave (km/s) = 6.14958 6.38791 6.26988
#
# Compressibility (1/GPa) = 0.02404865
#
# Stress axis : x y z
#
# Youngs Moduli (GPa) = 61.80344 61.80329 71.66946
#
# Poissons Ratio (x) = -0.00677 0.40286
# Poissons Ratio (y) = -0.00677 0.40286
# Poissons Ratio (z) = 0.34740 0.34740
#
# Static dielectric constant tensor:
#      x y z
#    x 1.662520 0.000000 0.000000 
#    y 0.000000 1.662530 0.000000 
#    z 0.000000 0.000000 1.684000 
# 
# From -- ./inp_files/3284.got.cif
#   From: 2010.05.17/outbox.cif.g08.bks.cpg/sg117_2_cif.got.tgz:3284.got - 2010.05.20 11:15:09.
