data_PCOD9558394
_publ_section_title
;
Structure prediction by ZEFSAII (Michael W. Deem and Ramdas Pophale) SiO2 
 PCOD9558394
Probable space group: P -4 N 2
;
_chemical_formula_sum "Si O2"
_cell_formula_units_Z 58
_cell_length_a 16.582040
_cell_length_b 16.582040
_cell_length_c 9.814731
_cell_angle_alpha 90.000000
_cell_angle_beta 90.000000
_cell_angle_gamma 90.000000
_cell_volume 2698.698191
_symmetry_space_group_name_H-M "P -4 N 2"
_symmetry_group_IT_number 118
_symmetry_cell_setting 'tetragonal'
loop_
_space_group_symop_operation_xyz
x,y,z
y,-x,-z
-x,-y,z
-y,x,-z
1/2+y,1/2+x,1/2-z
1/2-y,1/2-x,1/2-z
1/2-x,1/2+y,1/2+z
1/2+x,1/2-y,1/2+z
loop_
_atom_site_type_symbol
_atom_site_label
_atom_site_fract_x
_atom_site_fract_y
_atom_site_fract_z
Si Si1 0.871287 0.448107 0.873907
Si Si2 0.000000 0.000000 0.000000
Si Si3 0.387573 0.436535 0.304590
Si Si4 0.743595 0.624088 0.504836
Si Si5 0.816751 0.085934 0.545560
Si Si6 0.768750 0.299479 0.909662
Si Si7 0.201806 0.984395 0.256594
Si Si8 0.920809 0.624597 0.403734
O O1 0.932284 0.432284 0.750000
O O2 0.840747 0.362029 0.932732
O O3 0.789368 0.481251 0.801417
O O4 0.899245 0.505380 0.997095
O O5 0.074903 0.004400 0.899902
O O6 0.306418 0.408670 0.376906
O O7 0.370239 0.462784 0.152287
O O8 0.448741 0.360550 0.298319
O O9 0.728994 0.719866 0.501408
O O10 0.714628 0.581496 0.640524
O O11 0.837199 0.605673 0.480147
O O12 0.837065 0.180621 0.563882
O O13 0.829408 0.056357 0.394228
O O14 0.723026 0.076650 0.592420
O O15 0.773891 0.273891 0.750000
O O16 0.911410 0.588591 0.250000
#
# Coordination Sequence:
#
# PCOD9558394 Si02
#       8
#     8   2   8   8   8   8   8   8
#     4  10  21  40  69 105 135 174 226 296 359 417
#     4  12  28  36  62  96 136 192 226 268 344 428
#     4  12  21  43  60  92 139 180 226 273 343 408
#     4  11  21  40  70  97 132 183 237 279 335 423
#     4  10  20  37  67  96 136 172 223 284 339 411
#     4  10  17  36  69  98 128 178 225 278 344 409
#     4  11  24  38  65 104 135 179 233 281 346 419
#     4  10  20  39  70 109 126 179 236 288 353 419
#
# _framework density 21.491844
#
# number of rings (size 3 to 8) (size 9 to 14) (size 15 to 20)
#    0.000    1.379    5.517    1.655    0.000    6.069 
#    0.000    2.759    0.000    5.793    3.586    0.000 
#    0.000    0.000    0.000    0.000    0.000    0.000 
#
# Total GULP energy -324088.464266 kJ/mol
# GULP energy per Si atom -5587.732143 kJ/mol
# Density = 2.144293 g / cm^3
# Si number density = 21.491844 Si / 1000 Ang^3
#
#
#
# Elastic Constant Matrix: (Units=GPa)
#
#
# Indices 1 2 3 4 5 6 
#
# 1 37.8151 -3.0381 28.5643 0.0000 0.0000 0.0000
# 2 -3.0381 37.8152 28.5643 0.0000 0.0000 0.0000
# 3 28.5643 28.5643 156.6928 0.0000 0.0000 0.0000
# 4 0.0000 0.0000 0.0000 33.0126 0.0000 0.0000
# 5 0.0000 0.0000 0.0000 0.0000 33.0128 0.0000
# 6 0.0000 0.0000 0.0000 0.0000 0.0000 21.7529
#
#
#
# Elastic Compliance Matrix: (Units=1/GPa)
#
#
# Indices 1 2 3 4 5 6 
#
# 1 0.032762 0.008284 -0.007483 0.000000 0.000000 0.000000
# 2 0.008284 0.032762 -0.007483 0.000000 0.000000 0.000000
# 3 -0.007483 -0.007483 0.009110 0.000000 0.000000 0.000000
# 4 0.000000 0.000000 0.000000 0.030291 0.000000 0.000000
# 5 0.000000 0.000000 0.000000 0.000000 0.030291 0.000000
# 6 0.000000 0.000000 0.000000 0.000000 0.000000 0.045971
#
#
# Mechanical properties :
#
#
# Convention : Reuss Voigt Hill
#
# Bulk Modulus (GPa) = 16.32057 37.83378 27.07718
# Shear Modulus (GPa) = 23.25869 29.43784 26.34827
#
# Velocity S-wave (km/s) = 3.29327 3.70499 3.50518
# Velocity P-wave (km/s) = 4.69799 5.99538 5.38590
#
# Compressibility (1/GPa) = 0.06127236
#
# Stress axis : x y z
#
# Youngs Moduli (GPa) = 30.52313 30.52316 109.76995
#
# Poissons Ratio (x) = -0.25286 0.82136
# Poissons Ratio (y) = -0.25286 0.82136
# Poissons Ratio (z) = 0.22839 0.22839
#
# Static dielectric constant tensor:
#      x y z
#    x 1.820990 0.000000 0.000000 
#    y 0.000000 1.820990 0.000000 
#    z 0.000000 0.000000 1.745120 
# 
# From -- ./inp_files/2224.got.cif
#   From: 2010.05.17/outbox.cif.g08.bks.cpg/sg118_2_cif.got.tgz:2224.got - 2010.05.20 11:17:24.
