data_PCOD9558030
_publ_section_title
;
Structure prediction by ZEFSAII (Michael W. Deem and Ramdas Pophale) SiO2 
 PCOD9558030
Probable space group: P -4 C 2
;
_chemical_formula_sum "Si O2"
_cell_formula_units_Z 38
_cell_length_a 8.603287
_cell_length_b 8.603287
_cell_length_c 22.241451
_cell_angle_alpha 90.000000
_cell_angle_beta 90.000000
_cell_angle_gamma 90.000000
_cell_volume 1646.235408
_symmetry_space_group_name_H-M "P -4 C 2"
_symmetry_group_IT_number 116
_symmetry_cell_setting 'tetragonal'
loop_
_space_group_symop_operation_xyz
x,y,z
y,-x,-z
-x,-y,z
-y,x,-z
y,x,1/2-z
-y,-x,1/2-z
-x,y,1/2+z
x,-y,1/2+z
loop_
_atom_site_type_symbol
_atom_site_label
_atom_site_fract_x
_atom_site_fract_y
_atom_site_fract_z
Si Si1 0.708454 0.590251 0.406391
Si Si2 0.942603 0.265806 0.818597
Si Si3 0.000000 0.500000 0.217855
Si Si4 0.000000 0.000000 0.250000
Si Si5 0.460917 0.820438 0.460304
Si Si6 0.701439 0.742731 0.855076
O O1 0.857261 0.669645 0.376259
O O2 0.578668 0.720843 0.418580
O O3 0.750362 0.534813 0.473410
O O4 0.665916 0.442295 0.364526
O O5 0.898386 0.091377 0.801518
O O6 0.914167 0.383062 0.763736
O O7 0.129383 0.256369 0.824912
O O8 0.864699 0.409677 0.180590
O O9 0.299672 0.802979 0.424056
O O10 0.500000 0.000000 0.463052
#
# Coordination Sequence:
#
# PCOD9558030 Si02
#       6
#     8   8   4   2   8   8
#     4  12  27  49  78 111 151 206 258 322 397 469
#     4  12  27  48  76 110 151 206 256 314 389 463
#     4  12  24  48  74 108 154 200 254 322 380 458
#     4  12  28  48  72 112 162 200 260 324 388 476
#     4  12  27  48  74 110 155 195 253 320 387 466
#     4  12  24  47  75 107 150 198 253 321 382 459
#
# _framework density 23.082968000000001
#
# number of rings (size 3 to 8) (size 9 to 14) (size 15 to 20)
#    0.000    0.000    7.368    1.895    5.895    0.000 
#    0.000    0.000    0.000    0.000    0.000    0.000 
#    0.000    0.000    0.000    0.000    0.000    0.000 
#
# Total GULP energy -211587.071916 kJ/mol
# GULP energy per Si atom -5568.080840 kJ/mol
# Density = 2.303043 g / cm^3
# Si number density = 23.082968 Si / 1000 Ang^3
#
#
#
# Elastic Constant Matrix: (Units=GPa)
#
#
# Indices 1 2 3 4 5 6 
#
# 1 90.7540 43.7349 32.7711 0.0000 0.0000 0.0000
# 2 43.7349 90.7540 32.7711 0.0000 0.0000 0.0000
# 3 32.7711 32.7711 110.1297 0.0000 0.0000 0.0000
# 4 0.0000 0.0000 0.0000 40.2329 0.0000 0.0000
# 5 0.0000 0.0000 0.0000 0.0000 40.2329 0.0000
# 6 0.0000 0.0000 0.0000 0.0000 0.0000 38.1291
#
#
#
# Elastic Compliance Matrix: (Units=1/GPa)
#
#
# Indices 1 2 3 4 5 6 
#
# 1 0.014982 -0.006286 -0.002588 0.000000 0.000000 0.000000
# 2 -0.006286 0.014982 -0.002588 0.000000 0.000000 0.000000
# 3 -0.002588 -0.002588 0.010620 0.000000 0.000000 0.000000
# 4 0.000000 0.000000 0.000000 0.024855 0.000000 0.000000
# 5 0.000000 0.000000 0.000000 0.000000 0.024855 0.000000
# 6 0.000000 0.000000 0.000000 0.000000 0.000000 0.026227
#
#
# Mechanical properties :
#
#
# Convention : Reuss Voigt Hill
#
# Bulk Modulus (GPa) = 56.61767 56.68797 56.65282
# Shear Modulus (GPa) = 34.40391 35.87637 35.14014
#
# Velocity S-wave (km/s) = 3.86482 3.94666 3.90595
# Velocity P-wave (km/s) = 6.67060 6.73645 6.70361
#
# Compressibility (1/GPa) = 0.01766233
#
# Stress axis : x y z
#
# Youngs Moduli (GPa) = 66.74528 66.74528 94.15892
#
# Poissons Ratio (x) = 0.41953 0.24367
# Poissons Ratio (y) = 0.41953 0.24367
# Poissons Ratio (z) = 0.17273 0.17273
#
# Static dielectric constant tensor:
#      x y z
#    x 1.960900 0.000000 0.000000 
#    y 0.000000 1.960900 0.000000 
#    z 0.000000 0.000000 1.854990 
# 
# From -- ./inp_files/4492.got.cif
#   From: 2010.05.17/outbox.cif.g08.bks.cpg/sg116_3_cif.got.tgz:4492.got - 2010.05.20 11:11:43.
