data_PCOD9558641
_publ_section_title
;
Structure prediction by ZEFSAII (Michael W. Deem and Ramdas Pophale) SiO2 
 PCOD9558641
Probable space group: P -4 N 2
;
_chemical_formula_sum "Si O2"
_cell_formula_units_Z 48
_cell_length_a 8.194049
_cell_length_b 8.194049
_cell_length_c 31.306755
_cell_angle_alpha 90.000000
_cell_angle_beta 90.000000
_cell_angle_gamma 90.000000
_cell_volume 2102.011888
_symmetry_space_group_name_H-M "P -4 N 2"
_symmetry_group_IT_number 118
_symmetry_cell_setting 'tetragonal'
loop_
_space_group_symop_operation_xyz
x,y,z
y,-x,-z
-x,-y,z
-y,x,-z
1/2+y,1/2+x,1/2-z
1/2-y,1/2-x,1/2-z
1/2-x,1/2+y,1/2+z
1/2+x,1/2-y,1/2+z
loop_
_atom_site_type_symbol
_atom_site_label
_atom_site_fract_x
_atom_site_fract_y
_atom_site_fract_z
Si Si1 0.677856 0.924314 0.002930
Si Si2 0.722900 0.649367 0.294921
Si Si3 0.825337 0.144933 0.070678
Si Si4 0.859531 0.806767 0.829017
Si Si5 0.474844 0.309933 0.058211
Si Si6 0.690485 0.458137 0.849145
O O1 0.640908 0.742664 0.019651
O O2 0.500000 0.000000 0.008524
O O3 0.802601 0.997430 0.037413
O O4 0.734056 0.945159 0.954513
O O5 0.807090 0.692911 0.250000
O O6 0.743975 0.460508 0.310058
O O7 0.526847 0.685520 0.301302
O O8 0.795538 0.793275 0.323246
O O9 0.848394 0.111009 0.120476
O O10 0.652899 0.233983 0.064502
O O11 0.782772 0.622048 0.831066
O O12 0.500000 0.500000 0.056582
O O13 0.404330 0.250686 0.103707
O O14 0.500000 0.500000 0.851817
#
# Coordination Sequence:
#
# PCOD9558641 Si02
#       6
#     8   8   8   8   8   8
#     4  10  22  36  59  95 134 175 238 280 322 406
#     4  11  25  45  74 103 131 178 233 295 373 438
#     4  10  22  39  60  93 133 182 225 279 349 392
#     4  10  24  47  70 100 142 182 232 292 358 449
#     4   9  20  37  62  91 131 183 227 279 331 399
#     4  10  22  43  69 102 139 183 232 281 363 427
#
# _framework density 22.835265
#
# number of rings (size 3 to 8) (size 9 to 14) (size 15 to 20)
#    0.000    2.000    0.000    1.500    7.000    9.000 
#    6.000    0.833    0.000    0.000    0.000    0.000 
#    0.000    0.000    0.000    0.000    0.000    0.000 
#
# Total GULP energy -267382.259043 kJ/mol
# GULP energy per Si atom -5570.463730 kJ/mol
# Density = 2.278329 g / cm^3
# Si number density = 22.835265 Si / 1000 Ang^3
#
#
#
# Elastic Constant Matrix: (Units=GPa)
#
#
# Indices 1 2 3 4 5 6 
#
# 1 44.3992 -2.6550 13.7314 0.0000 0.0000 0.0000
# 2 -2.6550 44.3994 13.7317 0.0000 0.0000 0.0000
# 3 13.7314 13.7317 116.4730 0.0000 0.0000 0.0000
# 4 0.0000 0.0000 0.0000 45.9441 0.0000 0.0000
# 5 0.0000 0.0000 0.0000 0.0000 45.9478 0.0000
# 6 0.0000 0.0000 0.0000 0.0000 0.0000 29.3448
#
#
#
# Elastic Compliance Matrix: (Units=1/GPa)
#
#
# Indices 1 2 3 4 5 6 
#
# 1 0.023611 0.002359 -0.003062 0.000000 0.000000 0.000000
# 2 0.002359 0.023611 -0.003062 0.000000 0.000000 0.000000
# 3 -0.003062 -0.003062 0.009308 0.000000 0.000000 0.000000
# 4 0.000000 0.000000 0.000000 0.021766 0.000000 0.000000
# 5 0.000000 0.000000 0.000000 0.000000 0.021764 0.000000
# 6 0.000000 0.000000 0.000000 0.000000 0.000000 0.034078
#
#
# Mechanical properties :
#
#
# Convention : Reuss Voigt Hill
#
# Bulk Modulus (GPa) = 20.40814 28.32087 24.36450
# Shear Modulus (GPa) = 31.64581 36.27824 33.96203
#
# Velocity S-wave (km/s) = 3.72671 3.99017 3.86069
# Velocity P-wave (km/s) = 5.24160 5.80153 5.52866
#
# Compressibility (1/GPa) = 0.04900007
#
# Stress axis : x y z
#
# Youngs Moduli (GPa) = 42.35342 42.35349 107.43923
#
# Poissons Ratio (x) = -0.09990 0.32894
# Poissons Ratio (y) = -0.09990 0.32895
# Poissons Ratio (z) = 0.12967 0.12967
#
# Static dielectric constant tensor:
#      x y z
#    x 1.851500 0.000000 0.000000 
#    y 0.000000 1.851510 0.000000 
#    z 0.000000 0.000000 1.937070 
# 
# From -- ./inp_files/6888.got.cif
#   From: 2010.05.17/outbox.cif.g08.bks.cpg/sg118_4_cif.got.tgz:6888.got - 2010.05.20 11:17:24.
