data_PCOD9558064
_publ_section_title
;
Structure prediction by ZEFSAII (Michael W. Deem and Ramdas Pophale) SiO2 
 PCOD9558064
Probable space group: P -4 B 2
;
_chemical_formula_sum "Si O2"
_cell_formula_units_Z 38
_cell_length_a 13.905698
_cell_length_b 13.905698
_cell_length_c 11.113351
_cell_angle_alpha 90.000000
_cell_angle_beta 90.000000
_cell_angle_gamma 90.000000
_cell_volume 2148.971311
_symmetry_space_group_name_H-M "P -4 B 2"
_symmetry_group_IT_number 117
_symmetry_cell_setting 'tetragonal'
loop_
_space_group_symop_operation_xyz
x,y,z
y,-x,-z
-x,-y,z
-y,x,-z
1/2+y,1/2+x,-z
1/2-y,1/2-x,-z
1/2-x,1/2+y,z
1/2+x,1/2-y,z
loop_
_atom_site_type_symbol
_atom_site_label
_atom_site_fract_x
_atom_site_fract_y
_atom_site_fract_z
Si Si1 0.769056 0.269056 0.500000
Si Si2 0.701473 0.856060 0.135815
Si Si3 0.896667 0.549716 0.134197
Si Si4 0.000000 0.500000 0.500000
Si Si5 0.305950 0.053442 0.646559
Si Si6 0.860618 0.745843 0.269500
O O1 0.878743 0.260519 0.455173
O O2 0.746201 0.201047 0.610008
O O3 0.622868 0.824885 0.237968
O O4 0.804012 0.815958 0.179061
O O5 0.686158 0.970239 0.135517
O O6 0.678271 0.821730 0.000000
O O7 0.867925 0.639499 0.214051
O O8 0.000000 0.500000 0.165664
O O9 0.912611 0.587390 0.000000
O O10 0.990633 0.403839 0.415661
O O11 0.235879 0.969983 0.692044
#
# Coordination Sequence:
#
# PCOD9558064 Si02
#       6
#     4   8   8   2   8   8
#     4   9  23  35  51  82 118 146 200 254 296 366
#     4  11  21  34  56  90 123 152 198 251 315 375
#     4  11  19  36  62  90 120 155 199 260 309 362
#     4  10  18  32  62  84 108 152 196 250 308 348
#     4  10  19  35  54  82 114 149 195 250 301 361
#     4  11  21  35  57  86 117 157 198 257 308 371
#
# _framework density 17.682879
#
# number of rings (size 3 to 8) (size 9 to 14) (size 15 to 20)
#    0.000    1.474    4.211    2.526    0.000    3.368 
#    0.000    0.000    0.000   10.737    0.000    5.895 
#    0.000    0.000    0.000    0.000    0.000    0.000 
#
# Total GULP energy -211739.424049 kJ/mol
# GULP energy per Si atom -5572.090107 kJ/mol
# Density = 1.764263 g / cm^3
# Si number density = 17.682879 Si / 1000 Ang^3
#
#
#
# Elastic Constant Matrix: (Units=GPa)
#
#
# Indices 1 2 3 4 5 6 
#
# 1 95.4297 58.0180 48.9767 0.0000 0.0000 0.0000
# 2 58.0180 95.4301 48.9769 0.0000 0.0000 0.0000
# 3 48.9767 48.9769 117.6489 0.0000 0.0000 0.0000
# 4 0.0000 0.0000 0.0000 25.3879 0.0000 0.0000
# 5 0.0000 0.0000 0.0000 0.0000 25.3868 0.0000
# 6 0.0000 0.0000 0.0000 0.0000 0.0000 32.3835
#
#
#
# Elastic Compliance Matrix: (Units=1/GPa)
#
#
# Indices 1 2 3 4 5 6 
#
# 1 0.017802 -0.008927 -0.003695 0.000000 0.000000 0.000000
# 2 -0.008927 0.017802 -0.003695 0.000000 0.000000 0.000000
# 3 -0.003695 -0.003695 0.011576 0.000000 0.000000 0.000000
# 4 0.000000 0.000000 0.000000 0.039389 0.000000 0.000000
# 5 0.000000 0.000000 0.000000 0.000000 0.039390 0.000000
# 6 0.000000 0.000000 0.000000 0.000000 0.000000 0.030880
#
#
# Mechanical properties :
#
#
# Convention : Reuss Voigt Hill
#
# Bulk Modulus (GPa) = 68.73899 68.93911 68.83905
# Shear Modulus (GPa) = 25.73037 26.80079 26.26558
#
# Velocity S-wave (km/s) = 3.81872 3.89734 3.85823
# Velocity P-wave (km/s) = 7.64206 7.70216 7.67217
#
# Compressibility (1/GPa) = 0.01454778
#
# Stress axis : x y z
#
# Youngs Moduli (GPa) = 56.17190 56.17205 86.38449
#
# Poissons Ratio (x) = 0.50145 0.31917
# Poissons Ratio (y) = 0.50145 0.31918
# Poissons Ratio (z) = 0.20754 0.20755
#
# Static dielectric constant tensor:
#      x y z
#    x 1.618690 0.000000 0.000000 
#    y 0.000000 1.618690 0.000000 
#    z 0.000000 0.000000 1.645980 
# 
# From -- ./inp_files/2646.got.cif
#   From: 2010.05.17/outbox.cif.g08.bks.cpg/sg117_2_cif.got.tgz:2646.got - 2010.05.20 11:15:09.
