data_PCOD9558879
_publ_section_title
;
Structure prediction by ZEFSAII (Michael W. Deem and Ramdas Pophale) SiO2 
 PCOD9558879
Probable space group: P -4 N 2
;
_chemical_formula_sum "Si O2"
_cell_formula_units_Z 56
_cell_length_a 13.796875
_cell_length_b 13.796875
_cell_length_c 11.540052
_cell_angle_alpha 90.000000
_cell_angle_beta 90.000000
_cell_angle_gamma 90.000000
_cell_volume 2196.692286
_symmetry_space_group_name_H-M "P -4 N 2"
_symmetry_group_IT_number 118
_symmetry_cell_setting 'tetragonal'
loop_
_space_group_symop_operation_xyz
x,y,z
y,-x,-z
-x,-y,z
-y,x,-z
1/2+y,1/2+x,1/2-z
1/2-y,1/2-x,1/2-z
1/2-x,1/2+y,1/2+z
1/2+x,1/2-y,1/2+z
loop_
_atom_site_type_symbol
_atom_site_label
_atom_site_fract_x
_atom_site_fract_y
_atom_site_fract_z
Si Si1 0.534909 0.107501 0.926435
Si Si2 0.533007 0.207701 0.689991
Si Si3 0.017580 0.825163 0.833979
Si Si4 0.656969 0.674310 0.922574
Si Si5 0.821660 0.541661 0.821620
Si Si6 0.803547 0.854642 0.941994
Si Si7 0.130936 0.938351 0.662616
O O1 0.499502 0.144398 0.801627
O O2 0.500000 0.000000 0.940928
O O3 0.649686 0.095011 0.904786
O O4 0.509181 0.157841 0.046732
O O5 0.441755 0.257104 0.632144
O O6 0.599231 0.284953 0.753530
O O7 0.037338 0.907941 0.737098
O O8 0.034785 0.725632 0.764129
O O9 0.908189 0.824994 0.887258
O O10 0.093381 0.830823 0.937929
O O11 0.735274 0.618434 0.844060
O O12 0.716927 0.774296 0.945015
O O13 0.550014 0.661712 0.864574
O O14 0.638215 0.618363 0.042874
O O15 0.908123 0.591878 0.750000
#
# Coordination Sequence:
#
# PCOD9558879 Si02
#       7
#     8   8   8   8   8   8   8
#     4  11  27  48  78 118 166 215 289 351 432 525
#     4  11  25  46  78 115 157 216 278 349 429 501
#     4  12  29  53  83 125 168 223 291 356 442 523
#     4  12  29  52  79 120 173 219 283 353 445 511
#     4  12  25  51  79 118 166 221 275 354 437 524
#     4  12  29  52  88 119 171 223 289 360 432 526
#     4  12  29  48  81 119 167 216 285 352 430 520
#
# _framework density 25.492875000000002
#
# number of rings (size 3 to 8) (size 9 to 14) (size 15 to 20)
#    0.000    0.286    2.857    4.286    6.000    8.286 
#    0.000    2.857    0.000    0.000    0.000    0.000 
#    0.000    0.000    0.000    0.000    0.000    0.000 
#
# Total GULP energy -312993.538454 kJ/mol
# GULP energy per Si atom -5589.170330 kJ/mol
# Density = 2.543485 g / cm^3
# Si number density = 25.492875 Si / 1000 Ang^3
#
#
#
# Elastic Constant Matrix: (Units=GPa)
#
#
# Indices 1 2 3 4 5 6 
#
# 1 76.5981 35.7477 34.2961 0.0000 0.0000 0.0000
# 2 35.7477 76.5990 34.2962 0.0000 0.0000 0.0000
# 3 34.2961 34.2962 166.4591 0.0000 0.0000 0.0000
# 4 0.0000 0.0000 0.0000 -24.5847 0.0000 0.0000
# 5 0.0000 0.0000 0.0000 0.0000 -24.5829 0.0000
# 6 0.0000 0.0000 0.0000 0.0000 0.0000 41.2261
#
#
#
# Elastic Compliance Matrix: (Units=1/GPa)
#
#
# Indices 1 2 3 4 5 6 
#
# 1 0.017331 -0.007149 -0.002098 0.000000 0.000000 0.000000
# 2 -0.007149 0.017330 -0.002098 0.000000 0.000000 0.000000
# 3 -0.002098 -0.002098 0.006872 0.000000 0.000000 0.000000
# 4 0.000000 0.000000 0.000000 -0.040676 0.000000 0.000000
# 5 0.000000 0.000000 0.000000 0.000000 -0.040679 0.000000
# 6 0.000000 0.000000 0.000000 0.000000 0.000000 0.024256
#
#
# Mechanical properties :
#
#
# Convention : Reuss Voigt Hill
#
# Bulk Modulus (GPa) = 53.06612 58.70401 55.88507
# Shear Modulus (GPa) = 372.98664 12.76610 192.87637
#
# Velocity S-wave (km/s) = 12.10900 2.24022 8.70765
# Velocity P-wave (km/s) = 14.70935 5.45610 11.09356
#
# Compressibility (1/GPa) = 0.01884442
#
# Stress axis : x y z
#
# Youngs Moduli (GPa) = 57.70117 57.70184 145.51978
#
# Poissons Ratio (x) = 0.41249 0.30527
# Poissons Ratio (y) = 0.41249 0.30527
# Poissons Ratio (z) = 0.12105 0.12105
#
# Static dielectric constant tensor:
#      x y z
#    x 2.173720 0.000000 0.000000 
#    y 0.000000 2.173720 0.000000 
#    z 0.000000 0.000000 2.071940 
# 
# From -- ./inp_files/3438.got.cif
#   From: 2010.05.17/outbox.cif.g08.bks.cpg/sg118_2_cif.got.tgz:3438.got - 2010.05.20 11:17:24.
