data_PCOD9558586
_publ_section_title
;
Structure prediction by ZEFSAII (Michael W. Deem and Ramdas Pophale) SiO2 
 PCOD9558586
Probable space group: P -4 N 2
;
_chemical_formula_sum "Si O2"
_cell_formula_units_Z 34
_cell_length_a 13.100894
_cell_length_b 13.100894
_cell_length_c 10.602721
_cell_angle_alpha 90.000000
_cell_angle_beta 90.000000
_cell_angle_gamma 90.000000
_cell_volume 1819.781305
_symmetry_space_group_name_H-M "P -4 N 2"
_symmetry_group_IT_number 118
_symmetry_cell_setting 'tetragonal'
loop_
_space_group_symop_operation_xyz
x,y,z
y,-x,-z
-x,-y,z
-y,x,-z
1/2+y,1/2+x,1/2-z
1/2-y,1/2-x,1/2-z
1/2-x,1/2+y,1/2+z
1/2+x,1/2-y,1/2+z
loop_
_atom_site_type_symbol
_atom_site_label
_atom_site_fract_x
_atom_site_fract_y
_atom_site_fract_z
Si Si1 0.822348 0.924947 0.666338
Si Si2 0.039015 0.383435 0.371675
Si Si3 0.668457 0.186822 0.105485
Si Si4 0.904119 0.887416 0.941141
Si Si5 0.500000 0.500000 0.000000
O O1 0.830861 0.808759 0.619217
O O2 0.866217 0.930485 0.807518
O O3 0.704438 0.957255 0.659272
O O4 0.897598 0.993399 0.582609
O O5 0.113920 0.386081 0.250000
O O6 0.088484 0.351822 0.503495
O O7 0.000000 0.500000 0.382558
O O8 0.650096 0.150096 0.250000
O O9 0.777625 0.148229 0.053961
O O10 0.026500 0.875549 0.955697
#
# Coordination Sequence:
#
# PCOD9558586 Si02
#       5
#     8   8   8   8   2
#     4  11  23  40  63  95 128 170 210 274 328 384
#     4  11  25  41  67  94 131 178 219 267 328 402
#     4  10  23  41  64  91 131 169 216 269 328 392
#     4  10  21  38  64  92 125 162 212 262 322 387
#     4  12  20  40  66  84 132 156 216 258 332 380
#
# _framework density 18.683562999999999
#
# number of rings (size 3 to 8) (size 9 to 14) (size 15 to 20)
#    0.000    1.412    2.353    2.824   13.176    0.471 
#    0.000    0.000    0.000    0.000    0.000    0.000 
#    0.000    0.000    0.000    0.000    0.000    0.000 
#
# Total GULP energy -189632.225584 kJ/mol
# GULP energy per Si atom -5577.418400 kJ/mol
# Density = 1.864104 g / cm^3
# Si number density = 18.683563 Si / 1000 Ang^3
#
#
#
# Elastic Constant Matrix: (Units=GPa)
#
#
# Indices 1 2 3 4 5 6 
#
# 1 92.4378 38.2115 62.9070 0.0000 0.0000 0.0000
# 2 38.2115 92.4383 62.9069 0.0000 0.0000 0.0000
# 3 62.9070 62.9069 122.5881 0.0000 0.0000 0.0000
# 4 0.0000 0.0000 0.0000 31.9417 0.0000 0.0000
# 5 0.0000 0.0000 0.0000 0.0000 31.9417 0.0000
# 6 0.0000 0.0000 0.0000 0.0000 0.0000 38.1444
#
#
#
# Elastic Compliance Matrix: (Units=1/GPa)
#
#
# Indices 1 2 3 4 5 6 
#
# 1 0.016786 -0.001655 -0.007765 0.000000 0.000000 0.000000
# 2 -0.001655 0.016786 -0.007765 0.000000 0.000000 0.000000
# 3 -0.007765 -0.007765 0.016127 0.000000 0.000000 0.000000
# 4 0.000000 0.000000 0.000000 0.031307 0.000000 0.000000
# 5 0.000000 0.000000 0.000000 0.000000 0.031307 0.000000
# 6 0.000000 0.000000 0.000000 0.000000 0.000000 0.026216
#
#
# Mechanical properties :
#
#
# Convention : Reuss Voigt Hill
#
# Bulk Modulus (GPa) = 65.23063 70.61278 67.92171
# Shear Modulus (GPa) = 28.08853 29.96814 29.02834
#
# Velocity S-wave (km/s) = 3.88155 4.00932 3.94595
# Velocity P-wave (km/s) = 7.42144 7.70123 7.56263
#
# Compressibility (1/GPa) = 0.01533022
#
# Stress axis : x y z
#
# Youngs Moduli (GPa) = 59.57197 59.57258 62.00939
#
# Poissons Ratio (x) = 0.09858 0.48150
# Poissons Ratio (y) = 0.09858 0.48149
# Poissons Ratio (z) = 0.46257 0.46257
#
# Static dielectric constant tensor:
#      x y z
#    x 1.650650 0.000000 0.000000 
#    y 0.000000 1.650650 0.000000 
#    z 0.000000 0.000000 1.651370 
# 
# From -- ./inp_files/2918.got.cif
#   From: 2010.05.17/outbox.cif.g08.bks.cpg/sg118_2_cif.got.tgz:2918.got - 2010.05.20 11:17:24.
