data_PCOD9558478
_publ_section_title
;
Structure prediction by ZEFSAII (Michael W. Deem and Ramdas Pophale) SiO2 
 PCOD9558478
Probable space group: P -4 N 2
;
_chemical_formula_sum "Si O2"
_cell_formula_units_Z 48
_cell_length_a 14.204199
_cell_length_b 14.204199
_cell_length_c 11.575009
_cell_angle_alpha 90.000000
_cell_angle_beta 90.000000
_cell_angle_gamma 90.000000
_cell_volume 2335.365357
_symmetry_space_group_name_H-M "P -4 N 2"
_symmetry_group_IT_number 118
_symmetry_cell_setting 'tetragonal'
loop_
_space_group_symop_operation_xyz
x,y,z
y,-x,-z
-x,-y,z
-y,x,-z
1/2+y,1/2+x,1/2-z
1/2-y,1/2-x,1/2-z
1/2-x,1/2+y,1/2+z
1/2+x,1/2-y,1/2+z
loop_
_atom_site_type_symbol
_atom_site_label
_atom_site_fract_x
_atom_site_fract_y
_atom_site_fract_z
Si Si1 0.490452 0.658066 0.998111
Si Si2 0.033080 0.208131 0.751111
Si Si3 0.533745 0.891860 0.357262
Si Si4 0.118622 0.080422 0.049669
Si Si5 0.366100 0.203236 0.566550
Si Si6 0.280940 0.588225 0.205712
O O1 0.488890 0.719362 0.114696
O O2 0.585024 0.595041 0.000312
O O3 0.496960 0.704926 0.872928
O O4 0.038190 0.308567 0.817341
O O5 0.955322 0.147957 0.823154
O O6 0.125868 0.142685 0.749742
O O7 0.606480 0.893521 0.250000
O O8 0.582364 0.862208 0.475021
O O9 0.500000 0.000000 0.367067
O O10 0.198626 0.148055 0.000411
O O11 0.014764 0.119966 0.029675
O O12 0.428740 0.220760 0.680205
O O13 0.272472 0.159570 0.619522
#
# Coordination Sequence:
#
# PCOD9558478 Si02
#       6
#     8   8   8   8   8   8
#     4   9  19  32  57  90 124 162 198 245 306 367
#     4  10  20  36  59  89 117 157 202 245 303 359
#     4  10  22  40  61  85 111 155 207 254 292 364
#     4  10  20  33  56  87 119 151 192 248 302 358
#     4  10  21  36  57  85 114 156 194 247 305 351
#     4  10  20  37  57  85 124 156 198 246 298 369
#
# _framework density 20.553528
#
# number of rings (size 3 to 8) (size 9 to 14) (size 15 to 20)
#    0.000    2.167    1.667    1.000    2.333    4.000 
#    0.000    1.667    0.000    1.000    0.000    0.000 
#    0.000    0.000    0.000    0.000    0.000    0.000 
#
# Total GULP energy -267493.953965 kJ/mol
# GULP energy per Si atom -5572.790708 kJ/mol
# Density = 2.050675 g / cm^3
# Si number density = 20.553528 Si / 1000 Ang^3
#
#
#
# Elastic Constant Matrix: (Units=GPa)
#
#
# Indices 1 2 3 4 5 6 
#
# 1 43.6157 -0.7218 30.3592 0.0000 0.0000 0.0000
# 2 -0.7218 43.6162 30.3593 0.0000 0.0000 0.0000
# 3 30.3592 30.3593 143.0721 0.0000 0.0000 0.0000
# 4 0.0000 0.0000 0.0000 26.7140 0.0000 0.0000
# 5 0.0000 0.0000 0.0000 0.0000 26.7139 0.0000
# 6 0.0000 0.0000 0.0000 0.0000 0.0000 12.4212
#
#
#
# Elastic Compliance Matrix: (Units=1/GPa)
#
#
# Indices 1 2 3 4 5 6 
#
# 1 0.027938 0.005384 -0.007071 0.000000 0.000000 0.000000
# 2 0.005384 0.027938 -0.007071 0.000000 0.000000 0.000000
# 3 -0.007071 -0.007071 0.009990 0.000000 0.000000 0.000000
# 4 0.000000 0.000000 0.000000 0.037434 0.000000 0.000000
# 5 0.000000 0.000000 0.000000 0.000000 0.037434 0.000000
# 6 0.000000 0.000000 0.000000 0.000000 0.000000 0.080507
#
#
# Mechanical properties :
#
#
# Convention : Reuss Voigt Hill
#
# Bulk Modulus (GPa) = 20.68187 38.92191 29.80189
# Shear Modulus (GPa) = 19.61756 24.52364 22.07060
#
# Velocity S-wave (km/s) = 3.09279 3.45796 3.28046
# Velocity P-wave (km/s) = 4.77892 5.90942 5.37398
#
# Compressibility (1/GPa) = 0.04835153
#
# Stress axis : x y z
#
# Youngs Moduli (GPa) = 35.79307 35.79349 100.09733
#
# Poissons Ratio (x) = -0.19272 0.70777
# Poissons Ratio (y) = -0.19271 0.70777
# Poissons Ratio (z) = 0.25309 0.25309
#
# Static dielectric constant tensor:
#      x y z
#    x 1.773270 0.000000 0.000000 
#    y 0.000000 1.773270 0.000000 
#    z 0.000000 0.000000 1.784660 
# 
# From -- ./inp_files/3313.got.cif
#   From: 2010.05.17/outbox.cif.g08.bks.cpg/sg118_2_cif.got.tgz:3313.got - 2010.05.20 11:17:24.
