data_PCOD9558280
_publ_section_title
;
Structure prediction by ZEFSAII (Michael W. Deem and Ramdas Pophale) SiO2 
 PCOD9558280
Probable space group: P -4 B 2
;
_chemical_formula_sum "Si O2"
_cell_formula_units_Z 58
_cell_length_a 18.347925
_cell_length_b 18.347925
_cell_length_c 9.429057
_cell_angle_alpha 90.000000
_cell_angle_beta 90.000000
_cell_angle_gamma 90.000000
_cell_volume 3174.257640
_symmetry_space_group_name_H-M "P -4 B 2"
_symmetry_group_IT_number 117
_symmetry_cell_setting 'tetragonal'
loop_
_space_group_symop_operation_xyz
x,y,z
y,-x,-z
-x,-y,z
-y,x,-z
1/2+y,1/2+x,-z
1/2-y,1/2-x,-z
1/2-x,1/2+y,z
1/2+x,1/2-y,z
loop_
_atom_site_type_symbol
_atom_site_label
_atom_site_fract_x
_atom_site_fract_y
_atom_site_fract_z
Si Si1 0.617379 0.463325 0.018021
Si Si2 0.518573 0.722836 0.712299
Si Si3 0.881280 0.511796 0.173556
Si Si4 0.937939 0.846980 0.446667
Si Si5 0.492870 0.114811 0.167467
Si Si6 0.000000 0.000000 0.500000
Si Si7 0.448816 0.277488 0.241551
Si Si8 0.848069 0.226719 0.509713
O O1 0.664749 0.464786 0.162739
O O2 0.545157 0.412518 0.016968
O O3 0.672827 0.437083 0.895820
O O4 0.486631 0.798389 0.773965
O O5 0.467813 0.682178 0.597399
O O6 0.589473 0.747840 0.622620
O O7 0.929934 0.441502 0.216259
O O8 0.929835 0.581614 0.218474
O O9 0.882516 0.503053 0.002868
O O10 0.853930 0.827775 0.440903
O O11 0.982261 0.809553 0.323518
O O12 0.955251 0.933397 0.429783
O O13 0.468087 0.194472 0.210002
O O14 0.383780 0.281410 0.354458
O O15 0.783320 0.283320 0.500000
#
# Coordination Sequence:
#
# PCOD9558280 Si02
#       8
#     8   8   8   8   8   2   8   8
#     4  11  24  36  58  89 122 150 202 254 298 364
#     4  11  21  39  60  88 117 157 195 248 310 354
#     4   9  18  35  60  86 115 154 194 237 293 362
#     4  11  24  37  66  83 117 165 202 249 302 360
#     4   9  18  35  60  86 115 154 194 237 293 362
#     4  12  20  44  64  82 112 164 228 226 288 376
#     4  11  21  39  60  88 117 157 195 248 310 354
#     4  11  24  41  59  86 120 158 202 247 305 364
#
# _framework density 18.271989000000001
#
# number of rings (size 3 to 8) (size 9 to 14) (size 15 to 20)
#    0.000    1.517    4.138    3.310    0.000    1.103 
#    0.000    2.069    0.000    9.103    0.000    0.000 
#    0.000    0.000    0.000    0.000    0.000    0.000 
#
# Total GULP energy -323382.560255 kJ/mol
# GULP energy per Si atom -5575.561384 kJ/mol
# Density = 1.823040 g / cm^3
# Si number density = 18.271989 Si / 1000 Ang^3
#
#
#
# Elastic Constant Matrix: (Units=GPa)
#
#
# Indices 1 2 3 4 5 6 
#
# 1 92.9325 -3.5113 -1.9781 0.0000 0.0000 0.0000
# 2 -3.5113 92.9325 -1.9781 0.0000 0.0000 0.0000
# 3 -1.9781 -1.9781 50.2948 0.0000 0.0000 0.0000
# 4 0.0000 0.0000 0.0000 -241.1464 0.0000 0.0000
# 5 0.0000 0.0000 0.0000 0.0000 -241.1464 0.0000
# 6 0.0000 0.0000 0.0000 0.0000 0.0000 30.3386
#
#
#
# Elastic Compliance Matrix: (Units=1/GPa)
#
#
# Indices 1 2 3 4 5 6 
#
# 1 0.010786 0.000417 0.000441 0.000000 0.000000 0.000000
# 2 0.000417 0.010786 0.000441 0.000000 0.000000 0.000000
# 3 0.000441 0.000441 0.019917 0.000000 0.000000 0.000000
# 4 0.000000 0.000000 0.000000 -0.004147 0.000000 0.000000
# 5 0.000000 0.000000 0.000000 0.000000 -0.004147 0.000000
# 6 0.000000 0.000000 0.000000 0.000000 0.000000 0.032961
#
#
# Mechanical properties :
#
#
# Convention : Reuss Voigt Hill
#
# Bulk Modulus (GPa) = 22.68351 24.58052 23.63201
# Shear Modulus (GPa) = 63.89358 -74.14903 -5.12772
#
# Velocity S-wave (km/s) = 5.91979 -6.37721 -1.67703
# Velocity P-wave (km/s) = 7.69198 6.38305 3.03507
#
# Compressibility (1/GPa) = 0.04408490
#
# Stress axis : x y z
#
# Youngs Moduli (GPa) = 92.71594 92.71594 50.20725
#
# Poissons Ratio (x) = -0.03865 -0.02212
# Poissons Ratio (y) = -0.03865 -0.02212
# Poissons Ratio (z) = -0.04085 -0.04085
#
# Static dielectric constant tensor:
#      x y z
#    x 1.633460 0.000000 0.000000 
#    y 0.000000 1.633460 0.000000 
#    z 0.000000 0.000000 1.636900 
# 
# From -- ./inp_files/2070.got.cif
#   From: 2010.05.17/outbox.cif.g08.bks.cpg/sg117_2_cif.got.tgz:2070.got - 2010.05.20 11:15:09.
