data_PCOD9558747
_publ_section_title
;
Structure prediction by ZEFSAII (Michael W. Deem and Ramdas Pophale) SiO2 
 PCOD9558747
Probable space group: P -4 N 2
;
_chemical_formula_sum "Si O2"
_cell_formula_units_Z 16
_cell_length_a 4.995059
_cell_length_b 4.995059
_cell_length_c 25.111882
_cell_angle_alpha 90.000000
_cell_angle_beta 90.000000
_cell_angle_gamma 90.000000
_cell_volume 626.556885
_symmetry_space_group_name_H-M "P -4 N 2"
_symmetry_group_IT_number 118
_symmetry_cell_setting 'tetragonal'
loop_
_space_group_symop_operation_xyz
x,y,z
y,-x,-z
-x,-y,z
-y,x,-z
1/2+y,1/2+x,1/2-z
1/2-y,1/2-x,1/2-z
1/2-x,1/2+y,1/2+z
1/2+x,1/2-y,1/2+z
loop_
_atom_site_type_symbol
_atom_site_label
_atom_site_fract_x
_atom_site_fract_y
_atom_site_fract_z
Si Si1 0.000000 0.000000 0.500000
Si Si2 0.500000 0.000000 0.930671
Si Si3 0.500000 0.000000 0.750000
Si Si4 0.685168 0.259018 0.333999
O O1 0.746206 0.104690 0.533930
O O2 0.708742 0.851519 0.891530
O O3 0.269162 0.065461 0.706454
O O4 0.500000 0.500000 0.313757
O O5 0.500000 0.000000 0.335955
#
# Coordination Sequence:
#
# PCOD9558747 Si02
#       4
#     2   4   2   8
#     4  12  28  48  80 112 152 204 260 332 400 478
#     4  11  28  47  74 114 148 205 264 329 402 480
#     4  10  26  40  70 114 152 204 262 316 396 468
#     4  11  25  46  75 108 156 204 260 326 393 476
#
# _framework density 25.536387000000001
#
# number of rings (size 3 to 8) (size 9 to 14) (size 15 to 20)
#    0.000    1.000    0.000    3.750   17.500    4.000 
#    0.000    0.000    0.000    0.000    0.000    0.000 
#    0.000    0.000    0.000    0.000    0.000    0.000 
#
# Total GULP energy -89349.033834 kJ/mol
# GULP energy per Si atom -5584.314615 kJ/mol
# Density = 2.547827 g / cm^3
# Si number density = 25.536387 Si / 1000 Ang^3
#
#
#
# Elastic Constant Matrix: (Units=GPa)
#
#
# Indices 1 2 3 4 5 6 
#
# 1 192.3950 84.8910 63.6562 0.0000 0.0000 0.0000
# 2 84.8910 192.3950 63.6562 0.0000 0.0000 0.0000
# 3 63.6562 63.6562 150.0935 0.0000 0.0000 0.0000
# 4 0.0000 0.0000 0.0000 0.9955 0.0000 0.0000
# 5 0.0000 0.0000 0.0000 0.0000 0.9955 0.0000
# 6 0.0000 0.0000 0.0000 0.0000 0.0000 69.4149
#
#
#
# Elastic Compliance Matrix: (Units=1/GPa)
#
#
# Indices 1 2 3 4 5 6 
#
# 1 0.006890 -0.002412 -0.001899 0.000000 0.000000 0.000000
# 2 -0.002412 0.006890 -0.001899 0.000000 0.000000 0.000000
# 3 -0.001899 -0.001899 0.008274 0.000000 0.000000 0.000000
# 4 0.000000 0.000000 0.000000 1.004542 0.000000 0.000000
# 5 0.000000 0.000000 0.000000 0.000000 1.004542 0.000000
# 6 0.000000 0.000000 0.000000 0.000000 0.000000 0.014406
#
#
# Mechanical properties :
#
#
# Convention : Reuss Voigt Hill
#
# Bulk Modulus (GPa) = 103.80916 106.58781 105.19848
# Shear Modulus (GPa) = 2.42580 35.79318 19.10949
#
# Velocity S-wave (km/s) = 0.97571 3.74793 2.73852
# Velocity P-wave (km/s) = 6.48144 7.78200 7.16130
#
# Compressibility (1/GPa) = 0.00963306
#
# Stress axis : x y z
#
# Youngs Moduli (GPa) = 145.13336 145.13336 120.86660
#
# Poissons Ratio (x) = 0.35003 0.22957
# Poissons Ratio (y) = 0.35003 0.22957
# Poissons Ratio (z) = 0.27566 0.27566
#
# Static dielectric constant tensor:
#      x y z
#    x 2.246010 0.000000 0.000000 
#    y 0.000000 2.246010 0.000000 
#    z 0.000000 0.000000 2.051070 
# 
# From -- ./inp_files/5126.got.cif
#   From: 2010.05.17/outbox.cif.g08.bks.cpg/sg118_3_cif.got.tgz:5126.got - 2010.05.20 11:17:24.
