data_PCOD9558164
_publ_section_title
;
Structure prediction by ZEFSAII (Michael W. Deem and Ramdas Pophale) SiO2 
 PCOD9558164
Probable space group: P -4 B 2
;
_chemical_formula_sum "Si O2"
_cell_formula_units_Z 40
_cell_length_a 19.640177
_cell_length_b 19.640177
_cell_length_c 5.180969
_cell_angle_alpha 90.000000
_cell_angle_beta 90.000000
_cell_angle_gamma 90.000000
_cell_volume 1998.489121
_symmetry_space_group_name_H-M "P -4 B 2"
_symmetry_group_IT_number 117
_symmetry_cell_setting 'tetragonal'
loop_
_space_group_symop_operation_xyz
x,y,z
y,-x,-z
-x,-y,z
-y,x,-z
1/2+y,1/2+x,-z
1/2-y,1/2-x,-z
1/2-x,1/2+y,z
1/2+x,1/2-y,z
loop_
_atom_site_type_symbol
_atom_site_label
_atom_site_fract_x
_atom_site_fract_y
_atom_site_fract_z
Si Si1 0.035572 0.710570 0.931908
Si Si2 0.177479 0.783061 0.921269
Si Si3 0.502992 0.293255 0.426630
Si Si4 0.357908 0.642113 0.585094
Si Si5 0.531992 0.076488 0.758601
O O1 0.007397 0.754642 0.695755
O O2 0.023540 0.633641 0.828284
O O3 0.114285 0.731191 0.968365
O O4 0.999562 0.737477 0.194695
O O5 0.172424 0.804329 0.623060
O O6 0.245729 0.745729 0.000000
O O7 0.168249 0.844559 0.124998
O O8 0.570765 0.336767 0.462370
O O9 0.438200 0.342852 0.396881
O O10 0.576225 0.076225 0.500000
O O11 0.500000 0.000000 0.755546
O O12 0.581709 0.081709 0.000000
#
# Coordination Sequence:
#
# PCOD9558164 Si02
#       5
#     8   8   8   8   8
#     4  10  21  38  58  85 115 156 188 244 302 334
#     4  10  21  37  60  87 112 152 205 241 281 349
#     4  10  21  39  62  84 121 151 193 246 296 363
#     4  10  21  39  60  90 117 152 198 242 299 351
#     4  10  21  36  54  82 116 154 198 244 285 352
#
# _framework density 20.015121000000001
#
# number of rings (size 3 to 8) (size 9 to 14) (size 15 to 20)
#    0.000    2.000    0.000    3.000    2.800    0.400 
#    7.200   10.000    0.000    7.200    0.000    0.000 
#    0.000    0.000    0.000    0.000    0.000    0.000 
#
# Total GULP energy -222775.334570 kJ/mol
# GULP energy per Si atom -5569.383364 kJ/mol
# Density = 1.996957 g / cm^3
# Si number density = 20.015121 Si / 1000 Ang^3
#
#
#
# Elastic Constant Matrix: (Units=GPa)
#
#
# Indices 1 2 3 4 5 6 
#
# 1 54.0041 43.0573 6.0453 0.0000 0.0000 0.0000
# 2 43.0573 54.0041 6.0453 0.0000 0.0000 0.0000
# 3 6.0453 6.0453 136.3749 0.0000 0.0000 0.0000
# 4 0.0000 0.0000 0.0000 11.2673 0.0000 0.0000
# 5 0.0000 0.0000 0.0000 0.0000 11.2673 0.0000
# 6 0.0000 0.0000 0.0000 0.0000 0.0000 25.7345
#
#
#
# Elastic Compliance Matrix: (Units=1/GPa)
#
#
# Indices 1 2 3 4 5 6 
#
# 1 0.050856 -0.040496 -0.000459 0.000000 0.000000 0.000000
# 2 -0.040496 0.050856 -0.000459 0.000000 0.000000 0.000000
# 3 -0.000459 -0.000459 0.007373 0.000000 0.000000 0.000000
# 4 0.000000 0.000000 0.000000 0.088753 0.000000 0.000000
# 5 0.000000 0.000000 0.000000 0.000000 0.088753 0.000000
# 6 0.000000 0.000000 0.000000 0.000000 0.000000 0.038858
#
#
# Mechanical properties :
#
#
# Convention : Reuss Voigt Hill
#
# Bulk Modulus (GPa) = 38.08597 39.40879 38.74738
# Shear Modulus (GPa) = 11.98959 22.26948 17.12953
#
# Velocity S-wave (km/s) = 2.45016 3.33923 2.92863
# Velocity P-wave (km/s) = 5.20329 5.88214 5.55310
#
# Compressibility (1/GPa) = 0.02625639
#
# Stress axis : x y z
#
# Youngs Moduli (GPa) = 19.66351 19.66351 135.62185
#
# Poissons Ratio (x) = 0.79629 0.06228
# Poissons Ratio (y) = 0.79629 0.06228
# Poissons Ratio (z) = 0.00903 0.00903
#
# Static dielectric constant tensor:
#      x y z
#    x 1.724950 0.000000 0.000000 
#    y 0.000000 1.724950 0.000000 
#    z 0.000000 0.000000 1.832650 
# 
# From -- ./inp_files/567.got.cif
#   From: 2010.05.17/outbox.cif.g08.bks.cpg/sg117_1_cif.got.tgz:567.got - 2010.05.20 11:15:09.
