data_PCOD9558187
_publ_section_title
;
Structure prediction by ZEFSAII (Michael W. Deem and Ramdas Pophale) SiO2 
 PCOD9558187
Probable space group: P -4 B 2
;
_chemical_formula_sum "Si O2"
_cell_formula_units_Z 48
_cell_length_a 13.126517
_cell_length_b 13.126517
_cell_length_c 12.980316
_cell_angle_alpha 90.000000
_cell_angle_beta 90.000000
_cell_angle_gamma 90.000000
_cell_volume 2236.579171
_symmetry_space_group_name_H-M "P -4 B 2"
_symmetry_group_IT_number 117
_symmetry_cell_setting 'tetragonal'
loop_
_space_group_symop_operation_xyz
x,y,z
y,-x,-z
-x,-y,z
-y,x,-z
1/2+y,1/2+x,-z
1/2-y,1/2-x,-z
1/2-x,1/2+y,z
1/2+x,1/2-y,z
loop_
_atom_site_type_symbol
_atom_site_label
_atom_site_fract_x
_atom_site_fract_y
_atom_site_fract_z
Si Si1 0.000000 0.500000 0.283521
Si Si2 0.726601 0.226601 0.500000
Si Si3 0.149357 0.926450 0.989049
Si Si4 0.313994 0.650900 0.306473
Si Si5 0.288088 0.296834 0.178986
Si Si6 0.009964 0.267157 0.214429
Si Si7 0.280742 0.949554 0.347270
O O1 0.999165 0.610102 0.224428
O O2 0.893650 0.502173 0.346002
O O3 0.742253 0.303086 0.406080
O O4 0.736977 0.114904 0.449883
O O5 0.226934 0.948754 0.896057
O O6 0.200722 0.848724 0.068961
O O7 0.037667 0.879194 0.961855
O O8 0.258233 0.685285 0.200522
O O9 0.420290 0.710237 0.298657
O O10 0.305951 0.531686 0.322383
O O11 0.400524 0.284437 0.222866
O O12 0.223617 0.370762 0.251957
#
# Coordination Sequence:
#
# PCOD9558187 Si02
#       7
#     4   4   8   8   8   8   8
#     4  12  22  41  67  96 128 170 216 264 330 386
#     4  10  24  41  60  97 124 170 218 272 340 385
#     4   9  19  37  64  96 129 174 221 262 316 382
#     4  11  23  41  65  93 131 168 220 271 329 398
#     4  10  21  41  65  92 132 171 213 267 329 387
#     4  11  22  41  67  97 130 173 222 266 327 392
#     4  11  24  43  65  96 127 171 220 272 332 393
#
# _framework density 21.461345999999999
#
# number of rings (size 3 to 8) (size 9 to 14) (size 15 to 20)
#    0.000    1.500    5.000    1.000    0.000    7.000 
#    0.000    1.667    0.000    0.000    0.000    0.000 
#    0.000    0.000    0.000    0.000    0.000    0.000 
#
# Total GULP energy -267532.929023 kJ/mol
# GULP energy per Si atom -5573.602688 kJ/mol
# Density = 2.141250 g / cm^3
# Si number density = 21.461346 Si / 1000 Ang^3
#
#
#
# Elastic Constant Matrix: (Units=GPa)
#
#
# Indices 1 2 3 4 5 6 
#
# 1 87.5187 8.5480 13.7476 0.0000 0.0000 0.0000
# 2 8.5480 87.5187 13.7476 0.0000 0.0000 0.0000
# 3 13.7476 13.7476 41.9602 0.0000 0.0000 0.0000
# 4 0.0000 0.0000 0.0000 29.4110 0.0000 0.0000
# 5 0.0000 0.0000 0.0000 0.0000 29.4110 0.0000
# 6 0.0000 0.0000 0.0000 0.0000 0.0000 29.0727
#
#
#
# Elastic Compliance Matrix: (Units=1/GPa)
#
#
# Indices 1 2 3 4 5 6 
#
# 1 0.012075 -0.000588 -0.003763 0.000000 0.000000 0.000000
# 2 -0.000588 0.012075 -0.003763 0.000000 0.000000 0.000000
# 3 -0.003763 -0.003763 0.026298 0.000000 0.000000 0.000000
# 4 0.000000 0.000000 0.000000 0.034001 0.000000 0.000000
# 5 0.000000 0.000000 0.000000 0.000000 0.034001 0.000000
# 6 0.000000 0.000000 0.000000 0.000000 0.000000 0.034397
#
#
# Mechanical properties :
#
#
# Convention : Reuss Voigt Hill
#
# Bulk Modulus (GPa) = 29.22466 32.12045 30.67255
# Shear Modulus (GPa) = 27.70364 29.64256 28.67310
#
# Velocity S-wave (km/s) = 3.59675 3.72049 3.65915
# Velocity P-wave (km/s) = 5.55840 5.78405 5.67234
#
# Compressibility (1/GPa) = 0.03421768
#
# Stress axis : x y z
#
# Youngs Moduli (GPa) = 82.81757 82.81757 38.02554
#
# Poissons Ratio (x) = 0.04871 0.14310
# Poissons Ratio (y) = 0.04871 0.14310
# Poissons Ratio (z) = 0.31167 0.31167
#
# Static dielectric constant tensor:
#      x y z
#    x 1.840880 0.000000 0.000000 
#    y 0.000000 1.840880 0.000000 
#    z 0.000000 0.000000 1.768120 
# 
# From -- ./inp_files/2801.got.cif
#   From: 2010.05.17/outbox.cif.g08.bks.cpg/sg117_2_cif.got.tgz:2801.got - 2010.05.20 11:15:09.
