data_PCOD9558615
_publ_section_title
;
Structure prediction by ZEFSAII (Michael W. Deem and Ramdas Pophale) SiO2 
 PCOD9558615
Probable space group: P -4 N 2
;
_chemical_formula_sum "Si O2"
_cell_formula_units_Z 48
_cell_length_a 15.016371
_cell_length_b 15.016371
_cell_length_c 11.139881
_cell_angle_alpha 90.000000
_cell_angle_beta 90.000000
_cell_angle_gamma 90.000000
_cell_volume 2511.947340
_symmetry_space_group_name_H-M "P -4 N 2"
_symmetry_group_IT_number 118
_symmetry_cell_setting 'tetragonal'
loop_
_space_group_symop_operation_xyz
x,y,z
y,-x,-z
-x,-y,z
-y,x,-z
1/2+y,1/2+x,1/2-z
1/2-y,1/2-x,1/2-z
1/2-x,1/2+y,1/2+z
1/2+x,1/2-y,1/2+z
loop_
_atom_site_type_symbol
_atom_site_label
_atom_site_fract_x
_atom_site_fract_y
_atom_site_fract_z
Si Si1 0.344512 0.350298 0.489788
Si Si2 0.538287 0.635311 0.956140
Si Si3 0.658067 0.166829 0.390084
Si Si4 0.540805 0.807723 0.096961
Si Si5 0.447762 0.186149 0.379840
Si Si6 0.986093 0.106166 0.181307
O O1 0.246503 0.313866 0.521837
O O2 0.404628 0.270200 0.442915
O O3 0.351738 0.432779 0.396258
O O4 0.393275 0.381946 0.611372
O O5 0.519985 0.644281 0.815027
O O6 0.605296 0.553431 0.978967
O O7 0.571735 0.725261 0.017019
O O8 0.683376 0.183376 0.250000
O O9 0.551483 0.172746 0.399620
O O10 0.683632 0.065488 0.420119
O O11 0.559815 0.793896 0.237913
O O12 0.597876 0.896585 0.075730
O O13 0.000000 0.000000 0.190448
#
# Coordination Sequence:
#
# PCOD9558615 Si02
#       6
#     8   8   8   8   8   8
#     4  12  22  37  64  94 126 160 217 260 317 380
#     4  11  24  38  60  90 128 163 203 257 325 383
#     4  10  22  39  64  93 124 165 213 261 313 373
#     4  10  23  41  64  89 128 162 215 260 316 374
#     4  10  21  41  65  93 122 170 209 264 309 377
#     4  12  21  38  61  92 130 167 199 262 326 382
#
# _framework density 19.108678999999999
#
# number of rings (size 3 to 8) (size 9 to 14) (size 15 to 20)
#    0.000    1.167    5.000    1.500    7.000    2.000 
#    0.000    0.000    0.000    0.000    4.333    0.000 
#    0.000    0.000    0.000    0.000    0.000    0.000 
#
# Total GULP energy -268011.000887 kJ/mol
# GULP energy per Si atom -5583.562518 kJ/mol
# Density = 1.906519 g / cm^3
# Si number density = 19.108679 Si / 1000 Ang^3
#
#
#
# Elastic Constant Matrix: (Units=GPa)
#
#
# Indices 1 2 3 4 5 6 
#
# 1 72.3039 13.2025 31.9609 0.0000 0.0000 0.0000
# 2 13.2025 72.3039 31.9609 0.0000 0.0000 0.0000
# 3 31.9609 31.9609 67.3223 0.0000 0.0000 0.0000
# 4 0.0000 0.0000 0.0000 12.3257 0.0000 0.0000
# 5 0.0000 0.0000 0.0000 0.0000 12.3257 0.0000
# 6 0.0000 0.0000 0.0000 0.0000 0.0000 21.2818
#
#
#
# Elastic Compliance Matrix: (Units=1/GPa)
#
#
# Indices 1 2 3 4 5 6 
#
# 1 0.017525 0.000605 -0.008607 0.000000 0.000000 0.000000
# 2 0.000605 0.017525 -0.008607 0.000000 0.000000 0.000000
# 3 -0.008607 -0.008607 0.023026 0.000000 0.000000 0.000000
# 4 0.000000 0.000000 0.000000 0.081131 0.000000 0.000000
# 5 0.000000 0.000000 0.000000 0.000000 0.081131 0.000000
# 6 0.000000 0.000000 0.000000 0.000000 0.000000 0.046989
#
#
# Mechanical properties :
#
#
# Convention : Reuss Voigt Hill
#
# Bulk Modulus (GPa) = 40.22961 40.68654 40.45807
# Shear Modulus (GPa) = 16.19014 18.17369 17.18191
#
# Velocity S-wave (km/s) = 2.91394 3.08729 3.00187
# Velocity P-wave (km/s) = 5.69387 5.83497 5.76485
#
# Compressibility (1/GPa) = 0.02485731
#
# Stress axis : x y z
#
# Youngs Moduli (GPa) = 57.06267 57.06267 43.42934
#
# Poissons Ratio (x) = -0.03450 0.37378
# Poissons Ratio (y) = -0.03450 0.37378
# Poissons Ratio (z) = 0.49112 0.49112
#
# Static dielectric constant tensor:
#      x y z
#    x 1.682880 0.000000 0.000000 
#    y 0.000000 1.682880 0.000000 
#    z 0.000000 0.000000 1.653370 
# 
# From -- ./inp_files/3302.got.cif
#   From: 2010.05.17/outbox.cif.g08.bks.cpg/sg118_2_cif.got.tgz:3302.got - 2010.05.20 11:17:24.
