data_PCOD9558662
_publ_section_title
;
Structure prediction by ZEFSAII (Michael W. Deem and Ramdas Pophale) SiO2 
 PCOD9558662
Probable space group: P -4 N 2
;
_chemical_formula_sum "Si O2"
_cell_formula_units_Z 36
_cell_length_a 12.113498
_cell_length_b 12.113498
_cell_length_c 13.660735
_cell_angle_alpha 90.000000
_cell_angle_beta 90.000000
_cell_angle_gamma 90.000000
_cell_volume 2004.533001
_symmetry_space_group_name_H-M "P -4 N 2"
_symmetry_group_IT_number 118
_symmetry_cell_setting 'tetragonal'
loop_
_space_group_symop_operation_xyz
x,y,z
y,-x,-z
-x,-y,z
-y,x,-z
1/2+y,1/2+x,1/2-z
1/2-y,1/2-x,1/2-z
1/2-x,1/2+y,1/2+z
1/2+x,1/2-y,1/2+z
loop_
_atom_site_type_symbol
_atom_site_label
_atom_site_fract_x
_atom_site_fract_y
_atom_site_fract_z
Si Si1 0.409709 0.090290 0.030672
Si Si2 0.000000 0.000000 0.500000
Si Si3 0.516949 0.298413 0.364538
Si Si4 0.798411 0.016951 0.364539
Si Si5 0.000000 0.000000 0.000000
Si Si6 0.280823 0.219178 0.637807
O O1 0.316010 0.030468 0.094979
O O2 0.469531 0.183989 0.094980
O O3 0.500000 0.000000 0.999767
O O4 0.350594 0.149405 0.939331
O O5 0.029140 0.897902 0.570036
O O6 0.490176 0.311655 0.250000
O O7 0.470857 0.397904 0.429963
O O8 0.649825 0.300184 0.374648
O O9 0.800180 0.149827 0.374648
O O10 0.309671 0.190330 0.750000
#
# Coordination Sequence:
#
# PCOD9558662 Si02
#       6
#     8   2   8   8   2   8
#     4  12  23  39  67  96 126 159 208 262 307 367
#     4  12  22  40  64  86 128 168 202 252 312 370
#     4  11  23  39  62  91 122 163 209 255 307 366
#     4  11  23  39  62  91 122 163 209 255 307 366
#     4  12  22  40  64  86 128 168 202 252 312 370
#     4  10  22  41  61  86 125 166 202 248 312 369
#
# _framework density 17.959295999999998
#
# number of rings (size 3 to 8) (size 9 to 14) (size 15 to 20)
#    0.000    0.889    6.667    1.333    0.000    1.333 
#    0.000    0.000    0.000    0.000    0.000    0.000 
#    0.000    0.000    0.000    0.000    0.000    0.000 
#
# Total GULP energy -201161.302748 kJ/mol
# GULP energy per Si atom -5587.813965 kJ/mol
# Density = 1.791842 g / cm^3
# Si number density = 17.959296 Si / 1000 Ang^3
#
#
#
# Elastic Constant Matrix: (Units=GPa)
#
#
# Indices 1 2 3 4 5 6 
#
# 1 93.2030 37.1487 70.2150 0.0000 0.0000 0.0000
# 2 37.1487 93.2035 70.2153 0.0000 0.0000 0.0000
# 3 70.2150 70.2153 170.3822 0.0000 0.0000 0.0000
# 4 0.0000 0.0000 0.0000 21.4054 0.0000 0.0000
# 5 0.0000 0.0000 0.0000 0.0000 21.4053 0.0000
# 6 0.0000 0.0000 0.0000 0.0000 0.0000 18.6411
#
#
#
# Elastic Compliance Matrix: (Units=1/GPa)
#
#
# Indices 1 2 3 4 5 6 
#
# 1 0.015818 -0.002021 -0.005686 0.000000 0.000000 0.000000
# 2 -0.002021 0.015818 -0.005686 0.000000 0.000000 0.000000
# 3 -0.005686 -0.005686 0.010555 0.000000 0.000000 0.000000
# 4 0.000000 0.000000 0.000000 0.046717 0.000000 0.000000
# 5 0.000000 0.000000 0.000000 0.000000 0.046717 0.000000
# 6 0.000000 0.000000 0.000000 0.000000 0.000000 0.053645
#
#
# Mechanical properties :
#
#
# Convention : Reuss Voigt Hill
#
# Bulk Modulus (GPa) = 64.90900 79.10518 72.00709
# Shear Modulus (GPa) = 22.60471 24.23767 23.42119
#
# Velocity S-wave (km/s) = 3.55161 3.67766 3.61519
# Velocity P-wave (km/s) = 7.28281 7.88518 7.58998
#
# Compressibility (1/GPa) = 0.01540618
#
# Stress axis : x y z
#
# Youngs Moduli (GPa) = 63.21765 63.21796 94.73824
#
# Poissons Ratio (x) = 0.12779 0.53866
# Poissons Ratio (y) = 0.12779 0.53866
# Poissons Ratio (z) = 0.35944 0.35944
#
# Static dielectric constant tensor:
#      x y z
#    x 1.600200 0.000000 0.000000 
#    y 0.000000 1.600200 0.000000 
#    z 0.000000 0.000000 1.586560 
# 
# From -- ./inp_files/3093.got.cif
#   From: 2010.05.17/outbox.cif.g08.bks.cpg/sg118_2_cif.got.tgz:3093.got - 2010.05.20 11:17:24.
