data_PCOD9558038
_publ_section_title
;
Structure prediction by ZEFSAII (Michael W. Deem and Ramdas Pophale) SiO2 
 PCOD9558038
Probable space group: P -4 C 2
;
_chemical_formula_sum "Si O2"
_cell_formula_units_Z 40
_cell_length_a 13.347676
_cell_length_b 13.347676
_cell_length_c 9.308741
_cell_angle_alpha 90.000000
_cell_angle_beta 90.000000
_cell_angle_gamma 90.000000
_cell_volume 1658.449528
_symmetry_space_group_name_H-M "P -4 C 2"
_symmetry_group_IT_number 116
_symmetry_cell_setting 'tetragonal'
loop_
_space_group_symop_operation_xyz
x,y,z
y,-x,-z
-x,-y,z
-y,x,-z
y,x,1/2-z
-y,-x,1/2-z
-x,y,1/2+z
x,-y,1/2+z
loop_
_atom_site_type_symbol
_atom_site_label
_atom_site_fract_x
_atom_site_fract_y
_atom_site_fract_z
Si Si1 0.694247 0.563037 0.682686
Si Si2 0.500000 0.000000 0.758928
Si Si3 0.000000 0.000000 0.500000
Si Si4 0.809236 0.514947 0.944656
Si Si5 0.500000 0.500000 0.000000
Si Si6 0.979687 0.819025 0.803447
Si Si7 0.683494 0.074549 0.933466
O O1 0.670534 0.670534 0.750000
O O2 0.722470 0.503779 0.826265
O O3 0.783980 0.561576 0.570545
O O4 0.596987 0.521122 0.600290
O O5 0.500367 0.906189 0.652170
O O6 0.405534 0.990909 0.864214
O O7 0.972903 0.906838 0.400270
O O8 0.822725 0.622014 0.028227
O O9 0.877745 0.877745 0.750000
O O10 0.052081 0.770767 0.683138
O O11 0.955951 0.730199 0.914609
#
# Coordination Sequence:
#
# PCOD9558038 Si02
#       7
#     8   4   2   8   2   8   8
#     4  12  27  48  84 120 161 220 271 345 419 499
#     4  12  26  52  84 114 176 214 280 356 422 492
#     4  12  26  52  86 116 166 216 270 348 406 504
#     4  12  27  48  82 123 162 214 276 346 423 493
#     4  12  26  52  86 112 174 212 286 352 422 488
#     4  12  27  48  84 119 165 218 272 339 422 500
#     4  12  27  48  82 121 161 218 270 346 422 495
#
# _framework density 24.118912000000002
#
# number of rings (size 3 to 8) (size 9 to 14) (size 15 to 20)
#    0.000    0.000    8.000    1.200    0.000    0.800 
#    0.000    4.000    8.800    0.000    0.000    0.000 
#    0.000    0.000    0.000    0.000    0.000    0.000 
#
# Total GULP energy -223216.189601 kJ/mol
# GULP energy per Si atom -5580.404740 kJ/mol
# Density = 2.406402 g / cm^3
# Si number density = 24.118912 Si / 1000 Ang^3
#
#
#
# Elastic Constant Matrix: (Units=GPa)
#
#
# Indices 1 2 3 4 5 6 
#
# 1 111.1851 51.5983 68.0889 0.0000 0.0000 0.0000
# 2 51.5983 111.1851 68.0889 0.0000 0.0000 0.0000
# 3 68.0889 68.0889 199.8291 0.0000 0.0000 0.0000
# 4 0.0000 0.0000 0.0000 53.8207 0.0000 0.0000
# 5 0.0000 0.0000 0.0000 0.0000 53.8207 0.0000
# 6 0.0000 0.0000 0.0000 0.0000 0.0000 36.2794
#
#
#
# Elastic Compliance Matrix: (Units=1/GPa)
#
#
# Indices 1 2 3 4 5 6 
#
# 1 0.012687 -0.004095 -0.002928 0.000000 0.000000 0.000000
# 2 -0.004095 0.012687 -0.002928 0.000000 0.000000 0.000000
# 3 -0.002928 -0.002928 0.006999 0.000000 0.000000 0.000000
# 4 0.000000 0.000000 0.000000 0.018580 0.000000 0.000000
# 5 0.000000 0.000000 0.000000 0.000000 0.018580 0.000000
# 6 0.000000 0.000000 0.000000 0.000000 0.000000 0.027564
#
#
# Mechanical properties :
#
#
# Convention : Reuss Voigt Hill
#
# Bulk Modulus (GPa) = 80.17159 88.63903 84.40531
# Shear Modulus (GPa) = 41.26884 44.41237 42.84061
#
# Velocity S-wave (km/s) = 4.14098 4.29580 4.21910
# Velocity P-wave (km/s) = 7.49506 7.83810 7.66850
#
# Compressibility (1/GPa) = 0.01247325
#
# Stress axis : x y z
#
# Youngs Moduli (GPa) = 78.81907 78.81907 142.86874
#
# Poissons Ratio (x) = 0.32276 0.41828
# Poissons Ratio (y) = 0.32276 0.41828
# Poissons Ratio (z) = 0.23076 0.23076
#
# Static dielectric constant tensor:
#      x y z
#    x 1.999680 0.000000 0.000000 
#    y 0.000000 1.999680 0.000000 
#    z 0.000000 0.000000 1.956820 
# 
# From -- ./inp_files/881.got.cif
#   From: 2010.05.17/outbox.cif.g08.bks.cpg/sg116_1_cif.got.tgz:881.got - 2010.05.20 11:11:43.
