data_PCOD9558997
_publ_section_title
;
Structure prediction by ZEFSAII (Michael W. Deem and Ramdas Pophale) SiO2 
 PCOD9558997
Probable space group: I -4 M 2
;
_chemical_formula_sum "Si O2"
_cell_formula_units_Z 96
_cell_length_a 22.319743
_cell_length_b 22.319743
_cell_length_c 11.953881
_cell_angle_alpha 90.000000
_cell_angle_beta 90.000000
_cell_angle_gamma 90.000000
_cell_volume 5955.075986
_symmetry_space_group_name_H-M "I -4 M 2"
_symmetry_group_IT_number 119
_symmetry_cell_setting 'tetragonal'
loop_
_space_group_symop_operation_xyz
x,y,z
y,-x,-z
-x,-y,z
-y,x,-z
y,x,-z
-y,-x,-z
-x,y,z
x,-y,z
1/2+x,1/2+y,1/2+z
1/2+y,1/2-x,1/2-z
1/2-x,1/2-y,1/2+z
1/2-y,1/2+x,1/2-z
1/2+y,1/2+x,1/2-z
1/2-y,1/2-x,1/2-z
1/2-x,1/2+y,1/2+z
1/2+x,1/2-y,1/2+z
loop_
_atom_site_type_symbol
_atom_site_label
_atom_site_fract_x
_atom_site_fract_y
_atom_site_fract_z
Si Si1 0.738602 0.138326 0.042840
Si Si2 0.430373 0.261824 0.106646
Si Si3 0.071131 0.153246 0.073816
Si Si4 0.432893 0.842580 0.288167
Si Si5 0.667547 0.327566 0.259926
Si Si6 0.243261 0.669381 0.068025
O O1 0.688865 0.105723 0.116374
O O2 0.780892 0.171727 0.135543
O O3 0.784584 0.092494 0.984722
O O4 0.703161 0.181157 0.957763
O O5 0.500000 0.281617 0.093717
O O6 0.431441 0.202231 0.182478
O O7 0.387005 0.305765 0.179488
O O8 0.395680 0.247051 0.991497
O O9 0.107781 0.152381 0.189307
O O10 0.000000 0.149811 0.082433
O O11 0.099615 0.099615 0.000000
O O12 0.500000 0.849270 0.327803
O O13 0.403818 0.903818 0.250000
O O14 0.729284 0.330558 0.191565
O O15 0.290420 0.709581 0.000000
#
# Coordination Sequence:
#
# PCOD9558997 Si02
#       6
#    16  16  16  16  16  16
#     4  10  19  33  49  73 103 130 160 202 256 309
#     4   9  18  31  48  70 100 131 165 202 250 302
#     4  10  21  36  52  72  99 132 169 210 256 305
#     4  10  18  30  48  70  97 131 164 199 240 290
#     4   9  20  32  49  75  99 131 166 207 254 300
#     4  10  18  29  50  74  99 129 164 205 250 306
#
# _framework density 16.120702000000001
#
# number of rings (size 3 to 8) (size 9 to 14) (size 15 to 20)
#    0.000    2.333    1.667    2.000    0.000    8.333 
#    0.000    0.000    0.000    0.000    0.000    0.000 
#    0.000    0.000    0.000    0.333    0.000    0.000 
#
# Total GULP energy -267413.028472 kJ/mol
# GULP energy per Si atom -5571.104760 kJ/mol
# Density = 1.608401 g / cm^3
# Si number density = 16.120702 Si / 1000 Ang^3
#
#
#
# Elastic Constant Matrix: (Units=GPa)
#
#
# Indices 1 2 3 4 5 6 
#
# 1 87.8247 56.4763 39.7731 0.0000 0.0000 0.0000
# 2 56.4763 87.8256 39.7737 0.0000 0.0000 0.0000
# 3 39.7731 39.7737 56.2135 0.0000 0.0000 0.0000
# 4 0.0000 0.0000 0.0000 12.9431 0.0000 0.0000
# 5 0.0000 0.0000 0.0000 0.0000 12.9431 0.0000
# 6 0.0000 0.0000 0.0000 0.0000 0.0000 10.4276
#
#
#
# Elastic Compliance Matrix: (Units=1/GPa)
#
#
# Indices 1 2 3 4 5 6 
#
# 1 0.021630 -0.010269 -0.008038 0.000000 0.000000 0.000000
# 2 -0.010269 0.021630 -0.008039 0.000000 0.000000 0.000000
# 3 -0.008038 -0.008039 0.029165 0.000000 0.000000 0.000000
# 4 0.000000 0.000000 0.000000 0.077262 0.000000 0.000000
# 5 0.000000 0.000000 0.000000 0.000000 0.077261 0.000000
# 6 0.000000 0.000000 0.000000 0.000000 0.000000 0.095899
#
#
# Mechanical properties :
#
#
# Convention : Reuss Voigt Hill
#
# Bulk Modulus (GPa) = 50.67702 55.99002 53.33352
# Shear Modulus (GPa) = 13.08501 13.65212 13.36857
#
# Velocity S-wave (km/s) = 2.85211 2.91326 2.88285
# Velocity P-wave (km/s) = 6.50771 6.79141 6.65107
#
# Compressibility (1/GPa) = 0.01973281
#
# Stress axis : x y z
#
# Youngs Moduli (GPa) = 46.23163 46.23174 34.28816
#
# Poissons Ratio (x) = 0.47475 0.27562
# Poissons Ratio (y) = 0.47475 0.27563
# Poissons Ratio (z) = 0.37163 0.37164
#
# Static dielectric constant tensor:
#      x y z
#    x 1.546010 0.000000 0.000000 
#    y 0.000000 1.546010 0.000000 
#    z 0.000000 0.000000 1.571620 
# 
# From -- ./inp_files/4179.got.cif
#   From: 2010.05.17/outbox.cif.g08.bks.cpg/sg119_3_cif.got.tgz:4179.got - 2010.05.20 11:21:29.
