data_PCOD9558601
_publ_section_title
;
Structure prediction by ZEFSAII (Michael W. Deem and Ramdas Pophale) SiO2 
 PCOD9558601
Probable space group: P -4 N 2
;
_chemical_formula_sum "Si O2"
_cell_formula_units_Z 48
_cell_length_a 8.410124
_cell_length_b 8.410124
_cell_length_c 32.116460
_cell_angle_alpha 90.000000
_cell_angle_beta 90.000000
_cell_angle_gamma 90.000000
_cell_volume 2271.603180
_symmetry_space_group_name_H-M "P -4 N 2"
_symmetry_group_IT_number 118
_symmetry_cell_setting 'tetragonal'
loop_
_space_group_symop_operation_xyz
x,y,z
y,-x,-z
-x,-y,z
-y,x,-z
1/2+y,1/2+x,1/2-z
1/2-y,1/2-x,1/2-z
1/2-x,1/2+y,1/2+z
1/2+x,1/2-y,1/2+z
loop_
_atom_site_type_symbol
_atom_site_label
_atom_site_fract_x
_atom_site_fract_y
_atom_site_fract_z
Si Si1 0.219073 0.235372 0.201765
Si Si2 0.322124 0.188935 0.049516
Si Si3 0.821010 0.680452 0.971752
Si Si4 0.814980 0.954272 0.368817
Si Si5 0.802920 0.267376 0.109767
Si Si6 0.000000 0.500000 0.336646
Si Si7 0.000000 0.000000 0.845477
O O1 0.262339 0.237662 0.250000
O O2 0.374273 0.278167 0.174900
O O3 0.087853 0.370422 0.191481
O O4 0.135824 0.077008 0.183737
O O5 0.497405 0.231068 0.031634
O O6 0.330519 0.254399 0.096137
O O7 0.307003 0.999441 0.046000
O O8 0.193755 0.263638 0.018874
O O9 0.717483 0.786892 0.939956
O O10 0.728271 0.123046 0.375594
O O11 0.000000 0.000000 0.374253
O O12 0.868030 0.420986 0.133610
O O13 0.921423 0.130915 0.124798
#
# Coordination Sequence:
#
# PCOD9558601 Si02
#       7
#     8   8   8   8   8   4   4
#     4  11  24  41  67  98 133 171 224 276 346 407
#     4  10  24  39  61  91 127 170 217 269 325 385
#     4  10  23  40  60  92 128 168 219 270 315 394
#     4  11  23  43  70  96 130 180 224 277 334 417
#     4  10  22  42  66  94 130 176 223 267 333 396
#     4  10  21  40  64  96 130 178 218 274 329 402
#     4  10  24  42  66  97 138 170 216 285 336 412
#
# _framework density 21.130448999999999
#
# number of rings (size 3 to 8) (size 9 to 14) (size 15 to 20)
#    0.000    1.667    1.667    1.250    5.833    7.667 
#    0.000    1.667    0.000    0.000    0.000    0.000 
#    0.000    0.000    0.000    0.000    0.000    0.000 
#
# Total GULP energy -268358.570446 kJ/mol
# GULP energy per Si atom -5590.803551 kJ/mol
# Density = 2.108236 g / cm^3
# Si number density = 21.130449 Si / 1000 Ang^3
#
#
#
# Elastic Constant Matrix: (Units=GPa)
#
#
# Indices 1 2 3 4 5 6 
#
# 1 49.2769 5.1483 31.6773 0.0000 0.0000 0.0000
# 2 5.1483 49.2770 31.6774 0.0000 0.0000 0.0000
# 3 31.6773 31.6774 153.7957 0.0000 0.0000 0.0000
# 4 0.0000 0.0000 0.0000 24.5251 0.0000 0.0000
# 5 0.0000 0.0000 0.0000 0.0000 24.5251 0.0000
# 6 0.0000 0.0000 0.0000 0.0000 0.0000 23.4725
#
#
#
# Elastic Compliance Matrix: (Units=1/GPa)
#
#
# Indices 1 2 3 4 5 6 
#
# 1 0.023415 0.000754 -0.004978 0.000000 0.000000 0.000000
# 2 0.000754 0.023415 -0.004978 0.000000 0.000000 0.000000
# 3 -0.004978 -0.004978 0.008553 0.000000 0.000000 0.000000
# 4 0.000000 0.000000 0.000000 0.040775 0.000000 0.000000
# 5 0.000000 0.000000 0.000000 0.000000 0.040775 0.000000
# 6 0.000000 0.000000 0.000000 0.000000 0.000000 0.042603
#
#
# Mechanical properties :
#
#
# Convention : Reuss Voigt Hill
#
# Bulk Modulus (GPa) = 27.04317 43.26170 35.15244
# Shear Modulus (GPa) = 23.77953 26.76099 25.27026
#
# Velocity S-wave (km/s) = 3.35829 3.56260 3.46195
# Velocity P-wave (km/s) = 5.27859 6.11890 5.71421
#
# Compressibility (1/GPa) = 0.03697791
#
# Stress axis : x y z
#
# Youngs Moduli (GPa) = 42.70803 42.70809 116.92112
#
# Poissons Ratio (x) = -0.03219 0.58203
# Poissons Ratio (y) = -0.03219 0.58203
# Poissons Ratio (z) = 0.21260 0.21260
#
# Static dielectric constant tensor:
#      x y z
#    x 1.781640 0.000000 0.000000 
#    y 0.000000 1.781640 0.000000 
#    z 0.000000 0.000000 1.730090 
# 
# From -- ./inp_files/6909.got.cif
#   From: 2010.05.17/outbox.cif.g08.bks.cpg/sg118_4_cif.got.tgz:6909.got - 2010.05.20 11:17:24.
