data_PCOD9558708
_publ_section_title
;
Structure prediction by ZEFSAII (Michael W. Deem and Ramdas Pophale) SiO2 
 PCOD9558708
Probable space group: P -4 N 2
;
_chemical_formula_sum "Si O2"
_cell_formula_units_Z 32
_cell_length_a 11.724801
_cell_length_b 11.724801
_cell_length_c 10.319448
_cell_angle_alpha 90.000000
_cell_angle_beta 90.000000
_cell_angle_gamma 90.000000
_cell_volume 1418.624408
_symmetry_space_group_name_H-M "P -4 N 2"
_symmetry_group_IT_number 118
_symmetry_cell_setting 'tetragonal'
loop_
_space_group_symop_operation_xyz
x,y,z
y,-x,-z
-x,-y,z
-y,x,-z
1/2+y,1/2+x,1/2-z
1/2-y,1/2-x,1/2-z
1/2-x,1/2+y,1/2+z
1/2+x,1/2-y,1/2+z
loop_
_atom_site_type_symbol
_atom_site_label
_atom_site_fract_x
_atom_site_fract_y
_atom_site_fract_z
Si Si1 0.500000 0.000000 0.250000
Si Si2 0.239834 0.739834 0.250000
Si Si3 0.250290 0.517905 0.118602
Si Si4 0.334641 0.777941 0.537614
Si Si5 0.000000 0.000000 0.500000
Si Si6 0.823392 0.422776 0.546843
O O1 0.513631 0.890005 0.339000
O O2 0.254923 0.603764 0.239225
O O3 0.289843 0.784943 0.386340
O O4 0.380641 0.513054 0.073561
O O5 0.206796 0.388561 0.116676
O O6 0.160190 0.584009 0.023328
O O7 0.276749 0.662452 0.588995
O O8 0.470383 0.777202 0.533866
#
# Coordination Sequence:
#
# PCOD9558708 Si02
#       6
#     2   4   8   8   2   8
#     4  12  22  44  76 104 134 206 252 298 404 482
#     4  10  23  42  74 101 138 194 238 315 373 431
#     4  11  22  44  71 105 145 187 245 319 371 461
#     4  11  23  46  70 103 146 190 242 309 380 462
#     4  12  20  40  76 104 140 190 260 312 368 440
#     4  11  24  42  74  99 142 191 245 313 382 465
#
# _framework density 22.557064
#
# number of rings (size 3 to 8) (size 9 to 14) (size 15 to 20)
#    0.000    1.000    7.500    0.750    0.000    0.500 
#    9.000    5.000    0.000    0.000    0.000    0.000 
#    0.000    0.000    0.000    0.000    0.000    0.000 
#
# Total GULP energy -178557.175763 kJ/mol
# GULP energy per Si atom -5579.911743 kJ/mol
# Density = 2.250572 g / cm^3
# Si number density = 22.557064 Si / 1000 Ang^3
#
#
#
# Elastic Constant Matrix: (Units=GPa)
#
#
# Indices 1 2 3 4 5 6 
#
# 1 203.8873 73.1690 19.2444 0.0000 0.0000 0.0000
# 2 73.1690 203.8873 19.2444 0.0000 0.0000 0.0000
# 3 19.2444 19.2444 44.6730 0.0000 0.0000 0.0000
# 4 0.0000 0.0000 0.0000 570.9157 0.0000 0.0000
# 5 0.0000 0.0000 0.0000 0.0000 570.9157 0.0000
# 6 0.0000 0.0000 0.0000 0.0000 0.0000 53.7685
#
#
#
# Elastic Compliance Matrix: (Units=1/GPa)
#
#
# Indices 1 2 3 4 5 6 
#
# 1 0.005745 -0.001905 -0.001654 0.000000 0.000000 0.000000
# 2 -0.001905 0.005745 -0.001654 0.000000 0.000000 0.000000
# 3 -0.001654 -0.001654 0.023810 0.000000 0.000000 0.000000
# 4 0.000000 0.000000 0.000000 0.001752 0.000000 0.000000
# 5 0.000000 0.000000 0.000000 0.000000 0.001752 0.000000
# 6 0.000000 0.000000 0.000000 0.000000 0.000000 0.018598
#
#
# Mechanical properties :
#
#
# Convention : Reuss Voigt Hill
#
# Bulk Modulus (GPa) = 40.20475 75.08481 57.64478
# Shear Modulus (GPa) = 65.68796 261.83931 163.76364
#
# Velocity S-wave (km/s) = 5.40222 10.78567 8.52979
# Velocity P-wave (km/s) = 7.53487 13.72831 11.07341
#
# Compressibility (1/GPa) = 0.02487268
#
# Stress axis : x y z
#
# Youngs Moduli (GPa) = 174.07705 174.07705 41.99959
#
# Poissons Ratio (x) = 0.33170 0.06946
# Poissons Ratio (y) = 0.33170 0.06946
# Poissons Ratio (z) = 0.28789 0.28789
#
# Static dielectric constant tensor:
#      x y z
#    x 1.874580 0.000000 0.000000 
#    y 0.000000 1.874580 0.000000 
#    z 0.000000 0.000000 1.949990 
# 
# From -- ./inp_files/2978.got.cif
#   From: 2010.05.17/outbox.cif.g08.bks.cpg/sg118_2_cif.got.tgz:2978.got - 2010.05.20 11:17:24.
