data_PCOD9558199
_publ_section_title
;
Structure prediction by ZEFSAII (Michael W. Deem and Ramdas Pophale) SiO2 
 PCOD9558199
Probable space group: P -4 B 2
;
_chemical_formula_sum "Si O2"
_cell_formula_units_Z 32
_cell_length_a 15.278157
_cell_length_b 15.278157
_cell_length_c 5.268825
_cell_angle_alpha 90.000000
_cell_angle_beta 90.000000
_cell_angle_gamma 90.000000
_cell_volume 1229.860098
_symmetry_space_group_name_H-M "P -4 B 2"
_symmetry_group_IT_number 117
_symmetry_cell_setting 'tetragonal'
loop_
_space_group_symop_operation_xyz
x,y,z
y,-x,-z
-x,-y,z
-y,x,-z
1/2+y,1/2+x,-z
1/2-y,1/2-x,-z
1/2-x,1/2+y,z
1/2+x,1/2-y,z
loop_
_atom_site_type_symbol
_atom_site_label
_atom_site_fract_x
_atom_site_fract_y
_atom_site_fract_z
Si Si1 0.458448 0.793254 0.293957
Si Si2 0.387634 0.446560 0.559720
Si Si3 0.723185 0.401087 0.098316
Si Si4 0.383689 0.116312 0.500000
Si Si5 0.788245 0.711756 0.000000
O O1 0.451865 0.714525 0.496071
O O2 0.520836 0.871127 0.378593
O O3 0.360091 0.810424 0.210970
O O4 0.514702 0.750324 0.063362
O O5 0.418811 0.542224 0.652959
O O6 0.404694 0.367631 0.751884
O O7 0.803855 0.379990 0.295023
O O8 0.706389 0.314012 0.928045
#
# Coordination Sequence:
#
# PCOD9558199 Si02
#       5
#     8   8   8   4   4
#     4  11  24  45  72 104 147 201 242 308 376 444
#     4  10  22  38  65 108 145 182 243 303 372 455
#     4  11  23  44  71 102 150 194 239 307 376 442
#     4  12  22  46  75  98 144 195 244 308 368 434
#     4  10  24  46  69 107 140 196 242 292 370 446
#
# _framework density 26.019220000000001
#
# number of rings (size 3 to 8) (size 9 to 14) (size 15 to 20)
#    0.000    1.250    5.000    0.000    0.000   10.000 
#    0.000    3.750    0.000    0.000    0.000    0.000 
#    0.000    0.000    0.000    0.000    0.000    0.000 
#
# Total GULP energy -178747.714090 kJ/mol
# GULP energy per Si atom -5585.866065 kJ/mol
# Density = 2.596000 g / cm^3
# Si number density = 26.019220 Si / 1000 Ang^3
#
#
#
# Elastic Constant Matrix: (Units=GPa)
#
#
# Indices 1 2 3 4 5 6 
#
# 1 129.3945 22.5822 33.6330 0.0000 0.0000 0.0000
# 2 22.5822 129.3966 33.6328 0.0000 0.0000 0.0000
# 3 33.6330 33.6328 57.2090 0.0000 0.0000 0.0000
# 4 0.0000 0.0000 0.0000 43.2129 0.0000 0.0000
# 5 0.0000 0.0000 0.0000 0.0000 43.2129 0.0000
# 6 0.0000 0.0000 0.0000 0.0000 0.0000 51.3108
#
#
#
# Elastic Compliance Matrix: (Units=1/GPa)
#
#
# Indices 1 2 3 4 5 6 
#
# 1 0.009128 -0.000234 -0.005229 0.000000 0.000000 0.000000
# 2 -0.000234 0.009128 -0.005229 0.000000 0.000000 0.000000
# 3 -0.005229 -0.005229 0.023628 0.000000 0.000000 0.000000
# 4 0.000000 0.000000 0.000000 0.023141 0.000000 0.000000
# 5 0.000000 0.000000 0.000000 0.000000 0.023141 0.000000
# 6 0.000000 0.000000 0.000000 0.000000 0.000000 0.019489
#
#
# Mechanical properties :
#
#
# Convention : Reuss Voigt Hill
#
# Bulk Modulus (GPa) = 48.77863 55.07733 51.92798
# Shear Modulus (GPa) = 36.79915 42.62412 39.71163
#
# Velocity S-wave (km/s) = 3.76481 4.05183 3.91095
# Velocity P-wave (km/s) = 6.13891 6.56534 6.35570
#
# Compressibility (1/GPa) = 0.02050078
#
# Stress axis : x y z
#
# Youngs Moduli (GPa) = 109.54986 109.55204 42.32303
#
# Poissons Ratio (x) = 0.02563 0.22130
# Poissons Ratio (y) = 0.02563 0.22130
# Poissons Ratio (z) = 0.57283 0.57283
#
# Static dielectric constant tensor:
#      x y z
#    x 2.092850 0.000000 0.000000 
#    y 0.000000 2.092850 0.000000 
#    z 0.000000 0.000000 2.146060 
# 
# From -- ./inp_files/494.got.cif
#   From: 2010.05.17/outbox.cif.g08.bks.cpg/sg117_1_cif.got.tgz:494.got - 2010.05.20 11:15:09.
