data_PCOD9558583
_publ_section_title
;
Structure prediction by ZEFSAII (Michael W. Deem and Ramdas Pophale) SiO2 
 PCOD9558583
Probable space group: P -4 N 2
;
_chemical_formula_sum "Si O2"
_cell_formula_units_Z 44
_cell_length_a 7.992005
_cell_length_b 7.992005
_cell_length_c 29.592137
_cell_angle_alpha 90.000000
_cell_angle_beta 90.000000
_cell_angle_gamma 90.000000
_cell_volume 1890.113233
_symmetry_space_group_name_H-M "P -4 N 2"
_symmetry_group_IT_number 118
_symmetry_cell_setting 'tetragonal'
loop_
_space_group_symop_operation_xyz
x,y,z
y,-x,-z
-x,-y,z
-y,x,-z
1/2+y,1/2+x,1/2-z
1/2-y,1/2-x,1/2-z
1/2-x,1/2+y,1/2+z
1/2+x,1/2-y,1/2+z
loop_
_atom_site_type_symbol
_atom_site_label
_atom_site_fract_x
_atom_site_fract_y
_atom_site_fract_z
Si Si1 0.762856 0.362707 0.919806
Si Si2 0.237433 0.375000 0.599882
Si Si3 0.654199 0.730357 0.509018
Si Si4 0.262133 0.592325 0.312430
Si Si5 0.500000 0.500000 0.233892
Si Si6 0.248967 0.399392 0.166745
O O1 0.815801 0.545771 0.903047
O O2 0.750630 0.353669 0.974335
O O3 0.619483 0.299167 0.885884
O O4 0.929558 0.250891 0.912839
O O5 0.323778 0.256175 0.562653
O O6 0.317804 0.362010 0.648312
O O7 0.727660 0.545146 0.498620
O O8 0.366281 0.590979 0.266325
O O9 0.229623 0.397779 0.322959
O O10 0.079764 0.677758 0.317986
O O11 0.405813 0.373736 0.199845
#
# Coordination Sequence:
#
# PCOD9558583 Si02
#       6
#     8   8   8   8   4   8
#     4  10  21  38  61  92 131 171 218 275 331 395
#     4  10  21  38  61  92 130 172 219 274 332 394
#     4   9  18  34  58  87 124 172 221 270 333 402
#     4  11  24  42  66  93 126 169 218 272 333 402
#     4  12  24  42  66  92 126 166 220 278 332 398
#     4  11  24  42  65  94 127 168 218 272 333 402
#
# _framework density 23.279029000000001
#
# number of rings (size 3 to 8) (size 9 to 14) (size 15 to 20)
#    0.000    1.636    0.000    4.364    0.000    5.818 
#    0.000    3.636    0.000    2.182    0.000    0.000 
#    0.000    0.000    0.000    0.000    0.000    0.000 
#
# Total GULP energy -245719.569670 kJ/mol
# GULP energy per Si atom -5584.535674 kJ/mol
# Density = 2.322605 g / cm^3
# Si number density = 23.279029 Si / 1000 Ang^3
#
#
#
# Elastic Constant Matrix: (Units=GPa)
#
#
# Indices 1 2 3 4 5 6 
#
# 1 58.5129 8.4325 18.7093 0.0000 0.0000 0.0000
# 2 8.4325 58.5129 18.7093 0.0000 0.0000 0.0000
# 3 18.7093 18.7093 101.4982 0.0000 0.0000 0.0000
# 4 0.0000 0.0000 0.0000 45.2778 0.0000 0.0000
# 5 0.0000 0.0000 0.0000 0.0000 45.2778 0.0000
# 6 0.0000 0.0000 0.0000 0.0000 0.0000 18.4224
#
#
#
# Elastic Compliance Matrix: (Units=1/GPa)
#
#
# Indices 1 2 3 4 5 6 
#
# 1 0.018311 -0.001657 -0.003070 0.000000 0.000000 0.000000
# 2 -0.001657 0.018311 -0.003070 0.000000 0.000000 0.000000
# 3 -0.003070 -0.003070 0.010984 0.000000 0.000000 0.000000
# 4 0.000000 0.000000 0.000000 0.022086 0.000000 0.000000
# 5 0.000000 0.000000 0.000000 0.000000 0.022086 0.000000
# 6 0.000000 0.000000 0.000000 0.000000 0.000000 0.054282
#
#
# Mechanical properties :
#
#
# Convention : Reuss Voigt Hill
#
# Bulk Modulus (GPa) = 31.23841 34.46955 32.85398
# Shear Modulus (GPa) = 29.01530 33.30712 31.16121
#
# Velocity S-wave (km/s) = 3.53429 3.78667 3.66265
# Velocity P-wave (km/s) = 5.48664 5.82733 5.65955
#
# Compressibility (1/GPa) = 0.03201187
#
# Stress axis : x y z
#
# Youngs Moduli (GPa) = 54.61313 54.61313 91.04086
#
# Poissons Ratio (x) = 0.09051 0.27947
# Poissons Ratio (y) = 0.09051 0.27947
# Poissons Ratio (z) = 0.16765 0.16765
#
# Static dielectric constant tensor:
#      x y z
#    x 1.902160 0.000000 0.000000 
#    y 0.000000 1.902160 0.000000 
#    z 0.000000 0.000000 1.892930 
# 
# From -- ./inp_files/6770.got.cif
#   From: 2010.05.17/outbox.cif.g08.bks.cpg/sg118_4_cif.got.tgz:6770.got - 2010.05.20 11:17:24.
