data_PCOD9558041
_publ_section_title
;
Structure prediction by ZEFSAII (Michael W. Deem and Ramdas Pophale) SiO2 
 PCOD9558041
Probable space group: P -4 C 2
;
_chemical_formula_sum "Si O2"
_cell_formula_units_Z 16
_cell_length_a 5.118863
_cell_length_b 5.118863
_cell_length_c 25.648865
_cell_angle_alpha 90.000000
_cell_angle_beta 90.000000
_cell_angle_gamma 90.000000
_cell_volume 672.071013
_symmetry_space_group_name_H-M "P -4 C 2"
_symmetry_group_IT_number 116
_symmetry_cell_setting 'tetragonal'
loop_
_space_group_symop_operation_xyz
x,y,z
y,-x,-z
-x,-y,z
-y,x,-z
y,x,1/2-z
-y,-x,1/2-z
-x,y,1/2+z
x,-y,1/2+z
loop_
_atom_site_type_symbol
_atom_site_label
_atom_site_fract_x
_atom_site_fract_y
_atom_site_fract_z
Si Si1 0.000000 0.500000 0.324386
Si Si2 0.316867 0.756303 0.908822
Si Si3 0.000000 0.000000 0.500000
Si Si4 0.500000 0.500000 0.250000
O O1 0.903707 0.719048 0.364980
O O2 0.751257 0.475611 0.287095
O O3 0.500000 0.500000 0.911032
O O4 0.500000 0.000000 0.895996
O O5 0.172885 0.816200 0.962996
#
# Coordination Sequence:
#
# PCOD9558041 Si02
#       4
#     4   8   2   2
#     4  12  30  60  82 130 164 220 288 348 432 494
#     4  12  30  54  84 124 172 226 276 351 413 515
#     4  12  32  44  88 126 180 220 288 324 440 490
#     4  12  32  52  96 114 170 218 284 362 420 500
#
# _framework density 23.807006999999999
#
# number of rings (size 3 to 8) (size 9 to 14) (size 15 to 20)
#    0.000    0.000    2.500    3.000   14.000    5.000 
#    0.000    0.000    0.000    0.000    0.000    0.000 
#    0.000    0.000    0.000    0.000    0.000    0.000 
#
# Total GULP energy -89697.905954 kJ/mol
# GULP energy per Si atom -5606.119122 kJ/mol
# Density = 2.375282 g / cm^3
# Si number density = 23.807007 Si / 1000 Ang^3
#
#
#
# Elastic Constant Matrix: (Units=GPa)
#
#
# Indices 1 2 3 4 5 6 
#
# 1 215.9004 99.6799 104.0665 0.0000 0.0000 0.0000
# 2 99.6799 215.9004 104.0665 0.0000 0.0000 0.0000
# 3 104.0665 104.0665 201.6861 0.0000 0.0000 0.0000
# 4 0.0000 0.0000 0.0000 93.3709 0.0000 0.0000
# 5 0.0000 0.0000 0.0000 0.0000 93.3709 0.0000
# 6 0.0000 0.0000 0.0000 0.0000 0.0000 59.9021
#
#
#
# Elastic Compliance Matrix: (Units=1/GPa)
#
#
# Indices 1 2 3 4 5 6 
#
# 1 0.006704 -0.001900 -0.002478 0.000000 0.000000 0.000000
# 2 -0.001900 0.006704 -0.002478 0.000000 0.000000 0.000000
# 3 -0.002478 -0.002478 0.007516 0.000000 0.000000 0.000000
# 4 0.000000 0.000000 0.000000 0.010710 0.000000 0.000000
# 5 0.000000 0.000000 0.000000 0.000000 0.010710 0.000000
# 6 0.000000 0.000000 0.000000 0.000000 0.000000 0.016694
#
#
# Mechanical properties :
#
#
# Convention : Reuss Voigt Hill
#
# Bulk Modulus (GPa) = 138.71940 138.79031 138.75485
# Shear Modulus (GPa) = 66.52906 71.04040 68.78473
#
# Velocity S-wave (km/s) = 5.29205 5.46854 5.38102
# Velocity P-wave (km/s) = 9.78447 9.91453 9.84971
#
# Compressibility (1/GPa) = 0.00720880
#
# Stress axis : x y z
#
# Youngs Moduli (GPa) = 149.16803 149.16803 133.05171
#
# Poissons Ratio (x) = 0.28349 0.32976
# Poissons Ratio (y) = 0.28349 0.32976
# Poissons Ratio (z) = 0.36971 0.36971
#
# Static dielectric constant tensor:
#      x y z
#    x 1.895670 0.000000 0.000000 
#    y 0.000000 1.895670 0.000000 
#    z 0.000000 0.000000 1.887630 
# 
# From -- ./inp_files/3576.got.cif
#   From: 2010.05.17/outbox.cif.g08.bks.cpg/sg116_2_cif.got.tgz:3576.got - 2010.05.20 11:11:43.
