data_PCOD9558838
_publ_section_title
;
Structure prediction by ZEFSAII (Michael W. Deem and Ramdas Pophale) SiO2 
 PCOD9558838
Probable space group: P -4 N 2
;
_chemical_formula_sum "Si O2"
_cell_formula_units_Z 18
_cell_length_a 8.608718
_cell_length_b 8.608718
_cell_length_c 10.421759
_cell_angle_alpha 90.000000
_cell_angle_beta 90.000000
_cell_angle_gamma 90.000000
_cell_volume 772.356826
_symmetry_space_group_name_H-M "P -4 N 2"
_symmetry_group_IT_number 118
_symmetry_cell_setting 'tetragonal'
loop_
_space_group_symop_operation_xyz
x,y,z
y,-x,-z
-x,-y,z
-y,x,-z
1/2+y,1/2+x,1/2-z
1/2-y,1/2-x,1/2-z
1/2-x,1/2+y,1/2+z
1/2+x,1/2-y,1/2+z
loop_
_atom_site_type_symbol
_atom_site_label
_atom_site_fract_x
_atom_site_fract_y
_atom_site_fract_z
Si Si1 0.687335 0.812666 0.750000
Si Si2 0.500000 0.000000 0.962245
Si Si3 0.500000 0.500000 0.000000
Si Si4 0.981383 0.257750 0.669135
O O1 0.674741 0.625632 0.761036
O O2 0.621681 0.910730 0.870713
O O3 0.559224 0.126754 0.064899
O O4 0.620827 0.406168 0.913083
O O5 0.857737 0.357737 0.750000
#
# Coordination Sequence:
#
# PCOD9558838 Si02
#       4
#     4   4   2   8
#     4  11  23  42  72 108 143 199 240 312 374 451
#     4  11  23  42  76 106 149 189 254 304 374 451
#     4  12  28  44  72 114 152 192 252 320 386 444
#     4  12  24  46  75 108 152 196 249 316 381 452
#
# _framework density 23.305289999999999
#
# number of rings (size 3 to 8) (size 9 to 14) (size 15 to 20)
#    0.000    0.444    8.889    0.000    0.000    3.556 
#    0.000    0.000    0.000    0.000    0.000    0.000 
#    0.000    0.000    0.000    0.000    0.000    0.000 
#
# Total GULP energy -100292.124012 kJ/mol
# GULP energy per Si atom -5571.784667 kJ/mol
# Density = 2.325225 g / cm^3
# Si number density = 23.305290 Si / 1000 Ang^3
#
#
#
# Elastic Constant Matrix: (Units=GPa)
#
#
# Indices 1 2 3 4 5 6 
#
# 1 136.3140 70.2965 76.9445 0.0000 0.0000 0.0000
# 2 70.2965 136.3128 76.9443 0.0000 0.0000 0.0000
# 3 76.9445 76.9443 130.2942 0.0000 0.0000 0.0000
# 4 0.0000 0.0000 0.0000 46.6470 0.0000 0.0000
# 5 0.0000 0.0000 0.0000 0.0000 46.6472 0.0000
# 6 0.0000 0.0000 0.0000 0.0000 0.0000 46.9494
#
#
#
# Elastic Compliance Matrix: (Units=1/GPa)
#
#
# Indices 1 2 3 4 5 6 
#
# 1 0.011894 -0.003253 -0.005103 0.000000 0.000000 0.000000
# 2 -0.003253 0.011894 -0.005103 0.000000 0.000000 0.000000
# 3 -0.005103 -0.005103 0.013702 0.000000 0.000000 0.000000
# 4 0.000000 0.000000 0.000000 0.021438 0.000000 0.000000
# 5 0.000000 0.000000 0.000000 0.000000 0.021438 0.000000
# 6 0.000000 0.000000 0.000000 0.000000 0.000000 0.021300
#
#
# Mechanical properties :
#
#
# Convention : Reuss Voigt Hill
#
# Bulk Modulus (GPa) = 94.58740 94.58795 94.58767
# Shear Modulus (GPa) = 37.84828 39.96444 38.90636
#
# Velocity S-wave (km/s) = 4.03429 4.14553 4.09029
# Velocity P-wave (km/s) = 7.89778 7.97424 7.93610
#
# Compressibility (1/GPa) = 0.01057223
#
# Stress axis : x y z
#
# Youngs Moduli (GPa) = 84.07534 84.07457 72.98390
#
# Poissons Ratio (x) = 0.27354 0.37241
# Poissons Ratio (y) = 0.27354 0.37242
# Poissons Ratio (z) = 0.42901 0.42901
#
# Static dielectric constant tensor:
#      x y z
#    x 1.904500 0.000000 0.000000 
#    y 0.000000 1.904510 0.000000 
#    z 0.000000 0.000000 2.012880 
# 
# From -- ./inp_files/2449.got.cif
#   From: 2010.05.17/outbox.cif.g08.bks.cpg/sg118_2_cif.got.tgz:2449.got - 2010.05.20 11:17:24.
