data_PCOD9559882
_publ_section_title
;
Structure prediction by ZEFSAII (Michael W. Deem and Ramdas Pophale) SiO2 
 PCOD9559882
Probable space group: I -4 C 2
;
_chemical_formula_sum "Si O2"
_cell_formula_units_Z 88
_cell_length_a 17.133785
_cell_length_b 17.133785
_cell_length_c 12.550822
_cell_angle_alpha 90.000000
_cell_angle_beta 90.000000
_cell_angle_gamma 90.000000
_cell_volume 3684.501996
_symmetry_space_group_name_H-M "I -4 C 2"
_symmetry_group_IT_number 120
_symmetry_cell_setting 'tetragonal'
loop_
_space_group_symop_operation_xyz
x,y,z
y,-x,-z
-x,-y,z
-y,x,-z
y,x,1/2-z
-y,-x,1/2-z
-x,y,1/2+z
x,-y,1/2+z
1/2+x,1/2+y,1/2+z
1/2+y,1/2-x,1/2-z
1/2-x,1/2-y,1/2+z
1/2-y,1/2+x,1/2-z
1/2+y,1/2+x,-z
1/2-y,1/2-x,-z
1/2-x,1/2+y,z
1/2+x,1/2-y,z
loop_
_atom_site_type_symbol
_atom_site_label
_atom_site_fract_x
_atom_site_fract_y
_atom_site_fract_z
Si Si1 0.679378 0.512422 0.427709
Si Si2 0.765731 0.986147 0.643974
Si Si3 0.124393 0.768094 0.685551
Si Si4 0.115089 0.115089 0.750000
Si Si5 0.099001 0.617752 0.345951
Si Si6 0.945690 0.636637 0.599378
O O1 0.675849 0.517089 0.554225
O O2 0.679786 0.420224 0.400818
O O3 0.618424 0.554088 0.349146
O O4 0.768670 0.544867 0.407800
O O5 0.803930 0.908443 0.694674
O O6 0.679782 0.961347 0.606804
O O7 0.755957 0.054084 0.729710
O O8 0.193000 0.807001 0.750000
O O9 0.146126 0.686764 0.633764
O O10 0.088987 0.618768 0.217309
O O11 0.096254 0.530763 0.391025
O O12 0.895942 0.604059 0.500000
#
# Coordination Sequence:
#
# PCOD9559882 Si02
#       6
#    16  16  16   8  16  16
#     4  10  23  45  69 100 138 183 238 304 365 441
#     4  11  23  45  69 104 144 182 247 303 370 437
#     4  10  23  42  68  97 138 184 234 302 364 431
#     4  10  22  46  77  98 140 186 232 313 362 440
#     4  11  22  46  64 104 141 189 246 303 354 447
#     4  11  24  44  66  99 145 196 242 300 366 432
#
# _framework density 23.883825000000002
#
# number of rings (size 3 to 8) (size 9 to 14) (size 15 to 20)
#    0.000    1.455    5.455    1.091    3.818    3.273 
#    3.273    7.273    0.000    0.000    0.000    0.000 
#    0.000    0.000    0.000    0.000    0.000    0.000 
#
# Total GULP energy -245631.882759 kJ/mol
# GULP energy per Si atom -5582.542790 kJ/mol
# Density = 2.382946 g / cm^3
# Si number density = 23.883825 Si / 1000 Ang^3
#
#
#
# Elastic Constant Matrix: (Units=GPa)
#
#
# Indices 1 2 3 4 5 6 
#
# 1 57.6193 44.4716 11.8273 0.0000 0.0000 0.0000
# 2 44.4716 57.6240 11.8262 0.0000 0.0000 0.0000
# 3 11.8273 11.8262 114.7185 0.0000 0.0000 0.0000
# 4 0.0000 0.0000 0.0000 32.9798 0.0000 0.0000
# 5 0.0000 0.0000 0.0000 0.0000 32.9804 0.0000
# 6 0.0000 0.0000 0.0000 0.0000 0.0000 46.3837
#
#
#
# Elastic Compliance Matrix: (Units=1/GPa)
#
#
# Indices 1 2 3 4 5 6 
#
# 1 0.043042 -0.033005 -0.001035 0.000000 0.000000 0.000000
# 2 -0.033005 0.043038 -0.001034 0.000000 0.000000 0.000000
# 3 -0.001035 -0.001034 0.008930 0.000000 0.000000 0.000000
# 4 0.000000 0.000000 0.000000 0.030322 0.000000 0.000000
# 5 0.000000 0.000000 0.000000 0.000000 0.030321 0.000000
# 6 0.000000 0.000000 0.000000 0.000000 0.000000 0.021559
#
#
# Mechanical properties :
#
#
# Convention : Reuss Voigt Hill
#
# Bulk Modulus (GPa) = 40.22275 40.69022 40.45648
# Shear Modulus (GPa) = 19.55813 33.25790 26.40801
#
# Velocity S-wave (km/s) = 2.86472 3.73565 3.32879
# Velocity P-wave (km/s) = 5.27444 5.97332 5.63472
#
# Compressibility (1/GPa) = 0.02486155
#
# Stress axis : x y z
#
# Youngs Moduli (GPa) = 23.23317 23.23521 111.97845
#
# Poissons Ratio (x) = 0.76689 0.11591
# Poissons Ratio (y) = 0.76682 0.11578
# Poissons Ratio (z) = 0.02405 0.02402
#
# Static dielectric constant tensor:
#      x y z
#    x 1.921090 0.000000 0.000000 
#    y 0.000000 1.921100 0.000000 
#    z 0.000000 0.000000 1.993920 
# 
# From -- ./inp_files/3518.got.cif
#   From: 2010.05.17/outbox.cif.g08.bks.cpg/sg120_2_cif.got.tgz:3518.got - 2010.05.20 11:28:13.
