data_PCOD9559725
_publ_section_title
;
Structure prediction by ZEFSAII (Michael W. Deem and Ramdas Pophale) SiO2 
 PCOD9559725
Probable space group: I -4 C 2
;
_chemical_formula_sum "Si O2"
_cell_formula_units_Z 72
_cell_length_a 21.815982
_cell_length_b 21.815982
_cell_length_c 7.758700
_cell_angle_alpha 90.000000
_cell_angle_beta 90.000000
_cell_angle_gamma 90.000000
_cell_volume 3692.652950
_symmetry_space_group_name_H-M "I -4 C 2"
_symmetry_group_IT_number 120
_symmetry_cell_setting 'tetragonal'
loop_
_space_group_symop_operation_xyz
x,y,z
y,-x,-z
-x,-y,z
-y,x,-z
y,x,1/2-z
-y,-x,1/2-z
-x,y,1/2+z
x,-y,1/2+z
1/2+x,1/2+y,1/2+z
1/2+y,1/2-x,1/2-z
1/2-x,1/2-y,1/2+z
1/2-y,1/2+x,1/2-z
1/2+y,1/2+x,-z
1/2-y,1/2-x,-z
1/2-x,1/2+y,z
1/2+x,1/2-y,z
loop_
_atom_site_type_symbol
_atom_site_label
_atom_site_fract_x
_atom_site_fract_y
_atom_site_fract_z
Si Si1 0.417052 0.458268 0.062302
Si Si2 0.189466 0.873985 0.084917
Si Si3 0.149210 0.683079 0.303812
Si Si4 0.288069 0.711932 0.250000
Si Si5 0.425820 0.066608 0.704021
O O1 0.436695 0.436695 0.250000
O O2 0.350182 0.432211 0.025654
O O3 0.426258 0.530840 0.053644
O O4 0.156393 0.843608 0.250000
O O5 0.255608 0.889801 0.164046
O O6 0.194863 0.827496 0.921387
O O7 0.165263 0.665263 0.500000
O O8 0.215222 0.699834 0.220793
O O9 0.110209 0.627832 0.223433
O O10 0.494376 0.083523 0.762812
O O11 0.425519 0.074482 0.500000
#
# Coordination Sequence:
#
# PCOD9559725 Si02
#       5
#    16  16  16   8  16
#     4  10  21  37  59  83 117 157 193 240 289 344
#     4  10  21  38  57  90 116 151 198 243 282 352
#     4   9  19  38  59  84 115 154 192 238 293 347
#     4  10  20  38  66  77 122 159 186 238 300 348
#     4  10  20  39  58  85 118 151 196 242 291 349
#
# _framework density 19.498176999999998
#
# number of rings (size 3 to 8) (size 9 to 14) (size 15 to 20)
#    0.000    2.222    1.111    2.667    3.111    0.000 
#   12.000    4.444    0.000    0.000    0.000    0.000 
#    0.000    0.000    0.000    0.000    0.000    0.000 
#
# Total GULP energy -200534.824134 kJ/mol
# GULP energy per Si atom -5570.411781 kJ/mol
# Density = 1.945380 g / cm^3
# Si number density = 19.498177 Si / 1000 Ang^3
#
#
#
# Elastic Constant Matrix: (Units=GPa)
#
#
# Indices 1 2 3 4 5 6 
#
# 1 81.9857 63.5762 10.2688 0.0000 0.0000 0.0000
# 2 63.5762 81.9891 10.2696 0.0000 0.0000 0.0000
# 3 10.2688 10.2696 64.8104 0.0000 0.0000 0.0000
# 4 0.0000 0.0000 0.0000 5.8491 0.0000 0.0000
# 5 0.0000 0.0000 0.0000 0.0000 5.8466 0.0000
# 6 0.0000 0.0000 0.0000 0.0000 0.0000 41.7285
#
#
#
# Elastic Compliance Matrix: (Units=1/GPa)
#
#
# Indices 1 2 3 4 5 6 
#
# 1 0.030671 -0.023644 -0.001113 0.000000 0.000000 0.000000
# 2 -0.023644 0.030670 -0.001114 0.000000 0.000000 0.000000
# 3 -0.001113 -0.001114 0.015782 0.000000 0.000000 0.000000
# 4 0.000000 0.000000 0.000000 0.170966 0.000000 0.000000
# 5 0.000000 0.000000 0.000000 0.000000 0.171041 0.000000
# 6 0.000000 0.000000 0.000000 0.000000 0.000000 0.023964
#
#
# Mechanical properties :
#
#
# Convention : Reuss Voigt Hill
#
# Bulk Modulus (GPa) = 39.39693 44.11271 41.75482
# Shear Modulus (GPa) = 9.93447 20.32953 15.13200
#
# Velocity S-wave (km/s) = 2.25968 3.23249 2.78883
# Velocity P-wave (km/s) = 5.20168 6.05022 5.64193
#
# Compressibility (1/GPa) = 0.02538269
#
# Stress axis : x y z
#
# Youngs Moduli (GPa) = 32.60368 32.60497 63.36142
#
# Poissons Ratio (x) = 0.77091 0.07053
# Poissons Ratio (y) = 0.77088 0.07056
# Poissons Ratio (z) = 0.03629 0.03631
#
# Static dielectric constant tensor:
#      x y z
#    x 1.745980 0.000000 0.000000 
#    y 0.000000 1.745970 0.000000 
#    z 0.000000 0.000000 1.712160 
# 
# From -- ./inp_files/1326.got.cif
#   From: 2010.05.17/outbox.cif.g08.bks.cpg/sg120_1_cif.got.tgz:1326.got - 2010.05.20 11:28:13.
