data_PCOD9559229
_publ_section_title
;
Structure prediction by ZEFSAII (Michael W. Deem and Ramdas Pophale) SiO2 
 PCOD9559229
Probable space group: I -4 M 2
;
_chemical_formula_sum "Si O2"
_cell_formula_units_Z 72
_cell_length_a 11.992887
_cell_length_b 11.992887
_cell_length_c 29.436728
_cell_angle_alpha 90.000000
_cell_angle_beta 90.000000
_cell_angle_gamma 90.000000
_cell_volume 4233.865119
_symmetry_space_group_name_H-M "I -4 M 2"
_symmetry_group_IT_number 119
_symmetry_cell_setting 'tetragonal'
loop_
_space_group_symop_operation_xyz
x,y,z
y,-x,-z
-x,-y,z
-y,x,-z
y,x,-z
-y,-x,-z
-x,y,z
x,-y,z
1/2+x,1/2+y,1/2+z
1/2+y,1/2-x,1/2-z
1/2-x,1/2-y,1/2+z
1/2-y,1/2+x,1/2-z
1/2+y,1/2+x,1/2-z
1/2-y,1/2-x,1/2-z
1/2-x,1/2+y,1/2+z
1/2+x,1/2-y,1/2+z
loop_
_atom_site_type_symbol
_atom_site_label
_atom_site_fract_x
_atom_site_fract_y
_atom_site_fract_z
Si Si1 0.500000 0.678936 0.755244
Si Si2 0.128323 0.132052 0.554175
Si Si3 0.373148 0.255209 0.210476
Si Si4 0.866276 0.000000 0.852708
Si Si5 0.212196 0.275819 0.128192
Si Si6 0.370090 0.000000 0.677956
O O1 0.386432 0.628965 0.775861
O O2 0.500000 0.665974 0.701129
O O3 0.500000 0.804600 0.774354
O O4 0.142978 0.142978 0.500000
O O5 0.220784 0.197706 0.582368
O O6 0.000000 0.164663 0.565442
O O7 0.138012 0.000000 0.565191
O O8 0.500000 0.219419 0.205564
O O9 0.310954 0.189047 0.250000
O O10 0.303174 0.237166 0.164989
O O11 0.810599 0.889538 0.874025
O O12 0.000000 0.000000 0.856247
O O13 0.164614 0.391020 0.149336
O O14 0.500000 0.000000 0.685103
#
# Coordination Sequence:
#
# PCOD9559229 Si02
#       6
#     8  16  16   8  16   8
#     4  10  22  38  52  75 114 160 189 228 277 336
#     4   9  18  35  62  94 121 143 174 224 289 354
#     4  11  22  35  53  79 110 149 192 230 274 332
#     4  12  24  39  57  76 110 160 205 237 277 333
#     4  11  21  36  57  84 116 150 181 235 285 340
#     4  10  20  34  54  90 121 143 186 232 299 338
#
# _framework density 17.005737
#
# number of rings (size 3 to 8) (size 9 to 14) (size 15 to 20)
#    0.000    1.556    4.444    2.333    0.000    0.222 
#    2.000    0.000    2.444    2.000    0.000    0.000 
#    0.000    0.000    0.000    0.000    0.000    0.000 
#
# Total GULP energy -201031.202096 kJ/mol
# GULP energy per Si atom -5584.200058 kJ/mol
# Density = 1.696703 g / cm^3
# Si number density = 17.005737 Si / 1000 Ang^3
#
#
#
# Elastic Constant Matrix: (Units=GPa)
#
#
# Indices 1 2 3 4 5 6 
#
# 1 124.3614 59.1714 47.6939 0.0000 0.0000 0.0000
# 2 59.1714 124.3587 47.6938 0.0000 0.0000 0.0000
# 3 47.6939 47.6938 67.3908 0.0000 0.0000 0.0000
# 4 0.0000 0.0000 0.0000 15.8391 0.0000 0.0000
# 5 0.0000 0.0000 0.0000 0.0000 15.8390 0.0000
# 6 0.0000 0.0000 0.0000 0.0000 0.0000 8.9236
#
#
#
# Elastic Compliance Matrix: (Units=1/GPa)
#
#
# Indices 1 2 3 4 5 6 
#
# 1 0.011979 -0.003361 -0.006100 0.000000 0.000000 0.000000
# 2 -0.003361 0.011980 -0.006100 0.000000 0.000000 0.000000
# 3 -0.006100 -0.006100 0.023473 0.000000 0.000000 0.000000
# 4 0.000000 0.000000 0.000000 0.063135 0.000000 0.000000
# 5 0.000000 0.000000 0.000000 0.000000 0.063135 0.000000
# 6 0.000000 0.000000 0.000000 0.000000 0.000000 0.112063
#
#
# Mechanical properties :
#
#
# Convention : Reuss Voigt Hill
#
# Bulk Modulus (GPa) = 61.30679 69.46990 65.38834
# Shear Modulus (GPa) = 15.51243 18.89044 17.20144
#
# Velocity S-wave (km/s) = 3.02352 3.33652 3.18387
# Velocity P-wave (km/s) = 6.95110 7.46878 7.21459
#
# Compressibility (1/GPa) = 0.01631141
#
# Stress axis : x y z
#
# Youngs Moduli (GPa) = 83.47703 83.47470 42.60267
#
# Poissons Ratio (x) = 0.28052 0.25986
# Poissons Ratio (y) = 0.28053 0.25987
# Poissons Ratio (z) = 0.50918 0.50919
#
# Static dielectric constant tensor:
#      x y z
#    x 1.580170 0.000000 0.000000 
#    y 0.000000 1.580170 0.000000 
#    z 0.000000 0.000000 1.553230 
# 
# From -- ./inp_files/9385.got.cif
#   From: 2010.05.17/outbox.cif.g08.bks.cpg/sg119_5_cif.got.tgz:9385.got - 2010.05.20 11:21:29.
