data_PCOD9559143
_publ_section_title
;
Structure prediction by ZEFSAII (Michael W. Deem and Ramdas Pophale) SiO2 
 PCOD9559143
Probable space group: I -4 M 2
;
_chemical_formula_sum "Si O2"
_cell_formula_units_Z 96
_cell_length_a 13.977341
_cell_length_b 13.977341
_cell_length_c 20.938551
_cell_angle_alpha 90.000000
_cell_angle_beta 90.000000
_cell_angle_gamma 90.000000
_cell_volume 4090.682241
_symmetry_space_group_name_H-M "I -4 M 2"
_symmetry_group_IT_number 119
_symmetry_cell_setting 'tetragonal'
loop_
_space_group_symop_operation_xyz
x,y,z
y,-x,-z
-x,-y,z
-y,x,-z
y,x,-z
-y,-x,-z
-x,y,z
x,-y,z
1/2+x,1/2+y,1/2+z
1/2+y,1/2-x,1/2-z
1/2-x,1/2-y,1/2+z
1/2-y,1/2+x,1/2-z
1/2+y,1/2+x,1/2-z
1/2-y,1/2-x,1/2-z
1/2-x,1/2+y,1/2+z
1/2+x,1/2-y,1/2+z
loop_
_atom_site_type_symbol
_atom_site_label
_atom_site_fract_x
_atom_site_fract_y
_atom_site_fract_z
Si Si1 0.889470 0.239579 0.239832
Si Si2 0.387438 0.689535 0.935329
Si Si3 0.393660 0.725941 0.167267
Si Si4 0.388625 0.604123 0.386495
Si Si5 0.613921 0.896289 0.933862
Si Si6 0.608155 0.812569 0.421781
O O1 0.845463 0.345463 0.250000
O O2 0.815889 0.173367 0.278583
O O3 0.890871 0.188743 0.170384
O O4 0.000000 0.236699 0.262977
O O5 0.500000 0.690673 0.948395
O O6 0.357899 0.609516 0.885608
O O7 0.357315 0.793112 0.906684
O O8 0.331085 0.668916 0.000000
O O9 0.500000 0.744634 0.190661
O O10 0.354044 0.817047 0.128687
O O11 0.500000 0.607276 0.362369
O O12 0.378323 0.500000 0.418975
O O13 0.376203 0.698730 0.428303
O O14 0.500000 0.900289 0.926147
O O15 0.651739 0.000000 0.911207
O O16 0.638092 0.886986 0.009083
O O17 0.500000 0.827447 0.398006
#
# Coordination Sequence:
#
# PCOD9559143 Si02
#       6
#    16  16  16  16  16  16
#     4  11  23  41  62  86 119 157 197 242 293 353
#     4  11  22  36  55  82 118 158 199 244 291 349
#     4  12  24  39  61  90 121 154 197 249 302 359
#     4   9  18  35  60  86 113 150 195 241 294 356
#     4   9  18  35  58  83 115 157 198 238 293 355
#     4  10  19  34  59  87 116 152 194 242 296 353
#
# _framework density 23.467967999999999
#
# number of rings (size 3 to 8) (size 9 to 14) (size 15 to 20)
#    0.000    1.667    3.333    2.000    0.000    4.000 
#    0.000    1.667    0.000    3.000    0.000    0.000 
#    0.000    0.000    0.000    0.000    0.000    0.000 
#
# Total GULP energy -268243.073035 kJ/mol
# GULP energy per Si atom -5588.397355 kJ/mol
# Density = 2.341455 g / cm^3
# Si number density = 23.467968 Si / 1000 Ang^3
#
#
#
# Elastic Constant Matrix: (Units=GPa)
#
#
# Indices 1 2 3 4 5 6 
#
# 1 135.5373 43.1663 8.2913 0.0000 0.0000 0.0000
# 2 43.1663 135.5367 8.2913 0.0000 0.0000 0.0000
# 3 8.2913 8.2913 21.0568 0.0000 0.0000 0.0000
# 4 0.0000 0.0000 0.0000 27.9491 0.0000 0.0000
# 5 0.0000 0.0000 0.0000 0.0000 27.9491 0.0000
# 6 0.0000 0.0000 0.0000 0.0000 0.0000 30.5005
#
#
#
# Elastic Compliance Matrix: (Units=1/GPa)
#
#
# Indices 1 2 3 4 5 6 
#
# 1 0.008317 -0.002509 -0.002287 0.000000 0.000000 0.000000
# 2 -0.002509 0.008317 -0.002287 0.000000 0.000000 0.000000
# 3 -0.002287 -0.002287 0.049292 0.000000 0.000000 0.000000
# 4 0.000000 0.000000 0.000000 0.035779 0.000000 0.000000
# 5 0.000000 0.000000 0.000000 0.000000 0.035779 0.000000
# 6 0.000000 0.000000 0.000000 0.000000 0.000000 0.032786
#
#
# Mechanical properties :
#
#
# Convention : Reuss Voigt Hill
#
# Bulk Modulus (GPa) = 19.32000 45.73650 32.52825
# Shear Modulus (GPa) = 24.79056 32.77186 28.78121
#
# Velocity S-wave (km/s) = 3.25369 3.74097 3.50580
# Velocity P-wave (km/s) = 4.72924 6.17988 5.50258
#
# Compressibility (1/GPa) = 0.05175982
#
# Stress axis : x y z
#
# Youngs Moduli (GPa) = 120.23571 120.23518 20.28744
#
# Poissons Ratio (x) = 0.30166 0.04640
# Poissons Ratio (y) = 0.30166 0.04640
# Poissons Ratio (z) = 0.27498 0.27498
#
# Static dielectric constant tensor:
#      x y z
#    x 1.896450 0.000000 0.000000 
#    y 0.000000 1.896450 0.000000 
#    z 0.000000 0.000000 1.878520 
# 
# From -- ./inp_files/7781.got.cif
#   From: 2010.05.17/outbox.cif.g08.bks.cpg/sg119_4_cif.got.tgz:7781.got - 2010.05.20 11:21:29.
