data_PCOD9559435
_publ_section_title
;
Structure prediction by ZEFSAII (Michael W. Deem and Ramdas Pophale) SiO2 
 PCOD9559435
Probable space group: I -4 M 2
;
_chemical_formula_sum "Si O2"
_cell_formula_units_Z 46
_cell_length_a 10.072961
_cell_length_b 10.072961
_cell_length_c 19.005837
_cell_angle_alpha 90.000000
_cell_angle_beta 90.000000
_cell_angle_gamma 90.000000
_cell_volume 1928.418571
_symmetry_space_group_name_H-M "I -4 M 2"
_symmetry_group_IT_number 119
_symmetry_cell_setting 'tetragonal'
loop_
_space_group_symop_operation_xyz
x,y,z
y,-x,-z
-x,-y,z
-y,x,-z
y,x,-z
-y,-x,-z
-x,y,z
x,-y,z
1/2+x,1/2+y,1/2+z
1/2+y,1/2-x,1/2-z
1/2-x,1/2-y,1/2+z
1/2-y,1/2+x,1/2-z
1/2+y,1/2+x,1/2-z
1/2-y,1/2-x,1/2-z
1/2-x,1/2+y,1/2+z
1/2+x,1/2-y,1/2+z
loop_
_atom_site_type_symbol
_atom_site_label
_atom_site_fract_x
_atom_site_fract_y
_atom_site_fract_z
Si Si1 0.150003 0.500000 0.867517
Si Si2 0.727239 0.000000 0.958656
Si Si3 0.000000 0.000000 0.500000
Si Si4 0.289843 0.789843 0.250000
Si Si5 0.500000 0.000000 0.750000
Si Si6 0.214193 0.500000 0.021737
Si Si7 0.785514 0.000000 0.804883
Si Si8 0.500000 0.500000 0.500000
O O1 0.169962 0.374444 0.817553
O O2 0.000000 0.500000 0.895214
O O3 0.233722 0.500000 0.937573
O O4 0.630147 0.872291 0.959567
O O5 0.815447 0.000000 0.887306
O O6 0.838884 0.000000 0.019093
O O7 0.000000 0.865030 0.452994
O O8 0.136036 0.821484 0.233577
O O9 0.374250 0.000000 0.799893
#
# Coordination Sequence:
#
# PCOD9559435 Si02
#       8
#     8   8   2   8   2   8   8   2
#     4  12  24  48  69  99 145 191 242 287 375 439
#     4  11  25  47  69 102 145 196 230 298 373 443
#     4  12  28  44  68 118 132 188 260 304 374 440
#     4  11  25  43  71 102 134 190 233 297 349 419
#     4   8  16  44  60  96 124 188 216 270 344 408
#     4  11  27  47  73 100 149 195 237 305 379 436
#     4  10  24  41  71  99 141 175 239 286 349 421
#     4  12  28  36  68 110 132 176 248 276 358 420
#
# _framework density 23.853742
#
# number of rings (size 3 to 8) (size 9 to 14) (size 15 to 20)
#    0.000    1.043    3.478    2.087    9.739    3.478 
#    0.000    0.000    0.000    0.000    0.000    0.000 
#    0.000    0.000    0.000    0.000    0.000    0.000 
#
# Total GULP energy -128500.229108 kJ/mol
# GULP energy per Si atom -5586.966483 kJ/mol
# Density = 2.379945 g / cm^3
# Si number density = 23.853742 Si / 1000 Ang^3
#
#
#
# Elastic Constant Matrix: (Units=GPa)
#
#
# Indices 1 2 3 4 5 6 
#
# 1 146.4234 41.6590 -5.3947 0.0000 0.0000 0.0000
# 2 41.6590 146.4234 -5.3947 0.0000 0.0000 0.0000
# 3 -5.3947 -5.3947 85.1345 0.0000 0.0000 0.0000
# 4 0.0000 0.0000 0.0000 39.2562 0.0000 0.0000
# 5 0.0000 0.0000 0.0000 0.0000 39.2562 0.0000
# 6 0.0000 0.0000 0.0000 0.0000 0.0000 33.6708
#
#
#
# Elastic Compliance Matrix: (Units=1/GPa)
#
#
# Indices 1 2 3 4 5 6 
#
# 1 0.007441 -0.002105 0.000338 0.000000 0.000000 0.000000
# 2 -0.002105 0.007441 0.000338 0.000000 0.000000 0.000000
# 3 0.000338 0.000338 0.011789 0.000000 0.000000 0.000000
# 4 0.000000 0.000000 0.000000 0.025474 0.000000 0.000000
# 5 0.000000 0.000000 0.000000 0.000000 0.025474 0.000000
# 6 0.000000 0.000000 0.000000 0.000000 0.000000 0.029699
#
#
# Mechanical properties :
#
#
# Convention : Reuss Voigt Hill
#
# Bulk Modulus (GPa) = 41.99218 48.85784 45.42501
# Shear Modulus (GPa) = 42.33285 45.57740 43.95513
#
# Velocity S-wave (km/s) = 4.21727 4.37590 4.29732
# Velocity P-wave (km/s) = 6.43087 6.78661 6.61113
#
# Compressibility (1/GPa) = 0.02381396
#
# Stress axis : x y z
#
# Youngs Moduli (GPa) = 134.39556 134.39556 84.82500
#
# Poissons Ratio (x) = 0.28284 -0.02868
# Poissons Ratio (y) = 0.28284 -0.02868
# Poissons Ratio (z) = -0.04544 -0.04544
#
# Static dielectric constant tensor:
#      x y z
#    x 1.916620 0.000000 0.000000 
#    y 0.000000 1.916620 0.000000 
#    z 0.000000 0.000000 2.119590 
# 
# From -- ./inp_files/6131.got.cif
#   From: 2010.05.17/outbox.cif.g08.bks.cpg/sg119_4_cif.got.tgz:6131.got - 2010.05.20 11:21:29.
