data_PCOD9559519
_publ_section_title
;
Structure prediction by ZEFSAII (Michael W. Deem and Ramdas Pophale) SiO2 
 PCOD9559519
Probable space group: I -4 M 2
;
_chemical_formula_sum "Si O2"
_cell_formula_units_Z 52
_cell_length_a 11.386829
_cell_length_b 11.386829
_cell_length_c 19.031061
_cell_angle_alpha 90.000000
_cell_angle_beta 90.000000
_cell_angle_gamma 90.000000
_cell_volume 2467.564984
_symmetry_space_group_name_H-M "I -4 M 2"
_symmetry_group_IT_number 119
_symmetry_cell_setting 'tetragonal'
loop_
_space_group_symop_operation_xyz
x,y,z
y,-x,-z
-x,-y,z
-y,x,-z
y,x,-z
-y,-x,-z
-x,y,z
x,-y,z
1/2+x,1/2+y,1/2+z
1/2+y,1/2-x,1/2-z
1/2-x,1/2-y,1/2+z
1/2-y,1/2+x,1/2-z
1/2+y,1/2+x,1/2-z
1/2-y,1/2-x,1/2-z
1/2-x,1/2+y,1/2+z
1/2+x,1/2-y,1/2+z
loop_
_atom_site_type_symbol
_atom_site_label
_atom_site_fract_x
_atom_site_fract_y
_atom_site_fract_z
Si Si1 0.865137 0.865137 0.000000
Si Si2 0.709292 0.500000 0.116185
Si Si3 0.365556 0.865556 0.250000
Si Si4 0.000000 0.500000 0.250000
Si Si5 0.500000 0.500000 0.000000
Si Si6 0.225840 0.000000 0.779465
Si Si7 0.227096 0.239097 0.132567
O O1 0.836710 0.777296 0.937241
O O2 0.000000 0.850521 0.023608
O O3 0.610496 0.500000 0.054847
O O4 0.677167 0.500000 0.200013
O O5 0.778830 0.623590 0.111493
O O6 0.500000 0.848613 0.271850
O O7 0.335940 0.784210 0.183490
O O8 0.000000 0.368771 0.218637
O O9 0.195691 0.882515 0.820689
#
# Coordination Sequence:
#
# PCOD9559519 Si02
#       7
#     8   8   8   2   2   8  16
#     4  11  25  44  65  93 138 182 232 281 345 408
#     4  12  24  44  68  98 137 184 225 287 344 415
#     4  11  25  44  71 101 136 176 228 285 339 412
#     4  12  16  36  64 100 128 144 220 282 324 400
#     4  12  32  44  56 104 148 190 240 276 352 448
#     4  12  20  38  72 103 126 169 225 287 344 398
#     4  12  23  44  69 101 134 178 226 292 343 413
#
# _framework density 21.073405999999999
#
# number of rings (size 3 to 8) (size 9 to 14) (size 15 to 20)
#    0.000    0.308    7.692    1.846    2.154    0.000 
#    5.538    0.000    0.000    0.000    0.000    0.000 
#    0.000    0.000    0.000    0.000    0.000    0.000 
#
# Total GULP energy -145002.099226 kJ/mol
# GULP energy per Si atom -5577.003816 kJ/mol
# Density = 2.102544 g / cm^3
# Si number density = 21.073406 Si / 1000 Ang^3
#
#
#
# Elastic Constant Matrix: (Units=GPa)
#
#
# Indices 1 2 3 4 5 6 
#
# 1 56.1742 11.1041 24.2484 0.0000 0.0000 0.0000
# 2 11.1041 56.1742 24.2484 0.0000 0.0000 0.0000
# 3 24.2484 24.2484 122.1288 0.0000 0.0000 0.0000
# 4 0.0000 0.0000 0.0000 39.1654 0.0000 0.0000
# 5 0.0000 0.0000 0.0000 0.0000 39.1654 0.0000
# 6 0.0000 0.0000 0.0000 0.0000 0.0000 23.5707
#
#
#
# Elastic Compliance Matrix: (Units=1/GPa)
#
#
# Indices 1 2 3 4 5 6 
#
# 1 0.019767 -0.002421 -0.003444 0.000000 0.000000 0.000000
# 2 -0.002421 0.019767 -0.003444 0.000000 0.000000 0.000000
# 3 -0.003444 -0.003444 0.009556 0.000000 0.000000 0.000000
# 4 0.000000 0.000000 0.000000 0.025533 0.000000 0.000000
# 5 0.000000 0.000000 0.000000 0.000000 0.025533 0.000000
# 6 0.000000 0.000000 0.000000 0.000000 0.000000 0.042426
#
#
# Mechanical properties :
#
#
# Convention : Reuss Voigt Hill
#
# Bulk Modulus (GPa) = 32.81704 39.29767 36.05736
# Shear Modulus (GPa) = 29.17907 32.03870 30.60888
#
# Velocity S-wave (km/s) = 3.72511 3.90338 3.81529
# Velocity P-wave (km/s) = 5.84025 6.24529 6.04616
#
# Compressibility (1/GPa) = 0.03047197
#
# Stress axis : x y z
#
# Youngs Moduli (GPa) = 50.58945 50.58945 104.64959
#
# Poissons Ratio (x) = 0.12246 0.36042
# Poissons Ratio (y) = 0.12246 0.36042
# Poissons Ratio (z) = 0.17423 0.17423
#
# Static dielectric constant tensor:
#      x y z
#    x 1.795660 0.000000 0.000000 
#    y 0.000000 1.795660 0.000000 
#    z 0.000000 0.000000 1.745210 
# 
# From -- ./inp_files/7363.got.cif
#   From: 2010.05.17/outbox.cif.g08.bks.cpg/sg119_4_cif.got.tgz:7363.got - 2010.05.20 11:21:29.
