data_PCOD9559762
_publ_section_title
;
Structure prediction by ZEFSAII (Michael W. Deem and Ramdas Pophale) SiO2 
 PCOD9559762
Probable space group: I -4 C 2
;
_chemical_formula_sum "Si O2"
_cell_formula_units_Z 56
_cell_length_a 21.919054
_cell_length_b 21.919054
_cell_length_c 5.355813
_cell_angle_alpha 90.000000
_cell_angle_beta 90.000000
_cell_angle_gamma 90.000000
_cell_volume 2573.173193
_symmetry_space_group_name_H-M "I -4 C 2"
_symmetry_group_IT_number 120
_symmetry_cell_setting 'tetragonal'
loop_
_space_group_symop_operation_xyz
x,y,z
y,-x,-z
-x,-y,z
-y,x,-z
y,x,1/2-z
-y,-x,1/2-z
-x,y,1/2+z
x,-y,1/2+z
1/2+x,1/2+y,1/2+z
1/2+y,1/2-x,1/2-z
1/2-x,1/2-y,1/2+z
1/2-y,1/2+x,1/2-z
1/2+y,1/2+x,-z
1/2-y,1/2-x,-z
1/2-x,1/2+y,z
1/2+x,1/2-y,z
loop_
_atom_site_type_symbol
_atom_site_label
_atom_site_fract_x
_atom_site_fract_y
_atom_site_fract_z
Si Si1 0.119778 0.972146 0.080924
Si Si2 0.142368 0.857633 0.750000
Si Si3 0.342515 0.250629 0.105013
Si Si4 0.737558 0.028156 0.150440
O O1 0.092430 0.989267 0.350683
O O2 0.190747 0.990395 0.127829
O O3 0.127745 0.904398 0.971995
O O4 0.208671 0.864321 0.630041
O O5 0.293049 0.293049 0.250000
O O6 0.400633 0.236261 0.276294
O O7 0.307957 0.192044 0.000000
O O8 0.710830 0.990357 0.383391
#
# Coordination Sequence:
#
# PCOD9559762 Si02
#       4
#    16   8  16  16
#     4  10  21  35  55  79 102 145 205 251 288 344
#     4  12  22  36  56  77 116 152 192 240 303 374
#     4  12  24  37  55  90 128 158 188 242 318 375
#     4  10  21  39  59  79 111 159 207 240 277 352
#
# _framework density 21.763013999999998
#
# number of rings (size 3 to 8) (size 9 to 14) (size 15 to 20)
#    0.000    1.143    4.286    5.143    0.000    0.000 
#    0.000    0.000    0.000    2.571    0.000    0.000 
#    0.000    6.857    0.000    0.000    0.000    0.000 
#
# Total GULP energy -156620.117404 kJ/mol
# GULP energy per Si atom -5593.575622 kJ/mol
# Density = 2.171348 g / cm^3
# Si number density = 21.763014 Si / 1000 Ang^3
#
#
#
# Elastic Constant Matrix: (Units=GPa)
#
#
# Indices 1 2 3 4 5 6 
#
# 1 68.9544 57.0753 52.1426 0.0000 0.0000 0.0000
# 2 57.0753 68.9661 52.1468 0.0000 0.0000 0.0000
# 3 52.1426 52.1468 196.8071 0.0000 0.0000 0.0000
# 4 0.0000 0.0000 0.0000 27.2404 0.0000 0.0000
# 5 0.0000 0.0000 0.0000 0.0000 27.2418 0.0000
# 6 0.0000 0.0000 0.0000 0.0000 0.0000 19.8724
#
#
#
# Elastic Compliance Matrix: (Units=1/GPa)
#
#
# Indices 1 2 3 4 5 6 
#
# 1 0.047155 -0.036989 -0.002693 0.000000 0.000000 0.000000
# 2 -0.036989 0.047147 -0.002692 0.000000 0.000000 0.000000
# 3 -0.002693 -0.002692 0.006508 0.000000 0.000000 0.000000
# 4 0.000000 0.000000 0.000000 0.036710 0.000000 0.000000
# 5 0.000000 0.000000 0.000000 0.000000 0.036708 0.000000
# 6 0.000000 0.000000 0.000000 0.000000 0.000000 0.050321
#
#
# Mechanical properties :
#
#
# Convention : Reuss Voigt Hill
#
# Bulk Modulus (GPa) = 62.25766 73.05077 67.65421
# Shear Modulus (GPa) = 15.89058 26.42845 21.15952
#
# Velocity S-wave (km/s) = 2.70509 3.48857 3.12151
# Velocity P-wave (km/s) = 6.19886 7.06160 6.64425
#
# Compressibility (1/GPa) = 0.01606228
#
# Stress axis : x y z
#
# Youngs Moduli (GPa) = 21.20656 21.21021 153.65949
#
# Poissons Ratio (x) = 0.78454 0.41376
# Poissons Ratio (y) = 0.78441 0.41370
# Poissons Ratio (z) = 0.05710 0.05710
#
# Static dielectric constant tensor:
#      x y z
#    x 1.850070 0.000000 0.000000 
#    y 0.000000 1.850080 0.000000 
#    z 0.000000 0.000000 1.942170 
# 
# From -- ./inp_files/318.got.cif
#   From: 2010.05.17/outbox.cif.g08.bks.cpg/sg120_1_cif.got.tgz:318.got - 2010.05.20 11:28:13.
