data_PCOD9559276
_publ_section_title
;
Structure prediction by ZEFSAII (Michael W. Deem and Ramdas Pophale) SiO2 
 PCOD9559276
Probable space group: I -4 M 2
;
_chemical_formula_sum "Si O2"
_cell_formula_units_Z 48
_cell_length_a 7.822478
_cell_length_b 7.822478
_cell_length_c 38.294628
_cell_angle_alpha 90.000000
_cell_angle_beta 90.000000
_cell_angle_gamma 90.000000
_cell_volume 2343.292788
_symmetry_space_group_name_H-M "I -4 M 2"
_symmetry_group_IT_number 119
_symmetry_cell_setting 'tetragonal'
loop_
_space_group_symop_operation_xyz
x,y,z
y,-x,-z
-x,-y,z
-y,x,-z
y,x,-z
-y,-x,-z
-x,y,z
x,-y,z
1/2+x,1/2+y,1/2+z
1/2+y,1/2-x,1/2-z
1/2-x,1/2-y,1/2+z
1/2-y,1/2+x,1/2-z
1/2+y,1/2+x,1/2-z
1/2-y,1/2-x,1/2-z
1/2-x,1/2+y,1/2+z
1/2+x,1/2-y,1/2+z
loop_
_atom_site_type_symbol
_atom_site_label
_atom_site_fract_x
_atom_site_fract_y
_atom_site_fract_z
Si Si1 0.293581 0.500000 0.845193
Si Si2 0.703255 0.193504 0.461249
Si Si3 0.797573 0.319532 0.387379
Si Si4 0.000000 0.783369 0.737823
O O1 0.500000 0.500000 0.850105
O O2 0.223777 0.664152 0.865495
O O3 0.266297 0.500000 0.804120
O O4 0.743066 0.256934 0.500000
O O5 0.500000 0.194903 0.457053
O O6 0.777968 0.295370 0.428819
O O7 0.767993 0.000000 0.458200
O O8 0.720644 0.500000 0.376962
O O9 0.000000 0.323951 0.380288
O O10 0.829791 0.670210 0.750000
O O11 0.000000 0.000000 0.745118
#
# Coordination Sequence:
#
# PCOD9559276 Si02
#       4
#     8  16  16   8
#     4   9  19  39  65  90 127 167 210 273 333 406
#     4  11  23  37  53  77 112 156 206 262 324 389
#     4  10  20  36  60  88 116 156 211 262 322 391
#     4  10  23  45  72 107 147 188 237 291 358 435
#
# _framework density 20.483999000000001
#
# number of rings (size 3 to 8) (size 9 to 14) (size 15 to 20)
#    0.000    1.833    1.667    2.000    0.000    8.333 
#    6.000    3.333    0.000    0.000    0.000    0.000 
#    0.000    0.000    0.000    0.000    0.000    0.000 
#
# Total GULP energy -133737.608263 kJ/mol
# GULP energy per Si atom -5572.400344 kJ/mol
# Density = 2.043738 g / cm^3
# Si number density = 20.483999 Si / 1000 Ang^3
#
#
#
# Elastic Constant Matrix: (Units=GPa)
#
#
# Indices 1 2 3 4 5 6 
#
# 1 102.0020 55.8331 42.9411 0.0000 0.0000 0.0000
# 2 55.8331 102.0017 42.9412 0.0000 0.0000 0.0000
# 3 42.9411 42.9412 109.4009 0.0000 0.0000 0.0000
# 4 0.0000 0.0000 0.0000 15.8858 0.0000 0.0000
# 5 0.0000 0.0000 0.0000 0.0000 15.8858 0.0000
# 6 0.0000 0.0000 0.0000 0.0000 0.0000 4.6106
#
#
#
# Elastic Compliance Matrix: (Units=1/GPa)
#
#
# Indices 1 2 3 4 5 6 
#
# 1 0.014858 -0.006802 -0.003162 0.000000 0.000000 0.000000
# 2 -0.006802 0.014858 -0.003162 0.000000 0.000000 0.000000
# 3 -0.003162 -0.003162 0.011623 0.000000 0.000000 0.000000
# 4 0.000000 0.000000 0.000000 0.062949 0.000000 0.000000
# 5 0.000000 0.000000 0.000000 0.000000 0.062949 0.000000
# 6 0.000000 0.000000 0.000000 0.000000 0.000000 0.216894
#
#
# Mechanical properties :
#
#
# Convention : Reuss Voigt Hill
#
# Bulk Modulus (GPa) = 66.28231 66.31504 66.29868
# Shear Modulus (GPa) = 12.03621 18.72236 15.37929
#
# Velocity S-wave (km/s) = 2.42666 3.02652 2.74304
# Velocity P-wave (km/s) = 6.34664 6.68262 6.51680
#
# Compressibility (1/GPa) = 0.01508698
#
# Stress axis : x y z
#
# Youngs Moduli (GPa) = 67.30376 67.30353 86.03545
#
# Poissons Ratio (x) = 0.45778 0.27206
# Poissons Ratio (y) = 0.45778 0.27206
# Poissons Ratio (z) = 0.21283 0.21283
#
# Static dielectric constant tensor:
#      x y z
#    x 1.775570 0.000000 0.000000 
#    y 0.000000 1.775570 0.000000 
#    z 0.000000 0.000000 1.705770 
# 
# From -- ./inp_files/9886.got.cif
#   From: 2010.05.17/outbox.cif.g08.bks.cpg/sg119_5_cif.got.tgz:9886.got - 2010.05.20 11:21:29.
