data_PCOD9559169
_publ_section_title
;
Structure prediction by ZEFSAII (Michael W. Deem and Ramdas Pophale) SiO2 
 PCOD9559169
Probable space group: I -4 M 2
;
_chemical_formula_sum "Si O2"
_cell_formula_units_Z 60
_cell_length_a 19.253297
_cell_length_b 19.253297
_cell_length_c 6.866678
_cell_angle_alpha 90.000000
_cell_angle_beta 90.000000
_cell_angle_gamma 90.000000
_cell_volume 2545.405059
_symmetry_space_group_name_H-M "I -4 M 2"
_symmetry_group_IT_number 119
_symmetry_cell_setting 'tetragonal'
loop_
_space_group_symop_operation_xyz
x,y,z
y,-x,-z
-x,-y,z
-y,x,-z
y,x,-z
-y,-x,-z
-x,y,z
x,-y,z
1/2+x,1/2+y,1/2+z
1/2+y,1/2-x,1/2-z
1/2-x,1/2-y,1/2+z
1/2-y,1/2+x,1/2-z
1/2+y,1/2+x,1/2-z
1/2-y,1/2-x,1/2-z
1/2-x,1/2+y,1/2+z
1/2+x,1/2-y,1/2+z
loop_
_atom_site_type_symbol
_atom_site_label
_atom_site_fract_x
_atom_site_fract_y
_atom_site_fract_z
Si Si1 0.754374 0.868765 0.044803
Si Si2 0.840652 0.000000 0.120874
Si Si3 0.904545 0.500000 0.874956
Si Si4 0.500000 0.500000 0.500000
Si Si5 0.234383 0.647206 0.999003
Si Si6 0.000000 0.752605 0.498992
Si Si7 0.000000 0.500000 0.250000
O O1 0.683526 0.838895 0.950460
O O2 0.805867 0.805867 0.000000
O O3 0.802280 0.935460 0.019065
O O4 0.734261 0.871958 0.271514
O O5 0.924140 0.000000 0.105899
O O6 0.815917 0.000000 0.347082
O O7 0.935502 0.564499 0.750000
O O8 0.822645 0.500000 0.894445
O O9 0.936529 0.500000 0.094143
O O10 0.251881 0.575049 0.106761
O O11 0.297238 0.702762 0.000000
#
# Coordination Sequence:
#
# PCOD9559169 Si02
#       7
#    16   8   8   2  16   8   2
#     4   9  17  33  54  79 107 149 192 256 304 364
#     4  10  20  31  55  83 122 156 210 263 329 388
#     4   9  20  37  67  94 135 184 216 262 337 404
#     4  12  20  36  52  88 138 160 208 296 330 388
#     4   9  19  35  55  76 114 150 201 253 312 382
#     4  10  21  36  61  87 118 172 209 267 326 403
#     4   8  18  44  56  98 148 176 222 272 324 410
#
# _framework density 23.571887
#
# number of rings (size 3 to 8) (size 9 to 14) (size 15 to 20)
#    0.000    2.800    1.333    0.000    7.467    0.000 
#    0.000   12.000    0.000    0.000    0.000    0.000 
#    0.000    0.000    0.000    0.000    0.000    0.000 
#
# Total GULP energy -167026.332022 kJ/mol
# GULP energy per Si atom -5567.544401 kJ/mol
# Density = 2.351824 g / cm^3
# Si number density = 23.571887 Si / 1000 Ang^3
#
#
#
# Elastic Constant Matrix: (Units=GPa)
#
#
# Indices 1 2 3 4 5 6 
#
# 1 171.2748 67.9252 16.0143 0.0000 0.0000 0.0000
# 2 67.9252 171.2751 16.0171 0.0000 0.0000 0.0000
# 3 16.0143 16.0171 92.0729 0.0000 0.0000 0.0000
# 4 0.0000 0.0000 0.0000 16.1936 0.0000 0.0000
# 5 0.0000 0.0000 0.0000 0.0000 16.1941 0.0000
# 6 0.0000 0.0000 0.0000 0.0000 0.0000 37.6916
#
#
#
# Elastic Compliance Matrix: (Units=1/GPa)
#
#
# Indices 1 2 3 4 5 6 
#
# 1 0.006978 -0.002698 -0.000744 0.000000 0.000000 0.000000
# 2 -0.002698 0.006978 -0.000745 0.000000 0.000000 0.000000
# 3 -0.000744 -0.000745 0.011120 0.000000 0.000000 0.000000
# 4 0.000000 0.000000 0.000000 0.061753 0.000000 0.000000
# 5 0.000000 0.000000 0.000000 0.000000 0.061751 0.000000
# 6 0.000000 0.000000 0.000000 0.000000 0.000000 0.026531
#
#
# Mechanical properties :
#
#
# Convention : Reuss Voigt Hill
#
# Bulk Modulus (GPa) = 59.87158 70.50401 65.18780
# Shear Modulus (GPa) = 26.44768 36.32691 31.38730
#
# Velocity S-wave (km/s) = 3.35326 3.92996 3.65301
# Velocity P-wave (km/s) = 6.35981 7.11111 6.74593
#
# Compressibility (1/GPa) = 0.01670241
#
# Stress axis : x y z
#
# Youngs Moduli (GPa) = 143.30597 143.30534 89.92823
#
# Poissons Ratio (x) = 0.38661 0.06694
# Poissons Ratio (y) = 0.38661 0.06697
# Poissons Ratio (z) = 0.10668 0.10672
#
# Static dielectric constant tensor:
#      x y z
#    x 1.981030 0.000000 0.000000 
#    y 0.000000 1.981030 0.000000 
#    z 0.000000 0.000000 1.460160 
# 
# From -- ./inp_files/836.got.cif
#   From: 2010.05.17/outbox.cif.g08.bks.cpg/sg119_1_cif.got.tgz:836.got - 2010.05.20 11:21:29.
