data_PCOD9559641
_publ_section_title
;
Structure prediction by ZEFSAII (Michael W. Deem and Ramdas Pophale) SiO2 
 PCOD9559641
Probable space group: I -4 C 2
;
_chemical_formula_sum "Si O2"
_cell_formula_units_Z 64
_cell_length_a 24.947365
_cell_length_b 24.947365
_cell_length_c 5.272312
_cell_angle_alpha 90.000000
_cell_angle_beta 90.000000
_cell_angle_gamma 90.000000
_cell_volume 3281.334200
_symmetry_space_group_name_H-M "I -4 C 2"
_symmetry_group_IT_number 120
_symmetry_cell_setting 'tetragonal'
loop_
_space_group_symop_operation_xyz
x,y,z
y,-x,-z
-x,-y,z
-y,x,-z
y,x,1/2-z
-y,-x,1/2-z
-x,y,1/2+z
x,-y,1/2+z
1/2+x,1/2+y,1/2+z
1/2+y,1/2-x,1/2-z
1/2-x,1/2-y,1/2+z
1/2-y,1/2+x,1/2-z
1/2+y,1/2+x,-z
1/2-y,1/2-x,-z
1/2-x,1/2+y,z
1/2+x,1/2-y,z
loop_
_atom_site_type_symbol
_atom_site_label
_atom_site_fract_x
_atom_site_fract_y
_atom_site_fract_z
Si Si1 0.302781 0.849797 0.254676
Si Si2 0.859000 0.812421 0.508956
Si Si3 0.016763 0.172393 0.420942
Si Si4 0.208044 0.471644 0.088644
O O1 0.340459 0.840459 0.500000
O O2 0.244218 0.840263 0.375693
O O3 0.304134 0.911005 0.159190
O O4 0.315609 0.815609 0.000000
O O5 0.851630 0.851630 0.750000
O O6 0.921537 0.810829 0.436116
O O7 0.828458 0.828458 0.250000
O O8 0.997520 0.142117 0.667556
O O9 0.980989 0.227331 0.417229
O O10 0.188053 0.510040 0.314327
#
# Coordination Sequence:
#
# PCOD9559641 Si02
#       4
#    16  16  16  16
#     4  12  25  39  59  88 128 169 209 238 293 368
#     4  12  25  39  59  88 128 169 209 238 293 368
#     4  10  19  36  65  82 105 156 208 258 305 323
#     4  10  19  36  65  82 105 156 208 258 305 323
#
# _framework density 19.504259000000001
#
# number of rings (size 3 to 8) (size 9 to 14) (size 15 to 20)
#    0.000    1.000    5.000    4.500    7.000    2.000 
#    0.000    0.000    0.000    0.000    0.000    0.000 
#    0.000   70.000    0.000    0.000    0.000    0.000 
#
# Total GULP energy -178545.148827 kJ/mol
# GULP energy per Si atom -5579.535901 kJ/mol
# Density = 1.945987 g / cm^3
# Si number density = 19.504259 Si / 1000 Ang^3
#
#
#
# Elastic Constant Matrix: (Units=GPa)
#
#
# Indices 1 2 3 4 5 6 
#
# 1 57.2322 29.9774 37.2912 0.0000 0.0000 0.0000
# 2 29.9774 57.2322 37.2912 0.0000 0.0000 0.0000
# 3 37.2912 37.2912 200.5660 0.0000 0.0000 0.0000
# 4 0.0000 0.0000 0.0000 36.4627 0.0000 0.0000
# 5 0.0000 0.0000 0.0000 0.0000 36.4627 0.0000
# 6 0.0000 0.0000 0.0000 0.0000 0.0000 -4.3416
#
#
#
# Elastic Compliance Matrix: (Units=1/GPa)
#
#
# Indices 1 2 3 4 5 6 
#
# 1 0.025163 -0.011528 -0.002535 0.000000 0.000000 0.000000
# 2 -0.011528 0.025163 -0.002535 0.000000 0.000000 0.000000
# 3 -0.002535 -0.002535 0.005929 0.000000 0.000000 0.000000
# 4 0.000000 0.000000 0.000000 0.027425 0.000000 0.000000
# 5 0.000000 0.000000 0.000000 0.000000 0.027425 0.000000
# 6 0.000000 0.000000 0.000000 0.000000 0.000000 -0.230328
#
#
# Mechanical properties :
#
#
# Convention : Reuss Voigt Hill
#
# Bulk Modulus (GPa) = 43.36974 58.23890 50.80432
# Shear Modulus (GPa) = -63.82335 27.74811 -18.03762
#
# Velocity S-wave (km/s) = -5.72659 3.77592 -3.04436
# Velocity P-wave (km/s) = 4.63042 6.99532 3.70768
#
# Compressibility (1/GPa) = 0.02305755
#
# Stress axis : x y z
#
# Youngs Moduli (GPa) = 39.74132 39.74132 168.67411
#
# Poissons Ratio (x) = 0.45814 0.42761
# Poissons Ratio (y) = 0.45814 0.42761
# Poissons Ratio (z) = 0.10075 0.10075
#
# Static dielectric constant tensor:
#      x y z
#    x 1.691320 0.000000 0.000000 
#    y 0.000000 1.691320 0.000000 
#    z 0.000000 0.000000 1.855720 
# 
# From -- ./inp_files/346.got.cif
#   From: 2010.05.17/outbox.cif.g08.bks.cpg/sg120_1_cif.got.tgz:346.got - 2010.05.20 11:28:13.
