data_PCOD9559570
_publ_section_title
;
Structure prediction by ZEFSAII (Michael W. Deem and Ramdas Pophale) SiO2 
 PCOD9559570
Probable space group: I -4 C 2
;
_chemical_formula_sum "Si O2"
_cell_formula_units_Z 96
_cell_length_a 23.932808
_cell_length_b 23.932808
_cell_length_c 10.725966
_cell_angle_alpha 90.000000
_cell_angle_beta 90.000000
_cell_angle_gamma 90.000000
_cell_volume 6143.611284
_symmetry_space_group_name_H-M "I -4 C 2"
_symmetry_group_IT_number 120
_symmetry_cell_setting 'tetragonal'
loop_
_space_group_symop_operation_xyz
x,y,z
y,-x,-z
-x,-y,z
-y,x,-z
y,x,1/2-z
-y,-x,1/2-z
-x,y,1/2+z
x,-y,1/2+z
1/2+x,1/2+y,1/2+z
1/2+y,1/2-x,1/2-z
1/2-x,1/2-y,1/2+z
1/2-y,1/2+x,1/2-z
1/2+y,1/2+x,-z
1/2-y,1/2-x,-z
1/2-x,1/2+y,z
1/2+x,1/2-y,z
loop_
_atom_site_type_symbol
_atom_site_label
_atom_site_fract_x
_atom_site_fract_y
_atom_site_fract_z
Si Si1 0.868385 0.774442 0.283503
Si Si2 0.603412 0.593145 0.042220
Si Si3 0.467342 0.693085 0.125993
Si Si4 0.297400 0.230800 0.144233
Si Si5 0.907490 0.784773 0.565798
Si Si6 0.906295 0.015252 0.679061
O O1 0.827887 0.827887 0.250000
O O2 0.918414 0.769676 0.185564
O O3 0.828259 0.721358 0.297816
O O4 0.895139 0.783196 0.418563
O O5 0.658174 0.564308 0.982358
O O6 0.556626 0.603978 0.937335
O O7 0.611543 0.652725 0.105456
O O8 0.580370 0.545310 0.129528
O O9 0.526250 0.721041 0.089907
O O10 0.483135 0.647022 0.230728
O O11 0.273199 0.273199 0.250000
O O12 0.363103 0.242277 0.126392
O O13 0.270473 0.229528 0.000000
O O14 0.956345 0.043656 0.750000
#
# Coordination Sequence:
#
# PCOD9559570 Si02
#       6
#    16  16  16  16  16  16
#     4  10  17  37  56  67  97 138 169 212 277 323
#     4  11  19  35  45  63  89 132 178 213 259 304
#     4  11  19  33  50  67  94 131 169 218 270 312
#     4   9  21  36  56  78 101 133 177 228 271 322
#     4  11  21  33  49  76  96 124 185 218 255 323
#     4  10  22  35  41  56  88 132 170 218 259 296
#
# _framework density 15.62599
#
# number of rings (size 3 to 8) (size 9 to 14) (size 15 to 20)
#    0.000    1.667    5.000    0.500    2.333    0.333 
#    3.000    0.000    0.000    0.000    0.000    0.000 
#    0.000    0.667    0.000    6.000    0.000    0.000 
#
# Total GULP energy -267581.244898 kJ/mol
# GULP energy per Si atom -5574.609269 kJ/mol
# Density = 1.559042 g / cm^3
# Si number density = 15.625990 Si / 1000 Ang^3
#
#
#
# Elastic Constant Matrix: (Units=GPa)
#
#
# Indices 1 2 3 4 5 6 
#
# 1 44.9796 96.3429 28.1021 0.0000 0.0000 0.0000
# 2 96.3429 44.9759 28.0725 0.0000 0.0000 0.0000
# 3 28.1021 28.0725 50.2551 0.0000 0.0000 0.0000
# 4 0.0000 0.0000 0.0000 19.9522 0.0000 0.0000
# 5 0.0000 0.0000 0.0000 0.0000 19.9528 0.0000
# 6 0.0000 0.0000 0.0000 0.0000 0.0000 27.5597
#
#
#
# Elastic Compliance Matrix: (Units=1/GPa)
#
#
# Indices 1 2 3 4 5 6 
#
# 1 -0.005188 0.014283 -0.005077 0.000000 0.000000 0.000000
# 2 0.014283 -0.005183 -0.005092 0.000000 0.000000 0.000000
# 3 -0.005077 -0.005092 0.025582 0.000000 0.000000 0.000000
# 4 0.000000 0.000000 0.000000 0.050120 0.000000 0.000000
# 5 0.000000 0.000000 0.000000 0.000000 0.050118 0.000000
# 6 0.000000 0.000000 0.000000 0.000000 0.000000 0.036285
#
#
# Mechanical properties :
#
#
# Convention : Reuss Voigt Hill
#
# Bulk Modulus (GPa) = 42.66467 49.47174 46.06820
# Shear Modulus (GPa) = 33.04303 12.67249 22.85776
#
# Velocity S-wave (km/s) = 4.60349 2.85087 3.82881
# Velocity P-wave (km/s) = 7.45782 6.52421 7.00658
#
# Compressibility (1/GPa) = 0.02343860
#
# Stress axis : x y z
#
# Youngs Moduli (GPa) = -192.74260 -192.93683 39.09047
#
# Poissons Ratio (x) = 2.75567 0.19847
# Poissons Ratio (y) = 2.75290 0.19903
# Poissons Ratio (z) = -0.97858 -0.98234
#
# Static dielectric constant tensor:
#      x y z
#    x 1.539270 0.000000 0.000000 
#    y 0.000000 1.539270 0.000000 
#    z 0.000000 0.000000 1.941820 
# 
# From -- ./inp_files/2828.got.cif
#   From: 2010.05.17/outbox.cif.g08.bks.cpg/sg120_2_cif.got.tgz:2828.got - 2010.05.20 11:28:13.
