data_PCOD9559547
_publ_section_title
;
Structure prediction by ZEFSAII (Michael W. Deem and Ramdas Pophale) SiO2 
 PCOD9559547
Probable space group: I -4 M 2
;
_chemical_formula_sum "Si O2"
_cell_formula_units_Z 64
_cell_length_a 24.000000
_cell_length_b 24.000000
_cell_length_c 12.000000
_cell_angle_alpha 90.000000
_cell_angle_beta 90.000000
_cell_angle_gamma 90.000000
_cell_volume 6912.000000
_symmetry_space_group_name_H-M "I -4 M 2"
_symmetry_group_IT_number 119
_symmetry_cell_setting 'tetragonal'
loop_
_space_group_symop_operation_xyz
x,y,z
y,-x,-z
-x,-y,z
-y,x,-z
y,x,-z
-y,-x,-z
-x,y,z
x,-y,z
1/2+x,1/2+y,1/2+z
1/2+y,1/2-x,1/2-z
1/2-x,1/2-y,1/2+z
1/2-y,1/2+x,1/2-z
1/2+y,1/2+x,1/2-z
1/2-y,1/2-x,1/2-z
1/2-x,1/2+y,1/2+z
1/2+x,1/2-y,1/2+z
loop_
_atom_site_type_symbol
_atom_site_label
_atom_site_fract_x
_atom_site_fract_y
_atom_site_fract_z
Si Si1 0.261984 0.434670 0.745296
Si Si2 0.167754 0.784975 0.885027
Si Si3 0.435047 0.682805 0.812598
Si Si4 0.433227 0.437227 0.866765
Si Si5 0.064227 0.366543 0.833051
Si Si6 0.339798 0.827786 0.480928
Si Si7 0.719474 0.625307 0.979208
Si Si8 0.648602 0.235051 0.700720
O O1 0.277503 0.500000 0.747670
O O2 0.289239 0.396701 0.648558
O O3 0.194755 0.432851 0.725501
O O4 0.277183 0.400660 0.856633
O O5 0.179670 0.719156 0.893364
O O6 0.212464 0.809443 0.799887
O O7 0.183945 0.816056 0.000000
O O8 0.500000 0.682380 0.786233
O O9 0.412909 0.618426 0.802013
O O10 0.404865 0.733875 0.750425
O O11 0.422925 0.696937 0.940946
O O12 0.500000 0.439209 0.848137
O O13 0.411381 0.500000 0.841158
O O14 0.427213 0.427213 0.000000
O O15 0.086003 0.413998 0.750000
O O16 0.110436 0.363785 0.930591
O O17 0.000000 0.374775 0.867418
O O18 0.282920 0.858797 0.512784
O O19 0.363963 0.789275 0.578942
O O20 0.678671 0.678671 0.000000
O O21 0.682651 0.182651 0.750000
#
# Coordination Sequence:
#
# PCOD9559547 Si02
#       8
#    16  16  16  16  16  16  16  16
#     4  10  21  35  56  85 124 158 189 241 307 363
#     4   9  20  35  55  81 112 144 193 236 284 353
#     4  11  23  35  51  82 117 154 200 250 296 352
#     4   8  15  31  52  73 107 154 196 236 290 356
#     4  10  20  37  60  87 116 150 190 240 297 358
#     4  10  21  36  56  84 112 150 194 236 295 358
#     4  12  21  33  56  85 118 158 196 244 302 360
#     4  11  21  36  55  79 110 152 199 243 290 351
#
# _framework density 9.2592590000000001
#
# number of rings (size 3 to 8) (size 9 to 14) (size 15 to 20)
#    0.000    1.875    2.500    3.000    1.750    0.625 
#    0.000    5.625    0.000    0.000    0.000    0.000 
#    0.000    6.500    0.000    0.000    0.000    1.000 
#
# Total GULP energy -356378.882727 kJ/mol
# GULP energy per Si atom -5568.420043 kJ/mol
# Density = 0.923818 g / cm^3
# Si number density = 9.259259 Si / 1000 Ang^3
#
#
#
# Elastic Constant Matrix: (Units=GPa)
#
#
# Indices 1 2 3 4 5 6 
#
# 1 93.5057 41.9822 17.1346 0.0000 0.0000 0.0000
# 2 41.9822 93.5033 17.1338 0.0000 0.0000 0.0000
# 3 17.1346 17.1338 21.8959 0.0000 0.0000 0.0000
# 4 0.0000 0.0000 0.0000 23.2438 0.0000 0.0000
# 5 0.0000 0.0000 0.0000 0.0000 23.2441 0.0000
# 6 0.0000 0.0000 0.0000 0.0000 0.0000 23.0633
#
#
#
# Elastic Compliance Matrix: (Units=1/GPa)
#
#
# Indices 1 2 3 4 5 6 
#
# 1 0.014305 -0.005103 -0.007201 0.000000 0.000000 0.000000
# 2 -0.005103 0.014306 -0.007201 0.000000 0.000000 0.000000
# 3 -0.007201 -0.007201 0.056940 0.000000 0.000000 0.000000
# 4 0.000000 0.000000 0.000000 0.043022 0.000000 0.000000
# 5 0.000000 0.000000 0.000000 0.000000 0.043022 0.000000
# 6 0.000000 0.000000 0.000000 0.000000 0.000000 0.043359
#
#
# Mechanical properties :
#
#
# Convention : Reuss Voigt Hill
#
# Bulk Modulus (GPa) = 21.48644 40.15623 30.82133
# Shear Modulus (GPa) = 18.55434 22.75387 20.65411
#
# Velocity S-wave (km/s) = 3.16877 3.50910 3.34327
# Velocity P-wave (km/s) = 5.00160 6.17655 5.61987
#
# Compressibility (1/GPa) = 0.04654098
#
# Stress axis : x y z
#
# Youngs Moduli (GPa) = 69.90324 69.90227 17.56222
#
# Poissons Ratio (x) = 0.35674 0.12647
# Poissons Ratio (y) = 0.35675 0.12646
# Poissons Ratio (z) = 0.50339 0.50334
#
# Static dielectric constant tensor:
#      x y z
#    x 1.662680 0.000000 0.000000 
#    y 0.000000 1.662680 0.000000 
#    z 0.000000 0.000000 1.722640 
# 
# From -- ./inp_files/4465.got.cif
#   From: 2010.05.17/outbox.ucp.g08.bks.cvg/sg119_3_cif.got.tgz:4465.got - 2010.06.11 11:34:25.
