data_PCOD9559953
_publ_section_title
;
Structure prediction by ZEFSAII (Michael W. Deem and Ramdas Pophale) SiO2 
 PCOD9559953
Probable space group: I -4 C 2
;
_chemical_formula_sum "Si O2"
_cell_formula_units_Z 96
_cell_length_a 19.311054
_cell_length_b 19.311054
_cell_length_c 13.871107
_cell_angle_alpha 90.000000
_cell_angle_beta 90.000000
_cell_angle_gamma 90.000000
_cell_volume 5172.768926
_symmetry_space_group_name_H-M "I -4 C 2"
_symmetry_group_IT_number 120
_symmetry_cell_setting 'tetragonal'
loop_
_space_group_symop_operation_xyz
x,y,z
y,-x,-z
-x,-y,z
-y,x,-z
y,x,1/2-z
-y,-x,1/2-z
-x,y,1/2+z
x,-y,1/2+z
1/2+x,1/2+y,1/2+z
1/2+y,1/2-x,1/2-z
1/2-x,1/2-y,1/2+z
1/2-y,1/2+x,1/2-z
1/2+y,1/2+x,-z
1/2-y,1/2-x,-z
1/2-x,1/2+y,z
1/2+x,1/2-y,z
loop_
_atom_site_type_symbol
_atom_site_label
_atom_site_fract_x
_atom_site_fract_y
_atom_site_fract_z
Si Si1 0.347694 0.729227 0.977750
Si Si2 0.767226 0.373782 0.949988
Si Si3 0.630507 0.012908 0.510914
Si Si4 0.664333 0.776751 0.270628
Si Si5 0.499550 0.886140 0.271428
Si Si6 0.806160 0.576843 0.865956
O O1 0.308014 0.655645 0.979923
O O2 0.369355 0.741757 0.866176
O O3 0.289315 0.789315 0.000000
O O4 0.404644 0.744028 0.060150
O O5 0.774123 0.371026 0.833984
O O6 0.818946 0.318946 0.000000
O O7 0.798810 0.445278 0.987256
O O8 0.564952 0.064952 0.500000
O O9 0.632343 0.988280 0.619145
O O10 0.632569 0.950329 0.436009
O O11 0.735393 0.735393 0.250000
O O12 0.680523 0.853768 0.305690
O O13 0.562420 0.932568 0.231641
O O14 0.482258 0.815603 0.214814
#
# Coordination Sequence:
#
# PCOD9559953 Si02
#       6
#    16  16  16  16  16  16
#     4   8  17  30  50  76  93 123 168 227 278 330
#     4   9  17  33  51  70 101 129 167 221 294 316
#     4  11  22  36  50  70 100 143 181 226 266 315
#     4   9  18  32  52  74  95 123 169 234 287 332
#     4  11  25  38  45  61  96 146 189 226 260 295
#     4  11  21  33  54  74  96 136 190 225 269 332
#
# _framework density 18.558726
#
# number of rings (size 3 to 8) (size 9 to 14) (size 15 to 20)
#    0.000    2.167    1.667    3.000    7.000    0.000 
#    0.000    0.000    0.000    0.000    0.000    0.000 
#    0.000    0.667    0.000    3.333    1.000    1.000 
#
# Total GULP energy -267282.414918 kJ/mol
# GULP energy per Si atom -5568.383644 kJ/mol
# Density = 1.851649 g / cm^3
# Si number density = 18.558726 Si / 1000 Ang^3
#
#
#
# Elastic Constant Matrix: (Units=GPa)
#
#
# Indices 1 2 3 4 5 6 
#
# 1 61.7523 48.7171 33.0041 0.0000 0.0000 0.0000
# 2 48.7171 61.7523 33.0041 0.0000 0.0000 0.0000
# 3 33.0041 33.0041 134.5243 0.0000 0.0000 0.0000
# 4 0.0000 0.0000 0.0000 22.9661 0.0000 0.0000
# 5 0.0000 0.0000 0.0000 0.0000 22.9661 0.0000
# 6 0.0000 0.0000 0.0000 0.0000 0.0000 43.6193
#
#
#
# Elastic Compliance Matrix: (Units=1/GPa)
#
#
# Indices 1 2 3 4 5 6 
#
# 1 0.043661 -0.033054 -0.002602 0.000000 0.000000 0.000000
# 2 -0.033054 0.043661 -0.002602 0.000000 0.000000 0.000000
# 3 -0.002602 -0.002602 0.008711 0.000000 0.000000 0.000000
# 4 0.000000 0.000000 0.000000 0.043542 0.000000 0.000000
# 5 0.000000 0.000000 0.000000 0.000000 0.043542 0.000000
# 6 0.000000 0.000000 0.000000 0.000000 0.000000 0.022926
#
#
# Mechanical properties :
#
#
# Convention : Reuss Voigt Hill
#
# Bulk Modulus (GPa) = 51.24122 54.16441 52.70281
# Shear Modulus (GPa) = 17.29705 27.46385 22.38045
#
# Velocity S-wave (km/s) = 3.05621 3.85104 3.47641
# Velocity P-wave (km/s) = 6.33436 7.00162 6.67633
#
# Compressibility (1/GPa) = 0.01951554
#
# Stress axis : x y z
#
# Youngs Moduli (GPa) = 22.90357 22.90357 114.80350
#
# Poissons Ratio (x) = 0.75706 0.29876
# Poissons Ratio (y) = 0.75706 0.29876
# Poissons Ratio (z) = 0.05960 0.05960
#
# Static dielectric constant tensor:
#      x y z
#    x 1.683100 0.000000 0.000000 
#    y 0.000000 1.683100 0.000000 
#    z 0.000000 0.000000 1.663370 
# 
# From -- ./inp_files/3631.got.cif
#   From: 2010.05.17/outbox.cif.g08.bks.cpg/sg120_2_cif.got.tgz:3631.got - 2010.05.20 11:28:13.
