data_PCOD9559158
_publ_section_title
;
Structure prediction by ZEFSAII (Michael W. Deem and Ramdas Pophale) SiO2 
 PCOD9559158
Probable space group: I -4 M 2
;
_chemical_formula_sum "Si O2"
_cell_formula_units_Z 48
_cell_length_a 15.785923
_cell_length_b 15.785923
_cell_length_c 9.905117
_cell_angle_alpha 90.000000
_cell_angle_beta 90.000000
_cell_angle_gamma 90.000000
_cell_volume 2468.309246
_symmetry_space_group_name_H-M "I -4 M 2"
_symmetry_group_IT_number 119
_symmetry_cell_setting 'tetragonal'
loop_
_space_group_symop_operation_xyz
x,y,z
y,-x,-z
-x,-y,z
-y,x,-z
y,x,-z
-y,-x,-z
-x,y,z
x,-y,z
1/2+x,1/2+y,1/2+z
1/2+y,1/2-x,1/2-z
1/2-x,1/2-y,1/2+z
1/2-y,1/2+x,1/2-z
1/2+y,1/2+x,1/2-z
1/2-y,1/2-x,1/2-z
1/2-x,1/2+y,1/2+z
1/2+x,1/2-y,1/2+z
loop_
_atom_site_type_symbol
_atom_site_label
_atom_site_fract_x
_atom_site_fract_y
_atom_site_fract_z
Si Si1 0.633360 0.500000 0.796326
Si Si2 0.355529 0.902640 0.104458
Si Si3 0.500000 0.297528 0.490861
Si Si4 0.641202 0.500000 0.204549
Si Si5 0.788708 0.500000 0.995273
O O1 0.639377 0.500000 0.634427
O O2 0.580499 0.416675 0.833671
O O3 0.725072 0.500000 0.865659
O O4 0.357179 0.857179 0.250000
O O5 0.418637 0.848903 0.013346
O O6 0.386749 0.000000 0.127312
O O7 0.264720 0.919445 0.035973
O O8 0.500000 0.338416 0.636596
O O9 0.727741 0.500000 0.122713
#
# Coordination Sequence:
#
# PCOD9559158 Si02
#       5
#     8  16   8   8   8
#     4  11  22  45  67  80 123 179 215 244 304 388
#     4  10  19  36  68  92 118 166 210 244 306 384
#     4  10  22  39  66  91 119 167 215 253 310 376
#     4  11  26  41  59  94 129 163 209 268 312 354
#     4  12  21  38  66  95 123 165 207 260 310 371
#
# _framework density 19.446511000000001
#
# number of rings (size 3 to 8) (size 9 to 14) (size 15 to 20)
#    1.000    0.333    5.000    2.500    0.000    4.000 
#    0.000   10.000    3.667    0.000    0.000    0.000 
#    0.000    0.000    0.000    0.000    0.000    0.000 
#
# Total GULP energy -133860.103671 kJ/mol
# GULP energy per Si atom -5577.504320 kJ/mol
# Density = 1.940225 g / cm^3
# Si number density = 19.446511 Si / 1000 Ang^3
#
#
#
# Elastic Constant Matrix: (Units=GPa)
#
#
# Indices 1 2 3 4 5 6 
#
# 1 68.8987 15.5221 7.7046 0.0000 0.0000 0.0000
# 2 15.5221 68.8987 7.7046 0.0000 0.0000 0.0000
# 3 7.7046 7.7046 86.0808 0.0000 0.0000 0.0000
# 4 0.0000 0.0000 0.0000 218.9268 0.0000 0.0000
# 5 0.0000 0.0000 0.0000 0.0000 218.9268 0.0000
# 6 0.0000 0.0000 0.0000 0.0000 0.0000 -7.8362
#
#
#
# Elastic Compliance Matrix: (Units=1/GPa)
#
#
# Indices 1 2 3 4 5 6 
#
# 1 0.015388 -0.003346 -0.001078 0.000000 0.000000 0.000000
# 2 -0.003346 0.015388 -0.001078 0.000000 0.000000 0.000000
# 3 -0.001078 -0.001078 0.011810 0.000000 0.000000 0.000000
# 4 0.000000 0.000000 0.000000 0.004568 0.000000 0.000000
# 5 0.000000 0.000000 0.000000 0.000000 0.004568 0.000000
# 6 0.000000 0.000000 0.000000 0.000000 0.000000 -0.127614
#
#
# Mechanical properties :
#
#
# Convention : Reuss Voigt Hill
#
# Bulk Modulus (GPa) = 31.66268 31.74900 31.70584
# Shear Modulus (GPa) = -91.97986 98.86661 3.44338
#
# Velocity S-wave (km/s) = -6.88488 7.13797 1.33212
# Velocity P-wave (km/s) = 6.84725 9.18128 4.32499
#
# Compressibility (1/GPa) = 0.03158293
#
# Stress axis : x y z
#
# Youngs Moduli (GPa) = 64.98373 64.98373 84.67450
#
# Poissons Ratio (x) = 0.21746 0.09126
# Poissons Ratio (y) = 0.21746 0.09126
# Poissons Ratio (z) = 0.07004 0.07004
#
# Static dielectric constant tensor:
#      x y z
#    x 1.424740 0.000000 0.000000 
#    y 0.000000 1.424740 0.000000 
#    z 0.000000 0.000000 1.692540 
# 
# From -- ./inp_files/1851.got.cif
#   From: 2010.05.17/outbox.cif.g08.bks.cpg/sg119_1_cif.got.tgz:1851.got - 2010.05.20 11:21:29.
