data_PCOD9559195
_publ_section_title
;
Structure prediction by ZEFSAII (Michael W. Deem and Ramdas Pophale) SiO2 
 PCOD9559195
Probable space group: I -4 M 2
;
_chemical_formula_sum "Si O2"
_cell_formula_units_Z 80
_cell_length_a 12.947784
_cell_length_b 12.947784
_cell_length_c 25.557554
_cell_angle_alpha 90.000000
_cell_angle_beta 90.000000
_cell_angle_gamma 90.000000
_cell_volume 4284.598965
_symmetry_space_group_name_H-M "I -4 M 2"
_symmetry_group_IT_number 119
_symmetry_cell_setting 'tetragonal'
loop_
_space_group_symop_operation_xyz
x,y,z
y,-x,-z
-x,-y,z
-y,x,-z
y,x,-z
-y,-x,-z
-x,y,z
x,-y,z
1/2+x,1/2+y,1/2+z
1/2+y,1/2-x,1/2-z
1/2-x,1/2-y,1/2+z
1/2-y,1/2+x,1/2-z
1/2+y,1/2+x,1/2-z
1/2-y,1/2-x,1/2-z
1/2-x,1/2+y,1/2+z
1/2+x,1/2-y,1/2+z
loop_
_atom_site_type_symbol
_atom_site_label
_atom_site_fract_x
_atom_site_fract_y
_atom_site_fract_z
Si Si1 0.382198 0.812923 0.305538
Si Si2 0.245738 0.381564 0.292871
Si Si3 0.620036 0.174367 0.894151
Si Si4 0.374940 0.885894 0.011610
Si Si5 0.230055 0.120126 0.396971
O O1 0.500000 0.817952 0.323296
O O2 0.368720 0.868720 0.250000
O O3 0.343295 0.695265 0.296756
O O4 0.305595 0.864135 0.347491
O O5 0.269839 0.500000 0.279847
O O6 0.169692 0.330309 0.250000
O O7 0.187887 0.374921 0.348512
O O8 0.500000 0.148888 0.886885
O O9 0.638404 0.297833 0.891498
O O10 0.653076 0.137171 0.951740
O O11 0.500000 0.888040 0.013021
O O12 0.346777 0.797118 0.052366
O O13 0.337251 0.000000 0.027054
O O14 0.200028 0.000000 0.401422
#
# Coordination Sequence:
#
# PCOD9559195 Si02
#       5
#    16  16  16  16  16
#     4  10  21  36  54  77 103 132 168 208 251 301
#     4  10  21  36  54  77 103 132 168 208 251 301
#     4  10  20  33  50  74 103 135 172 211 252 301
#     4   9  17  30  49  71  95 127 167 209 252 295
#     4  10  20  33  50  74 103 135 172 211 252 301
#
# _framework density 18.671527000000001
#
# number of rings (size 3 to 8) (size 9 to 14) (size 15 to 20)
#    0.000    2.200    0.000    3.000    0.000    5.200 
#    0.000    0.000    0.000   10.800    0.000    0.000 
#    0.000   14.400    0.000    0.000    0.000    0.000 
#
# Total GULP energy -223220.269060 kJ/mol
# GULP energy per Si atom -5580.506726 kJ/mol
# Density = 1.862903 g / cm^3
# Si number density = 18.671527 Si / 1000 Ang^3
#
#
#
# Elastic Constant Matrix: (Units=GPa)
#
#
# Indices 1 2 3 4 5 6 
#
# 1 41.5974 -0.5760 -18.7937 0.0000 0.0000 0.0000
# 2 -0.5760 41.5965 -18.7955 0.0000 0.0000 0.0000
# 3 -18.7937 -18.7955 73.5458 0.0000 0.0000 0.0000
# 4 0.0000 0.0000 0.0000 19.1222 0.0000 0.0000
# 5 0.0000 0.0000 0.0000 0.0000 19.1217 0.0000
# 6 0.0000 0.0000 0.0000 0.0000 0.0000 4.1146
#
#
#
# Elastic Compliance Matrix: (Units=1/GPa)
#
#
# Indices 1 2 3 4 5 6 
#
# 1 0.027771 0.004060 0.008134 0.000000 0.000000 0.000000
# 2 0.004060 0.027773 0.008135 0.000000 0.000000 0.000000
# 3 0.008134 0.008135 0.017755 0.000000 0.000000 0.000000
# 4 0.000000 0.000000 0.000000 0.052295 0.000000 0.000000
# 5 0.000000 0.000000 0.000000 0.000000 0.052297 0.000000
# 6 0.000000 0.000000 0.000000 0.000000 0.000000 0.243035
#
#
# Mechanical properties :
#
#
# Convention : Reuss Voigt Hill
#
# Bulk Modulus (GPa) = 8.77527 8.93439 8.85483
# Shear Modulus (GPa) = 11.95449 21.46537 16.70993
#
# Velocity S-wave (km/s) = 2.53307 3.39430 2.99480
# Velocity P-wave (km/s) = 3.64215 4.48967 4.08793
#
# Compressibility (1/GPa) = 0.11395655
#
# Stress axis : x y z
#
# Youngs Moduli (GPa) = 36.00855 36.00681 56.32364
#
# Poissons Ratio (x) = -0.14619 -0.45814
# Poissons Ratio (y) = -0.14619 -0.45820
# Poissons Ratio (z) = -0.29290 -0.29292
#
# Static dielectric constant tensor:
#      x y z
#    x 1.634640 0.000000 0.000000 
#    y 0.000000 1.634640 0.000000 
#    z 0.000000 0.000000 1.647480 
# 
# From -- ./inp_files/10106.got.cif
#   From: 2010.05.17/outbox.cif.g08.bks.cpg/sg119_6_cif.got.tgz:10106.got - 2010.05.20 11:21:29.
