data_PCOD9559011
_publ_section_title
;
Structure prediction by ZEFSAII (Michael W. Deem and Ramdas Pophale) SiO2 
 PCOD9559011
Probable space group: I -4 M 2
;
_chemical_formula_sum "Si O2"
_cell_formula_units_Z 128
_cell_length_a 18.277447
_cell_length_b 18.277447
_cell_length_c 24.336595
_cell_angle_alpha 90.000000
_cell_angle_beta 90.000000
_cell_angle_gamma 90.000000
_cell_volume 8130.006284
_symmetry_space_group_name_H-M "I -4 M 2"
_symmetry_group_IT_number 119
_symmetry_cell_setting 'tetragonal'
loop_
_space_group_symop_operation_xyz
x,y,z
y,-x,-z
-x,-y,z
-y,x,-z
y,x,-z
-y,-x,-z
-x,y,z
x,-y,z
1/2+x,1/2+y,1/2+z
1/2+y,1/2-x,1/2-z
1/2-x,1/2-y,1/2+z
1/2-y,1/2+x,1/2-z
1/2+y,1/2+x,1/2-z
1/2-y,1/2-x,1/2-z
1/2-x,1/2+y,1/2+z
1/2+x,1/2-y,1/2+z
loop_
_atom_site_type_symbol
_atom_site_label
_atom_site_fract_x
_atom_site_fract_y
_atom_site_fract_z
Si Si1 0.086107 0.199779 0.819964
Si Si2 0.737002 0.207550 0.941281
Si Si3 0.085792 0.358731 0.192140
Si Si4 0.196785 0.413295 0.777975
Si Si5 0.822831 0.330194 0.616742
Si Si6 0.415602 0.917641 0.032343
Si Si7 0.703618 0.586329 0.364775
Si Si8 0.654047 0.917683 0.580889
O O1 0.102413 0.230876 0.758670
O O2 0.107719 0.269802 0.857535
O O3 0.136152 0.132078 0.839281
O O4 0.000000 0.183714 0.824276
O O5 0.766189 0.267886 0.899234
O O6 0.769024 0.129771 0.919456
O O7 0.649540 0.205478 0.936575
O O8 0.769658 0.230343 0.000000
O O9 0.122650 0.377351 0.250000
O O10 0.091727 0.273130 0.176209
O O11 0.122327 0.401438 0.141106
O O12 0.000000 0.377713 0.195117
O O13 0.185659 0.500000 0.777642
O O14 0.129177 0.370824 0.750000
O O15 0.197953 0.380493 0.838712
O O16 0.863898 0.362038 0.564007
O O17 0.500000 0.905690 0.049072
O O18 0.394709 0.000000 0.047054
O O19 0.413214 0.907412 0.966746
O O20 0.688693 0.500000 0.374092
O O21 0.684776 0.000000 0.578729
#
# Coordination Sequence:
#
# PCOD9559011 Si02
#       8
#    16  16  16  16  16  16  16  16
#     4   9  18  32  50  71  96 127 167 207 250 295
#     4  10  19  35  51  73 100 133 171 207 251 299
#     4  10  20  33  50  73 101 133 167 202 246 305
#     4   9  18  31  48  73 102 134 165 200 249 302
#     4  10  18  31  50  70  98 131 170 208 243 297
#     4  10  19  29  44  69 101 133 164 201 247 300
#     4   9  20  35  52  74  99 129 168 211 256 299
#     4  10  20  33  49  71 102 132 167 208 250 300
#
# _framework density 15.744145
#
# number of rings (size 3 to 8) (size 9 to 14) (size 15 to 20)
#    0.000    2.375    1.250    1.500    0.000    6.250 
#    0.000    0.625    0.000    0.000    0.000    0.000 
#    0.000    3.750    0.000    0.000    0.000    0.000 
#
# Total GULP energy -356451.588815 kJ/mol
# GULP energy per Si atom -5569.556075 kJ/mol
# Density = 1.570831 g / cm^3
# Si number density = 15.744145 Si / 1000 Ang^3
#
#
#
# Elastic Constant Matrix: (Units=GPa)
#
#
# Indices 1 2 3 4 5 6 
#
# 1 90.9601 48.5236 36.0984 0.0000 0.0000 0.0000
# 2 48.5236 90.9604 36.0986 0.0000 0.0000 0.0000
# 3 36.0984 36.0986 95.3250 0.0000 0.0000 0.0000
# 4 0.0000 0.0000 0.0000 18.1072 0.0000 0.0000
# 5 0.0000 0.0000 0.0000 0.0000 18.1069 0.0000
# 6 0.0000 0.0000 0.0000 0.0000 0.0000 17.8392
#
#
#
# Elastic Compliance Matrix: (Units=1/GPa)
#
#
# Indices 1 2 3 4 5 6 
#
# 1 0.016241 -0.007324 -0.003377 0.000000 0.000000 0.000000
# 2 -0.007324 0.016241 -0.003377 0.000000 0.000000 0.000000
# 3 -0.003377 -0.003377 0.013048 0.000000 0.000000 0.000000
# 4 0.000000 0.000000 0.000000 0.055227 0.000000 0.000000
# 5 0.000000 0.000000 0.000000 0.000000 0.055227 0.000000
# 6 0.000000 0.000000 0.000000 0.000000 0.000000 0.056056
#
#
# Mechanical properties :
#
#
# Convention : Reuss Voigt Hill
#
# Bulk Modulus (GPa) = 57.55412 57.63185 57.59298
# Shear Modulus (GPa) = 20.32634 21.24567 20.78601
#
# Velocity S-wave (km/s) = 3.59700 3.67745 3.63745
# Velocity P-wave (km/s) = 7.34074 7.39704 7.36895
#
# Compressibility (1/GPa) = 0.01737495
#
# Stress axis : x y z
#
# Youngs Moduli (GPa) = 61.57321 61.57332 76.64042
#
# Poissons Ratio (x) = 0.45094 0.25880
# Poissons Ratio (y) = 0.45094 0.25880
# Poissons Ratio (z) = 0.20792 0.20792
#
# Static dielectric constant tensor:
#      x y z
#    x 1.515960 0.000000 0.000000 
#    y 0.000000 1.515960 0.000000 
#    z 0.000000 0.000000 1.542490 
# 
# From -- ./inp_files/9014.got.cif
#   From: 2010.05.17/outbox.cif.g08.bks.cpg/sg119_5_cif.got.tgz:9014.got - 2010.05.20 11:21:29.
