data_PCOD9559443
_publ_section_title
;
Structure prediction by ZEFSAII (Michael W. Deem and Ramdas Pophale) SiO2 
 PCOD9559443
Probable space group: I -4 M 2
;
_chemical_formula_sum "Si O2"
_cell_formula_units_Z 40
_cell_length_a 7.401719
_cell_length_b 7.401719
_cell_length_c 35.039743
_cell_angle_alpha 90.000000
_cell_angle_beta 90.000000
_cell_angle_gamma 90.000000
_cell_volume 1919.667883
_symmetry_space_group_name_H-M "I -4 M 2"
_symmetry_group_IT_number 119
_symmetry_cell_setting 'tetragonal'
loop_
_space_group_symop_operation_xyz
x,y,z
y,-x,-z
-x,-y,z
-y,x,-z
y,x,-z
-y,-x,-z
-x,y,z
x,-y,z
1/2+x,1/2+y,1/2+z
1/2+y,1/2-x,1/2-z
1/2-x,1/2-y,1/2+z
1/2-y,1/2+x,1/2-z
1/2+y,1/2+x,1/2-z
1/2-y,1/2-x,1/2-z
1/2-x,1/2+y,1/2+z
1/2+x,1/2-y,1/2+z
loop_
_atom_site_type_symbol
_atom_site_label
_atom_site_fract_x
_atom_site_fract_y
_atom_site_fract_z
Si Si1 0.296517 0.715211 0.081973
Si Si2 0.211881 0.000000 0.855892
Si Si3 0.783355 0.783355 0.500000
Si Si4 0.000000 0.777419 0.232163
O O1 0.500000 0.784885 0.087862
O O2 0.309743 0.500000 0.076593
O O3 0.172069 0.741231 0.118329
O O4 0.217786 0.782955 0.041301
O O5 0.277443 0.000000 0.812629
O O6 0.000000 0.000000 0.851915
O O7 0.000000 0.753349 0.502344
O O8 0.823089 0.676912 0.250000
O O9 0.000000 0.000000 0.236549
#
# Coordination Sequence:
#
# PCOD9559443 Si02
#       4
#    16   8   8   8
#     4   9  18  34  59  85 115 161 209 257 303 362
#     4  11  24  40  56  89 129 157 202 259 323 392
#     4   7  12  28  51  78 112 154 209 253 294 352
#     4  10  25  47  72 101 135 174 219 285 348 425
#
# _framework density 20.836936999999999
#
# number of rings (size 3 to 8) (size 9 to 14) (size 15 to 20)
#    0.000    2.800    0.000    3.000    5.600    2.800 
#    3.600    4.000    0.000    0.000    0.000    0.000 
#    0.000    0.000    0.000    0.000    0.000    0.000 
#
# Total GULP energy -111396.892863 kJ/mol
# GULP energy per Si atom -5569.844643 kJ/mol
# Density = 2.078951 g / cm^3
# Si number density = 20.836937 Si / 1000 Ang^3
#
#
#
# Elastic Constant Matrix: (Units=GPa)
#
#
# Indices 1 2 3 4 5 6 
#
# 1 110.4939 23.7446 60.3060 0.0000 0.0000 0.0000
# 2 23.7446 110.4930 60.3060 0.0000 0.0000 0.0000
# 3 60.3060 60.3060 237.3332 0.0000 0.0000 0.0000
# 4 0.0000 0.0000 0.0000 40.6374 0.0000 0.0000
# 5 0.0000 0.0000 0.0000 0.0000 40.6374 0.0000
# 6 0.0000 0.0000 0.0000 0.0000 0.0000 -2.8916
#
#
#
# Elastic Compliance Matrix: (Units=1/GPa)
#
#
# Indices 1 2 3 4 5 6 
#
# 1 0.010590 -0.000937 -0.002453 0.000000 0.000000 0.000000
# 2 -0.000937 0.010590 -0.002453 0.000000 0.000000 0.000000
# 3 -0.002453 -0.002453 0.005460 0.000000 0.000000 0.000000
# 4 0.000000 0.000000 0.000000 0.024608 0.000000 0.000000
# 5 0.000000 0.000000 0.000000 0.000000 0.024608 0.000000
# 6 0.000000 0.000000 0.000000 0.000000 0.000000 -0.345830
#
#
# Mechanical properties :
#
#
# Convention : Reuss Voigt Hill
#
# Bulk Modulus (GPa) = 66.86653 83.00368 74.93511
# Shear Modulus (GPa) = -19.73925 36.60756 8.43415
#
# Velocity S-wave (km/s) = -3.08120 4.19604 2.01407
# Velocity P-wave (km/s) = 4.41607 7.96222 6.43812
#
# Compressibility (1/GPa) = 0.01495516
#
# Stress axis : x y z
#
# Youngs Moduli (GPa) = 94.42515 94.42430 183.14872
#
# Poissons Ratio (x) = 0.08848 0.44924
# Poissons Ratio (y) = 0.08848 0.44925
# Poissons Ratio (z) = 0.23161 0.23161
#
# Static dielectric constant tensor:
#      x y z
#    x 1.766230 0.000000 0.000000 
#    y 0.000000 1.766240 0.000000 
#    z 0.000000 0.000000 1.829700 
# 
# From -- ./inp_files/9147.got.cif
#   From: 2010.05.17/outbox.cif.g08.bks.cpg/sg119_5_cif.got.tgz:9147.got - 2010.05.20 11:21:29.
