data_PCOD9559321
_publ_section_title
;
Structure prediction by ZEFSAII (Michael W. Deem and Ramdas Pophale) SiO2 
 PCOD9559321
Probable space group: I -4 M 2
;
_chemical_formula_sum "Si O2"
_cell_formula_units_Z 40
_cell_length_a 7.694815
_cell_length_b 7.694815
_cell_length_c 33.196272
_cell_angle_alpha 90.000000
_cell_angle_beta 90.000000
_cell_angle_gamma 90.000000
_cell_volume 1965.557170
_symmetry_space_group_name_H-M "I -4 M 2"
_symmetry_group_IT_number 119
_symmetry_cell_setting 'tetragonal'
loop_
_space_group_symop_operation_xyz
x,y,z
y,-x,-z
-x,-y,z
-y,x,-z
y,x,-z
-y,-x,-z
-x,y,z
x,-y,z
1/2+x,1/2+y,1/2+z
1/2+y,1/2-x,1/2-z
1/2-x,1/2-y,1/2+z
1/2-y,1/2+x,1/2-z
1/2+y,1/2+x,1/2-z
1/2-y,1/2-x,1/2-z
1/2-x,1/2+y,1/2+z
1/2+x,1/2-y,1/2+z
loop_
_atom_site_type_symbol
_atom_site_label
_atom_site_fract_x
_atom_site_fract_y
_atom_site_fract_z
Si Si1 0.000000 0.286496 0.356125
Si Si2 0.789841 0.000000 0.737029
Si Si3 0.295645 0.295645 0.000000
Si Si4 0.207279 0.185041 0.089073
O O1 0.000000 0.215024 0.311372
O O2 0.163226 0.227475 0.382639
O O3 0.000000 0.500000 0.353398
O O4 0.670871 0.170871 0.750000
O O5 0.000000 0.000000 0.749526
O O6 0.211863 0.237346 0.958350
O O7 0.263508 0.500000 0.004523
O O8 0.000000 0.183596 0.094426
O O9 0.280893 0.000000 0.101163
#
# Coordination Sequence:
#
# PCOD9559321 Si02
#       4
#     8   8   8  16
#     4  10  20  41  65  96 131 175 226 283 353 414
#     4  11  25  48  77 109 146 189 233 300 371 447
#     4  11  22  35  52  78 122 175 224 271 332 394
#     4  10  21  36  59  89 122 168 222 278 332 399
#
# _framework density 20.350462
#
# number of rings (size 3 to 8) (size 9 to 14) (size 15 to 20)
#    0.000    1.600    4.000    1.200    0.000    7.600 
#    0.000    0.000    0.000    0.000    0.000    0.000 
#    0.000    0.000    0.000    0.000    0.000    0.000 
#
# Total GULP energy -111555.317322 kJ/mol
# GULP energy per Si atom -5577.765866 kJ/mol
# Density = 2.030414 g / cm^3
# Si number density = 20.350462 Si / 1000 Ang^3
#
#
#
# Elastic Constant Matrix: (Units=GPa)
#
#
# Indices 1 2 3 4 5 6 
#
# 1 117.8958 58.4951 46.1190 0.0000 0.0000 0.0000
# 2 58.4951 117.8958 46.1190 0.0000 0.0000 0.0000
# 3 46.1190 46.1190 136.4210 0.0000 0.0000 0.0000
# 4 0.0000 0.0000 0.0000 25.2964 0.0000 0.0000
# 5 0.0000 0.0000 0.0000 0.0000 25.2964 0.0000
# 6 0.0000 0.0000 0.0000 0.0000 0.0000 10.9845
#
#
#
# Elastic Compliance Matrix: (Units=1/GPa)
#
#
# Indices 1 2 3 4 5 6 
#
# 1 0.011861 -0.004974 -0.002328 0.000000 0.000000 0.000000
# 2 -0.004974 0.011861 -0.002328 0.000000 0.000000 0.000000
# 3 -0.002328 -0.002328 0.008904 0.000000 0.000000 0.000000
# 4 0.000000 0.000000 0.000000 0.039531 0.000000 0.000000
# 5 0.000000 0.000000 0.000000 0.000000 0.039531 0.000000
# 6 0.000000 0.000000 0.000000 0.000000 0.000000 0.091038
#
#
# Mechanical properties :
#
#
# Convention : Reuss Voigt Hill
#
# Bulk Modulus (GPa) = 74.82146 74.85319 74.83733
# Shear Modulus (GPa) = 22.08073 27.08074 24.58074
#
# Velocity S-wave (km/s) = 3.29754 3.65186 3.47921
# Velocity P-wave (km/s) = 7.16552 7.39211 7.27970
#
# Compressibility (1/GPa) = 0.01336515
#
# Stress axis : x y z
#
# Youngs Moduli (GPa) = 84.31183 84.31183 112.30453
#
# Poissons Ratio (x) = 0.41937 0.26146
# Poissons Ratio (y) = 0.41937 0.26146
# Poissons Ratio (z) = 0.19629 0.19629
#
# Static dielectric constant tensor:
#      x y z
#    x 1.769330 0.000000 0.000000 
#    y 0.000000 1.769330 0.000000 
#    z 0.000000 0.000000 1.689480 
# 
# From -- ./inp_files/9127.got.cif
#   From: 2010.05.17/outbox.cif.g08.bks.cpg/sg119_5_cif.got.tgz:9127.got - 2010.05.20 11:21:29.
