data_PCOD9559021
_publ_section_title
;
Structure prediction by ZEFSAII (Michael W. Deem and Ramdas Pophale) SiO2 
 PCOD9559021
Probable space group: I -4 M 2
;
_chemical_formula_sum "Si O2"
_cell_formula_units_Z 112
_cell_length_a 13.889038
_cell_length_b 13.889038
_cell_length_c 30.280856
_cell_angle_alpha 90.000000
_cell_angle_beta 90.000000
_cell_angle_gamma 90.000000
_cell_volume 5841.339929
_symmetry_space_group_name_H-M "I -4 M 2"
_symmetry_group_IT_number 119
_symmetry_cell_setting 'tetragonal'
loop_
_space_group_symop_operation_xyz
x,y,z
y,-x,-z
-x,-y,z
-y,x,-z
y,x,-z
-y,-x,-z
-x,y,z
x,-y,z
1/2+x,1/2+y,1/2+z
1/2+y,1/2-x,1/2-z
1/2-x,1/2-y,1/2+z
1/2-y,1/2+x,1/2-z
1/2+y,1/2+x,1/2-z
1/2-y,1/2-x,1/2-z
1/2-x,1/2+y,1/2+z
1/2+x,1/2-y,1/2+z
loop_
_atom_site_type_symbol
_atom_site_label
_atom_site_fract_x
_atom_site_fract_y
_atom_site_fract_z
Si Si1 0.116847 0.396953 0.580245
Si Si2 0.384885 0.697217 0.044929
Si Si3 0.385774 0.387391 0.858187
Si Si4 0.103859 0.613753 0.815191
Si Si5 0.117017 0.885704 0.146273
Si Si6 0.611220 0.616753 0.547121
Si Si7 0.246800 0.262356 0.201199
O O1 0.154523 0.500000 0.564390
O O2 0.150527 0.305308 0.553865
O O3 0.135939 0.388560 0.632419
O O4 0.000000 0.398442 0.577069
O O5 0.500000 0.698392 0.040010
O O6 0.366716 0.640095 0.090562
O O7 0.343389 0.656612 0.000000
O O8 0.500000 0.390043 0.852379
O O9 0.350009 0.500000 0.849224
O O10 0.343154 0.299473 0.828897
O O11 0.105283 0.500000 0.810694
O O12 0.192439 0.662248 0.792998
O O13 0.000000 0.648780 0.799234
O O14 0.150377 0.862878 0.095925
O O15 0.168600 0.807017 0.177198
O O16 0.000000 0.878378 0.148728
O O17 0.139243 0.000000 0.155233
O O18 0.651566 0.651566 0.500000
O O19 0.500000 0.650035 0.548879
O O20 0.608771 0.500000 0.544581
O O21 0.209691 0.290310 0.250000
#
# Coordination Sequence:
#
# PCOD9559021 Si02
#       7
#    16  16  16  16  16  16  16
#     4   8  14  27  49  76 111 153 188 223 277 346
#     4  10  18  31  56  89 120 151 195 245 291 347
#     4  10  22  41  62  85 118 155 191 243 311 369
#     4   9  17  31  51  76 109 146 179 216 273 345
#     4   9  19  36  57  83 116 152 189 232 284 342
#     4   7  10  21  46  77 106 138 175 214 258 313
#     4  12  24  36  54  81 110 146 197 246 289 344
#
# _framework density 19.173683
#
# number of rings (size 3 to 8) (size 9 to 14) (size 15 to 20)
#    0.000    2.714    1.429    3.429    0.000    3.571 
#    0.000    2.857    0.000    1.286    0.000    1.000 
#    0.000    0.286    0.000    0.000    0.000    0.000 
#
# Total GULP energy -311981.946288 kJ/mol
# GULP energy per Si atom -5571.106184 kJ/mol
# Density = 1.913004 g / cm^3
# Si number density = 19.173683 Si / 1000 Ang^3
#
#
#
# Elastic Constant Matrix: (Units=GPa)
#
#
# Indices 1 2 3 4 5 6 
#
# 1 73.8030 28.7826 47.1953 0.0000 0.0000 0.0000
# 2 28.7826 73.8029 47.1951 0.0000 0.0000 0.0000
# 3 47.1953 47.1951 142.6782 0.0000 0.0000 0.0000
# 4 0.0000 0.0000 0.0000 7.7775 0.0000 0.0000
# 5 0.0000 0.0000 0.0000 0.0000 7.7774 0.0000
# 6 0.0000 0.0000 0.0000 0.0000 0.0000 29.0942
#
#
#
# Elastic Compliance Matrix: (Units=1/GPa)
#
#
# Indices 1 2 3 4 5 6 
#
# 1 0.018113 -0.004100 -0.004635 0.000000 0.000000 0.000000
# 2 -0.004100 0.018113 -0.004635 0.000000 0.000000 0.000000
# 3 -0.004635 -0.004635 0.010075 0.000000 0.000000 0.000000
# 4 0.000000 0.000000 0.000000 0.128575 0.000000 0.000000
# 5 0.000000 0.000000 0.000000 0.000000 0.128578 0.000000
# 6 0.000000 0.000000 0.000000 0.000000 0.000000 0.034371
#
#
# Mechanical properties :
#
#
# Convention : Reuss Voigt Hill
#
# Bulk Modulus (GPa) = 51.12416 59.62555 55.37486
# Shear Modulus (GPa) = 13.47401 20.07057 16.77229
#
# Velocity S-wave (km/s) = 2.65379 3.23890 2.96084
# Velocity P-wave (km/s) = 6.00930 6.71956 6.37433
#
# Compressibility (1/GPa) = 0.01956022
#
# Stress axis : x y z
#
# Youngs Moduli (GPa) = 55.21040 55.21047 99.25328
#
# Poissons Ratio (x) = 0.22634 0.46006
# Poissons Ratio (y) = 0.22634 0.46005
# Poissons Ratio (z) = 0.25591 0.25591
#
# Static dielectric constant tensor:
#      x y z
#    x 1.705920 0.000000 0.000000 
#    y 0.000000 1.705920 0.000000 
#    z 0.000000 0.000000 1.738330 
# 
# From -- ./inp_files/9574.got.cif
#   From: 2010.05.17/outbox.cif.g08.bks.cpg/sg119_5_cif.got.tgz:9574.got - 2010.05.20 11:21:29.
