data_PCOD9559927
_publ_section_title
;
Structure prediction by ZEFSAII (Michael W. Deem and Ramdas Pophale) SiO2 
 PCOD9559927
Probable space group: I -4 C 2
;
_chemical_formula_sum "Si O2"
_cell_formula_units_Z 60
_cell_length_a 16.545644
_cell_length_b 16.545644
_cell_length_c 9.305528
_cell_angle_alpha 90.000000
_cell_angle_beta 90.000000
_cell_angle_gamma 90.000000
_cell_volume 2547.465855
_symmetry_space_group_name_H-M "I -4 C 2"
_symmetry_group_IT_number 120
_symmetry_cell_setting 'tetragonal'
loop_
_space_group_symop_operation_xyz
x,y,z
y,-x,-z
-x,-y,z
-y,x,-z
y,x,1/2-z
-y,-x,1/2-z
-x,y,1/2+z
x,-y,1/2+z
1/2+x,1/2+y,1/2+z
1/2+y,1/2-x,1/2-z
1/2-x,1/2-y,1/2+z
1/2-y,1/2+x,1/2-z
1/2+y,1/2+x,-z
1/2-y,1/2-x,-z
1/2-x,1/2+y,z
1/2+x,1/2-y,z
loop_
_atom_site_type_symbol
_atom_site_label
_atom_site_fract_x
_atom_site_fract_y
_atom_site_fract_z
Si Si1 0.332914 0.167087 0.500000
Si Si2 0.831080 0.668921 0.500000
Si Si3 0.028328 0.849163 0.298536
Si Si4 0.751214 0.751214 0.750000
Si Si5 0.500000 0.500000 0.500000
Si Si6 0.995441 0.264719 0.554105
O O1 0.267292 0.181540 0.627390
O O2 0.321878 0.081075 0.425358
O O3 0.767554 0.680573 0.632475
O O4 0.810504 0.580800 0.436633
O O5 0.116075 0.883926 0.250000
O O6 0.016608 0.771546 0.396734
O O7 0.989982 0.815147 0.152980
O O8 0.994029 0.923661 0.392345
#
# Coordination Sequence:
#
# PCOD9559927 Si02
#       6
#     8   8  16   8   4  16
#     4  11  26  47  74 110 142 205 247 316 378 458
#     4  11  26  49  72 108 144 203 251 318 374 462
#     4  12  27  44  70 109 149 195 239 308 382 457
#     4  10  24  44  74 100 150 190 248 308 386 448
#     4  12  26  48  74 112 166 188 254 316 398 480
#     4  12  28  46  78 106 152 198 255 314 379 451
#
# _framework density 23.552817999999998
#
# number of rings (size 3 to 8) (size 9 to 14) (size 15 to 20)
#    0.000    0.533    2.667    3.600   11.200    2.667 
#    4.800    0.000    0.000    6.400    0.000    0.000 
#    0.000    0.000    0.000    0.000    0.000    0.000 
#
# Total GULP energy -167055.269783 kJ/mol
# GULP energy per Si atom -5568.508993 kJ/mol
# Density = 2.349921 g / cm^3
# Si number density = 23.552818 Si / 1000 Ang^3
#
#
#
# Elastic Constant Matrix: (Units=GPa)
#
#
# Indices 1 2 3 4 5 6 
#
# 1 76.8184 103.3363 22.7169 0.0000 0.0000 0.0000
# 2 103.3363 76.8217 22.7156 0.0000 0.0000 0.0000
# 3 22.7169 22.7156 131.6775 0.0000 0.0000 0.0000
# 4 0.0000 0.0000 0.0000 6.2342 0.0000 0.0000
# 5 0.0000 0.0000 0.0000 0.0000 6.2406 0.0000
# 6 0.0000 0.0000 0.0000 0.0000 0.0000 38.3044
#
#
#
# Elastic Compliance Matrix: (Units=1/GPa)
#
#
# Indices 1 2 3 4 5 6 
#
# 1 -0.015955 0.021758 -0.001001 0.000000 0.000000 0.000000
# 2 0.021758 -0.015954 -0.001001 0.000000 0.000000 0.000000
# 3 -0.001001 -0.001001 0.007940 0.000000 0.000000 0.000000
# 4 0.000000 0.000000 0.000000 0.160405 0.000000 0.000000
# 5 0.000000 0.000000 0.000000 0.000000 0.160241 0.000000
# 6 0.000000 0.000000 0.000000 0.000000 0.000000 0.026107
#
#
# Mechanical properties :
#
#
# Convention : Reuss Voigt Hill
#
# Bulk Modulus (GPa) = 64.34345 64.76169 64.55257
# Shear Modulus (GPa) = 17.33390 19.25908 18.29649
#
# Velocity S-wave (km/s) = 2.71580 2.86264 2.79019
# Velocity P-wave (km/s) = 6.10018 6.20342 6.15201
#
# Compressibility (1/GPa) = 0.01554160
#
# Stress axis : x y z
#
# Youngs Moduli (GPa) = -62.67559 -62.67883 125.94878
#
# Poissons Ratio (x) = 1.36376 0.12606
# Poissons Ratio (y) = 1.36369 0.12612
# Poissons Ratio (z) = -0.06273 -0.06277
#
# Static dielectric constant tensor:
#      x y z
#    x 1.939930 0.000000 0.000000 
#    y 0.000000 1.939920 0.000000 
#    z 0.000000 0.000000 1.888130 
# 
# From -- ./inp_files/1130.got.cif
#   From: 2010.05.17/outbox.cif.g08.bks.cpg/sg120_1_cif.got.tgz:1130.got - 2010.05.20 11:28:13.
