data_PCOD9559058
_publ_section_title
;
Structure prediction by ZEFSAII (Michael W. Deem and Ramdas Pophale) SiO2 
 PCOD9559058
Probable space group: I -4 M 2
;
_chemical_formula_sum "Si O2"
_cell_formula_units_Z 112
_cell_length_a 15.352838
_cell_length_b 15.352838
_cell_length_c 24.766152
_cell_angle_alpha 90.000000
_cell_angle_beta 90.000000
_cell_angle_gamma 90.000000
_cell_volume 5837.620640
_symmetry_space_group_name_H-M "I -4 M 2"
_symmetry_group_IT_number 119
_symmetry_cell_setting 'tetragonal'
loop_
_space_group_symop_operation_xyz
x,y,z
y,-x,-z
-x,-y,z
-y,x,-z
y,x,-z
-y,-x,-z
-x,y,z
x,-y,z
1/2+x,1/2+y,1/2+z
1/2+y,1/2-x,1/2-z
1/2-x,1/2-y,1/2+z
1/2-y,1/2+x,1/2-z
1/2+y,1/2+x,1/2-z
1/2-y,1/2-x,1/2-z
1/2-x,1/2+y,1/2+z
1/2+x,1/2-y,1/2+z
loop_
_atom_site_type_symbol
_atom_site_label
_atom_site_fract_x
_atom_site_fract_y
_atom_site_fract_z
Si Si1 0.405335 0.863479 0.310441
Si Si2 0.298893 0.901432 0.912723
Si Si3 0.288020 0.098283 0.789313
Si Si4 0.163773 0.900936 0.226118
Si Si5 0.781210 0.253954 0.559075
Si Si6 0.902564 0.601386 0.519429
Si Si7 0.596532 0.282543 0.149634
O O1 0.500000 0.882696 0.334334
O O2 0.401352 0.901352 0.250000
O O3 0.395847 0.759335 0.301499
O O4 0.321430 0.899491 0.340177
O O5 0.323603 0.892149 0.850186
O O6 0.236725 0.820523 0.927215
O O7 0.376820 0.892441 0.955969
O O8 0.263296 0.000000 0.919528
O O9 0.330935 0.169066 0.750000
O O10 0.183427 0.111122 0.792529
O O11 0.306819 0.000000 0.770348
O O12 0.177176 0.890607 0.290888
O O13 0.130582 0.000000 0.216672
O O14 0.788956 0.211044 0.500000
O O15 0.830808 0.344837 0.551733
O O16 0.828909 0.200124 0.606045
O O17 0.899854 0.500000 0.533265
O O18 0.000000 0.635425 0.528676
O O19 0.500000 0.306846 0.130467
#
# Coordination Sequence:
#
# PCOD9559058 Si02
#       7
#    16  16  16  16  16  16  16
#     4   9  16  26  43  69 104 142 172 198 236 299
#     4   9  19  35  54  75 104 144 181 219 271 323
#     4  11  22  36  56  80 108 141 181 230 278 329
#     4   9  18  33  53  76 106 144 178 212 259 317
#     4  10  19  32  51  72  98 133 177 221 262 316
#     4   9  18  33  53  78 108 138 169 213 271 328
#     4  10  19  30  47  72 103 138 174 217 270 322
#
# _framework density 19.185898999999999
#
# number of rings (size 3 to 8) (size 9 to 14) (size 15 to 20)
#    0.000    2.429    0.000    4.714    0.000    2.571 
#    0.000    2.143    0.000    3.000    0.000    5.000 
#    0.000   78.000    0.000    0.000    0.000    0.000 
#
# Total GULP energy -312194.599281 kJ/mol
# GULP energy per Si atom -5574.903559 kJ/mol
# Density = 1.914223 g / cm^3
# Si number density = 19.185899 Si / 1000 Ang^3
#
#
#
# Elastic Constant Matrix: (Units=GPa)
#
#
# Indices 1 2 3 4 5 6 
#
# 1 72.3223 20.7922 9.1134 0.0000 0.0000 0.0000
# 2 20.7922 72.3218 9.1130 0.0000 0.0000 0.0000
# 3 9.1134 9.1130 60.3951 0.0000 0.0000 0.0000
# 4 0.0000 0.0000 0.0000 9.9690 0.0000 0.0000
# 5 0.0000 0.0000 0.0000 0.0000 9.9692 0.0000
# 6 0.0000 0.0000 0.0000 0.0000 0.0000 10.1036
#
#
#
# Elastic Compliance Matrix: (Units=1/GPa)
#
#
# Indices 1 2 3 4 5 6 
#
# 1 0.015236 -0.004170 -0.001670 0.000000 0.000000 0.000000
# 2 -0.004170 0.015236 -0.001670 0.000000 0.000000 0.000000
# 3 -0.001670 -0.001670 0.017062 0.000000 0.000000 0.000000
# 4 0.000000 0.000000 0.000000 0.100311 0.000000 0.000000
# 5 0.000000 0.000000 0.000000 0.000000 0.100309 0.000000
# 6 0.000000 0.000000 0.000000 0.000000 0.000000 0.098974
#
#
# Mechanical properties :
#
#
# Convention : Reuss Voigt Hill
#
# Bulk Modulus (GPa) = 30.75510 31.45294 31.10402
# Shear Modulus (GPa) = 13.40532 17.07640 15.24086
#
# Velocity S-wave (km/s) = 2.64617 2.98661 2.82153
# Velocity P-wave (km/s) = 5.03996 5.32188 5.18284
#
# Compressibility (1/GPa) = 0.03251493
#
# Stress axis : x y z
#
# Youngs Moduli (GPa) = 65.63296 65.63255 58.61122
#
# Poissons Ratio (x) = 0.27368 0.09787
# Poissons Ratio (y) = 0.27369 0.09787
# Poissons Ratio (z) = 0.10960 0.10959
#
# Static dielectric constant tensor:
#      x y z
#    x 1.681500 0.000000 0.000000 
#    y 0.000000 1.681500 0.000000 
#    z 0.000000 0.000000 1.708900 
# 
# From -- ./inp_files/8855.got.cif
#   From: 2010.05.17/outbox.cif.g08.bks.cpg/sg119_5_cif.got.tgz:8855.got - 2010.05.20 11:21:29.
