data_PCOD9559624
_publ_section_title
;
Structure prediction by ZEFSAII (Michael W. Deem and Ramdas Pophale) SiO2 
 PCOD9559624
Probable space group: I -4 C 2
;
_chemical_formula_sum "Si O2"
_cell_formula_units_Z 96
_cell_length_a 22.089093
_cell_length_b 22.089093
_cell_length_c 8.401109
_cell_angle_alpha 90.000000
_cell_angle_beta 90.000000
_cell_angle_gamma 90.000000
_cell_volume 4099.136561
_symmetry_space_group_name_H-M "I -4 C 2"
_symmetry_group_IT_number 120
_symmetry_cell_setting 'tetragonal'
loop_
_space_group_symop_operation_xyz
x,y,z
y,-x,-z
-x,-y,z
-y,x,-z
y,x,1/2-z
-y,-x,1/2-z
-x,y,1/2+z
x,-y,1/2+z
1/2+x,1/2+y,1/2+z
1/2+y,1/2-x,1/2-z
1/2-x,1/2-y,1/2+z
1/2-y,1/2+x,1/2-z
1/2+y,1/2+x,-z
1/2-y,1/2-x,-z
1/2-x,1/2+y,z
1/2+x,1/2-y,z
loop_
_atom_site_type_symbol
_atom_site_label
_atom_site_fract_x
_atom_site_fract_y
_atom_site_fract_z
Si Si1 0.250753 0.388518 0.797233
Si Si2 0.464118 0.130542 0.083099
Si Si3 0.904680 0.858401 0.407628
Si Si4 0.767838 0.027968 0.391246
Si Si5 0.371198 0.300354 0.367885
Si Si6 0.896819 0.378188 0.662760
O O1 0.297693 0.371485 0.660486
O O2 0.265371 0.459421 0.831431
O O3 0.182142 0.384730 0.739623
O O4 0.262165 0.360072 0.971754
O O5 0.462945 0.200835 0.030452
O O6 0.436298 0.130775 0.258614
O O7 0.533355 0.112135 0.113709
O O8 0.420914 0.079086 0.000000
O O9 0.901769 0.901769 0.250000
O O10 0.961526 0.825679 0.492860
O O11 0.865280 0.886792 0.549547
O O12 0.775489 0.075399 0.245205
O O13 0.315138 0.315138 0.250000
O O14 0.865034 0.365034 0.500000
#
# Coordination Sequence:
#
# PCOD9559624 Si02
#       6
#    16  16  16  16  16  16
#     4  10  19  34  56  79 105 140 180 218 259 312
#     4  11  23  37  55  78 105 141 181 223 270 314
#     4   9  18  32  53  79 110 136 167 223 267 305
#     4  10  19  34  56  79 105 140 180 218 259 312
#     4   9  18  32  53  79 110 136 167 223 267 305
#     4  11  23  37  55  78 105 141 181 223 270 314
#
# _framework density 23.419567000000001
#
# number of rings (size 3 to 8) (size 9 to 14) (size 15 to 20)
#    0.000    2.000    0.000    4.000    0.000    7.333 
#    0.000    0.000    0.000   70.000    0.000    0.000 
#    0.000  616.000    0.000    0.000    0.000    0.000 
#
# Total GULP energy -267247.226387 kJ/mol
# GULP energy per Si atom -5567.650550 kJ/mol
# Density = 2.336626 g / cm^3
# Si number density = 23.419567 Si / 1000 Ang^3
#
#
#
# Elastic Constant Matrix: (Units=GPa)
#
#
# Indices 1 2 3 4 5 6 
#
# 1 61.9673 48.5656 -1.1361 0.0000 0.0000 0.0000
# 2 48.5656 61.9674 -1.1359 0.0000 0.0000 0.0000
# 3 -1.1361 -1.1359 75.6612 0.0000 0.0000 0.0000
# 4 0.0000 0.0000 0.0000 29.3558 0.0000 0.0000
# 5 0.0000 0.0000 0.0000 0.0000 29.3557 0.0000
# 6 0.0000 0.0000 0.0000 0.0000 0.0000 48.2705
#
#
#
# Elastic Compliance Matrix: (Units=1/GPa)
#
#
# Indices 1 2 3 4 5 6 
#
# 1 0.041834 -0.032784 0.000136 0.000000 0.000000 0.000000
# 2 -0.032784 0.041834 0.000136 0.000000 0.000000 0.000000
# 3 0.000136 0.000136 0.013221 0.000000 0.000000 0.000000
# 4 0.000000 0.000000 0.000000 0.034065 0.000000 0.000000
# 5 0.000000 0.000000 0.000000 0.000000 0.034065 0.000000
# 6 0.000000 0.000000 0.000000 0.000000 0.000000 0.020717
#
#
# Mechanical properties :
#
#
# Convention : Reuss Voigt Hill
#
# Bulk Modulus (GPa) = 31.38324 32.46479 31.92402
# Shear Modulus (GPa) = 19.12923 31.61654 25.37289
#
# Velocity S-wave (km/s) = 2.86108 3.67823 3.29508
# Velocity P-wave (km/s) = 4.93395 5.65080 5.30450
#
# Compressibility (1/GPa) = 0.03186414
#
# Stress axis : x y z
#
# Youngs Moduli (GPa) = 23.90419 23.90420 75.63781
#
# Poissons Ratio (x) = 0.78367 -0.01028
# Poissons Ratio (y) = 0.78367 -0.01027
# Poissons Ratio (z) = -0.00325 -0.00325
#
# Static dielectric constant tensor:
#      x y z
#    x 1.983950 0.000000 0.000000 
#    y 0.000000 1.983950 0.000000 
#    z 0.000000 0.000000 2.014790 
# 
# From -- ./inp_files/1515.got.cif
#   From: 2010.05.17/outbox.cif.g08.bks.cpg/sg120_1_cif.got.tgz:1515.got - 2010.05.20 11:28:13.
