data_PCOD9559997
_publ_section_title
;
Structure prediction by ZEFSAII (Michael W. Deem and Ramdas Pophale) SiO2 
 PCOD9559997
Probable space group: I -4 C 2
;
_chemical_formula_sum "Si O2"
_cell_formula_units_Z 112
_cell_length_a 15.329628
_cell_length_b 15.329628
_cell_length_c 27.844628
_cell_angle_alpha 90.000000
_cell_angle_beta 90.000000
_cell_angle_gamma 90.000000
_cell_volume 6543.417819
_symmetry_space_group_name_H-M "I -4 C 2"
_symmetry_group_IT_number 120
_symmetry_cell_setting 'tetragonal'
loop_
_space_group_symop_operation_xyz
x,y,z
y,-x,-z
-x,-y,z
-y,x,-z
y,x,1/2-z
-y,-x,1/2-z
-x,y,1/2+z
x,-y,1/2+z
1/2+x,1/2+y,1/2+z
1/2+y,1/2-x,1/2-z
1/2-x,1/2-y,1/2+z
1/2-y,1/2+x,1/2-z
1/2+y,1/2+x,-z
1/2-y,1/2-x,-z
1/2-x,1/2+y,z
1/2+x,1/2-y,z
loop_
_atom_site_type_symbol
_atom_site_label
_atom_site_fract_x
_atom_site_fract_y
_atom_site_fract_z
Si Si1 0.746144 0.490071 0.599406
Si Si2 0.498650 0.352900 0.305480
Si Si3 0.647101 0.498649 0.305479
Si Si4 0.327291 0.316357 0.942548
Si Si5 0.672701 0.683627 0.057447
Si Si6 0.573631 0.073636 0.055868
Si Si7 0.009933 0.246136 0.099406
O O1 0.723583 0.496354 0.655714
O O2 0.723030 0.582452 0.575991
O O3 0.686502 0.412502 0.578346
O O4 0.842797 0.463214 0.583591
O O5 0.583132 0.415280 0.312464
O O6 0.415281 0.416870 0.312464
O O7 0.500000 0.323898 0.250000
O O8 0.723584 0.496358 0.344285
O O9 0.246905 0.253082 0.928138
O O10 0.313496 0.412484 0.921645
O O11 0.328435 0.320380 0.999997
O O12 0.582441 0.723003 0.075987
O O13 0.536775 0.157209 0.083588
O O14 0.500000 0.000000 0.054047
O O15 0.596692 0.096692 0.000000
#
# Coordination Sequence:
#
# PCOD9559997 Si02
#       7
#    16  16  16  16  16  16  16
#     4  12  21  37  62  86 119 154 198 254 298 353
#     4   9  18  35  59  87 117 151 190 238 301 367
#     4   9  18  35  59  87 117 151 190 238 301 367
#     4  11  23  37  55  85 122 157 195 243 300 362
#     4  11  23  37  55  85 122 157 195 243 300 362
#     4  11  24  42  62  83 118 171 211 230 285 376
#     4  12  21  37  62  86 119 154 198 254 298 353
#
# _framework density 17.116437999999999
#
# number of rings (size 3 to 8) (size 9 to 14) (size 15 to 20)
#    0.000    1.286    4.286    4.286    0.000    2.857 
#    0.000    1.429    6.286    3.429    0.000    0.000 
#    0.000    0.000    0.000    0.000    0.000    0.000 
#
# Total GULP energy -312691.761965 kJ/mol
# GULP energy per Si atom -5583.781464 kJ/mol
# Density = 1.707748 g / cm^3
# Si number density = 17.116438 Si / 1000 Ang^3
#
#
#
# Elastic Constant Matrix: (Units=GPa)
#
#
# Indices 1 2 3 4 5 6 
#
# 1 83.3028 2.6026 43.6912 0.0000 0.0000 0.0000
# 2 2.6026 83.3028 43.6912 0.0000 0.0000 0.0000
# 3 43.6912 43.6912 135.5967 0.0000 0.0000 0.0000
# 4 0.0000 0.0000 0.0000 10.5772 0.0000 0.0000
# 5 0.0000 0.0000 0.0000 0.0000 10.5772 0.0000
# 6 0.0000 0.0000 0.0000 0.0000 0.0000 30.7853
#
#
#
# Elastic Compliance Matrix: (Units=1/GPa)
#
#
# Indices 1 2 3 4 5 6 
#
# 1 0.014854 0.002462 -0.005580 0.000000 0.000000 0.000000
# 2 0.002462 0.014854 -0.005580 0.000000 0.000000 0.000000
# 3 -0.005580 -0.005580 0.010970 0.000000 0.000000 0.000000
# 4 0.000000 0.000000 0.000000 0.094543 0.000000 0.000000
# 5 0.000000 0.000000 0.000000 0.000000 0.094543 0.000000
# 6 0.000000 0.000000 0.000000 0.000000 0.000000 0.032483
#
#
# Mechanical properties :
#
#
# Convention : Reuss Voigt Hill
#
# Bulk Modulus (GPa) = 42.94675 53.57471 48.26073
# Shear Modulus (GPa) = 17.39728 24.53579 20.96653
#
# Velocity S-wave (km/s) = 3.19157 3.79022 3.50370
# Velocity P-wave (km/s) = 6.22310 7.10791 6.68017
#
# Compressibility (1/GPa) = 0.02328465
#
# Stress axis : x y z
#
# Youngs Moduli (GPa) = 67.32268 67.32268 91.15434
#
# Poissons Ratio (x) = -0.16577 0.50860
# Poissons Ratio (y) = -0.16577 0.50860
# Poissons Ratio (z) = 0.37563 0.37563
#
# Static dielectric constant tensor:
#      x y z
#    x 1.571340 0.000000 0.000000 
#    y 0.000000 1.571340 0.000000 
#    z 0.000000 0.000000 1.568130 
# 
# From -- ./inp_files/6287.got.cif
#   From: 2010.05.17/outbox.cif.g08.bks.cpg/sg120_4_cif.got.tgz:6287.got - 2010.05.20 11:28:13.
