data_PCOD9559616
_publ_section_title
;
Structure prediction by ZEFSAII (Michael W. Deem and Ramdas Pophale) SiO2 
 PCOD9559616
Probable space group: I -4 C 2
;
_chemical_formula_sum "Si O2"
_cell_formula_units_Z 120
_cell_length_a 27.980033
_cell_length_b 27.980033
_cell_length_c 8.721444
_cell_angle_alpha 90.000000
_cell_angle_beta 90.000000
_cell_angle_gamma 90.000000
_cell_volume 6827.863673
_symmetry_space_group_name_H-M "I -4 C 2"
_symmetry_group_IT_number 120
_symmetry_cell_setting 'tetragonal'
loop_
_space_group_symop_operation_xyz
x,y,z
y,-x,-z
-x,-y,z
-y,x,-z
y,x,1/2-z
-y,-x,1/2-z
-x,y,1/2+z
x,-y,1/2+z
1/2+x,1/2+y,1/2+z
1/2+y,1/2-x,1/2-z
1/2-x,1/2-y,1/2+z
1/2-y,1/2+x,1/2-z
1/2+y,1/2+x,-z
1/2-y,1/2-x,-z
1/2-x,1/2+y,z
1/2+x,1/2-y,z
loop_
_atom_site_type_symbol
_atom_site_label
_atom_site_fract_x
_atom_site_fract_y
_atom_site_fract_z
Si Si1 0.629570 0.946080 0.060853
Si Si2 0.265637 0.054239 0.425251
Si Si3 0.907523 0.831026 0.086642
Si Si4 0.662433 0.591028 0.549657
Si Si5 0.052606 0.626748 0.571059
Si Si6 0.737754 0.051935 0.554785
Si Si7 0.993991 0.896814 0.015153
Si Si8 0.957766 0.042235 0.250000
O O1 0.624803 0.948597 0.244662
O O2 0.683977 0.931597 0.015296
O O3 0.591523 0.908478 0.000000
O O4 0.621037 0.998894 0.992625
O O5 0.222286 0.087755 0.476117
O O6 0.319185 0.069076 0.468908
O O7 0.261744 0.050761 0.240357
O O8 0.257518 0.001895 0.494370
O O9 0.868213 0.863027 0.000697
O O10 0.899646 0.830105 0.269185
O O11 0.958718 0.857446 0.081226
O O12 0.716112 0.580545 0.492764
O O13 0.628294 0.544857 0.519210
O O14 0.087607 0.587607 0.500000
O O15 0.000653 0.943405 0.126227
O O16 0.967132 0.913934 0.862590
#
# Coordination Sequence:
#
# PCOD9559616 Si02
#       8
#    16  16  16  16  16  16  16   8
#     4  10  20  35  56  84 115 145 177 206 247 299
#     4   9  18  32  53  75 101 137 174 217 260 308
#     4  10  19  33  51  72  98 131 174 222 272 319
#     4  10  19  33  51  72  98 131 174 222 272 319
#     4  10  20  35  56  84 115 145 177 206 247 299
#     4   9  18  32  53  75 101 137 174 217 260 308
#     4  12  22  37  50  68  94 132 173 226 278 328
#     4  12  28  37  48  64  96 136 182 220 284 336
#
# _framework density 17.575043000000001
#
# number of rings (size 3 to 8) (size 9 to 14) (size 15 to 20)
#    0.000    1.867    4.000    0.800    0.000    2.667 
#    0.000    1.333    0.000    0.800    0.000    0.000 
#    0.000    0.000    0.000    0.000    0.000    0.800 
#
# Total GULP energy -334032.895242 kJ/mol
# GULP energy per Si atom -5567.214921 kJ/mol
# Density = 1.753504 g / cm^3
# Si number density = 17.575043 Si / 1000 Ang^3
#
#
#
# Elastic Constant Matrix: (Units=GPa)
#
#
# Indices 1 2 3 4 5 6 
#
# 1 124.9669 90.5335 26.0699 0.0000 0.0000 0.0000
# 2 90.5335 124.9660 26.0695 0.0000 0.0000 0.0000
# 3 26.0699 26.0695 32.7519 0.0000 0.0000 0.0000
# 4 0.0000 0.0000 0.0000 17.4076 0.0000 0.0000
# 5 0.0000 0.0000 0.0000 0.0000 17.4078 0.0000
# 6 0.0000 0.0000 0.0000 0.0000 0.0000 20.1343
#
#
#
# Elastic Compliance Matrix: (Units=1/GPa)
#
#
# Indices 1 2 3 4 5 6 
#
# 1 0.017395 -0.011647 -0.004575 0.000000 0.000000 0.000000
# 2 -0.011647 0.017395 -0.004574 0.000000 0.000000 0.000000
# 3 -0.004575 -0.004574 0.037815 0.000000 0.000000 0.000000
# 4 0.000000 0.000000 0.000000 0.057446 0.000000 0.000000
# 5 0.000000 0.000000 0.000000 0.000000 0.057445 0.000000
# 6 0.000000 0.000000 0.000000 0.000000 0.000000 0.049666
#
#
# Mechanical properties :
#
#
# Convention : Reuss Voigt Hill
#
# Bulk Modulus (GPa) = 32.24659 63.11453 47.68056
# Shear Modulus (GPa) = 17.29550 20.32408 18.80979
#
# Velocity S-wave (km/s) = 3.14043 3.40430 3.27503
# Velocity P-wave (km/s) = 5.61583 7.17229 6.44125
#
# Compressibility (1/GPa) = 0.03101103
#
# Stress axis : x y z
#
# Youngs Moduli (GPa) = 57.48927 57.48911 26.44444
#
# Poissons Ratio (x) = 0.66960 0.12098
# Poissons Ratio (y) = 0.66960 0.12097
# Poissons Ratio (z) = 0.26300 0.26298
#
# Static dielectric constant tensor:
#      x y z
#    x 1.616480 0.000000 0.000000 
#    y 0.000000 1.616480 0.000000 
#    z 0.000000 0.000000 1.623010 
# 
# From -- ./inp_files/1732.got.cif
#   From: 2010.05.17/outbox.cif.g08.bks.cpg/sg120_1_cif.got.tgz:1732.got - 2010.05.20 11:28:13.
