data_PCOD9559992
_publ_section_title
;
Structure prediction by ZEFSAII (Michael W. Deem and Ramdas Pophale) SiO2 
 PCOD9559992
Probable space group: I -4 C 2
;
_chemical_formula_sum "Si O2"
_cell_formula_units_Z 56
_cell_length_a 13.444071
_cell_length_b 13.444071
_cell_length_c 14.308883
_cell_angle_alpha 90.000000
_cell_angle_beta 90.000000
_cell_angle_gamma 90.000000
_cell_volume 2586.231085
_symmetry_space_group_name_H-M "I -4 C 2"
_symmetry_group_IT_number 120
_symmetry_cell_setting 'tetragonal'
loop_
_space_group_symop_operation_xyz
x,y,z
y,-x,-z
-x,-y,z
-y,x,-z
y,x,1/2-z
-y,-x,1/2-z
-x,y,1/2+z
x,-y,1/2+z
1/2+x,1/2+y,1/2+z
1/2+y,1/2-x,1/2-z
1/2-x,1/2-y,1/2+z
1/2-y,1/2+x,1/2-z
1/2+y,1/2+x,-z
1/2-y,1/2-x,-z
1/2-x,1/2+y,z
1/2+x,1/2-y,z
loop_
_atom_site_type_symbol
_atom_site_label
_atom_site_fract_x
_atom_site_fract_y
_atom_site_fract_z
Si Si1 0.648157 0.049984 0.724267
Si Si2 0.138211 0.138211 0.250000
Si Si3 0.130320 0.967539 0.944605
Si Si4 0.494778 0.159246 0.982989
O O1 0.546163 0.114370 0.714601
O O2 0.743648 0.115145 0.750547
O O3 0.680753 0.002297 0.626453
O O4 0.081684 0.102864 0.154885
O O5 0.247423 0.973267 0.956962
O O6 0.078405 0.907267 0.029861
O O7 0.572567 0.072567 0.000000
O O8 0.384681 0.115320 0.000000
#
# Coordination Sequence:
#
# PCOD9559992 Si02
#       4
#    16   8  16  16
#     4  11  23  46  74 109 144 189 249 301 359 428
#     4  12  24  49  72 107 144 192 248 296 370 435
#     4  11  25  46  68 103 141 189 234 297 365 434
#     4  11  22  44  73 104 141 185 240 302 356 432
#
# _framework density 21.653130999999998
#
# number of rings (size 3 to 8) (size 9 to 14) (size 15 to 20)
#    0.000    0.857    2.857    6.857    0.000    3.429 
#   15.429    0.000    0.000    0.000    0.000    0.000 
#    0.000    0.000    0.000    0.000    0.000    0.000 
#
# Total GULP energy -156152.290421 kJ/mol
# GULP energy per Si atom -5576.867515 kJ/mol
# Density = 2.160385 g / cm^3
# Si number density = 21.653131 Si / 1000 Ang^3
#
#
#
# Elastic Constant Matrix: (Units=GPa)
#
#
# Indices 1 2 3 4 5 6 
#
# 1 -360.5942 569.0115 44.3655 -0.0001 0.0000 -0.0001
# 2 569.0115 -360.5123 44.3644 0.0001 0.0000 0.0001
# 3 44.3655 44.3644 103.2845 0.0000 0.0000 0.0000
# 4 -0.0001 0.0001 0.0000 34.9793 0.0000 0.0000
# 5 0.0000 0.0000 0.0000 0.0000 34.9796 0.0000
# 6 -0.0001 0.0001 0.0000 0.0000 0.0000 27.6366
#
#
#
# Elastic Compliance Matrix: (Units=1/GPa)
#
#
# Indices 1 2 3 4 5 6 
#
# 1 0.002397 0.003473 -0.002521 0.000000 0.000000 0.000000
# 2 0.003473 0.002398 -0.002522 0.000000 0.000000 0.000000
# 3 -0.002521 -0.002522 0.011848 0.000000 0.000000 0.000000
# 4 0.000000 0.000000 0.000000 0.028588 0.000000 0.000000
# 5 0.000000 0.000000 0.000000 0.000000 0.028588 0.000000
# 6 0.000000 0.000000 0.000000 0.000000 0.000000 0.036184
#
#
# Mechanical properties :
#
#
# Convention : Reuss Voigt Hill
#
# Bulk Modulus (GPa) = 74.05901 77.51787 75.78844
# Shear Modulus (GPa) = 42.50096 -65.51847 -11.50875
#
# Velocity S-wave (km/s) = 4.43517 -5.50671 -2.30794
# Velocity P-wave (km/s) = 7.77845 2.13408 5.28914
#
# Compressibility (1/GPa) = 0.01350275
#
# Stress axis : x y z
#
# Youngs Moduli (GPa) = 417.17616 417.08512 84.40068
#
# Poissons Ratio (x) = -1.44858 0.21281
# Poissons Ratio (y) = -1.44890 0.21283
# Poissons Ratio (z) = 1.05190 1.05177
#
# Static dielectric constant tensor:
#      x y z
#    x 1.796040 0.000000 0.000000 
#    y 0.000000 1.796040 0.000000 
#    z 0.000000 0.000000 6.040050 
# 
# From -- ./inp_files/3241.got.cif
#   From: 2010.05.17/outbox.cif.g08.bks.cpg/sg120_2_cif.got.tgz:3241.got - 2010.05.20 11:28:13.
