data_PCOD9559094
_publ_section_title
;
Structure prediction by ZEFSAII (Michael W. Deem and Ramdas Pophale) SiO2 
 PCOD9559094
Probable space group: I -4 M 2
;
_chemical_formula_sum "Si O2"
_cell_formula_units_Z 64
_cell_length_a 21.542057
_cell_length_b 21.542057
_cell_length_c 6.836580
_cell_angle_alpha 90.000000
_cell_angle_beta 90.000000
_cell_angle_gamma 90.000000
_cell_volume 3172.584817
_symmetry_space_group_name_H-M "I -4 M 2"
_symmetry_group_IT_number 119
_symmetry_cell_setting 'tetragonal'
loop_
_space_group_symop_operation_xyz
x,y,z
y,-x,-z
-x,-y,z
-y,x,-z
y,x,-z
-y,-x,-z
-x,y,z
x,-y,z
1/2+x,1/2+y,1/2+z
1/2+y,1/2-x,1/2-z
1/2-x,1/2-y,1/2+z
1/2-y,1/2+x,1/2-z
1/2+y,1/2+x,1/2-z
1/2-y,1/2-x,1/2-z
1/2-x,1/2+y,1/2+z
1/2+x,1/2-y,1/2+z
loop_
_atom_site_type_symbol
_atom_site_label
_atom_site_fract_x
_atom_site_fract_y
_atom_site_fract_z
Si Si1 0.733737 0.569508 0.921648
Si Si2 0.663068 0.426370 0.560172
Si Si3 0.141338 0.732197 0.193646
Si Si4 0.429476 0.152768 0.385706
O O1 0.725535 0.500000 0.999304
O O2 0.674911 0.586700 0.789593
O O3 0.788535 0.569113 0.761044
O O4 0.753112 0.611872 0.097960
O O5 0.594854 0.405147 0.500000
O O6 0.675758 0.500000 0.527785
O O7 0.709884 0.381846 0.437720
O O8 0.211690 0.711690 0.250000
O O9 0.111848 0.674298 0.070640
O O10 0.500000 0.139404 0.448203
O O11 0.400780 0.099221 0.250000
#
# Coordination Sequence:
#
# PCOD9559094 Si02
#       4
#    16  16  16  16
#     4   9  18  35  59  84 116 155 199 255 308 366
#     4  10  23  42  63  92 125 161 208 259 316 382
#     4  11  20  36  60  88 118 159 206 255 315 378
#     4  10  19  32  51  78 114 157 209 257 311 375
#
# _framework density 20.172825
#
# number of rings (size 3 to 8) (size 9 to 14) (size 15 to 20)
#    0.000    2.000    2.500    3.750    0.000    1.500 
#    4.500    0.000    0.000    0.000    0.000    3.500 
#    0.000    0.000    0.000    0.000    0.000    0.000 
#
# Total GULP energy -178213.980905 kJ/mol
# GULP energy per Si atom -5569.186903 kJ/mol
# Density = 2.012691 g / cm^3
# Si number density = 20.172825 Si / 1000 Ang^3
#
#
#
# Elastic Constant Matrix: (Units=GPa)
#
#
# Indices 1 2 3 4 5 6 
#
# 1 47.3205 40.1099 29.6708 0.0000 0.0000 0.0000
# 2 40.1099 47.3134 29.6699 0.0000 0.0000 0.0000
# 3 29.6708 29.6699 100.6016 0.0000 0.0000 0.0000
# 4 0.0000 0.0000 0.0000 21.8791 0.0000 0.0000
# 5 0.0000 0.0000 0.0000 0.0000 21.8806 0.0000
# 6 0.0000 0.0000 0.0000 0.0000 0.0000 27.9035
#
#
#
# Elastic Compliance Matrix: (Units=1/GPa)
#
#
# Indices 1 2 3 4 5 6 
#
# 1 0.076520 -0.062226 -0.004216 0.000000 0.000000 0.000000
# 2 -0.062226 0.076533 -0.004219 0.000000 0.000000 0.000000
# 3 -0.004216 -0.004219 0.012428 0.000000 0.000000 0.000000
# 4 0.000000 0.000000 0.000000 0.045706 0.000000 0.000000
# 5 0.000000 0.000000 0.000000 0.000000 0.045703 0.000000
# 6 0.000000 0.000000 0.000000 0.000000 0.000000 0.035838
#
#
# Mechanical properties :
#
#
# Convention : Reuss Voigt Hill
#
# Bulk Modulus (GPa) = 41.39259 43.79293 42.59276
# Shear Modulus (GPa) = 11.30956 20.71828 16.01392
#
# Velocity S-wave (km/s) = 2.37034 3.20822 2.82057
# Velocity P-wave (km/s) = 5.29668 5.95647 5.63624
#
# Compressibility (1/GPa) = 0.02415891
#
# Stress axis : x y z
#
# Youngs Moduli (GPa) = 13.06842 13.06620 80.46296
#
# Poissons Ratio (x) = 0.81306 0.33927
# Poissons Ratio (y) = 0.81319 0.33948
# Poissons Ratio (z) = 0.05510 0.05513
#
# Static dielectric constant tensor:
#      x y z
#    x 1.794250 0.000000 0.000000 
#    y 0.000000 1.794260 0.000000 
#    z 0.000000 0.000000 1.711100 
# 
# From -- ./inp_files/759.got.cif
#   From: 2010.05.17/outbox.cif.g08.bks.cpg/sg119_1_cif.got.tgz:759.got - 2010.05.20 11:21:29.
