data_PCOD9559003
_publ_section_title
;
Structure prediction by ZEFSAII (Michael W. Deem and Ramdas Pophale) SiO2 
 PCOD9559003
Probable space group: I -4 M 2
;
_chemical_formula_sum "Si O2"
_cell_formula_units_Z 80
_cell_length_a 13.701757
_cell_length_b 13.701757
_cell_length_c 26.719441
_cell_angle_alpha 90.000000
_cell_angle_beta 90.000000
_cell_angle_gamma 90.000000
_cell_volume 5016.258286
_symmetry_space_group_name_H-M "I -4 M 2"
_symmetry_group_IT_number 119
_symmetry_cell_setting 'tetragonal'
loop_
_space_group_symop_operation_xyz
x,y,z
y,-x,-z
-x,-y,z
-y,x,-z
y,x,-z
-y,-x,-z
-x,y,z
x,-y,z
1/2+x,1/2+y,1/2+z
1/2+y,1/2-x,1/2-z
1/2-x,1/2-y,1/2+z
1/2-y,1/2+x,1/2-z
1/2+y,1/2+x,1/2-z
1/2-y,1/2-x,1/2-z
1/2-x,1/2+y,1/2+z
1/2+x,1/2-y,1/2+z
loop_
_atom_site_type_symbol
_atom_site_label
_atom_site_fract_x
_atom_site_fract_y
_atom_site_fract_z
Si Si1 0.111074 0.616076 0.930762
Si Si2 0.750000 0.760424 0.625000
Si Si3 0.739913 0.883973 0.525986
Si Si4 0.616076 0.611074 0.680762
Si Si5 0.739913 0.383973 0.224014
O O1 0.111466 0.500000 0.923254
O O2 0.187832 0.665211 0.893460
O O3 0.000000 0.651806 0.924981
O O4 0.152152 0.633988 0.986739
O O5 0.723057 0.828781 0.578126
O O6 0.665211 0.687832 0.643460
O O7 0.776943 0.828781 0.671874
O O8 0.834766 0.834766 0.500000
O O9 0.751502 0.000000 0.532631
O O10 0.500000 0.611466 0.673254
O O11 0.651806 0.500000 0.674981
O O12 0.633988 0.652152 0.736739
O O13 0.751502 0.500000 0.217369
O O14 0.834766 0.334766 0.250000
#
# Coordination Sequence:
#
# PCOD9559003 Si02
#       5
#    16  16  16  16  16
#     4   9  18  32  48  67  93 123 154 190 234 282
#     4  10  18  30  50  72  92 120 158 198 234 276
#     4   9  18  31  47  69  96 125 156 192 235 282
#     4   9  18  32  48  67  93 123 154 190 234 282
#     4   9  18  31  47  69  96 125 156 192 235 282
#
# _framework density 15.948142000000001
#
# number of rings (size 3 to 8) (size 9 to 14) (size 15 to 20)
#    0.000    2.800    0.000    1.200    0.000    2.000 
#    0.000    0.000    0.000    7.200    0.000   19.600 
#    0.000    0.000    0.000    0.000    0.000    0.000 
#
# Total GULP energy -222762.588245 kJ/mol
# GULP energy per Si atom -5569.064706 kJ/mol
# Density = 1.591184 g / cm^3
# Si number density = 15.948142 Si / 1000 Ang^3
#
#
#
# Elastic Constant Matrix: (Units=GPa)
#
#
# Indices 1 2 3 4 5 6 
#
# 1 96.6013 42.6919 60.9730 0.0000 0.0000 0.0000
# 2 42.6919 96.6013 60.9730 0.0000 0.0000 0.0000
# 3 60.9730 60.9730 128.4124 0.0000 0.0000 0.0000
# 4 0.0000 0.0000 0.0000 18.0616 0.0000 0.0000
# 5 0.0000 0.0000 0.0000 0.0000 18.0616 0.0000
# 6 0.0000 0.0000 0.0000 0.0000 0.0000 22.5923
#
#
#
# Elastic Compliance Matrix: (Units=1/GPa)
#
#
# Indices 1 2 3 4 5 6 
#
# 1 0.015418 -0.003132 -0.005834 0.000000 0.000000 0.000000
# 2 -0.003132 0.015418 -0.005834 0.000000 0.000000 0.000000
# 3 -0.005834 -0.005834 0.013328 0.000000 0.000000 0.000000
# 4 0.000000 0.000000 0.000000 0.055366 0.000000 0.000000
# 5 0.000000 0.000000 0.000000 0.000000 0.055366 0.000000
# 6 0.000000 0.000000 0.000000 0.000000 0.000000 0.044263
#
#
# Mechanical properties :
#
#
# Convention : Reuss Voigt Hill
#
# Bulk Modulus (GPa) = 68.65815 72.32118 70.48967
# Shear Modulus (GPa) = 21.40298 22.20823 21.80560
#
# Velocity S-wave (km/s) = 3.66735 3.73571 3.70169
# Velocity P-wave (km/s) = 7.81518 8.00334 7.90982
#
# Compressibility (1/GPa) = 0.01456491
#
# Stress axis : x y z
#
# Youngs Moduli (GPa) = 64.85909 64.85909 75.03281
#
# Poissons Ratio (x) = 0.20311 0.43773
# Poissons Ratio (y) = 0.20311 0.43773
# Poissons Ratio (z) = 0.37838 0.37838
#
# Static dielectric constant tensor:
#      x y z
#    x 1.521380 0.000000 0.000000 
#    y 0.000000 1.521380 0.000000 
#    z 0.000000 0.000000 1.526400 
# 
# From -- ./inp_files/8622.got.cif
#   From: 2010.05.17/outbox.cif.g08.bks.cpg/sg119_5_cif.got.tgz:8622.got - 2010.05.20 11:21:29.
