data_PCOD9559780
_publ_section_title
;
Structure prediction by ZEFSAII (Michael W. Deem and Ramdas Pophale) SiO2 
 PCOD9559780
Probable space group: I -4 C 2
;
_chemical_formula_sum "Si O2"
_cell_formula_units_Z 80
_cell_length_a 26.286448
_cell_length_b 26.286448
_cell_length_c 5.050135
_cell_angle_alpha 90.000000
_cell_angle_beta 90.000000
_cell_angle_gamma 90.000000
_cell_volume 3489.528892
_symmetry_space_group_name_H-M "I -4 C 2"
_symmetry_group_IT_number 120
_symmetry_cell_setting 'tetragonal'
loop_
_space_group_symop_operation_xyz
x,y,z
y,-x,-z
-x,-y,z
-y,x,-z
y,x,1/2-z
-y,-x,1/2-z
-x,y,1/2+z
x,-y,1/2+z
1/2+x,1/2+y,1/2+z
1/2+y,1/2-x,1/2-z
1/2-x,1/2-y,1/2+z
1/2-y,1/2+x,1/2-z
1/2+y,1/2+x,-z
1/2-y,1/2-x,-z
1/2-x,1/2+y,z
1/2+x,1/2-y,z
loop_
_atom_site_type_symbol
_atom_site_label
_atom_site_fract_x
_atom_site_fract_y
_atom_site_fract_z
Si Si1 0.396437 0.471038 0.909183
Si Si2 0.759840 0.536292 0.430826
Si Si3 0.122667 0.536912 0.963654
Si Si4 0.811498 0.100071 0.760667
Si Si5 0.738355 0.685334 0.002032
O O1 0.435133 0.435133 0.750000
O O2 0.401905 0.520313 0.720762
O O3 0.341256 0.447875 0.869933
O O4 0.754291 0.508340 0.151339
O O5 0.818207 0.555299 0.462748
O O6 0.718444 0.579692 0.504370
O O7 0.115517 0.495356 0.195702
O O8 0.082825 0.582825 0.000000
O O9 0.856317 0.143684 0.750000
O O10 0.770274 0.126602 0.947341
O O11 0.715529 0.715529 0.750000
O O12 0.706056 0.706056 0.250000
O O13 0.796302 0.703699 0.000000
#
# Coordination Sequence:
#
# PCOD9559780 Si02
#       5
#    16  16  16  16  16
#     4  11  24  40  61  88 118 155 201 254 314 376
#     4  10  22  41  61  84 122 164 199 245 308 370
#     4  10  21  38  62  94 127 162 203 245 297 357
#     4  10  22  39  63  90 118 156 208 257 300 359
#     4   9  19  36  56  82 117 150 185 238 299 351
#
# _framework density 22.925730999999999
#
# number of rings (size 3 to 8) (size 9 to 14) (size 15 to 20)
#    0.000    2.000    0.000    2.400    0.000   10.400 
#    0.000   14.000    0.000    0.000    0.000    0.000 
#    0.000    0.000    0.000    0.000    0.000    0.000 
#
# Total GULP energy -223214.940289 kJ/mol
# GULP energy per Si atom -5580.373507 kJ/mol
# Density = 2.287355 g / cm^3
# Si number density = 22.925731 Si / 1000 Ang^3
#
#
#
# Elastic Constant Matrix: (Units=GPa)
#
#
# Indices 1 2 3 4 5 6 
#
# 1 78.5489 63.1995 3.2143 0.0000 0.0000 0.0000
# 2 63.1995 78.5505 3.2168 0.0000 0.0000 0.0000
# 3 3.2143 3.2168 108.8358 0.0000 0.0000 0.0000
# 4 0.0000 0.0000 0.0000 24.0170 0.0000 0.0000
# 5 0.0000 0.0000 0.0000 0.0000 24.0158 0.0000
# 6 0.0000 0.0000 0.0000 0.0000 0.0000 61.9531
#
#
#
# Elastic Compliance Matrix: (Units=1/GPa)
#
#
# Indices 1 2 3 4 5 6 
#
# 1 0.036105 -0.029041 -0.000208 0.000000 0.000000 0.000000
# 2 -0.029041 0.036105 -0.000209 0.000000 0.000000 0.000000
# 3 -0.000208 -0.000209 0.009200 0.000000 0.000000 0.000000
# 4 0.000000 0.000000 0.000000 0.041637 0.000000 0.000000
# 5 0.000000 0.000000 0.000000 0.000000 0.041639 0.000000
# 6 0.000000 0.000000 0.000000 0.000000 0.000000 0.016141
#
#
# Mechanical properties :
#
#
# Convention : Reuss Voigt Hill
#
# Bulk Modulus (GPa) = 44.45628 45.02182 44.73905
# Shear Modulus (GPa) = 20.22304 35.08416 27.65360
#
# Velocity S-wave (km/s) = 2.97326 3.91620 3.47684
# Velocity P-wave (km/s) = 5.58753 6.33479 5.97286
#
# Compressibility (1/GPa) = 0.02249401
#
# Stress axis : x y z
#
# Youngs Moduli (GPa) = 27.69670 27.69722 108.68993
#
# Poissons Ratio (x) = 0.80435 0.02261
# Poissons Ratio (y) = 0.80434 0.02276
# Poissons Ratio (z) = 0.00576 0.00580
#
# Static dielectric constant tensor:
#      x y z
#    x 1.922840 0.000000 0.000000 
#    y 0.000000 1.922840 0.000000 
#    z 0.000000 0.000000 1.917740 
# 
# From -- ./inp_files/438.got.cif
#   From: 2010.05.17/outbox.cif.g08.bks.cpg/sg120_1_cif.got.tgz:438.got - 2010.05.20 11:28:13.
