data_PCOD9559524
_publ_section_title
;
Structure prediction by ZEFSAII (Michael W. Deem and Ramdas Pophale) SiO2 
 PCOD9559524
Probable space group: I -4 M 2
;
_chemical_formula_sum "Si O2"
_cell_formula_units_Z 40
_cell_length_a 15.231764
_cell_length_b 15.231764
_cell_length_c 7.183366
_cell_angle_alpha 90.000000
_cell_angle_beta 90.000000
_cell_angle_gamma 90.000000
_cell_volume 1666.588570
_symmetry_space_group_name_H-M "I -4 M 2"
_symmetry_group_IT_number 119
_symmetry_cell_setting 'tetragonal'
loop_
_space_group_symop_operation_xyz
x,y,z
y,-x,-z
-x,-y,z
-y,x,-z
y,x,-z
-y,-x,-z
-x,y,z
x,-y,z
1/2+x,1/2+y,1/2+z
1/2+y,1/2-x,1/2-z
1/2-x,1/2-y,1/2+z
1/2-y,1/2+x,1/2-z
1/2+y,1/2+x,1/2-z
1/2-y,1/2-x,1/2-z
1/2-x,1/2+y,1/2+z
1/2+x,1/2-y,1/2+z
loop_
_atom_site_type_symbol
_atom_site_label
_atom_site_fract_x
_atom_site_fract_y
_atom_site_fract_z
Si Si1 0.098790 0.401211 0.750000
Si Si2 0.397305 0.596956 0.777697
Si Si3 0.156294 0.277243 0.074896
O O1 0.106827 0.500000 0.829984
O O2 0.174124 0.390551 0.594461
O O3 0.500000 0.589020 0.738019
O O4 0.357003 0.500000 0.732494
O O5 0.370386 0.683551 0.665095
O O6 0.390005 0.609996 0.000000
O O7 0.158526 0.341475 0.250000
O O8 0.253480 0.253480 0.000000
#
# Coordination Sequence:
#
# PCOD9559524 Si02
#       3
#     8  16  16
#     4  11  28  52  78 110 152 203 258 316 374 449
#     4   9  20  40  69 109 152 194 242 300 374 453
#     4  12  25  46  72 108 149 197 253 308 377 443
#
# _framework density 24.001124000000001
#
# number of rings (size 3 to 8) (size 9 to 14) (size 15 to 20)
#    0.000    1.400    2.000    3.600    0.000    6.400 
#    0.000    4.000    0.000    0.000    0.000    0.000 
#    0.000    0.000    0.000    0.000    0.000    0.000 
#
# Total GULP energy -111569.298712 kJ/mol
# GULP energy per Si atom -5578.464936 kJ/mol
# Density = 2.394650 g / cm^3
# Si number density = 24.001124 Si / 1000 Ang^3
#
#
#
# Elastic Constant Matrix: (Units=GPa)
#
#
# Indices 1 2 3 4 5 6 
#
# 1 120.0412 81.3541 64.0580 0.0000 0.0000 0.0000
# 2 81.3541 120.0392 64.0575 0.0000 0.0000 0.0000
# 3 64.0580 64.0575 155.2466 0.0000 0.0000 0.0000
# 4 0.0000 0.0000 0.0000 22.2346 0.0000 0.0000
# 5 0.0000 0.0000 0.0000 0.0000 22.2364 0.0000
# 6 0.0000 0.0000 0.0000 0.0000 0.0000 41.9074
#
#
#
# Elastic Compliance Matrix: (Units=1/GPa)
#
#
# Indices 1 2 3 4 5 6 
#
# 1 0.016291 -0.009558 -0.002778 0.000000 0.000000 0.000000
# 2 -0.009558 0.016291 -0.002778 0.000000 0.000000 0.000000
# 3 -0.002778 -0.002778 0.008734 0.000000 0.000000 0.000000
# 4 0.000000 0.000000 0.000000 0.044975 0.000000 0.000000
# 5 0.000000 0.000000 0.000000 0.000000 0.044971 0.000000
# 6 0.000000 0.000000 0.000000 0.000000 0.000000 0.023862
#
#
# Mechanical properties :
#
#
# Convention : Reuss Voigt Hill
#
# Bulk Modulus (GPa) = 90.19519 90.47401 90.33460
# Shear Modulus (GPa) = 26.44831 29.66618 28.05724
#
# Velocity S-wave (km/s) = 3.32318 3.51954 3.42277
# Velocity P-wave (km/s) = 7.23781 7.36843 7.30341
#
# Compressibility (1/GPa) = 0.01108707
#
# Stress axis : x y z
#
# Youngs Moduli (GPa) = 61.38478 61.38379 114.49678
#
# Poissons Ratio (x) = 0.58672 0.31807
# Poissons Ratio (y) = 0.58673 0.31807
# Poissons Ratio (z) = 0.17053 0.17052
#
# Static dielectric constant tensor:
#      x y z
#    x 1.988180 0.000000 0.000000 
#    y 0.000000 1.988180 0.000000 
#    z 0.000000 0.000000 1.993910 
# 
# From -- ./inp_files/1575.got.cif
#   From: 2010.05.17/outbox.cif.g08.bks.cpg/sg119_1_cif.got.tgz:1575.got - 2010.05.20 11:21:29.
