data_PCOD9559131
_publ_section_title
;
Structure prediction by ZEFSAII (Michael W. Deem and Ramdas Pophale) SiO2 
 PCOD9559131
Probable space group: I -4 M 2
;
_chemical_formula_sum "Si O2"
_cell_formula_units_Z 80
_cell_length_a 16.774731
_cell_length_b 16.774731
_cell_length_c 15.226041
_cell_angle_alpha 90.000000
_cell_angle_beta 90.000000
_cell_angle_gamma 90.000000
_cell_volume 4284.480041
_symmetry_space_group_name_H-M "I -4 M 2"
_symmetry_group_IT_number 119
_symmetry_cell_setting 'tetragonal'
loop_
_space_group_symop_operation_xyz
x,y,z
y,-x,-z
-x,-y,z
-y,x,-z
y,x,-z
-y,-x,-z
-x,y,z
x,-y,z
1/2+x,1/2+y,1/2+z
1/2+y,1/2-x,1/2-z
1/2-x,1/2-y,1/2+z
1/2-y,1/2+x,1/2-z
1/2+y,1/2+x,1/2-z
1/2-y,1/2-x,1/2-z
1/2-x,1/2+y,1/2+z
1/2+x,1/2-y,1/2+z
loop_
_atom_site_type_symbol
_atom_site_label
_atom_site_fract_x
_atom_site_fract_y
_atom_site_fract_z
Si Si1 0.640413 0.906908 0.650674
Si Si2 0.272702 0.912145 0.972760
Si Si3 0.175267 0.780001 0.865323
Si Si4 0.905875 0.092616 0.735786
Si Si5 0.669626 0.305730 0.896627
O O1 0.623292 0.876709 0.750000
O O2 0.592926 0.857192 0.576916
O O3 0.732114 0.888102 0.627349
O O4 0.622974 0.000000 0.647650
O O5 0.221396 0.845830 0.923673
O O6 0.238913 0.000000 0.960739
O O7 0.267186 0.888269 0.074723
O O8 0.134831 0.838507 0.795019
O O9 0.246746 0.716937 0.848184
O O10 0.882715 0.124218 0.639259
O O11 0.000000 0.093249 0.750835
O O12 0.878377 0.000000 0.749517
O O13 0.688194 0.311807 0.000000
#
# Coordination Sequence:
#
# PCOD9559131 Si02
#       5
#    16  16  16  16  16
#     4  11  22  36  57  86 120 155 191 240 298 352
#     4  10  19  33  56  83 114 151 189 236 290 345
#     4  10  19  39  57  82 112 151 199 239 282 347
#     4  11  24  38  58  89 121 154 193 244 300 349
#     4  11  21  40  60  84 113 157 203 243 285 352
#
# _framework density 18.672042999999999
#
# number of rings (size 3 to 8) (size 9 to 14) (size 15 to 20)
#    0.000    1.400    4.000    5.400    0.000    3.000 
#    0.000    1.000    0.000    4.800    0.000    0.000 
#    0.000    1.600    0.000    0.000    0.000    0.000 
#
# Total GULP energy -222751.732679 kJ/mol
# GULP energy per Si atom -5568.793317 kJ/mol
# Density = 1.862954 g / cm^3
# Si number density = 18.672043 Si / 1000 Ang^3
#
#
#
# Elastic Constant Matrix: (Units=GPa)
#
#
# Indices 1 2 3 4 5 6 
#
# 1 68.7149 43.0258 45.7499 0.0000 0.0000 0.0000
# 2 43.0258 68.7133 45.7497 0.0000 0.0000 0.0000
# 3 45.7499 45.7497 100.8715 0.0000 0.0000 0.0000
# 4 0.0000 0.0000 0.0000 1.8944 0.0000 0.0000
# 5 0.0000 0.0000 0.0000 0.0000 1.8952 0.0000
# 6 0.0000 0.0000 0.0000 0.0000 0.0000 23.3378
#
#
#
# Elastic Compliance Matrix: (Units=1/GPa)
#
#
# Indices 1 2 3 4 5 6 
#
# 1 0.026582 -0.012346 -0.006457 0.000000 0.000000 0.000000
# 2 -0.012346 0.026583 -0.006457 0.000000 0.000000 0.000000
# 3 -0.006457 -0.006457 0.015771 0.000000 0.000000 0.000000
# 4 0.000000 0.000000 0.000000 0.527879 0.000000 0.000000
# 5 0.000000 0.000000 0.000000 0.000000 0.527641 0.000000
# 6 0.000000 0.000000 0.000000 0.000000 0.000000 0.042849
#
#
# Mechanical properties :
#
#
# Convention : Reuss Voigt Hill
#
# Bulk Modulus (GPa) = 54.30014 56.37228 55.33621
# Shear Modulus (GPa) = 4.08509 12.34376 8.21443
#
# Velocity S-wave (km/s) = 1.48073 2.57394 2.09973
# Velocity P-wave (km/s) = 5.66282 6.25219 5.96479
#
# Compressibility (1/GPa) = 0.01841616
#
# Stress axis : x y z
#
# Youngs Moduli (GPa) = 37.61926 37.61816 63.40866
#
# Poissons Ratio (x) = 0.46442 0.40942
# Poissons Ratio (y) = 0.46444 0.40944
# Poissons Ratio (z) = 0.24290 0.24291
#
# Static dielectric constant tensor:
#      x y z
#    x 1.661840 0.000000 0.000000 
#    y 0.000000 1.661840 0.000000 
#    z 0.000000 0.000000 1.698830 
# 
# From -- ./inp_files/5301.got.cif
#   From: 2010.05.17/outbox.cif.g08.bks.cpg/sg119_3_cif.got.tgz:5301.got - 2010.05.20 11:21:29.
