data_PCOD9559463
_publ_section_title
;
Structure prediction by ZEFSAII (Michael W. Deem and Ramdas Pophale) SiO2 
 PCOD9559463
Probable space group: I -4 M 2
;
_chemical_formula_sum "Si O2"
_cell_formula_units_Z 104
_cell_length_a 17.851050
_cell_length_b 17.851050
_cell_length_c 17.735498
_cell_angle_alpha 90.000000
_cell_angle_beta 90.000000
_cell_angle_gamma 90.000000
_cell_volume 5651.593546
_symmetry_space_group_name_H-M "I -4 M 2"
_symmetry_group_IT_number 119
_symmetry_cell_setting 'tetragonal'
loop_
_space_group_symop_operation_xyz
x,y,z
y,-x,-z
-x,-y,z
-y,x,-z
y,x,-z
-y,-x,-z
-x,y,z
x,-y,z
1/2+x,1/2+y,1/2+z
1/2+y,1/2-x,1/2-z
1/2-x,1/2-y,1/2+z
1/2-y,1/2+x,1/2-z
1/2+y,1/2+x,1/2-z
1/2-y,1/2-x,1/2-z
1/2-x,1/2+y,1/2+z
1/2+x,1/2-y,1/2+z
loop_
_atom_site_type_symbol
_atom_site_label
_atom_site_fract_x
_atom_site_fract_y
_atom_site_fract_z
Si Si1 0.083002 0.583002 0.750000
Si Si2 0.193995 0.138183 0.170074
Si Si3 0.000000 0.086566 0.831269
Si Si4 0.652389 0.856472 0.393275
Si Si5 0.316524 0.644455 0.851215
Si Si6 0.589022 0.913956 0.549228
Si Si7 0.815802 0.683595 0.338090
Si Si8 0.914519 0.000000 0.351810
O O1 0.091696 0.500000 0.718181
O O2 0.094731 0.637173 0.680789
O O3 0.132983 0.075350 0.147913
O O4 0.273427 0.124594 0.129660
O O5 0.202801 0.134461 0.261443
O O6 0.176291 0.225406 0.152205
O O7 0.000000 0.083725 0.739844
O O8 0.000000 0.000000 0.858044
O O9 0.741732 0.857584 0.401106
O O10 0.612292 0.888220 0.465834
O O11 0.341717 0.730990 0.855627
O O12 0.371437 0.576738 0.872730
O O13 0.500000 0.909997 0.556676
O O14 0.628163 0.859772 0.608540
O O15 0.612718 0.000000 0.560856
O O16 0.830769 0.669232 0.250000
O O17 0.000000 0.000000 0.379107
#
# Coordination Sequence:
#
# PCOD9559463 Si02
#       8
#     8  16   8  16  16  16  16   8
#     4  11  22  30  48  84 120 158 200 237 284 346
#     4   9  18  33  58  90 118 150 201 241 282 359
#     4   9  18  30  50  86 126 156 189 244 301 345
#     4  11  20  35  58  82 117 161 191 237 294 352
#     4   9  18  33  58  90 118 150 201 241 282 359
#     4  11  26  42  56  84 119 151 198 253 303 357
#     4   9  20  41  63  86 109 148 203 256 305 359
#     4   9  18  30  50  86 126 156 189 244 301 345
#
# _framework density 18.401889000000001
#
# number of rings (size 3 to 8) (size 9 to 14) (size 15 to 20)
#    0.000    2.231    1.538    1.846    4.308    5.538 
#    0.000    3.846    0.000    0.000    0.000    0.000 
#    0.000    0.000    0.000    0.000    0.000    0.000 
#
# Total GULP energy -289954.438528 kJ/mol
# GULP energy per Si atom -5576.046895 kJ/mol
# Density = 1.836001 g / cm^3
# Si number density = 18.401889 Si / 1000 Ang^3
#
#
#
# Elastic Constant Matrix: (Units=GPa)
#
#
# Indices 1 2 3 4 5 6 
#
# 1 93.9137 73.7046 22.3739 0.0000 0.0000 0.0000
# 2 73.7046 93.9136 22.3740 0.0000 0.0000 0.0000
# 3 22.3739 22.3740 31.4779 0.0000 0.0000 0.0000
# 4 0.0000 0.0000 0.0000 28.8510 0.0000 0.0000
# 5 0.0000 0.0000 0.0000 0.0000 28.8510 0.0000
# 6 0.0000 0.0000 0.0000 0.0000 0.0000 34.5398
#
#
#
# Elastic Compliance Matrix: (Units=1/GPa)
#
#
# Indices 1 2 3 4 5 6 
#
# 1 0.028423 -0.021060 -0.005233 0.000000 0.000000 0.000000
# 2 -0.021060 0.028423 -0.005234 0.000000 0.000000 0.000000
# 3 -0.005233 -0.005234 0.039208 0.000000 0.000000 0.000000
# 4 0.000000 0.000000 0.000000 0.034661 0.000000 0.000000
# 5 0.000000 0.000000 0.000000 0.000000 0.034661 0.000000
# 6 0.000000 0.000000 0.000000 0.000000 0.000000 0.028952
#
#
# Mechanical properties :
#
#
# Convention : Reuss Voigt Hill
#
# Bulk Modulus (GPa) = 30.30293 50.69002 40.49647
# Shear Modulus (GPa) = 18.63017 25.17187 21.90102
#
# Velocity S-wave (km/s) = 3.18528 3.70252 3.45360
# Velocity P-wave (km/s) = 5.48006 6.77378 6.16097
#
# Compressibility (1/GPa) = 0.03300011
#
# Stress axis : x y z
#
# Youngs Moduli (GPa) = 35.18288 35.18278 25.50491
#
# Poissons Ratio (x) = 0.74094 0.13348
# Poissons Ratio (y) = 0.74095 0.13348
# Poissons Ratio (z) = 0.18413 0.18413
#
# Static dielectric constant tensor:
#      x y z
#    x 1.643790 0.000000 0.000000 
#    y 0.000000 1.643790 0.000000 
#    z 0.000000 0.000000 1.601730 
# 
# From -- ./inp_files/6762.got.cif
#   From: 2010.05.17/outbox.cif.g08.bks.cpg/sg119_4_cif.got.tgz:6762.got - 2010.05.20 11:21:29.
