data_PCOD9559861
_publ_section_title
;
Structure prediction by ZEFSAII (Michael W. Deem and Ramdas Pophale) SiO2 
 PCOD9559861
Probable space group: I -4 C 2
;
_chemical_formula_sum "Si O2"
_cell_formula_units_Z 96
_cell_length_a 19.184310
_cell_length_b 19.184310
_cell_length_c 13.257758
_cell_angle_alpha 90.000000
_cell_angle_beta 90.000000
_cell_angle_gamma 90.000000
_cell_volume 4879.355427
_symmetry_space_group_name_H-M "I -4 C 2"
_symmetry_group_IT_number 120
_symmetry_cell_setting 'tetragonal'
loop_
_space_group_symop_operation_xyz
x,y,z
y,-x,-z
-x,-y,z
-y,x,-z
y,x,1/2-z
-y,-x,1/2-z
-x,y,1/2+z
x,-y,1/2+z
1/2+x,1/2+y,1/2+z
1/2+y,1/2-x,1/2-z
1/2-x,1/2-y,1/2+z
1/2-y,1/2+x,1/2-z
1/2+y,1/2+x,-z
1/2-y,1/2-x,-z
1/2-x,1/2+y,z
1/2+x,1/2-y,z
loop_
_atom_site_type_symbol
_atom_site_label
_atom_site_fract_x
_atom_site_fract_y
_atom_site_fract_z
Si Si1 0.519771 0.890381 0.723185
Si Si2 0.512313 0.240565 0.356044
Si Si3 0.392777 0.456519 0.620440
Si Si4 0.535473 0.395987 0.621761
Si Si5 0.066927 0.671550 0.054974
Si Si6 0.227832 0.882840 0.272352
O O1 0.576729 0.950842 0.724229
O O2 0.539940 0.821323 0.784492
O O3 0.494174 0.868882 0.613263
O O4 0.548686 0.315068 0.338872
O O5 0.530406 0.219319 0.470349
O O6 0.430320 0.250014 0.324494
O O7 0.387620 0.457091 0.498596
O O8 0.426021 0.531566 0.646251
O O9 0.402347 0.453610 0.853515
O O10 0.573274 0.333947 0.676356
O O11 0.110448 0.712331 0.142225
O O12 0.117917 0.617917 0.000000
O O13 0.192672 0.807329 0.250000
#
# Coordination Sequence:
#
# PCOD9559861 Si02
#       6
#    16  16  16  16  16  16
#     4  10  22  41  67  99 122 153 215 276 332 396
#     4  11  21  36  61  92 122 169 209 256 331 393
#     4   9  17  31  56  86 125 162 205 255 319 371
#     4   9  17  32  54  89 123 161 208 262 304 365
#     4  11  23  43  68  89 132 169 207 271 339 392
#     4  11  22  37  66  91 127 174 217 260 319 389
#
# _framework density 19.67473
#
# number of rings (size 3 to 8) (size 9 to 14) (size 15 to 20)
#    0.000    1.833    5.000    1.000    0.000    1.333 
#    0.000    0.000   11.000    0.000    0.000    0.000 
#    0.000    0.000    0.000    0.000    0.000    0.000 
#
# Total GULP energy -267847.734642 kJ/mol
# GULP energy per Si atom -5580.161138 kJ/mol
# Density = 1.962995 g / cm^3
# Si number density = 19.674730 Si / 1000 Ang^3
#
#
#
# Elastic Constant Matrix: (Units=GPa)
#
#
# Indices 1 2 3 4 5 6 
#
# 1 78.9097 19.0174 34.0774 0.0000 0.0000 0.0000
# 2 19.0174 78.9108 34.0779 0.0000 0.0000 0.0000
# 3 34.0774 34.0779 99.5654 0.0000 0.0000 0.0000
# 4 0.0000 0.0000 0.0000 31.6373 0.0000 0.0000
# 5 0.0000 0.0000 0.0000 0.0000 31.6369 0.0000
# 6 0.0000 0.0000 0.0000 0.0000 0.0000 27.9035
#
#
#
# Elastic Compliance Matrix: (Units=1/GPa)
#
#
# Indices 1 2 3 4 5 6 
#
# 1 0.015051 -0.001646 -0.004588 0.000000 0.000000 0.000000
# 2 -0.001646 0.015051 -0.004588 0.000000 0.000000 0.000000
# 3 -0.004588 -0.004588 0.013184 0.000000 0.000000 0.000000
# 4 0.000000 0.000000 0.000000 0.031608 0.000000 0.000000
# 5 0.000000 0.000000 0.000000 0.000000 0.031609 0.000000
# 6 0.000000 0.000000 0.000000 0.000000 0.000000 0.035838
#
#
# Mechanical properties :
#
#
# Convention : Reuss Voigt Hill
#
# Bulk Modulus (GPa) = 46.20673 47.97014 47.08844
# Shear Modulus (GPa) = 29.20599 29.58307 29.39453
#
# Velocity S-wave (km/s) = 3.85703 3.88184 3.86945
# Velocity P-wave (km/s) = 6.58573 6.67279 6.62940
#
# Compressibility (1/GPa) = 0.02164187
#
# Stress axis : x y z
#
# Youngs Moduli (GPa) = 66.44209 66.44290 75.84820
#
# Poissons Ratio (x) = 0.10936 0.34799
# Poissons Ratio (y) = 0.10936 0.34799
# Poissons Ratio (z) = 0.30483 0.30484
#
# Static dielectric constant tensor:
#      x y z
#    x 1.696880 0.000000 0.000000 
#    y 0.000000 1.696880 0.000000 
#    z 0.000000 0.000000 1.761430 
# 
# From -- ./inp_files/2760.got.cif
#   From: 2010.05.17/outbox.cif.g08.bks.cpg/sg120_2_cif.got.tgz:2760.got - 2010.05.20 11:28:13.
