data_PCOD9559789
_publ_section_title
;
Structure prediction by ZEFSAII (Michael W. Deem and Ramdas Pophale) SiO2 
 PCOD9559789
Probable space group: I -4 C 2
;
_chemical_formula_sum "Si O2"
_cell_formula_units_Z 100
_cell_length_a 14.698560
_cell_length_b 14.698560
_cell_length_c 22.552706
_cell_angle_alpha 90.000000
_cell_angle_beta 90.000000
_cell_angle_gamma 90.000000
_cell_volume 4872.459495
_symmetry_space_group_name_H-M "I -4 C 2"
_symmetry_group_IT_number 120
_symmetry_cell_setting 'tetragonal'
loop_
_space_group_symop_operation_xyz
x,y,z
y,-x,-z
-x,-y,z
-y,x,-z
y,x,1/2-z
-y,-x,1/2-z
-x,y,1/2+z
x,-y,1/2+z
1/2+x,1/2+y,1/2+z
1/2+y,1/2-x,1/2-z
1/2-x,1/2-y,1/2+z
1/2-y,1/2+x,1/2-z
1/2+y,1/2+x,-z
1/2-y,1/2-x,-z
1/2-x,1/2+y,z
1/2+x,1/2-y,z
loop_
_atom_site_type_symbol
_atom_site_label
_atom_site_fract_x
_atom_site_fract_y
_atom_site_fract_z
Si Si1 0.308569 0.971024 0.673619
Si Si2 0.500000 0.000000 0.500000
Si Si3 0.257840 0.321220 0.442700
Si Si4 0.875044 0.080044 0.985977
Si Si5 0.156546 0.610555 0.300228
Si Si6 0.670620 0.333485 0.364635
Si Si7 0.541841 0.871561 0.101713
O O1 0.347876 0.923230 0.732919
O O2 0.213111 0.922371 0.658121
O O3 0.376967 0.939685 0.621442
O O4 0.313779 0.079017 0.685890
O O5 0.499642 0.087230 0.542482
O O6 0.193357 0.306644 0.500000
O O7 0.358502 0.315987 0.469244
O O8 0.231356 0.243304 0.397219
O O9 0.225977 0.413887 0.411956
O O10 0.848622 0.095711 0.917631
O O11 0.976293 0.121034 0.994559
O O12 0.261534 0.634041 0.313607
O O13 0.132933 0.529795 0.345687
#
# Coordination Sequence:
#
# PCOD9559789 Si02
#       7
#    16   4  16  16  16  16  16
#     4  11  23  40  64  89 129 163 218 268 327 393
#     4  12  20  32  54  96 132 160 204 254 348 392
#     4   9  19  37  54  84 127 157 197 256 313 380
#     4  10  21  39  63  87 126 172 213 262 312 384
#     4  12  22  40  64  92 124 170 214 269 331 389
#     4  10  24  39  60  94 122 167 219 263 320 389
#     4  11  21  35  58  91 124 162 201 265 325 399
#
# _framework density 20.523515
#
# number of rings (size 3 to 8) (size 9 to 14) (size 15 to 20)
#    0.000    1.440    4.000    1.440    2.240    0.000 
#    4.320    0.000    0.000    0.000    0.000    4.480 
#    0.000    0.000    0.000    0.000    0.000    0.000 
#
# Total GULP energy -279093.951300 kJ/mol
# GULP energy per Si atom -5581.879026 kJ/mol
# Density = 2.047680 g / cm^3
# Si number density = 20.523515 Si / 1000 Ang^3
#
#
#
# Elastic Constant Matrix: (Units=GPa)
#
#
# Indices 1 2 3 4 5 6 
#
# 1 40.2644 13.1821 5.6953 0.0000 0.0000 0.0000
# 2 13.1821 40.2636 5.6954 0.0000 0.0000 0.0000
# 3 5.6953 5.6954 80.7483 0.0000 0.0000 0.0000
# 4 0.0000 0.0000 0.0000 23.9634 0.0000 0.0000
# 5 0.0000 0.0000 0.0000 0.0000 23.9633 0.0000
# 6 0.0000 0.0000 0.0000 0.0000 0.0000 18.5959
#
#
#
# Elastic Compliance Matrix: (Units=1/GPa)
#
#
# Indices 1 2 3 4 5 6 
#
# 1 0.027960 -0.008965 -0.001340 0.000000 0.000000 0.000000
# 2 -0.008965 0.027961 -0.001340 0.000000 0.000000 0.000000
# 3 -0.001340 -0.001340 0.012573 0.000000 0.000000 0.000000
# 4 0.000000 0.000000 0.000000 0.041730 0.000000 0.000000
# 5 0.000000 0.000000 0.000000 0.000000 0.041731 0.000000
# 6 0.000000 0.000000 0.000000 0.000000 0.000000 0.053775
#
#
# Mechanical properties :
#
#
# Convention : Reuss Voigt Hill
#
# Bulk Modulus (GPa) = 22.12105 23.38023 22.75064
# Shear Modulus (GPa) = 20.48447 22.41809 21.45128
#
# Velocity S-wave (km/s) = 3.16270 3.30860 3.23647
# Velocity P-wave (km/s) = 4.91311 5.10024 5.00755
#
# Compressibility (1/GPa) = 0.04520580
#
# Stress axis : x y z
#
# Youngs Moduli (GPa) = 35.76508 35.76431 79.53452
#
# Poissons Ratio (x) = 0.32061 0.10656
# Poissons Ratio (y) = 0.32062 0.10657
# Poissons Ratio (z) = 0.04792 0.04792
#
# Static dielectric constant tensor:
#      x y z
#    x 1.772350 0.000000 0.000000 
#    y 0.000000 1.772350 0.000000 
#    z 0.000000 0.000000 1.717800 
# 
# From -- ./inp_files/5875.got.cif
#   From: 2010.05.17/outbox.cif.g08.bks.cpg/sg120_3_cif.got.tgz:5875.got - 2010.05.20 11:28:13.
