data_PCOD9559097
_publ_section_title
;
Structure prediction by ZEFSAII (Michael W. Deem and Ramdas Pophale) SiO2 
 PCOD9559097
Probable space group: I -4 M 2
;
_chemical_formula_sum "Si O2"
_cell_formula_units_Z 128
_cell_length_a 21.573675
_cell_length_b 21.573675
_cell_length_c 15.717632
_cell_angle_alpha 90.000000
_cell_angle_beta 90.000000
_cell_angle_gamma 90.000000
_cell_volume 7315.354559
_symmetry_space_group_name_H-M "I -4 M 2"
_symmetry_group_IT_number 119
_symmetry_cell_setting 'tetragonal'
loop_
_space_group_symop_operation_xyz
x,y,z
y,-x,-z
-x,-y,z
-y,x,-z
y,x,-z
-y,-x,-z
-x,y,z
x,-y,z
1/2+x,1/2+y,1/2+z
1/2+y,1/2-x,1/2-z
1/2-x,1/2-y,1/2+z
1/2-y,1/2+x,1/2-z
1/2+y,1/2+x,1/2-z
1/2-y,1/2-x,1/2-z
1/2-x,1/2+y,1/2+z
1/2+x,1/2-y,1/2+z
loop_
_atom_site_type_symbol
_atom_site_label
_atom_site_fract_x
_atom_site_fract_y
_atom_site_fract_z
Si Si1 0.214001 0.929926 0.533447
Si Si2 0.312193 0.804800 0.156685
Si Si3 0.668366 0.368868 0.870281
Si Si4 0.317850 0.273175 0.592595
Si Si5 0.572719 0.074435 0.845849
Si Si6 0.429062 0.360354 0.577170
Si Si7 0.573265 0.431883 0.246902
Si Si8 0.640025 0.839833 0.974522
O O1 0.181257 0.920574 0.442151
O O2 0.182686 0.877252 0.590756
O O3 0.285456 0.910741 0.525437
O O4 0.206958 0.000000 0.563733
O O5 0.329828 0.829828 0.250000
O O6 0.339928 0.735467 0.147900
O O7 0.237338 0.796890 0.152883
O O8 0.335467 0.842707 0.072918
O O9 0.628510 0.397163 0.794839
O O10 0.296312 0.296312 0.500000
O O11 0.385159 0.303339 0.606285
O O12 0.320542 0.199473 0.582404
O O13 0.500000 0.091540 0.853764
O O14 0.594093 0.094093 0.750000
O O15 0.610420 0.102728 0.924527
O O16 0.576460 0.000000 0.846939
O O17 0.395181 0.395181 0.500000
O O18 0.500000 0.341845 0.556274
O O19 0.431576 0.407838 0.655017
O O20 0.500000 0.429083 0.236222
O O21 0.594095 0.500000 0.212132
#
# Coordination Sequence:
#
# PCOD9559097 Si02
#       8
#    16  16  16  16  16  16  16  16
#     4  10  19  32  52  77 106 136 173 220 264 321
#     4  10  19  33  54  77 108 146 184 222 269 325
#     4  10  19  33  51  74 102 137 178 216 263 316
#     4   9  18  33  50  72 103 139 177 225 274 321
#     4   9  19  37  59  83 111 142 176 216 274 346
#     4  10  20  34  52  72  97 133 179 224 269 321
#     4  10  20  33  48  69 100 134 171 217 264 314
#     4  10  19  34  55  80 110 141 179 223 275 325
#
# _framework density 17.497443000000001
#
# number of rings (size 3 to 8) (size 9 to 14) (size 15 to 20)
#    0.000    2.250    1.250    2.625    0.000    1.625 
#    2.250    0.000    0.000    7.500    0.000    0.875 
#    0.000    0.000    0.000    0.000    0.000    0.000 
#
# Total GULP energy -356384.314095 kJ/mol
# GULP energy per Si atom -5568.504908 kJ/mol
# Density = 1.745762 g / cm^3
# Si number density = 17.497443 Si / 1000 Ang^3
#
#
#
# Elastic Constant Matrix: (Units=GPa)
#
#
# Indices 1 2 3 4 5 6 
#
# 1 59.2579 31.8044 25.3137 0.0000 0.0000 0.0000
# 2 31.8044 59.2579 25.3137 0.0000 0.0000 0.0000
# 3 25.3137 25.3137 87.1404 0.0000 0.0000 0.0000
# 4 0.0000 0.0000 0.0000 23.5397 0.0000 0.0000
# 5 0.0000 0.0000 0.0000 0.0000 23.5397 0.0000
# 6 0.0000 0.0000 0.0000 0.0000 0.0000 23.4937
#
#
#
# Elastic Compliance Matrix: (Units=1/GPa)
#
#
# Indices 1 2 3 4 5 6 
#
# 1 0.024761 -0.011664 -0.003804 0.000000 0.000000 0.000000
# 2 -0.011664 0.024761 -0.003804 0.000000 0.000000 0.000000
# 3 -0.003804 -0.003804 0.013686 0.000000 0.000000 0.000000
# 4 0.000000 0.000000 0.000000 0.042481 0.000000 0.000000
# 5 0.000000 0.000000 0.000000 0.000000 0.042481 0.000000
# 6 0.000000 0.000000 0.000000 0.000000 0.000000 0.042565
#
#
# Mechanical properties :
#
#
# Convention : Reuss Voigt Hill
#
# Bulk Modulus (GPa) = 40.54910 41.16884 40.85897
# Shear Modulus (GPa) = 21.05244 22.32960 21.69102
#
# Velocity S-wave (km/s) = 3.47244 3.57622 3.52471
# Velocity P-wave (km/s) = 6.26911 6.37433 6.32194
#
# Compressibility (1/GPa) = 0.02466146
#
# Stress axis : x y z
#
# Youngs Moduli (GPa) = 40.38619 40.38619 73.06693
#
# Poissons Ratio (x) = 0.47108 0.27798
# Poissons Ratio (y) = 0.47108 0.27798
# Poissons Ratio (z) = 0.15365 0.15365
#
# Static dielectric constant tensor:
#      x y z
#    x 1.599750 0.000000 0.000000 
#    y 0.000000 1.599750 0.000000 
#    z 0.000000 0.000000 1.616690 
# 
# From -- ./inp_files/6913.got.cif
#   From: 2010.05.17/outbox.cif.g08.bks.cpg/sg119_4_cif.got.tgz:6913.got - 2010.05.20 11:21:29.
