data_PCOD9559605
_publ_section_title
;
Structure prediction by ZEFSAII (Michael W. Deem and Ramdas Pophale) SiO2 
 PCOD9559605
Probable space group: I -4 C 2
;
_chemical_formula_sum "Si O2"
_cell_formula_units_Z 48
_cell_length_a 12.979907
_cell_length_b 12.979907
_cell_length_c 9.293348
_cell_angle_alpha 90.000000
_cell_angle_beta 90.000000
_cell_angle_gamma 90.000000
_cell_volume 1565.724552
_symmetry_space_group_name_H-M "I -4 C 2"
_symmetry_group_IT_number 120
_symmetry_cell_setting 'tetragonal'
loop_
_space_group_symop_operation_xyz
x,y,z
y,-x,-z
-x,-y,z
-y,x,-z
y,x,1/2-z
-y,-x,1/2-z
-x,y,1/2+z
x,-y,1/2+z
1/2+x,1/2+y,1/2+z
1/2+y,1/2-x,1/2-z
1/2-x,1/2-y,1/2+z
1/2-y,1/2+x,1/2-z
1/2+y,1/2+x,-z
1/2-y,1/2-x,-z
1/2-x,1/2+y,z
1/2+x,1/2-y,z
loop_
_atom_site_type_symbol
_atom_site_label
_atom_site_fract_x
_atom_site_fract_y
_atom_site_fract_z
Si Si1 0.602993 0.320032 0.431652
Si Si2 0.500000 0.500000 0.750000
Si Si3 0.334251 0.165750 0.500000
Si Si4 0.500000 0.000000 0.750000
Si Si5 0.398283 0.818429 0.684893
O O1 0.525225 0.401156 0.358066
O O2 0.721596 0.355846 0.427958
O O3 0.400639 0.187765 0.355947
O O4 0.624211 0.206667 0.362424
O O5 0.286394 0.413939 0.401579
O O6 0.486197 0.900975 0.649919
#
# Coordination Sequence:
#
# PCOD9559605 Si02
#       5
#    16   4   8   4  16
#     4  10  21  43  83 127 180 241 311 381 483 592
#     4  12  20  44  94 134 184 274 308 380 510 616
#     4  10  18  43  78 125 182 254 304 390 470 592
#     4  12  28  50  92 134 172 238 324 398 468 566
#     4  10  23  44  81 129 181 233 322 402 465 583
#
# _framework density 30.656735999999999
#
# number of rings (size 3 to 8) (size 9 to 14) (size 15 to 20)
#    0.000    2.000    3.333    3.000    0.000    8.667 
#    0.000    3.333   29.333   10.000    0.000    0.000 
#    0.000    0.000    0.000    0.000    0.000    0.000 
#
# Total GULP energy -134001.339193 kJ/mol
# GULP energy per Si atom -5583.389133 kJ/mol
# Density = 3.058696 g / cm^3
# Si number density = 30.656736 Si / 1000 Ang^3
#
#
#
# Elastic Constant Matrix: (Units=GPa)
#
#
# Indices 1 2 3 4 5 6 
#
# 1 192.9078 49.8990 63.6116 0.0000 0.0000 0.0000
# 2 49.8990 192.9081 63.6113 0.0000 0.0000 0.0000
# 3 63.6116 63.6113 234.5602 0.0000 0.0000 0.0000
# 4 0.0000 0.0000 0.0000 34.0804 0.0000 0.0000
# 5 0.0000 0.0000 0.0000 0.0000 34.0799 0.0000
# 6 0.0000 0.0000 0.0000 0.0000 0.0000 64.7991
#
#
#
# Elastic Compliance Matrix: (Units=1/GPa)
#
#
# Indices 1 2 3 4 5 6 
#
# 1 0.005897 -0.001096 -0.001302 0.000000 0.000000 0.000000
# 2 -0.001096 0.005897 -0.001302 0.000000 0.000000 0.000000
# 3 -0.001302 -0.001302 0.004969 0.000000 0.000000 0.000000
# 4 0.000000 0.000000 0.000000 0.029342 0.000000 0.000000
# 5 0.000000 0.000000 0.000000 0.000000 0.029343 0.000000
# 6 0.000000 0.000000 0.000000 0.000000 0.000000 0.015432
#
#
# Mechanical properties :
#
#
# Convention : Reuss Voigt Hill
#
# Bulk Modulus (GPa) = 106.80216 108.29111 107.54663
# Shear Modulus (GPa) = 49.30929 56.14216 52.72572
#
# Velocity S-wave (km/s) = 4.01488 4.28403 4.15164
# Velocity P-wave (km/s) = 7.51039 7.73763 7.62486
#
# Compressibility (1/GPa) = 0.00936311
#
# Stress axis : x y z
#
# Youngs Moduli (GPa) = 169.58864 169.58908 201.22982
#
# Poissons Ratio (x) = 0.18586 0.26198
# Poissons Ratio (y) = 0.18586 0.26198
# Poissons Ratio (z) = 0.22079 0.22079
#
# Static dielectric constant tensor:
#      x y z
#    x 2.662550 0.000000 0.000000 
#    y 0.000000 2.662520 0.000000 
#    z 0.000000 0.000000 2.550330 
# 
# From -- ./inp_files/3189.got.cif
#   From: 2010.05.17/outbox.cif.g08.bks.cpg/sg120_2_cif.got.tgz:3189.got - 2010.05.20 11:28:13.
