data_PCOD9559830
_publ_section_title
;
Structure prediction by ZEFSAII (Michael W. Deem and Ramdas Pophale) SiO2 
 PCOD9559830
Probable space group: I -4 C 2
;
_chemical_formula_sum "Si O2"
_cell_formula_units_Z 64
_cell_length_a 18.736091
_cell_length_b 18.736091
_cell_length_c 8.884946
_cell_angle_alpha 90.000000
_cell_angle_beta 90.000000
_cell_angle_gamma 90.000000
_cell_volume 3118.981270
_symmetry_space_group_name_H-M "I -4 C 2"
_symmetry_group_IT_number 120
_symmetry_cell_setting 'tetragonal'
loop_
_space_group_symop_operation_xyz
x,y,z
y,-x,-z
-x,-y,z
-y,x,-z
y,x,1/2-z
-y,-x,1/2-z
-x,y,1/2+z
x,-y,1/2+z
1/2+x,1/2+y,1/2+z
1/2+y,1/2-x,1/2-z
1/2-x,1/2-y,1/2+z
1/2-y,1/2+x,1/2-z
1/2+y,1/2+x,-z
1/2-y,1/2-x,-z
1/2-x,1/2+y,z
1/2+x,1/2-y,z
loop_
_atom_site_type_symbol
_atom_site_label
_atom_site_fract_x
_atom_site_fract_y
_atom_site_fract_z
Si Si1 0.852905 0.852905 0.250000
Si Si2 0.600884 0.251789 0.009236
Si Si3 0.000000 0.500000 0.250000
Si Si4 0.169539 0.169539 0.750000
Si Si5 0.000000 0.000000 0.000000
Si Si6 0.651390 0.540271 0.471319
Si Si7 0.085646 0.585646 0.500000
O O1 0.779067 0.861697 0.338711
O O2 0.855914 0.915993 0.126946
O O3 0.656483 0.269665 0.874919
O O4 0.529695 0.301284 0.001082
O O5 0.576439 0.170699 0.008367
O O6 0.046650 0.551427 0.356266
O O7 0.097212 0.176824 0.651170
O O8 0.016715 0.926793 0.084086
#
# Coordination Sequence:
#
# PCOD9559830 Si02
#       7
#     8  16   4   8   4  16   8
#     4  10  22  38  56  98 140 178 232 254 322 420
#     4  11  24  41  66  98 139 191 222 283 338 403
#     4  10  28  58  76 114 112 154 240 314 384 434
#     4  10  22  38  56  98 140 178 232 254 322 420
#     4  12  20  30  56  90 144 182 224 266 284 390
#     4  11  22  33  58  95 142 191 232 262 322 380
#     4  11  28  52  82  98 130 164 232 311 374 422
#
# _framework density 20.51952
#
# number of rings (size 3 to 8) (size 9 to 14) (size 15 to 20)
#    0.000    1.250    5.000    1.500    7.000    2.000 
#    0.000    0.000    0.000    0.000    0.000    0.000 
#    0.000    0.000    0.000    0.000    0.000    0.000 
#
# Total GULP energy -178637.802252 kJ/mol
# GULP energy per Si atom -5582.431320 kJ/mol
# Density = 2.047282 g / cm^3
# Si number density = 20.519520 Si / 1000 Ang^3
#
#
#
# Elastic Constant Matrix: (Units=GPa)
#
#
# Indices 1 2 3 4 5 6 
#
# 1 136.9488 45.9714 54.2067 0.0000 0.0000 0.0000
# 2 45.9714 136.9488 54.2067 0.0000 0.0000 0.0000
# 3 54.2067 54.2067 147.0603 0.0000 0.0000 0.0000
# 4 0.0000 0.0000 0.0000 10.7125 0.0000 0.0000
# 5 0.0000 0.0000 0.0000 0.0000 10.7125 0.0000
# 6 0.0000 0.0000 0.0000 0.0000 0.0000 31.6758
#
#
#
# Elastic Compliance Matrix: (Units=1/GPa)
#
#
# Indices 1 2 3 4 5 6 
#
# 1 0.008993 -0.001998 -0.002578 0.000000 0.000000 0.000000
# 2 -0.001998 0.008993 -0.002578 0.000000 0.000000 0.000000
# 3 -0.002578 -0.002578 0.008701 0.000000 0.000000 0.000000
# 4 0.000000 0.000000 0.000000 0.093349 0.000000 0.000000
# 5 0.000000 0.000000 0.000000 0.000000 0.093349 0.000000
# 6 0.000000 0.000000 0.000000 0.000000 0.000000 0.031570
#
#
# Mechanical properties :
#
#
# Convention : Reuss Voigt Hill
#
# Bulk Modulus (GPa) = 80.79339 81.08084 80.93712
# Shear Modulus (GPa) = 18.98314 28.39168 23.68741
#
# Velocity S-wave (km/s) = 3.04489 3.72377 3.40131
# Velocity P-wave (km/s) = 7.19869 7.62158 7.41315
#
# Compressibility (1/GPa) = 0.01237725
#
# Stress axis : x y z
#
# Youngs Moduli (GPa) = 111.19289 111.19289 114.93296
#
# Poissons Ratio (x) = 0.22220 0.29634
# Poissons Ratio (y) = 0.22220 0.29634
# Poissons Ratio (z) = 0.28670 0.28670
#
# Static dielectric constant tensor:
#      x y z
#    x 1.737630 0.000000 0.000000 
#    y 0.000000 1.737630 0.000000 
#    z 0.000000 0.000000 1.754140 
# 
# From -- ./inp_files/1315.got.cif
#   From: 2010.05.17/outbox.cif.g08.bks.cpg/sg120_1_cif.got.tgz:1315.got - 2010.05.20 11:28:13.
