data_PCOD9559315
_publ_section_title
;
Structure prediction by ZEFSAII (Michael W. Deem and Ramdas Pophale) SiO2 
 PCOD9559315
Probable space group: I -4 M 2
;
_chemical_formula_sum "Si O2"
_cell_formula_units_Z 56
_cell_length_a 15.492875
_cell_length_b 15.492875
_cell_length_c 11.621214
_cell_angle_alpha 90.000000
_cell_angle_beta 90.000000
_cell_angle_gamma 90.000000
_cell_volume 2789.430418
_symmetry_space_group_name_H-M "I -4 M 2"
_symmetry_group_IT_number 119
_symmetry_cell_setting 'tetragonal'
loop_
_space_group_symop_operation_xyz
x,y,z
y,-x,-z
-x,-y,z
-y,x,-z
y,x,-z
-y,-x,-z
-x,y,z
x,-y,z
1/2+x,1/2+y,1/2+z
1/2+y,1/2-x,1/2-z
1/2-x,1/2-y,1/2+z
1/2-y,1/2+x,1/2-z
1/2+y,1/2+x,1/2-z
1/2-y,1/2-x,1/2-z
1/2-x,1/2+y,1/2+z
1/2+x,1/2-y,1/2+z
loop_
_atom_site_type_symbol
_atom_site_label
_atom_site_fract_x
_atom_site_fract_y
_atom_site_fract_z
Si Si1 0.823049 0.500000 0.419375
Si Si2 0.901762 0.000000 0.249355
Si Si3 0.906064 0.500000 0.662222
Si Si4 0.153833 0.653833 0.250000
Si Si5 0.897887 0.177392 0.388206
Si Si6 0.000000 0.857039 0.987921
O O1 0.844135 0.500000 0.555105
O O2 0.856144 0.416984 0.350619
O O3 0.718851 0.500000 0.420403
O O4 0.895089 0.085943 0.323081
O O5 0.833416 0.000000 0.146937
O O6 0.000000 0.000000 0.199795
O O7 0.917703 0.417703 0.750000
O O8 0.000000 0.500000 0.601630
O O9 0.138343 0.746290 0.309081
O O10 0.839210 0.160791 0.500000
O O11 0.000000 0.194508 0.415301
O O12 0.914798 0.914798 0.000000
#
# Coordination Sequence:
#
# PCOD9559315 Si02
#       6
#     8   8   8   8  16   8
#     4  12  25  45  70  96 150 195 237 301 363 447
#     4  10  20  39  74  97 137 183 237 295 370 420
#     4   6  18  41  66  91 123 172 249 283 336 422
#     4  12  28  41  72 114 152 187 256 292 386 444
#     4  11  23  46  71 110 143 193 246 305 362 446
#     4  11  22  40  67  97 133 179 229 288 358 426
#
# _framework density 20.075783999999999
#
# number of rings (size 3 to 8) (size 9 to 14) (size 15 to 20)
#    0.857    0.714    4.286    1.714    2.000    3.429 
#    5.143    0.000    3.143    0.000    0.000    0.000 
#    0.000    0.000    0.000    0.000    0.000    0.000 
#
# Total GULP energy -155968.733608 kJ/mol
# GULP energy per Si atom -5570.311915 kJ/mol
# Density = 2.003009 g / cm^3
# Si number density = 20.075784 Si / 1000 Ang^3
#
#
#
# Elastic Constant Matrix: (Units=GPa)
#
#
# Indices 1 2 3 4 5 6 
#
# 1 96.4787 43.1687 46.0764 0.0000 0.0000 0.0000
# 2 43.1687 96.4778 46.0763 0.0000 0.0000 0.0000
# 3 46.0764 46.0763 130.5120 0.0000 0.0000 0.0000
# 4 0.0000 0.0000 0.0000 36.6436 0.0000 0.0000
# 5 0.0000 0.0000 0.0000 0.0000 36.6446 0.0000
# 6 0.0000 0.0000 0.0000 0.0000 0.0000 16.7289
#
#
#
# Elastic Compliance Matrix: (Units=1/GPa)
#
#
# Indices 1 2 3 4 5 6 
#
# 1 0.014047 -0.004711 -0.003296 0.000000 0.000000 0.000000
# 2 -0.004711 0.014047 -0.003296 0.000000 0.000000 0.000000
# 3 -0.003296 -0.003296 0.009989 0.000000 0.000000 0.000000
# 4 0.000000 0.000000 0.000000 0.027290 0.000000 0.000000
# 5 0.000000 0.000000 0.000000 0.000000 0.027289 0.000000
# 6 0.000000 0.000000 0.000000 0.000000 0.000000 0.059777
#
#
# Mechanical properties :
#
#
# Convention : Reuss Voigt Hill
#
# Bulk Modulus (GPa) = 64.61075 66.01236 65.31156
# Shear Modulus (GPa) = 27.74617 30.54656 29.14636
#
# Velocity S-wave (km/s) = 3.72166 3.90495 3.81441
# Velocity P-wave (km/s) = 7.12186 7.29962 7.21129
#
# Compressibility (1/GPa) = 0.01547730
#
# Stress axis : x y z
#
# Youngs Moduli (GPa) = 71.18923 71.18846 100.10627
#
# Poissons Ratio (x) = 0.33538 0.32995
# Poissons Ratio (y) = 0.33539 0.32995
# Poissons Ratio (z) = 0.23464 0.23464
#
# Static dielectric constant tensor:
#      x y z
#    x 1.710170 0.000000 0.000000 
#    y 0.000000 1.710170 0.000000 
#    z 0.000000 0.000000 1.776090 
# 
# From -- ./inp_files/3572.got.cif
#   From: 2010.05.17/outbox.cif.g08.bks.cpg/sg119_2_cif.got.tgz:3572.got - 2010.05.20 11:21:29.
