data_PCOD9559821
_publ_section_title
;
Structure prediction by ZEFSAII (Michael W. Deem and Ramdas Pophale) SiO2 
 PCOD9559821
Probable space group: I -4 C 2
;
_chemical_formula_sum "Si O2"
_cell_formula_units_Z 100
_cell_length_a 14.068219
_cell_length_b 14.068219
_cell_length_c 25.262625
_cell_angle_alpha 90.000000
_cell_angle_beta 90.000000
_cell_angle_gamma 90.000000
_cell_volume 4999.847016
_symmetry_space_group_name_H-M "I -4 C 2"
_symmetry_group_IT_number 120
_symmetry_cell_setting 'tetragonal'
loop_
_space_group_symop_operation_xyz
x,y,z
y,-x,-z
-x,-y,z
-y,x,-z
y,x,1/2-z
-y,-x,1/2-z
-x,y,1/2+z
x,-y,1/2+z
1/2+x,1/2+y,1/2+z
1/2+y,1/2-x,1/2-z
1/2-x,1/2-y,1/2+z
1/2-y,1/2+x,1/2-z
1/2+y,1/2+x,-z
1/2-y,1/2-x,-z
1/2-x,1/2+y,z
1/2+x,1/2-y,z
loop_
_atom_site_type_symbol
_atom_site_label
_atom_site_fract_x
_atom_site_fract_y
_atom_site_fract_z
Si Si1 0.479294 0.226511 0.745129
Si Si2 0.711844 0.195913 0.831595
Si Si3 0.930052 0.681874 0.929453
Si Si4 0.769803 0.372972 0.097331
Si Si5 0.646081 0.646081 0.250000
Si Si6 0.761459 0.738542 0.000000
Si Si7 0.500000 0.000000 0.500000
Si Si8 0.581753 0.077718 0.670409
O O1 0.381118 0.226363 0.714029
O O2 0.536363 0.324562 0.745275
O O3 0.543620 0.153373 0.711809
O O4 0.467672 0.174424 0.801334
O O5 0.637654 0.162679 0.877899
O O6 0.812278 0.212411 0.860013
O O7 0.679867 0.291851 0.801183
O O8 0.862140 0.736813 0.970034
O O9 0.978815 0.590896 0.960041
O O10 0.016263 0.747875 0.910767
O O11 0.752424 0.319640 0.042890
O O12 0.879068 0.371337 0.118347
O O13 0.500000 0.000000 0.662022
#
# Coordination Sequence:
#
# PCOD9559821 Si02
#       8
#    16  16  16  16   8   8   4  16
#     4  12  21  37  60  96 135 175 218 261 327 398
#     4  11  23  39  62  95 135 176 217 265 334 400
#     4  10  22  39  65  93 125 165 220 276 344 391
#     4  11  22  40  64  92 132 173 211 277 336 396
#     4  12  22  38  60  94 134 184 208 272 328 398
#     4   9  23  45  59  92 134 170 210 280 347 405
#     4  10  22  36  60 100 126 144 210 302 342 376
#     4  12  21  36  65 101 131 165 217 281 331 385
#
# _framework density 20.000613000000001
#
# number of rings (size 3 to 8) (size 9 to 14) (size 15 to 20)
#    0.000    0.960    4.800    2.400    3.360    0.000 
#    2.880    0.000    0.000   16.320    0.000    0.000 
#    0.000    0.000    0.000    0.000    0.000    0.000 
#
# Total GULP energy -278891.092367 kJ/mol
# GULP energy per Si atom -5577.821847 kJ/mol
# Density = 1.995509 g / cm^3
# Si number density = 20.000613 Si / 1000 Ang^3
#
#
#
# Elastic Constant Matrix: (Units=GPa)
#
#
# Indices 1 2 3 4 5 6 
#
# 1 -40.6272 178.3539 41.8708 0.0000 0.0000 0.0000
# 2 178.3539 -40.6200 41.8670 0.0000 0.0000 0.0000
# 3 41.8708 41.8670 109.1980 0.0000 0.0000 0.0000
# 4 0.0000 0.0000 0.0000 35.5026 0.0000 0.0000
# 5 0.0000 0.0000 0.0000 0.0000 35.5021 0.0000
# 6 0.0000 0.0000 0.0000 0.0000 0.0000 41.8224
#
#
#
# Elastic Compliance Matrix: (Units=1/GPa)
#
#
# Indices 1 2 3 4 5 6 
#
# 1 0.002450 0.007017 -0.003630 0.000000 0.000000 0.000000
# 2 0.007017 0.002451 -0.003630 0.000000 0.000000 0.000000
# 3 -0.003630 -0.003630 0.011941 0.000000 0.000000 0.000000
# 4 0.000000 0.000000 0.000000 0.028167 0.000000 0.000000
# 5 0.000000 0.000000 0.000000 0.000000 0.028167 0.000000
# 6 0.000000 0.000000 0.000000 0.000000 0.000000 0.023911
#
#
# Mechanical properties :
#
#
# Convention : Reuss Voigt Hill
#
# Bulk Modulus (GPa) = 61.13872 61.34824 61.24348
# Shear Modulus (GPa) = 48.53175 6.95604 27.74389
#
# Velocity S-wave (km/s) = 4.93131 1.86694 3.72849
# Velocity P-wave (km/s) = 7.94094 5.94870 7.01590
#
# Compressibility (1/GPa) = 0.01635625
#
# Stress axis : x y z
#
# Youngs Moduli (GPa) = 408.12236 408.04978 83.74232
#
# Poissons Ratio (x) = -2.86334 0.30398
# Poissons Ratio (y) = -2.86385 0.30401
# Poissons Ratio (z) = 1.48145 1.48132
#
# Static dielectric constant tensor:
#      x y z
#    x 1.732000 0.000000 0.000000 
#    y 0.000000 1.732000 0.000000 
#    z 0.000000 0.000000 2.199200 
# 
# From -- ./inp_files/5899.got.cif
#   From: 2010.05.17/outbox.cif.g08.bks.cpg/sg120_3_cif.got.tgz:5899.got - 2010.05.20 11:28:13.
