data_PCOD9559664
_publ_section_title
;
Structure prediction by ZEFSAII (Michael W. Deem and Ramdas Pophale) SiO2 
 PCOD9559664
Probable space group: I -4 C 2
;
_chemical_formula_sum "Si O2"
_cell_formula_units_Z 108
_cell_length_a 13.809778
_cell_length_b 13.809778
_cell_length_c 29.142110
_cell_angle_alpha 90.000000
_cell_angle_beta 90.000000
_cell_angle_gamma 90.000000
_cell_volume 5557.690877
_symmetry_space_group_name_H-M "I -4 C 2"
_symmetry_group_IT_number 120
_symmetry_cell_setting 'tetragonal'
loop_
_space_group_symop_operation_xyz
x,y,z
y,-x,-z
-x,-y,z
-y,x,-z
y,x,1/2-z
-y,-x,1/2-z
-x,y,1/2+z
x,-y,1/2+z
1/2+x,1/2+y,1/2+z
1/2+y,1/2-x,1/2-z
1/2-x,1/2-y,1/2+z
1/2-y,1/2+x,1/2-z
1/2+y,1/2+x,-z
1/2-y,1/2-x,-z
1/2-x,1/2+y,z
1/2+x,1/2-y,z
loop_
_atom_site_type_symbol
_atom_site_label
_atom_site_fract_x
_atom_site_fract_y
_atom_site_fract_z
Si Si1 0.526155 0.858681 0.677349
Si Si2 0.191463 0.156993 0.125236
Si Si3 0.466699 0.604844 0.830846
Si Si4 0.000000 0.500000 0.905435
Si Si5 0.689355 0.757494 0.298416
Si Si6 0.641394 0.148521 0.553491
Si Si7 0.000000 0.500000 0.750000
Si Si8 0.200795 0.973831 0.386403
O O1 0.538027 0.919010 0.630219
O O2 0.632003 0.847341 0.698426
O O3 0.465754 0.917766 0.714746
O O4 0.474310 0.760785 0.661841
O O5 0.242086 0.234769 0.159009
O O6 0.262965 0.137370 0.083756
O O7 0.088676 0.193430 0.105362
O O8 0.163095 0.062036 0.154237
O O9 0.500000 0.500000 0.809994
O O10 0.396493 0.678911 0.804141
O O11 0.402605 0.572456 0.875106
O O12 0.947363 0.421264 0.936272
O O13 0.739926 0.739926 0.250000
O O14 0.660266 0.160266 0.500000
O O15 0.582069 0.238749 0.575294
#
# Coordination Sequence:
#
# PCOD9559664 Si02
#       8
#    16  16  16   8  16  16   4  16
#     4   9  20  34  56  86 119 165 198 258 303 358
#     4  10  22  43  63  89 127 171 204 256 319 378
#     4  10  21  41  66  85 122 173 205 257 317 370
#     4   9  19  37  59  84 122 160 205 249 309 375
#     4  11  23  37  59  90 125 162 211 259 304 368
#     4  11  21  39  65  94 123 159 206 266 318 377
#     4  10  20  32  58  88 118 152 214 244 308 366
#     4   9  20  41  62  85 128 161 208 253 310 377
#
# _framework density 19.432531999999998
#
# number of rings (size 3 to 8) (size 9 to 14) (size 15 to 20)
#    0.000    2.074    1.481    1.111    2.074    2.667 
#    8.000    0.000    0.000    0.000    0.000    0.000 
#    0.000    0.000    0.000    0.000    0.000    0.000 
#
# Total GULP energy -301188.450579 kJ/mol
# GULP energy per Si atom -5577.563900 kJ/mol
# Density = 1.938830 g / cm^3
# Si number density = 19.432532 Si / 1000 Ang^3
#
#
#
# Elastic Constant Matrix: (Units=GPa)
#
#
# Indices 1 2 3 4 5 6 
#
# 1 66.9538 18.0774 12.7889 0.0000 0.0000 0.0000
# 2 18.0774 66.9538 12.7889 0.0000 0.0000 0.0000
# 3 12.7889 12.7889 78.5027 0.0000 0.0000 0.0000
# 4 0.0000 0.0000 0.0000 13.1958 0.0000 0.0000
# 5 0.0000 0.0000 0.0000 0.0000 13.1958 0.0000
# 6 0.0000 0.0000 0.0000 0.0000 0.0000 34.1423
#
#
#
# Elastic Compliance Matrix: (Units=1/GPa)
#
#
# Indices 1 2 3 4 5 6 
#
# 1 0.016413 -0.004047 -0.002015 0.000000 0.000000 0.000000
# 2 -0.004047 0.016413 -0.002015 0.000000 0.000000 0.000000
# 3 -0.002015 -0.002015 0.013395 0.000000 0.000000 0.000000
# 4 0.000000 0.000000 0.000000 0.075782 0.000000 0.000000
# 5 0.000000 0.000000 0.000000 0.000000 0.075782 0.000000
# 6 0.000000 0.000000 0.000000 0.000000 0.000000 0.029289
#
#
# Mechanical properties :
#
#
# Convention : Reuss Voigt Hill
#
# Bulk Modulus (GPa) = 33.25669 33.30232 33.27951
# Shear Modulus (GPa) = 19.74347 23.35712 21.55030
#
# Velocity S-wave (km/s) = 3.19094 3.47069 3.33375
# Velocity P-wave (km/s) = 5.54321 5.76503 5.65521
#
# Compressibility (1/GPa) = 0.03006914
#
# Stress axis : x y z
#
# Youngs Moduli (GPa) = 60.92697 60.92697 74.65573
#
# Poissons Ratio (x) = 0.24655 0.15040
# Poissons Ratio (y) = 0.24655 0.15040
# Poissons Ratio (z) = 0.12274 0.12274
#
# Static dielectric constant tensor:
#      x y z
#    x 1.725600 0.000000 0.000000 
#    y 0.000000 1.725600 0.000000 
#    z 0.000000 0.000000 1.621730 
# 
# From -- ./inp_files/6310.got.cif
#   From: 2010.05.17/outbox.cif.g08.bks.cpg/sg120_4_cif.got.tgz:6310.got - 2010.05.20 11:28:13.
