data_PCOD9559968
_publ_section_title
;
Structure prediction by ZEFSAII (Michael W. Deem and Ramdas Pophale) SiO2 
 PCOD9559968
Probable space group: I -4 C 2
;
_chemical_formula_sum "Si O2"
_cell_formula_units_Z 48
_cell_length_a 12.488864
_cell_length_b 12.488864
_cell_length_c 12.472591
_cell_angle_alpha 90.000000
_cell_angle_beta 90.000000
_cell_angle_gamma 90.000000
_cell_volume 1945.371521
_symmetry_space_group_name_H-M "I -4 C 2"
_symmetry_group_IT_number 120
_symmetry_cell_setting 'tetragonal'
loop_
_space_group_symop_operation_xyz
x,y,z
y,-x,-z
-x,-y,z
-y,x,-z
y,x,1/2-z
-y,-x,1/2-z
-x,y,1/2+z
x,-y,1/2+z
1/2+x,1/2+y,1/2+z
1/2+y,1/2-x,1/2-z
1/2-x,1/2-y,1/2+z
1/2-y,1/2+x,1/2-z
1/2+y,1/2+x,-z
1/2-y,1/2-x,-z
1/2-x,1/2+y,z
1/2+x,1/2-y,z
loop_
_atom_site_type_symbol
_atom_site_label
_atom_site_fract_x
_atom_site_fract_y
_atom_site_fract_z
Si Si1 0.934884 0.609936 0.624043
Si Si2 0.799224 0.914863 0.157845
Si Si3 0.253593 0.419764 0.983449
O O1 0.143640 0.643640 0.500000
O O2 0.028192 0.790537 0.404075
O O3 0.000000 0.500000 0.646409
O O4 0.823862 0.614069 0.688628
O O5 0.721227 0.001657 0.387011
O O6 0.837824 0.839169 0.060819
O O7 0.597764 0.902237 0.000000
O O8 0.384118 0.384118 0.750000
#
# Coordination Sequence:
#
# PCOD9559968 Si02
#       3
#    16  16  16
#     4   9  16  39  69  98 138 198 251 300 378 465
#     4  11  25  42  68 110 144 197 268 325 387 475
#     4  11  21  43  72  98 151 203 245 319 397 471
#
# _framework density 24.673947999999999
#
# number of rings (size 3 to 8) (size 9 to 14) (size 15 to 20)
#    0.000    1.667    6.667    3.000    0.000    3.333 
#    0.000    3.333    0.000    0.000    0.000    0.000 
#    0.000    0.000    0.000    0.000    0.000    0.000 
#
# Total GULP energy -133850.717225 kJ/mol
# GULP energy per Si atom -5577.113218 kJ/mol
# Density = 2.461779 g / cm^3
# Si number density = 24.673948 Si / 1000 Ang^3
#
#
#
# Elastic Constant Matrix: (Units=GPa)
#
#
# Indices 1 2 3 4 5 6 
#
# 1 77.1524 69.0841 32.4981 0.0000 0.0000 0.0000
# 2 69.0841 77.1517 32.4982 0.0000 0.0000 0.0000
# 3 32.4981 32.4982 119.0579 0.0000 0.0000 0.0000
# 4 0.0000 0.0000 0.0000 32.2665 0.0000 0.0000
# 5 0.0000 0.0000 0.0000 0.0000 32.2665 0.0000
# 6 0.0000 0.0000 0.0000 0.0000 0.0000 63.1944
#
#
#
# Elastic Compliance Matrix: (Units=1/GPa)
#
#
# Indices 1 2 3 4 5 6 
#
# 1 0.065864 -0.058082 -0.002124 0.000000 0.000000 0.000000
# 2 -0.058082 0.065865 -0.002124 0.000000 0.000000 0.000000
# 3 -0.002124 -0.002124 0.009559 0.000000 0.000000 0.000000
# 4 0.000000 0.000000 0.000000 0.030992 0.000000 0.000000
# 5 0.000000 0.000000 0.000000 0.000000 0.030992 0.000000
# 6 0.000000 0.000000 0.000000 0.000000 0.000000 0.015824
#
#
# Mechanical properties :
#
#
# Convention : Reuss Voigt Hill
#
# Bulk Modulus (GPa) = 60.14446 60.16919 60.15682
# Shear Modulus (GPa) = 14.31431 34.83093 24.57262
#
# Velocity S-wave (km/s) = 2.41122 3.76127 3.15920
# Velocity P-wave (km/s) = 5.67279 6.58039 6.14337
#
# Compressibility (1/GPa) = 0.01662664
#
# Stress axis : x y z
#
# Youngs Moduli (GPa) = 15.18269 15.18253 104.61374
#
# Poissons Ratio (x) = 0.88184 0.22222
# Poissons Ratio (y) = 0.88185 0.22224
# Poissons Ratio (z) = 0.03225 0.03225
#
# Static dielectric constant tensor:
#      x y z
#    x 2.092330 0.000000 0.000000 
#    y 0.000000 2.092330 0.000000 
#    z 0.000000 0.000000 1.980970 
# 
# From -- ./inp_files/2114.got.cif
#   From: 2010.05.17/outbox.cif.g08.bks.cpg/sg120_2_cif.got.tgz:2114.got - 2010.05.20 11:28:13.
