data_PCOD9559588
_publ_section_title
;
Structure prediction by ZEFSAII (Michael W. Deem and Ramdas Pophale) SiO2 
 PCOD9559588
Probable space group: I -4 C 2
;
_chemical_formula_sum "Si O2"
_cell_formula_units_Z 104
_cell_length_a 19.771626
_cell_length_b 19.771626
_cell_length_c 16.197413
_cell_angle_alpha 90.000000
_cell_angle_beta 90.000000
_cell_angle_gamma 90.000000
_cell_volume 6331.847251
_symmetry_space_group_name_H-M "I -4 C 2"
_symmetry_group_IT_number 120
_symmetry_cell_setting 'tetragonal'
loop_
_space_group_symop_operation_xyz
x,y,z
y,-x,-z
-x,-y,z
-y,x,-z
y,x,1/2-z
-y,-x,1/2-z
-x,y,1/2+z
x,-y,1/2+z
1/2+x,1/2+y,1/2+z
1/2+y,1/2-x,1/2-z
1/2-x,1/2-y,1/2+z
1/2-y,1/2+x,1/2-z
1/2+y,1/2+x,-z
1/2-y,1/2-x,-z
1/2-x,1/2+y,z
1/2+x,1/2-y,z
loop_
_atom_site_type_symbol
_atom_site_label
_atom_site_fract_x
_atom_site_fract_y
_atom_site_fract_z
Si Si1 0.719920 0.780081 0.000000
Si Si2 0.829574 0.702670 0.909064
Si Si3 0.726257 0.596752 0.591804
Si Si4 0.643654 0.756342 0.737578
Si Si5 0.422558 0.658527 0.116870
Si Si6 0.304785 0.557272 0.567353
Si Si7 0.452528 0.435608 0.151792
O O1 0.763410 0.749893 0.924028
O O2 0.643784 0.756941 0.980634
O O3 0.814102 0.657536 0.829581
O O4 0.891153 0.752570 0.892012
O O5 0.833799 0.666202 0.000000
O O6 0.770563 0.615459 0.672069
O O7 0.647096 0.614769 0.612243
O O8 0.723039 0.518072 0.574302
O O9 0.711750 0.711750 0.750000
O O10 0.589916 0.707317 0.693259
O O11 0.495046 0.623408 0.128291
O O12 0.422671 0.694031 0.028622
O O13 0.381482 0.563379 0.602988
O O14 0.500000 0.500000 0.132210
O O15 0.437386 0.437386 0.250000
#
# Coordination Sequence:
#
# PCOD9559588 Si02
#       7
#     8  16  16  16  16  16  16
#     4  10  18  38  52  78 107 153 194 228 286 334
#     4  10  18  35  55  80 103 144 197 245 281 331
#     4  11  21  35  56  81 113 155 190 234 289 345
#     4  10  18  34  56  72 104 153 194 229 292 327
#     4  11  19  32  53  74 110 158 193 220 262 337
#     4  12  22  35  54  86 113 147 201 235 285 343
#     4  11  24  34  45  72 122 161 186 219 268 338
#
# _framework density 16.424906
#
# number of rings (size 3 to 8) (size 9 to 14) (size 15 to 20)
#    0.462    0.769    7.692    1.846    4.308    0.615 
#    0.000    1.538    0.000    0.000    0.000    0.538 
#    0.000    0.000    0.000    0.000    0.000    0.000 
#
# Total GULP energy -289479.214798 kJ/mol
# GULP energy per Si atom -5566.907977 kJ/mol
# Density = 1.638752 g / cm^3
# Si number density = 16.424906 Si / 1000 Ang^3
#
#
#
# Elastic Constant Matrix: (Units=GPa)
#
#
# Indices 1 2 3 4 5 6 
#
# 1 48.0557 29.4056 -0.8468 0.0000 0.0000 0.0000
# 2 29.4056 48.0573 -0.8468 0.0000 0.0000 0.0000
# 3 -0.8468 -0.8468 56.2528 0.0000 0.0000 0.0000
# 4 0.0000 0.0000 0.0000 16.2618 0.0000 0.0000
# 5 0.0000 0.0000 0.0000 0.0000 16.2615 0.0000
# 6 0.0000 0.0000 0.0000 0.0000 0.0000 23.2872
#
#
#
# Elastic Compliance Matrix: (Units=1/GPa)
#
#
# Indices 1 2 3 4 5 6 
#
# 1 0.033266 -0.020351 0.000194 0.000000 0.000000 0.000000
# 2 -0.020351 0.033265 0.000194 0.000000 0.000000 0.000000
# 3 0.000194 0.000194 0.017783 0.000000 0.000000 0.000000
# 4 0.000000 0.000000 0.000000 0.061494 0.000000 0.000000
# 5 0.000000 0.000000 0.000000 0.000000 0.061495 0.000000
# 6 0.000000 0.000000 0.000000 0.000000 0.000000 0.042942
#
#
# Mechanical properties :
#
#
# Convention : Reuss Voigt Hill
#
# Bulk Modulus (GPa) = 22.52867 23.08777 22.80822
# Shear Modulus (GPa) = 16.39530 19.47234 17.93382
#
# Velocity S-wave (km/s) = 3.16285 3.44690 3.30793
# Velocity P-wave (km/s) = 5.20424 5.47070 5.33913
#
# Compressibility (1/GPa) = 0.04438788
#
# Stress axis : x y z
#
# Youngs Moduli (GPa) = 30.06091 30.06190 56.23433
#
# Poissons Ratio (x) = 0.61180 -0.01093
# Poissons Ratio (y) = 0.61178 -0.01093
# Poissons Ratio (z) = -0.00584 -0.00584
#
# Static dielectric constant tensor:
#      x y z
#    x 1.569730 0.000000 0.000000 
#    y 0.000000 1.569730 0.000000 
#    z 0.000000 0.000000 1.600560 
# 
# From -- ./inp_files/4515.got.cif
#   From: 2010.05.17/outbox.cif.g08.bks.cpg/sg120_3_cif.got.tgz:4515.got - 2010.05.20 11:28:13.
