data_PCOD9559579
_publ_section_title
;
Structure prediction by ZEFSAII (Michael W. Deem and Ramdas Pophale) SiO2 
 PCOD9559579
Probable space group: I -4 C 2
;
_chemical_formula_sum "Si O2"
_cell_formula_units_Z 96
_cell_length_a 18.160745
_cell_length_b 18.160745
_cell_length_c 15.695609
_cell_angle_alpha 90.000000
_cell_angle_beta 90.000000
_cell_angle_gamma 90.000000
_cell_volume 5176.610538
_symmetry_space_group_name_H-M "I -4 C 2"
_symmetry_group_IT_number 120
_symmetry_cell_setting 'tetragonal'
loop_
_space_group_symop_operation_xyz
x,y,z
y,-x,-z
-x,-y,z
-y,x,-z
y,x,1/2-z
-y,-x,1/2-z
-x,y,1/2+z
x,-y,1/2+z
1/2+x,1/2+y,1/2+z
1/2+y,1/2-x,1/2-z
1/2-x,1/2-y,1/2+z
1/2-y,1/2+x,1/2-z
1/2+y,1/2+x,-z
1/2-y,1/2-x,-z
1/2-x,1/2+y,z
1/2+x,1/2-y,z
loop_
_atom_site_type_symbol
_atom_site_label
_atom_site_fract_x
_atom_site_fract_y
_atom_site_fract_z
Si Si1 0.257447 0.368604 0.609926
Si Si2 0.918435 0.482579 0.136906
Si Si3 0.611689 0.888312 0.500000
Si Si4 0.742891 0.874346 0.384240
Si Si5 0.723609 0.160748 0.253436
Si Si6 0.274727 0.012913 0.239585
Si Si7 0.373298 0.873298 0.500000
O O1 0.329497 0.318169 0.599894
O O2 0.200754 0.319702 0.668537
O O3 0.267053 0.444637 0.662038
O O4 0.212257 0.383826 0.523638
O O5 0.860282 0.474692 0.212727
O O6 0.000000 0.500000 0.162887
O O7 0.897595 0.549480 0.072616
O O8 0.915641 0.408203 0.080381
O O9 0.694401 0.895503 0.464825
O O10 0.690282 0.820119 0.329057
O O11 0.750738 0.944612 0.323581
O O12 0.803596 0.196405 0.250000
O O13 0.729973 0.073758 0.252026
#
# Coordination Sequence:
#
# PCOD9559579 Si02
#       7
#    16  16   8  16  16  16   8
#     4   9  20  35  53  74 106 138 186 223 267 320
#     4  11  21  34  46  80 120 143 174 214 254 336
#     4  12  20  32  52  76 116 136 186 212 260 304
#     4  10  21  35  53  75 105 142 182 229 258 321
#     4   9  18  34  50  75 102 133 180 226 265 322
#     4  10  20  35  54  74 101 151 179 216 272 319
#     4  10  18  32  52  70 108 144 168 216 274 302
#
# _framework density 18.544954000000001
#
# number of rings (size 3 to 8) (size 9 to 14) (size 15 to 20)
#    0.000    2.000    3.333    2.000    2.333    1.333 
#    0.000    0.833    0.000    2.000    0.000    0.000 
#    0.000    0.000    0.000    0.000    0.000    0.000 
#
# Total GULP energy -267785.688321 kJ/mol
# GULP energy per Si atom -5578.868507 kJ/mol
# Density = 1.850274 g / cm^3
# Si number density = 18.544954 Si / 1000 Ang^3
#
#
#
# Elastic Constant Matrix: (Units=GPa)
#
#
# Indices 1 2 3 4 5 6 
#
# 1 87.9825 32.9818 13.8902 0.0000 0.0000 0.0000
# 2 32.9818 87.9855 13.8904 0.0000 0.0000 0.0000
# 3 13.8902 13.8904 35.0977 0.0000 0.0000 0.0000
# 4 0.0000 0.0000 0.0000 16.4263 0.0000 0.0000
# 5 0.0000 0.0000 0.0000 0.0000 16.4265 0.0000
# 6 0.0000 0.0000 0.0000 0.0000 0.0000 26.9890
#
#
#
# Elastic Compliance Matrix: (Units=1/GPa)
#
#
# Indices 1 2 3 4 5 6 
#
# 1 0.013637 -0.004544 -0.003599 0.000000 0.000000 0.000000
# 2 -0.004544 0.013637 -0.003599 0.000000 0.000000 0.000000
# 3 -0.003599 -0.003599 0.031340 0.000000 0.000000 0.000000
# 4 0.000000 0.000000 0.000000 0.060878 0.000000 0.000000
# 5 0.000000 0.000000 0.000000 0.000000 0.060877 0.000000
# 6 0.000000 0.000000 0.000000 0.000000 0.000000 0.037052
#
#
# Mechanical properties :
#
#
# Convention : Reuss Voigt Hill
#
# Bulk Modulus (GPa) = 28.46414 36.95448 32.70931
# Shear Modulus (GPa) = 19.79292 21.98859 20.89075
#
# Velocity S-wave (km/s) = 3.27049 3.44712 3.35997
# Velocity P-wave (km/s) = 5.44459 5.98446 5.72090
#
# Compressibility (1/GPa) = 0.03513193
#
# Stress axis : x y z
#
# Youngs Moduli (GPa) = 73.32767 73.33021 31.90767
#
# Poissons Ratio (x) = 0.33321 0.11483
# Poissons Ratio (y) = 0.33319 0.11483
# Poissons Ratio (z) = 0.26389 0.26390
#
# Static dielectric constant tensor:
#      x y z
#    x 1.645250 0.000000 0.000000 
#    y 0.000000 1.645250 0.000000 
#    z 0.000000 0.000000 1.732410 
# 
# From -- ./inp_files/4477.got.cif
#   From: 2010.05.17/outbox.cif.g08.bks.cpg/sg120_3_cif.got.tgz:4477.got - 2010.05.20 11:28:13.
