data_PCOD9559976
_publ_section_title
;
Structure prediction by ZEFSAII (Michael W. Deem and Ramdas Pophale) SiO2 
 PCOD9559976
Probable space group: I -4 C 2
;
_chemical_formula_sum "Si O2"
_cell_formula_units_Z 100
_cell_length_a 13.899325
_cell_length_b 13.899325
_cell_length_c 26.250314
_cell_angle_alpha 90.000000
_cell_angle_beta 90.000000
_cell_angle_gamma 90.000000
_cell_volume 5071.330593
_symmetry_space_group_name_H-M "I -4 C 2"
_symmetry_group_IT_number 120
_symmetry_cell_setting 'tetragonal'
loop_
_space_group_symop_operation_xyz
x,y,z
y,-x,-z
-x,-y,z
-y,x,-z
y,x,1/2-z
-y,-x,1/2-z
-x,y,1/2+z
x,-y,1/2+z
1/2+x,1/2+y,1/2+z
1/2+y,1/2-x,1/2-z
1/2-x,1/2-y,1/2+z
1/2-y,1/2+x,1/2-z
1/2+y,1/2+x,-z
1/2-y,1/2-x,-z
1/2-x,1/2+y,z
1/2+x,1/2-y,z
loop_
_atom_site_type_symbol
_atom_site_label
_atom_site_fract_x
_atom_site_fract_y
_atom_site_fract_z
Si Si1 0.040044 0.344032 0.963248
Si Si2 0.611041 0.351397 0.804065
Si Si3 0.314260 0.184873 0.626443
Si Si4 0.683141 0.174012 0.440290
Si Si5 0.500000 0.500000 0.250000
Si Si6 0.355911 0.542661 0.480783
Si Si7 0.715395 0.497887 0.879177
O O1 0.111149 0.346997 0.916382
O O2 0.931850 0.337362 0.942702
O O3 0.069438 0.430562 0.000000
O O4 0.062279 0.246600 0.994582
O O5 0.663153 0.336848 0.750000
O O6 0.624788 0.254114 0.835585
O O7 0.511879 0.404418 0.785422
O O8 0.662954 0.431926 0.838356
O O9 0.251584 0.267572 0.597369
O O10 0.413996 0.228715 0.646789
O O11 0.701970 0.201970 0.500000
O O12 0.723721 0.073215 0.416966
O O13 0.435645 0.612564 0.503372
O O14 0.356209 0.546538 0.419981
#
# Coordination Sequence:
#
# PCOD9559976 Si02
#       7
#    16  16  16  16   4  16  16
#     4  12  23  37  60  90 139 181 213 259 315 393
#     4   9  22  45  66  92 124 163 211 290 335 383
#     4  11  23  39  65  92 130 171 224 263 325 391
#     4  11  22  37  58  89 136 182 218 257 314 383
#     4   8  20  44  68  88 122 148 210 282 352 376
#     4  11  22  36  57  93 133 178 220 263 317 383
#     4  11  22  38  63  93 133 171 219 268 319 402
#
# _framework density 19.718691
#
# number of rings (size 3 to 8) (size 9 to 14) (size 15 to 20)
#    0.480    0.800    3.200    3.360    0.000    6.080 
#    1.440    1.600    0.000    0.000    0.000    0.000 
#    0.000    0.000    0.000    0.000    0.000    0.000 
#
# Total GULP energy -278693.006318 kJ/mol
# GULP energy per Si atom -5573.860126 kJ/mol
# Density = 1.967381 g / cm^3
# Si number density = 19.718691 Si / 1000 Ang^3
#
#
#
# Elastic Constant Matrix: (Units=GPa)
#
#
# Indices 1 2 3 4 5 6 
#
# 1 77.4206 31.5758 16.0186 0.0000 0.0000 0.0000
# 2 31.5758 77.4220 16.0192 0.0000 0.0000 0.0000
# 3 16.0186 16.0192 70.6898 0.0000 0.0000 0.0000
# 4 0.0000 0.0000 0.0000 19.6148 0.0000 0.0000
# 5 0.0000 0.0000 0.0000 0.0000 19.6147 0.0000
# 6 0.0000 0.0000 0.0000 0.0000 0.0000 28.9936
#
#
#
# Elastic Compliance Matrix: (Units=1/GPa)
#
#
# Indices 1 2 3 4 5 6 
#
# 1 0.015821 -0.005992 -0.002227 0.000000 0.000000 0.000000
# 2 -0.005992 0.015821 -0.002227 0.000000 0.000000 0.000000
# 3 -0.002227 -0.002227 0.015156 0.000000 0.000000 0.000000
# 4 0.000000 0.000000 0.000000 0.050982 0.000000 0.000000
# 5 0.000000 0.000000 0.000000 0.000000 0.050982 0.000000
# 6 0.000000 0.000000 0.000000 0.000000 0.000000 0.034490
#
#
# Mechanical properties :
#
#
# Convention : Reuss Voigt Hill
#
# Bulk Modulus (GPa) = 38.60296 39.19552 38.89924
# Shear Modulus (GPa) = 23.49850 24.43920 23.96885
#
# Velocity S-wave (km/s) = 3.45583 3.52432 3.49024
# Velocity P-wave (km/s) = 5.96179 6.04000 6.00102
#
# Compressibility (1/GPa) = 0.02590475
#
# Stress axis : x y z
#
# Youngs Moduli (GPa) = 63.20729 63.20824 65.98129
#
# Poissons Ratio (x) = 0.37872 0.14696
# Poissons Ratio (y) = 0.37871 0.14697
# Poissons Ratio (z) = 0.14078 0.14079
#
# Static dielectric constant tensor:
#      x y z
#    x 1.757460 0.000000 0.000000 
#    y 0.000000 1.757460 0.000000 
#    z 0.000000 0.000000 1.682850 
# 
# From -- ./inp_files/6244.got.cif
#   From: 2010.05.17/outbox.cif.g08.bks.cpg/sg120_4_cif.got.tgz:6244.got - 2010.05.20 11:28:13.
