data_PCOD9559277
_publ_section_title
;
Structure prediction by ZEFSAII (Michael W. Deem and Ramdas Pophale) SiO2 
 PCOD9559277
Probable space group: I -4 M 2
;
_chemical_formula_sum "Si O2"
_cell_formula_units_Z 56
_cell_length_a 13.935714
_cell_length_b 13.935714
_cell_length_c 12.151394
_cell_angle_alpha 90.000000
_cell_angle_beta 90.000000
_cell_angle_gamma 90.000000
_cell_volume 2359.850836
_symmetry_space_group_name_H-M "I -4 M 2"
_symmetry_group_IT_number 119
_symmetry_cell_setting 'tetragonal'
loop_
_space_group_symop_operation_xyz
x,y,z
y,-x,-z
-x,-y,z
-y,x,-z
y,x,-z
-y,-x,-z
-x,y,z
x,-y,z
1/2+x,1/2+y,1/2+z
1/2+y,1/2-x,1/2-z
1/2-x,1/2-y,1/2+z
1/2-y,1/2+x,1/2-z
1/2+y,1/2+x,1/2-z
1/2-y,1/2-x,1/2-z
1/2-x,1/2+y,1/2+z
1/2+x,1/2-y,1/2+z
loop_
_atom_site_type_symbol
_atom_site_label
_atom_site_fract_x
_atom_site_fract_y
_atom_site_fract_z
Si Si1 0.390430 0.891220 0.061894
Si Si2 0.774214 0.386246 0.340774
Si Si3 0.111612 0.210038 0.717433
Si Si4 0.887538 0.112463 0.500000
O O1 0.500000 0.887786 0.018737
O O2 0.386276 0.813363 0.157924
O O3 0.373301 0.000000 0.103276
O O4 0.318869 0.872026 0.961706
O O5 0.753496 0.500000 0.328552
O O6 0.851197 0.351197 0.250000
O O7 0.679959 0.321589 0.316849
O O8 0.152318 0.147119 0.615299
O O9 0.000000 0.187558 0.742039
O O10 0.000000 0.131234 0.507977
#
# Coordination Sequence:
#
# PCOD9559277 Si02
#       4
#    16  16  16   8
#     4   9  19  37  62  92 125 164 212 264 317 376
#     4  11  22  36  59  92 126 160 206 265 323 377
#     4  10  20  36  60  88 120 162 212 262 313 375
#     4   9  16  26  44  74 110 146 188 243 304 360
#
# _framework density 23.730312999999999
#
# number of rings (size 3 to 8) (size 9 to 14) (size 15 to 20)
#    0.000    2.143    0.000    3.429    0.000    5.429 
#    0.000    1.429    0.000    6.857    0.000    0.000 
#    0.000    0.000    0.000    0.000    0.000    0.000 
#
# Total GULP energy -156609.468467 kJ/mol
# GULP energy per Si atom -5593.195302 kJ/mol
# Density = 2.367630 g / cm^3
# Si number density = 23.730313 Si / 1000 Ang^3
#
#
#
# Elastic Constant Matrix: (Units=GPa)
#
#
# Indices 1 2 3 4 5 6 
#
# 1 161.5971 24.4002 45.7274 0.0000 0.0000 0.0000
# 2 24.4002 161.5972 45.7278 0.0000 0.0000 0.0000
# 3 45.7274 45.7278 92.1499 0.0000 0.0000 0.0000
# 4 0.0000 0.0000 0.0000 40.8423 0.0000 0.0000
# 5 0.0000 0.0000 0.0000 0.0000 40.8415 0.0000
# 6 0.0000 0.0000 0.0000 0.0000 0.0000 26.1072
#
#
#
# Elastic Compliance Matrix: (Units=1/GPa)
#
#
# Indices 1 2 3 4 5 6 
#
# 1 0.007200 -0.000089 -0.003529 0.000000 0.000000 0.000000
# 2 -0.000089 0.007200 -0.003529 0.000000 0.000000 0.000000
# 3 -0.003529 -0.003529 0.014354 0.000000 0.000000 0.000000
# 4 0.000000 0.000000 0.000000 0.024484 0.000000 0.000000
# 5 0.000000 0.000000 0.000000 0.000000 0.024485 0.000000
# 6 0.000000 0.000000 0.000000 0.000000 0.000000 0.038304
#
#
# Mechanical properties :
#
#
# Convention : Reuss Voigt Hill
#
# Bulk Modulus (GPa) = 69.14900 71.89498 70.52199
# Shear Modulus (GPa) = 36.99830 41.52412 39.26121
#
# Velocity S-wave (km/s) = 3.95285 4.18764 4.07194
# Velocity P-wave (km/s) = 7.07362 7.33105 7.20348
#
# Compressibility (1/GPa) = 0.01446152
#
# Stress axis : x y z
#
# Youngs Moduli (GPa) = 138.88487 138.88456 69.66562
#
# Poissons Ratio (x) = 0.01230 0.24585
# Poissons Ratio (y) = 0.01230 0.24585
# Poissons Ratio (z) = 0.49012 0.49013
#
# Static dielectric constant tensor:
#      x y z
#    x 1.963090 0.000000 0.000000 
#    y 0.000000 1.963100 0.000000 
#    z 0.000000 0.000000 1.846500 
# 
# From -- ./inp_files/3546.got.cif
#   From: 2010.05.17/outbox.cif.g08.bks.cpg/sg119_2_cif.got.tgz:3546.got - 2010.05.20 11:21:29.
