data_PCOD9559437
_publ_section_title
;
Structure prediction by ZEFSAII (Michael W. Deem and Ramdas Pophale) SiO2 
 PCOD9559437
Probable space group: I -4 M 2
;
_chemical_formula_sum "Si O2"
_cell_formula_units_Z 52
_cell_length_a 20.796537
_cell_length_b 20.796537
_cell_length_c 5.964910
_cell_angle_alpha 90.000000
_cell_angle_beta 90.000000
_cell_angle_gamma 90.000000
_cell_volume 2579.799424
_symmetry_space_group_name_H-M "I -4 M 2"
_symmetry_group_IT_number 119
_symmetry_cell_setting 'tetragonal'
loop_
_space_group_symop_operation_xyz
x,y,z
y,-x,-z
-x,-y,z
-y,x,-z
y,x,-z
-y,-x,-z
-x,y,z
x,-y,z
1/2+x,1/2+y,1/2+z
1/2+y,1/2-x,1/2-z
1/2-x,1/2-y,1/2+z
1/2-y,1/2+x,1/2-z
1/2+y,1/2+x,1/2-z
1/2-y,1/2-x,1/2-z
1/2-x,1/2+y,1/2+z
1/2+x,1/2-y,1/2+z
loop_
_atom_site_type_symbol
_atom_site_label
_atom_site_fract_x
_atom_site_fract_y
_atom_site_fract_z
Si Si1 0.000000 0.745993 0.762705
Si Si2 0.775476 0.724525 0.250000
Si Si3 0.853386 0.000000 0.614703
Si Si4 0.000000 0.000000 0.500000
Si Si5 0.500000 0.000000 0.750000
Si Si6 0.597235 0.000000 0.363663
Si Si7 0.607876 0.709895 0.594883
O O1 0.000000 0.810299 0.609280
O O2 0.000000 0.674615 0.653582
O O3 0.936152 0.754484 0.913471
O O4 0.753220 0.753220 0.500000
O O5 0.760213 0.649805 0.267260
O O6 0.830088 0.938187 0.747246
O O7 0.930144 0.000000 0.613608
O O8 0.565550 0.000000 0.608070
O O9 0.562722 0.937279 0.250000
O O10 0.658924 0.658924 0.500000
#
# Coordination Sequence:
#
# PCOD9559437 Si02
#       7
#     8   8   8   2   2   8  16
#     4  11  24  42  69 103 135 182 243 302 365 447
#     4  10  24  42  75 100 136 187 229 292 372 431
#     4  11  25  40  67  95 134 185 237 309 357 442
#     4  12  24  40  66  92 132 190 240 292 374 428
#     4   8  18  40  72  98 144 204 222 304 372 458
#     4   9  21  42  69  97 146 181 239 294 370 448
#     4  10  24  44  65  96 138 179 236 301 367 436
#
# _framework density 20.156607000000001
#
# number of rings (size 3 to 8) (size 9 to 14) (size 15 to 20)
#    0.000    2.000    0.000    1.846   10.769    8.615 
#    2.769    4.615    0.000    0.000    0.000    0.000 
#    0.000    0.000    0.000    0.000    0.000    0.000 
#
# Total GULP energy -144788.332724 kJ/mol
# GULP energy per Si atom -5568.782028 kJ/mol
# Density = 2.011073 g / cm^3
# Si number density = 20.156607 Si / 1000 Ang^3
#
#
#
# Elastic Constant Matrix: (Units=GPa)
#
#
# Indices 1 2 3 4 5 6 
#
# 1 284.5242 -65.6014 47.4605 0.0000 0.0000 0.0000
# 2 -65.6014 284.5337 47.4642 0.0000 0.0000 0.0000
# 3 47.4605 47.4642 95.0212 0.0000 0.0000 0.0000
# 4 0.0000 0.0000 0.0000 60.2834 0.0000 0.0000
# 5 0.0000 0.0000 0.0000 0.0000 60.2812 0.0000
# 6 0.0000 0.0000 0.0000 0.0000 0.0000 -126.2335
#
#
#
# Elastic Compliance Matrix: (Units=1/GPa)
#
#
# Indices 1 2 3 4 5 6 
#
# 1 0.004343 0.001487 -0.002912 0.000000 0.000000 0.000000
# 2 0.001487 0.004343 -0.002912 0.000000 0.000000 0.000000
# 3 -0.002912 -0.002912 0.013433 0.000000 0.000000 0.000000
# 4 0.000000 0.000000 0.000000 0.016588 0.000000 0.000000
# 5 0.000000 0.000000 0.000000 0.000000 0.016589 0.000000
# 6 0.000000 0.000000 0.000000 0.000000 0.000000 -0.007922
#
#
# Mechanical properties :
#
#
# Convention : Reuss Voigt Hill
#
# Bulk Modulus (GPa) = 74.37644 80.30285 77.33965
# Shear Modulus (GPa) = 82.60149 41.18328 61.89238
#
# Velocity S-wave (km/s) = 6.40850 4.52504 5.54729
# Velocity P-wave (km/s) = 9.57799 8.19923 8.91530
#
# Compressibility (1/GPa) = 0.01344512
#
# Stress axis : x y z
#
# Youngs Moduli (GPa) = 230.23898 230.24421 74.44201
#
# Poissons Ratio (x) = -0.34242 0.21679
# Poissons Ratio (y) = -0.34241 0.21680
# Poissons Ratio (z) = 0.67051 0.67054
#
# Static dielectric constant tensor:
#      x y z
#    x 1.607540 0.000000 0.000000 
#    y 0.000000 1.607540 0.000000 
#    z 0.000000 0.000000 1.686350 
# 
# From -- ./inp_files/588.got.cif
#   From: 2010.05.17/outbox.cif.g08.bks.cpg/sg119_1_cif.got.tgz:588.got - 2010.05.20 11:21:29.
