data_PCOD9559203
_publ_section_title
;
Structure prediction by ZEFSAII (Michael W. Deem and Ramdas Pophale) SiO2 
 PCOD9559203
Probable space group: I -4 M 2
;
_chemical_formula_sum "Si O2"
_cell_formula_units_Z 96
_cell_length_a 14.404835
_cell_length_b 14.404835
_cell_length_c 25.709556
_cell_angle_alpha 90.000000
_cell_angle_beta 90.000000
_cell_angle_gamma 90.000000
_cell_volume 5334.714137
_symmetry_space_group_name_H-M "I -4 M 2"
_symmetry_group_IT_number 119
_symmetry_cell_setting 'tetragonal'
loop_
_space_group_symop_operation_xyz
x,y,z
y,-x,-z
-x,-y,z
-y,x,-z
y,x,-z
-y,-x,-z
-x,y,z
x,-y,z
1/2+x,1/2+y,1/2+z
1/2+y,1/2-x,1/2-z
1/2-x,1/2-y,1/2+z
1/2-y,1/2+x,1/2-z
1/2+y,1/2+x,1/2-z
1/2-y,1/2-x,1/2-z
1/2-x,1/2+y,1/2+z
1/2+x,1/2-y,1/2+z
loop_
_atom_site_type_symbol
_atom_site_label
_atom_site_fract_x
_atom_site_fract_y
_atom_site_fract_z
Si Si1 0.253636 0.170561 0.951105
Si Si2 0.500000 0.887989 0.520432
Si Si3 0.333657 0.754427 0.353914
Si Si4 0.399983 0.609975 0.725238
Si Si5 0.667331 0.395922 0.839199
Si Si6 0.834776 0.099582 0.553138
Si Si7 0.612208 0.000000 0.105867
O O1 0.192396 0.180412 0.899229
O O2 0.318572 0.261112 0.948546
O O3 0.326510 0.087120 0.959206
O O4 0.185249 0.185249 0.000000
O O5 0.500000 0.885018 0.457218
O O6 0.500000 0.000000 0.534208
O O7 0.356043 0.691340 0.304231
O O8 0.246349 0.819114 0.341851
O O9 0.412660 0.827285 0.372966
O O10 0.500000 0.649846 0.707942
O O11 0.402310 0.500000 0.715401
O O12 0.390823 0.622039 0.787249
O O13 0.706956 0.500000 0.834812
O O14 0.611840 0.390137 0.893362
O O15 0.892385 0.107616 0.500000
O O16 0.786493 0.000000 0.553411
O O17 0.500000 0.000000 0.119749
#
# Coordination Sequence:
#
# PCOD9559203 Si02
#       7
#    16   8  16  16  16  16   8
#     4  10  21  36  54  81 112 149 195 244 295 354
#     4  11  22  38  60  84 118 162 202 247 304 380
#     4  11  21  38  57  84 119 151 201 252 300 358
#     4  10  21  37  58  81 108 149 196 243 295 355
#     4  10  21  36  56  80 115 151 191 238 296 364
#     4  10  20  33  52  80 113 144 180 231 289 354
#     4  11  22  36  61  89 121 165 204 239 307 384
#
# _framework density 17.995342000000001
#
# number of rings (size 3 to 8) (size 9 to 14) (size 15 to 20)
#    0.000    1.667    2.500    2.500    1.167    1.833 
#    0.000    0.000    0.000    1.250    0.000    0.000 
#    0.000    0.000    0.000    0.000    0.000    0.000 
#
# Total GULP energy -267241.955248 kJ/mol
# GULP energy per Si atom -5567.540734 kJ/mol
# Density = 1.795438 g / cm^3
# Si number density = 17.995342 Si / 1000 Ang^3
#
#
#
# Elastic Constant Matrix: (Units=GPa)
#
#
# Indices 1 2 3 4 5 6 
#
# 1 81.6293 31.3539 36.6170 0.0000 0.0000 0.0000
# 2 31.3539 81.6292 36.6172 0.0000 0.0000 0.0000
# 3 36.6170 36.6172 107.9592 0.0000 0.0000 0.0000
# 4 0.0000 0.0000 0.0000 25.6063 0.0000 0.0000
# 5 0.0000 0.0000 0.0000 0.0000 25.6068 0.0000
# 6 0.0000 0.0000 0.0000 0.0000 0.0000 17.7998
#
#
#
# Elastic Compliance Matrix: (Units=1/GPa)
#
#
# Indices 1 2 3 4 5 6 
#
# 1 0.015618 -0.004273 -0.003848 0.000000 0.000000 0.000000
# 2 -0.004273 0.015618 -0.003848 0.000000 0.000000 0.000000
# 3 -0.003848 -0.003848 0.011873 0.000000 0.000000 0.000000
# 4 0.000000 0.000000 0.000000 0.039053 0.000000 0.000000
# 5 0.000000 0.000000 0.000000 0.000000 0.039052 0.000000
# 6 0.000000 0.000000 0.000000 0.000000 0.000000 0.056181
#
#
# Mechanical properties :
#
#
# Convention : Reuss Voigt Hill
#
# Bulk Modulus (GPa) = 52.16129 53.37711 52.76920
# Shear Modulus (GPa) = 24.07066 24.91122 24.49094
#
# Velocity S-wave (km/s) = 3.66130 3.72467 3.69312
# Velocity P-wave (km/s) = 6.84999 6.94432 6.89732
#
# Compressibility (1/GPa) = 0.01917130
#
# Stress axis : x y z
#
# Youngs Moduli (GPa) = 64.02974 64.02957 84.22453
#
# Poissons Ratio (x) = 0.27358 0.32409
# Poissons Ratio (y) = 0.27358 0.32409
# Poissons Ratio (z) = 0.24638 0.24638
#
# Static dielectric constant tensor:
#      x y z
#    x 1.592900 0.000000 0.000000 
#    y 0.000000 1.592900 0.000000 
#    z 0.000000 0.000000 1.645290 
# 
# From -- ./inp_files/8752.got.cif
#   From: 2010.05.17/outbox.cif.g08.bks.cpg/sg119_5_cif.got.tgz:8752.got - 2010.05.20 11:21:29.
