data_PCOD9559684
_publ_section_title
;
Structure prediction by ZEFSAII (Michael W. Deem and Ramdas Pophale) SiO2 
 PCOD9559684
Probable space group: I -4 C 2
;
_chemical_formula_sum "Si O2"
_cell_formula_units_Z 80
_cell_length_a 18.252330
_cell_length_b 18.252330
_cell_length_c 14.018074
_cell_angle_alpha 90.000000
_cell_angle_beta 90.000000
_cell_angle_gamma 90.000000
_cell_volume 4670.087015
_symmetry_space_group_name_H-M "I -4 C 2"
_symmetry_group_IT_number 120
_symmetry_cell_setting 'tetragonal'
loop_
_space_group_symop_operation_xyz
x,y,z
y,-x,-z
-x,-y,z
-y,x,-z
y,x,1/2-z
-y,-x,1/2-z
-x,y,1/2+z
x,-y,1/2+z
1/2+x,1/2+y,1/2+z
1/2+y,1/2-x,1/2-z
1/2-x,1/2-y,1/2+z
1/2-y,1/2+x,1/2-z
1/2+y,1/2+x,-z
1/2-y,1/2-x,-z
1/2-x,1/2+y,z
1/2+x,1/2-y,z
loop_
_atom_site_type_symbol
_atom_site_label
_atom_site_fract_x
_atom_site_fract_y
_atom_site_fract_z
Si Si1 0.280843 0.999531 0.886488
Si Si2 0.249310 0.873136 0.238688
Si Si3 0.280843 0.000470 0.613512
Si Si4 0.441213 0.941213 0.115107
Si Si5 0.626864 0.749309 0.738689
O O1 0.362140 0.971637 0.857619
O O2 0.235211 0.930095 0.847663
O O3 0.262329 0.073664 0.829715
O O4 0.276502 0.009178 1.000000
O O5 0.181225 0.818776 0.250000
O O6 0.235211 0.930094 0.152336
O O7 0.320212 0.820211 0.224057
O O8 0.362140 0.028362 0.642381
O O9 0.262328 0.926336 0.670285
O O10 0.500000 0.000000 0.145225
O O11 0.438695 0.938695 0.000000
O O12 0.681223 0.681223 0.750000
#
# Coordination Sequence:
#
# PCOD9559684 Si02
#       5
#    16  16  16  16  16
#     4  10  20  35  54  80 111 147 187 228 277 332
#     4  10  21  36  54  81 115 149 186 229 279 332
#     4  10  20  35  54  80 111 147 187 228 277 332
#     4   9  16  28  49  76 107 139 174 214 264 330
#     4  10  21  36  54  81 115 149 186 229 279 332
#
# _framework density 17.130302
#
# number of rings (size 3 to 8) (size 9 to 14) (size 15 to 20)
#    0.000    2.200    2.000    1.200    0.000    4.000 
#    0.000    4.000    0.000    9.600    0.000   11.200 
#    0.000    0.000    0.000    0.000    0.000    0.000 
#
# Total GULP energy -222850.801241 kJ/mol
# GULP energy per Si atom -5571.270031 kJ/mol
# Density = 1.709131 g / cm^3
# Si number density = 17.130302 Si / 1000 Ang^3
#
#
#
# Elastic Constant Matrix: (Units=GPa)
#
#
# Indices 1 2 3 4 5 6 
#
# 1 101.5202 54.2997 30.2245 0.0000 0.0000 0.0000
# 2 54.2997 101.5221 30.2248 0.0000 0.0000 0.0000
# 3 30.2245 30.2248 105.0858 0.0000 0.0000 0.0000
# 4 0.0000 0.0000 0.0000 17.0499 0.0000 0.0000
# 5 0.0000 0.0000 0.0000 0.0000 17.0505 0.0000
# 6 0.0000 0.0000 0.0000 0.0000 0.0000 45.2387
#
#
#
# Elastic Compliance Matrix: (Units=1/GPa)
#
#
# Indices 1 2 3 4 5 6 
#
# 1 0.014200 -0.006977 -0.002078 0.000000 0.000000 0.000000
# 2 -0.006977 0.014200 -0.002078 0.000000 0.000000 0.000000
# 3 -0.002078 -0.002078 0.010711 0.000000 0.000000 0.000000
# 4 0.000000 0.000000 0.000000 0.058651 0.000000 0.000000
# 5 0.000000 0.000000 0.000000 0.000000 0.058649 0.000000
# 6 0.000000 0.000000 0.000000 0.000000 0.000000 0.022105
#
#
# Mechanical properties :
#
#
# Convention : Reuss Voigt Hill
#
# Bulk Modulus (GPa) = 59.35483 59.73625 59.54554
# Shear Modulus (GPa) = 24.22513 28.75974 26.49244
#
# Velocity S-wave (km/s) = 3.76462 4.10186 3.93685
# Velocity P-wave (km/s) = 7.32262 7.57503 7.44989
#
# Compressibility (1/GPa) = 0.01684783
#
# Stress axis : x y z
#
# Youngs Moduli (GPa) = 70.42071 70.42204 93.36042
#
# Poissons Ratio (x) = 0.49131 0.19397
# Poissons Ratio (y) = 0.49130 0.19397
# Poissons Ratio (z) = 0.14631 0.14631
#
# Static dielectric constant tensor:
#      x y z
#    x 1.596780 0.000000 0.000000 
#    y 0.000000 1.596780 0.000000 
#    z 0.000000 0.000000 1.606070 
# 
# From -- ./inp_files/3433.got.cif
#   From: 2010.05.17/outbox.cif.g08.bks.cpg/sg120_2_cif.got.tgz:3433.got - 2010.05.20 11:28:13.
