data_PCOD9559699
_publ_section_title
;
Structure prediction by ZEFSAII (Michael W. Deem and Ramdas Pophale) SiO2 
 PCOD9559699
Probable space group: I -4 C 2
;
_chemical_formula_sum "Si O2"
_cell_formula_units_Z 92
_cell_length_a 14.246535
_cell_length_b 14.246535
_cell_length_c 22.594621
_cell_angle_alpha 90.000000
_cell_angle_beta 90.000000
_cell_angle_gamma 90.000000
_cell_volume 4585.889223
_symmetry_space_group_name_H-M "I -4 C 2"
_symmetry_group_IT_number 120
_symmetry_cell_setting 'tetragonal'
loop_
_space_group_symop_operation_xyz
x,y,z
y,-x,-z
-x,-y,z
-y,x,-z
y,x,1/2-z
-y,-x,1/2-z
-x,y,1/2+z
x,-y,1/2+z
1/2+x,1/2+y,1/2+z
1/2+y,1/2-x,1/2-z
1/2-x,1/2-y,1/2+z
1/2-y,1/2+x,1/2-z
1/2+y,1/2+x,-z
1/2-y,1/2-x,-z
1/2-x,1/2+y,z
1/2+x,1/2-y,z
loop_
_atom_site_type_symbol
_atom_site_label
_atom_site_fract_x
_atom_site_fract_y
_atom_site_fract_z
Si Si1 0.185311 0.893858 0.693113
Si Si2 0.916548 0.123933 0.020678
Si Si3 0.407565 0.622558 0.845978
Si Si4 0.734840 0.765161 0.500000
Si Si5 0.079412 0.627375 0.734811
Si Si6 0.000000 0.000000 0.250000
Si Si7 0.193200 0.300933 0.132800
O O1 0.114930 0.885071 0.750000
O O2 0.285185 0.889395 0.725565
O O3 0.174779 0.806444 0.650160
O O4 0.171589 0.989985 0.658113
O O5 0.920844 0.118800 0.091362
O O6 0.844988 0.205695 0.000521
O O7 0.022784 0.127209 0.997605
O O8 0.422648 0.540288 0.799514
O O9 0.333844 0.707389 0.838537
O O10 0.690852 0.802141 0.438093
O O11 0.120708 0.532256 0.761488
O O12 0.115462 0.640355 0.668055
#
# Coordination Sequence:
#
# PCOD9559699 Si02
#       7
#    16  16  16   8  16   4  16
#     4  10  20  37  57  84 120 154 191 248 301 362
#     4  10  21  41  66  91 122 168 214 259 315 373
#     4  11  22  37  57  87 122 150 198 251 296 373
#     4  10  22  42  62  90 126 164 212 260 310 380
#     4  10  20  36  60  85 114 153 196 243 300 365
#     4  12  24  32  50  88 120 148 188 242 312 348
#     4  10  22  38  60  85 117 158 197 245 308 361
#
# _framework density 20.061539
#
# number of rings (size 3 to 8) (size 9 to 14) (size 15 to 20)
#    0.000    1.739    2.609    2.087    3.652    0.000 
#    6.261    0.000    0.000    2.609    0.000    0.000 
#    0.000    0.000    0.000    0.000    0.000    0.000 
#
# Total GULP energy -256425.458685 kJ/mol
# GULP energy per Si atom -5574.466493 kJ/mol
# Density = 2.001588 g / cm^3
# Si number density = 20.061539 Si / 1000 Ang^3
#
#
#
# Elastic Constant Matrix: (Units=GPa)
#
#
# Indices 1 2 3 4 5 6 
#
# 1 47.0441 55.5265 32.7853 0.0000 0.0000 0.0000
# 2 55.5265 47.0447 32.7844 0.0000 0.0000 0.0000
# 3 32.7853 32.7844 93.5903 0.0000 0.0000 0.0000
# 4 0.0000 0.0000 0.0000 28.8356 0.0000 0.0000
# 5 0.0000 0.0000 0.0000 0.0000 28.8356 0.0000
# 6 0.0000 0.0000 0.0000 0.0000 0.0000 25.2388
#
#
#
# Elastic Compliance Matrix: (Units=1/GPa)
#
#
# Indices 1 2 3 4 5 6 
#
# 1 -0.052667 0.065229 -0.004400 0.000000 0.000000 0.000000
# 2 0.065229 -0.052666 -0.004402 0.000000 0.000000 0.000000
# 3 -0.004400 -0.004402 0.013768 0.000000 0.000000 0.000000
# 4 0.000000 0.000000 0.000000 0.034679 0.000000 0.000000
# 5 0.000000 0.000000 0.000000 0.000000 0.034679 0.000000
# 6 0.000000 0.000000 0.000000 0.000000 0.000000 0.039621
#
#
# Mechanical properties :
#
#
# Convention : Reuss Voigt Hill
#
# Bulk Modulus (GPa) = 46.96960 47.76349 47.36654
# Shear Modulus (GPa) = -56.59720 21.02086 -17.78817
#
# Velocity S-wave (km/s) = -5.31724 3.24052 -2.98095
# Velocity P-wave (km/s) = 3.77277 6.15316 3.43712
#
# Compressibility (1/GPa) = 0.02129037
#
# Stress axis : x y z
#
# Youngs Moduli (GPa) = -18.98705 -18.98771 72.63214
#
# Poissons Ratio (x) = 1.23855 0.31956
# Poissons Ratio (y) = 1.23851 0.31970
# Poissons Ratio (z) = -0.08354 -0.08358
#
# Static dielectric constant tensor:
#      x y z
#    x 1.670450 0.000000 0.000000 
#    y 0.000000 1.670450 0.000000 
#    z 0.000000 0.000000 1.697890 
# 
# From -- ./inp_files/5403.got.cif
#   From: 2010.05.17/outbox.cif.g08.bks.cpg/sg120_3_cif.got.tgz:5403.got - 2010.05.20 11:28:13.
