data_PCOD9559109
_publ_section_title
;
Structure prediction by ZEFSAII (Michael W. Deem and Ramdas Pophale) SiO2 
 PCOD9559109
Probable space group: I -4 M 2
;
_chemical_formula_sum "Si O2"
_cell_formula_units_Z 104
_cell_length_a 17.808438
_cell_length_b 17.808438
_cell_length_c 19.737269
_cell_angle_alpha 90.000000
_cell_angle_beta 90.000000
_cell_angle_gamma 90.000000
_cell_volume 6259.486649
_symmetry_space_group_name_H-M "I -4 M 2"
_symmetry_group_IT_number 119
_symmetry_cell_setting 'tetragonal'
loop_
_space_group_symop_operation_xyz
x,y,z
y,-x,-z
-x,-y,z
-y,x,-z
y,x,-z
-y,-x,-z
-x,y,z
x,-y,z
1/2+x,1/2+y,1/2+z
1/2+y,1/2-x,1/2-z
1/2-x,1/2-y,1/2+z
1/2-y,1/2+x,1/2-z
1/2+y,1/2+x,1/2-z
1/2-y,1/2-x,1/2-z
1/2-x,1/2+y,1/2+z
1/2+x,1/2-y,1/2+z
loop_
_atom_site_type_symbol
_atom_site_label
_atom_site_fract_x
_atom_site_fract_y
_atom_site_fract_z
Si Si1 0.293385 0.170211 0.521237
Si Si2 0.085339 0.585339 0.250000
Si Si3 0.306382 0.909978 0.378446
Si Si4 0.206066 0.170232 0.271703
Si Si5 0.287899 0.586987 0.503639
Si Si6 0.912693 0.732054 0.338969
Si Si7 0.722197 0.084650 0.155377
O O1 0.229681 0.229681 0.500000
O O2 0.303708 0.114125 0.457548
O O3 0.367340 0.221495 0.534262
O O4 0.269889 0.127888 0.588808
O O5 0.092534 0.500000 0.277205
O O6 0.094943 0.649681 0.305646
O O7 0.235638 0.876700 0.336672
O O8 0.371528 0.857002 0.346595
O O9 0.314147 0.000000 0.371024
O O10 0.261395 0.238606 0.250000
O O11 0.127964 0.207915 0.290651
O O12 0.217068 0.117390 0.207262
O O13 0.363779 0.636222 0.500000
O O14 0.296490 0.500000 0.482992
O O15 0.258286 0.588481 0.581029
O O16 0.000000 0.748976 0.346679
O O17 0.706118 0.000000 0.174622
#
# Coordination Sequence:
#
# PCOD9559109 Si02
#       7
#    16   8  16  16  16  16  16
#     4  10  19  34  53  77 107 140 180 221 261 320
#     4   9  20  36  52  76 110 140 169 216 274 318
#     4  10  19  32  54  80 106 138 171 215 270 318
#     4  10  19  33  53  76 103 136 177 217 257 311
#     4   9  19  33  53  78 108 142 177 219 265 318
#     4  11  21  34  55  79 105 140 182 223 262 314
#     4   9  19  35  53  77 107 138 174 218 266 319
#
# _framework density 16.614781000000001
#
# number of rings (size 3 to 8) (size 9 to 14) (size 15 to 20)
#    0.000    2.231    2.308    0.923    2.154    1.077 
#    0.000    2.308    0.000    8.308    0.000    1.077 
#    0.000    0.000    0.000    0.000    0.000    0.000 
#
# Total GULP energy -289637.466384 kJ/mol
# GULP energy per Si atom -5569.951277 kJ/mol
# Density = 1.657697 g / cm^3
# Si number density = 16.614781 Si / 1000 Ang^3
#
#
#
# Elastic Constant Matrix: (Units=GPa)
#
#
# Indices 1 2 3 4 5 6 
#
# 1 111.4305 64.1224 29.0514 0.0000 0.0000 0.0000
# 2 64.1224 111.4284 29.0503 0.0000 0.0000 0.0000
# 3 29.0514 29.0503 38.0537 0.0000 0.0000 0.0000
# 4 0.0000 0.0000 0.0000 16.9742 0.0000 0.0000
# 5 0.0000 0.0000 0.0000 0.0000 16.9739 0.0000
# 6 0.0000 0.0000 0.0000 0.0000 0.0000 18.6839
#
#
#
# Elastic Compliance Matrix: (Units=1/GPa)
#
#
# Indices 1 2 3 4 5 6 
#
# 1 0.014380 -0.006758 -0.005819 0.000000 0.000000 0.000000
# 2 -0.006758 0.014380 -0.005819 0.000000 0.000000 0.000000
# 3 -0.005819 -0.005819 0.035163 0.000000 0.000000 0.000000
# 4 0.000000 0.000000 0.000000 0.058913 0.000000 0.000000
# 5 0.000000 0.000000 0.000000 0.000000 0.058914 0.000000
# 6 0.000000 0.000000 0.000000 0.000000 0.000000 0.053522
#
#
# Mechanical properties :
#
#
# Convention : Reuss Voigt Hill
#
# Bulk Modulus (GPa) = 36.85696 56.15117 46.50407
# Shear Modulus (GPa) = 17.78673 19.77231 18.77952
#
# Velocity S-wave (km/s) = 3.27545 3.45344 3.36563
# Velocity P-wave (km/s) = 6.04452 7.05485 6.56914
#
# Compressibility (1/GPa) = 0.02713192
#
# Stress axis : x y z
#
# Youngs Moduli (GPa) = 69.53952 69.53924 28.43883
#
# Poissons Ratio (x) = 0.46996 0.16549
# Poissons Ratio (y) = 0.46996 0.16547
# Poissons Ratio (z) = 0.40466 0.40462
#
# Static dielectric constant tensor:
#      x y z
#    x 1.556830 0.000000 0.000000 
#    y 0.000000 1.556830 0.000000 
#    z 0.000000 0.000000 1.567210 
# 
# From -- ./inp_files/6706.got.cif
#   From: 2010.05.17/outbox.cif.g08.bks.cpg/sg119_4_cif.got.tgz:6706.got - 2010.05.20 11:21:29.
