data_PCOD9559479
_publ_section_title
;
Structure prediction by ZEFSAII (Michael W. Deem and Ramdas Pophale) SiO2 
 PCOD9559479
Probable space group: I -4 M 2
;
_chemical_formula_sum "Si O2"
_cell_formula_units_Z 80
_cell_length_a 11.616788
_cell_length_b 11.616788
_cell_length_c 31.012950
_cell_angle_alpha 90.000000
_cell_angle_beta 90.000000
_cell_angle_gamma 90.000000
_cell_volume 4185.190266
_symmetry_space_group_name_H-M "I -4 M 2"
_symmetry_group_IT_number 119
_symmetry_cell_setting 'tetragonal'
loop_
_space_group_symop_operation_xyz
x,y,z
y,-x,-z
-x,-y,z
-y,x,-z
y,x,-z
-y,-x,-z
-x,y,z
x,-y,z
1/2+x,1/2+y,1/2+z
1/2+y,1/2-x,1/2-z
1/2-x,1/2-y,1/2+z
1/2-y,1/2+x,1/2-z
1/2+y,1/2+x,1/2-z
1/2-y,1/2-x,1/2-z
1/2-x,1/2+y,1/2+z
1/2+x,1/2-y,1/2+z
loop_
_atom_site_type_symbol
_atom_site_label
_atom_site_fract_x
_atom_site_fract_y
_atom_site_fract_z
Si Si1 0.635415 0.500000 0.437854
Si Si2 0.865868 0.000000 0.834318
Si Si3 0.763021 0.230690 0.201537
Si Si4 0.137560 0.865767 0.373723
Si Si5 0.767388 0.749374 0.952619
Si Si6 0.863007 0.500000 0.579590
Si Si7 0.137275 0.500000 0.681015
O O1 0.500000 0.500000 0.451226
O O2 0.634349 0.500000 0.385978
O O3 0.701716 0.614959 0.452074
O O4 0.802434 0.113561 0.817815
O O5 0.000000 0.000000 0.819994
O O6 0.775218 0.275218 0.250000
O O7 0.694268 0.314451 0.169372
O O8 0.690233 0.112876 0.201927
O O9 0.185156 0.793821 0.414370
O O10 0.000000 0.865423 0.373630
O O11 0.177563 0.000000 0.376054
O O12 0.887614 0.686626 0.942871
O O13 0.720821 0.720821 0.000000
O O14 0.828012 0.500000 0.630165
O O15 0.000000 0.500000 0.578078
O O16 0.000000 0.500000 0.683607
#
# Coordination Sequence:
#
# PCOD9559479 Si02
#       7
#     8   8  16  16  16   8   8
#     4  11  21  39  65  99 140 172 208 263 333 401
#     4  11  22  43  69  99 137 177 212 266 335 397
#     4  12  26  42  67 102 135 172 221 271 327 395
#     4  11  26  48  69  92 131 179 224 274 330 390
#     4  12  24  41  66 101 131 170 219 271 330 396
#     4  11  21  40  66  94 131 166 212 277 337 383
#     4  11  22  38  66 102 136 165 208 278 341 381
#
# _framework density 19.115020999999999
#
# number of rings (size 3 to 8) (size 9 to 14) (size 15 to 20)
#    0.000    0.600    6.000    1.800    4.200    1.600 
#    0.000    3.000    0.000    0.000    0.000    0.000 
#    0.000    0.000    0.000    0.000    0.000    0.000 
#
# Total GULP energy -223761.272958 kJ/mol
# GULP energy per Si atom -5594.031824 kJ/mol
# Density = 1.907151 g / cm^3
# Si number density = 19.115021 Si / 1000 Ang^3
#
#
#
# Elastic Constant Matrix: (Units=GPa)
#
#
# Indices 1 2 3 4 5 6 
#
# 1 89.7754 35.5095 34.4293 0.0000 0.0000 0.0000
# 2 35.5095 89.7754 34.4293 0.0000 0.0000 0.0000
# 3 34.4293 34.4293 138.0643 0.0000 0.0000 0.0000
# 4 0.0000 0.0000 0.0000 20.4973 0.0000 0.0000
# 5 0.0000 0.0000 0.0000 0.0000 20.4973 0.0000
# 6 0.0000 0.0000 0.0000 0.0000 0.0000 110.0039
#
#
#
# Elastic Compliance Matrix: (Units=1/GPa)
#
#
# Indices 1 2 3 4 5 6 
#
# 1 0.013839 -0.004589 -0.002307 0.000000 0.000000 0.000000
# 2 -0.004589 0.013839 -0.002307 0.000000 0.000000 0.000000
# 3 -0.002307 -0.002307 0.008393 0.000000 0.000000 0.000000
# 4 0.000000 0.000000 0.000000 0.048787 0.000000 0.000000
# 5 0.000000 0.000000 0.000000 0.000000 0.048787 0.000000
# 6 0.000000 0.000000 0.000000 0.000000 0.000000 0.009091
#
#
# Mechanical properties :
#
#
# Convention : Reuss Voigt Hill
#
# Bulk Modulus (GPa) = 56.60535 58.48349 57.54442
# Shear Modulus (GPa) = 29.93506 44.41618 37.17562
#
# Velocity S-wave (km/s) = 3.96163 4.82563 4.41482
# Velocity P-wave (km/s) = 7.11360 7.85563 7.49381
#
# Compressibility (1/GPa) = 0.01766618
#
# Stress axis : x y z
#
# Youngs Moduli (GPa) = 72.26134 72.26134 119.14138
#
# Poissons Ratio (x) = 0.33162 0.27481
# Poissons Ratio (y) = 0.33162 0.27481
# Poissons Ratio (z) = 0.16668 0.16668
#
# Static dielectric constant tensor:
#      x y z
#    x 1.644710 0.000000 0.000000 
#    y 0.000000 1.644710 0.000000 
#    z 0.000000 0.000000 1.683010 
# 
# From -- ./inp_files/10219.got.cif
#   From: 2010.05.17/outbox.cif.g08.bks.cpg/sg119_6_cif.got.tgz:10219.got - 2010.05.20 11:21:29.
