data_PCOD9559256
_publ_section_title
;
Structure prediction by ZEFSAII (Michael W. Deem and Ramdas Pophale) SiO2 
 PCOD9559256
Probable space group: I -4 M 2
;
_chemical_formula_sum "Si O2"
_cell_formula_units_Z 112
_cell_length_a 14.484448
_cell_length_b 14.484448
_cell_length_c 26.528542
_cell_angle_alpha 90.000000
_cell_angle_beta 90.000000
_cell_angle_gamma 90.000000
_cell_volume 5565.667787
_symmetry_space_group_name_H-M "I -4 M 2"
_symmetry_group_IT_number 119
_symmetry_cell_setting 'tetragonal'
loop_
_space_group_symop_operation_xyz
x,y,z
y,-x,-z
-x,-y,z
-y,x,-z
y,x,-z
-y,-x,-z
-x,y,z
x,-y,z
1/2+x,1/2+y,1/2+z
1/2+y,1/2-x,1/2-z
1/2-x,1/2-y,1/2+z
1/2-y,1/2+x,1/2-z
1/2+y,1/2+x,1/2-z
1/2-y,1/2-x,1/2-z
1/2-x,1/2+y,1/2+z
1/2+x,1/2-y,1/2+z
loop_
_atom_site_type_symbol
_atom_site_label
_atom_site_fract_x
_atom_site_fract_y
_atom_site_fract_z
Si Si1 0.211849 0.298646 0.098867
Si Si2 0.108938 0.291401 0.795014
Si Si3 0.101171 0.888259 0.244015
Si Si4 0.107474 0.607423 0.492268
Si Si5 0.608348 0.389937 0.137461
Si Si6 0.888734 0.609055 0.192913
Si Si7 0.106427 0.279760 0.905344
O O1 0.170073 0.345786 0.049629
O O2 0.318270 0.330696 0.106456
O O3 0.158956 0.335456 0.148222
O O4 0.206487 0.188627 0.091866
O O5 0.155444 0.344557 0.750000
O O6 0.141466 0.185218 0.790761
O O7 0.123883 0.328153 0.851204
O O8 0.000000 0.292601 0.785778
O O9 0.122140 0.869821 0.302837
O O10 0.000000 0.849972 0.231436
O O11 0.095588 0.000000 0.240378
O O12 0.116166 0.500000 0.476493
O O13 0.154783 0.615505 0.546682
O O14 0.000000 0.629731 0.496161
O O15 0.500000 0.366815 0.129658
O O16 0.619127 0.500000 0.127213
O O17 0.864817 0.500000 0.187245
O O18 0.862157 0.637844 0.250000
O O19 0.000000 0.615546 0.189638
O O20 0.000000 0.245013 0.903562
#
# Coordination Sequence:
#
# PCOD9559256 Si02
#       7
#    16  16  16  16  16  16  16
#     4  12  21  35  63  90 115 156 206 247 290 358
#     4  10  20  35  56  83 115 150 193 241 289 348
#     4   8  15  30  51  75 109 154 195 228 267 324
#     4  10  22  42  67  91 113 142 190 251 309 365
#     4   9  18  31  50  85 130 164 190 231 294 365
#     4   9  19  36  59  93 134 165 194 243 304 359
#     4  10  24  42  57  80 118 159 197 246 300 347
#
# _framework density 20.123373000000001
#
# number of rings (size 3 to 8) (size 9 to 14) (size 15 to 20)
#    0.000    2.286    0.000    4.286    0.000    4.143 
#    0.000    4.286    0.000    4.286    0.000    8.000 
#    0.000    0.286    0.000    0.000    0.000    0.000 
#
# Total GULP energy -312778.115480 kJ/mol
# GULP energy per Si atom -5585.323491 kJ/mol
# Density = 2.007757 g / cm^3
# Si number density = 20.123373 Si / 1000 Ang^3
#
#
#
# Elastic Constant Matrix: (Units=GPa)
#
#
# Indices 1 2 3 4 5 6 
#
# 1 81.5663 55.3434 70.5914 0.0000 0.0000 0.0000
# 2 55.3434 81.5645 70.5925 0.0000 0.0000 0.0000
# 3 70.5914 70.5925 131.1229 0.0000 0.0000 0.0000
# 4 0.0000 0.0000 0.0000 28.7336 0.0000 0.0000
# 5 0.0000 0.0000 0.0000 0.0000 28.7337 0.0000
# 6 0.0000 0.0000 0.0000 0.0000 0.0000 22.1907
#
#
#
# Elastic Compliance Matrix: (Units=1/GPa)
#
#
# Indices 1 2 3 4 5 6 
#
# 1 0.027277 -0.010858 -0.008839 0.000000 0.000000 0.000000
# 2 -0.010858 0.027279 -0.008841 0.000000 0.000000 0.000000
# 3 -0.008839 -0.008841 0.017145 0.000000 0.000000 0.000000
# 4 0.000000 0.000000 0.000000 0.034802 0.000000 0.000000
# 5 0.000000 0.000000 0.000000 0.000000 0.034802 0.000000
# 6 0.000000 0.000000 0.000000 0.000000 0.000000 0.045064
#
#
# Mechanical properties :
#
#
# Convention : Reuss Voigt Hill
#
# Bulk Modulus (GPa) = 68.37616 76.36759 72.37188
# Shear Modulus (GPa) = 20.13525 22.44670 21.29097
#
# Velocity S-wave (km/s) = 3.16664 3.34347 3.25625
# Velocity P-wave (km/s) = 6.88639 7.27579 7.08377
#
# Compressibility (1/GPa) = 0.01462498
#
# Stress axis : x y z
#
# Youngs Moduli (GPa) = 36.66069 36.65813 58.32659
#
# Poissons Ratio (x) = 0.39803 0.51557
# Poissons Ratio (y) = 0.39806 0.51565
# Poissons Ratio (z) = 0.32406 0.32409
#
# Static dielectric constant tensor:
#      x y z
#    x 1.737850 0.000000 0.000000 
#    y 0.000000 1.737850 0.000000 
#    z 0.000000 0.000000 1.684200 
# 
# From -- ./inp_files/8853.got.cif
#   From: 2010.05.17/outbox.cif.g08.bks.cpg/sg119_5_cif.got.tgz:8853.got - 2010.05.20 11:21:29.
