data_PCOD9559316
_publ_section_title
;
Structure prediction by ZEFSAII (Michael W. Deem and Ramdas Pophale) SiO2 
 PCOD9559316
Probable space group: I -4 M 2
;
_chemical_formula_sum "Si O2"
_cell_formula_units_Z 88
_cell_length_a 18.651292
_cell_length_b 18.651292
_cell_length_c 13.827308
_cell_angle_alpha 90.000000
_cell_angle_beta 90.000000
_cell_angle_gamma 90.000000
_cell_volume 4810.115220
_symmetry_space_group_name_H-M "I -4 M 2"
_symmetry_group_IT_number 119
_symmetry_cell_setting 'tetragonal'
loop_
_space_group_symop_operation_xyz
x,y,z
y,-x,-z
-x,-y,z
-y,x,-z
y,x,-z
-y,-x,-z
-x,y,z
x,-y,z
1/2+x,1/2+y,1/2+z
1/2+y,1/2-x,1/2-z
1/2-x,1/2-y,1/2+z
1/2-y,1/2+x,1/2-z
1/2+y,1/2+x,1/2-z
1/2-y,1/2-x,1/2-z
1/2-x,1/2+y,1/2+z
1/2+x,1/2-y,1/2+z
loop_
_atom_site_type_symbol
_atom_site_label
_atom_site_fract_x
_atom_site_fract_y
_atom_site_fract_z
Si Si1 0.176805 0.916786 0.273459
Si Si2 0.420262 0.084602 0.354377
Si Si3 0.217534 0.915612 0.645532
Si Si4 0.186176 0.313824 0.250000
Si Si5 0.879540 0.282111 0.558716
Si Si6 0.684363 0.284911 0.396877
O O1 0.122206 0.855182 0.314436
O O2 0.241237 0.913700 0.350493
O O3 0.204262 0.884542 0.171398
O O4 0.151884 0.000000 0.266564
O O5 0.500000 0.114764 0.372945
O O6 0.389422 0.110579 0.250000
O O7 0.363614 0.092796 0.439895
O O8 0.427080 0.000000 0.338373
O O9 0.288833 0.887247 0.700925
O O10 0.234569 0.894698 0.534884
O O11 0.209586 0.000000 0.654473
O O12 0.246952 0.306882 0.332883
O O13 0.796150 0.295520 0.576899
O O14 0.676379 0.323622 0.500000
#
# Coordination Sequence:
#
# PCOD9559316 Si02
#       6
#    16  16  16   8  16  16
#     4  11  23  38  61  94 126 162 207 259 316 374
#     4   9  18  30  44  71 116 161 195 240 307 370
#     4  11  23  39  63  91 120 164 212 256 315 374
#     4  10  20  40  60  83 118 161 204 254 298 354
#     4  12  19  33  60  89 123 161 205 257 308 371
#     4  11  19  36  60  86 119 155 204 253 299 359
#
# _framework density 18.294778999999998
#
# number of rings (size 3 to 8) (size 9 to 14) (size 15 to 20)
#    0.000    1.273    5.455    3.818    0.000    2.545 
#    0.000    4.545    0.000    3.545    0.000    0.000 
#    0.000    0.000    0.000    0.000    0.000    0.000 
#
# Total GULP energy -245053.288033 kJ/mol
# GULP energy per Si atom -5569.392910 kJ/mol
# Density = 1.825314 g / cm^3
# Si number density = 18.294779 Si / 1000 Ang^3
#
#
#
# Elastic Constant Matrix: (Units=GPa)
#
#
# Indices 1 2 3 4 5 6 
#
# 1 104.6264 28.4505 37.9501 0.0000 0.0000 0.0000
# 2 28.4505 104.6256 37.9509 0.0000 0.0000 0.0000
# 3 37.9501 37.9509 113.5601 0.0000 0.0000 0.0000
# 4 0.0000 0.0000 0.0000 19.4977 0.0000 0.0000
# 5 0.0000 0.0000 0.0000 0.0000 19.4977 0.0000
# 6 0.0000 0.0000 0.0000 0.0000 0.0000 11.6344
#
#
#
# Elastic Compliance Matrix: (Units=1/GPa)
#
#
# Indices 1 2 3 4 5 6 
#
# 1 0.011206 -0.001922 -0.003103 0.000000 0.000000 0.000000
# 2 -0.001922 0.011206 -0.003103 0.000000 0.000000 0.000000
# 3 -0.003103 -0.003103 0.010880 0.000000 0.000000 0.000000
# 4 0.000000 0.000000 0.000000 0.051288 0.000000 0.000000
# 5 0.000000 0.000000 0.000000 0.000000 0.051288 0.000000
# 6 0.000000 0.000000 0.000000 0.000000 0.000000 0.085952
#
#
# Mechanical properties :
#
#
# Convention : Reuss Voigt Hill
#
# Bulk Modulus (GPa) = 58.69488 59.05724 58.87606
# Shear Modulus (GPa) = 20.51258 24.69000 22.60129
#
# Velocity S-wave (km/s) = 3.35210 3.67763 3.51863
# Velocity P-wave (km/s) = 6.86547 7.09819 6.98280
#
# Compressibility (1/GPa) = 0.01703726
#
# Stress axis : x y z
#
# Youngs Moduli (GPa) = 89.23996 89.23860 91.91479
#
# Poissons Ratio (x) = 0.17149 0.28517
# Poissons Ratio (y) = 0.17150 0.28519
# Poissons Ratio (z) = 0.27687 0.27688
#
# Static dielectric constant tensor:
#      x y z
#    x 1.676470 0.000000 0.000000 
#    y 0.000000 1.676470 0.000000 
#    z 0.000000 0.000000 1.668180 
# 
# From -- ./inp_files/5406.got.cif
#   From: 2010.05.17/outbox.cif.g08.bks.cpg/sg119_3_cif.got.tgz:5406.got - 2010.05.20 11:21:29.
