data_PCOD9559865
_publ_section_title
;
Structure prediction by ZEFSAII (Michael W. Deem and Ramdas Pophale) SiO2 
 PCOD9559865
Probable space group: I -4 C 2
;
_chemical_formula_sum "Si O2"
_cell_formula_units_Z 56
_cell_length_a 13.886192
_cell_length_b 13.886192
_cell_length_c 10.914545
_cell_angle_alpha 90.000000
_cell_angle_beta 90.000000
_cell_angle_gamma 90.000000
_cell_volume 2104.611637
_symmetry_space_group_name_H-M "I -4 C 2"
_symmetry_group_IT_number 120
_symmetry_cell_setting 'tetragonal'
loop_
_space_group_symop_operation_xyz
x,y,z
y,-x,-z
-x,-y,z
-y,x,-z
y,x,1/2-z
-y,-x,1/2-z
-x,y,1/2+z
x,-y,1/2+z
1/2+x,1/2+y,1/2+z
1/2+y,1/2-x,1/2-z
1/2-x,1/2-y,1/2+z
1/2-y,1/2+x,1/2-z
1/2+y,1/2+x,-z
1/2-y,1/2-x,-z
1/2-x,1/2+y,z
1/2+x,1/2-y,z
loop_
_atom_site_type_symbol
_atom_site_label
_atom_site_fract_x
_atom_site_fract_y
_atom_site_fract_z
Si Si1 0.952808 0.206630 0.087637
Si Si2 0.297123 0.702878 0.250000
Si Si3 0.787720 0.492956 0.157857
Si Si4 0.000000 0.500000 0.250000
Si Si5 0.264815 0.764815 0.000000
Si Si6 0.000000 0.000000 0.500000
O O1 0.017269 0.260541 0.982727
O O2 0.984069 0.095339 0.081388
O O3 0.844560 0.218983 0.043290
O O4 0.950315 0.250666 0.222983
O O5 0.274503 0.603487 0.183577
O O6 0.309608 0.777077 0.135145
O O7 0.902652 0.483233 0.171498
#
# Coordination Sequence:
#
# PCOD9559865 Si02
#       6
#    16   8  16   4   8   4
#     4  11  25  45  69 104 147 189 241 302 364 435
#     4  10  22  42  66  96 140 188 232 292 362 426
#     4  11  25  45  69 104 147 189 241 302 364 435
#     4  12  28  46  80 114 144 198 256 302 372 450
#     4  10  22  42  66  96 140 188 232 292 362 426
#     4  12  28  46  80 114 144 198 256 302 372 450
#
# _framework density 26.608233999999999
#
# number of rings (size 3 to 8) (size 9 to 14) (size 15 to 20)
#    0.000    1.143    0.000    6.857    0.000   13.714 
#    0.000    0.000    0.000    0.000    0.000    0.000 
#    0.000    0.000    0.000    0.000    0.000    0.000 
#
# Total GULP energy -156283.194779 kJ/mol
# GULP energy per Si atom -5581.542671 kJ/mol
# Density = 2.654767 g / cm^3
# Si number density = 26.608234 Si / 1000 Ang^3
#
#
#
# Elastic Constant Matrix: (Units=GPa)
#
#
# Indices 1 2 3 4 5 6 
#
# 1 117.9882 36.1622 42.9825 0.0000 0.0000 0.0000
# 2 36.1622 117.9869 42.9829 0.0000 0.0000 0.0000
# 3 42.9825 42.9829 195.8112 0.0000 0.0000 0.0000
# 4 0.0000 0.0000 0.0000 24.6280 0.0000 0.0000
# 5 0.0000 0.0000 0.0000 0.0000 24.6277 0.0000
# 6 0.0000 0.0000 0.0000 0.0000 0.0000 35.1085
#
#
#
# Elastic Compliance Matrix: (Units=1/GPa)
#
#
# Indices 1 2 3 4 5 6 
#
# 1 0.009807 -0.002415 -0.001623 0.000000 0.000000 0.000000
# 2 -0.002415 0.009807 -0.001623 0.000000 0.000000 0.000000
# 3 -0.001623 -0.001623 0.005819 0.000000 0.000000 0.000000
# 4 0.000000 0.000000 0.000000 0.040604 0.000000 0.000000
# 5 0.000000 0.000000 0.000000 0.000000 0.040605 0.000000
# 6 0.000000 0.000000 0.000000 0.000000 0.000000 0.028483
#
#
# Mechanical properties :
#
#
# Convention : Reuss Voigt Hill
#
# Bulk Modulus (GPa) = 70.85688 75.11575 72.98631
# Shear Modulus (GPa) = 33.08007 37.51677 35.29842
#
# Velocity S-wave (km/s) = 3.52977 3.75903 3.64620
# Velocity P-wave (km/s) = 6.58026 6.86527 6.72428
#
# Compressibility (1/GPa) = 0.01411296
#
# Stress axis : x y z
#
# Youngs Moduli (GPa) = 101.97253 101.97112 171.84089
#
# Poissons Ratio (x) = 0.24621 0.27883
# Poissons Ratio (y) = 0.24622 0.27884
# Poissons Ratio (z) = 0.16546 0.16547
#
# Static dielectric constant tensor:
#      x y z
#    x 2.200040 0.000000 0.000000 
#    y 0.000000 2.200040 0.000000 
#    z 0.000000 0.000000 2.510160 
# 
# From -- ./inp_files/2255.got.cif
#   From: 2010.05.17/outbox.cif.g08.bks.cpg/sg120_2_cif.got.tgz:2255.got - 2010.05.20 11:28:13.
