data_PCOD9559510
_publ_section_title
;
Structure prediction by ZEFSAII (Michael W. Deem and Ramdas Pophale) SiO2 
 PCOD9559510
Probable space group: I -4 M 2
;
_chemical_formula_sum "Si O2"
_cell_formula_units_Z 48
_cell_length_a 7.984057
_cell_length_b 7.984057
_cell_length_c 38.435934
_cell_angle_alpha 90.000000
_cell_angle_beta 90.000000
_cell_angle_gamma 90.000000
_cell_volume 2450.105000
_symmetry_space_group_name_H-M "I -4 M 2"
_symmetry_group_IT_number 119
_symmetry_cell_setting 'tetragonal'
loop_
_space_group_symop_operation_xyz
x,y,z
y,-x,-z
-x,-y,z
-y,x,-z
y,x,-z
-y,-x,-z
-x,y,z
x,-y,z
1/2+x,1/2+y,1/2+z
1/2+y,1/2-x,1/2-z
1/2-x,1/2-y,1/2+z
1/2-y,1/2+x,1/2-z
1/2+y,1/2+x,1/2-z
1/2-y,1/2-x,1/2-z
1/2-x,1/2+y,1/2+z
1/2+x,1/2-y,1/2+z
loop_
_atom_site_type_symbol
_atom_site_label
_atom_site_fract_x
_atom_site_fract_y
_atom_site_fract_z
Si Si1 0.185670 0.699070 0.037168
Si Si2 0.500000 0.199320 0.162761
Si Si3 0.500000 0.200783 0.083819
Si Si4 0.701353 0.808652 0.789132
O O1 0.191504 0.500000 0.030862
O O2 0.334570 0.743567 0.063197
O O3 0.000000 0.742487 0.050608
O O4 0.214728 0.785273 0.000000
O O5 0.500000 0.266343 0.123327
O O6 0.667822 0.249765 0.183361
O O7 0.500000 0.000000 0.160707
O O8 0.500000 0.000000 0.084310
O O9 0.500000 0.818317 0.788678
O O10 0.748356 0.751645 0.750000
O O11 0.763756 0.000000 0.795574
#
# Coordination Sequence:
#
# PCOD9559510 Si02
#       4
#    16   8   8  16
#     4  11  23  40  65  94 123 161 212 266 316 377
#     4  11  25  39  59  91 129 167 207 265 326 382
#     4  11  25  43  59  89 131 169 213 260 321 391
#     4   9  20  39  62  89 120 159 212 265 315 381
#
# _framework density 19.590999
#
# number of rings (size 3 to 8) (size 9 to 14) (size 15 to 20)
#    0.000    1.667    1.667    3.000    2.333    7.000 
#    0.000    6.667    0.000    0.000    0.000    0.000 
#    0.000    0.000    0.000    0.000    0.000    0.000 
#
# Total GULP energy -134053.646516 kJ/mol
# GULP energy per Si atom -5585.568605 kJ/mol
# Density = 1.954641 g / cm^3
# Si number density = 19.590999 Si / 1000 Ang^3
#
#
#
# Elastic Constant Matrix: (Units=GPa)
#
#
# Indices 1 2 3 4 5 6 
#
# 1 106.3221 38.5233 63.6333 0.0000 0.0000 0.0000
# 2 38.5233 106.3213 63.6320 0.0000 0.0000 0.0000
# 3 63.6333 63.6320 155.1018 0.0000 0.0000 0.0000
# 4 0.0000 0.0000 0.0000 27.9260 0.0000 0.0000
# 5 0.0000 0.0000 0.0000 0.0000 27.9261 0.0000
# 6 0.0000 0.0000 0.0000 0.0000 0.0000 7.5994
#
#
#
# Elastic Compliance Matrix: (Units=1/GPa)
#
#
# Indices 1 2 3 4 5 6 
#
# 1 0.012772 -0.001977 -0.004429 0.000000 0.000000 0.000000
# 2 -0.001977 0.012772 -0.004429 0.000000 0.000000 0.000000
# 3 -0.004429 -0.004429 0.010081 0.000000 0.000000 0.000000
# 4 0.000000 0.000000 0.000000 0.035809 0.000000 0.000000
# 5 0.000000 0.000000 0.000000 0.000000 0.035809 0.000000
# 6 0.000000 0.000000 0.000000 0.000000 0.000000 0.131590
#
#
# Mechanical properties :
#
#
# Convention : Reuss Voigt Hill
#
# Bulk Modulus (GPa) = 71.65188 77.70248 74.67718
# Shear Modulus (GPa) = 18.85683 26.15406 22.50545
#
# Velocity S-wave (km/s) = 3.10582 3.65773 3.39302
# Velocity P-wave (km/s) = 7.03668 7.58862 7.31785
#
# Compressibility (1/GPa) = 0.01395637
#
# Stress axis : x y z
#
# Youngs Moduli (GPa) = 78.29323 78.29350 99.19228
#
# Poissons Ratio (x) = 0.15480 0.43932
# Poissons Ratio (y) = 0.15480 0.43931
# Poissons Ratio (z) = 0.34676 0.34675
#
# Static dielectric constant tensor:
#      x y z
#    x 1.676540 0.000000 0.000000 
#    y 0.000000 1.676540 0.000000 
#    z 0.000000 0.000000 1.682010 
# 
# From -- ./inp_files/9872.got.cif
#   From: 2010.05.17/outbox.cif.g08.bks.cpg/sg119_5_cif.got.tgz:9872.got - 2010.05.20 11:21:29.
