data_PCOD9559232
_publ_section_title
;
Structure prediction by ZEFSAII (Michael W. Deem and Ramdas Pophale) SiO2 
 PCOD9559232
Probable space group: I -4 M 2
;
_chemical_formula_sum "Si O2"
_cell_formula_units_Z 56
_cell_length_a 18.565758
_cell_length_b 18.565758
_cell_length_c 7.736059
_cell_angle_alpha 90.000000
_cell_angle_beta 90.000000
_cell_angle_gamma 90.000000
_cell_volume 2666.521832
_symmetry_space_group_name_H-M "I -4 M 2"
_symmetry_group_IT_number 119
_symmetry_cell_setting 'tetragonal'
loop_
_space_group_symop_operation_xyz
x,y,z
y,-x,-z
-x,-y,z
-y,x,-z
y,x,-z
-y,-x,-z
-x,y,z
x,-y,z
1/2+x,1/2+y,1/2+z
1/2+y,1/2-x,1/2-z
1/2-x,1/2-y,1/2+z
1/2-y,1/2+x,1/2-z
1/2+y,1/2+x,1/2-z
1/2-y,1/2-x,1/2-z
1/2-x,1/2+y,1/2+z
1/2+x,1/2-y,1/2+z
loop_
_atom_site_type_symbol
_atom_site_label
_atom_site_fract_x
_atom_site_fract_y
_atom_site_fract_z
Si Si1 0.210176 0.178467 0.196128
Si Si2 0.417290 0.156035 0.391135
Si Si3 0.417578 0.417131 0.711851
Si Si4 0.586454 0.086454 0.750000
O O1 0.245952 0.254049 0.250000
O O2 0.275142 0.121483 0.190767
O O3 0.140218 0.141067 0.279355
O O4 0.189355 0.189355 0.000000
O O5 0.500000 0.173927 0.415976
O O6 0.406289 0.093712 0.250000
O O7 0.389772 0.128860 0.577693
O O8 0.416446 0.416446 0.500000
O O9 0.500000 0.401151 0.763323
O O10 0.400581 0.500000 0.762045
O O11 0.500000 0.096916 0.773816
#
# Coordination Sequence:
#
# PCOD9559232 Si02
#       4
#    16  16  16   8
#     4  10  21  34  52  76 112 145 180 225 283 344
#     4  10  20  34  55  82 114 151 190 233 281 332
#     4   8  14  28  53  81 103 130 179 234 276 323
#     4   9  18  32  52  80 114 152 196 234 269 326
#
# _framework density 21.001139999999999
#
# number of rings (size 3 to 8) (size 9 to 14) (size 15 to 20)
#    0.000    2.714    0.000    2.571    2.000    2.571 
#    0.000    0.000    0.000    3.429    0.000    2.000 
#    0.000    0.571    0.000    0.000    0.000    0.000 
#
# Total GULP energy -155982.965990 kJ/mol
# GULP energy per Si atom -5570.820214 kJ/mol
# Density = 2.095334 g / cm^3
# Si number density = 21.001140 Si / 1000 Ang^3
#
#
#
# Elastic Constant Matrix: (Units=GPa)
#
#
# Indices 1 2 3 4 5 6 
#
# 1 100.4506 70.7442 7.1261 0.0000 0.0000 0.0000
# 2 70.7442 100.4506 7.1257 0.0000 0.0000 0.0000
# 3 7.1261 7.1257 55.1134 0.0000 0.0000 0.0000
# 4 0.0000 0.0000 0.0000 17.1645 0.0000 0.0000
# 5 0.0000 0.0000 0.0000 0.0000 17.1646 0.0000
# 6 0.0000 0.0000 0.0000 0.0000 0.0000 34.0795
#
#
#
# Elastic Compliance Matrix: (Units=1/GPa)
#
#
# Indices 1 2 3 4 5 6 
#
# 1 0.019784 -0.013879 -0.000764 0.000000 0.000000 0.000000
# 2 -0.013879 0.019784 -0.000763 0.000000 0.000000 0.000000
# 3 -0.000764 -0.000763 0.018342 0.000000 0.000000 0.000000
# 4 0.000000 0.000000 0.000000 0.058260 0.000000 0.000000
# 5 0.000000 0.000000 0.000000 0.000000 0.058259 0.000000
# 6 0.000000 0.000000 0.000000 0.000000 0.000000 0.029343
#
#
# Mechanical properties :
#
#
# Convention : Reuss Voigt Hill
#
# Bulk Modulus (GPa) = 36.90354 47.33405 42.11879
# Shear Modulus (GPa) = 20.52409 25.08295 22.80352
#
# Velocity S-wave (km/s) = 3.12955 3.45970 3.29876
# Velocity P-wave (km/s) = 5.53796 6.20863 5.88286
#
# Compressibility (1/GPa) = 0.02709767
#
# Stress axis : x y z
#
# Youngs Moduli (GPa) = 50.54641 50.54642 54.52020
#
# Poissons Ratio (x) = 0.70153 0.04163
# Poissons Ratio (y) = 0.70153 0.04162
# Poissons Ratio (z) = 0.03860 0.03858
#
# Static dielectric constant tensor:
#      x y z
#    x 1.725500 0.000000 0.000000 
#    y 0.000000 1.725510 0.000000 
#    z 0.000000 0.000000 1.761440 
# 
# From -- ./inp_files/1979.got.cif
#   From: 2010.05.17/outbox.cif.g08.bks.cpg/sg119_1_cif.got.tgz:1979.got - 2010.05.20 11:21:29.
