data_PCOD9559538
_publ_section_title
;
Structure prediction by ZEFSAII (Michael W. Deem and Ramdas Pophale) SiO2 
 PCOD9559538
Probable space group: I -4 M 2
;
_chemical_formula_sum "Si O2"
_cell_formula_units_Z 48
_cell_length_a 7.341640
_cell_length_b 7.341640
_cell_length_c 34.493263
_cell_angle_alpha 90.000000
_cell_angle_beta 90.000000
_cell_angle_gamma 90.000000
_cell_volume 1859.175765
_symmetry_space_group_name_H-M "I -4 M 2"
_symmetry_group_IT_number 119
_symmetry_cell_setting 'tetragonal'
loop_
_space_group_symop_operation_xyz
x,y,z
y,-x,-z
-x,-y,z
-y,x,-z
y,x,-z
-y,-x,-z
-x,y,z
x,-y,z
1/2+x,1/2+y,1/2+z
1/2+y,1/2-x,1/2-z
1/2-x,1/2-y,1/2+z
1/2-y,1/2+x,1/2-z
1/2+y,1/2+x,1/2-z
1/2-y,1/2-x,1/2-z
1/2-x,1/2+y,1/2+z
1/2+x,1/2-y,1/2+z
loop_
_atom_site_type_symbol
_atom_site_label
_atom_site_fract_x
_atom_site_fract_y
_atom_site_fract_z
Si Si1 0.208456 0.782275 0.458958
Si Si2 0.718044 0.209417 0.625251
Si Si3 0.721567 0.783506 0.791737
O O1 0.286244 0.713756 0.500000
O O2 0.294243 0.752455 0.416820
O O3 0.000000 0.711787 0.455865
O O4 0.201090 0.000000 0.463684
O O5 0.500000 0.202944 0.628870
O O6 0.785777 0.286579 0.666366
O O7 0.786501 0.000000 0.623155
O O8 0.500000 0.764850 0.792507
O O9 0.786967 0.713034 0.750000
O O10 0.760253 0.000000 0.790750
#
# Coordination Sequence:
#
# PCOD9559538 Si02
#       3
#    16  16  16
#     4   8  13  20  28  38  56  83 107 123 148 189
#     4   8  12  17  26  40  57  77 101 128 155 182
#     4   7   9  13  21  34  53  74  91 110 144 185
#
# _framework density 25.817892000000001
#
# number of rings (size 3 to 8) (size 9 to 14) (size 15 to 20)
#    0.000    4.333    0.000    4.000    0.000    0.000 
#    0.000    0.000    0.000    0.000    0.000    0.000 
#    0.000    3.333    0.000    9.333    0.000   10.000 
#
# Total GULP energy -133618.319345 kJ/mol
# GULP energy per Si atom -5567.429973 kJ/mol
# Density = 2.575913 g / cm^3
# Si number density = 25.817892 Si / 1000 Ang^3
#
#
#
# Elastic Constant Matrix: (Units=GPa)
#
#
# Indices 1 2 3 4 5 6 
#
# 1 96.8836 -2.6448 19.2990 0.0000 0.0000 0.0000
# 2 -2.6448 96.8832 19.2989 0.0000 0.0000 0.0000
# 3 19.2990 19.2989 427.6411 0.0000 0.0000 0.0000
# 4 0.0000 0.0000 0.0000 0.9851 0.0000 0.0000
# 5 0.0000 0.0000 0.0000 0.0000 0.9848 0.0000
# 6 0.0000 0.0000 0.0000 0.0000 0.0000 -10.8557
#
#
#
# Elastic Compliance Matrix: (Units=1/GPa)
#
#
# Indices 1 2 3 4 5 6 
#
# 1 0.010429 0.000382 -0.000488 0.000000 0.000000 0.000000
# 2 0.000382 0.010429 -0.000488 0.000000 0.000000 0.000000
# 3 -0.000488 -0.000488 0.002382 0.000000 0.000000 0.000000
# 4 0.000000 0.000000 0.000000 1.015141 -0.000002 0.000000
# 5 0.000000 0.000000 0.000000 -0.000002 1.015472 0.000000
# 6 0.000000 0.000000 0.000000 0.000000 0.000000 -0.092118
#
#
# Mechanical properties :
#
#
# Convention : Reuss Voigt Hill
#
# Bulk Modulus (GPa) = 45.34480 77.03489 61.18984
# Shear Modulus (GPa) = 2.53772 37.25315 19.89544
#
# Velocity S-wave (km/s) = 0.99250 3.80270 2.77899
# Velocity P-wave (km/s) = 4.34912 7.01308 5.83516
#
# Compressibility (1/GPa) = 0.02205325
#
# Stress axis : x y z
#
# Youngs Moduli (GPa) = 95.88390 95.88356 419.73668
#
# Poissons Ratio (x) = -0.03662 0.20479
# Poissons Ratio (y) = -0.03662 0.20479
# Poissons Ratio (z) = 0.04678 0.04678
#
# Static dielectric constant tensor:
#      x y z
#    x 2.381870 0.000000 0.000000 
#    y 0.000000 2.381870 0.000000 
#    z 0.000000 0.000000 2.154130 
# 
# From -- ./inp_files/8322.got.cif
#   From: 2010.05.17/outbox.cif.g08.bks.cpg/sg119_5_cif.got.tgz:8322.got - 2010.05.20 11:21:29.
