data_PCOD9559359
_publ_section_title
;
Structure prediction by ZEFSAII (Michael W. Deem and Ramdas Pophale) SiO2 
 PCOD9559359
Probable space group: I -4 M 2
;
_chemical_formula_sum "Si O2"
_cell_formula_units_Z 88
_cell_length_a 13.725909
_cell_length_b 13.725909
_cell_length_c 22.134647
_cell_angle_alpha 90.000000
_cell_angle_beta 90.000000
_cell_angle_gamma 90.000000
_cell_volume 4170.180286
_symmetry_space_group_name_H-M "I -4 M 2"
_symmetry_group_IT_number 119
_symmetry_cell_setting 'tetragonal'
loop_
_space_group_symop_operation_xyz
x,y,z
y,-x,-z
-x,-y,z
-y,x,-z
y,x,-z
-y,-x,-z
-x,y,z
x,-y,z
1/2+x,1/2+y,1/2+z
1/2+y,1/2-x,1/2-z
1/2-x,1/2-y,1/2+z
1/2-y,1/2+x,1/2-z
1/2+y,1/2+x,1/2-z
1/2-y,1/2-x,1/2-z
1/2-x,1/2+y,1/2+z
1/2+x,1/2-y,1/2+z
loop_
_atom_site_type_symbol
_atom_site_label
_atom_site_fract_x
_atom_site_fract_y
_atom_site_fract_z
Si Si1 0.766776 0.113725 0.186127
Si Si2 0.302507 0.802507 0.750000
Si Si3 0.885105 0.276023 0.618972
Si Si4 0.610719 0.382365 0.565256
Si Si5 0.384877 0.776457 0.875428
Si Si6 0.382420 0.890420 0.994993
O O1 0.813007 0.187680 0.234024
O O2 0.658463 0.150802 0.169539
O O3 0.824734 0.134226 0.123785
O O4 0.771707 0.000000 0.200901
O O5 0.361128 0.824819 0.810637
O O6 0.822456 0.177636 0.622418
O O7 0.865596 0.325184 0.553804
O O8 0.000000 0.261352 0.626093
O O9 0.650763 0.349238 0.500000
O O10 0.500000 0.348012 0.575329
O O11 0.606177 0.500000 0.558630
O O12 0.500000 0.758982 0.880883
O O13 0.351356 0.843027 0.931729
O O14 0.500000 0.897393 0.990627
O O15 0.344039 0.000000 0.004210
#
# Coordination Sequence:
#
# PCOD9559359 Si02
#       6
#    16   8  16  16  16  16
#     4  10  21  37  56  79 109 148 193 242 297 355
#     4  10  24  38  52  80 116 152 202 252 282 330
#     4  10  21  38  60  88 119 148 189 247 307 367
#     4   8  15  30  54  85 116 140 167 214 283 361
#     4  10  22  40  60  85 119 159 203 245 288 348
#     4   9  18  35  61  90 116 143 180 233 298 361
#
# _framework density 21.102204
#
# number of rings (size 3 to 8) (size 9 to 14) (size 15 to 20)
#    0.000    2.545    0.000    1.636    0.000    8.727 
#    0.000    6.364    0.000    3.273    0.000    0.000 
#    0.000    1.455    0.000    0.000    0.000    0.000 
#
# Total GULP energy -245840.923215 kJ/mol
# GULP energy per Si atom -5587.293709 kJ/mol
# Density = 2.105417 g / cm^3
# Si number density = 21.102204 Si / 1000 Ang^3
#
#
#
# Elastic Constant Matrix: (Units=GPa)
#
#
# Indices 1 2 3 4 5 6 
#
# 1 87.4674 4.0916 7.4382 0.0000 0.0000 0.0000
# 2 4.0916 87.4670 7.4380 0.0000 0.0000 0.0000
# 3 7.4382 7.4380 90.0345 0.0000 0.0000 0.0000
# 4 0.0000 0.0000 0.0000 24.3143 0.0000 0.0000
# 5 0.0000 0.0000 0.0000 0.0000 24.3143 0.0000
# 6 0.0000 0.0000 0.0000 0.0000 0.0000 21.1827
#
#
#
# Elastic Compliance Matrix: (Units=1/GPa)
#
#
# Indices 1 2 3 4 5 6 
#
# 1 0.011532 -0.000462 -0.000915 0.000000 0.000000 0.000000
# 2 -0.000462 0.011532 -0.000915 0.000000 0.000000 0.000000
# 3 -0.000915 -0.000915 0.011258 0.000000 0.000000 0.000000
# 4 0.000000 0.000000 0.000000 0.041128 0.000000 0.000000
# 5 0.000000 0.000000 0.000000 0.000000 0.041128 0.000000
# 6 0.000000 0.000000 0.000000 0.000000 0.000000 0.047208
#
#
# Mechanical properties :
#
#
# Convention : Reuss Voigt Hill
#
# Bulk Modulus (GPa) = 33.62393 33.65606 33.63999
# Shear Modulus (GPa) = 28.04545 30.36234 29.20389
#
# Velocity S-wave (km/s) = 3.64954 3.79730 3.72415
# Velocity P-wave (km/s) = 5.80752 5.93377 5.87099
#
# Compressibility (1/GPa) = 0.02974073
#
# Stress axis : x y z
#
# Youngs Moduli (GPa) = 86.71372 86.71330 88.82598
#
# Poissons Ratio (x) = 0.04003 0.08124
# Poissons Ratio (y) = 0.04004 0.08124
# Poissons Ratio (z) = 0.07931 0.07931
#
# Static dielectric constant tensor:
#      x y z
#    x 1.778170 0.000000 0.000000 
#    y 0.000000 1.778170 0.000000 
#    z 0.000000 0.000000 1.779740 
# 
# From -- ./inp_files/7706.got.cif
#   From: 2010.05.17/outbox.cif.g08.bks.cpg/sg119_4_cif.got.tgz:7706.got - 2010.05.20 11:21:29.
