data_PCOD9559091
_publ_section_title
;
Structure prediction by ZEFSAII (Michael W. Deem and Ramdas Pophale) SiO2 
 PCOD9559091
Probable space group: I -4 M 2
;
_chemical_formula_sum "Si O2"
_cell_formula_units_Z 56
_cell_length_a 11.881288
_cell_length_b 11.881288
_cell_length_c 25.057414
_cell_angle_alpha 90.000000
_cell_angle_beta 90.000000
_cell_angle_gamma 90.000000
_cell_volume 3537.229961
_symmetry_space_group_name_H-M "I -4 M 2"
_symmetry_group_IT_number 119
_symmetry_cell_setting 'tetragonal'
loop_
_space_group_symop_operation_xyz
x,y,z
y,-x,-z
-x,-y,z
-y,x,-z
y,x,-z
-y,-x,-z
-x,y,z
x,-y,z
1/2+x,1/2+y,1/2+z
1/2+y,1/2-x,1/2-z
1/2-x,1/2-y,1/2+z
1/2-y,1/2+x,1/2-z
1/2+y,1/2+x,1/2-z
1/2-y,1/2-x,1/2-z
1/2-x,1/2+y,1/2+z
1/2+x,1/2-y,1/2+z
loop_
_atom_site_type_symbol
_atom_site_label
_atom_site_fract_x
_atom_site_fract_y
_atom_site_fract_z
Si Si1 0.711715 0.288286 0.000000
Si Si2 0.865073 0.000000 0.433897
Si Si3 0.865655 0.366455 0.410317
Si Si4 0.132970 0.000000 0.306823
Si Si5 0.749037 0.364250 0.201109
O O1 0.608033 0.306541 0.040605
O O2 0.820105 0.302562 0.037372
O O3 0.856548 0.000000 0.370662
O O4 0.000000 0.000000 0.444545
O O5 0.851312 0.500000 0.403145
O O6 0.830222 0.300841 0.356328
O O7 0.000000 0.343800 0.418024
O O8 0.178382 0.121385 0.289454
O O9 0.000000 0.000000 0.293055
O O10 0.745987 0.500000 0.199609
O O11 0.824516 0.324516 0.250000
#
# Coordination Sequence:
#
# PCOD9559091 Si02
#       5
#     8   8  16   8  16
#     4  12  17  28  50  75 104 130 156 200 250 293
#     4  11  16  24  47  79 101 121 158 204 251 286
#     4  10  20  31  47  75 105 132 163 200 246 295
#     4   9  18  30  48  76 100 126 166 203 240 287
#     4  10  19  32  51  74 101 130 162 203 247 291
#
# _framework density 15.831597
#
# number of rings (size 3 to 8) (size 9 to 14) (size 15 to 20)
#    0.000    1.714    5.714    0.857    0.000    1.429 
#    0.000    0.000    3.143    0.857    3.714    0.000 
#    0.000    0.000    0.000    0.000    0.000    0.000 
#
# Total GULP energy -155963.548984 kJ/mol
# GULP energy per Si atom -5570.126749 kJ/mol
# Density = 1.579556 g / cm^3
# Si number density = 15.831597 Si / 1000 Ang^3
#
#
#
# Elastic Constant Matrix: (Units=GPa)
#
#
# Indices 1 2 3 4 5 6 
#
# 1 42.9704 25.8921 20.3788 0.0000 0.0000 0.0000
# 2 25.8921 42.9705 20.3782 0.0000 0.0000 0.0000
# 3 20.3788 20.3782 63.9575 0.0000 0.0000 0.0000
# 4 0.0000 0.0000 0.0000 240.9579 0.0000 0.0000
# 5 0.0000 0.0000 0.0000 0.0000 240.6571 0.0000
# 6 0.0000 0.0000 0.0000 0.0000 0.0000 14.1984
#
#
#
# Elastic Compliance Matrix: (Units=1/GPa)
#
#
# Indices 1 2 3 4 5 6 
#
# 1 0.038225 -0.020328 -0.005703 0.000000 0.000000 0.000000
# 2 -0.020328 0.038225 -0.005702 0.000000 0.000000 0.000000
# 3 -0.005703 -0.005702 0.019269 0.000000 0.000000 0.000000
# 4 0.000000 0.000000 0.000000 0.004150 0.000000 0.000000
# 5 0.000000 0.000000 0.000000 0.000000 0.004155 0.000000
# 6 0.000000 0.000000 0.000000 0.000000 0.000000 0.070430
#
#
# Mechanical properties :
#
#
# Convention : Reuss Voigt Hill
#
# Bulk Modulus (GPa) = 31.00468 31.46627 31.23548
# Shear Modulus (GPa) = 20.10677 104.71265 62.40971
#
# Velocity S-wave (km/s) = 3.56763 8.14157 6.28542
# Velocity P-wave (km/s) = 6.04956 10.40668 8.51164
#
# Compressibility (1/GPa) = 0.03225320
#
# Stress axis : x y z
#
# Youngs Moduli (GPa) = 26.16061 26.16097 51.89630
#
# Poissons Ratio (x) = 0.53181 0.29595
# Poissons Ratio (y) = 0.53181 0.29591
# Poissons Ratio (z) = 0.14919 0.14917
#
# Static dielectric constant tensor:
#      x y z
#    x 1.489750 0.000000 0.000000 
#    y 0.000000 1.489690 0.000000 
#    z 0.000000 0.000000 1.513120 
# 
# From -- ./inp_files/7317.got.cif
#   From: 2010.05.17/outbox.cif.g08.bks.cpg/sg119_4_cif.got.tgz:7317.got - 2010.05.20 11:21:29.
