data_PCOD9559399
_publ_section_title
;
Structure prediction by ZEFSAII (Michael W. Deem and Ramdas Pophale) SiO2 
 PCOD9559399
Probable space group: I -4 M 2
;
_chemical_formula_sum "Si O2"
_cell_formula_units_Z 48
_cell_length_a 12.563438
_cell_length_b 12.563438
_cell_length_c 15.217738
_cell_angle_alpha 90.000000
_cell_angle_beta 90.000000
_cell_angle_gamma 90.000000
_cell_volume 2401.967376
_symmetry_space_group_name_H-M "I -4 M 2"
_symmetry_group_IT_number 119
_symmetry_cell_setting 'tetragonal'
loop_
_space_group_symop_operation_xyz
x,y,z
y,-x,-z
-x,-y,z
-y,x,-z
y,x,-z
-y,-x,-z
-x,y,z
x,-y,z
1/2+x,1/2+y,1/2+z
1/2+y,1/2-x,1/2-z
1/2-x,1/2-y,1/2+z
1/2-y,1/2+x,1/2-z
1/2+y,1/2+x,1/2-z
1/2-y,1/2-x,1/2-z
1/2-x,1/2+y,1/2+z
1/2+x,1/2-y,1/2+z
loop_
_atom_site_type_symbol
_atom_site_label
_atom_site_fract_x
_atom_site_fract_y
_atom_site_fract_z
Si Si1 0.813395 0.186606 0.500000
Si Si2 0.115081 0.384920 0.250000
Si Si3 0.879492 0.769678 0.094152
Si Si4 0.128734 0.000000 0.365839
Si Si5 0.129585 0.000000 0.158680
O O1 0.810135 0.304671 0.459428
O O2 0.832784 0.102186 0.422242
O O3 0.117280 0.500000 0.202070
O O4 0.116938 0.283482 0.189306
O O5 0.839012 0.890490 0.109329
O O6 0.000000 0.773938 0.061230
O O7 0.161296 0.000000 0.262577
O O8 0.000000 0.000000 0.367830
O O9 0.000000 0.000000 0.158360
#
# Coordination Sequence:
#
# PCOD9559399 Si02
#       5
#     8   8  16   8   8
#     4  12  23  36  63  92 124 156 200 262 303 354
#     4   9  18  34  56  84 114 147 192 246 302 359
#     4  10  22  37  59  90 119 160 196 247 303 364
#     4  11  22  42  65  93 117 156 210 261 309 351
#     4   9  20  40  64  86 120 161 208 252 302 370
#
# _framework density 19.983619999999998
#
# number of rings (size 3 to 8) (size 9 to 14) (size 15 to 20)
#    0.000    1.833    1.667    2.000    4.667    2.667 
#    0.000    0.000    0.000    0.000    4.333    0.000 
#    0.000    0.000    0.000    0.000    0.000    0.000 
#
# Total GULP energy -133699.609971 kJ/mol
# GULP energy per Si atom -5570.817082 kJ/mol
# Density = 1.993814 g / cm^3
# Si number density = 19.983620 Si / 1000 Ang^3
#
#
#
# Elastic Constant Matrix: (Units=GPa)
#
#
# Indices 1 2 3 4 5 6 
#
# 1 94.4284 47.3195 30.4757 0.0000 0.0000 0.0000
# 2 47.3195 94.4315 30.4754 0.0000 0.0000 0.0000
# 3 30.4757 30.4754 50.1209 0.0000 0.0000 0.0000
# 4 0.0000 0.0000 0.0000 17.5792 0.0000 0.0000
# 5 0.0000 0.0000 0.0000 0.0000 17.5766 0.0000
# 6 0.0000 0.0000 0.0000 0.0000 0.0000 30.4753
#
#
#
# Elastic Compliance Matrix: (Units=1/GPa)
#
#
# Indices 1 2 3 4 5 6 
#
# 1 0.015390 -0.005837 -0.005808 0.000000 0.000000 0.000000
# 2 -0.005837 0.015389 -0.005808 0.000000 0.000000 0.000000
# 3 -0.005808 -0.005808 0.027015 0.000000 0.000000 0.000000
# 4 0.000000 0.000000 0.000000 0.056885 0.000000 0.000000
# 5 0.000000 0.000000 0.000000 0.000000 0.056894 0.000000
# 6 0.000000 0.000000 0.000000 0.000000 0.000000 0.032813
#
#
# Mechanical properties :
#
#
# Convention : Reuss Voigt Hill
#
# Bulk Modulus (GPa) = 43.69336 50.61355 47.15345
# Shear Modulus (GPa) = 20.24928 21.84023 21.04475
#
# Velocity S-wave (km/s) = 3.18668 3.30950 3.24867
# Velocity P-wave (km/s) = 5.95416 6.32347 6.14159
#
# Compressibility (1/GPa) = 0.02288677
#
# Stress axis : x y z
#
# Youngs Moduli (GPa) = 64.97823 64.98117 37.01670
#
# Poissons Ratio (x) = 0.37931 0.21501
# Poissons Ratio (y) = 0.37930 0.21499
# Poissons Ratio (z) = 0.37742 0.37740
#
# Static dielectric constant tensor:
#      x y z
#    x 1.723150 0.000000 0.000000 
#    y 0.000000 1.723150 0.000000 
#    z 0.000000 0.000000 1.788990 
# 
# From -- ./inp_files/6084.got.cif
#   From: 2010.05.17/outbox.cif.g08.bks.cpg/sg119_4_cif.got.tgz:6084.got - 2010.05.20 11:21:29.
