data_PCOD9559590
_publ_section_title
;
Structure prediction by ZEFSAII (Michael W. Deem and Ramdas Pophale) SiO2 
 PCOD9559590
Probable space group: I -4 C 2
;
_chemical_formula_sum "Si O2"
_cell_formula_units_Z 112
_cell_length_a 14.743121
_cell_length_b 14.743121
_cell_length_c 25.953452
_cell_angle_alpha 90.000000
_cell_angle_beta 90.000000
_cell_angle_gamma 90.000000
_cell_volume 5641.232382
_symmetry_space_group_name_H-M "I -4 C 2"
_symmetry_group_IT_number 120
_symmetry_cell_setting 'tetragonal'
loop_
_space_group_symop_operation_xyz
x,y,z
y,-x,-z
-x,-y,z
-y,x,-z
y,x,1/2-z
-y,-x,1/2-z
-x,y,1/2+z
x,-y,1/2+z
1/2+x,1/2+y,1/2+z
1/2+y,1/2-x,1/2-z
1/2-x,1/2-y,1/2+z
1/2-y,1/2+x,1/2-z
1/2+y,1/2+x,-z
1/2-y,1/2-x,-z
1/2-x,1/2+y,z
1/2+x,1/2-y,z
loop_
_atom_site_type_symbol
_atom_site_label
_atom_site_fract_x
_atom_site_fract_y
_atom_site_fract_z
Si Si1 0.455927 0.306868 0.742692
Si Si2 0.937540 0.579596 0.589459
Si Si3 0.179588 0.816023 0.576925
Si Si4 0.241676 0.529730 0.147246
Si Si5 0.490009 0.255739 0.629594
Si Si6 0.674590 0.174590 0.500000
Si Si7 0.303775 0.322448 0.138387
Si Si8 0.672241 0.327760 0.750000
O O1 0.399276 0.399276 0.750000
O O2 0.438306 0.245768 0.793225
O O3 0.441514 0.273128 0.684493
O O4 0.564378 0.316941 0.745868
O O5 0.858713 0.537080 0.624334
O O6 0.995173 0.648986 0.623341
O O7 0.889419 0.642000 0.546529
O O8 0.000000 0.500000 0.567682
O O9 0.198717 0.901784 0.613270
O O10 0.223036 0.835982 0.521170
O O11 0.241220 0.734016 0.599794
O O12 0.075485 0.789588 0.584022
O O13 0.280303 0.428710 0.139055
O O14 0.589465 0.302665 0.628576
O O15 0.285554 0.291155 0.197421
#
# Coordination Sequence:
#
# PCOD9559590 Si02
#       8
#    16  16  16  16  16   8  16   8
#     4  10  18  34  58  93 127 178 212 257 329 405
#     4  11  23  46  66  98 130 177 234 278 338 408
#     4  11  22  42  63  92 127 171 214 284 335 391
#     4  10  21  39  64  93 133 174 220 268 326 400
#     4  11  22  39  65  95 135 173 216 278 339 403
#     4  10  23  46  68  88 125 168 226 288 336 397
#     4  10  20  39  59  92 130 169 219 268 328 398
#     4   8  19  30  58  88 124 169 216 252 314 406
#
# _framework density 19.853816999999999
#
# number of rings (size 3 to 8) (size 9 to 14) (size 15 to 20)
#    0.000    1.714    4.286    1.286    0.000    1.714 
#   12.857    0.000    0.000    0.000    0.000    0.000 
#    0.000    0.000    0.000    0.000    0.000    0.000 
#
# Total GULP energy -312358.358796 kJ/mol
# GULP energy per Si atom -5577.827836 kJ/mol
# Density = 1.980863 g / cm^3
# Si number density = 19.853817 Si / 1000 Ang^3
#
#
#
# Elastic Constant Matrix: (Units=GPa)
#
#
# Indices 1 2 3 4 5 6 
#
# 1 34.8240 45.3174 -2.5769 0.0000 0.0000 0.0000
# 2 45.3174 34.8230 -2.5777 0.0000 0.0000 0.0000
# 3 -2.5769 -2.5777 47.0060 0.0000 0.0000 0.0000
# 4 0.0000 0.0000 0.0000 21.3712 0.0000 0.0000
# 5 0.0000 0.0000 0.0000 0.0000 21.3712 0.0000
# 6 0.0000 0.0000 0.0000 0.0000 0.0000 35.4556
#
#
#
# Elastic Compliance Matrix: (Units=1/GPa)
#
#
# Indices 1 2 3 4 5 6 
#
# 1 -0.041385 0.053908 0.000687 0.000000 0.000000 0.000000
# 2 0.053908 -0.041386 0.000686 0.000000 0.000000 0.000000
# 3 0.000687 0.000686 0.021349 0.000000 0.000000 0.000000
# 4 0.000000 0.000000 0.000000 0.046792 0.000000 0.000000
# 5 0.000000 0.000000 0.000000 0.000000 0.046792 0.000000
# 6 0.000000 0.000000 0.000000 0.000000 0.000000 0.028204
#
#
# Mechanical properties :
#
#
# Convention : Reuss Voigt Hill
#
# Bulk Modulus (GPa) = 20.35008 21.88652 21.11830
# Shear Modulus (GPa) = -147.86077 20.73894 -63.56092
#
# Velocity S-wave (km/s) = -8.63924 3.23551 -5.66427
# Velocity P-wave (km/s) = 9.44685 5.00058 5.66733
#
# Compressibility (1/GPa) = 0.04913985
#
# Stress axis : x y z
#
# Youngs Moduli (GPa) = -24.16337 -24.16267 46.84025
#
# Poissons Ratio (x) = 1.30255 -0.03220
# Poissons Ratio (y) = 1.30259 -0.03212
# Poissons Ratio (z) = 0.01661 0.01657
#
# Static dielectric constant tensor:
#      x y z
#    x 1.698810 0.000000 0.000000 
#    y 0.000000 1.698800 0.000000 
#    z 0.000000 0.000000 1.760150 
# 
# From -- ./inp_files/6328.got.cif
#   From: 2010.05.17/outbox.cif.g08.bks.cpg/sg120_4_cif.got.tgz:6328.got - 2010.05.20 11:28:13.
