data_PCOD9559252
_publ_section_title
;
Structure prediction by ZEFSAII (Michael W. Deem and Ramdas Pophale) SiO2 
 PCOD9559252
Probable space group: I -4 M 2
;
_chemical_formula_sum "Si O2"
_cell_formula_units_Z 72
_cell_length_a 14.000072
_cell_length_b 14.000072
_cell_length_c 17.426729
_cell_angle_alpha 90.000000
_cell_angle_beta 90.000000
_cell_angle_gamma 90.000000
_cell_volume 3415.674016
_symmetry_space_group_name_H-M "I -4 M 2"
_symmetry_group_IT_number 119
_symmetry_cell_setting 'tetragonal'
loop_
_space_group_symop_operation_xyz
x,y,z
y,-x,-z
-x,-y,z
-y,x,-z
y,x,-z
-y,-x,-z
-x,y,z
x,-y,z
1/2+x,1/2+y,1/2+z
1/2+y,1/2-x,1/2-z
1/2-x,1/2-y,1/2+z
1/2-y,1/2+x,1/2-z
1/2+y,1/2+x,1/2-z
1/2-y,1/2-x,1/2-z
1/2-x,1/2+y,1/2+z
1/2+x,1/2-y,1/2+z
loop_
_atom_site_type_symbol
_atom_site_label
_atom_site_fract_x
_atom_site_fract_y
_atom_site_fract_z
Si Si1 0.390966 0.722719 0.327897
Si Si2 0.608338 0.108338 0.750000
Si Si3 0.727445 0.611128 0.439922
Si Si4 0.745080 0.891023 0.354849
Si Si5 0.239140 0.610202 0.099994
O O1 0.500000 0.708221 0.353170
O O2 0.320135 0.641295 0.358724
O O3 0.346230 0.821232 0.360266
O O4 0.390818 0.729573 0.236058
O O5 0.500000 0.115598 0.716695
O O6 0.615276 0.187363 0.816134
O O7 0.651423 0.651423 0.500000
O O8 0.741662 0.500000 0.445887
O O9 0.825802 0.668433 0.450855
O O10 0.833049 0.838487 0.396102
O O11 0.729090 0.000000 0.378638
O O12 0.247747 0.500000 0.078597
#
# Coordination Sequence:
#
# PCOD9559252 Si02
#       5
#    16   8  16  16  16
#     4   9  18  33  53  79 110 143 179 218 262 313
#     4   9  16  28  52  84 110 133 166 212 268 321
#     4  11  23  38  55  77 107 140 175 215 258 308
#     4   9  18  32  52  80 111 140 174 219 268 315
#     4  10  20  35  55  79 108 140 175 217 264 314
#
# _framework density 21.079297
#
# number of rings (size 3 to 8) (size 9 to 14) (size 15 to 20)
#    0.000    2.333    0.000    4.000    0.000    6.444 
#    0.000    8.889    0.000    5.333    0.000    0.000 
#    0.000    0.000    0.000    0.000    0.000    0.000 
#
# Total GULP energy -201140.331775 kJ/mol
# GULP energy per Si atom -5587.231438 kJ/mol
# Density = 2.103132 g / cm^3
# Si number density = 21.079297 Si / 1000 Ang^3
#
#
#
# Elastic Constant Matrix: (Units=GPa)
#
#
# Indices 1 2 3 4 5 6 
#
# 1 155.1179 48.3375 -1.2026 0.0000 0.0000 0.0000
# 2 48.3375 155.1179 -1.2026 0.0000 0.0000 0.0000
# 3 -1.2026 -1.2026 38.6317 0.0000 0.0000 0.0000
# 4 0.0000 0.0000 0.0000 17.5522 0.0000 0.0000
# 5 0.0000 0.0000 0.0000 0.0000 17.5522 0.0000
# 6 0.0000 0.0000 0.0000 0.0000 0.0000 14.0863
#
#
#
# Elastic Compliance Matrix: (Units=1/GPa)
#
#
# Indices 1 2 3 4 5 6 
#
# 1 0.007141 -0.002224 0.000153 0.000000 0.000000 0.000000
# 2 -0.002224 0.007141 0.000153 0.000000 0.000000 0.000000
# 3 0.000153 0.000153 0.025895 0.000000 0.000000 0.000000
# 4 0.000000 0.000000 0.000000 0.056973 0.000000 0.000000
# 5 0.000000 0.000000 0.000000 0.000000 0.056973 0.000000
# 6 0.000000 0.000000 0.000000 0.000000 0.000000 0.070991
#
#
# Mechanical properties :
#
#
# Convention : Reuss Voigt Hill
#
# Bulk Modulus (GPa) = 27.51713 48.97025 38.24369
# Shear Modulus (GPa) = 20.74144 30.03381 25.38762
#
# Velocity S-wave (km/s) = 3.14024 3.77875 3.47419
# Velocity P-wave (km/s) = 5.12158 6.50542 5.85453
#
# Compressibility (1/GPa) = 0.03634100
#
# Stress axis : x y z
#
# Youngs Moduli (GPa) = 140.03727 140.03727 38.61753
#
# Poissons Ratio (x) = 0.31145 -0.00591
# Poissons Ratio (y) = 0.31145 -0.00591
# Poissons Ratio (z) = -0.02143 -0.02143
#
# Static dielectric constant tensor:
#      x y z
#    x 1.726810 0.000000 0.000000 
#    y 0.000000 1.726810 0.000000 
#    z 0.000000 0.000000 1.879040 
# 
# From -- ./inp_files/6381.got.cif
#   From: 2010.05.17/outbox.cif.g08.bks.cpg/sg119_4_cif.got.tgz:6381.got - 2010.05.20 11:21:29.
