data_PCOD9559188
_publ_section_title
;
Structure prediction by ZEFSAII (Michael W. Deem and Ramdas Pophale) SiO2 
 PCOD9559188
Probable space group: I -4 M 2
;
_chemical_formula_sum "Si O2"
_cell_formula_units_Z 88
_cell_length_a 17.324129
_cell_length_b 17.324129
_cell_length_c 14.921394
_cell_angle_alpha 90.000000
_cell_angle_beta 90.000000
_cell_angle_gamma 90.000000
_cell_volume 4478.290023
_symmetry_space_group_name_H-M "I -4 M 2"
_symmetry_group_IT_number 119
_symmetry_cell_setting 'tetragonal'
loop_
_space_group_symop_operation_xyz
x,y,z
y,-x,-z
-x,-y,z
-y,x,-z
y,x,-z
-y,-x,-z
-x,y,z
x,-y,z
1/2+x,1/2+y,1/2+z
1/2+y,1/2-x,1/2-z
1/2-x,1/2-y,1/2+z
1/2-y,1/2+x,1/2-z
1/2+y,1/2+x,1/2-z
1/2-y,1/2-x,1/2-z
1/2-x,1/2+y,1/2+z
1/2+x,1/2-y,1/2+z
loop_
_atom_site_type_symbol
_atom_site_label
_atom_site_fract_x
_atom_site_fract_y
_atom_site_fract_z
Si Si1 0.316111 0.089225 0.804202
Si Si2 0.831710 0.831710 0.500000
Si Si3 0.585294 0.092029 0.960391
Si Si4 0.731491 0.588058 0.718092
Si Si5 0.091927 0.165720 0.307200
Si Si6 0.848997 0.678481 0.612572
O O1 0.394547 0.105454 0.750000
O O2 0.342008 0.120956 0.900740
O O3 0.246978 0.118240 0.740337
O O4 0.298681 0.000000 0.815776
O O5 0.887791 0.839084 0.413151
O O6 0.841527 0.748196 0.543324
O O7 0.500000 0.124102 0.935453
O O8 0.582428 0.000000 0.948445
O O9 0.603290 0.112856 0.062240
O O10 0.738163 0.500000 0.688621
O O11 0.645396 0.605774 0.753116
O O12 0.766367 0.645788 0.644139
O O13 0.786488 0.605405 0.803228
O O14 0.000000 0.156036 0.296399
#
# Coordination Sequence:
#
# PCOD9559188 Si02
#       6
#    16   8  16  16  16  16
#     4  10  20  32  52  80 117 155 191 232 292 359
#     4  10  22  36  60  87 114 149 196 244 304 364
#     4  10  20  33  53  84 119 155 194 237 292 358
#     4  10  22  39  60  85 114 157 206 250 306 365
#     4  10  23  40  59  87 120 156 199 251 307 367
#     4  10  21  36  59  84 117 152 194 251 300 362
#
# _framework density 19.650358000000001
#
# number of rings (size 3 to 8) (size 9 to 14) (size 15 to 20)
#    0.000    2.000    0.000    2.727    7.636    6.364 
#    0.000    0.000    0.000    4.364    0.000    0.000 
#    0.000    0.000    0.000    0.000    0.000    0.000 
#
# Total GULP energy -244994.152056 kJ/mol
# GULP energy per Si atom -5568.048910 kJ/mol
# Density = 1.960563 g / cm^3
# Si number density = 19.650358 Si / 1000 Ang^3
#
#
#
# Elastic Constant Matrix: (Units=GPa)
#
#
# Indices 1 2 3 4 5 6 
#
# 1 83.5098 -2.1535 9.8400 0.0000 0.0000 0.0000
# 2 -2.1535 83.5091 9.8431 0.0000 0.0000 0.0000
# 3 9.8400 9.8431 37.0798 0.0000 0.0000 0.0000
# 4 0.0000 0.0000 0.0000 21.7506 0.0000 0.0000
# 5 0.0000 0.0000 0.0000 0.0000 21.7504 0.0000
# 6 0.0000 0.0000 0.0000 0.0000 0.0000 20.3637
#
#
#
# Elastic Compliance Matrix: (Units=1/GPa)
#
#
# Indices 1 2 3 4 5 6 
#
# 1 0.012404 0.000731 -0.003486 0.000000 0.000000 0.000000
# 2 0.000731 0.012405 -0.003487 0.000000 0.000000 0.000000
# 3 -0.003486 -0.003487 0.028819 0.000000 0.000000 0.000000
# 4 0.000000 0.000000 0.000000 0.045976 0.000000 0.000000
# 5 0.000000 0.000000 0.000000 0.000000 0.045976 0.000000
# 6 0.000000 0.000000 0.000000 0.000000 0.000000 0.049107
#
#
# Mechanical properties :
#
#
# Convention : Reuss Voigt Hill
#
# Bulk Modulus (GPa) = 24.30451 26.57312 25.43882
# Shear Modulus (GPa) = 22.63615 25.21087 23.92351
#
# Velocity S-wave (km/s) = 3.39771 3.58575 3.49300
# Velocity P-wave (km/s) = 5.27143 5.54038 5.40757
#
# Compressibility (1/GPa) = 0.04114463
#
# Stress axis : x y z
#
# Youngs Moduli (GPa) = 80.61776 80.61545 34.69877
#
# Poissons Ratio (x) = -0.05891 0.12095
# Poissons Ratio (y) = -0.05891 0.12099
# Poissons Ratio (z) = 0.28101 0.28109
#
# Static dielectric constant tensor:
#      x y z
#    x 1.723770 0.000000 0.000000 
#    y 0.000000 1.723770 0.000000 
#    z 0.000000 0.000000 1.713750 
# 
# From -- ./inp_files/5403.got.cif
#   From: 2010.05.17/outbox.cif.g08.bks.cpg/sg119_3_cif.got.tgz:5403.got - 2010.05.20 11:21:29.
