data_PCOD9559099
_publ_section_title
;
Structure prediction by ZEFSAII (Michael W. Deem and Ramdas Pophale) SiO2 
 PCOD9559099
Probable space group: I -4 M 2
;
_chemical_formula_sum "Si O2"
_cell_formula_units_Z 64
_cell_length_a 18.850310
_cell_length_b 18.850310
_cell_length_c 10.143792
_cell_angle_alpha 90.000000
_cell_angle_beta 90.000000
_cell_angle_gamma 90.000000
_cell_volume 3604.436084
_symmetry_space_group_name_H-M "I -4 M 2"
_symmetry_group_IT_number 119
_symmetry_cell_setting 'tetragonal'
loop_
_space_group_symop_operation_xyz
x,y,z
y,-x,-z
-x,-y,z
-y,x,-z
y,x,-z
-y,-x,-z
-x,y,z
x,-y,z
1/2+x,1/2+y,1/2+z
1/2+y,1/2-x,1/2-z
1/2-x,1/2-y,1/2+z
1/2-y,1/2+x,1/2-z
1/2+y,1/2+x,1/2-z
1/2-y,1/2-x,1/2-z
1/2-x,1/2+y,1/2+z
1/2+x,1/2-y,1/2+z
loop_
_atom_site_type_symbol
_atom_site_label
_atom_site_fract_x
_atom_site_fract_y
_atom_site_fract_z
Si Si1 0.303592 0.417727 0.481723
Si Si2 0.079029 0.780574 0.602331
Si Si3 0.704519 0.786397 0.391978
Si Si4 0.840666 0.920083 0.691104
O O1 0.380109 0.380109 0.500000
O O2 0.302459 0.500000 0.518187
O O3 0.248531 0.369240 0.563634
O O4 0.293706 0.411925 0.322957
O O5 0.129452 0.712856 0.618716
O O6 0.078864 0.798928 0.446645
O O7 0.108558 0.851528 0.675433
O O8 0.000000 0.766991 0.647628
O O9 0.759587 0.759587 0.500000
O O10 0.735048 0.764953 0.250000
O O11 0.874407 0.000000 0.702316
#
# Coordination Sequence:
#
# PCOD9559099 Si02
#       4
#    16  16  16  16
#     4  10  22  36  54  78 106 140 179 222 274 327
#     4  10  19  32  52  78 110 144 181 221 264 319
#     4  11  22  34  54  79 106 142 180 225 271 319
#     4   9  18  33  51  77 108 141 179 219 268 319
#
# _framework density 17.755898999999999
#
# number of rings (size 3 to 8) (size 9 to 14) (size 15 to 20)
#    0.000    2.000    2.500    3.000    0.000    4.750 
#    0.000    5.000    0.000    0.750    0.000    1.750 
#    0.000    6.000    0.000    0.000    0.000    0.000 
#
# Total GULP energy -178162.429608 kJ/mol
# GULP energy per Si atom -5567.575925 kJ/mol
# Density = 1.771549 g / cm^3
# Si number density = 17.755899 Si / 1000 Ang^3
#
#
#
# Elastic Constant Matrix: (Units=GPa)
#
#
# Indices 1 2 3 4 5 6 
#
# 1 103.1895 76.9429 27.0024 0.0000 0.0000 0.0000
# 2 76.9429 103.1906 27.0029 0.0000 0.0000 0.0000
# 3 27.0024 27.0029 117.4938 0.0000 0.0000 0.0000
# 4 0.0000 0.0000 0.0000 19.8672 0.0000 0.0000
# 5 0.0000 0.0000 0.0000 0.0000 19.8671 0.0000
# 6 0.0000 0.0000 0.0000 0.0000 0.0000 16.4922
#
#
#
# Elastic Compliance Matrix: (Units=1/GPa)
#
#
# Indices 1 2 3 4 5 6 
#
# 1 0.022031 -0.016069 -0.001370 0.000000 0.000000 0.000000
# 2 -0.016069 0.022031 -0.001370 0.000000 0.000000 0.000000
# 3 -0.001370 -0.001370 0.009141 0.000000 0.000000 0.000000
# 4 0.000000 0.000000 0.000000 0.050334 0.000000 0.000000
# 5 0.000000 0.000000 0.000000 0.000000 0.050334 0.000000
# 6 0.000000 0.000000 0.000000 0.000000 0.000000 0.060635
#
#
# Mechanical properties :
#
#
# Convention : Reuss Voigt Hill
#
# Bulk Modulus (GPa) = 64.16667 65.08560 64.62613
# Shear Modulus (GPa) = 19.43113 24.10702 21.76908
#
# Velocity S-wave (km/s) = 3.31168 3.68868 3.50525
# Velocity P-wave (km/s) = 7.13019 7.40791 7.27038
#
# Compressibility (1/GPa) = 0.01558442
#
# Stress axis : x y z
#
# Youngs Moduli (GPa) = 45.39075 45.39114 109.39824
#
# Poissons Ratio (x) = 0.72937 0.14990
# Poissons Ratio (y) = 0.72936 0.14991
# Poissons Ratio (z) = 0.06219 0.06220
#
# Static dielectric constant tensor:
#      x y z
#    x 1.637370 0.000000 0.000000 
#    y 0.000000 1.637370 0.000000 
#    z 0.000000 0.000000 1.701960 
# 
# From -- ./inp_files/2288.got.cif
#   From: 2010.05.17/outbox.cif.g08.bks.cpg/sg119_2_cif.got.tgz:2288.got - 2010.05.20 11:21:29.
