data_PCOD9559678
_publ_section_title
;
Structure prediction by ZEFSAII (Michael W. Deem and Ramdas Pophale) SiO2 
 PCOD9559678
Probable space group: I -4 C 2
;
_chemical_formula_sum "Si O2"
_cell_formula_units_Z 80
_cell_length_a 15.350295
_cell_length_b 15.350295
_cell_length_c 13.977952
_cell_angle_alpha 90.000000
_cell_angle_beta 90.000000
_cell_angle_gamma 90.000000
_cell_volume 3293.646588
_symmetry_space_group_name_H-M "I -4 C 2"
_symmetry_group_IT_number 120
_symmetry_cell_setting 'tetragonal'
loop_
_space_group_symop_operation_xyz
x,y,z
y,-x,-z
-x,-y,z
-y,x,-z
y,x,1/2-z
-y,-x,1/2-z
-x,y,1/2+z
x,-y,1/2+z
1/2+x,1/2+y,1/2+z
1/2+y,1/2-x,1/2-z
1/2-x,1/2-y,1/2+z
1/2-y,1/2+x,1/2-z
1/2+y,1/2+x,-z
1/2-y,1/2-x,-z
1/2-x,1/2+y,z
1/2+x,1/2-y,z
loop_
_atom_site_type_symbol
_atom_site_label
_atom_site_fract_x
_atom_site_fract_y
_atom_site_fract_z
Si Si1 0.852021 0.855611 0.368459
Si Si2 0.992028 0.749779 0.851476
Si Si3 0.223018 0.963389 0.362374
Si Si4 0.574861 0.932722 0.885621
Si Si5 0.729576 0.302581 0.635488
O O1 0.853987 0.853987 0.250000
O O2 0.776447 0.788814 0.398824
O O3 0.944962 0.818907 0.401346
O O4 0.823770 0.951184 0.401452
O O5 0.968374 0.794270 0.750979
O O6 0.895796 0.727608 0.888646
O O7 0.049767 0.661946 0.843735
O O8 0.328297 0.965212 0.364022
O O9 0.196223 0.869433 0.400710
O O10 0.500000 0.000000 0.856623
O O11 0.574002 0.925999 0.000000
O O12 0.717789 0.282212 0.750000
#
# Coordination Sequence:
#
# PCOD9559678 Si02
#       5
#    16  16  16  16  16
#     4   9  17  31  51  85 115 142 189 237 275 336
#     4  10  20  34  59  82 113 151 187 231 285 335
#     4  10  20  34  59  82 113 151 187 231 285 335
#     4  11  24  38  53  84 118 141 190 243 279 337
#     4   9  17  31  51  85 115 142 189 237 275 336
#
# _framework density 24.289186999999998
#
# number of rings (size 3 to 8) (size 9 to 14) (size 15 to 20)
#    0.000    2.200    2.000    1.200    5.600    0.800 
#    0.000    6.000    0.000    0.000    0.000    2.800 
#    0.000    0.000    0.000    0.000    0.000    0.000 
#
# Total GULP energy -223554.930468 kJ/mol
# GULP energy per Si atom -5588.873262 kJ/mol
# Density = 2.423390 g / cm^3
# Si number density = 24.289187 Si / 1000 Ang^3
#
#
#
# Elastic Constant Matrix: (Units=GPa)
#
#
# Indices 1 2 3 4 5 6 
#
# 1 117.8607 45.2280 -12.3043 0.0000 0.0000 0.0000
# 2 45.2280 117.8612 -12.3042 0.0000 0.0000 0.0000
# 3 -12.3043 -12.3042 72.1882 0.0000 0.0000 0.0000
# 4 0.0000 0.0000 0.0000 -18.4495 0.0000 0.0000
# 5 0.0000 0.0000 0.0000 0.0000 -18.4548 0.0000
# 6 0.0000 0.0000 0.0000 0.0000 0.0000 45.2169
#
#
#
# Elastic Compliance Matrix: (Units=1/GPa)
#
#
# Indices 1 2 3 4 5 6 
#
# 1 0.010031 -0.003737 0.001073 0.000000 0.000000 0.000000
# 2 -0.003737 0.010031 0.001073 0.000000 0.000000 0.000000
# 3 0.001073 0.001073 0.014218 0.000000 0.000000 0.000000
# 4 0.000000 0.000000 0.000000 -0.054202 0.000000 0.000000
# 5 0.000000 0.000000 0.000000 0.000000 -0.054186 0.000000
# 6 0.000000 0.000000 0.000000 0.000000 0.000000 0.022116
#
#
# Mechanical properties :
#
#
# Convention : Reuss Voigt Hill
#
# Bulk Modulus (GPa) = 32.15831 38.79433 35.47632
# Shear Modulus (GPa) = -130.05945 20.81520 -54.62212
#
# Velocity S-wave (km/s) = -7.32547 2.93059 -4.74732
# Velocity P-wave (km/s) = 7.63423 5.24000 3.92580
#
# Compressibility (1/GPa) = 0.03109616
#
# Stress axis : x y z
#
# Youngs Moduli (GPa) = 99.69398 99.69447 70.33158
#
# Poissons Ratio (x) = 0.37258 -0.07545
# Poissons Ratio (y) = 0.37257 -0.07544
# Poissons Ratio (z) = -0.10694 -0.10694
#
# Static dielectric constant tensor:
#      x y z
#    x 1.927540 0.000000 0.000000 
#    y 0.000000 1.927530 0.000000 
#    z 0.000000 0.000000 2.066660 
# 
# From -- ./inp_files/5166.got.cif
#   From: 2010.05.17/outbox.cif.g08.bks.cpg/sg120_3_cif.got.tgz:5166.got - 2010.05.20 11:28:13.
