data_PCOD9559777
_publ_section_title
;
Structure prediction by ZEFSAII (Michael W. Deem and Ramdas Pophale) SiO2 
 PCOD9559777
Probable space group: I -4 C 2
;
_chemical_formula_sum "Si O2"
_cell_formula_units_Z 72
_cell_length_a 19.770216
_cell_length_b 19.770216
_cell_length_c 8.664077
_cell_angle_alpha 90.000000
_cell_angle_beta 90.000000
_cell_angle_gamma 90.000000
_cell_volume 3386.453618
_symmetry_space_group_name_H-M "I -4 C 2"
_symmetry_group_IT_number 120
_symmetry_cell_setting 'tetragonal'
loop_
_space_group_symop_operation_xyz
x,y,z
y,-x,-z
-x,-y,z
-y,x,-z
y,x,1/2-z
-y,-x,1/2-z
-x,y,1/2+z
x,-y,1/2+z
1/2+x,1/2+y,1/2+z
1/2+y,1/2-x,1/2-z
1/2-x,1/2-y,1/2+z
1/2-y,1/2+x,1/2-z
1/2+y,1/2+x,-z
1/2-y,1/2-x,-z
1/2-x,1/2+y,z
1/2+x,1/2-y,z
loop_
_atom_site_type_symbol
_atom_site_label
_atom_site_fract_x
_atom_site_fract_y
_atom_site_fract_z
Si Si1 0.080844 0.080844 0.750000
Si Si2 0.126676 0.303764 0.643741
Si Si3 0.571049 0.571049 0.750000
Si Si4 0.587278 0.050594 0.177145
Si Si5 0.224105 0.224105 0.250000
Si Si6 0.836188 0.128025 0.505419
O O1 0.132563 0.102942 0.616557
O O2 0.004429 0.081614 0.684408
O O3 0.148147 0.351854 0.500000
O O4 0.077662 0.341778 0.760451
O O5 0.197168 0.288786 0.729324
O O6 0.101987 0.231934 0.576403
O O7 0.578696 0.632159 0.868566
O O8 0.528991 0.082050 0.287655
O O9 0.569998 0.069998 0.000000
O O10 0.194482 0.186217 0.400661
#
# Coordination Sequence:
#
# PCOD9559777 Si02
#       6
#     8  16   8  16   8  16
#     4  11  21  38  64  88 130 176 224 268 343 389
#     4  10  21  41  64  92 131 175 219 278 344 406
#     4  10  22  41  59  88 132 184 213 277 334 396
#     4  11  23  43  69  97 134 176 223 277 345 416
#     4   9  21  41  65  87 132 171 215 273 351 393
#     4  10  21  38  60  93 124 166 226 274 319 405
#
# _framework density 21.26118
#
# number of rings (size 3 to 8) (size 9 to 14) (size 15 to 20)
#    0.000    1.778    0.000    4.667    0.000    6.222 
#   20.000    0.000    0.000    0.000    0.000    0.000 
#    0.000    0.000    0.000    0.000    0.000    0.000 
#
# Total GULP energy -200799.455292 kJ/mol
# GULP energy per Si atom -5577.762647 kJ/mol
# Density = 2.121279 g / cm^3
# Si number density = 21.261180 Si / 1000 Ang^3
#
#
#
# Elastic Constant Matrix: (Units=GPa)
#
#
# Indices 1 2 3 4 5 6 
#
# 1 61.9464 81.3035 40.6734 0.0000 0.0000 0.0000
# 2 81.3035 61.9461 40.6749 0.0000 0.0000 0.0000
# 3 40.6734 40.6749 101.9312 0.0000 0.0000 0.0000
# 4 0.0000 0.0000 0.0000 29.8915 0.0000 0.0000
# 5 0.0000 0.0000 0.0000 0.0000 29.8916 0.0000
# 6 0.0000 0.0000 0.0000 0.0000 0.0000 29.9052
#
#
#
# Elastic Compliance Matrix: (Units=1/GPa)
#
#
# Indices 1 2 3 4 5 6 
#
# 1 -0.021317 0.030343 -0.003602 0.000000 0.000000 0.000000
# 2 0.030343 -0.021317 -0.003601 0.000000 0.000000 0.000000
# 3 -0.003602 -0.003601 0.012685 0.000000 0.000000 0.000000
# 4 0.000000 0.000000 0.000000 0.033454 0.000000 0.000000
# 5 0.000000 0.000000 0.000000 0.000000 0.033454 0.000000
# 6 0.000000 0.000000 0.000000 0.000000 0.000000 0.033439
#
#
# Mechanical properties :
#
#
# Convention : Reuss Voigt Hill
#
# Bulk Modulus (GPa) = 61.23587 61.23637 61.23612
# Shear Modulus (GPa) = 169.13219 22.14913 95.64066
#
# Velocity S-wave (km/s) = 8.92874 3.23114 6.71427
# Velocity P-wave (km/s) = 11.62587 6.54101 9.43254
#
# Compressibility (1/GPa) = 0.01633030
#
# Stress axis : x y z
#
# Youngs Moduli (GPa) = -46.91171 -46.91018 78.83321
#
# Poissons Ratio (x) = 1.42340 0.28398
# Poissons Ratio (y) = 1.42345 0.28390
# Poissons Ratio (z) = -0.16899 -0.16893
#
# Static dielectric constant tensor:
#      x y z
#    x 1.762210 0.000000 0.000000 
#    y 0.000000 1.762210 0.000000 
#    z 0.000000 0.000000 1.848180 
# 
# From -- ./inp_files/1381.got.cif
#   From: 2010.05.17/outbox.cif.g08.bks.cpg/sg120_1_cif.got.tgz:1381.got - 2010.05.20 11:28:13.
