data_PCOD9559652
_publ_section_title
;
Structure prediction by ZEFSAII (Michael W. Deem and Ramdas Pophale) SiO2 
 PCOD9559652
Probable space group: I -4 C 2
;
_chemical_formula_sum "Si O2"
_cell_formula_units_Z 64
_cell_length_a 13.682496
_cell_length_b 13.682496
_cell_length_c 16.424332
_cell_angle_alpha 90.000000
_cell_angle_beta 90.000000
_cell_angle_gamma 90.000000
_cell_volume 3074.810638
_symmetry_space_group_name_H-M "I -4 C 2"
_symmetry_group_IT_number 120
_symmetry_cell_setting 'tetragonal'
loop_
_space_group_symop_operation_xyz
x,y,z
y,-x,-z
-x,-y,z
-y,x,-z
y,x,1/2-z
-y,-x,1/2-z
-x,y,1/2+z
x,-y,1/2+z
1/2+x,1/2+y,1/2+z
1/2+y,1/2-x,1/2-z
1/2-x,1/2-y,1/2+z
1/2-y,1/2+x,1/2-z
1/2+y,1/2+x,-z
1/2-y,1/2-x,-z
1/2-x,1/2+y,z
1/2+x,1/2-y,z
loop_
_atom_site_type_symbol
_atom_site_label
_atom_site_fract_x
_atom_site_fract_y
_atom_site_fract_z
Si Si1 0.861363 0.805051 0.840954
Si Si2 0.901873 0.675977 0.585138
Si Si3 0.227630 0.074053 0.159328
Si Si4 0.257263 0.102654 0.345761
O O1 0.849596 0.849596 0.750000
O O2 0.783387 0.856258 0.899655
O O3 0.831598 0.691746 0.833120
O O4 0.970568 0.806179 0.873926
O O5 0.872019 0.627982 0.500000
O O6 0.839671 0.606213 0.645016
O O7 0.015832 0.692768 0.603987
O O8 0.223312 0.065220 0.257155
O O9 0.158184 0.159295 0.123768
#
# Coordination Sequence:
#
# PCOD9559652 Si02
#       4
#    16  16  16  16
#     4  11  20  39  66  95 128 174 229 285 343 409
#     4  11  24  40  61  96 137 175 220 289 352 402
#     4  10  20  37  64  94 127 181 227 275 338 408
#     4  10  19  39  63  93 133 172 232 275 333 418
#
# _framework density 20.814288999999999
#
# number of rings (size 3 to 8) (size 9 to 14) (size 15 to 20)
#    0.000    1.500    7.500    0.000    0.000    6.000 
#    0.000    3.750    0.000    6.000    0.000    0.000 
#    0.000    0.000    0.000    0.000    0.000    0.000 
#
# Total GULP energy -178382.441329 kJ/mol
# GULP energy per Si atom -5574.451292 kJ/mol
# Density = 2.076692 g / cm^3
# Si number density = 20.814289 Si / 1000 Ang^3
#
#
#
# Elastic Constant Matrix: (Units=GPa)
#
#
# Indices 1 2 3 4 5 6 
#
# 1 110.2607 10.7383 13.4822 0.0000 0.0000 0.0000
# 2 10.7383 110.2590 13.4832 0.0000 0.0000 0.0000
# 3 13.4822 13.4832 44.9077 0.0000 0.0000 0.0000
# 4 0.0000 0.0000 0.0000 11.1438 0.0000 0.0000
# 5 0.0000 0.0000 0.0000 0.0000 11.1453 0.0000
# 6 0.0000 0.0000 0.0000 0.0000 0.0000 7.9380
#
#
#
# Elastic Compliance Matrix: (Units=1/GPa)
#
#
# Indices 1 2 3 4 5 6 
#
# 1 0.009453 -0.000595 -0.002659 0.000000 0.000000 0.000000
# 2 -0.000595 0.009453 -0.002659 0.000000 0.000000 0.000000
# 3 -0.002659 -0.002659 0.023865 0.000000 0.000000 0.000000
# 4 0.000000 0.000000 0.000000 0.089736 0.000000 0.000000
# 5 0.000000 0.000000 0.000000 0.000000 0.089724 0.000000
# 6 0.000000 0.000000 0.000000 0.000000 0.000000 0.125977
#
#
# Mechanical properties :
#
#
# Convention : Reuss Voigt Hill
#
# Bulk Modulus (GPa) = 32.31828 37.87052 35.09440
# Shear Modulus (GPa) = 13.50080 21.22700 17.36390
#
# Velocity S-wave (km/s) = 2.54959 3.19694 2.89144
# Velocity P-wave (km/s) = 4.92218 5.64457 5.29571
#
# Compressibility (1/GPa) = 0.03094224
#
# Stress axis : x y z
#
# Youngs Moduli (GPa) = 105.79162 105.78934 41.90302
#
# Poissons Ratio (x) = 0.06299 0.11142
# Poissons Ratio (y) = 0.06299 0.11143
# Poissons Ratio (z) = 0.28131 0.28133
#
# Static dielectric constant tensor:
#      x y z
#    x 1.767390 0.000000 0.000000 
#    y 0.000000 1.767390 0.000000 
#    z 0.000000 0.000000 1.827400 
# 
# From -- ./inp_files/4146.got.cif
#   From: 2010.05.17/outbox.cif.g08.bks.cpg/sg120_3_cif.got.tgz:4146.got - 2010.05.20 11:28:13.
