data_PCOD9559914
_publ_section_title
;
Structure prediction by ZEFSAII (Michael W. Deem and Ramdas Pophale) SiO2 
 PCOD9559914
Probable space group: I -4 C 2
;
_chemical_formula_sum "Si O2"
_cell_formula_units_Z 52
_cell_length_a 16.338090
_cell_length_b 16.338090
_cell_length_c 8.209281
_cell_angle_alpha 90.000000
_cell_angle_beta 90.000000
_cell_angle_gamma 90.000000
_cell_volume 2191.329523
_symmetry_space_group_name_H-M "I -4 C 2"
_symmetry_group_IT_number 120
_symmetry_cell_setting 'tetragonal'
loop_
_space_group_symop_operation_xyz
x,y,z
y,-x,-z
-x,-y,z
-y,x,-z
y,x,1/2-z
-y,-x,1/2-z
-x,y,1/2+z
x,-y,1/2+z
1/2+x,1/2+y,1/2+z
1/2+y,1/2-x,1/2-z
1/2-x,1/2-y,1/2+z
1/2-y,1/2+x,1/2-z
1/2+y,1/2+x,-z
1/2-y,1/2-x,-z
1/2-x,1/2+y,z
1/2+x,1/2-y,z
loop_
_atom_site_type_symbol
_atom_site_label
_atom_site_fract_x
_atom_site_fract_y
_atom_site_fract_z
Si Si1 0.091190 0.091190 0.750000
Si Si2 0.247423 0.252577 0.500000
Si Si3 0.500000 0.500000 0.500000
Si Si4 0.815508 0.409622 0.627188
Si Si5 0.255709 0.929205 0.456348
O O1 0.021671 0.075662 0.885433
O O2 0.072702 0.174701 0.655703
O O3 0.326436 0.239113 0.386212
O O4 0.153989 0.247792 0.438230
O O5 0.888163 0.388163 0.500000
O O6 0.827956 0.421937 0.819404
O O7 0.771066 0.489541 0.556979
#
# Coordination Sequence:
#
# PCOD9559914 Si02
#       5
#     8   8   4  16  16
#     4  11  20  40  58 100 134 188 222 279 372 422
#     4  10  24  46  71 101 140 186 244 292 372 438
#     4  10  24  34  56  94 152 162 228 286 332 462
#     4  10  25  44  69 108 135 186 246 290 371 435
#     4  12  23  44  72  98 143 186 239 303 360 439
#
# _framework density 23.729887000000002
#
# number of rings (size 3 to 8) (size 9 to 14) (size 15 to 20)
#    0.923    0.308    3.077    1.846    4.308    0.000 
#    0.000    0.769    0.000    0.000    0.000    0.000 
#    0.000    0.000    0.000    0.000    0.000    0.000 
#
# Total GULP energy -144875.415640 kJ/mol
# GULP energy per Si atom -5572.131371 kJ/mol
# Density = 2.367588 g / cm^3
# Si number density = 23.729887 Si / 1000 Ang^3
#
#
#
# Elastic Constant Matrix: (Units=GPa)
#
#
# Indices 1 2 3 4 5 6 
#
# 1 110.7840 38.3134 30.3077 0.0000 0.0000 0.0000
# 2 38.3134 110.7857 30.3067 0.0000 0.0000 0.0000
# 3 30.3077 30.3067 73.1769 0.0000 0.0000 0.0000
# 4 0.0000 0.0000 0.0000 39.1305 0.0000 0.0000
# 5 0.0000 0.0000 0.0000 0.0000 39.1306 0.0000
# 6 0.0000 0.0000 0.0000 0.0000 0.0000 20.8540
#
#
#
# Elastic Compliance Matrix: (Units=1/GPa)
#
#
# Indices 1 2 3 4 5 6 
#
# 1 0.010932 -0.002867 -0.003340 0.000000 0.000000 0.000000
# 2 -0.002867 0.010932 -0.003340 0.000000 0.000000 0.000000
# 3 -0.003340 -0.003340 0.016432 0.000000 0.000000 0.000000
# 4 0.000000 0.000000 0.000000 0.025555 0.000000 0.000000
# 5 0.000000 0.000000 0.000000 0.000000 0.025555 0.000000
# 6 0.000000 0.000000 0.000000 0.000000 0.000000 0.047952
#
#
# Mechanical properties :
#
#
# Convention : Reuss Voigt Hill
#
# Bulk Modulus (GPa) = 52.07969 54.73357 53.40663
# Shear Modulus (GPa) = 30.70236 32.87761 31.78999
#
# Velocity S-wave (km/s) = 3.60088 3.72626 3.66411
# Velocity P-wave (km/s) = 6.26761 6.45203 6.36049
#
# Compressibility (1/GPa) = 0.01920134
#
# Stress axis : x y z
#
# Youngs Moduli (GPa) = 91.47569 91.47807 60.85579
#
# Poissons Ratio (x) = 0.26225 0.20328
# Poissons Ratio (y) = 0.26224 0.20326
# Poissons Ratio (z) = 0.30556 0.30554
#
# Static dielectric constant tensor:
#      x y z
#    x 1.944150 0.000000 0.000000 
#    y 0.000000 1.944150 0.000000 
#    z 0.000000 0.000000 1.983320 
# 
# From -- ./inp_files/1014.got.cif
#   From: 2010.05.17/outbox.cif.g08.bks.cpg/sg120_1_cif.got.tgz:1014.got - 2010.05.20 11:28:13.
