data_PCOD9559397
_publ_section_title
;
Structure prediction by ZEFSAII (Michael W. Deem and Ramdas Pophale) SiO2 
 PCOD9559397
Probable space group: I -4 M 2
;
_chemical_formula_sum "Si O2"
_cell_formula_units_Z 96
_cell_length_a 25.490001
_cell_length_b 25.490001
_cell_length_c 10.006924
_cell_angle_alpha 90.000000
_cell_angle_beta 90.000000
_cell_angle_gamma 90.000000
_cell_volume 6501.900311
_symmetry_space_group_name_H-M "I -4 M 2"
_symmetry_group_IT_number 119
_symmetry_cell_setting 'tetragonal'
loop_
_space_group_symop_operation_xyz
x,y,z
y,-x,-z
-x,-y,z
-y,x,-z
y,x,-z
-y,-x,-z
-x,y,z
x,-y,z
1/2+x,1/2+y,1/2+z
1/2+y,1/2-x,1/2-z
1/2-x,1/2-y,1/2+z
1/2-y,1/2+x,1/2-z
1/2+y,1/2+x,1/2-z
1/2-y,1/2-x,1/2-z
1/2-x,1/2+y,1/2+z
1/2+x,1/2-y,1/2+z
loop_
_atom_site_type_symbol
_atom_site_label
_atom_site_fract_x
_atom_site_fract_y
_atom_site_fract_z
Si Si1 0.582079 0.059013 0.406399
Si Si2 0.208096 0.381876 0.253180
Si Si3 0.060825 0.293842 0.528528
Si Si4 0.721491 0.132293 0.224073
Si Si5 0.828086 0.557964 0.501617
Si Si6 0.792518 0.779487 0.155293
O O1 0.570537 0.070537 0.250000
O O2 0.643990 0.059649 0.437134
O O3 0.560132 0.108859 0.485270
O O4 0.562971 0.000000 0.437199
O O5 0.161044 0.338956 0.250000
O O6 0.215481 0.407054 0.107801
O O7 0.189934 0.426783 0.354438
O O8 0.258372 0.350721 0.313251
O O9 0.094222 0.271031 0.650730
O O10 0.000000 0.276535 0.520153
O O11 0.677226 0.177226 0.250000
O O12 0.697721 0.099532 0.101725
O O13 0.775693 0.161776 0.192726
O O14 0.810833 0.500000 0.540803
O O15 0.757216 0.742785 0.250000
O O16 0.775573 0.775573 0.000000
#
# Coordination Sequence:
#
# PCOD9559397 Si02
#       6
#    16  16  16  16  16  16
#     4  11  21  33  48  65  88 123 168 220 264 292
#     4  11  21  36  50  69  97 126 162 208 256 303
#     4  11  21  34  51  71  97 130 165 206 253 299
#     4  11  19  34  52  72  97 120 164 209 252 300
#     4  12  21  33  51  68  91 127 165 212 258 298
#     4  10  22  33  53  75  96 122 158 208 261 304
#
# _framework density 14.764913999999999
#
# number of rings (size 3 to 8) (size 9 to 14) (size 15 to 20)
#    0.000    1.000    6.667    1.500    7.000    1.167 
#    0.000    0.000    0.000    0.000    0.000    0.000 
#    0.000    0.000    0.000    0.000    0.000   58.333 
#
# Total GULP energy -267647.384006 kJ/mol
# GULP energy per Si atom -5575.987167 kJ/mol
# Density = 1.473131 g / cm^3
# Si number density = 14.764914 Si / 1000 Ang^3
#
#
#
# Elastic Constant Matrix: (Units=GPa)
#
#
# Indices 1 2 3 4 5 6 
#
# 1 55.5093 34.0598 18.4691 0.0000 0.0000 0.0000
# 2 34.0598 55.5060 18.4697 0.0000 0.0000 0.0000
# 3 18.4691 18.4697 90.8723 0.0000 0.0000 0.0000
# 4 0.0000 0.0000 0.0000 -7.3036 0.0000 0.0000
# 5 0.0000 0.0000 0.0000 0.0000 -7.2940 0.0000
# 6 0.0000 0.0000 0.0000 0.0000 0.0000 13.2228
#
#
#
# Elastic Compliance Matrix: (Units=1/GPa)
#
#
# Indices 1 2 3 4 5 6 
#
# 1 0.029404 -0.017219 -0.002476 0.000000 0.000000 0.000000
# 2 -0.017219 0.029406 -0.002477 0.000000 0.000000 0.000000
# 3 -0.002476 -0.002477 0.012011 0.000000 0.000000 0.000000
# 4 0.000000 0.000000 0.000000 -0.136919 0.000000 0.000000
# 5 0.000000 0.000000 0.000000 0.000000 -0.137100 0.000000
# 6 0.000000 0.000000 0.000000 0.000000 0.000000 0.075627
#
#
# Mechanical properties :
#
#
# Convention : Reuss Voigt Hill
#
# Bulk Modulus (GPa) = 37.76931 38.20942 37.98936
# Shear Modulus (GPa) = -67.20533 8.45099 -29.37717
#
# Velocity S-wave (km/s) = -6.75394 2.39502 -4.46540
# Velocity P-wave (km/s) = 5.93169 5.79507 0.89502
#
# Compressibility (1/GPa) = 0.02647652
#
# Stress axis : x y z
#
# Youngs Moduli (GPa) = 34.00851 34.00618 83.25531
#
# Poissons Ratio (x) = 0.58556 0.20618
# Poissons Ratio (y) = 0.58560 0.20624
# Poissons Ratio (z) = 0.08422 0.08424
#
# Static dielectric constant tensor:
#      x y z
#    x 1.504350 0.000000 0.000000 
#    y 0.000000 1.504340 0.000000 
#    z 0.000000 0.000000 1.485760 
# 
# From -- ./inp_files/2815.got.cif
#   From: 2010.05.17/outbox.cif.g08.bks.cpg/sg119_2_cif.got.tgz:2815.got - 2010.05.20 11:21:29.
