data_PCOD9559328
_publ_section_title
;
Structure prediction by ZEFSAII (Michael W. Deem and Ramdas Pophale) SiO2 
 PCOD9559328
Probable space group: I -4 M 2
;
_chemical_formula_sum "Si O2"
_cell_formula_units_Z 96
_cell_length_a 25.361237
_cell_length_b 25.361237
_cell_length_c 8.998030
_cell_angle_alpha 90.000000
_cell_angle_beta 90.000000
_cell_angle_gamma 90.000000
_cell_volume 5787.463991
_symmetry_space_group_name_H-M "I -4 M 2"
_symmetry_group_IT_number 119
_symmetry_cell_setting 'tetragonal'
loop_
_space_group_symop_operation_xyz
x,y,z
y,-x,-z
-x,-y,z
-y,x,-z
y,x,-z
-y,-x,-z
-x,y,z
x,-y,z
1/2+x,1/2+y,1/2+z
1/2+y,1/2-x,1/2-z
1/2-x,1/2-y,1/2+z
1/2-y,1/2+x,1/2-z
1/2+y,1/2+x,1/2-z
1/2-y,1/2-x,1/2-z
1/2-x,1/2+y,1/2+z
1/2+x,1/2-y,1/2+z
loop_
_atom_site_type_symbol
_atom_site_label
_atom_site_fract_x
_atom_site_fract_y
_atom_site_fract_z
Si Si1 0.106913 0.058258 0.129408
Si Si2 0.243998 0.835452 0.927481
Si Si3 0.832443 0.753143 0.424709
Si Si4 0.440132 0.727929 0.053376
Si Si5 0.440757 0.725958 0.411601
Si Si6 0.059178 0.116544 0.383365
O O1 0.163807 0.062419 0.053903
O O2 0.098383 0.104030 0.249195
O O3 0.104237 0.000000 0.200289
O O4 0.064732 0.064732 0.000000
O O5 0.236693 0.839008 0.750538
O O6 0.293226 0.795945 0.950633
O O7 0.193706 0.806295 0.000000
O O8 0.252205 0.892044 0.004166
O O9 0.803572 0.803572 0.500000
O O10 0.889625 0.741558 0.492611
O O11 0.500000 0.745921 0.017268
O O12 0.436167 0.727012 0.232078
O O13 0.434021 0.670580 0.974763
O O14 0.500000 0.744770 0.451074
O O15 0.070268 0.070268 0.500000
O O16 0.000000 0.115172 0.324314
#
# Coordination Sequence:
#
# PCOD9559328 Si02
#       6
#    16  16  16  16  16  16
#     4  11  23  35  45  64  92 126 170 217 262 303
#     4  10  21  35  53  79 103 133 171 210 258 305
#     4  10  21  35  54  78 104 132 169 213 256 305
#     4  10  21  35  51  73  99 130 168 208 254 308
#     4  10  21  36  52  72 100 131 165 206 255 311
#     4  11  21  33  48  65  87 125 172 215 260 299
#
# _framework density 16.587575999999999
#
# number of rings (size 3 to 8) (size 9 to 14) (size 15 to 20)
#    0.000    1.667    1.667    3.000    4.667    4.667 
#    0.000    0.000    0.000    0.000    0.000    0.000 
#    0.000    0.667    0.000    7.333    0.000    5.333 
#
# Total GULP energy -267766.166376 kJ/mol
# GULP energy per Si atom -5578.461800 kJ/mol
# Density = 1.654982 g / cm^3
# Si number density = 16.587576 Si / 1000 Ang^3
#
#
#
# Elastic Constant Matrix: (Units=GPa)
#
#
# Indices 1 2 3 4 5 6 
#
# 1 80.5236 27.1469 37.9909 0.0000 0.0000 0.0000
# 2 27.1469 80.5229 37.9903 0.0000 0.0000 0.0000
# 3 37.9909 37.9903 67.5384 0.0000 0.0000 0.0000
# 4 0.0000 0.0000 0.0000 26.3355 0.0000 0.0000
# 5 0.0000 0.0000 0.0000 0.0000 26.3357 0.0000
# 6 0.0000 0.0000 0.0000 0.0000 0.0000 17.7390
#
#
#
# Elastic Compliance Matrix: (Units=1/GPa)
#
#
# Indices 1 2 3 4 5 6 
#
# 1 0.017068 -0.001667 -0.008663 0.000000 0.000000 0.000000
# 2 -0.001667 0.017068 -0.008663 0.000000 0.000000 0.000000
# 3 -0.008663 -0.008663 0.024553 0.000000 0.000000 0.000000
# 4 0.000000 0.000000 0.000000 0.037972 0.000000 0.000000
# 5 0.000000 0.000000 0.000000 0.000000 0.037971 0.000000
# 6 0.000000 0.000000 0.000000 0.000000 0.000000 0.056373
#
#
# Mechanical properties :
#
#
# Convention : Reuss Voigt Hill
#
# Bulk Modulus (GPa) = 48.30446 48.31568 48.31007
# Shear Modulus (GPa) = 21.19621 22.44585 21.82103
#
# Velocity S-wave (km/s) = 3.57856 3.68254 3.63092
# Velocity P-wave (km/s) = 6.80139 6.87549 6.83854
#
# Compressibility (1/GPa) = 0.02070202
#
# Stress axis : x y z
#
# Youngs Moduli (GPa) = 58.58925 58.58916 40.72902
#
# Poissons Ratio (x) = 0.09766 0.35285
# Poissons Ratio (y) = 0.09766 0.35284
# Poissons Ratio (z) = 0.50757 0.50756
#
# Static dielectric constant tensor:
#      x y z
#    x 1.566890 0.000000 0.000000 
#    y 0.000000 1.566890 0.000000 
#    z 0.000000 0.000000 1.598330 
# 
# From -- ./inp_files/2723.got.cif
#   From: 2010.05.17/outbox.cif.g08.bks.cpg/sg119_2_cif.got.tgz:2723.got - 2010.05.20 11:21:29.
