data_PCOD9559818
_publ_section_title
;
Structure prediction by ZEFSAII (Michael W. Deem and Ramdas Pophale) SiO2 
 PCOD9559818
Probable space group: I -4 C 2
;
_chemical_formula_sum "Si O2"
_cell_formula_units_Z 84
_cell_length_a 22.880820
_cell_length_b 22.880820
_cell_length_c 9.302397
_cell_angle_alpha 90.000000
_cell_angle_beta 90.000000
_cell_angle_gamma 90.000000
_cell_volume 4870.101798
_symmetry_space_group_name_H-M "I -4 C 2"
_symmetry_group_IT_number 120
_symmetry_cell_setting 'tetragonal'
loop_
_space_group_symop_operation_xyz
x,y,z
y,-x,-z
-x,-y,z
-y,x,-z
y,x,1/2-z
-y,-x,1/2-z
-x,y,1/2+z
x,-y,1/2+z
1/2+x,1/2+y,1/2+z
1/2+y,1/2-x,1/2-z
1/2-x,1/2-y,1/2+z
1/2-y,1/2+x,1/2-z
1/2+y,1/2+x,-z
1/2-y,1/2-x,-z
1/2-x,1/2+y,z
1/2+x,1/2-y,z
loop_
_atom_site_type_symbol
_atom_site_label
_atom_site_fract_x
_atom_site_fract_y
_atom_site_fract_z
Si Si1 0.834064 0.889421 0.625500
Si Si2 0.744234 0.839440 0.425317
Si Si3 0.736825 0.842642 0.093083
Si Si4 0.000000 0.000000 0.750000
Si Si5 0.997867 0.867977 0.185215
Si Si6 0.830399 0.930939 0.056203
O O1 0.838399 0.838399 0.750000
O O2 0.775144 0.885197 0.533226
O O3 0.848765 0.945998 0.719446
O O4 0.886226 0.877185 0.512463
O O5 0.688326 0.811675 0.500000
O O6 0.727549 0.854687 0.262124
O O7 0.793404 0.787987 0.414877
O O8 0.767982 0.900876 0.034131
O O9 0.683584 0.816417 0.000000
O O10 0.938134 0.001433 0.832449
O O11 0.943782 0.845543 0.278928
O O12 0.009990 0.837972 0.034321
#
# Coordination Sequence:
#
# PCOD9559818 Si02
#       6
#    16  16  16   4  16  16
#     4   9  19  35  46  66  96 124 163 220 263 299
#     4   9  18  27  53  74  89 119 151 202 259 332
#     4   9  19  33  50  73  95 119 155 207 270 324
#     4  12  24  38  48  70  88 146 180 238 268 294
#     4  11  24  34  51  65  97 134 182 230 266 302
#     4  10  22  36  49  68  94 131 170 222 262 312
#
# _framework density 17.248100000000001
#
# number of rings (size 3 to 8) (size 9 to 14) (size 15 to 20)
#    0.000    2.286    2.857    0.000   16.000    2.286 
#    0.000    0.000    0.000    0.000    0.000    0.000 
#    0.000    0.000    0.000    0.000    0.000    7.619 
#
# Total GULP energy -234111.375079 kJ/mol
# GULP energy per Si atom -5574.080359 kJ/mol
# Density = 1.720884 g / cm^3
# Si number density = 17.248100 Si / 1000 Ang^3
#
#
#
# Elastic Constant Matrix: (Units=GPa)
#
#
# Indices 1 2 3 4 5 6 
#
# 1 42.6237 35.6888 29.3441 0.0000 0.0000 0.0000
# 2 35.6888 42.6225 29.3440 0.0000 0.0000 0.0000
# 3 29.3441 29.3440 109.3095 0.0000 0.0000 0.0000
# 4 0.0000 0.0000 0.0000 24.8660 0.0000 0.0000
# 5 0.0000 0.0000 0.0000 0.0000 24.8663 0.0000
# 6 0.0000 0.0000 0.0000 0.0000 0.0000 33.6570
#
#
#
# Elastic Compliance Matrix: (Units=1/GPa)
#
#
# Indices 1 2 3 4 5 6 
#
# 1 0.080097 -0.064113 -0.004291 0.000000 0.000000 0.000000
# 2 -0.064113 0.080099 -0.004292 0.000000 0.000000 0.000000
# 3 -0.004291 -0.004292 0.011452 0.000000 0.000000 0.000000
# 4 0.000000 0.000000 0.000000 0.040216 0.000000 0.000000
# 5 0.000000 0.000000 0.000000 0.000000 0.040215 0.000000
# 6 0.000000 0.000000 0.000000 0.000000 0.000000 0.029711
#
#
# Mechanical properties :
#
#
# Convention : Reuss Voigt Hill
#
# Bulk Modulus (GPa) = 38.08357 42.58993 40.33675
# Shear Modulus (GPa) = 11.46965 23.35645 17.41305
#
# Velocity S-wave (km/s) = 2.58152 3.68386 3.18081
# Velocity P-wave (km/s) = 5.56897 6.54527 6.07676
#
# Compressibility (1/GPa) = 0.02625804
#
# Stress axis : x y z
#
# Youngs Moduli (GPa) = 12.48492 12.48451 87.31861
#
# Poissons Ratio (x) = 0.80041 0.37468
# Poissons Ratio (y) = 0.80044 0.37474
# Poissons Ratio (z) = 0.05357 0.05358
#
# Static dielectric constant tensor:
#      x y z
#    x 1.624600 0.000000 0.000000 
#    y 0.000000 1.624600 0.000000 
#    z 0.000000 0.000000 1.685190 
# 
# From -- ./inp_files/1453.got.cif
#   From: 2010.05.17/outbox.cif.g08.bks.cpg/sg120_1_cif.got.tgz:1453.got - 2010.05.20 11:28:13.
