data_PCOD9559703
_publ_section_title
;
Structure prediction by ZEFSAII (Michael W. Deem and Ramdas Pophale) SiO2 
 PCOD9559703
Probable space group: I -4 C 2
;
_chemical_formula_sum "Si O2"
_cell_formula_units_Z 96
_cell_length_a 20.096559
_cell_length_b 20.096559
_cell_length_c 12.415350
_cell_angle_alpha 90.000000
_cell_angle_beta 90.000000
_cell_angle_gamma 90.000000
_cell_volume 5014.208307
_symmetry_space_group_name_H-M "I -4 C 2"
_symmetry_group_IT_number 120
_symmetry_cell_setting 'tetragonal'
loop_
_space_group_symop_operation_xyz
x,y,z
y,-x,-z
-x,-y,z
-y,x,-z
y,x,1/2-z
-y,-x,1/2-z
-x,y,1/2+z
x,-y,1/2+z
1/2+x,1/2+y,1/2+z
1/2+y,1/2-x,1/2-z
1/2-x,1/2-y,1/2+z
1/2-y,1/2+x,1/2-z
1/2+y,1/2+x,-z
1/2-y,1/2-x,-z
1/2-x,1/2+y,z
1/2+x,1/2-y,z
loop_
_atom_site_type_symbol
_atom_site_label
_atom_site_fract_x
_atom_site_fract_y
_atom_site_fract_z
Si Si1 0.497967 0.890326 0.488230
Si Si2 0.698135 0.067922 0.178880
Si Si3 0.775652 0.884583 0.469847
Si Si4 0.212101 0.678774 0.260062
Si Si5 0.015161 0.259975 0.610340
Si Si6 0.145355 0.244160 0.466753
O O1 0.552546 0.947455 0.500000
O O2 0.516961 0.853824 0.375877
O O3 0.508636 0.835199 0.580979
O O4 0.426276 0.926276 0.500000
O O5 0.673391 0.132513 0.245215
O O6 0.743813 0.030271 0.264219
O O7 0.736372 0.101683 0.079444
O O8 0.732654 0.850041 0.375498
O O9 0.832472 0.831144 0.488661
O O10 0.790557 0.957975 0.425562
O O11 0.247690 0.752311 0.250000
O O12 0.243639 0.638153 0.160883
O O13 0.079725 0.255446 0.535303
O O14 0.204356 0.295645 0.500000
#
# Coordination Sequence:
#
# PCOD9559703 Si02
#       6
#    16  16  16  16  16  16
#     4  10  23  40  53  78 122 174 217 251 308 379
#     4  11  21  36  60  86 125 158 216 267 322 381
#     4  10  23  37  57  88 128 160 200 266 338 385
#     4  10  20  36  63  91 119 162 211 270 334 388
#     4  11  24  37  61  90 119 164 210 274 323 386
#     4  11  21  40  64  94 125 159 217 271 334 399
#
# _framework density 19.145595
#
# number of rings (size 3 to 8) (size 9 to 14) (size 15 to 20)
#    0.000    1.500    1.667    5.000    4.667    2.000 
#    0.000    1.667    0.000    0.500    0.000    0.000 
#    0.000    0.000    0.000    0.000    0.000    0.000 
#
# Total GULP energy -267764.526649 kJ/mol
# GULP energy per Si atom -5578.427639 kJ/mol
# Density = 1.910202 g / cm^3
# Si number density = 19.145595 Si / 1000 Ang^3
#
#
#
# Elastic Constant Matrix: (Units=GPa)
#
#
# Indices 1 2 3 4 5 6 
#
# 1 73.8512 41.1540 30.4979 0.0000 0.0000 0.0000
# 2 41.1540 73.8496 30.4955 0.0000 0.0000 0.0000
# 3 30.4979 30.4955 81.2618 0.0000 0.0000 0.0000
# 4 0.0000 0.0000 0.0000 24.9573 0.0000 0.0000
# 5 0.0000 0.0000 0.0000 0.0000 24.9591 0.0000
# 6 0.0000 0.0000 0.0000 0.0000 0.0000 29.4743
#
#
#
# Elastic Compliance Matrix: (Units=1/GPa)
#
#
# Indices 1 2 3 4 5 6 
#
# 1 0.020720 -0.009864 -0.004075 0.000000 0.000000 0.000000
# 2 -0.009864 0.020720 -0.004074 0.000000 0.000000 0.000000
# 3 -0.004075 -0.004074 0.015364 0.000000 0.000000 0.000000
# 4 0.000000 0.000000 0.000000 0.040068 0.000000 0.000000
# 5 0.000000 0.000000 0.000000 0.000000 0.040066 0.000000
# 6 0.000000 0.000000 0.000000 0.000000 0.000000 0.033928
#
#
# Mechanical properties :
#
#
# Convention : Reuss Voigt Hill
#
# Bulk Modulus (GPa) = 48.12467 48.13973 48.13220
# Shear Modulus (GPa) = 23.38441 24.33250 23.85846
#
# Velocity S-wave (km/s) = 3.49864 3.56886 3.53393
# Velocity P-wave (km/s) = 6.44293 6.49469 6.46886
#
# Compressibility (1/GPa) = 0.02077936
#
# Stress axis : x y z
#
# Youngs Moduli (GPa) = 48.26187 48.26200 65.08765
#
# Poissons Ratio (x) = 0.47606 0.26521
# Poissons Ratio (y) = 0.47606 0.26515
# Poissons Ratio (z) = 0.19665 0.19661
#
# Static dielectric constant tensor:
#      x y z
#    x 1.703940 0.000000 0.000000 
#    y 0.000000 1.703940 0.000000 
#    z 0.000000 0.000000 1.700910 
# 
# From -- ./inp_files/2718.got.cif
#   From: 2010.05.17/outbox.cif.g08.bks.cpg/sg120_2_cif.got.tgz:2718.got - 2010.05.20 11:28:13.
