data_PCOD9559767
_publ_section_title
;
Structure prediction by ZEFSAII (Michael W. Deem and Ramdas Pophale) SiO2 
 PCOD9559767
Probable space group: I -4 C 2
;
_chemical_formula_sum "Si O2"
_cell_formula_units_Z 80
_cell_length_a 17.015934
_cell_length_b 17.015934
_cell_length_c 13.833479
_cell_angle_alpha 90.000000
_cell_angle_beta 90.000000
_cell_angle_gamma 90.000000
_cell_volume 4005.373313
_symmetry_space_group_name_H-M "I -4 C 2"
_symmetry_group_IT_number 120
_symmetry_cell_setting 'tetragonal'
loop_
_space_group_symop_operation_xyz
x,y,z
y,-x,-z
-x,-y,z
-y,x,-z
y,x,1/2-z
-y,-x,1/2-z
-x,y,1/2+z
x,-y,1/2+z
1/2+x,1/2+y,1/2+z
1/2+y,1/2-x,1/2-z
1/2-x,1/2-y,1/2+z
1/2-y,1/2+x,1/2-z
1/2+y,1/2+x,-z
1/2-y,1/2-x,-z
1/2-x,1/2+y,z
1/2+x,1/2-y,z
loop_
_atom_site_type_symbol
_atom_site_label
_atom_site_fract_x
_atom_site_fract_y
_atom_site_fract_z
Si Si1 0.377177 0.427417 0.849846
Si Si2 0.311099 0.411030 0.378769
Si Si3 0.150789 0.722845 0.733255
Si Si4 0.901693 0.247333 0.339443
Si Si5 0.930277 0.758945 0.424323
O O1 0.426353 0.426353 0.750000
O O2 0.369604 0.514108 0.892801
O O3 0.288129 0.401967 0.819925
O O4 0.409734 0.352177 0.907511
O O5 0.275818 0.421281 0.271614
O O6 0.354254 0.327342 0.380297
O O7 0.247199 0.411829 0.463819
O O8 0.234264 0.765737 0.750000
O O9 0.173070 0.648518 0.669588
O O10 0.116164 0.712651 0.840482
O O11 0.979248 0.255100 0.401712
#
# Coordination Sequence:
#
# PCOD9559767 Si02
#       5
#    16  16  16  16  16
#     4   9  18  36  52  73 118 147 177 231 287 337
#     4  11  20  34  57  85 110 147 193 228 288 352
#     4   9  18  36  55  77 111 150 182 236 289 329
#     4  11  21  36  57  81 115 148 191 236 285 349
#     4  10  21  36  55  82 116 148 189 234 286 348
#
# _framework density 19.973168000000001
#
# number of rings (size 3 to 8) (size 9 to 14) (size 15 to 20)
#    0.000    2.400    6.000    1.200    0.000    1.600 
#    0.000    5.000    0.000    0.600    0.000    0.000 
#    6.000    0.000    0.000    0.000    0.000    0.000 
#
# Total GULP energy -223032.574113 kJ/mol
# GULP energy per Si atom -5575.814353 kJ/mol
# Density = 1.992771 g / cm^3
# Si number density = 19.973168 Si / 1000 Ang^3
#
#
#
# Elastic Constant Matrix: (Units=GPa)
#
#
# Indices 1 2 3 4 5 6 
#
# 1 56.6361 51.9538 28.5019 0.0000 0.0000 0.0000
# 2 51.9538 56.6359 28.5027 0.0000 0.0000 0.0000
# 3 28.5019 28.5027 91.0554 0.0000 0.0000 0.0000
# 4 0.0000 0.0000 0.0000 16.8650 0.0000 0.0000
# 5 0.0000 0.0000 0.0000 0.0000 16.8649 0.0000
# 6 0.0000 0.0000 0.0000 0.0000 0.0000 9.8983
#
#
#
# Elastic Compliance Matrix: (Units=1/GPa)
#
#
# Indices 1 2 3 4 5 6 
#
# 1 0.112295 -0.101276 -0.003448 0.000000 0.000000 0.000000
# 2 -0.101276 0.112297 -0.003451 0.000000 0.000000 0.000000
# 3 -0.003448 -0.003451 0.013142 0.000000 0.000000 0.000000
# 4 0.000000 0.000000 0.000000 0.059295 0.000000 0.000000
# 5 0.000000 0.000000 0.000000 0.000000 0.059295 0.000000
# 6 0.000000 0.000000 0.000000 0.000000 0.000000 0.101027
#
#
# Mechanical properties :
#
#
# Convention : Reuss Voigt Hill
#
# Bulk Modulus (GPa) = 46.76475 46.91604 46.84040
# Shear Modulus (GPa) = 7.34399 15.08356 11.21378
#
# Velocity S-wave (km/s) = 1.91961 2.75106 2.37205
# Velocity P-wave (km/s) = 5.32708 5.79928 5.56819
#
# Compressibility (1/GPa) = 0.02138363
#
# Stress axis : x y z
#
# Youngs Moduli (GPa) = 8.90510 8.90496 76.09299
#
# Poissons Ratio (x) = 0.90186 0.26238
# Poissons Ratio (y) = 0.90188 0.26257
# Poissons Ratio (z) = 0.03071 0.03073
#
# Static dielectric constant tensor:
#      x y z
#    x 1.752270 0.000000 0.000000 
#    y 0.000000 1.752260 0.000000 
#    z 0.000000 0.000000 1.776210 
# 
# From -- ./inp_files/3440.got.cif
#   From: 2010.05.17/outbox.cif.g08.bks.cpg/sg120_2_cif.got.tgz:3440.got - 2010.05.20 11:28:13.
