data_PCOD9559706
_publ_section_title
;
Structure prediction by ZEFSAII (Michael W. Deem and Ramdas Pophale) SiO2 
 PCOD9559706
Probable space group: I -4 C 2
;
_chemical_formula_sum "Si O2"
_cell_formula_units_Z 80
_cell_length_a 27.888331
_cell_length_b 27.888331
_cell_length_c 5.485256
_cell_angle_alpha 90.000000
_cell_angle_beta 90.000000
_cell_angle_gamma 90.000000
_cell_volume 4266.207254
_symmetry_space_group_name_H-M "I -4 C 2"
_symmetry_group_IT_number 120
_symmetry_cell_setting 'tetragonal'
loop_
_space_group_symop_operation_xyz
x,y,z
y,-x,-z
-x,-y,z
-y,x,-z
y,x,1/2-z
-y,-x,1/2-z
-x,y,1/2+z
x,-y,1/2+z
1/2+x,1/2+y,1/2+z
1/2+y,1/2-x,1/2-z
1/2-x,1/2-y,1/2+z
1/2-y,1/2+x,1/2-z
1/2+y,1/2+x,-z
1/2-y,1/2-x,-z
1/2-x,1/2+y,z
1/2+x,1/2-y,z
loop_
_atom_site_type_symbol
_atom_site_label
_atom_site_fract_x
_atom_site_fract_y
_atom_site_fract_z
Si Si1 0.733986 0.515515 0.272829
Si Si2 0.973056 0.396215 0.421697
Si Si3 0.772936 0.227065 0.250000
Si Si4 0.267798 0.123608 0.686246
Si Si5 0.433753 0.812304 0.183729
Si Si6 0.361543 0.138458 0.000000
O O1 0.708730 0.496049 0.515740
O O2 0.748079 0.571983 0.286481
O O3 0.779769 0.478696 0.245454
O O4 0.934442 0.434442 0.500000
O O5 0.950263 0.343976 0.455524
O O6 0.989512 0.401509 0.145050
O O7 0.747735 0.247735 0.500000
O O8 0.829878 0.235704 0.278376
O O9 0.278890 0.109727 0.405226
O O10 0.317813 0.139379 0.810270
O O11 0.411758 0.851088 0.366865
#
# Coordination Sequence:
#
# PCOD9559706 Si02
#       6
#    16  16   8  16  16   8
#     4  10  20  37  58  82 110 141 187 240 285 342
#     4  12  27  43  60  78 102 137 182 236 301 360
#     4  12  26  42  60  88 122 160 194 239 300 371
#     4  11  23  39  58  86 118 152 197 239 299 355
#     4  11  24  37  59  87 107 143 188 247 292 350
#     4  12  20  36  60  82 111 146 184 242 294 349
#
# _framework density 18.752018
#
# number of rings (size 3 to 8) (size 9 to 14) (size 15 to 20)
#    0.000    0.800    3.000    6.000    5.600    1.200 
#    0.000    0.000    0.000    0.000    0.000    0.000 
#    0.000    0.000    0.000    0.000    0.000   48.000 
#
# Total GULP energy -223088.987074 kJ/mol
# GULP energy per Si atom -5577.224677 kJ/mol
# Density = 1.870934 g / cm^3
# Si number density = 18.752018 Si / 1000 Ang^3
#
#
#
# Elastic Constant Matrix: (Units=GPa)
#
#
# Indices 1 2 3 4 5 6 
#
# 1 73.2720 30.1016 30.4038 0.0000 0.0000 0.0000
# 2 30.1016 73.2697 30.4037 0.0000 0.0000 0.0000
# 3 30.4038 30.4037 96.5961 0.0000 0.0000 0.0000
# 4 0.0000 0.0000 0.0000 27.2296 0.0000 0.0000
# 5 0.0000 0.0000 0.0000 0.0000 27.2216 0.0000
# 6 0.0000 0.0000 0.0000 0.0000 0.0000 37.6829
#
#
#
# Elastic Compliance Matrix: (Units=1/GPa)
#
#
# Indices 1 2 3 4 5 6 
#
# 1 0.017518 -0.005646 -0.003737 0.000000 0.000000 0.000000
# 2 -0.005646 0.017518 -0.003737 0.000000 0.000000 0.000000
# 3 -0.003737 -0.003737 0.012705 0.000000 0.000000 0.000000
# 4 0.000000 0.000000 0.000000 0.036725 0.000000 0.000000
# 5 0.000000 0.000000 0.000000 0.000000 0.036736 0.000000
# 6 0.000000 0.000000 0.000000 0.000000 0.000000 0.026537
#
#
# Mechanical properties :
#
#
# Convention : Reuss Voigt Hill
#
# Bulk Modulus (GPa) = 46.50823 47.21733 46.86278
# Shear Modulus (GPa) = 27.60218 28.57542 28.08880
#
# Velocity S-wave (km/s) = 3.84077 3.90790 3.87448
# Velocity P-wave (km/s) = 6.67265 6.75254 6.71271
#
# Compressibility (1/GPa) = 0.02150157
#
# Stress axis : x y z
#
# Youngs Moduli (GPa) = 57.08448 57.08252 78.71144
#
# Poissons Ratio (x) = 0.32231 0.29411
# Poissons Ratio (y) = 0.32232 0.29412
# Poissons Ratio (z) = 0.21330 0.21330
#
# Static dielectric constant tensor:
#      x y z
#    x 1.597640 0.000000 0.000000 
#    y 0.000000 1.597540 0.000000 
#    z 0.000000 0.000000 1.716820 
# 
# From -- ./inp_files/457.got.cif
#   From: 2010.05.17/outbox.cif.g08.bks.cpg/sg120_1_cif.got.tgz:457.got - 2010.05.20 11:28:13.
