data_PCOD9559946
_publ_section_title
;
Structure prediction by ZEFSAII (Michael W. Deem and Ramdas Pophale) SiO2 
 PCOD9559946
Probable space group: I -4 C 2
;
_chemical_formula_sum "Si O2"
_cell_formula_units_Z 80
_cell_length_a 14.733380
_cell_length_b 14.733380
_cell_length_c 18.410061
_cell_angle_alpha 90.000000
_cell_angle_beta 90.000000
_cell_angle_gamma 90.000000
_cell_volume 3996.317713
_symmetry_space_group_name_H-M "I -4 C 2"
_symmetry_group_IT_number 120
_symmetry_cell_setting 'tetragonal'
loop_
_space_group_symop_operation_xyz
x,y,z
y,-x,-z
-x,-y,z
-y,x,-z
y,x,1/2-z
-y,-x,1/2-z
-x,y,1/2+z
x,-y,1/2+z
1/2+x,1/2+y,1/2+z
1/2+y,1/2-x,1/2-z
1/2-x,1/2-y,1/2+z
1/2-y,1/2+x,1/2-z
1/2+y,1/2+x,-z
1/2-y,1/2-x,-z
1/2-x,1/2+y,z
1/2+x,1/2-y,z
loop_
_atom_site_type_symbol
_atom_site_label
_atom_site_fract_x
_atom_site_fract_y
_atom_site_fract_z
Si Si1 0.086896 0.049696 0.376674
Si Si2 0.292056 0.280605 0.833622
Si Si3 0.913384 0.331327 0.937295
Si Si4 0.852253 0.904754 0.976606
Si Si5 0.200673 0.614871 0.569065
O O1 0.140456 0.131484 0.339139
O O2 0.055968 0.094022 0.453484
O O3 0.148647 0.967689 0.405932
O O4 0.000000 0.000000 0.341408
O O5 0.267502 0.267502 0.750000
O O6 0.342269 0.194735 0.872756
O O7 0.199610 0.303666 0.876431
O O8 0.014610 0.325556 0.904733
O O9 0.908588 0.408588 0.000000
O O10 0.895514 0.247471 0.991867
O O11 0.887554 0.804836 0.958148
O O12 0.140298 0.640298 0.500000
#
# Coordination Sequence:
#
# PCOD9559946 Si02
#       5
#    16  16  16  16  16
#     4  11  18  31  60  95 125 163 211 269 332 381
#     4  11  24  43  58  93 149 178 209 265 337 412
#     4  11  21  38  66  94 119 162 231 278 318 388
#     4  11  15  31  60  92 121 151 204 277 331 359
#     4  12  21  40  66  92 128 174 216 279 335 376
#
# _framework density 20.018429000000001
#
# number of rings (size 3 to 8) (size 9 to 14) (size 15 to 20)
#    0.000    0.800   10.000    1.200    0.000    0.800 
#    3.600    0.000    0.000    0.000    0.000    0.000 
#    0.000    0.000    0.000    0.000    0.000    0.000 
#
# Total GULP energy -222720.930276 kJ/mol
# GULP energy per Si atom -5568.023257 kJ/mol
# Density = 1.997287 g / cm^3
# Si number density = 20.018429 Si / 1000 Ang^3
#
#
#
# Elastic Constant Matrix: (Units=GPa)
#
#
# Indices 1 2 3 4 5 6 
#
# 1 82.1551 6.4356 24.7579 0.0000 0.0000 0.0000
# 2 6.4356 82.1551 24.7579 0.0000 0.0000 0.0000
# 3 24.7579 24.7579 100.8142 0.0000 0.0000 0.0000
# 4 0.0000 0.0000 0.0000 9.4343 0.0000 0.0000
# 5 0.0000 0.0000 0.0000 0.0000 9.4343 0.0000
# 6 0.0000 0.0000 0.0000 0.0000 0.0000 29.1047
#
#
#
# Elastic Compliance Matrix: (Units=1/GPa)
#
#
# Indices 1 2 3 4 5 6 
#
# 1 0.013145 -0.000061 -0.003213 0.000000 0.000000 0.000000
# 2 -0.000061 0.013145 -0.003213 0.000000 0.000000 0.000000
# 3 -0.003213 -0.003213 0.011497 0.000000 0.000000 0.000000
# 4 0.000000 0.000000 0.000000 0.105996 0.000000 0.000000
# 5 0.000000 0.000000 0.000000 0.000000 0.105996 0.000000
# 6 0.000000 0.000000 0.000000 0.000000 0.000000 0.034359
#
#
# Mechanical properties :
#
#
# Convention : Reuss Voigt Hill
#
# Bulk Modulus (GPa) = 40.30230 41.89193 41.09711
# Shear Modulus (GPa) = 16.37283 23.53954 19.95618
#
# Velocity S-wave (km/s) = 2.86298 3.43285 3.16078
# Velocity P-wave (km/s) = 5.57720 6.05679 5.82194
#
# Compressibility (1/GPa) = 0.02481248
#
# Stress axis : x y z
#
# Youngs Moduli (GPa) = 76.07340 76.07340 86.97628
#
# Poissons Ratio (x) = 0.00467 0.27946
# Poissons Ratio (y) = 0.00467 0.27946
# Poissons Ratio (z) = 0.24443 0.24443
#
# Static dielectric constant tensor:
#      x y z
#    x 1.839650 0.000000 0.000000 
#    y 0.000000 1.839650 0.000000 
#    z 0.000000 0.000000 1.690340 
# 
# From -- ./inp_files/5158.got.cif
#   From: 2010.05.17/outbox.cif.g08.bks.cpg/sg120_3_cif.got.tgz:5158.got - 2010.05.20 11:28:13.
