data_PCOD9559420
_publ_section_title
;
Structure prediction by ZEFSAII (Michael W. Deem and Ramdas Pophale) SiO2 
 PCOD9559420
Probable space group: I -4 M 2
;
_chemical_formula_sum "Si O2"
_cell_formula_units_Z 96
_cell_length_a 13.998834
_cell_length_b 13.998834
_cell_length_c 22.507580
_cell_angle_alpha 90.000000
_cell_angle_beta 90.000000
_cell_angle_gamma 90.000000
_cell_volume 4410.750883
_symmetry_space_group_name_H-M "I -4 M 2"
_symmetry_group_IT_number 119
_symmetry_cell_setting 'tetragonal'
loop_
_space_group_symop_operation_xyz
x,y,z
y,-x,-z
-x,-y,z
-y,x,-z
y,x,-z
-y,-x,-z
-x,y,z
x,-y,z
1/2+x,1/2+y,1/2+z
1/2+y,1/2-x,1/2-z
1/2-x,1/2-y,1/2+z
1/2-y,1/2+x,1/2-z
1/2+y,1/2+x,1/2-z
1/2-y,1/2-x,1/2-z
1/2-x,1/2+y,1/2+z
1/2+x,1/2-y,1/2+z
loop_
_atom_site_type_symbol
_atom_site_label
_atom_site_fract_x
_atom_site_fract_y
_atom_site_fract_z
Si Si1 0.801186 0.888230 0.859061
Si Si2 0.615589 0.605515 0.763854
Si Si3 0.384387 0.889406 0.314436
Si Si4 0.608498 0.757955 0.983917
Si Si5 0.609807 0.786753 0.842799
Si Si6 0.770502 0.614474 0.568573
O O1 0.870292 0.860587 0.804218
O O2 0.835011 0.829602 0.916567
O O3 0.808969 0.000000 0.870031
O O4 0.694045 0.863669 0.836994
O O5 0.500000 0.602828 0.766515
O O6 0.651197 0.500000 0.780022
O O7 0.641365 0.691976 0.807293
O O8 0.500000 0.887077 0.310601
O O9 0.351496 0.851496 0.250000
O O10 0.358244 0.831257 0.372502
O O11 0.357583 0.000000 0.321799
O O12 0.500000 0.764457 0.005759
O O13 0.607438 0.766350 0.913012
O O14 0.658704 0.658704 0.000000
O O15 0.672229 0.840184 0.014070
O O16 0.500000 0.812307 0.824779
O O17 0.762451 0.500000 0.563976
#
# Coordination Sequence:
#
# PCOD9559420 Si02
#       6
#    16  16  16  16  16  16
#     4  11  23  41  66  98 138 179 227 285 347 421
#     4   9  19  38  66 100 135 171 213 270 343 415
#     4   8  15  30  54  88 129 168 209 262 328 400
#     4  11  24  45  68  97 134 178 232 283 337 401
#     4  10  22  42  67  95 131 177 231 283 339 409
#     4  11  23  41  65  95 133 179 228 280 344 407
#
# _framework density 21.765001000000002
#
# number of rings (size 3 to 8) (size 9 to 14) (size 15 to 20)
#    0.000    2.000    1.667    2.000    0.000    5.167 
#    0.000    5.000    0.000    3.000    0.000    0.000 
#    0.000    1.333    0.000    0.000    0.000    0.000 
#
# Total GULP energy -268360.448123 kJ/mol
# GULP energy per Si atom -5590.842669 kJ/mol
# Density = 2.171546 g / cm^3
# Si number density = 21.765001 Si / 1000 Ang^3
#
#
#
# Elastic Constant Matrix: (Units=GPa)
#
#
# Indices 1 2 3 4 5 6 
#
# 1 120.5242 33.0389 29.1282 0.0000 0.0000 0.0000
# 2 33.0389 120.5242 29.1282 0.0000 0.0000 0.0000
# 3 29.1282 29.1282 65.4747 0.0000 0.0000 0.0000
# 4 0.0000 0.0000 0.0000 29.4405 0.0000 0.0000
# 5 0.0000 0.0000 0.0000 0.0000 29.4405 0.0000
# 6 0.0000 0.0000 0.0000 0.0000 0.0000 25.6311
#
#
#
# Elastic Compliance Matrix: (Units=1/GPa)
#
#
# Indices 1 2 3 4 5 6 
#
# 1 0.009632 -0.001798 -0.003485 0.000000 0.000000 0.000000
# 2 -0.001798 0.009632 -0.003485 0.000000 0.000000 0.000000
# 3 -0.003485 -0.003485 0.018374 0.000000 0.000000 0.000000
# 4 0.000000 0.000000 0.000000 0.033967 0.000000 0.000000
# 5 0.000000 0.000000 0.000000 0.000000 0.033967 0.000000
# 6 0.000000 0.000000 0.000000 0.000000 0.000000 0.039015
#
#
# Mechanical properties :
#
#
# Convention : Reuss Voigt Hill
#
# Bulk Modulus (GPa) = 49.74767 54.34596 52.04681
# Shear Modulus (GPa) = 29.61642 31.25093 30.43368
#
# Velocity S-wave (km/s) = 3.69282 3.79335 3.74342
# Velocity P-wave (km/s) = 6.41006 6.64903 6.53064
#
# Compressibility (1/GPa) = 0.02010145
#
# Stress axis : x y z
#
# Youngs Moduli (GPa) = 103.81706 103.81706 54.42453
#
# Poissons Ratio (x) = 0.18668 0.18968
# Poissons Ratio (y) = 0.18668 0.18968
# Poissons Ratio (z) = 0.36183 0.36183
#
# Static dielectric constant tensor:
#      x y z
#    x 1.809310 0.000000 0.000000 
#    y 0.000000 1.809310 0.000000 
#    z 0.000000 0.000000 1.781420 
# 
# From -- ./inp_files/7815.got.cif
#   From: 2010.05.17/outbox.cif.g08.bks.cpg/sg119_4_cif.got.tgz:7815.got - 2010.05.20 11:21:29.
