data_PCOD9559010
_publ_section_title
;
Structure prediction by ZEFSAII (Michael W. Deem and Ramdas Pophale) SiO2 
 PCOD9559010
Probable space group: I -4 M 2
;
_chemical_formula_sum "Si O2"
_cell_formula_units_Z 104
_cell_length_a 18.543728
_cell_length_b 18.543728
_cell_length_c 19.570745
_cell_angle_alpha 90.000000
_cell_angle_beta 90.000000
_cell_angle_gamma 90.000000
_cell_volume 6729.789111
_symmetry_space_group_name_H-M "I -4 M 2"
_symmetry_group_IT_number 119
_symmetry_cell_setting 'tetragonal'
loop_
_space_group_symop_operation_xyz
x,y,z
y,-x,-z
-x,-y,z
-y,x,-z
y,x,-z
-y,-x,-z
-x,y,z
x,-y,z
1/2+x,1/2+y,1/2+z
1/2+y,1/2-x,1/2-z
1/2-x,1/2-y,1/2+z
1/2-y,1/2+x,1/2-z
1/2+y,1/2+x,1/2-z
1/2-y,1/2-x,1/2-z
1/2-x,1/2+y,1/2+z
1/2+x,1/2-y,1/2+z
loop_
_atom_site_type_symbol
_atom_site_label
_atom_site_fract_x
_atom_site_fract_y
_atom_site_fract_z
Si Si1 0.151700 0.414723 0.182945
Si Si2 0.085247 0.190653 0.382228
Si Si3 0.178647 0.351596 0.917914
Si Si4 0.586007 0.812805 0.291665
Si Si5 0.416914 0.296729 0.176600
Si Si6 0.303611 0.696390 0.000000
Si Si7 0.913176 0.582455 0.460449
O O1 0.136845 0.500000 0.195521
O O2 0.129313 0.370688 0.250000
O O3 0.234894 0.408213 0.159908
O O4 0.107153 0.391339 0.115584
O O5 0.135954 0.131506 0.345823
O O6 0.122087 0.200249 0.456988
O O7 0.000000 0.173040 0.387311
O O8 0.124417 0.315901 0.864459
O O9 0.230512 0.407273 0.877183
O O10 0.238008 0.297896 0.947941
O O11 0.134354 0.384451 0.980484
O O12 0.500000 0.818845 0.296058
O O13 0.620262 0.879739 0.250000
O O14 0.604048 0.740906 0.248296
O O15 0.500000 0.318093 0.179092
O O16 0.891291 0.500000 0.473064
O O17 0.000000 0.586354 0.461852
#
# Coordination Sequence:
#
# PCOD9559010 Si02
#       7
#    16  16  16  16  16   8  16
#     4  10  20  34  51  71 100 133 167 207 249 296
#     4  10  21  35  52  74  98 131 171 211 254 299
#     4  10  18  31  49  72  98 132 167 199 242 294
#     4   9  18  32  50  73 102 131 162 198 240 289
#     4   9  19  34  51  71  98 132 166 207 253 295
#     4  10  20  32  50  71 100 132 162 207 254 290
#     4  10  19  30  47  71  99 133 168 203 247 293
#
# _framework density 15.453678999999999
#
# number of rings (size 3 to 8) (size 9 to 14) (size 15 to 20)
#    0.000    2.308    1.538    1.385    0.000    7.385 
#    0.000    0.000    0.000    0.000    0.000    0.000 
#    0.000    0.000    0.000    0.000    0.000    0.692 
#
# Total GULP energy -289687.402155 kJ/mol
# GULP energy per Si atom -5570.911580 kJ/mol
# Density = 1.541851 g / cm^3
# Si number density = 15.453679 Si / 1000 Ang^3
#
#
#
# Elastic Constant Matrix: (Units=GPa)
#
#
# Indices 1 2 3 4 5 6 
#
# 1 76.0265 39.9235 44.3673 0.0000 0.0000 0.0000
# 2 39.9235 76.0254 44.3677 0.0000 0.0000 0.0000
# 3 44.3673 44.3677 111.7367 0.0000 0.0000 0.0000
# 4 0.0000 0.0000 0.0000 23.6513 0.0000 0.0000
# 5 0.0000 0.0000 0.0000 0.0000 23.6510 0.0000
# 6 0.0000 0.0000 0.0000 0.0000 0.0000 16.4856
#
#
#
# Elastic Compliance Matrix: (Units=1/GPa)
#
#
# Indices 1 2 3 4 5 6 
#
# 1 0.020044 -0.007655 -0.004919 0.000000 0.000000 0.000000
# 2 -0.007655 0.020044 -0.004920 0.000000 0.000000 0.000000
# 3 -0.004919 -0.004920 0.012856 0.000000 0.000000 0.000000
# 4 0.000000 0.000000 0.000000 0.042281 0.000000 0.000000
# 5 0.000000 0.000000 0.000000 0.000000 0.042281 0.000000
# 6 0.000000 0.000000 0.000000 0.000000 0.000000 0.060659
#
#
# Mechanical properties :
#
#
# Convention : Reuss Voigt Hill
#
# Bulk Modulus (GPa) = 55.68818 57.90062 56.79440
# Shear Modulus (GPa) = 20.90834 21.76627 21.33730
#
# Velocity S-wave (km/s) = 3.68226 3.75705 3.71984
# Velocity P-wave (km/s) = 7.36156 7.50794 7.43511
#
# Compressibility (1/GPa) = 0.01795713
#
# Stress axis : x y z
#
# Youngs Moduli (GPa) = 49.89066 49.88949 77.78270
#
# Poissons Ratio (x) = 0.38190 0.38263
# Poissons Ratio (y) = 0.38191 0.38266
# Poissons Ratio (z) = 0.24543 0.24543
#
# Static dielectric constant tensor:
#      x y z
#    x 1.505240 0.000000 0.000000 
#    y 0.000000 1.505240 0.000000 
#    z 0.000000 0.000000 1.535640 
# 
# From -- ./inp_files/6732.got.cif
#   From: 2010.05.17/outbox.cif.g08.bks.cpg/sg119_4_cif.got.tgz:6732.got - 2010.05.20 11:21:29.
