data_PCOD9559676
_publ_section_title
;
Structure prediction by ZEFSAII (Michael W. Deem and Ramdas Pophale) SiO2 
 PCOD9559676
Probable space group: I -4 C 2
;
_chemical_formula_sum "Si O2"
_cell_formula_units_Z 64
_cell_length_a 12.482824
_cell_length_b 12.482824
_cell_length_c 21.760342
_cell_angle_alpha 90.000000
_cell_angle_beta 90.000000
_cell_angle_gamma 90.000000
_cell_volume 3390.715966
_symmetry_space_group_name_H-M "I -4 C 2"
_symmetry_group_IT_number 120
_symmetry_cell_setting 'tetragonal'
loop_
_space_group_symop_operation_xyz
x,y,z
y,-x,-z
-x,-y,z
-y,x,-z
y,x,1/2-z
-y,-x,1/2-z
-x,y,1/2+z
x,-y,1/2+z
1/2+x,1/2+y,1/2+z
1/2+y,1/2-x,1/2-z
1/2-x,1/2-y,1/2+z
1/2-y,1/2+x,1/2-z
1/2+y,1/2+x,-z
1/2-y,1/2-x,-z
1/2-x,1/2+y,z
1/2+x,1/2-y,z
loop_
_atom_site_type_symbol
_atom_site_label
_atom_site_fract_x
_atom_site_fract_y
_atom_site_fract_z
Si Si1 0.727998 0.128996 0.785263
Si Si2 0.734218 0.232813 0.398549
Si Si3 0.113383 0.436356 0.327933
Si Si4 0.869795 0.121762 0.997823
O O1 0.837184 0.162817 0.750000
O O2 0.714775 0.223272 0.835249
O O3 0.635389 0.117051 0.733975
O O4 0.711940 0.019491 0.822115
O O5 0.642632 0.146178 0.381779
O O6 0.820945 0.182379 0.443586
O O7 0.681293 0.329421 0.436305
O O8 0.000000 0.500000 0.334517
O O9 0.995541 0.145875 0.998487
#
# Coordination Sequence:
#
# PCOD9559676 Si02
#       4
#    16  16  16  16
#     4  10  20  34  57  86 122 152 190 240 297 352
#     4  10  23  37  61  89 115 160 202 241 301 349
#     4  11  20  37  59  90 121 152 195 249 294 354
#     4  10  22  42  59  82 122 158 202 249 294 352
#
# _framework density 18.875069
#
# number of rings (size 3 to 8) (size 9 to 14) (size 15 to 20)
#    0.000    1.750    2.500    1.500    3.500    0.000 
#    0.000    1.250    0.000    5.250    0.000    0.000 
#    0.000    0.000    0.000    0.000    0.000    0.000 
#
# Total GULP energy -178332.014717 kJ/mol
# GULP energy per Si atom -5572.875460 kJ/mol
# Density = 1.883211 g / cm^3
# Si number density = 18.875069 Si / 1000 Ang^3
#
#
#
# Elastic Constant Matrix: (Units=GPa)
#
#
# Indices 1 2 3 4 5 6 
#
# 1 9.8451 46.5827 -7.6643 0.0000 0.0000 0.0000
# 2 46.5827 9.8460 -7.6638 0.0000 0.0000 -0.0001
# 3 -7.6643 -7.6638 36.2374 0.0000 0.0000 -0.0001
# 4 0.0000 0.0000 0.0000 10.8510 0.0000 -0.0001
# 5 0.0000 0.0000 0.0000 0.0000 10.8510 0.0000
# 6 0.0000 -0.0001 -0.0001 -0.0001 0.0000-7429.4841
#
#
#
# Elastic Compliance Matrix: (Units=1/GPa)
#
#
# Indices 1 2 3 4 5 6 
#
# 1 -0.004210 0.023011 0.003976 0.000000 0.000000 0.000000
# 2 0.023011 -0.004209 0.003977 0.000000 0.000000 0.000000
# 3 0.003976 0.003977 0.029278 0.000000 0.000000 0.000000
# 4 0.000000 0.000000 0.000000 0.092157 0.000000 0.000000
# 5 0.000000 0.000000 0.000000 0.000000 0.092157 0.000000
# 6 0.000000 0.000000 0.000000 0.000000 0.000000 -0.000135
#
#
# Mechanical properties :
#
#
# Convention : Reuss Voigt Hill
#
# Bulk Modulus (GPa) = 12.07913 13.15974 12.61944
# Shear Modulus (GPa) = 29.29005 -1479.91147 -725.31071
#
# Velocity S-wave (km/s) = 3.94354 -28.03138 -19.62405
# Velocity P-wave (km/s) = 5.21045 32.25974 22.51157
#
# Compressibility (1/GPa) = 0.08278740
#
# Stress axis : x y z
#
# Youngs Moduli (GPa) = -237.55106 -237.58468 34.15552
#
# Poissons Ratio (x) = 5.46709 -0.13581
# Poissons Ratio (y) = 5.46631 -0.13583
# Poissons Ratio (z) = 0.94456 0.94481
#
# Static dielectric constant tensor:
#      x y z
#    x 1.662560 0.000000 0.000000 
#    y 0.000000 1.662560 0.000000 
#    z 0.000000 0.000000 1.670990 
# 
# From -- ./inp_files/4997.got.cif
#   From: 2010.05.17/outbox.cif.g08.bks.cpg/sg120_3_cif.got.tgz:4997.got - 2010.05.20 11:28:13.
