data_PCOD9559036
_publ_section_title
;
Structure prediction by ZEFSAII (Michael W. Deem and Ramdas Pophale) SiO2 
 PCOD9559036
Probable space group: I -4 M 2
;
_chemical_formula_sum "Si O2"
_cell_formula_units_Z 112
_cell_length_a 14.486902
_cell_length_b 14.486902
_cell_length_c 26.848281
_cell_angle_alpha 90.000000
_cell_angle_beta 90.000000
_cell_angle_gamma 90.000000
_cell_volume 5634.657582
_symmetry_space_group_name_H-M "I -4 M 2"
_symmetry_group_IT_number 119
_symmetry_cell_setting 'tetragonal'
loop_
_space_group_symop_operation_xyz
x,y,z
y,-x,-z
-x,-y,z
-y,x,-z
y,x,-z
-y,-x,-z
-x,y,z
x,-y,z
1/2+x,1/2+y,1/2+z
1/2+y,1/2-x,1/2-z
1/2-x,1/2-y,1/2+z
1/2-y,1/2+x,1/2-z
1/2+y,1/2+x,1/2-z
1/2-y,1/2-x,1/2-z
1/2-x,1/2+y,1/2+z
1/2+x,1/2-y,1/2+z
loop_
_atom_site_type_symbol
_atom_site_label
_atom_site_fract_x
_atom_site_fract_y
_atom_site_fract_z
Si Si1 0.397165 0.304512 0.569210
Si Si2 0.104198 0.715340 0.962818
Si Si3 0.397811 0.829045 0.664487
Si Si4 0.106147 0.697595 0.798315
Si Si5 0.157764 0.896306 0.769587
Si Si6 0.890118 0.719264 0.610703
Si Si7 0.397706 0.304933 0.845314
O O1 0.500000 0.346658 0.565892
O O2 0.313128 0.375012 0.564322
O O3 0.387043 0.237301 0.521324
O O4 0.392907 0.244058 0.618852
O O5 0.176043 0.642563 0.941312
O O6 0.000000 0.685312 0.952241
O O7 0.500000 0.873550 0.662698
O O8 0.393469 0.764536 0.713226
O O9 0.305793 0.888376 0.660205
O O10 0.160051 0.660051 0.750000
O O11 0.111853 0.808928 0.795999
O O12 0.155182 0.655520 0.846544
O O13 0.000000 0.668835 0.796222
O O14 0.153374 0.884439 0.710177
O O15 0.123807 0.000000 0.782410
O O16 0.845396 0.818976 0.619743
O O17 0.000000 0.721576 0.615928
O O18 0.500000 0.328397 0.862584
#
# Coordination Sequence:
#
# PCOD9559036 Si02
#       7
#    16  16  16  16  16  16  16
#     4   9  18  34  61  93 124 156 195 242 299 366
#     4  10  20  36  60  89 124 162 199 244 300 362
#     4  10  18  34  60  89 121 154 188 237 302 369
#     4  12  23  37  57  83 117 156 201 250 300 353
#     4  10  20  36  61  88 120 158 196 241 300 370
#     4  12  25  42  61  83 117 163 212 260 307 356
#     4  11  22  38  60  86 117 156 203 250 303 364
#
# _framework density 19.876985999999999
#
# number of rings (size 3 to 8) (size 9 to 14) (size 15 to 20)
#    0.000    1.429    4.286    1.286    0.000    3.000 
#    0.000    3.571    0.000    9.429    0.000    0.000 
#    0.000    0.000    0.000    0.000    0.000    0.000 
#
# Total GULP energy -312777.353252 kJ/mol
# GULP energy per Si atom -5585.309879 kJ/mol
# Density = 1.983174 g / cm^3
# Si number density = 19.876986 Si / 1000 Ang^3
#
#
#
# Elastic Constant Matrix: (Units=GPa)
#
#
# Indices 1 2 3 4 5 6 
#
# 1 109.6071 28.5411 11.1289 0.0000 0.0000 0.0000
# 2 28.5411 109.6071 11.1289 0.0000 0.0000 0.0000
# 3 11.1289 11.1289 42.3547 0.0000 0.0000 0.0000
# 4 0.0000 0.0000 0.0000 14.6416 0.0000 0.0000
# 5 0.0000 0.0000 0.0000 0.0000 14.6416 0.0000
# 6 0.0000 0.0000 0.0000 0.0000 0.0000 -7.1699
#
#
#
# Elastic Compliance Matrix: (Units=1/GPa)
#
#
# Indices 1 2 3 4 5 6 
#
# 1 0.009947 -0.002389 -0.001986 0.000000 0.000000 0.000000
# 2 -0.002389 0.009947 -0.001986 0.000000 0.000000 0.000000
# 3 -0.001986 -0.001986 0.024654 0.000000 0.000000 0.000000
# 4 0.000000 0.000000 0.000000 0.068299 0.000000 0.000000
# 5 0.000000 0.000000 0.000000 0.000000 0.068299 0.000000
# 6 0.000000 0.000000 0.000000 0.000000 0.000000 -0.139472
#
#
# Mechanical properties :
#
#
# Convention : Reuss Voigt Hill
#
# Bulk Modulus (GPa) = 31.42010 40.35185 35.88597
# Shear Modulus (GPa) = 76.91908 18.47398 47.69653
#
# Velocity S-wave (km/s) = 6.22748 3.05194 4.90387
# Velocity P-wave (km/s) = 8.21890 5.72398 7.08217
#
# Compressibility (1/GPa) = 0.03182676
#
# Stress axis : x y z
#
# Youngs Moduli (GPa) = 100.53170 100.53170 40.56168
#
# Poissons Ratio (x) = 0.24012 0.08056
# Poissons Ratio (y) = 0.24012 0.08056
# Poissons Ratio (z) = 0.19966 0.19966
#
# Static dielectric constant tensor:
#      x y z
#    x 1.702320 0.000000 0.000000 
#    y 0.000000 1.702320 0.000000 
#    z 0.000000 0.000000 1.699060 
# 
# From -- ./inp_files/9592.got.cif
#   From: 2010.05.17/outbox.cif.g08.bks.cpg/sg119_5_cif.got.tgz:9592.got - 2010.05.20 11:21:29.
