data_PCOD9559604
_publ_section_title
;
Structure prediction by ZEFSAII (Michael W. Deem and Ramdas Pophale) SiO2 
 PCOD9559604
Probable space group: I -4 C 2
;
_chemical_formula_sum "Si O2"
_cell_formula_units_Z 88
_cell_length_a 15.219563
_cell_length_b 15.219563
_cell_length_c 17.169179
_cell_angle_alpha 90.000000
_cell_angle_beta 90.000000
_cell_angle_gamma 90.000000
_cell_volume 3976.984459
_symmetry_space_group_name_H-M "I -4 C 2"
_symmetry_group_IT_number 120
_symmetry_cell_setting 'tetragonal'
loop_
_space_group_symop_operation_xyz
x,y,z
y,-x,-z
-x,-y,z
-y,x,-z
y,x,1/2-z
-y,-x,1/2-z
-x,y,1/2+z
x,-y,1/2+z
1/2+x,1/2+y,1/2+z
1/2+y,1/2-x,1/2-z
1/2-x,1/2-y,1/2+z
1/2-y,1/2+x,1/2-z
1/2+y,1/2+x,-z
1/2-y,1/2-x,-z
1/2-x,1/2+y,z
1/2+x,1/2-y,z
loop_
_atom_site_type_symbol
_atom_site_label
_atom_site_fract_x
_atom_site_fract_y
_atom_site_fract_z
Si Si1 0.953418 0.638587 0.752303
Si Si2 0.239655 0.614066 0.881104
Si Si3 0.150307 0.198703 0.001620
Si Si4 0.650919 0.292935 0.335452
Si Si5 0.082267 0.417734 0.500000
Si Si6 0.696808 0.022310 0.096538
O O1 0.897910 0.551660 0.731390
O O2 0.951542 0.716249 0.689249
O O3 0.913783 0.674838 0.832535
O O4 0.324543 0.626391 0.935524
O O5 0.216156 0.708904 0.842978
O O6 0.165575 0.590096 0.943901
O O7 0.065427 0.246711 0.970194
O O8 0.231609 0.268392 0.000000
O O9 0.143769 0.170069 0.090979
O O10 0.664028 0.335973 0.250000
O O11 0.557206 0.250249 0.362441
O O12 0.103389 0.496904 0.557437
#
# Coordination Sequence:
#
# PCOD9559604 Si02
#       6
#    16  16  16  16   8  16
#     4  11  23  37  57  98 142 174 205 251 334 402
#     4  10  19  39  62  85 130 173 213 267 302 380
#     4  10  22  40  66  94 118 173 230 252 318 390
#     4  10  21  41  62  89 127 167 212 273 311 367
#     4  10  18  42  59  84 136 163 196 268 332 358
#     4  11  23  40  64 100 128 174 214 261 329 383
#
# _framework density 22.127319
#
# number of rings (size 3 to 8) (size 9 to 14) (size 15 to 20)
#    0.000    1.636    8.182    0.000    5.091    2.909 
#    0.000    0.909    0.000    0.545    0.000    0.000 
#    0.000    0.000    0.000    0.000    0.000    0.000 
#
# Total GULP energy -245103.243581 kJ/mol
# GULP energy per Si atom -5570.528263 kJ/mol
# Density = 2.207696 g / cm^3
# Si number density = 22.127319 Si / 1000 Ang^3
#
#
#
# Elastic Constant Matrix: (Units=GPa)
#
#
# Indices 1 2 3 4 5 6 
#
# 1 39.4296 19.4375 43.2790 0.0000 0.0000 0.0000
# 2 19.4375 39.4290 43.2787 0.0000 0.0000 0.0000
# 3 43.2790 43.2787 187.7418 0.0000 0.0000 0.0000
# 4 0.0000 0.0000 0.0000 31.2896 0.0000 0.0000
# 5 0.0000 0.0000 0.0000 0.0000 31.2898 0.0000
# 6 0.0000 0.0000 0.0000 0.0000 0.0000 24.1812
#
#
#
# Elastic Compliance Matrix: (Units=1/GPa)
#
#
# Indices 1 2 3 4 5 6 
#
# 1 0.037859 -0.012161 -0.005924 0.000000 0.000000 0.000000
# 2 -0.012161 0.037860 -0.005924 0.000000 0.000000 0.000000
# 3 -0.005924 -0.005924 0.008058 0.000000 0.000000 0.000000
# 4 0.000000 0.000000 0.000000 0.031960 0.000000 0.000000
# 5 0.000000 0.000000 0.000000 0.000000 0.031959 0.000000
# 6 0.000000 0.000000 0.000000 0.000000 0.000000 0.041354
#
#
# Mechanical properties :
#
#
# Convention : Reuss Voigt Hill
#
# Bulk Modulus (GPa) = 27.96579 53.17675 40.57127
# Shear Modulus (GPa) = 20.08133 28.05913 24.07023
#
# Velocity S-wave (km/s) = 3.01580 3.56487 3.30177
# Velocity P-wave (km/s) = 4.97923 6.40537 5.73679
#
# Compressibility (1/GPa) = 0.03575797
#
# Stress axis : x y z
#
# Youngs Moduli (GPa) = 26.41372 26.41338 124.10475
#
# Poissons Ratio (x) = 0.32122 0.73520
# Poissons Ratio (y) = 0.32122 0.73520
# Poissons Ratio (z) = 0.15648 0.15647
#
# Static dielectric constant tensor:
#      x y z
#    x 1.881750 0.000000 0.000000 
#    y 0.000000 1.881750 0.000000 
#    z 0.000000 0.000000 1.964860 
# 
# From -- ./inp_files/3547.got.cif
#   From: 2010.05.17/outbox.cif.g08.bks.cpg/sg120_2_cif.got.tgz:3547.got - 2010.05.20 11:28:13.
