data_PCOD9559120
_publ_section_title
;
Structure prediction by ZEFSAII (Michael W. Deem and Ramdas Pophale) SiO2 
 PCOD9559120
Probable space group: I -4 M 2
;
_chemical_formula_sum "Si O2"
_cell_formula_units_Z 88
_cell_length_a 12.139421
_cell_length_b 12.139421
_cell_length_c 33.834300
_cell_angle_alpha 90.000000
_cell_angle_beta 90.000000
_cell_angle_gamma 90.000000
_cell_volume 4986.009965
_symmetry_space_group_name_H-M "I -4 M 2"
_symmetry_group_IT_number 119
_symmetry_cell_setting 'tetragonal'
loop_
_space_group_symop_operation_xyz
x,y,z
y,-x,-z
-x,-y,z
-y,x,-z
y,x,-z
-y,-x,-z
-x,y,z
x,-y,z
1/2+x,1/2+y,1/2+z
1/2+y,1/2-x,1/2-z
1/2-x,1/2-y,1/2+z
1/2-y,1/2+x,1/2-z
1/2+y,1/2+x,1/2-z
1/2-y,1/2-x,1/2-z
1/2-x,1/2+y,1/2+z
1/2+x,1/2-y,1/2+z
loop_
_atom_site_type_symbol
_atom_site_label
_atom_site_fract_x
_atom_site_fract_y
_atom_site_fract_z
Si Si1 0.871346 0.625157 0.984982
Si Si2 0.231675 0.126935 0.218516
Si Si3 0.704616 0.231982 0.936089
Si Si4 0.868262 0.000000 0.594102
Si Si5 0.128230 0.262360 0.149343
Si Si6 0.000000 0.291567 0.331206
Si Si7 0.620164 0.500000 0.236690
O O1 0.832123 0.500000 0.979448
O O2 0.805308 0.705151 0.956302
O O3 0.000000 0.630453 0.976690
O O4 0.849496 0.658102 0.030437
O O5 0.310404 0.189597 0.250000
O O6 0.209858 0.192055 0.177573
O O7 0.110359 0.123849 0.237804
O O8 0.267721 0.000000 0.212308
O O9 0.608632 0.320644 0.927144
O O10 0.737581 0.170475 0.895838
O O11 0.805643 0.000000 0.636085
O O12 0.000000 0.000000 0.596621
O O13 0.139066 0.389300 0.163239
O O14 0.000000 0.227103 0.152129
O O15 0.000000 0.226619 0.290479
O O16 0.500000 0.500000 0.215500
#
# Coordination Sequence:
#
# PCOD9559120 Si02
#       7
#    16  16  16   8  16   8   8
#     4  10  20  37  58  81 114 153 193 235 286 347
#     4  11  23  40  61  85 117 156 200 246 296 350
#     4  10  21  36  56  86 115 152 190 238 294 347
#     4  10  19  33  53  84 119 147 186 238 294 352
#     4  11  22  37  58  87 119 150 193 241 296 354
#     4  10  20  34  56  86 118 154 184 234 294 351
#     4  10  19  35  59  84 111 151 190 235 293 344
#
# _framework density 17.649384000000001
#
# number of rings (size 3 to 8) (size 9 to 14) (size 15 to 20)
#    0.000    1.636    3.636    1.636    0.000    0.909 
#    0.000    0.909    0.000    8.727    0.000    0.000 
#    0.000    0.000    0.000    0.000    0.000    0.000 
#
# Total GULP energy -245427.611677 kJ/mol
# GULP energy per Si atom -5577.900265 kJ/mol
# Density = 1.760921 g / cm^3
# Si number density = 17.649384 Si / 1000 Ang^3
#
#
#
# Elastic Constant Matrix: (Units=GPa)
#
#
# Indices 1 2 3 4 5 6 
#
# 1 85.5888 18.3289 26.8244 0.0000 0.0000 0.0000
# 2 18.3289 85.5887 26.8241 0.0000 0.0000 0.0000
# 3 26.8244 26.8241 74.9691 0.0000 0.0000 0.0000
# 4 0.0000 0.0000 0.0000 14.7279 0.0000 0.0000
# 5 0.0000 0.0000 0.0000 0.0000 14.7277 0.0000
# 6 0.0000 0.0000 0.0000 0.0000 0.0000 1.9055
#
#
#
# Elastic Compliance Matrix: (Units=1/GPa)
#
#
# Indices 1 2 3 4 5 6 
#
# 1 0.013336 -0.001532 -0.004223 0.000000 0.000000 0.000000
# 2 -0.001532 0.013336 -0.004223 0.000000 0.000000 0.000000
# 3 -0.004223 -0.004223 0.016361 0.000000 0.000000 0.000000
# 4 0.000000 0.000000 0.000000 0.067899 0.000000 0.000000
# 5 0.000000 0.000000 0.000000 0.000000 0.067899 0.000000
# 6 0.000000 0.000000 0.000000 0.000000 0.000000 0.524790
#
#
# Mechanical properties :
#
#
# Convention : Reuss Voigt Hill
#
# Bulk Modulus (GPa) = 43.33774 43.34458 43.34116
# Shear Modulus (GPa) = 6.83743 17.88350 12.36047
#
# Velocity S-wave (km/s) = 1.97039 3.18664 2.64925
# Velocity P-wave (km/s) = 5.45754 6.17669 5.82822
#
# Compressibility (1/GPa) = 0.02307458
#
# Stress axis : x y z
#
# Youngs Moduli (GPa) = 74.98772 74.98780 61.12081
#
# Poissons Ratio (x) = 0.11490 0.25813
# Poissons Ratio (y) = 0.11490 0.25813
# Poissons Ratio (z) = 0.31670 0.31669
#
# Static dielectric constant tensor:
#      x y z
#    x 1.590820 0.000000 0.000000 
#    y 0.000000 1.590820 0.000000 
#    z 0.000000 0.000000 1.600150 
# 
# From -- ./inp_files/10299.got.cif
#   From: 2010.05.17/outbox.cif.g08.bks.cpg/sg119_6_cif.got.tgz:10299.got - 2010.05.20 11:21:29.
