data_PCOD9559339
_publ_section_title
;
Structure prediction by ZEFSAII (Michael W. Deem and Ramdas Pophale) SiO2 
 PCOD9559339
Probable space group: I -4 M 2
;
_chemical_formula_sum "Si O2"
_cell_formula_units_Z 64
_cell_length_a 20.921951
_cell_length_b 20.921951
_cell_length_c 8.371338
_cell_angle_alpha 90.000000
_cell_angle_beta 90.000000
_cell_angle_gamma 90.000000
_cell_volume 3664.369322
_symmetry_space_group_name_H-M "I -4 M 2"
_symmetry_group_IT_number 119
_symmetry_cell_setting 'tetragonal'
loop_
_space_group_symop_operation_xyz
x,y,z
y,-x,-z
-x,-y,z
-y,x,-z
y,x,-z
-y,-x,-z
-x,y,z
x,-y,z
1/2+x,1/2+y,1/2+z
1/2+y,1/2-x,1/2-z
1/2-x,1/2-y,1/2+z
1/2-y,1/2+x,1/2-z
1/2+y,1/2+x,1/2-z
1/2-y,1/2-x,1/2-z
1/2-x,1/2+y,1/2+z
1/2+x,1/2-y,1/2+z
loop_
_atom_site_type_symbol
_atom_site_label
_atom_site_fract_x
_atom_site_fract_y
_atom_site_fract_z
Si Si1 0.809936 0.690065 0.750000
Si Si2 0.071445 0.795756 0.205952
Si Si3 0.070214 0.102725 0.677035
Si Si4 0.748796 0.574849 0.929475
Si Si5 0.697233 0.697233 0.500000
O O1 0.797434 0.623655 0.845018
O O2 0.753036 0.700525 0.626892
O O3 0.071362 0.871920 0.231843
O O4 0.086235 0.764037 0.380300
O O5 0.000000 0.774722 0.156619
O O6 0.128930 0.789457 0.083039
O O7 0.073479 0.073479 0.500000
O O8 0.082856 0.178743 0.652714
O O9 0.000000 0.094155 0.746496
O O10 0.766450 0.500000 0.912378
#
# Coordination Sequence:
#
# PCOD9559339 Si02
#       5
#     8  16  16  16   8
#     4  12  22  36  60  79 108 142 186 239 272 332
#     4  10  21  36  51  76 117 151 183 229 272 320
#     4   9  16  29  48  73 105 145 191 221 249 302
#     4   9  19  36  57  80 108 142 180 227 284 332
#     4  12  24  34  52  83 108 144 199 228 272 312
#
# _framework density 17.465488000000001
#
# number of rings (size 3 to 8) (size 9 to 14) (size 15 to 20)
#    0.000    2.000    2.500    3.750    1.750    3.750 
#    0.000    0.000    0.000    0.375    0.000    0.000 
#    0.000    2.000    0.000    0.000    0.000    0.000 
#
# Total GULP energy -178402.177271 kJ/mol
# GULP energy per Si atom -5575.068040 kJ/mol
# Density = 1.742574 g / cm^3
# Si number density = 17.465488 Si / 1000 Ang^3
#
#
#
# Elastic Constant Matrix: (Units=GPa)
#
#
# Indices 1 2 3 4 5 6 
#
# 1 89.3679 71.8023 60.0385 0.0000 0.0000 0.0000
# 2 71.8023 89.3678 60.0393 0.0000 0.0000 0.0000
# 3 60.0385 60.0393 77.2826 0.0000 0.0000 0.0000
# 4 0.0000 0.0000 0.0000 -62.5907 0.0000 0.0000
# 5 0.0000 0.0000 0.0000 0.0000 -62.5929 0.0000
# 6 0.0000 0.0000 0.0000 0.0000 0.0000 22.6423
#
#
#
# Elastic Compliance Matrix: (Units=1/GPa)
#
#
# Indices 1 2 3 4 5 6 
#
# 1 0.035830 -0.021099 -0.011443 0.000000 0.000000 0.000000
# 2 -0.021099 0.035831 -0.011445 0.000000 0.000000 0.000000
# 3 -0.011443 -0.011445 0.030721 0.000000 0.000000 0.000000
# 4 0.000000 0.000000 0.000000 -0.015977 0.000000 0.000000
# 5 0.000000 0.000000 0.000000 0.000000 -0.015976 0.000000
# 6 0.000000 0.000000 0.000000 0.000000 0.000000 0.044165
#
#
# Mechanical properties :
#
#
# Convention : Reuss Voigt Hill
#
# Bulk Modulus (GPa) = 69.41421 71.08649 70.25035
# Shear Modulus (GPa) = 24.11156 -16.23238 3.93959
#
# Velocity S-wave (km/s) = 3.71957 -3.05191 1.50351
# Velocity P-wave (km/s) = 7.63393 5.32641 6.58208
#
# Compressibility (1/GPa) = 0.01440627
#
# Stress axis : x y z
#
# Youngs Moduli (GPa) = 27.90995 27.90909 32.55143
#
# Poissons Ratio (x) = 0.58886 0.37250
# Poissons Ratio (y) = 0.58888 0.37254
# Poissons Ratio (z) = 0.31938 0.31941
#
# Static dielectric constant tensor:
#      x y z
#    x 1.701040 0.000000 0.000000 
#    y 0.000000 1.701030 0.000000 
#    z 0.000000 0.000000 1.642980 
# 
# From -- ./inp_files/2331.got.cif
#   From: 2010.05.17/outbox.cif.g08.bks.cpg/sg119_2_cif.got.tgz:2331.got - 2010.05.20 11:21:29.
