data_PCOD9559896
_publ_section_title
;
Structure prediction by ZEFSAII (Michael W. Deem and Ramdas Pophale) SiO2 
 PCOD9559896
Probable space group: I -4 C 2
;
_chemical_formula_sum "Si O2"
_cell_formula_units_Z 80
_cell_length_a 10.200649
_cell_length_b 10.200649
_cell_length_c 29.421011
_cell_angle_alpha 90.000000
_cell_angle_beta 90.000000
_cell_angle_gamma 90.000000
_cell_volume 3061.351519
_symmetry_space_group_name_H-M "I -4 C 2"
_symmetry_group_IT_number 120
_symmetry_cell_setting 'tetragonal'
loop_
_space_group_symop_operation_xyz
x,y,z
y,-x,-z
-x,-y,z
-y,x,-z
y,x,1/2-z
-y,-x,1/2-z
-x,y,1/2+z
x,-y,1/2+z
1/2+x,1/2+y,1/2+z
1/2+y,1/2-x,1/2-z
1/2-x,1/2-y,1/2+z
1/2-y,1/2+x,1/2-z
1/2+y,1/2+x,-z
1/2-y,1/2-x,-z
1/2-x,1/2+y,z
1/2+x,1/2-y,z
loop_
_atom_site_type_symbol
_atom_site_label
_atom_site_fract_x
_atom_site_fract_y
_atom_site_fract_z
Si Si1 0.606574 0.345994 0.897353
Si Si2 0.404052 0.769908 0.085524
Si Si3 0.166522 0.857126 0.200820
Si Si4 0.541967 0.138611 0.181129
Si Si5 0.715705 0.474085 0.508590
O O1 0.645751 0.497758 0.906750
O O2 0.736753 0.252630 0.904683
O O3 0.555928 0.337951 0.845385
O O4 0.522334 0.275273 0.936852
O O5 0.439351 0.864966 0.126822
O O6 0.441597 0.810584 0.033960
O O7 0.108465 0.891536 0.250000
O O8 0.320360 0.822123 0.204110
O O9 0.076029 0.736524 0.187950
O O10 0.500000 0.000000 0.199139
O O11 0.610452 0.355841 0.502593
#
# Coordination Sequence:
#
# PCOD9559896 Si02
#       5
#    16  16  16  16  16
#     4   9  18  36  57  87 130 163 221 277 333 411
#     4   9  18  36  59  87 123 166 216 271 334 418
#     4  10  23  41  69 102 134 186 237 287 360 430
#     4  10  23  45  71  99 140 184 233 296 368 425
#     4   9  17  32  59  88 123 173 218 274 348 409
#
# _framework density 26.132247
#
# number of rings (size 3 to 8) (size 9 to 14) (size 15 to 20)
#    0.000    2.600    0.000    0.600    2.800    0.000 
#   21.600    1.000   13.200    0.000    0.000    0.000 
#    0.000    0.000    0.000    0.000    0.000    0.000 
#
# Total GULP energy -222771.472905 kJ/mol
# GULP energy per Si atom -5569.286823 kJ/mol
# Density = 2.607277 g / cm^3
# Si number density = 26.132247 Si / 1000 Ang^3
#
#
#
# Elastic Constant Matrix: (Units=GPa)
#
#
# Indices 1 2 3 4 5 6 
#
# 1 51.3106 57.2782 31.0939 0.0000 0.0000 0.0000
# 2 57.2782 51.3103 31.0932 0.0000 0.0000 0.0000
# 3 31.0939 31.0932 249.0909 0.0000 0.0000 0.0000
# 4 0.0000 0.0000 0.0000 9.0834 0.0000 0.0000
# 5 0.0000 0.0000 0.0000 0.0000 9.0836 0.0000
# 6 0.0000 0.0000 0.0000 0.0000 0.0000 17.6551
#
#
#
# Elastic Compliance Matrix: (Units=1/GPa)
#
#
# Indices 1 2 3 4 5 6 
#
# 1 -0.078825 0.088743 -0.001238 0.000000 0.000000 0.000000
# 2 0.088743 -0.078825 -0.001238 0.000000 0.000000 0.000000
# 3 -0.001238 -0.001238 0.004324 0.000000 0.000000 0.000000
# 4 0.000000 0.000000 0.000000 0.110090 0.000000 0.000000
# 5 0.000000 0.000000 0.000000 0.000000 0.110088 0.000000
# 6 0.000000 0.000000 0.000000 0.000000 0.000000 0.056641
#
#
# Mechanical properties :
#
#
# Convention : Reuss Voigt Hill
#
# Bulk Modulus (GPa) = 52.06263 65.62691 58.84477
# Shear Modulus (GPa) = -117.26863 22.64755 -47.31054
#
# Velocity S-wave (km/s) = -6.70615 2.94709 -4.25953
# Velocity P-wave (km/s) = 6.32434 6.06204 1.27455
#
# Compressibility (1/GPa) = 0.01920763
#
# Stress axis : x y z
#
# Youngs Moduli (GPa) = -12.68640 -12.68637 231.28413
#
# Poissons Ratio (x) = 1.12582 0.28629
# Poissons Ratio (y) = 1.12583 0.28640
# Poissons Ratio (z) = -0.01570 -0.01571
#
# Static dielectric constant tensor:
#      x y z
#    x 2.099970 0.000000 0.000000 
#    y 0.000000 2.099970 0.000000 
#    z 0.000000 0.000000 2.355580 
# 
# From -- ./inp_files/6480.got.cif
#   From: 2010.05.17/outbox.cif.g08.bks.cpg/sg120_4_cif.got.tgz:6480.got - 2010.05.20 11:28:13.
