data_PCOD9559249
_publ_section_title
;
Structure prediction by ZEFSAII (Michael W. Deem and Ramdas Pophale) SiO2 
 PCOD9559249
Probable space group: I -4 M 2
;
_chemical_formula_sum "Si O2"
_cell_formula_units_Z 120
_cell_length_a 14.453291
_cell_length_b 14.453291
_cell_length_c 31.307875
_cell_angle_alpha 90.000000
_cell_angle_beta 90.000000
_cell_angle_gamma 90.000000
_cell_volume 6540.140598
_symmetry_space_group_name_H-M "I -4 M 2"
_symmetry_group_IT_number 119
_symmetry_cell_setting 'tetragonal'
loop_
_space_group_symop_operation_xyz
x,y,z
y,-x,-z
-x,-y,z
-y,x,-z
y,x,-z
-y,-x,-z
-x,y,z
x,-y,z
1/2+x,1/2+y,1/2+z
1/2+y,1/2-x,1/2-z
1/2-x,1/2-y,1/2+z
1/2-y,1/2+x,1/2-z
1/2+y,1/2+x,1/2-z
1/2-y,1/2-x,1/2-z
1/2-x,1/2+y,1/2+z
1/2+x,1/2-y,1/2+z
loop_
_atom_site_type_symbol
_atom_site_label
_atom_site_fract_x
_atom_site_fract_y
_atom_site_fract_z
Si Si1 0.611140 0.391989 0.667977
Si Si2 0.105992 0.888183 0.670325
Si Si3 0.703817 0.319005 0.417544
Si Si4 0.104472 0.389736 0.447682
Si Si5 0.605306 0.605306 0.500000
Si Si6 0.217939 0.660979 0.971562
Si Si7 0.897529 0.891415 0.423905
Si Si8 0.388583 0.265054 0.750877
O O1 0.500000 0.392589 0.662644
O O2 0.640154 0.500000 0.672103
O O3 0.653513 0.341696 0.626774
O O4 0.630281 0.330528 0.709948
O O5 0.143862 0.868151 0.622822
O O6 0.175129 0.860361 0.707554
O O7 0.000000 0.853398 0.675733
O O8 0.100403 0.000000 0.672168
O O9 0.814584 0.339061 0.420906
O O10 0.661934 0.378607 0.456587
O O11 0.678733 0.212910 0.430241
O O12 0.121152 0.500000 0.447927
O O13 0.109107 0.349755 0.496355
O O14 0.000000 0.373310 0.431508
O O15 0.621168 0.500000 0.513001
O O16 0.314003 0.616190 0.956864
O O17 0.253926 0.746074 0.000000
O O18 0.000000 0.854590 0.436974
O O19 0.909420 0.000000 0.416853
O O20 0.500000 0.247628 0.752295
O O21 0.327966 0.172035 0.750000
#
# Coordination Sequence:
#
# PCOD9559249 Si02
#       8
#    16  16  16  16   8  16  16  16
#     4  10  21  37  58  84 112 140 176 229 289 339
#     4   8  15  31  55  79 101 130 171 219 270 319
#     4  11  21  34  52  79 109 141 182 232 280 331
#     4  10  20  35  52  69 100 148 193 226 257 310
#     4  11  20  32  54  78 102 135 176 230 290 333
#     4  10  21  33  48  73 104 142 179 221 268 318
#     4   9  18  32  52  77 103 132 171 222 275 325
#     4  10  21  36  56  81 113 150 182 216 261 322
#
# _framework density 18.348227999999999
#
# number of rings (size 3 to 8) (size 9 to 14) (size 15 to 20)
#    0.000    2.200    2.000    3.200    1.867    6.000 
#    0.000    1.333    0.000    0.800    0.000    0.000 
#    0.000    4.267    0.000    0.000    0.000    0.000 
#
# Total GULP energy -334074.205110 kJ/mol
# GULP energy per Si atom -5567.903418 kJ/mol
# Density = 1.830647 g / cm^3
# Si number density = 18.348228 Si / 1000 Ang^3
#
#
#
# Elastic Constant Matrix: (Units=GPa)
#
#
# Indices 1 2 3 4 5 6 
#
# 1 80.4189 26.4538 33.5658 0.0000 0.0000 0.0000
# 2 26.4538 80.4207 33.5664 0.0000 0.0000 0.0000
# 3 33.5658 33.5664 81.5548 0.0000 0.0000 0.0000
# 4 0.0000 0.0000 0.0000 22.9561 0.0000 0.0000
# 5 0.0000 0.0000 0.0000 0.0000 22.9564 0.0000
# 6 0.0000 0.0000 0.0000 0.0000 0.0000 19.6551
#
#
#
# Elastic Compliance Matrix: (Units=1/GPa)
#
#
# Indices 1 2 3 4 5 6 
#
# 1 0.015575 -0.002955 -0.005194 0.000000 0.000000 0.000000
# 2 -0.002955 0.015575 -0.005194 0.000000 0.000000 0.000000
# 3 -0.005194 -0.005194 0.016537 0.000000 0.000000 0.000000
# 4 0.000000 0.000000 0.000000 0.043561 0.000000 0.000000
# 5 0.000000 0.000000 0.000000 0.000000 0.043561 0.000000
# 6 0.000000 0.000000 0.000000 0.000000 0.000000 0.050877
#
#
# Mechanical properties :
#
#
# Convention : Reuss Voigt Hill
#
# Bulk Modulus (GPa) = 47.61823 47.72960 47.67391
# Shear Modulus (GPa) = 22.79229 23.03409 22.91319
#
# Velocity S-wave (km/s) = 3.52832 3.54698 3.53766
# Velocity P-wave (km/s) = 6.52745 6.54557 6.53651
#
# Compressibility (1/GPa) = 0.02100036
#
# Stress axis : x y z
#
# Youngs Moduli (GPa) = 64.20578 64.20705 60.47033
#
# Poissons Ratio (x) = 0.18976 0.31407
# Poissons Ratio (y) = 0.18976 0.31407
# Poissons Ratio (z) = 0.33347 0.33348
#
# Static dielectric constant tensor:
#      x y z
#    x 1.688540 0.000000 0.000000 
#    y 0.000000 1.688550 0.000000 
#    z 0.000000 0.000000 1.676510 
# 
# From -- ./inp_files/10551.got.cif
#   From: 2010.05.17/outbox.cif.g08.bks.cpg/sg119_6_cif.got.tgz:10551.got - 2010.05.20 11:21:29.
