data_PCOD9559499
_publ_section_title
;
Structure prediction by ZEFSAII (Michael W. Deem and Ramdas Pophale) SiO2 
 PCOD9559499
Probable space group: I -4 M 2
;
_chemical_formula_sum "Si O2"
_cell_formula_units_Z 44
_cell_length_a 15.977660
_cell_length_b 15.977660
_cell_length_c 6.846758
_cell_angle_alpha 90.000000
_cell_angle_beta 90.000000
_cell_angle_gamma 90.000000
_cell_volume 1747.878855
_symmetry_space_group_name_H-M "I -4 M 2"
_symmetry_group_IT_number 119
_symmetry_cell_setting 'tetragonal'
loop_
_space_group_symop_operation_xyz
x,y,z
y,-x,-z
-x,-y,z
-y,x,-z
y,x,-z
-y,-x,-z
-x,y,z
x,-y,z
1/2+x,1/2+y,1/2+z
1/2+y,1/2-x,1/2-z
1/2-x,1/2-y,1/2+z
1/2-y,1/2+x,1/2-z
1/2+y,1/2+x,1/2-z
1/2-y,1/2-x,1/2-z
1/2-x,1/2+y,1/2+z
1/2+x,1/2-y,1/2+z
loop_
_atom_site_type_symbol
_atom_site_label
_atom_site_fract_x
_atom_site_fract_y
_atom_site_fract_z
Si Si1 0.500000 0.000000 0.250000
Si Si2 0.500000 0.178102 0.472489
Si Si3 0.598655 0.401346 0.500000
Si Si4 0.000000 0.500000 0.250000
Si Si5 0.000000 0.691803 0.417708
Si Si6 0.364724 0.262632 0.221159
O O1 0.500000 0.913724 0.373102
O O2 0.500000 0.209655 0.691851
O O3 0.415556 0.214950 0.388178
O O4 0.500000 0.386808 0.510306
O O5 0.643083 0.371409 0.701602
O O6 0.000000 0.588729 0.373778
O O7 0.080952 0.730760 0.532726
O O8 0.271340 0.228661 0.250000
#
# Coordination Sequence:
#
# PCOD9559499 Si02
#       6
#     2   8   8   2   8  16
#     4  12  22  40  74 118 198 236 254 342 444 562
#     4  11  22  40  70 115 168 217 269 335 421 525
#     4  11  24  52  88 110 158 231 290 356 426 495
#     4  12  22  32  70 126 184 238 250 352 458 562
#     4  11  24  40  69 119 167 227 276 322 441 526
#     4  11  24  46  72 113 160 210 284 357 416 503
#
# _framework density 25.173372000000001
#
# number of rings (size 3 to 8) (size 9 to 14) (size 15 to 20)
#    0.000    0.909    5.455    2.727    5.091    1.455 
#    6.545    0.000    0.000    2.182    4.727    0.000 
#    0.000    0.000    0.000    0.000    0.000    0.000 
#
# Total GULP energy -122522.946630 kJ/mol
# GULP energy per Si atom -5569.224847 kJ/mol
# Density = 2.511608 g / cm^3
# Si number density = 25.173372 Si / 1000 Ang^3
#
#
#
# Elastic Constant Matrix: (Units=GPa)
#
#
# Indices 1 2 3 4 5 6 
#
# 1 121.9295 51.8106 52.7054 0.0000 0.0000 0.0000
# 2 51.8106 121.9296 52.7045 0.0000 0.0000 0.0000
# 3 52.7054 52.7045 213.2066 0.0000 0.0000 0.0000
# 4 0.0000 0.0000 0.0000 57.3262 0.0000 0.0000
# 5 0.0000 0.0000 0.0000 0.0000 57.3296 0.0000
# 6 0.0000 0.0000 0.0000 0.0000 0.0000 26.7478
#
#
#
# Elastic Compliance Matrix: (Units=1/GPa)
#
#
# Indices 1 2 3 4 5 6 
#
# 1 0.010516 -0.003745 -0.001674 0.000000 0.000000 0.000000
# 2 -0.003745 0.010516 -0.001674 0.000000 0.000000 0.000000
# 3 -0.001674 -0.001674 0.005518 0.000000 0.000000 0.000000
# 4 0.000000 0.000000 0.000000 0.017444 0.000000 0.000000
# 5 0.000000 0.000000 0.000000 0.000000 0.017443 0.000000
# 6 0.000000 0.000000 0.000000 0.000000 0.000000 0.037386
#
#
# Mechanical properties :
#
#
# Convention : Reuss Voigt Hill
#
# Bulk Modulus (GPa) = 80.87392 85.72297 83.29844
# Shear Modulus (GPa) = 42.68720 48.27042 45.47881
#
# Velocity S-wave (km/s) = 4.12239 4.38370 4.25505
# Velocity P-wave (km/s) = 7.40644 7.72977 7.56983
#
# Compressibility (1/GPa) = 0.01236493
#
# Stress axis : x y z
#
# Youngs Moduli (GPa) = 95.08957 95.09002 181.23001
#
# Poissons Ratio (x) = 0.35612 0.30336
# Poissons Ratio (y) = 0.35612 0.30335
# Poissons Ratio (z) = 0.15917 0.15916
#
# Static dielectric constant tensor:
#      x y z
#    x 2.038870 0.000000 0.000000 
#    y 0.000000 2.038860 0.000000 
#    z 0.000000 0.000000 2.201720 
# 
# From -- ./inp_files/3399.got.cif
#   From: 2010.05.17/outbox.cif.g08.bks.cpg/sg119_2_cif.got.tgz:3399.got - 2010.05.20 11:21:29.
