data_PCOD9559087
_publ_section_title
;
Structure prediction by ZEFSAII (Michael W. Deem and Ramdas Pophale) SiO2 
 PCOD9559087
Probable space group: I -4 M 2
;
_chemical_formula_sum "Si O2"
_cell_formula_units_Z 80
_cell_length_a 23.886194
_cell_length_b 23.886194
_cell_length_c 9.273742
_cell_angle_alpha 90.000000
_cell_angle_beta 90.000000
_cell_angle_gamma 90.000000
_cell_volume 5291.135945
_symmetry_space_group_name_H-M "I -4 M 2"
_symmetry_group_IT_number 119
_symmetry_cell_setting 'tetragonal'
loop_
_space_group_symop_operation_xyz
x,y,z
y,-x,-z
-x,-y,z
-y,x,-z
y,x,-z
-y,-x,-z
-x,y,z
x,-y,z
1/2+x,1/2+y,1/2+z
1/2+y,1/2-x,1/2-z
1/2-x,1/2-y,1/2+z
1/2-y,1/2+x,1/2-z
1/2+y,1/2+x,1/2-z
1/2-y,1/2-x,1/2-z
1/2-x,1/2+y,1/2+z
1/2+x,1/2-y,1/2+z
loop_
_atom_site_type_symbol
_atom_site_label
_atom_site_fract_x
_atom_site_fract_y
_atom_site_fract_z
Si Si1 0.592702 0.000000 0.462858
Si Si2 0.668090 0.000000 0.714862
Si Si3 0.120603 0.293378 0.825964
Si Si4 0.500000 0.832297 0.294716
Si Si5 0.588128 0.000000 0.955460
Si Si6 0.794815 0.381124 0.325843
Si Si7 0.708623 0.292807 0.328321
O O1 0.651219 0.000000 0.548075
O O2 0.610571 0.000000 0.297444
O O3 0.554622 0.946948 0.502636
O O4 0.606497 0.000000 0.790507
O O5 0.698121 0.943358 0.764681
O O6 0.159671 0.340330 0.750000
O O7 0.147804 0.232528 0.793403
O O8 0.057541 0.299884 0.771060
O O9 0.120867 0.302354 0.000077
O O10 0.500000 0.854031 0.458415
O O11 0.841812 0.341812 0.250000
O O12 0.733791 0.353722 0.293819
O O13 0.714235 0.285766 0.500000
O O14 0.750850 0.250850 0.250000
#
# Coordination Sequence:
#
# PCOD9559087 Si02
#       7
#     8   8  16   8   8  16  16
#     4  11  24  32  44  58  86 122 160 185 220 250
#     4  12  22  31  46  64  88 115 153 192 223 261
#     4  10  19  32  48  66  88 115 148 186 226 267
#     4  12  22  31  46  64  88 115 153 192 223 261
#     4  11  20  36  44  58  82 122 156 191 216 252
#     4  10  19  32  48  66  88 115 148 186 226 267
#     4   8  16  30  48  66  84 109 143 182 226 271
#
# _framework density 15.119626999999999
#
# number of rings (size 3 to 8) (size 9 to 14) (size 15 to 20)
#    0.000    1.800    2.000    3.600    2.800    1.600 
#    0.000    0.000    0.000    0.000    0.000    0.000 
#    0.000    0.800    0.000    7.400    0.000    2.000 
#
# Total GULP energy -222846.492814 kJ/mol
# GULP energy per Si atom -5571.162320 kJ/mol
# Density = 1.508521 g / cm^3
# Si number density = 15.119627 Si / 1000 Ang^3
#
#
#
# Elastic Constant Matrix: (Units=GPa)
#
#
# Indices 1 2 3 4 5 6 
#
# 1 91.3770 64.1668 11.5316 0.0000 0.0000 0.0000
# 2 64.1668 91.3775 11.5312 0.0000 0.0000 0.0000
# 3 11.5316 11.5312 24.6918 0.0000 0.0000 0.0000
# 4 0.0000 0.0000 0.0000 12.7986 0.0000 0.0000
# 5 0.0000 0.0000 0.0000 0.0000 12.7988 0.0000
# 6 0.0000 0.0000 0.0000 0.0000 0.0000 26.2386
#
#
#
# Elastic Compliance Matrix: (Units=1/GPa)
#
#
# Indices 1 2 3 4 5 6 
#
# 1 0.021829 -0.014922 -0.003226 0.000000 0.000000 0.000000
# 2 -0.014922 0.021829 -0.003225 0.000000 0.000000 0.000000
# 3 -0.003226 -0.003225 0.043512 0.000000 0.000000 0.000000
# 4 0.000000 0.000000 0.000000 0.078133 0.000000 0.000000
# 5 0.000000 0.000000 0.000000 0.000000 0.078133 0.000000
# 6 0.000000 0.000000 0.000000 0.000000 0.000000 0.038112
#
#
# Mechanical properties :
#
#
# Convention : Reuss Voigt Hill
#
# Bulk Modulus (GPa) = 22.51051 42.43395 32.47223
# Shear Modulus (GPa) = 14.74480 18.38164 16.56322
#
# Velocity S-wave (km/s) = 3.12622 3.49054 3.31339
# Velocity P-wave (km/s) = 5.28693 6.66120 6.01345
#
# Compressibility (1/GPa) = 0.04442368
#
# Stress axis : x y z
#
# Youngs Moduli (GPa) = 45.81039 45.81086 22.98199
#
# Poissons Ratio (x) = 0.68357 0.07414
# Poissons Ratio (y) = 0.68357 0.07413
# Poissons Ratio (z) = 0.14779 0.14776
#
# Static dielectric constant tensor:
#      x y z
#    x 1.526890 0.000000 0.000000 
#    y 0.000000 1.526900 0.000000 
#    z 0.000000 0.000000 1.509400 
# 
# From -- ./inp_files/2629.got.cif
#   From: 2010.05.17/outbox.cif.g08.bks.cpg/sg119_2_cif.got.tgz:2629.got - 2010.05.20 11:21:29.
