data_PCOD9559754
_publ_section_title
;
Structure prediction by ZEFSAII (Michael W. Deem and Ramdas Pophale) SiO2 
 PCOD9559754
Probable space group: I -4 C 2
;
_chemical_formula_sum "Si O2"
_cell_formula_units_Z 120
_cell_length_a 15.019049
_cell_length_b 15.019049
_cell_length_c 27.364331
_cell_angle_alpha 90.000000
_cell_angle_beta 90.000000
_cell_angle_gamma 90.000000
_cell_volume 6172.622299
_symmetry_space_group_name_H-M "I -4 C 2"
_symmetry_group_IT_number 120
_symmetry_cell_setting 'tetragonal'
loop_
_space_group_symop_operation_xyz
x,y,z
y,-x,-z
-x,-y,z
-y,x,-z
y,x,1/2-z
-y,-x,1/2-z
-x,y,1/2+z
x,-y,1/2+z
1/2+x,1/2+y,1/2+z
1/2+y,1/2-x,1/2-z
1/2-x,1/2-y,1/2+z
1/2-y,1/2+x,1/2-z
1/2+y,1/2+x,-z
1/2-y,1/2-x,-z
1/2-x,1/2+y,z
1/2+x,1/2-y,z
loop_
_atom_site_type_symbol
_atom_site_label
_atom_site_fract_x
_atom_site_fract_y
_atom_site_fract_z
Si Si1 0.190944 0.185181 0.303384
Si Si2 0.000000 0.000000 0.083304
Si Si3 0.953539 0.193274 0.956769
Si Si4 0.803588 0.447284 0.143707
Si Si5 0.665578 0.108019 0.209156
Si Si6 0.027539 0.192671 0.121657
Si Si7 0.537925 0.147522 0.679747
Si Si8 0.235458 0.876794 0.979390
O O1 0.158890 0.158890 0.250000
O O2 0.134430 0.263479 0.325860
O O3 0.294748 0.207092 0.297397
O O4 0.176681 0.102838 0.338432
O O5 0.908413 0.981853 0.055045
O O6 0.013143 0.904091 0.109574
O O7 0.947677 0.254690 0.908324
O O8 0.856256 0.181277 0.981194
O O9 0.033353 0.230295 0.989099
O O10 0.787225 0.536710 0.174388
O O11 0.908173 0.426132 0.148944
O O12 0.563759 0.119508 0.190693
O O13 0.663027 0.076823 0.265521
O O14 0.082386 0.235057 0.075777
O O15 0.962490 0.264182 0.146194
O O16 0.315143 0.815143 0.000000
#
# Coordination Sequence:
#
# PCOD9559754 Si02
#       8
#    16   8  16  16  16  16  16  16
#     4  11  21  42  63  94 136 170 219 274 327 405
#     4  10  20  45  65  94 128 170 227 270 343 400
#     4  11  25  42  72  96 127 178 227 282 340 417
#     4  12  23  39  65 102 130 169 226 279 330 390
#     4  11  23  39  67  94 136 185 223 263 331 416
#     4  10  23  42  66  94 130 176 220 285 337 408
#     4  11  22  40  67  95 136 180 225 266 336 411
#     4  11  24  45  69  98 134 175 226 285 348 408
#
# _framework density 19.440684000000001
#
# number of rings (size 3 to 8) (size 9 to 14) (size 15 to 20)
#    0.000    1.067    5.333    2.800    3.733    3.733 
#    0.000    0.333    0.000    0.800    0.000    0.000 
#    0.000    0.000    0.000    0.000    0.000    0.000 
#
# Total GULP energy -334608.465020 kJ/mol
# GULP energy per Si atom -5576.807750 kJ/mol
# Density = 1.939644 g / cm^3
# Si number density = 19.440684 Si / 1000 Ang^3
#
#
#
# Elastic Constant Matrix: (Units=GPa)
#
#
# Indices 1 2 3 4 5 6 
#
# 1 762.6029 -689.6079 36.0443 0.0000 0.0000 0.0000
# 2 -689.6079 762.6029 36.0443 0.0000 0.0000 0.0000
# 3 36.0443 36.0443 116.0670 0.0000 0.0000 0.0000
# 4 0.0000 0.0000 0.0000 31.0126 0.0000 0.0000
# 5 0.0000 0.0000 0.0000 0.0000 31.0126 0.0000
# 6 0.0000 0.0000 0.0000 0.0000 0.0000 37.2315
#
#
#
# Elastic Compliance Matrix: (Units=1/GPa)
#
#
# Indices 1 2 3 4 5 6 
#
# 1 0.010224 0.009536 -0.006136 0.000000 0.000000 0.000000
# 2 0.009536 0.010224 -0.006136 0.000000 0.000000 0.000000
# 3 -0.006136 -0.006136 0.012427 0.000000 0.000000 0.000000
# 4 0.000000 0.000000 0.000000 0.032245 0.000000 0.000000
# 5 0.000000 0.000000 0.000000 0.000000 0.032245 0.000000
# 6 0.000000 0.000000 0.000000 0.000000 0.000000 0.026859
#
#
# Mechanical properties :
#
#
# Convention : Reuss Voigt Hill
#
# Bulk Modulus (GPa) = 36.49496 45.13715 40.81606
# Shear Modulus (GPa) = 36.01474 170.43748 103.22611
#
# Velocity S-wave (km/s) = 4.30879 9.37341 7.29474
# Velocity P-wave (km/s) = 6.60056 11.84973 9.59123
#
# Compressibility (1/GPa) = 0.02740104
#
# Stress axis : x y z
#
# Youngs Moduli (GPa) = 97.80761 97.80761 80.47017
#
# Poissons Ratio (x) = -0.93265 0.49379
# Poissons Ratio (y) = -0.93265 0.49379
# Poissons Ratio (z) = 0.60018 0.60018
#
# Static dielectric constant tensor:
#      x y z
#    x 1.719880 0.000000 0.000000 
#    y 0.000000 1.719880 0.000000 
#    z 0.000000 0.000000 1.071270 
# 
# From -- ./inp_files/6726.got.cif
#   From: 2010.05.17/outbox.cif.g08.bks.cpg/sg120_4_cif.got.tgz:6726.got - 2010.05.20 11:28:13.
