data_PCOD9559302
_publ_section_title
;
Structure prediction by ZEFSAII (Michael W. Deem and Ramdas Pophale) SiO2 
 PCOD9559302
Probable space group: I -4 M 2
;
_chemical_formula_sum "Si O2"
_cell_formula_units_Z 80
_cell_length_a 11.841696
_cell_length_b 11.841696
_cell_length_c 30.387181
_cell_angle_alpha 90.000000
_cell_angle_beta 90.000000
_cell_angle_gamma 90.000000
_cell_volume 4261.065676
_symmetry_space_group_name_H-M "I -4 M 2"
_symmetry_group_IT_number 119
_symmetry_cell_setting 'tetragonal'
loop_
_space_group_symop_operation_xyz
x,y,z
y,-x,-z
-x,-y,z
-y,x,-z
y,x,-z
-y,-x,-z
-x,y,z
x,-y,z
1/2+x,1/2+y,1/2+z
1/2+y,1/2-x,1/2-z
1/2-x,1/2-y,1/2+z
1/2-y,1/2+x,1/2-z
1/2+y,1/2+x,1/2-z
1/2-y,1/2-x,1/2-z
1/2-x,1/2+y,1/2+z
1/2+x,1/2-y,1/2+z
loop_
_atom_site_type_symbol
_atom_site_label
_atom_site_fract_x
_atom_site_fract_y
_atom_site_fract_z
Si Si1 0.369852 0.000000 0.883823
Si Si2 0.866088 0.256786 0.539696
Si Si3 0.730591 0.291019 0.701875
Si Si4 0.637280 0.000000 0.070568
Si Si5 0.000000 0.366459 0.828370
Si Si6 0.130176 0.750772 0.382778
Si Si7 0.500000 0.371705 0.667649
O O1 0.368982 0.875326 0.904825
O O2 0.500000 0.000000 0.861707
O O3 0.245271 0.000000 0.860815
O O4 0.802970 0.197031 0.500000
O O5 0.828092 0.385828 0.546539
O O6 0.835866 0.192180 0.584733
O O7 0.000000 0.254292 0.532039
O O8 0.738635 0.238635 0.750000
O O9 0.824402 0.386568 0.694621
O O10 0.741804 0.197437 0.663280
O O11 0.612931 0.356414 0.695654
O O12 0.678295 0.000000 0.121107
O O13 0.500000 0.000000 0.072098
O O14 0.000000 0.500000 0.830115
O O15 0.000000 0.782035 0.375707
O O16 0.500000 0.500000 0.647912
#
# Coordination Sequence:
#
# PCOD9559302 Si02
#       7
#     8  16  16   8   8  16   8
#     4   8  18  37  60  86 119 161 209 248 302 377
#     4  11  23  40  64  92 122 157 199 249 306 371
#     4  11  24  38  61  89 125 166 210 259 309 370
#     4   9  20  41  63  86 120 161 200 242 302 369
#     4  11  22  39  62  87 122 163 208 250 304 365
#     4  10  21  39  62  87 123 163 205 253 307 365
#     4  10  20  38  59  87 121 158 210 266 318 359
#
# _framework density 18.774647000000002
#
# number of rings (size 3 to 8) (size 9 to 14) (size 15 to 20)
#    0.000    1.800    3.000    0.600    2.800    2.200 
#    0.000    3.000    0.000    1.500    0.000    0.000 
#    0.000    0.000    0.000    0.000    0.000    0.000 
#
# Total GULP energy -222804.332966 kJ/mol
# GULP energy per Si atom -5570.108324 kJ/mol
# Density = 1.873192 g / cm^3
# Si number density = 18.774647 Si / 1000 Ang^3
#
#
#
# Elastic Constant Matrix: (Units=GPa)
#
#
# Indices 1 2 3 4 5 6 
#
# 1 104.6929 32.0528 26.0609 0.0000 0.0000 0.0000
# 2 32.0528 104.6921 26.0613 0.0000 0.0000 0.0000
# 3 26.0609 26.0613 83.1494 0.0000 0.0000 0.0000
# 4 0.0000 0.0000 0.0000 17.9538 0.0000 0.0000
# 5 0.0000 0.0000 0.0000 0.0000 17.9538 0.0000
# 6 0.0000 0.0000 0.0000 0.0000 0.0000 22.1564
#
#
#
# Elastic Compliance Matrix: (Units=1/GPa)
#
#
# Indices 1 2 3 4 5 6 
#
# 1 0.011036 -0.002731 -0.002603 0.000000 0.000000 0.000000
# 2 -0.002731 0.011036 -0.002603 0.000000 0.000000 0.000000
# 3 -0.002603 -0.002603 0.013658 0.000000 0.000000 0.000000
# 4 0.000000 0.000000 0.000000 0.055699 0.000000 0.000000
# 5 0.000000 0.000000 0.000000 0.000000 0.055699 0.000000
# 6 0.000000 0.000000 0.000000 0.000000 0.000000 0.045134
#
#
# Mechanical properties :
#
#
# Convention : Reuss Voigt Hill
#
# Bulk Modulus (GPa) = 50.36187 51.20937 50.78562
# Shear Modulus (GPa) = 23.28254 25.50340 24.39297
#
# Velocity S-wave (km/s) = 3.52533 3.68964 3.60842
# Velocity P-wave (km/s) = 6.59191 6.74435 6.66857
#
# Compressibility (1/GPa) = 0.01985629
#
# Stress axis : x y z
#
# Youngs Moduli (GPa) = 90.61462 90.61365 73.21587
#
# Poissons Ratio (x) = 0.24745 0.19058
# Poissons Ratio (y) = 0.24745 0.19058
# Poissons Ratio (z) = 0.23587 0.23587
#
# Static dielectric constant tensor:
#      x y z
#    x 1.663660 0.000000 0.000000 
#    y 0.000000 1.663670 0.000000 
#    z 0.000000 0.000000 1.642970 
# 
# From -- ./inp_files/10210.got.cif
#   From: 2010.05.17/outbox.cif.g08.bks.cpg/sg119_6_cif.got.tgz:10210.got - 2010.05.20 11:21:29.
