data_PCOD9559989
_publ_section_title
;
Structure prediction by ZEFSAII (Michael W. Deem and Ramdas Pophale) SiO2 
 PCOD9559989
Probable space group: I -4 C 2
;
_chemical_formula_sum "Si O2"
_cell_formula_units_Z 84
_cell_length_a 11.454114
_cell_length_b 11.454114
_cell_length_c 28.913445
_cell_angle_alpha 90.000000
_cell_angle_beta 90.000000
_cell_angle_gamma 90.000000
_cell_volume 3793.349365
_symmetry_space_group_name_H-M "I -4 C 2"
_symmetry_group_IT_number 120
_symmetry_cell_setting 'tetragonal'
loop_
_space_group_symop_operation_xyz
x,y,z
y,-x,-z
-x,-y,z
-y,x,-z
y,x,1/2-z
-y,-x,1/2-z
-x,y,1/2+z
x,-y,1/2+z
1/2+x,1/2+y,1/2+z
1/2+y,1/2-x,1/2-z
1/2-x,1/2-y,1/2+z
1/2-y,1/2+x,1/2-z
1/2+y,1/2+x,-z
1/2-y,1/2-x,-z
1/2-x,1/2+y,z
1/2+x,1/2-y,z
loop_
_atom_site_type_symbol
_atom_site_label
_atom_site_fract_x
_atom_site_fract_y
_atom_site_fract_z
Si Si1 0.820583 0.046859 0.819317
Si Si2 0.731615 0.231615 0.500000
Si Si3 0.484451 0.738912 0.947029
Si Si4 0.000000 0.500000 0.750000
Si Si5 0.922123 0.614654 0.858283
Si Si6 0.524809 0.752433 0.779562
Si Si7 0.000000 0.000000 0.892197
O O1 0.707193 0.072932 0.849191
O O2 0.802254 0.987908 0.769404
O O3 0.881328 0.168104 0.803607
O O4 0.897378 0.978324 0.855742
O O5 0.730219 0.360010 0.525433
O O6 0.606596 0.230156 0.472746
O O7 0.458552 0.834132 0.907254
O O8 0.510844 0.613840 0.923533
O O9 0.883124 0.568730 0.733017
O O10 0.000000 0.500000 0.847777
O O11 0.936774 0.715926 0.820195
#
# Coordination Sequence:
#
# PCOD9559989 Si02
#       7
#    16   8  16   4  16  16   8
#     4  11  26  44  71 109 158 208 260 307 378 450
#     4  12  30  56  84 116 150 202 252 336 422 504
#     4  12  29  51  84 113 154 195 259 325 414 480
#     4  12  20  44  64 100 148 210 268 312 372 428
#     4  12  26  45  77 111 151 197 266 321 383 464
#     4  11  22  43  66 107 150 213 256 308 362 449
#     4  12  26  52  74 116 160 200 250 327 385 464
#
# _framework density 22.144017999999999
#
# number of rings (size 3 to 8) (size 9 to 14) (size 15 to 20)
#    0.000    0.381    4.762    2.286    5.333    3.048 
#    3.429    0.000    0.000    0.000    0.000    0.000 
#    0.000    0.000    0.000    0.000    0.000    0.000 
#
# Total GULP energy -233980.721022 kJ/mol
# GULP energy per Si atom -5570.969548 kJ/mol
# Density = 2.209362 g / cm^3
# Si number density = 22.144018 Si / 1000 Ang^3
#
#
#
# Elastic Constant Matrix: (Units=GPa)
#
#
# Indices 1 2 3 4 5 6 
#
# 1 122.4172 33.4802 64.2088 0.0000 0.0000 0.0000
# 2 33.4802 122.4172 64.2088 0.0000 0.0000 0.0000
# 3 64.2088 64.2088 136.9507 0.0000 0.0000 0.0000
# 4 0.0000 0.0000 0.0000 21.0868 0.0000 0.0000
# 5 0.0000 0.0000 0.0000 0.0000 21.0868 0.0000
# 6 0.0000 0.0000 0.0000 0.0000 0.0000 36.5345
#
#
#
# Elastic Compliance Matrix: (Units=1/GPa)
#
#
# Indices 1 2 3 4 5 6 
#
# 1 0.010847 -0.000397 -0.004900 0.000000 0.000000 0.000000
# 2 -0.000397 0.010847 -0.004900 0.000000 0.000000 0.000000
# 3 -0.004900 -0.004900 0.011896 0.000000 0.000000 0.000000
# 4 0.000000 0.000000 0.000000 0.047423 0.000000 0.000000
# 5 0.000000 0.000000 0.000000 0.000000 0.047423 0.000000
# 6 0.000000 0.000000 0.000000 0.000000 0.000000 0.027371
#
#
# Mechanical properties :
#
#
# Convention : Reuss Voigt Hill
#
# Bulk Modulus (GPa) = 75.76577 78.39787 77.08182
# Shear Modulus (GPa) = 27.68554 30.40077 29.04315
#
# Velocity S-wave (km/s) = 3.53972 3.70924 3.62547
# Velocity P-wave (km/s) = 7.14111 7.33656 7.23949
#
# Compressibility (1/GPa) = 0.01319857
#
# Stress axis : x y z
#
# Youngs Moduli (GPa) = 92.18963 92.18963 84.05984
#
# Poissons Ratio (x) = 0.03657 0.41187
# Poissons Ratio (y) = 0.03657 0.41187
# Poissons Ratio (z) = 0.45170 0.45170
#
# Static dielectric constant tensor:
#      x y z
#    x 1.882690 0.000000 0.000000 
#    y 0.000000 1.882690 0.000000 
#    z 0.000000 0.000000 1.977670 
# 
# From -- ./inp_files/6628.got.cif
#   From: 2010.05.17/outbox.cif.g08.bks.cpg/sg120_4_cif.got.tgz:6628.got - 2010.05.20 11:28:13.
