data_PCOD9559715
_publ_section_title
;
Structure prediction by ZEFSAII (Michael W. Deem and Ramdas Pophale) SiO2 
 PCOD9559715
Probable space group: I -4 C 2
;
_chemical_formula_sum "Si O2"
_cell_formula_units_Z 84
_cell_length_a 19.827324
_cell_length_b 19.827324
_cell_length_c 9.326379
_cell_angle_alpha 90.000000
_cell_angle_beta 90.000000
_cell_angle_gamma 90.000000
_cell_volume 3666.412012
_symmetry_space_group_name_H-M "I -4 C 2"
_symmetry_group_IT_number 120
_symmetry_cell_setting 'tetragonal'
loop_
_space_group_symop_operation_xyz
x,y,z
y,-x,-z
-x,-y,z
-y,x,-z
y,x,1/2-z
-y,-x,1/2-z
-x,y,1/2+z
x,-y,1/2+z
1/2+x,1/2+y,1/2+z
1/2+y,1/2-x,1/2-z
1/2-x,1/2-y,1/2+z
1/2-y,1/2+x,1/2-z
1/2+y,1/2+x,-z
1/2-y,1/2-x,-z
1/2-x,1/2+y,z
1/2+x,1/2-y,z
loop_
_atom_site_type_symbol
_atom_site_label
_atom_site_fract_x
_atom_site_fract_y
_atom_site_fract_z
Si Si1 0.629563 0.709239 0.368091
Si Si2 0.510662 0.838615 0.582993
Si Si3 0.143900 0.585961 0.681655
Si Si4 0.915981 0.124526 0.923293
Si Si5 0.502657 0.310075 0.182261
Si Si6 0.500000 0.500000 0.500000
O O1 0.683171 0.683171 0.250000
O O2 0.630180 0.791189 0.368574
O O3 0.632551 0.659270 0.506802
O O4 0.556413 0.694390 0.300153
O O5 0.517755 0.848502 0.413590
O O6 0.439090 0.853652 0.655364
O O7 0.572631 0.881808 0.644951
O O8 0.524605 0.761947 0.624316
O O9 0.840571 0.064569 0.726770
O O10 0.949741 0.049809 0.916202
O O11 0.962646 0.157330 0.049160
#
# Coordination Sequence:
#
# PCOD9559715 Si02
#       6
#    16  16  16  16  16   4
#     4   9  19  38  58  82 125 166 202 249 305 362
#     4  10  22  41  68  90 127 154 205 253 321 387
#     4  10  22  43  65  96 120 163 200 257 318 384
#     4  11  22  36  57  86 129 168 213 257 302 351
#     4  10  20  38  57  85 116 168 202 253 311 356
#     4  12  24  34  52  94 124 166 220 266 280 358
#
# _framework density 22.910682000000001
#
# number of rings (size 3 to 8) (size 9 to 14) (size 15 to 20)
#    0.000    1.905    1.905    2.286    0.000    2.667 
#    0.000    5.714    0.000    0.000    0.000    0.000 
#    0.000    0.000    0.000    0.000    0.000    0.000 
#
# Total GULP energy -234203.847338 kJ/mol
# GULP energy per Si atom -5576.282079 kJ/mol
# Density = 2.285854 g / cm^3
# Si number density = 22.910682 Si / 1000 Ang^3
#
#
#
# Elastic Constant Matrix: (Units=GPa)
#
#
# Indices 1 2 3 4 5 6 
#
# 1 35.9815 33.7499 13.8555 0.0000 0.0000 0.0000
# 2 33.7499 35.9815 13.8555 0.0000 0.0000 0.0000
# 3 13.8555 13.8555 91.6151 0.0000 0.0000 0.0000
# 4 0.0000 0.0000 0.0000 29.9037 0.0000 0.0000
# 5 0.0000 0.0000 0.0000 0.0000 29.9037 0.0000
# 6 0.0000 0.0000 0.0000 0.0000 0.0000 23.4086
#
#
#
# Elastic Compliance Matrix: (Units=1/GPa)
#
#
# Indices 1 2 3 4 5 6 
#
# 1 0.231685 -0.216428 -0.002308 0.000000 0.000000 0.000000
# 2 -0.216428 0.231685 -0.002308 0.000000 0.000000 0.000000
# 3 -0.002308 -0.002308 0.011613 0.000000 0.000000 0.000000
# 4 0.000000 0.000000 0.000000 0.033441 0.000000 0.000000
# 5 0.000000 0.000000 0.000000 0.000000 0.033441 0.000000
# 6 0.000000 0.000000 0.000000 0.000000 0.000000 0.042719
#
#
# Mechanical properties :
#
#
# Convention : Reuss Voigt Hill
#
# Bulk Modulus (GPa) = 30.39646 31.83334 31.11490
# Shear Modulus (GPa) = 4.81864 23.45102 14.13483
#
# Velocity S-wave (km/s) = 1.45183 3.20282 2.48655
# Velocity P-wave (km/s) = 4.01330 5.25377 4.67486
#
# Compressibility (1/GPa) = 0.03289857
#
# Stress axis : x y z
#
# Youngs Moduli (GPa) = 4.31620 4.31620 86.10894
#
# Poissons Ratio (x) = 0.93414 0.19870
# Poissons Ratio (y) = 0.93414 0.19870
# Poissons Ratio (z) = 0.00996 0.00996
#
# Static dielectric constant tensor:
#      x y z
#    x 1.897330 0.000000 0.000000 
#    y 0.000000 1.897330 0.000000 
#    z 0.000000 0.000000 1.921980 
# 
# From -- ./inp_files/2667.got.cif
#   From: 2010.05.17/outbox.cif.g08.bks.cpg/sg120_2_cif.got.tgz:2667.got - 2010.05.20 11:28:13.
