data_PCOD9559999
_publ_section_title
;
Structure prediction by ZEFSAII (Michael W. Deem and Ramdas Pophale) SiO2 
 PCOD9559999
Probable space group: I -4 C 2
;
_chemical_formula_sum "Si O2"
_cell_formula_units_Z 88
_cell_length_a 14.925351
_cell_length_b 14.925351
_cell_length_c 19.225684
_cell_angle_alpha 90.000000
_cell_angle_beta 90.000000
_cell_angle_gamma 90.000000
_cell_volume 4282.830692
_symmetry_space_group_name_H-M "I -4 C 2"
_symmetry_group_IT_number 120
_symmetry_cell_setting 'tetragonal'
loop_
_space_group_symop_operation_xyz
x,y,z
y,-x,-z
-x,-y,z
-y,x,-z
y,x,1/2-z
-y,-x,1/2-z
-x,y,1/2+z
x,-y,1/2+z
1/2+x,1/2+y,1/2+z
1/2+y,1/2-x,1/2-z
1/2-x,1/2-y,1/2+z
1/2-y,1/2+x,1/2-z
1/2+y,1/2+x,-z
1/2-y,1/2-x,-z
1/2-x,1/2+y,z
1/2+x,1/2-y,z
loop_
_atom_site_type_symbol
_atom_site_label
_atom_site_fract_x
_atom_site_fract_y
_atom_site_fract_z
Si Si1 0.180617 0.886900 0.148287
Si Si2 0.405145 0.050395 0.109154
Si Si3 0.435876 0.786262 0.987402
Si Si4 0.251857 0.975467 0.372552
Si Si5 0.256810 0.256810 0.750000
Si Si6 0.955013 0.739094 0.280271
O O1 0.218767 0.903405 0.071776
O O2 0.089338 0.831757 0.141680
O O3 0.245213 0.824491 0.195771
O O4 0.183400 0.982162 0.187700
O O5 0.420919 0.156307 0.113456
O O6 0.351359 0.020204 0.178267
O O7 0.500000 0.000000 0.103792
O O8 0.342293 0.018489 0.045879
O O9 0.358076 0.858076 0.000000
O O10 0.463758 0.740788 0.059427
O O11 0.268210 0.029108 0.301601
O O12 0.350031 0.253889 0.790523
#
# Coordination Sequence:
#
# PCOD9559999 Si02
#       6
#    16  16  16  16   8  16
#     4  11  24  46  68 101 143 181 241 287 350 439
#     4  11  23  37  64 101 140 175 222 291 365 427
#     4  11  24  40  61  99 140 181 228 283 351 428
#     4  12  23  42  68  99 141 182 227 298 355 425
#     4  12  22  46  73 103 136 184 230 296 364 410
#     4  11  24  42  70 103 132 180 237 288 351 420
#
# _framework density 20.547158
#
# number of rings (size 3 to 8) (size 9 to 14) (size 15 to 20)
#    0.000    0.727    5.455    1.636    5.091    1.455 
#    6.545    1.818    0.000    0.000    0.000    0.000 
#    0.000    0.000    0.000    0.000    0.000    0.000 
#
# Total GULP energy -245991.821499 kJ/mol
# GULP energy per Si atom -5590.723216 kJ/mol
# Density = 2.050039 g / cm^3
# Si number density = 20.547158 Si / 1000 Ang^3
#
#
#
# Elastic Constant Matrix: (Units=GPa)
#
#
# Indices 1 2 3 4 5 6 
#
# 1 47.3823 7.9952 17.5934 0.0000 0.0000 0.0000
# 2 7.9952 47.3823 17.5934 0.0000 0.0000 0.0000
# 3 17.5934 17.5934 140.9060 0.0000 0.0000 0.0000
# 4 0.0000 0.0000 0.0000 25.5103 0.0000 0.0000
# 5 0.0000 0.0000 0.0000 0.0000 25.5103 0.0000
# 6 0.0000 0.0000 0.0000 0.0000 0.0000 15.6182
#
#
#
# Elastic Compliance Matrix: (Units=1/GPa)
#
#
# Indices 1 2 3 4 5 6 
#
# 1 0.022502 -0.002888 -0.002449 0.000000 0.000000 0.000000
# 2 -0.002888 0.022502 -0.002449 0.000000 0.000000 0.000000
# 3 -0.002449 -0.002449 0.007708 0.000000 0.000000 0.000000
# 4 0.000000 0.000000 0.000000 0.039200 0.000000 0.000000
# 5 0.000000 0.000000 0.000000 0.000000 0.039200 0.000000
# 6 0.000000 0.000000 0.000000 0.000000 0.000000 0.064028
#
#
# Mechanical properties :
#
#
# Convention : Reuss Voigt Hill
#
# Bulk Modulus (GPa) = 26.92481 35.78163 31.35322
# Shear Modulus (GPa) = 22.41244 26.16032 24.28638
#
# Velocity S-wave (km/s) = 3.30628 3.57204 3.44173
# Velocity P-wave (km/s) = 5.26381 5.87068 5.57550
#
# Compressibility (1/GPa) = 0.03714047
#
# Stress axis : x y z
#
# Youngs Moduli (GPa) = 44.44144 44.44144 129.72716
#
# Poissons Ratio (x) = 0.12833 0.31770
# Poissons Ratio (y) = 0.12833 0.31770
# Poissons Ratio (z) = 0.10884 0.10884
#
# Static dielectric constant tensor:
#      x y z
#    x 1.741880 0.000000 0.000000 
#    y 0.000000 1.741880 0.000000 
#    z 0.000000 0.000000 1.746140 
# 
# From -- ./inp_files/5249.got.cif
#   From: 2010.05.17/outbox.cif.g08.bks.cpg/sg120_3_cif.got.tgz:5249.got - 2010.05.20 11:28:13.
