data_PCOD9559869
_publ_section_title
;
Structure prediction by ZEFSAII (Michael W. Deem and Ramdas Pophale) SiO2 
 PCOD9559869
Probable space group: I -4 C 2
;
_chemical_formula_sum "Si O2"
_cell_formula_units_Z 96
_cell_length_a 15.242488
_cell_length_b 15.242488
_cell_length_c 19.535398
_cell_angle_alpha 90.000000
_cell_angle_beta 90.000000
_cell_angle_gamma 90.000000
_cell_volume 4538.726228
_symmetry_space_group_name_H-M "I -4 C 2"
_symmetry_group_IT_number 120
_symmetry_cell_setting 'tetragonal'
loop_
_space_group_symop_operation_xyz
x,y,z
y,-x,-z
-x,-y,z
-y,x,-z
y,x,1/2-z
-y,-x,1/2-z
-x,y,1/2+z
x,-y,1/2+z
1/2+x,1/2+y,1/2+z
1/2+y,1/2-x,1/2-z
1/2-x,1/2-y,1/2+z
1/2-y,1/2+x,1/2-z
1/2+y,1/2+x,-z
1/2-y,1/2-x,-z
1/2-x,1/2+y,z
1/2+x,1/2-y,z
loop_
_atom_site_type_symbol
_atom_site_label
_atom_site_fract_x
_atom_site_fract_y
_atom_site_fract_z
Si Si1 0.401940 0.862282 0.853010
Si Si2 0.803622 0.543343 0.733196
Si Si3 0.758070 0.369328 0.454013
Si Si4 0.659459 0.447580 0.807504
Si Si5 0.329815 0.579971 0.587389
Si Si6 0.605745 0.638510 0.849047
O O1 0.502875 0.866693 0.825935
O O2 0.350915 0.896184 0.787371
O O3 0.349098 0.903256 0.918503
O O4 0.397855 0.759377 0.871257
O O5 0.756352 0.466365 0.778214
O O6 0.722455 0.593536 0.698997
O O7 0.786977 0.286977 0.500000
O O8 0.701109 0.423674 0.508753
O O9 0.692562 0.347266 0.393450
O O10 0.607460 0.392541 0.750000
O O11 0.648270 0.399753 0.880869
O O12 0.616481 0.543211 0.815988
O O13 0.362884 0.483776 0.607595
#
# Coordination Sequence:
#
# PCOD9559869 Si02
#       6
#    16  16  16  16  16  16
#     4  10  22  43  62  91 124 169 219 281 330 397
#     4  11  24  38  66  94 127 173 224 285 341 386
#     4  10  23  41  58  85 134 180 220 263 321 407
#     4  12  22  38  62  98 137 167 212 279 346 403
#     4  10  24  38  60  92 132 177 214 264 339 408
#     4  11  23  36  63  92 131 171 215 271 338 398
#
# _framework density 21.151309000000001
#
# number of rings (size 3 to 8) (size 9 to 14) (size 15 to 20)
#    0.000    1.333    5.000    1.000    4.667    4.333 
#    0.000    0.000    0.000    0.000    0.000    8.167 
#    0.000    0.000    0.000    0.000    0.000    0.000 
#
# Total GULP energy -267309.473630 kJ/mol
# GULP energy per Si atom -5568.947367 kJ/mol
# Density = 2.110317 g / cm^3
# Si number density = 21.151309 Si / 1000 Ang^3
#
#
#
# Elastic Constant Matrix: (Units=GPa)
#
#
# Indices 1 2 3 4 5 6 
#
# 1 32.3653 20.4989 30.3263 0.0000 0.0000 0.0000
# 2 20.4989 32.3654 30.3263 0.0000 0.0000 0.0000
# 3 30.3263 30.3263 105.5139 0.0000 0.0000 0.0000
# 4 0.0000 0.0000 0.0000 42.9610 0.0000 0.0000
# 5 0.0000 0.0000 0.0000 0.0000 42.9610 0.0000
# 6 0.0000 0.0000 0.0000 0.0000 0.0000 29.7120
#
#
#
# Elastic Compliance Matrix: (Units=1/GPa)
#
#
# Indices 1 2 3 4 5 6 
#
# 1 0.056247 -0.028024 -0.008112 0.000000 0.000000 0.000000
# 2 -0.028024 0.056247 -0.008112 0.000000 0.000000 0.000000
# 3 -0.008112 -0.008112 0.014140 0.000000 0.000000 0.000000
# 4 0.000000 0.000000 0.000000 0.023277 0.000000 0.000000
# 5 0.000000 0.000000 0.000000 0.000000 0.023277 0.000000
# 6 0.000000 0.000000 0.000000 0.000000 0.000000 0.033656
#
#
# Mechanical properties :
#
#
# Convention : Reuss Voigt Hill
#
# Bulk Modulus (GPa) = 26.21943 36.94972 31.58458
# Shear Modulus (GPa) = 16.23093 29.06634 22.64864
#
# Velocity S-wave (km/s) = 2.77315 3.71106 3.27584
# Velocity P-wave (km/s) = 4.76203 5.98914 5.41048
#
# Compressibility (1/GPa) = 0.03813965
#
# Stress axis : x y z
#
# Youngs Moduli (GPa) = 17.77859 17.77865 70.71979
#
# Poissons Ratio (x) = 0.49823 0.57367
# Poissons Ratio (y) = 0.49823 0.57366
# Poissons Ratio (z) = 0.14422 0.14422
#
# Static dielectric constant tensor:
#      x y z
#    x 1.792240 0.000000 0.000000 
#    y 0.000000 1.792240 0.000000 
#    z 0.000000 0.000000 1.864520 
# 
# From -- ./inp_files/5372.got.cif
#   From: 2010.05.17/outbox.cif.g08.bks.cpg/sg120_3_cif.got.tgz:5372.got - 2010.05.20 11:28:13.
