data_PCOD9559996
_publ_section_title
;
Structure prediction by ZEFSAII (Michael W. Deem and Ramdas Pophale) SiO2 
 PCOD9559996
Probable space group: I -4 C 2
;
_chemical_formula_sum "Si O2"
_cell_formula_units_Z 76
_cell_length_a 19.770627
_cell_length_b 19.770627
_cell_length_c 10.417553
_cell_angle_alpha 90.000000
_cell_angle_beta 90.000000
_cell_angle_gamma 90.000000
_cell_volume 4071.989073
_symmetry_space_group_name_H-M "I -4 C 2"
_symmetry_group_IT_number 120
_symmetry_cell_setting 'tetragonal'
loop_
_space_group_symop_operation_xyz
x,y,z
y,-x,-z
-x,-y,z
-y,x,-z
y,x,1/2-z
-y,-x,1/2-z
-x,y,1/2+z
x,-y,1/2+z
1/2+x,1/2+y,1/2+z
1/2+y,1/2-x,1/2-z
1/2-x,1/2-y,1/2+z
1/2-y,1/2+x,1/2-z
1/2+y,1/2+x,-z
1/2-y,1/2-x,-z
1/2-x,1/2+y,z
1/2+x,1/2-y,z
loop_
_atom_site_type_symbol
_atom_site_label
_atom_site_fract_x
_atom_site_fract_y
_atom_site_fract_z
Si Si1 0.500000 0.500000 0.500000
Si Si2 0.515178 0.650695 0.967768
Si Si3 0.159386 0.796570 0.889550
Si Si4 0.680633 0.565642 0.269075
Si Si5 0.695848 0.804153 0.500000
Si Si6 0.172707 0.711204 0.226196
O O1 0.572228 0.504244 0.569594
O O2 0.591688 0.672840 0.943290
O O3 0.468018 0.691200 0.870105
O O4 0.510459 0.660651 0.121850
O O5 0.171423 0.828578 0.750000
O O6 0.162219 0.715184 0.866716
O O7 0.223785 0.814570 0.977056
O O8 0.620303 0.620303 0.250000
O O9 0.748131 0.606177 0.311850
O O10 0.677290 0.837672 0.634589
O O11 0.229362 0.770639 0.250000
#
# Coordination Sequence:
#
# PCOD9559996 Si02
#       6
#     4  16  16  16   8  16
#     4  12  28  38  48  70 116 162 208 222 252 318
#     4  12  25  36  51  70 105 154 192 228 267 321
#     4   9  18  30  53  72  94 128 181 230 282 331
#     4  11  23  37  52  72 104 145 190 238 272 320
#     4   8  14  28  52  74  90 118 166 240 290 316
#     4   8  16  31  51  75  94 121 174 239 295 319
#
# _framework density 18.664097000000002
#
# number of rings (size 3 to 8) (size 9 to 14) (size 15 to 20)
#    0.000    2.526    2.105    3.789    2.947    2.526 
#    0.000    0.000    0.000    0.000    0.000    0.000 
#    0.000    0.842    0.000    4.842    1.263    1.158 
#
# Total GULP energy -211674.292216 kJ/mol
# GULP energy per Si atom -5570.376111 kJ/mol
# Density = 1.862162 g / cm^3
# Si number density = 18.664097 Si / 1000 Ang^3
#
#
#
# Elastic Constant Matrix: (Units=GPa)
#
#
# Indices 1 2 3 4 5 6 
#
# 1 29.4360 21.1208 -0.7047 0.0000 0.0000 0.0000
# 2 21.1208 29.4345 -0.7048 0.0000 0.0000 0.0000
# 3 -0.7047 -0.7048 81.4051 0.0000 0.0000 0.0000
# 4 0.0000 0.0000 0.0000 21.1524 0.0000 0.0000
# 5 0.0000 0.0000 0.0000 0.0000 21.1524 0.0000
# 6 0.0000 0.0000 0.0000 0.0000 0.0000 26.2194
#
#
#
# Elastic Compliance Matrix: (Units=1/GPa)
#
#
# Indices 1 2 3 4 5 6 
#
# 1 0.070027 -0.050244 0.000171 0.000000 0.000000 0.000000
# 2 -0.050244 0.070031 0.000171 0.000000 0.000000 0.000000
# 3 0.000171 0.000171 0.012287 0.000000 0.000000 0.000000
# 4 0.000000 0.000000 0.000000 0.047276 0.000000 0.000000
# 5 0.000000 0.000000 0.000000 0.000000 0.047276 0.000000
# 6 0.000000 0.000000 0.000000 0.000000 0.000000 0.038140
#
#
# Mechanical properties :
#
#
# Convention : Reuss Voigt Hill
#
# Bulk Modulus (GPa) = 19.03243 19.96648 19.49945
# Shear Modulus (GPa) = 12.42687 21.74247 17.08467
#
# Velocity S-wave (km/s) = 2.58314 3.41682 3.02880
# Velocity P-wave (km/s) = 4.37222 5.12711 4.76464
#
# Compressibility (1/GPa) = 0.05254191
#
# Stress axis : x y z
#
# Youngs Moduli (GPa) = 14.28017 14.27945 81.38547
#
# Poissons Ratio (x) = 0.71746 -0.01394
# Poissons Ratio (y) = 0.71750 -0.01394
# Poissons Ratio (z) = -0.00245 -0.00245
#
# Static dielectric constant tensor:
#      x y z
#    x 1.666980 0.000000 0.000000 
#    y 0.000000 1.666990 0.000000 
#    z 0.000000 0.000000 1.826160 
# 
# From -- ./inp_files/2617.got.cif
#   From: 2010.05.17/outbox.cif.g08.bks.cpg/sg120_2_cif.got.tgz:2617.got - 2010.05.20 11:28:13.
