data_PCOD9559667
_publ_section_title
;
Structure prediction by ZEFSAII (Michael W. Deem and Ramdas Pophale) SiO2 
 PCOD9559667
Probable space group: I -4 C 2
;
_chemical_formula_sum "Si O2"
_cell_formula_units_Z 88
_cell_length_a 30.257038
_cell_length_b 30.257038
_cell_length_c 5.394925
_cell_angle_alpha 90.000000
_cell_angle_beta 90.000000
_cell_angle_gamma 90.000000
_cell_volume 4938.990979
_symmetry_space_group_name_H-M "I -4 C 2"
_symmetry_group_IT_number 120
_symmetry_cell_setting 'tetragonal'
loop_
_space_group_symop_operation_xyz
x,y,z
y,-x,-z
-x,-y,z
-y,x,-z
y,x,1/2-z
-y,-x,1/2-z
-x,y,1/2+z
x,-y,1/2+z
1/2+x,1/2+y,1/2+z
1/2+y,1/2-x,1/2-z
1/2-x,1/2-y,1/2+z
1/2-y,1/2+x,1/2-z
1/2+y,1/2+x,-z
1/2-y,1/2-x,-z
1/2-x,1/2+y,z
1/2+x,1/2-y,z
loop_
_atom_site_type_symbol
_atom_site_label
_atom_site_fract_x
_atom_site_fract_y
_atom_site_fract_z
Si Si1 0.752991 0.809071 0.610857
Si Si2 0.338499 0.379456 0.500545
Si Si3 0.755850 0.617545 0.699054
Si Si4 0.482513 0.750135 0.273088
Si Si5 0.646742 0.518953 0.638205
Si Si6 0.824741 0.324741 0.000000
O O1 0.797869 0.797869 0.750000
O O2 0.738128 0.761873 0.500000
O O3 0.756438 0.845763 0.402470
O O4 0.712212 0.819778 0.788010
O O5 0.362008 0.362008 0.250000
O O6 0.284298 0.380399 0.498197
O O7 0.352761 0.430195 0.554053
O O8 0.353206 0.353206 0.750000
O O9 0.753481 0.568431 0.803015
O O10 0.805970 0.629835 0.615404
O O11 0.489347 0.769665 0.547567
O O12 0.494260 0.698485 0.317185
O O13 0.627383 0.490314 0.411302
#
# Coordination Sequence:
#
# PCOD9559667 Si02
#       6
#    16  16  16  16  16   8
#     4  10  20  34  47  67  97 144 186 222 250 298
#     4  11  24  35  49  78 108 130 165 218 266 311
#     4  10  24  34  51  73 103 143 181 222 264 305
#     4   9  19  35  56  74  93 124 173 226 273 313
#     4   9  17  34  54  69  93 129 163 203 261 320
#     4  10  22  34  50  66 104 144 194 215 244 306
#
# _framework density 17.817402999999999
#
# number of rings (size 3 to 8) (size 9 to 14) (size 15 to 20)
#    0.000    2.182    0.909    1.091    7.636    2.909 
#    3.273    0.000    0.000    0.000    0.000    0.000 
#    0.000   25.455    0.000    0.000    0.000    2.727 
#
# Total GULP energy -245007.807557 kJ/mol
# GULP energy per Si atom -5568.359263 kJ/mol
# Density = 1.777685 g / cm^3
# Si number density = 17.817403 Si / 1000 Ang^3
#
#
#
# Elastic Constant Matrix: (Units=GPa)
#
#
# Indices 1 2 3 4 5 6 
#
# 1 22.9956 35.9264 20.0281 0.0000 0.0000 0.0000
# 2 35.9264 22.9993 20.0263 0.0000 0.0000 0.0000
# 3 20.0281 20.0263 102.7907 0.0000 0.0000 0.0000
# 4 0.0000 0.0000 0.0000 18.1427 0.0000 0.0000
# 5 0.0000 0.0000 0.0000 0.0000 18.1423 0.0000
# 6 0.0000 0.0000 0.0000 0.0000 0.0000 7.8435
#
#
#
# Elastic Compliance Matrix: (Units=1/GPa)
#
#
# Indices 1 2 3 4 5 6 
#
# 1 -0.028896 0.048454 -0.003810 0.000000 0.000000 0.000000
# 2 0.048454 -0.028889 -0.003813 0.000000 0.000000 0.000000
# 3 -0.003810 -0.003813 0.011214 0.000000 0.000000 0.000000
# 4 0.000000 0.000000 0.000000 0.055119 0.000000 0.000000
# 5 0.000000 0.000000 0.000000 0.000000 0.055120 0.000000
# 6 0.000000 0.000000 0.000000 0.000000 0.000000 0.127494
#
#
# Mechanical properties :
#
#
# Convention : Reuss Voigt Hill
#
# Bulk Modulus (GPa) = 28.49647 33.41636 30.95641
# Shear Modulus (GPa) = 41.25532 13.67935 27.46734
#
# Velocity S-wave (km/s) = 4.81713 2.77384 3.93058
# Velocity P-wave (km/s) = 6.85332 5.39023 6.16533
#
# Compressibility (1/GPa) = 0.03509207
#
# Stress axis : x y z
#
# Youngs Moduli (GPa) = -34.60743 -34.61547 89.17691
#
# Poissons Ratio (x) = 1.67726 0.33976
# Poissons Ratio (y) = 1.67687 0.34000
# Poissons Ratio (z) = -0.13185 -0.13198
#
# Static dielectric constant tensor:
#      x y z
#    x 1.628720 0.000000 0.000000 
#    y 0.000000 1.628720 0.000000 
#    z 0.000000 0.000000 1.792910 
# 
# From -- ./inp_files/497.got.cif
#   From: 2010.05.17/outbox.cif.g08.bks.cpg/sg120_1_cif.got.tgz:497.got - 2010.05.20 11:28:13.
