data_PCOD9559020
_publ_section_title
;
Structure prediction by ZEFSAII (Michael W. Deem and Ramdas Pophale) SiO2 
 PCOD9559020
Probable space group: I -4 M 2
;
_chemical_formula_sum "Si O2"
_cell_formula_units_Z 40
_cell_length_a 11.528387
_cell_length_b 11.528387
_cell_length_c 12.007837
_cell_angle_alpha 90.000000
_cell_angle_beta 90.000000
_cell_angle_gamma 90.000000
_cell_volume 1595.886048
_symmetry_space_group_name_H-M "I -4 M 2"
_symmetry_group_IT_number 119
_symmetry_cell_setting 'tetragonal'
loop_
_space_group_symop_operation_xyz
x,y,z
y,-x,-z
-x,-y,z
-y,x,-z
y,x,-z
-y,-x,-z
-x,y,z
x,-y,z
1/2+x,1/2+y,1/2+z
1/2+y,1/2-x,1/2-z
1/2-x,1/2-y,1/2+z
1/2-y,1/2+x,1/2-z
1/2+y,1/2+x,1/2-z
1/2-y,1/2-x,1/2-z
1/2-x,1/2+y,1/2+z
1/2+x,1/2-y,1/2+z
loop_
_atom_site_type_symbol
_atom_site_label
_atom_site_fract_x
_atom_site_fract_y
_atom_site_fract_z
Si Si1 0.000000 0.128115 0.759034
Si Si2 0.630942 0.000000 0.597018
Si Si3 0.352001 0.000000 0.332071
Si Si4 0.638938 0.256214 0.608132
O O1 0.000000 0.216732 0.660889
O O2 0.121520 0.146714 0.825043
O O3 0.000000 0.000000 0.717722
O O4 0.617571 0.000000 0.461580
O O5 0.681349 0.124227 0.637729
O O6 0.500000 0.000000 0.638090
O O7 0.396949 0.896949 0.250000
O O8 0.712434 0.287567 0.500000
O O9 0.500000 0.243919 0.584829
#
# Coordination Sequence:
#
# PCOD9559020 Si02
#       4
#     8   8   8  16
#     4  10  21  35  60  91 117 156 203 262 295 358
#     4  10  20  34  56  88 118 151 189 257 310 362
#     4  11  20  34  59  88 119 152 207 242 304 366
#     4  10  18  31  56  88 117 146 203 254 303 344
#
# _framework density 25.064447000000001
#
# number of rings (size 3 to 8) (size 9 to 14) (size 15 to 20)
#    0.000    1.800    4.000    2.400    0.000    0.000 
#    0.000    0.000   17.600    0.000    0.000    0.000 
#    0.000    0.000    0.000    0.000    0.000    0.000 
#
# Total GULP energy -111353.968530 kJ/mol
# GULP energy per Si atom -5567.698427 kJ/mol
# Density = 2.500740 g / cm^3
# Si number density = 25.064447 Si / 1000 Ang^3
#
#
#
# Elastic Constant Matrix: (Units=GPa)
#
#
# Indices 1 2 3 4 5 6 
#
# 1 162.1533 66.8294 37.2803 0.0000 0.0000 0.0000
# 2 66.8294 162.1458 37.2827 0.0000 0.0000 0.0000
# 3 37.2803 37.2827 124.3184 0.0000 0.0000 0.0000
# 4 0.0000 0.0000 0.0000 3.5242 0.0000 0.0000
# 5 0.0000 0.0000 0.0000 0.0000 3.5242 0.0000
# 6 0.0000 0.0000 0.0000 0.0000 0.0000 102.4497
#
#
#
# Elastic Compliance Matrix: (Units=1/GPa)
#
#
# Indices 1 2 3 4 5 6 
#
# 1 0.007665 -0.002826 -0.001451 0.000000 0.000000 0.000000
# 2 -0.002826 0.007666 -0.001452 0.000000 0.000000 0.000000
# 3 -0.001451 -0.001452 0.008914 0.000000 0.000000 0.000000
# 4 0.000000 0.000000 0.000000 0.283749 0.000000 0.000000
# 5 0.000000 0.000000 0.000000 0.000000 0.283750 0.000000
# 6 0.000000 0.000000 0.000000 0.000000 0.000000 0.009761
#
#
# Mechanical properties :
#
#
# Convention : Reuss Voigt Hill
#
# Bulk Modulus (GPa) = 78.19568 81.26693 79.73131
# Shear Modulus (GPa) = 8.10079 42.38130 25.24105
#
# Velocity S-wave (km/s) = 1.79972 4.11651 3.17684
# Velocity P-wave (km/s) = 5.96525 7.42211 6.73320
#
# Compressibility (1/GPa) = 0.01278843
#
# Stress axis : x y z
#
# Youngs Moduli (GPa) = 130.46017 130.45248 112.17834
#
# Poissons Ratio (x) = 0.36860 0.16280
# Poissons Ratio (y) = 0.36862 0.16284
# Poissons Ratio (z) = 0.18933 0.18936
#
# Static dielectric constant tensor:
#      x y z
#    x 2.069440 0.000000 0.000000 
#    y 0.000000 2.069440 0.000000 
#    z 0.000000 0.000000 1.939820 
# 
# From -- ./inp_files/4762.got.cif
#   From: 2010.05.17/outbox.cif.g08.bks.cpg/sg119_3_cif.got.tgz:4762.got - 2010.05.20 11:21:29.
