data_PCOD9559378
_publ_section_title
;
Structure prediction by ZEFSAII (Michael W. Deem and Ramdas Pophale) SiO2 
 PCOD9559378
Probable space group: I -4 M 2
;
_chemical_formula_sum "Si O2"
_cell_formula_units_Z 112
_cell_length_a 15.584544
_cell_length_b 15.584544
_cell_length_c 23.216371
_cell_angle_alpha 90.000000
_cell_angle_beta 90.000000
_cell_angle_gamma 90.000000
_cell_volume 5638.746027
_symmetry_space_group_name_H-M "I -4 M 2"
_symmetry_group_IT_number 119
_symmetry_cell_setting 'tetragonal'
loop_
_space_group_symop_operation_xyz
x,y,z
y,-x,-z
-x,-y,z
-y,x,-z
y,x,-z
-y,-x,-z
-x,y,z
x,-y,z
1/2+x,1/2+y,1/2+z
1/2+y,1/2-x,1/2-z
1/2-x,1/2-y,1/2+z
1/2-y,1/2+x,1/2-z
1/2+y,1/2+x,1/2-z
1/2-y,1/2-x,1/2-z
1/2-x,1/2+y,1/2+z
1/2+x,1/2-y,1/2+z
loop_
_atom_site_type_symbol
_atom_site_label
_atom_site_fract_x
_atom_site_fract_y
_atom_site_fract_z
Si Si1 0.700491 0.096749 0.141225
Si Si2 0.243867 0.098269 0.007914
Si Si3 0.321642 0.680401 0.269875
Si Si4 0.162997 0.401314 0.070105
Si Si5 0.273068 0.597034 0.841060
Si Si6 0.840152 0.403710 0.311083
Si Si7 0.365881 0.407070 0.063332
O O1 0.780160 0.112994 0.184251
O O2 0.641927 0.180206 0.153240
O O3 0.665360 0.000000 0.151420
O O4 0.728290 0.101705 0.074765
O O5 0.327372 0.119184 0.968444
O O6 0.216116 0.000000 0.995127
O O7 0.169064 0.169064 0.000000
O O8 0.253316 0.753316 0.250000
O O9 0.365940 0.665016 0.208973
O O10 0.260881 0.610750 0.299468
O O11 0.131304 0.500000 0.061938
O O12 0.154444 0.374433 0.137186
O O13 0.263497 0.400568 0.056337
O O14 0.254895 0.500000 0.825927
O O15 0.326688 0.604528 0.899406
O O16 0.858389 0.500000 0.329211
O O17 0.884301 0.384301 0.250000
O O18 0.386022 0.500000 0.090319
O O19 0.403720 0.403720 0.000000
#
# Coordination Sequence:
#
# PCOD9559378 Si02
#       7
#    16  16  16  16  16  16  16
#     4  10  21  38  60  84 112 150 196 246 306 376
#     4  11  23  39  61  87 118 158 202 252 311 373
#     4   9  19  37  58  80 109 149 195 240 292 358
#     4  11  23  39  61  89 121 157 201 254 312 375
#     4  11  22  36  58  87 119 155 198 252 310 368
#     4  11  22  36  57  84 117 157 199 247 305 371
#     4  11  23  39  60  86 120 163 207 250 304 373
#
# _framework density 19.862572
#
# number of rings (size 3 to 8) (size 9 to 14) (size 15 to 20)
#    0.000    1.429    0.000    7.286    0.000    6.714 
#    0.000    1.429    0.000    4.714    0.000    0.000 
#    0.000    0.000    0.000    0.000    0.000    0.000 
#
# Total GULP energy -312425.447584 kJ/mol
# GULP energy per Si atom -5579.025850 kJ/mol
# Density = 1.981736 g / cm^3
# Si number density = 19.862572 Si / 1000 Ang^3
#
#
#
# Elastic Constant Matrix: (Units=GPa)
#
#
# Indices 1 2 3 4 5 6 
#
# 1 121.6386 1.0689 13.2338 0.0000 0.0000 0.0000
# 2 1.0689 121.6386 13.2338 0.0000 0.0000 0.0000
# 3 13.2338 13.2338 83.6405 0.0000 0.0000 0.0000
# 4 0.0000 0.0000 0.0000 2.8578 0.0000 0.0000
# 5 0.0000 0.0000 0.0000 0.0000 2.8578 0.0000
# 6 0.0000 0.0000 0.0000 0.0000 0.0000 -6.0830
#
#
#
# Elastic Compliance Matrix: (Units=1/GPa)
#
#
# Indices 1 2 3 4 5 6 
#
# 1 0.008366 0.000072 -0.001335 0.000000 0.000000 0.000000
# 2 0.000072 0.008366 -0.001335 0.000000 0.000000 0.000000
# 3 -0.001335 -0.001335 0.012378 0.000000 0.000000 0.000000
# 4 0.000000 0.000000 0.000000 0.349922 0.000000 0.000000
# 5 0.000000 0.000000 0.000000 0.000000 0.349922 0.000000
# 6 0.000000 0.000000 0.000000 0.000000 0.000000 -0.164391
#
#
# Mechanical properties :
#
#
# Convention : Reuss Voigt Hill
#
# Bulk Modulus (GPa) = 41.81784 42.44344 42.13064
# Shear Modulus (GPa) = 8.65457 19.88524 14.26991
#
# Velocity S-wave (km/s) = 2.08966 3.16751 2.68327
# Velocity P-wave (km/s) = 5.18860 5.89851 5.55491
#
# Compressibility (1/GPa) = 0.02391324
#
# Stress axis : x y z
#
# Youngs Moduli (GPa) = 119.53590 119.53590 80.78602
#
# Poissons Ratio (x) = -0.00857 0.10785
# Poissons Ratio (y) = -0.00857 0.10785
# Poissons Ratio (z) = 0.15958 0.15958
#
# Static dielectric constant tensor:
#      x y z
#    x 1.722920 0.000000 0.000000 
#    y 0.000000 1.722920 0.000000 
#    z 0.000000 0.000000 1.667800 
# 
# From -- ./inp_files/8843.got.cif
#   From: 2010.05.17/outbox.cif.g08.bks.cpg/sg119_5_cif.got.tgz:8843.got - 2010.05.20 11:21:29.
