data_PCOD9559548
_publ_section_title
;
Structure prediction by ZEFSAII (Michael W. Deem and Ramdas Pophale) SiO2 
 PCOD9559548
Probable space group: I -4 M 2
;
_chemical_formula_sum "Si O2"
_cell_formula_units_Z 48
_cell_length_a 24.000000
_cell_length_b 24.000000
_cell_length_c 9.000000
_cell_angle_alpha 90.000000
_cell_angle_beta 90.000000
_cell_angle_gamma 90.000000
_cell_volume 5184.000000
_symmetry_space_group_name_H-M "I -4 M 2"
_symmetry_group_IT_number 119
_symmetry_cell_setting 'tetragonal'
loop_
_space_group_symop_operation_xyz
x,y,z
y,-x,-z
-x,-y,z
-y,x,-z
y,x,-z
-y,-x,-z
-x,y,z
x,-y,z
1/2+x,1/2+y,1/2+z
1/2+y,1/2-x,1/2-z
1/2-x,1/2-y,1/2+z
1/2-y,1/2+x,1/2-z
1/2+y,1/2+x,1/2-z
1/2-y,1/2-x,1/2-z
1/2-x,1/2+y,1/2+z
1/2+x,1/2-y,1/2+z
loop_
_atom_site_type_symbol
_atom_site_label
_atom_site_fract_x
_atom_site_fract_y
_atom_site_fract_z
Si Si1 0.853912 0.654054 0.571242
Si Si2 0.273759 0.642605 0.553399
Si Si3 0.565750 0.633245 0.604107
Si Si4 0.936272 0.565076 0.071120
Si Si5 0.135289 0.783329 0.588693
Si Si6 0.063617 0.885259 0.632094
O O1 0.852761 0.647240 0.750000
O O2 0.791343 0.639397 0.516970
O O3 0.897249 0.610673 0.502839
O O4 0.868069 0.718997 0.537479
O O5 0.298994 0.701007 0.500000
O O6 0.313274 0.596126 0.473113
O O7 0.280073 0.642284 0.732122
O O8 0.580583 0.580583 0.500000
O O9 0.500000 0.641986 0.621691
O O10 0.595930 0.612018 0.753316
O O11 0.929489 0.500000 0.030135
O O12 0.931578 0.568423 0.250000
O O13 0.000000 0.581707 0.031223
O O14 0.184674 0.815327 0.500000
O O15 0.081732 0.824082 0.572432
O O16 0.070640 0.929361 0.500000
O O17 0.000000 0.884246 0.689117
#
# Coordination Sequence:
#
# PCOD9559548 Si02
#       6
#    16  16  16  16  16  16
#     4  10  22  37  62  93 118 153 198 239 293 361
#     4  10  20  38  57  85 120 153 192 245 298 346
#     4  11  22  37  57  83 117 159 202 247 302 355
#     4   9  20  41  63  86 121 156 189 236 290 348
#     4  10  21  38  58  84 117 157 196 242 299 348
#     4  11  23  40  60  84 119 159 202 254 303 349
#
# _framework density 9.2592590000000001
#
# number of rings (size 3 to 8) (size 9 to 14) (size 15 to 20)
#    0.000    1.833    3.333    2.000    0.000    5.333 
#    0.000    4.167    0.000    0.000    0.000    0.000 
#    0.000    0.000    0.000    0.000    0.000    0.000 
#
# Total GULP energy -267545.662933 kJ/mol
# GULP energy per Si atom -5573.867978 kJ/mol
# Density = 0.923818 g / cm^3
# Si number density = 9.259259 Si / 1000 Ang^3
#
#
#
# Elastic Constant Matrix: (Units=GPa)
#
#
# Indices 1 2 3 4 5 6 
#
# 1 145.3491 96.3053 37.6724 0.0000 0.0000 0.0000
# 2 96.3053 145.3483 37.6733 0.0000 0.0000 0.0000
# 3 37.6724 37.6733 46.5611 0.0000 0.0000 0.0000
# 4 0.0000 0.0000 0.0000 31.2599 0.0000 0.0000
# 5 0.0000 0.0000 0.0000 0.0000 31.2600 0.0000
# 6 0.0000 0.0000 0.0000 0.0000 0.0000 26.1073
#
#
#
# Elastic Compliance Matrix: (Units=1/GPa)
#
#
# Indices 1 2 3 4 5 6 
#
# 1 0.012962 -0.007428 -0.004478 0.000000 0.000000 0.000000
# 2 -0.007428 0.012962 -0.004478 0.000000 0.000000 0.000000
# 3 -0.004478 -0.004478 0.028723 0.000000 0.000000 0.000000
# 4 0.000000 0.000000 0.000000 0.031990 0.000000 0.000000
# 5 0.000000 0.000000 0.000000 0.000000 0.031990 0.000000
# 6 0.000000 0.000000 0.000000 0.000000 0.000000 0.038303
#
#
# Mechanical properties :
#
#
# Convention : Reuss Voigt Hill
#
# Bulk Modulus (GPa) = 45.70280 75.61782 60.66031
# Shear Modulus (GPa) = 25.38183 28.76593 27.07388
#
# Velocity S-wave (km/s) = 3.70620 3.94555 3.82775
# Velocity P-wave (km/s) = 6.56107 7.85358 7.23624
#
# Compressibility (1/GPa) = 0.02188050
#
# Stress axis : x y z
#
# Youngs Moduli (GPa) = 77.14822 77.14670 34.81504
#
# Poissons Ratio (x) = 0.57304 0.15588
# Poissons Ratio (y) = 0.57305 0.15591
# Poissons Ratio (z) = 0.34543 0.34547
#
# Static dielectric constant tensor:
#      x y z
#    x 1.633770 0.000000 0.000000 
#    y 0.000000 1.633780 0.000000 
#    z 0.000000 0.000000 1.699270 
# 
# From -- ./inp_files/2696.got.cif
#   From: 2010.05.17/outbox.ucp.g08.bks.cvg/sg119_2_cif.got.tgz:2696.got - 2010.06.11 11:34:25.
