data_PCOD9559673
_publ_section_title
;
Structure prediction by ZEFSAII (Michael W. Deem and Ramdas Pophale) SiO2 
 PCOD9559673
Probable space group: I -4 C 2
;
_chemical_formula_sum "Si O2"
_cell_formula_units_Z 88
_cell_length_a 31.508015
_cell_length_b 31.508015
_cell_length_c 5.057877
_cell_angle_alpha 90.000000
_cell_angle_beta 90.000000
_cell_angle_gamma 90.000000
_cell_volume 5021.232728
_symmetry_space_group_name_H-M "I -4 C 2"
_symmetry_group_IT_number 120
_symmetry_cell_setting 'tetragonal'
loop_
_space_group_symop_operation_xyz
x,y,z
y,-x,-z
-x,-y,z
-y,x,-z
y,x,1/2-z
-y,-x,1/2-z
-x,y,1/2+z
x,-y,1/2+z
1/2+x,1/2+y,1/2+z
1/2+y,1/2-x,1/2-z
1/2-x,1/2-y,1/2+z
1/2-y,1/2+x,1/2-z
1/2+y,1/2+x,-z
1/2-y,1/2-x,-z
1/2-x,1/2+y,z
1/2+x,1/2-y,z
loop_
_atom_site_type_symbol
_atom_site_label
_atom_site_fract_x
_atom_site_fract_y
_atom_site_fract_z
Si Si1 0.307516 0.473783 0.083971
Si Si2 0.179450 0.116703 0.358430
Si Si3 0.194940 0.805061 0.250000
Si Si4 0.354956 0.243301 0.958667
Si Si5 0.688730 0.121937 0.029462
Si Si6 0.473956 0.794889 0.937260
O O1 0.319550 0.509996 0.872661
O O2 0.324589 0.428289 0.996346
O O3 0.256351 0.469802 0.065543
O O4 0.135643 0.135643 0.250000
O O5 0.194380 0.153038 0.565193
O O6 0.215809 0.116310 0.129219
O O7 0.235290 0.811659 0.436939
O O8 0.372039 0.213202 0.191819
O O9 0.353706 0.215794 0.694770
O O10 0.642979 0.142979 0.000000
O O11 0.688086 0.071810 0.981571
O O12 0.509759 0.807077 0.148512
#
# Coordination Sequence:
#
# PCOD9559673 Si02
#       6
#    16  16   8  16  16  16
#     4  10  21  32  52  79 107 131 170 221 271 327
#     4  10  21  34  58  77 105 145 182 219 272 318
#     4  10  20  36  60  70 100 146 193 228 254 318
#     4  11  21  37  55  73 104 142 189 222 264 312
#     4  12  24  38  56  77 111 144 180 225 275 320
#     4  10  20  34  56  80 105 136 176 220 269 329
#
# _framework density 17.525577999999999
#
# number of rings (size 3 to 8) (size 9 to 14) (size 15 to 20)
#    0.000    1.455    3.636    1.636   10.182    0.000 
#    0.000    1.818    2.000    0.000    0.000    0.000 
#    0.000    4.364    0.000    0.000    0.000    0.000 
#
# Total GULP energy -245607.066942 kJ/mol
# GULP energy per Si atom -5581.978794 kJ/mol
# Density = 1.748569 g / cm^3
# Si number density = 17.525578 Si / 1000 Ang^3
#
#
#
# Elastic Constant Matrix: (Units=GPa)
#
#
# Indices 1 2 3 4 5 6 
#
# 1 32.8974 23.0190 3.6456 0.0000 0.0000 0.0000
# 2 23.0190 32.8977 3.6459 0.0000 0.0000 0.0000
# 3 3.6456 3.6459 74.4381 0.0000 0.0000 0.0000
# 4 0.0000 0.0000 0.0000 9.7830 0.0000 0.0000
# 5 0.0000 0.0000 0.0000 0.0000 9.7830 0.0000
# 6 0.0000 0.0000 0.0000 0.0000 0.0000 15.0286
#
#
#
# Elastic Compliance Matrix: (Units=1/GPa)
#
#
# Indices 1 2 3 4 5 6 
#
# 1 0.059615 -0.041616 -0.000881 0.000000 0.000000 0.000000
# 2 -0.041616 0.059614 -0.000882 0.000000 0.000000 0.000000
# 3 -0.000881 -0.000882 0.013520 0.000000 0.000000 0.000000
# 4 0.000000 0.000000 0.000000 0.102218 0.000000 0.000000
# 5 0.000000 0.000000 0.000000 0.000000 0.102218 0.000000
# 6 0.000000 0.000000 0.000000 0.000000 0.000000 0.066540
#
#
# Mechanical properties :
#
#
# Convention : Reuss Voigt Hill
#
# Bulk Modulus (GPa) = 21.74304 22.31713 22.03009
# Shear Modulus (GPa) = 9.88508 14.24710 12.06609
#
# Velocity S-wave (km/s) = 2.37752 2.85429 2.62675
# Velocity P-wave (km/s) = 4.46880 4.86048 4.66875
#
# Compressibility (1/GPa) = 0.04599173
#
# Stress axis : x y z
#
# Youngs Moduli (GPa) = 16.77443 16.77456 73.96271
#
# Poissons Ratio (x) = 0.69808 0.06518
# Poissons Ratio (y) = 0.69808 0.06522
# Poissons Ratio (z) = 0.01478 0.01479
#
# Static dielectric constant tensor:
#      x y z
#    x 1.601630 0.000000 0.000000 
#    y 0.000000 1.601630 0.000000 
#    z 0.000000 0.000000 1.668550 
# 
# From -- ./inp_files/477.got.cif
#   From: 2010.05.17/outbox.cif.g08.bks.cpg/sg120_1_cif.got.tgz:477.got - 2010.05.20 11:28:13.
