data_PCOD9559602
_publ_section_title
;
Structure prediction by ZEFSAII (Michael W. Deem and Ramdas Pophale) SiO2 
 PCOD9559602
Probable space group: I -4 C 2
;
_chemical_formula_sum "Si O2"
_cell_formula_units_Z 104
_cell_length_a 19.087542
_cell_length_b 19.087542
_cell_length_c 14.344914
_cell_angle_alpha 90.000000
_cell_angle_beta 90.000000
_cell_angle_gamma 90.000000
_cell_volume 5226.343621
_symmetry_space_group_name_H-M "I -4 C 2"
_symmetry_group_IT_number 120
_symmetry_cell_setting 'tetragonal'
loop_
_space_group_symop_operation_xyz
x,y,z
y,-x,-z
-x,-y,z
-y,x,-z
y,x,1/2-z
-y,-x,1/2-z
-x,y,1/2+z
x,-y,1/2+z
1/2+x,1/2+y,1/2+z
1/2+y,1/2-x,1/2-z
1/2-x,1/2-y,1/2+z
1/2-y,1/2+x,1/2-z
1/2+y,1/2+x,-z
1/2-y,1/2-x,-z
1/2-x,1/2+y,z
1/2+x,1/2-y,z
loop_
_atom_site_type_symbol
_atom_site_label
_atom_site_fract_x
_atom_site_fract_y
_atom_site_fract_z
Si Si1 0.225573 0.116689 0.858501
Si Si2 0.636210 0.249627 0.857343
Si Si3 0.719416 0.316590 0.357223
Si Si4 0.759397 0.531127 0.853605
Si Si5 0.963476 0.349207 0.467121
Si Si6 0.694657 0.805344 0.000000
Si Si7 0.524362 0.111081 0.282182
O O1 0.249762 0.130948 0.753457
O O2 0.164203 0.172455 0.882239
O O3 0.290356 0.134378 0.926180
O O4 0.208488 0.035464 0.854670
O O5 0.699336 0.197476 0.879225
O O6 0.571564 0.214962 0.908562
O O7 0.703099 0.296902 0.250000
O O8 0.713748 0.399311 0.367843
O O9 0.686407 0.262722 0.430947
O O10 0.812993 0.537700 0.765519
O O11 0.812662 0.516302 0.937559
O O12 0.908921 0.408921 0.500000
O O13 0.019038 0.381076 0.394179
O O14 0.580418 0.052149 0.250082
#
# Coordination Sequence:
#
# PCOD9559602 Si02
#       7
#    16  16  16  16  16   8  16
#     4  10  21  34  57  89 117 147 197 256 300 356
#     4  10  18  38  61  81 115 162 196 249 313 351
#     4  11  20  36  64  85 116 155 201 256 299 354
#     4  12  24  37  57  90 122 153 202 251 303 360
#     4  12  22  38  62  80 114 168 207 246 302 355
#     4  10  20  38  62  88 115 157 204 246 308 348
#     4  11  24  39  53  77 121 167 208 237 281 355
#
# _framework density 19.899190000000001
#
# number of rings (size 3 to 8) (size 9 to 14) (size 15 to 20)
#    0.000    1.077    7.692    1.846    1.077    3.077 
#    0.000    0.000    0.000    0.000    0.000    2.154 
#    0.000    0.000    0.000    0.000    0.000    0.000 
#
# Total GULP energy -289784.931548 kJ/mol
# GULP energy per Si atom -5572.787145 kJ/mol
# Density = 1.985390 g / cm^3
# Si number density = 19.899190 Si / 1000 Ang^3
#
#
#
# Elastic Constant Matrix: (Units=GPa)
#
#
# Indices 1 2 3 4 5 6 
#
# 1 61.9374 -12.4552 -7.5680 0.0000 0.0000 0.0000
# 2 -12.4552 61.9379 -7.5692 0.0000 0.0000 0.0000
# 3 -7.5680 -7.5692 101.8609 0.0000 0.0000 0.0000
# 4 0.0000 0.0000 0.0000 10.9457 0.0000 0.0000
# 5 0.0000 0.0000 0.0000 0.0000 10.9462 0.0000
# 6 0.0000 0.0000 0.0000 0.0000 0.0000 14.5576
#
#
#
# Elastic Compliance Matrix: (Units=1/GPa)
#
#
# Indices 1 2 3 4 5 6 
#
# 1 0.017061 0.003619 0.001536 0.000000 0.000000 0.000000
# 2 0.003619 0.017061 0.001537 0.000000 0.000000 0.000000
# 3 0.001536 0.001537 0.010046 0.000000 0.000000 0.000000
# 4 0.000000 0.000000 0.000000 0.091360 0.000000 0.000000
# 5 0.000000 0.000000 0.000000 0.000000 0.091356 0.000000
# 6 0.000000 0.000000 0.000000 0.000000 0.000000 0.068693
#
#
# Mechanical properties :
#
#
# Convention : Reuss Voigt Hill
#
# Bulk Modulus (GPa) = 17.37610 18.95013 18.16311
# Shear Modulus (GPa) = 16.59060 24.17849 20.38455
#
# Velocity S-wave (km/s) = 2.89058 3.48954 3.20408
# Velocity P-wave (km/s) = 4.46000 5.07736 4.77866
#
# Compressibility (1/GPa) = 0.05755032
#
# Stress axis : x y z
#
# Youngs Moduli (GPa) = 58.61408 58.61441 99.54556
#
# Poissons Ratio (x) = -0.21210 -0.15295
# Poissons Ratio (y) = -0.21210 -0.15296
# Poissons Ratio (z) = -0.09006 -0.09007
#
# Static dielectric constant tensor:
#      x y z
#    x 1.749190 0.000000 0.000000 
#    y 0.000000 1.749190 0.000000 
#    z 0.000000 0.000000 1.723490 
# 
# From -- ./inp_files/3682.got.cif
#   From: 2010.05.17/outbox.cif.g08.bks.cpg/sg120_2_cif.got.tgz:3682.got - 2010.05.20 11:28:13.
