data_PCOD9559666
_publ_section_title
;
Structure prediction by ZEFSAII (Michael W. Deem and Ramdas Pophale) SiO2 
 PCOD9559666
Probable space group: I -4 C 2
;
_chemical_formula_sum "Si O2"
_cell_formula_units_Z 112
_cell_length_a 14.677108
_cell_length_b 14.677108
_cell_length_c 25.124497
_cell_angle_alpha 90.000000
_cell_angle_beta 90.000000
_cell_angle_gamma 90.000000
_cell_volume 5412.256313
_symmetry_space_group_name_H-M "I -4 C 2"
_symmetry_group_IT_number 120
_symmetry_cell_setting 'tetragonal'
loop_
_space_group_symop_operation_xyz
x,y,z
y,-x,-z
-x,-y,z
-y,x,-z
y,x,1/2-z
-y,-x,1/2-z
-x,y,1/2+z
x,-y,1/2+z
1/2+x,1/2+y,1/2+z
1/2+y,1/2-x,1/2-z
1/2-x,1/2-y,1/2+z
1/2-y,1/2+x,1/2-z
1/2+y,1/2+x,-z
1/2-y,1/2-x,-z
1/2-x,1/2+y,z
1/2+x,1/2-y,z
loop_
_atom_site_type_symbol
_atom_site_label
_atom_site_fract_x
_atom_site_fract_y
_atom_site_fract_z
Si Si1 0.173793 0.272130 0.555297
Si Si2 0.810353 0.104208 0.615506
Si Si3 0.685956 0.087394 0.710801
Si Si4 0.645172 0.881351 0.681654
Si Si5 0.798785 0.091433 0.096203
Si Si6 0.991792 0.900749 0.653457
Si Si7 0.298690 0.964008 0.352576
O O1 0.175928 0.324073 0.500000
O O2 0.256047 0.313283 0.590303
O O3 0.196978 0.165032 0.549646
O O4 0.081473 0.281412 0.589698
O O5 0.778338 0.092210 0.676868
O O6 0.918539 0.111753 0.617015
O O7 0.775981 0.013249 0.585140
O O8 0.686874 0.132126 0.768811
O O9 0.611968 0.145162 0.678478
O O10 0.650930 0.982561 0.707770
O O11 0.732084 0.874537 0.643432
O O12 0.555399 0.858554 0.647240
O O13 0.899829 0.087094 0.120214
O O14 0.979697 0.799051 0.677093
O O15 0.000000 0.000000 0.682313
#
# Coordination Sequence:
#
# PCOD9559666 Si02
#       7
#    16  16  16  16  16  16  16
#     4  10  21  41  59  88 123 159 202 256 315 371
#     4   9  19  38  62  86 118 158 201 254 303 362
#     4  10  20  33  62  89 120 157 202 249 302 370
#     4  11  19  35  62  90 121 158 206 246 307 370
#     4   9  20  37  61  87 116 156 203 251 298 363
#     4   9  18  38  60  75 116 160 194 243 301 343
#     4  10  20  34  60  90 118 160 198 251 306 359
#
# _framework density 20.693771000000002
#
# number of rings (size 3 to 8) (size 9 to 14) (size 15 to 20)
#    0.000    2.286    1.429    1.286    0.000    0.000 
#    7.714   11.429    3.143    7.714    0.000    0.000 
#    0.000    0.000    0.000    0.000    0.000    0.000 
#
# Total GULP energy -311839.555640 kJ/mol
# GULP energy per Si atom -5568.563494 kJ/mol
# Density = 2.064667 g / cm^3
# Si number density = 20.693771 Si / 1000 Ang^3
#
#
#
# Elastic Constant Matrix: (Units=GPa)
#
#
# Indices 1 2 3 4 5 6 
#
# 1 90.9336 15.0204 6.1250 0.0000 0.0000 0.0000
# 2 15.0204 90.9334 6.1249 0.0000 0.0000 0.0000
# 3 6.1250 6.1249 41.5666 0.0000 0.0000 0.0000
# 4 0.0000 0.0000 0.0000 6.4431 0.0000 0.0000
# 5 0.0000 0.0000 0.0000 0.0000 6.4435 0.0000
# 6 0.0000 0.0000 0.0000 0.0000 0.0000 -22.7876
#
#
#
# Elastic Compliance Matrix: (Units=1/GPa)
#
#
# Indices 1 2 3 4 5 6 
#
# 1 0.011387 -0.001786 -0.001415 0.000000 0.000000 0.000000
# 2 -0.001786 0.011387 -0.001415 0.000000 0.000000 0.000000
# 3 -0.001415 -0.001415 0.024475 0.000000 0.000000 0.000000
# 4 0.000000 0.000000 0.000000 0.155206 0.000000 0.000000
# 5 0.000000 0.000000 0.000000 0.000000 0.155195 0.000000
# 6 0.000000 0.000000 0.000000 0.000000 0.000000 -0.043884
#
#
# Mechanical properties :
#
#
# Convention : Reuss Voigt Hill
#
# Bulk Modulus (GPa) = 26.30282 30.88600 28.59441
# Shear Modulus (GPa) = 14.89556 11.09735 12.99645
#
# Velocity S-wave (km/s) = 2.68584 2.31825 2.50879
# Velocity P-wave (km/s) = 4.72825 4.70355 4.71592
#
# Compressibility (1/GPa) = 0.03801874
#
# Stress axis : x y z
#
# Youngs Moduli (GPa) = 87.81727 87.81701 40.85847
#
# Poissons Ratio (x) = 0.15681 0.05781
# Poissons Ratio (y) = 0.15681 0.05781
# Poissons Ratio (z) = 0.12425 0.12424
#
# Static dielectric constant tensor:
#      x y z
#    x 1.789490 0.000000 0.000000 
#    y 0.000000 1.789490 0.000000 
#    z 0.000000 0.000000 1.736260 
# 
# From -- ./inp_files/6284.got.cif
#   From: 2010.05.17/outbox.cif.g08.bks.cpg/sg120_4_cif.got.tgz:6284.got - 2010.05.20 11:28:13.
