data_PCOD9559034
_publ_section_title
;
Structure prediction by ZEFSAII (Michael W. Deem and Ramdas Pophale) SiO2 
 PCOD9559034
Probable space group: I -4 M 2
;
_chemical_formula_sum "Si O2"
_cell_formula_units_Z 96
_cell_length_a 32.917725
_cell_length_b 32.917725
_cell_length_c 4.914950
_cell_angle_alpha 90.000000
_cell_angle_beta 90.000000
_cell_angle_gamma 90.000000
_cell_volume 5325.724904
_symmetry_space_group_name_H-M "I -4 M 2"
_symmetry_group_IT_number 119
_symmetry_cell_setting 'tetragonal'
loop_
_space_group_symop_operation_xyz
x,y,z
y,-x,-z
-x,-y,z
-y,x,-z
y,x,-z
-y,-x,-z
-x,y,z
x,-y,z
1/2+x,1/2+y,1/2+z
1/2+y,1/2-x,1/2-z
1/2-x,1/2-y,1/2+z
1/2-y,1/2+x,1/2-z
1/2+y,1/2+x,1/2-z
1/2-y,1/2-x,1/2-z
1/2-x,1/2+y,1/2+z
1/2+x,1/2-y,1/2+z
loop_
_atom_site_type_symbol
_atom_site_label
_atom_site_fract_x
_atom_site_fract_y
_atom_site_fract_z
Si Si1 0.377081 0.500000 0.578728
Si Si2 0.373372 0.308654 0.040940
Si Si3 0.598117 0.772575 0.790102
Si Si4 0.566569 0.500000 0.073237
Si Si5 0.610245 0.148144 0.516474
Si Si6 0.152488 0.912801 0.955586
Si Si7 0.794637 0.452034 0.679155
O O1 0.416568 0.500000 0.379322
O O2 0.351590 0.540361 0.522429
O O3 0.394081 0.500000 0.882687
O O4 0.388435 0.316733 0.346295
O O5 0.329842 0.329842 0.000000
O O6 0.376649 0.263513 0.924038
O O7 0.404288 0.334233 0.851356
O O8 0.568006 0.763076 0.536923
O O9 0.624150 0.809800 0.665276
O O10 0.568844 0.788176 0.030460
O O11 0.538933 0.461068 0.000000
O O12 0.634999 0.134999 0.250000
O O13 0.565110 0.161961 0.428346
O O14 0.614654 0.114654 0.750000
O O15 0.109043 0.890958 0.000000
O O16 0.791854 0.500000 0.688179
#
# Coordination Sequence:
#
# PCOD9559034 Si02
#       7
#     8  16  16   8  16  16  16
#     4  12  22  37  52  74  90 128 160 214 276 334
#     4  10  21  39  55  76 102 142 189 226 277 348
#     4  10  20  34  57  81 112 151 189 230 294 324
#     4  11  22  34  52  72  90 116 158 208 272 348
#     4  10  18  34  55  84 117 156 191 230 282 337
#     4  10  21  36  52  69  98 126 165 219 270 336
#     4  10  20  34  53  86 122 155 189 234 282 338
#
# _framework density 18.025715000000002
#
# number of rings (size 3 to 8) (size 9 to 14) (size 15 to 20)
#    1.000    0.750    1.667    4.000    0.000    2.000 
#    9.000    0.000    0.000    0.000    4.333    0.000 
#    0.000    2.000    0.000    0.000    0.000    0.000 
#
# Total GULP energy -267354.688244 kJ/mol
# GULP energy per Si atom -5569.889338 kJ/mol
# Density = 1.798469 g / cm^3
# Si number density = 18.025715 Si / 1000 Ang^3
#
#
#
# Elastic Constant Matrix: (Units=GPa)
#
#
# Indices 1 2 3 4 5 6 
#
# 1 44.9063 40.7676 21.2867 0.0000 0.0000 0.0000
# 2 40.7676 44.9055 21.2869 0.0000 0.0000 0.0000
# 3 21.2867 21.2869 93.7337 0.0000 0.0000 0.0000
# 4 0.0000 0.0000 0.0000 22.4122 0.0000 0.0000
# 5 0.0000 0.0000 0.0000 0.0000 22.4127 0.0000
# 6 0.0000 0.0000 0.0000 0.0000 0.0000 16.0646
#
#
#
# Elastic Compliance Matrix: (Units=1/GPa)
#
#
# Indices 1 2 3 4 5 6 
#
# 1 0.127400 -0.114244 -0.002987 0.000000 0.000000 0.000000
# 2 -0.114244 0.127403 -0.002988 0.000000 0.000000 0.000000
# 3 -0.002987 -0.002988 0.012026 0.000000 0.000000 0.000000
# 4 0.000000 0.000000 0.000000 0.044619 0.000000 0.000000
# 5 0.000000 0.000000 0.000000 0.000000 0.044618 0.000000
# 6 0.000000 0.000000 0.000000 0.000000 0.000000 0.062249
#
#
# Mechanical properties :
#
#
# Convention : Reuss Voigt Hill
#
# Bulk Modulus (GPa) = 37.89615 38.91422 38.40519
# Shear Modulus (GPa) = 7.49008 18.85818 13.17413
#
# Velocity S-wave (km/s) = 2.04065 3.23798 2.70636
# Velocity P-wave (km/s) = 5.15959 5.96778 5.57834
#
# Compressibility (1/GPa) = 0.02638790
#
# Stress axis : x y z
#
# Youngs Moduli (GPa) = 7.84929 7.84913 83.15571
#
# Poissons Ratio (x) = 0.89672 0.24842
# Poissons Ratio (y) = 0.89674 0.24851
# Poissons Ratio (z) = 0.02345 0.02346
#
# Static dielectric constant tensor:
#      x y z
#    x 1.623080 0.000000 0.000000 
#    y 0.000000 1.623080 0.000000 
#    z 0.000000 0.000000 1.639910 
# 
# From -- ./inp_files/1165.got.cif
#   From: 2010.05.17/outbox.cif.g08.bks.cpg/sg119_1_cif.got.tgz:1165.got - 2010.05.20 11:21:29.
