data_PCOD9559319
_publ_section_title
;
Structure prediction by ZEFSAII (Michael W. Deem and Ramdas Pophale) SiO2 
 PCOD9559319
Probable space group: I -4 M 2
;
_chemical_formula_sum "Si O2"
_cell_formula_units_Z 58
_cell_length_a 12.157952
_cell_length_b 12.157952
_cell_length_c 19.758548
_cell_angle_alpha 90.000000
_cell_angle_beta 90.000000
_cell_angle_gamma 90.000000
_cell_volume 2920.625517
_symmetry_space_group_name_H-M "I -4 M 2"
_symmetry_group_IT_number 119
_symmetry_cell_setting 'tetragonal'
loop_
_space_group_symop_operation_xyz
x,y,z
y,-x,-z
-x,-y,z
-y,x,-z
y,x,-z
-y,-x,-z
-x,y,z
x,-y,z
1/2+x,1/2+y,1/2+z
1/2+y,1/2-x,1/2-z
1/2-x,1/2-y,1/2+z
1/2-y,1/2+x,1/2-z
1/2+y,1/2+x,1/2-z
1/2-y,1/2-x,1/2-z
1/2-x,1/2+y,1/2+z
1/2+x,1/2-y,1/2+z
loop_
_atom_site_type_symbol
_atom_site_label
_atom_site_fract_x
_atom_site_fract_y
_atom_site_fract_z
Si Si1 0.839421 0.000000 0.126203
Si Si2 0.122304 0.251212 0.557478
Si Si3 0.500000 0.500000 0.500000
Si Si4 0.698872 0.265166 0.676402
Si Si5 0.131981 0.500000 0.375939
Si Si6 0.658302 0.000000 0.025037
O O1 0.856060 0.886142 0.165387
O O2 0.716435 0.000000 0.098285
O O3 0.900536 0.000000 0.053181
O O4 0.174115 0.174115 0.500000
O O5 0.207208 0.252494 0.619572
O O6 0.113025 0.375507 0.528073
O O7 0.000000 0.215370 0.577370
O O8 0.750673 0.250673 0.750000
O O9 0.607383 0.172253 0.663527
O O10 0.199804 0.500000 0.447179
O O11 0.000000 0.500000 0.388933
#
# Coordination Sequence:
#
# PCOD9559319 Si02
#       6
#     8  16   2  16   8   8
#     4  10  22  40  68 100 132 171 217 282 341 394
#     4  11  23  41  68  95 126 169 217 272 323 389
#     4  12  20  36  76 108 132 160 230 308 344 392
#     4  11  26  42  66  95 136 176 216 269 333 407
#     4  12  24  41  68  95 127 168 219 271 327 388
#     4  10  20  40  66  97 123 158 220 273 328 377
#
# _framework density 19.858761000000001
#
# number of rings (size 3 to 8) (size 9 to 14) (size 15 to 20)
#    0.000    1.103    2.759    3.724    7.724    0.276 
#    0.000    0.000    0.000    0.000    0.000    0.000 
#    0.000    0.000    0.000    0.000    0.000    0.000 
#
# Total GULP energy -161464.054580 kJ/mol
# GULP energy per Si atom -5567.726020 kJ/mol
# Density = 1.981356 g / cm^3
# Si number density = 19.858761 Si / 1000 Ang^3
#
#
#
# Elastic Constant Matrix: (Units=GPa)
#
#
# Indices 1 2 3 4 5 6 
#
# 1 98.8567 46.3842 31.1463 0.0000 0.0000 0.0000
# 2 46.3842 98.8567 31.1463 0.0000 0.0000 0.0000
# 3 31.1463 31.1463 120.8398 0.0000 0.0000 0.0000
# 4 0.0000 0.0000 0.0000 25.8868 0.0000 0.0000
# 5 0.0000 0.0000 0.0000 0.0000 25.8868 0.0000
# 6 0.0000 0.0000 0.0000 0.0000 0.0000 -20.3733
#
#
#
# Elastic Compliance Matrix: (Units=1/GPa)
#
#
# Indices 1 2 3 4 5 6 
#
# 1 0.013399 -0.005658 -0.001995 0.000000 0.000000 0.000000
# 2 -0.005658 0.013399 -0.001995 0.000000 0.000000 0.000000
# 3 -0.001995 -0.001995 0.009304 0.000000 0.000000 0.000000
# 4 0.000000 0.000000 0.000000 0.038630 0.000000 0.000000
# 5 0.000000 0.000000 0.000000 0.000000 0.038630 0.000000
# 6 0.000000 0.000000 0.000000 0.000000 0.000000 -0.049084
#
#
# Mechanical properties :
#
#
# Convention : Reuss Voigt Hill
#
# Bulk Modulus (GPa) = 59.50665 59.54519 59.52592
# Shear Modulus (GPa) = 56.06836 20.27185 38.17011
#
# Velocity S-wave (km/s) = 5.31929 3.19846 4.38891
# Velocity P-wave (km/s) = 8.23143 6.60982 7.46479
#
# Compressibility (1/GPa) = 0.01680484
#
# Stress axis : x y z
#
# Youngs Moduli (GPa) = 74.63127 74.63127 107.48148
#
# Poissons Ratio (x) = 0.42229 0.21445
# Poissons Ratio (y) = 0.42229 0.21445
# Poissons Ratio (z) = 0.14890 0.14890
#
# Static dielectric constant tensor:
#      x y z
#    x 1.768560 0.000000 0.000000 
#    y 0.000000 1.768560 0.000000 
#    z 0.000000 0.000000 1.667960 
# 
# From -- ./inp_files/7437.got.cif
#   From: 2010.05.17/outbox.cif.g08.bks.cpg/sg119_4_cif.got.tgz:7437.got - 2010.05.20 11:21:29.
