data_PCOD9559355
_publ_section_title
;
Structure prediction by ZEFSAII (Michael W. Deem and Ramdas Pophale) SiO2 
 PCOD9559355
Probable space group: I -4 M 2
;
_chemical_formula_sum "Si O2"
_cell_formula_units_Z 128
_cell_length_a 24.860645
_cell_length_b 24.860645
_cell_length_c 11.914982
_cell_angle_alpha 90.000000
_cell_angle_beta 90.000000
_cell_angle_gamma 90.000000
_cell_volume 7364.074521
_symmetry_space_group_name_H-M "I -4 M 2"
_symmetry_group_IT_number 119
_symmetry_cell_setting 'tetragonal'
loop_
_space_group_symop_operation_xyz
x,y,z
y,-x,-z
-x,-y,z
-y,x,-z
y,x,-z
-y,-x,-z
-x,y,z
x,-y,z
1/2+x,1/2+y,1/2+z
1/2+y,1/2-x,1/2-z
1/2-x,1/2-y,1/2+z
1/2-y,1/2+x,1/2-z
1/2+y,1/2+x,1/2-z
1/2-y,1/2-x,1/2-z
1/2-x,1/2+y,1/2+z
1/2+x,1/2-y,1/2+z
loop_
_atom_site_type_symbol
_atom_site_label
_atom_site_fract_x
_atom_site_fract_y
_atom_site_fract_z
Si Si1 0.234785 0.560162 0.364245
Si Si2 0.273943 0.821196 0.549476
Si Si3 0.831271 0.213484 0.658330
Si Si4 0.709340 0.670537 0.387253
Si Si5 0.558321 0.127081 0.068279
Si Si6 0.587322 0.157159 0.831586
Si Si7 0.739698 0.061690 0.304886
Si Si8 0.831635 0.436002 0.591573
O O1 0.257007 0.500000 0.383297
O O2 0.277056 0.608872 0.357175
O O3 0.199371 0.559500 0.251294
O O4 0.195334 0.572994 0.469770
O O5 0.213046 0.825340 0.598734
O O6 0.267725 0.820601 0.414802
O O7 0.300631 0.766103 0.588471
O O8 0.309490 0.866831 0.603337
O O9 0.816484 0.204438 0.786867
O O10 0.896202 0.214780 0.656663
O O11 0.674902 0.674902 0.500000
O O12 0.500000 0.106187 0.109969
O O13 0.562132 0.188573 0.111411
O O14 0.612026 0.095200 0.103218
O O15 0.557103 0.128943 0.933265
O O16 0.613895 0.113895 0.750000
O O17 0.712104 0.078715 0.186705
O O18 0.758649 0.000000 0.295924
O O19 0.841509 0.500000 0.603429
#
# Coordination Sequence:
#
# PCOD9559355 Si02
#       8
#    16  16  16  16  16  16  16  16
#     4  11  23  37  54  75 108 145 178 219 269 325
#     4  11  21  32  53  82 110 138 173 221 266 328
#     4  11  21  34  53  78 111 139 170 217 267 314
#     4  12  22  33  52  83 111 141 179 217 271 327
#     4  11  22  35  52  74  97 134 184 230 273 316
#     4  12  19  36  55  74 107 140 181 223 264 326
#     4  10  22  38  55  77 105 140 181 215 264 332
#     4  10  21  37  53  72  98 136 181 229 275 316
#
# _framework density 17.381682000000001
#
# number of rings (size 3 to 8) (size 9 to 14) (size 15 to 20)
#    0.000    1.000    6.250    1.875    0.000    2.250 
#    0.000    0.000    0.000    2.250    0.000    0.000 
#    0.000    1.750    0.000    0.000    0.000    0.000 
#
# Total GULP energy -356589.966423 kJ/mol
# GULP energy per Si atom -5571.718225 kJ/mol
# Density = 1.734212 g / cm^3
# Si number density = 17.381682 Si / 1000 Ang^3
#
#
#
# Elastic Constant Matrix: (Units=GPa)
#
#
# Indices 1 2 3 4 5 6 
#
# 1 69.4762 32.3782 4.8386 0.0000 0.0000 0.0000
# 2 32.3782 69.4762 4.8386 0.0000 0.0000 0.0000
# 3 4.8386 4.8386 74.5055 0.0000 0.0000 0.0000
# 4 0.0000 0.0000 0.0000 18.5461 0.0000 0.0000
# 5 0.0000 0.0000 0.0000 0.0000 18.5461 0.0000
# 6 0.0000 0.0000 0.0000 0.0000 0.0000 20.4785
#
#
#
# Elastic Compliance Matrix: (Units=1/GPa)
#
#
# Indices 1 2 3 4 5 6 
#
# 1 0.018417 -0.008538 -0.000642 0.000000 0.000000 0.000000
# 2 -0.008538 0.018417 -0.000642 0.000000 0.000000 0.000000
# 3 -0.000642 -0.000642 0.013505 0.000000 0.000000 0.000000
# 4 0.000000 0.000000 0.000000 0.053920 0.000000 0.000000
# 5 0.000000 0.000000 0.000000 0.000000 0.053920 0.000000
# 6 0.000000 0.000000 0.000000 0.000000 0.000000 0.048832
#
#
# Mechanical properties :
#
#
# Convention : Reuss Voigt Hill
#
# Bulk Modulus (GPa) = 32.57681 33.06319 32.82000
# Shear Modulus (GPa) = 21.10719 22.94096 22.02408
#
# Velocity S-wave (km/s) = 3.48851 3.63690 3.56348
# Velocity P-wave (km/s) = 5.91684 6.05798 5.98783
#
# Compressibility (1/GPa) = 0.03069669
#
# Stress axis : x y z
#
# Youngs Moduli (GPa) = 54.29683 54.29683 74.04574
#
# Poissons Ratio (x) = 0.46361 0.04751
# Poissons Ratio (y) = 0.46361 0.04751
# Poissons Ratio (z) = 0.03483 0.03483
#
# Static dielectric constant tensor:
#      x y z
#    x 1.610150 0.000000 0.000000 
#    y 0.000000 1.610150 0.000000 
#    z 0.000000 0.000000 1.664020 
# 
# From -- ./inp_files/4463.got.cif
#   From: 2010.05.17/outbox.cif.g08.bks.cpg/sg119_3_cif.got.tgz:4463.got - 2010.05.20 11:21:29.
