data_PCOD9559702
_publ_section_title
;
Structure prediction by ZEFSAII (Michael W. Deem and Ramdas Pophale) SiO2 
 PCOD9559702
Probable space group: I -4 C 2
;
_chemical_formula_sum "Si O2"
_cell_formula_units_Z 88
_cell_length_a 15.205195
_cell_length_b 15.205195
_cell_length_c 20.045975
_cell_angle_alpha 90.000000
_cell_angle_beta 90.000000
_cell_angle_gamma 90.000000
_cell_volume 4634.588426
_symmetry_space_group_name_H-M "I -4 C 2"
_symmetry_group_IT_number 120
_symmetry_cell_setting 'tetragonal'
loop_
_space_group_symop_operation_xyz
x,y,z
y,-x,-z
-x,-y,z
-y,x,-z
y,x,1/2-z
-y,-x,1/2-z
-x,y,1/2+z
x,-y,1/2+z
1/2+x,1/2+y,1/2+z
1/2+y,1/2-x,1/2-z
1/2-x,1/2-y,1/2+z
1/2-y,1/2+x,1/2-z
1/2+y,1/2+x,-z
1/2-y,1/2-x,-z
1/2-x,1/2+y,z
1/2+x,1/2-y,z
loop_
_atom_site_type_symbol
_atom_site_label
_atom_site_fract_x
_atom_site_fract_y
_atom_site_fract_z
Si Si1 0.030768 0.177040 0.308160
Si Si2 0.785594 0.116983 0.828650
Si Si3 0.347158 0.265623 0.314038
Si Si4 0.693096 0.677084 0.460768
Si Si5 0.000000 0.000000 0.883112
Si Si6 0.979537 0.814410 0.042698
O O1 0.051525 0.182619 0.229541
O O2 0.128756 0.180055 0.340394
O O3 0.951981 0.243894 0.322322
O O4 0.993631 0.085097 0.336189
O O5 0.704639 0.174669 0.804173
O O6 0.764285 0.063848 0.894871
O O7 0.325921 0.325921 0.250000
O O8 0.307271 0.306215 0.381764
O O9 0.755257 0.744744 0.500000
O O10 0.592323 0.688310 0.485047
O O11 0.717526 0.576105 0.475929
O O12 0.913861 0.009862 0.928757
#
# Coordination Sequence:
#
# PCOD9559702 Si02
#       6
#    16  16  16  16   8  16
#     4  10  21  35  60  93 125 164 205 260 322 387
#     4  10  22  39  59  95 130 165 212 266 312 391
#     4  12  23  40  62  92 129 175 210 257 332 391
#     4  12  25  40  66  97 129 174 214 264 334 397
#     4  10  20  36  62  98 133 157 202 270 353 389
#     4  11  22  39  59  94 132 161 208 266 320 399
#
# _framework density 18.987660999999999
#
# number of rings (size 3 to 8) (size 9 to 14) (size 15 to 20)
#    0.000    1.091    5.455    2.182    7.636    0.727 
#    0.000    0.000    0.000    1.091    0.000    0.000 
#    0.000    0.000    0.000    0.000    0.000    0.000 
#
# Total GULP energy -245649.417165 kJ/mol
# GULP energy per Si atom -5582.941299 kJ/mol
# Density = 1.894444 g / cm^3
# Si number density = 18.987661 Si / 1000 Ang^3
#
#
#
# Elastic Constant Matrix: (Units=GPa)
#
#
# Indices 1 2 3 4 5 6 
#
# 1 80.8503 45.3735 26.2796 0.0000 0.0000 0.0000
# 2 45.3735 80.8485 26.2788 0.0000 0.0000 0.0000
# 3 26.2796 26.2788 107.5655 0.0000 0.0000 0.0000
# 4 0.0000 0.0000 0.0000 24.9315 0.0000 0.0000
# 5 0.0000 0.0000 0.0000 0.0000 24.9316 0.0000
# 6 0.0000 0.0000 0.0000 0.0000 0.0000 26.3684
#
#
#
# Elastic Compliance Matrix: (Units=1/GPa)
#
#
# Indices 1 2 3 4 5 6 
#
# 1 0.018504 -0.009684 -0.002155 0.000000 0.000000 0.000000
# 2 -0.009684 0.018504 -0.002155 0.000000 0.000000 0.000000
# 3 -0.002155 -0.002155 0.010350 0.000000 0.000000 0.000000
# 4 0.000000 0.000000 0.000000 0.040110 0.000000 0.000000
# 5 0.000000 0.000000 0.000000 0.000000 0.040110 0.000000
# 6 0.000000 0.000000 0.000000 0.000000 0.000000 0.037924
#
#
# Mechanical properties :
#
#
# Convention : Reuss Voigt Hill
#
# Bulk Modulus (GPa) = 51.62624 51.68088 51.65356
# Shear Modulus (GPa) = 25.00684 26.66845 25.83764
#
# Velocity S-wave (km/s) = 3.63299 3.75175 3.69285
# Velocity P-wave (km/s) = 6.69676 6.78563 6.74134
#
# Compressibility (1/GPa) = 0.01937000
#
# Stress axis : x y z
#
# Youngs Moduli (GPa) = 54.04311 54.04210 96.62300
#
# Poissons Ratio (x) = 0.52335 0.20820
# Poissons Ratio (y) = 0.52336 0.20819
# Poissons Ratio (z) = 0.11645 0.11644
#
# Static dielectric constant tensor:
#      x y z
#    x 1.677610 0.000000 0.000000 
#    y 0.000000 1.677610 0.000000 
#    z 0.000000 0.000000 1.709270 
# 
# From -- ./inp_files/5259.got.cif
#   From: 2010.05.17/outbox.cif.g08.bks.cpg/sg120_3_cif.got.tgz:5259.got - 2010.05.20 11:28:13.
