data_PCOD9559008
_publ_section_title
;
Structure prediction by ZEFSAII (Michael W. Deem and Ramdas Pophale) SiO2 
 PCOD9559008
Probable space group: I -4 M 2
;
_chemical_formula_sum "Si O2"
_cell_formula_units_Z 68
_cell_length_a 11.070534
_cell_length_b 11.070534
_cell_length_c 28.224084
_cell_angle_alpha 90.000000
_cell_angle_beta 90.000000
_cell_angle_gamma 90.000000
_cell_volume 3459.051246
_symmetry_space_group_name_H-M "I -4 M 2"
_symmetry_group_IT_number 119
_symmetry_cell_setting 'tetragonal'
loop_
_space_group_symop_operation_xyz
x,y,z
y,-x,-z
-x,-y,z
-y,x,-z
y,x,-z
-y,-x,-z
-x,y,z
x,-y,z
1/2+x,1/2+y,1/2+z
1/2+y,1/2-x,1/2-z
1/2-x,1/2-y,1/2+z
1/2-y,1/2+x,1/2-z
1/2+y,1/2+x,1/2-z
1/2-y,1/2-x,1/2-z
1/2-x,1/2+y,1/2+z
1/2+x,1/2-y,1/2+z
loop_
_atom_site_type_symbol
_atom_site_label
_atom_site_fract_x
_atom_site_fract_y
_atom_site_fract_z
Si Si1 0.000000 0.699913 0.758787
Si Si2 0.760346 0.500000 0.481090
Si Si3 0.726660 0.272310 0.108155
Si Si4 0.500000 0.500000 0.572427
Si Si5 0.138072 0.500000 0.382286
Si Si6 0.744425 0.500000 0.631040
Si Si7 0.763170 0.763170 0.500000
Si Si8 0.000000 0.862009 0.667463
O O1 0.884451 0.615550 0.750000
O O2 0.000000 0.751942 0.811852
O O3 0.000000 0.794000 0.716883
O O4 0.624963 0.500000 0.457757
O O5 0.855533 0.500000 0.439017
O O6 0.778444 0.620907 0.509210
O O7 0.621206 0.333226 0.138019
O O8 0.865930 0.300663 0.126467
O O9 0.702599 0.128824 0.114682
O O10 0.713865 0.315105 0.052672
O O11 0.614501 0.500000 0.606139
O O12 0.000000 0.500000 0.364758
O O13 0.000000 0.000000 0.678847
#
# Coordination Sequence:
#
# PCOD9559008 Si02
#       8
#     8   8  16   4   8   8   8   8
#     4  11  24  45  73  95 127 167 218 286 356 395
#     4  10  18  30  54  89 130 161 210 266 345 373
#     4  11  23  41  66  94 134 173 229 274 344 396
#     4  12  18  33  62 102 138 166 200 301 330 414
#     4  10  20  38  60  86 121 177 212 268 314 398
#     4  12  20  39  68 100 130 166 220 279 350 410
#     4  10  18  35  55  92 126 176 216 276 327 407
#     4  12  27  49  65  96 135 188 228 281 334 423
#
# _framework density 19.658567999999999
#
# number of rings (size 3 to 8) (size 9 to 14) (size 15 to 20)
#    0.000    1.059    7.059    2.118    0.824    0.471 
#   10.588    0.000    0.000    0.000    0.000    0.000 
#    0.000    0.000    0.000    0.000    0.000    0.000 
#
# Total GULP energy -189298.413458 kJ/mol
# GULP energy per Si atom -5567.600396 kJ/mol
# Density = 1.961382 g / cm^3
# Si number density = 19.658568 Si / 1000 Ang^3
#
#
#
# Elastic Constant Matrix: (Units=GPa)
#
#
# Indices 1 2 3 4 5 6 
#
# 1 96.7692 42.3596 44.7523 0.0000 0.0000 0.0000
# 2 42.3596 96.7701 44.7528 0.0000 0.0000 0.0000
# 3 44.7523 44.7528 160.2912 0.0000 0.0000 0.0000
# 4 0.0000 0.0000 0.0000 12.5138 0.0000 0.0000
# 5 0.0000 0.0000 0.0000 0.0000 12.5136 0.0000
# 6 0.0000 0.0000 0.0000 0.0000 0.0000 20.9049
#
#
#
# Elastic Compliance Matrix: (Units=1/GPa)
#
#
# Indices 1 2 3 4 5 6 
#
# 1 0.013570 -0.004809 -0.002446 0.000000 0.000000 0.000000
# 2 -0.004809 0.013570 -0.002446 0.000000 0.000000 0.000000
# 3 -0.002446 -0.002446 0.007605 0.000000 0.000000 0.000000
# 4 0.000000 0.000000 0.000000 0.079912 0.000000 0.000000
# 5 0.000000 0.000000 0.000000 0.000000 0.079913 0.000000
# 6 0.000000 0.000000 0.000000 0.000000 0.000000 0.047836
#
#
# Mechanical properties :
#
#
# Convention : Reuss Voigt Hill
#
# Bulk Modulus (GPa) = 65.17820 68.61777 66.89798
# Shear Modulus (GPa) = 18.73210 23.98419 21.35814
#
# Velocity S-wave (km/s) = 3.09021 3.49669 3.29972
# Velocity P-wave (km/s) = 6.77935 7.16122 6.97290
#
# Compressibility (1/GPa) = 0.01534255
#
# Stress axis : x y z
#
# Youngs Moduli (GPa) = 73.69138 73.69192 131.50079
#
# Poissons Ratio (x) = 0.35438 0.32166
# Poissons Ratio (y) = 0.35437 0.32166
# Poissons Ratio (z) = 0.18025 0.18026
#
# Static dielectric constant tensor:
#      x y z
#    x 1.762400 0.000000 0.000000 
#    y 0.000000 1.762410 0.000000 
#    z 0.000000 0.000000 1.677790 
# 
# From -- ./inp_files/9454.got.cif
#   From: 2010.05.17/outbox.cif.g08.bks.cpg/sg119_5_cif.got.tgz:9454.got - 2010.05.20 11:21:29.
