data_PCOD9559657
_publ_section_title
;
Structure prediction by ZEFSAII (Michael W. Deem and Ramdas Pophale) SiO2 
 PCOD9559657
Probable space group: I -4 C 2
;
_chemical_formula_sum "Si O2"
_cell_formula_units_Z 112
_cell_length_a 29.676088
_cell_length_b 29.676088
_cell_length_c 5.333638
_cell_angle_alpha 90.000000
_cell_angle_beta 90.000000
_cell_angle_gamma 90.000000
_cell_volume 4697.176039
_symmetry_space_group_name_H-M "I -4 C 2"
_symmetry_group_IT_number 120
_symmetry_cell_setting 'tetragonal'
loop_
_space_group_symop_operation_xyz
x,y,z
y,-x,-z
-x,-y,z
-y,x,-z
y,x,1/2-z
-y,-x,1/2-z
-x,y,1/2+z
x,-y,1/2+z
1/2+x,1/2+y,1/2+z
1/2+y,1/2-x,1/2-z
1/2-x,1/2-y,1/2+z
1/2-y,1/2+x,1/2-z
1/2+y,1/2+x,-z
1/2-y,1/2-x,-z
1/2-x,1/2+y,z
1/2+x,1/2-y,z
loop_
_atom_site_type_symbol
_atom_site_label
_atom_site_fract_x
_atom_site_fract_y
_atom_site_fract_z
Si Si1 0.096405 0.974824 0.763193
Si Si2 0.611717 0.847741 0.754426
Si Si3 0.727465 0.700375 0.005966
Si Si4 0.392147 0.985959 0.752914
Si Si5 0.650901 0.608788 0.989859
Si Si6 0.208720 0.524138 0.781504
Si Si7 0.259649 0.107302 0.512393
O O1 0.046220 0.953781 0.750000
O O2 0.103915 0.985741 0.468762
O O3 0.127502 0.937057 0.893969
O O4 0.636068 0.863933 0.500000
O O5 0.565311 0.875944 0.767834
O O6 0.598308 0.795194 0.713043
O O7 0.640982 0.859019 0.000000
O O8 0.697092 0.697092 0.250000
O O9 0.763029 0.660982 0.038372
O O10 0.700974 0.700974 0.750000
O O11 0.751664 0.748337 0.000000
O O12 0.416505 0.003310 0.508940
O O13 0.345426 0.016255 0.772985
O O14 0.628028 0.628028 0.250000
O O15 0.705338 0.601468 0.999601
O O16 0.639552 0.639552 0.750000
O O17 0.226244 0.497191 0.537399
O O18 0.222015 0.575326 0.730816
#
# Coordination Sequence:
#
# PCOD9559657 Si02
#       7
#    16  16  16  16  16  16  16
#     4  11  23  43  70 104 142 176 232 302 367 449
#     4  12  27  41  65 105 146 179 232 296 352 417
#     4  10  23  43  62  88 126 172 229 294 344 393
#     4  10  19  42  64  88 138 184 206 270 345 420
#     4  11  26  47  67  97 141 192 243 303 358 435
#     4  10  22  38  62  93 129 169 213 279 337 409
#     4  12  25  43  71  96 132 188 243 286 354 431
#
# _framework density 23.844113
#
# number of rings (size 3 to 8) (size 9 to 14) (size 15 to 20)
#    0.000    1.143    2.857    4.286    2.000    8.286 
#    0.000    0.000    0.000    0.000    0.000    0.000 
#    0.000   20.000    0.000    0.000    0.000    0.000 
#
# Total GULP energy -312414.258899 kJ/mol
# GULP energy per Si atom -5578.826052 kJ/mol
# Density = 2.378984 g / cm^3
# Si number density = 23.844113 Si / 1000 Ang^3
#
#
#
# Elastic Constant Matrix: (Units=GPa)
#
#
# Indices 1 2 3 4 5 6 
#
# 1 75.6443 19.0583 44.0876 0.0000 0.0000 0.0000
# 2 19.0583 75.6261 44.0882 0.0000 0.0000 0.0000
# 3 44.0876 44.0882 223.4358 0.0000 0.0000 0.0000
# 4 0.0000 0.0000 0.0000 -426.3438 0.0000 0.0000
# 5 0.0000 0.0000 0.0000 0.0000 -426.3483 0.0000
# 6 0.0000 0.0000 0.0000 0.0000 0.0000 42.5655
#
#
#
# Elastic Compliance Matrix: (Units=1/GPa)
#
#
# Indices 1 2 3 4 5 6 
#
# 1 0.015304 -0.002369 -0.002552 0.000000 0.000000 0.000000
# 2 -0.002369 0.015308 -0.002553 0.000000 0.000000 0.000000
# 3 -0.002552 -0.002553 0.005483 0.000000 0.000000 0.000000
# 4 0.000000 0.000000 0.000000 -0.002346 0.000000 0.000000
# 5 0.000000 0.000000 0.000000 0.000000 -0.002346 0.000000
# 6 0.000000 0.000000 0.000000 0.000000 0.000000 0.023493
#
#
# Mechanical properties :
#
#
# Convention : Reuss Voigt Hill
#
# Bulk Modulus (GPa) = 47.28860 65.46383 56.37621
# Shear Modulus (GPa) = 65.02341 -144.19384 -39.58521
#
# Velocity S-wave (km/s) = 5.22775 -7.78491 -4.07894
# Velocity P-wave (km/s) = 7.50431 7.30013 1.22938
#
# Compressibility (1/GPa) = 0.02114675
#
# Stress axis : x y z
#
# Youngs Moduli (GPa) = 65.34174 65.32374 182.38250
#
# Poissons Ratio (x) = 0.15474 0.46551
# Poissons Ratio (y) = 0.15478 0.46567
# Poissons Ratio (z) = 0.16678 0.16679
#
# Static dielectric constant tensor:
#      x y z
#    x 1.968270 0.000000 0.000000 
#    y 0.000000 1.968280 0.000000 
#    z 0.000000 0.000000 2.001730 
# 
# From -- ./inp_files/534.got.cif
#   From: 2010.05.17/outbox.cif.g08.bks.cpg/sg120_1_cif.got.tgz:534.got - 2010.05.20 11:28:13.
