data_PCOD9559179
_publ_section_title
;
Structure prediction by ZEFSAII (Michael W. Deem and Ramdas Pophale) SiO2 
 PCOD9559179
Probable space group: I -4 M 2
;
_chemical_formula_sum "Si O2"
_cell_formula_units_Z 112
_cell_length_a 14.891249
_cell_length_b 14.891249
_cell_length_c 24.948847
_cell_angle_alpha 90.000000
_cell_angle_beta 90.000000
_cell_angle_gamma 90.000000
_cell_volume 5532.389278
_symmetry_space_group_name_H-M "I -4 M 2"
_symmetry_group_IT_number 119
_symmetry_cell_setting 'tetragonal'
loop_
_space_group_symop_operation_xyz
x,y,z
y,-x,-z
-x,-y,z
-y,x,-z
y,x,-z
-y,-x,-z
-x,y,z
x,-y,z
1/2+x,1/2+y,1/2+z
1/2+y,1/2-x,1/2-z
1/2-x,1/2-y,1/2+z
1/2-y,1/2+x,1/2-z
1/2+y,1/2+x,1/2-z
1/2-y,1/2-x,1/2-z
1/2-x,1/2+y,1/2+z
1/2+x,1/2-y,1/2+z
loop_
_atom_site_type_symbol
_atom_site_label
_atom_site_fract_x
_atom_site_fract_y
_atom_site_fract_z
Si Si1 0.104017 0.604846 0.034351
Si Si2 0.401595 0.748398 0.119804
Si Si3 0.897249 0.752994 0.746229
Si Si4 0.605054 0.403596 0.435149
Si Si5 0.899497 0.234143 0.388545
Si Si6 0.607226 0.790926 0.426515
Si Si7 0.749621 0.396020 0.240483
O O1 0.111555 0.500000 0.016362
O O2 0.170430 0.616820 0.083774
O O3 0.000000 0.619548 0.048649
O O4 0.127422 0.672182 0.986080
O O5 0.500000 0.744093 0.095729
O O6 0.407104 0.729821 0.182800
O O7 0.335453 0.676251 0.094093
O O8 0.359339 0.846026 0.113024
O O9 0.838744 0.661257 0.750000
O O10 0.831709 0.834755 0.764943
O O11 0.000000 0.749912 0.768571
O O12 0.603164 0.396837 0.500000
O O13 0.500000 0.406041 0.418774
O O14 0.646606 0.500000 0.420727
O O15 0.643355 0.309340 0.415957
O O16 0.897280 0.240180 0.324179
O O17 0.000000 0.204389 0.403919
O O18 0.500000 0.790180 0.421682
O O19 0.748744 0.500000 0.258785
O O20 0.841552 0.341552 0.250000
#
# Coordination Sequence:
#
# PCOD9559179 Si02
#       7
#    16  16  16  16  16  16  16
#     4   9  18  32  49  71 101 137 175 212 252 303
#     4  10  21  35  53  77 101 128 167 215 258 300
#     4   9  19  36  56  79 105 133 169 212 260 315
#     4   8  15  28  45  67  94 124 164 207 239 283
#     4   9  19  35  53  74 102 135 171 211 254 302
#     4  10  20  32  49  73 101 136 171 209 259 306
#     4   9  18  33  54  81 109 137 171 213 259 306
#
# _framework density 20.244419000000001
#
# number of rings (size 3 to 8) (size 9 to 14) (size 15 to 20)
#    0.000    2.857    0.000    0.857    2.000    2.857 
#    0.000    5.714    0.000    3.429    0.000    8.000 
#    0.000    0.000    0.000    0.000    0.000    0.000 
#
# Total GULP energy -312070.499309 kJ/mol
# GULP energy per Si atom -5572.687488 kJ/mol
# Density = 2.019834 g / cm^3
# Si number density = 20.244419 Si / 1000 Ang^3
#
#
#
# Elastic Constant Matrix: (Units=GPa)
#
#
# Indices 1 2 3 4 5 6 
#
# 1 125.0817 62.6863 7.7402 0.0000 0.0000 0.0000
# 2 62.6863 125.0829 7.7402 0.0000 0.0000 0.0000
# 3 7.7402 7.7402 7.5278 0.0000 0.0000 0.0000
# 4 0.0000 0.0000 0.0000 16.2651 0.0000 0.0000
# 5 0.0000 0.0000 0.0000 0.0000 16.2632 0.0000
# 6 0.0000 0.0000 0.0000 0.0000 0.0000 22.1401
#
#
#
# Elastic Compliance Matrix: (Units=1/GPa)
#
#
# Indices 1 2 3 4 5 6 
#
# 1 0.010923 -0.005104 -0.005983 0.000000 0.000000 0.000000
# 2 -0.005104 0.010923 -0.005983 0.000000 0.000000 0.000000
# 3 -0.005983 -0.005983 0.145145 0.000000 0.000000 0.000000
# 4 0.000000 0.000000 0.000000 0.061481 0.000000 0.000000
# 5 0.000000 0.000000 0.000000 0.000000 0.061489 0.000000
# 6 0.000000 0.000000 0.000000 0.000000 0.000000 0.045167
#
#
# Mechanical properties :
#
#
# Convention : Reuss Voigt Hill
#
# Bulk Modulus (GPa) = 7.52725 46.00286 26.76506
# Shear Modulus (GPa) = 12.09038 22.90204 17.49621
#
# Velocity S-wave (km/s) = 2.44646 3.36710 2.94300
# Velocity P-wave (km/s) = 3.42147 6.15544 4.97976
#
# Compressibility (1/GPa) = 0.13285057
#
# Stress axis : x y z
#
# Youngs Moduli (GPa) = 91.55090 91.55198 6.88965
#
# Poissons Ratio (x) = 0.46727 0.04122
# Poissons Ratio (y) = 0.46726 0.04122
# Poissons Ratio (z) = 0.54778 0.54776
#
# Static dielectric constant tensor:
#      x y z
#    x 1.745190 0.000000 0.000000 
#    y 0.000000 1.745190 0.000000 
#    z 0.000000 0.000000 1.743150 
# 
# From -- ./inp_files/8819.got.cif
#   From: 2010.05.17/outbox.cif.g08.bks.cpg/sg119_5_cif.got.tgz:8819.got - 2010.05.20 11:21:29.
