data_PCOD9559685
_publ_section_title
;
Structure prediction by ZEFSAII (Michael W. Deem and Ramdas Pophale) SiO2 
 PCOD9559685
Probable space group: I -4 C 2
;
_chemical_formula_sum "Si O2"
_cell_formula_units_Z 56
_cell_length_a 22.464313
_cell_length_b 22.464313
_cell_length_c 5.539230
_cell_angle_alpha 90.000000
_cell_angle_beta 90.000000
_cell_angle_gamma 90.000000
_cell_volume 2795.346710
_symmetry_space_group_name_H-M "I -4 C 2"
_symmetry_group_IT_number 120
_symmetry_cell_setting 'tetragonal'
loop_
_space_group_symop_operation_xyz
x,y,z
y,-x,-z
-x,-y,z
-y,x,-z
y,x,1/2-z
-y,-x,1/2-z
-x,y,1/2+z
x,-y,1/2+z
1/2+x,1/2+y,1/2+z
1/2+y,1/2-x,1/2-z
1/2-x,1/2-y,1/2+z
1/2-y,1/2+x,1/2-z
1/2+y,1/2+x,-z
1/2-y,1/2-x,-z
1/2-x,1/2+y,z
1/2+x,1/2-y,z
loop_
_atom_site_type_symbol
_atom_site_label
_atom_site_fract_x
_atom_site_fract_y
_atom_site_fract_z
Si Si1 0.160497 0.752301 0.900141
Si Si2 0.356978 0.643023 0.750000
Si Si3 0.517650 0.381326 0.895771
Si Si4 0.471165 0.247329 0.813346
O O1 0.207061 0.792940 0.750000
O O2 0.098909 0.737000 0.769278
O O3 0.195956 0.695956 0.000000
O O4 0.139775 0.794526 0.118703
O O5 0.413176 0.635623 0.925487
O O6 0.507684 0.411059 0.634567
O O7 0.483289 0.318501 0.847347
O O8 0.506829 0.224814 0.577013
#
# Coordination Sequence:
#
# PCOD9559685 Si02
#       4
#    16   8  16  16
#     4  12  24  35  56  91 127 153 188 249 320 374
#     4  12  22  36  58  79 114 150 190 235 292 360
#     4  10  20  35  55  76  98 150 195 231 273 338
#     4  10  20  39  57  76 110 161 203 232 278 369
#
# _framework density 20.033294000000001
#
# number of rings (size 3 to 8) (size 9 to 14) (size 15 to 20)
#    0.000    1.143    7.143    3.429    0.000    0.000 
#    0.000    0.000    0.000    2.571    0.000    0.000 
#    0.000    3.429    0.000    0.000    0.000    0.000 
#
# Total GULP energy -156364.661979 kJ/mol
# GULP energy per Si atom -5584.452214 kJ/mol
# Density = 1.998770 g / cm^3
# Si number density = 20.033294 Si / 1000 Ang^3
#
#
#
# Elastic Constant Matrix: (Units=GPa)
#
#
# Indices 1 2 3 4 5 6 
#
# 1 82.9087 40.7232 14.2037 0.0000 0.0000 0.0000
# 2 40.7232 82.8942 14.2034 0.0000 0.0000 0.0000
# 3 14.2037 14.2034 128.1197 0.0000 0.0000 0.0000
# 4 0.0000 0.0000 0.0000 24.3402 0.0000 0.0000
# 5 0.0000 0.0000 0.0000 0.0000 24.3393 0.0000
# 6 0.0000 0.0000 0.0000 0.0000 0.0000 22.7688
#
#
#
# Elastic Compliance Matrix: (Units=1/GPa)
#
#
# Indices 1 2 3 4 5 6 
#
# 1 0.016003 -0.007704 -0.000920 0.000000 0.000000 0.000000
# 2 -0.007704 0.016006 -0.000920 0.000000 0.000000 0.000000
# 3 -0.000920 -0.000920 0.008009 0.000000 0.000000 0.000000
# 4 0.000000 0.000000 0.000000 0.041084 0.000000 0.000000
# 5 0.000000 0.000000 0.000000 0.000000 0.041086 0.000000
# 6 0.000000 0.000000 0.000000 0.000000 0.000000 0.043920
#
#
# Mechanical properties :
#
#
# Convention : Reuss Voigt Hill
#
# Bulk Modulus (GPa) = 47.77985 48.02036 47.90011
# Shear Modulus (GPa) = 26.01808 29.27582 27.64695
#
# Velocity S-wave (km/s) = 3.60772 3.82692 3.71893
# Velocity P-wave (km/s) = 6.42310 6.59920 6.51174
#
# Compressibility (1/GPa) = 0.02092932
#
# Stress axis : x y z
#
# Youngs Moduli (GPa) = 62.48722 62.47619 124.85597
#
# Poissons Ratio (x) = 0.48133 0.11488
# Poissons Ratio (y) = 0.48142 0.11491
# Poissons Ratio (z) = 0.05749 0.05750
#
# Static dielectric constant tensor:
#      x y z
#    x 1.721190 0.000000 0.000000 
#    y 0.000000 1.721190 0.000000 
#    z 0.000000 0.000000 1.344500 
# 
# From -- ./inp_files/308.got.cif
#   From: 2010.05.17/outbox.cif.g08.bks.cpg/sg120_1_cif.got.tgz:308.got - 2010.05.20 11:28:13.
