data_PCOD9559491
_publ_section_title
;
Structure prediction by ZEFSAII (Michael W. Deem and Ramdas Pophale) SiO2 
 PCOD9559491
Probable space group: I -4 M 2
;
_chemical_formula_sum "Si O2"
_cell_formula_units_Z 60
_cell_length_a 11.702996
_cell_length_b 11.702996
_cell_length_c 25.013278
_cell_angle_alpha 90.000000
_cell_angle_beta 90.000000
_cell_angle_gamma 90.000000
_cell_volume 3425.821441
_symmetry_space_group_name_H-M "I -4 M 2"
_symmetry_group_IT_number 119
_symmetry_cell_setting 'tetragonal'
loop_
_space_group_symop_operation_xyz
x,y,z
y,-x,-z
-x,-y,z
-y,x,-z
y,x,-z
-y,-x,-z
-x,y,z
x,-y,z
1/2+x,1/2+y,1/2+z
1/2+y,1/2-x,1/2-z
1/2-x,1/2-y,1/2+z
1/2-y,1/2+x,1/2-z
1/2+y,1/2+x,1/2-z
1/2-y,1/2-x,1/2-z
1/2-x,1/2+y,1/2+z
1/2+x,1/2-y,1/2+z
loop_
_atom_site_type_symbol
_atom_site_label
_atom_site_fract_x
_atom_site_fract_y
_atom_site_fract_z
Si Si1 0.751746 0.500000 0.345537
Si Si2 0.500000 0.000000 0.656636
Si Si3 0.864167 0.770322 0.885882
Si Si4 0.635341 0.261272 0.200951
Si Si5 0.239708 0.500000 0.218256
Si Si6 0.634876 0.365124 0.500000
O O1 0.681236 0.612211 0.359896
O O2 0.773033 0.500000 0.282100
O O3 0.877241 0.500000 0.372833
O O4 0.616442 0.000000 0.690712
O O5 0.800612 0.670611 0.854131
O O6 0.000000 0.761041 0.878653
O O7 0.841267 0.786544 0.948922
O O8 0.500000 0.268875 0.207462
O O9 0.690054 0.190054 0.250000
O O10 0.692484 0.386144 0.202267
O O11 0.500000 0.351829 0.514751
#
# Coordination Sequence:
#
# PCOD9559491 Si02
#       6
#     8   4  16  16   8   8
#     4  12  20  34  59  89 120 147 192 244 304 343
#     4  12  21  36  60  88 124 156 188 254 297 334
#     4  11  22  37  60  87 120 155 192 244 300 357
#     4  12  25  39  59  87 123 161 196 240 289 361
#     4  12  22  38  59  93 120 151 198 243 302 347
#     4   9  18  34  60  88 113 146 194 252 305 340
#
# _framework density 17.514047000000001
#
# number of rings (size 3 to 8) (size 9 to 14) (size 15 to 20)
#    0.000    0.667    6.667    2.800    0.000    2.933 
#    0.000    0.000    5.867    0.000    0.000    0.000 
#    0.000    0.000    0.000    0.000    0.000    0.000 
#
# Total GULP energy -167629.522365 kJ/mol
# GULP energy per Si atom -5587.650746 kJ/mol
# Density = 1.747418 g / cm^3
# Si number density = 17.514047 Si / 1000 Ang^3
#
#
#
# Elastic Constant Matrix: (Units=GPa)
#
#
# Indices 1 2 3 4 5 6 
#
# 1 133.6332 55.3044 37.7763 0.0000 0.0000 0.0000
# 2 55.3044 133.6332 37.7763 0.0000 0.0000 0.0000
# 3 37.7763 37.7763 73.5093 0.0000 0.0000 0.0000
# 4 0.0000 0.0000 0.0000 22.1546 0.0000 0.0000
# 5 0.0000 0.0000 0.0000 0.0000 22.1546 0.0000
# 6 0.0000 0.0000 0.0000 0.0000 0.0000 22.5302
#
#
#
# Elastic Compliance Matrix: (Units=1/GPa)
#
#
# Indices 1 2 3 4 5 6 
#
# 1 0.009714 -0.003052 -0.003423 0.000000 0.000000 0.000000
# 2 -0.003052 0.009714 -0.003423 0.000000 0.000000 0.000000
# 3 -0.003423 -0.003423 0.017122 0.000000 0.000000 0.000000
# 4 0.000000 0.000000 0.000000 0.045137 0.000000 0.000000
# 5 0.000000 0.000000 0.000000 0.000000 0.045137 0.000000
# 6 0.000000 0.000000 0.000000 0.000000 0.000000 0.044385
#
#
# Mechanical properties :
#
#
# Convention : Reuss Voigt Hill
#
# Bulk Modulus (GPa) = 59.69439 66.94328 63.31883
# Shear Modulus (GPa) = 25.43322 27.36244 26.39783
#
# Velocity S-wave (km/s) = 3.81486 3.95690 3.88653
# Velocity P-wave (km/s) = 7.31860 7.69296 7.50811
#
# Compressibility (1/GPa) = 0.01675199
#
# Stress axis : x y z
#
# Youngs Moduli (GPa) = 102.94195 102.94195 58.40326
#
# Poissons Ratio (x) = 0.31423 0.19994
# Poissons Ratio (y) = 0.31423 0.19994
# Poissons Ratio (z) = 0.35242 0.35242
#
# Static dielectric constant tensor:
#      x y z
#    x 1.594590 0.000000 0.000000 
#    y 0.000000 1.594590 0.000000 
#    z 0.000000 0.000000 1.607130 
# 
# From -- ./inp_files/7422.got.cif
#   From: 2010.05.17/outbox.cif.g08.bks.cpg/sg119_4_cif.got.tgz:7422.got - 2010.05.20 11:21:29.
