data_PCOD9559819
_publ_section_title
;
Structure prediction by ZEFSAII (Michael W. Deem and Ramdas Pophale) SiO2 
 PCOD9559819
Probable space group: I -4 C 2
;
_chemical_formula_sum "Si O2"
_cell_formula_units_Z 56
_cell_length_a 23.718102
_cell_length_b 23.718102
_cell_length_c 5.089467
_cell_angle_alpha 90.000000
_cell_angle_beta 90.000000
_cell_angle_gamma 90.000000
_cell_volume 2863.071327
_symmetry_space_group_name_H-M "I -4 C 2"
_symmetry_group_IT_number 120
_symmetry_cell_setting 'tetragonal'
loop_
_space_group_symop_operation_xyz
x,y,z
y,-x,-z
-x,-y,z
-y,x,-z
y,x,1/2-z
-y,-x,1/2-z
-x,y,1/2+z
x,-y,1/2+z
1/2+x,1/2+y,1/2+z
1/2+y,1/2-x,1/2-z
1/2-x,1/2-y,1/2+z
1/2-y,1/2+x,1/2-z
1/2+y,1/2+x,-z
1/2-y,1/2-x,-z
1/2-x,1/2+y,z
1/2+x,1/2-y,z
loop_
_atom_site_type_symbol
_atom_site_label
_atom_site_fract_x
_atom_site_fract_y
_atom_site_fract_z
Si Si1 0.143377 0.143377 0.250000
Si Si2 0.695761 0.111447 0.571192
Si Si3 0.703176 0.465207 0.018063
Si Si4 0.747291 0.834990 0.568462
O O1 0.083958 0.160878 0.381519
O O2 0.190446 0.152531 0.474180
O O3 0.631783 0.131783 0.500000
O O4 0.730594 0.053414 0.541009
O O5 0.708416 0.128490 0.869804
O O6 0.731806 0.148748 0.362706
O O7 0.693726 0.516675 0.218991
O O8 0.727827 0.772174 0.500000
#
# Coordination Sequence:
#
# PCOD9559819 Si02
#       4
#     8  16  16  16
#     4  10  22  36  54  73 104 144 176 218 274 313
#     4   9  18  34  53  77 109 140 167 205 262 327
#     4  11  23  37  54  78 107 138 179 224 264 315
#     4   9  18  30  50  79 105 132 168 201 250 340
#
# _framework density 19.559415999999999
#
# number of rings (size 3 to 8) (size 9 to 14) (size 15 to 20)
#    0.000    2.286    0.000    3.429    0.000   19.429 
#    0.000    0.000    0.000    2.571    0.000    0.000 
#    0.000    3.429    0.000    0.000    0.000    0.000 
#
# Total GULP energy -155887.592291 kJ/mol
# GULP energy per Si atom -5567.414010 kJ/mol
# Density = 1.951490 g / cm^3
# Si number density = 19.559416 Si / 1000 Ang^3
#
#
#
# Elastic Constant Matrix: (Units=GPa)
#
#
# Indices 1 2 3 4 5 6 
#
# 1 26.6749 41.8787 0.2031 0.0000 0.0000 0.0000
# 2 41.8787 26.6762 0.1997 0.0000 0.0000 0.0000
# 3 0.2031 0.1997 73.1569 0.0000 0.0000 0.0000
# 4 0.0000 0.0000 0.0000 32.8131 0.0000 0.0000
# 5 0.0000 0.0000 0.0000 0.0000 32.8123 0.0000
# 6 0.0000 0.0000 0.0000 0.0000 0.0000 30.6021
#
#
#
# Elastic Compliance Matrix: (Units=1/GPa)
#
#
# Indices 1 2 3 4 5 6 
#
# 1 -0.025595 0.040181 -0.000039 0.000000 0.000000 0.000000
# 2 0.040181 -0.025594 -0.000042 0.000000 0.000000 0.000000
# 3 -0.000039 -0.000042 0.013669 0.000000 0.000000 0.000000
# 4 0.000000 0.000000 0.000000 0.030476 0.000000 0.000000
# 5 0.000000 0.000000 0.000000 0.000000 0.030476 0.000000
# 6 0.000000 0.000000 0.000000 0.000000 0.000000 0.032677
#
#
# Mechanical properties :
#
#
# Convention : Reuss Voigt Hill
#
# Bulk Modulus (GPa) = 23.42838 23.45234 23.44036
# Shear Modulus (GPa) = -506.88720 24.86062 -241.01329
#
# Velocity S-wave (km/s) = -16.11568 3.56902 -11.11254
# Velocity P-wave (km/s) = 18.28340 5.38518 12.35481
#
# Compressibility (1/GPa) = 0.04268327
#
# Stress axis : x y z
#
# Youngs Moduli (GPa) = -39.07031 -39.07227 73.15573
#
# Poissons Ratio (x) = 1.56998 0.00283
# Poissons Ratio (y) = 1.56990 0.00305
# Poissons Ratio (z) = -0.00151 -0.00163
#
# Static dielectric constant tensor:
#      x y z
#    x 1.758210 0.000000 0.000000 
#    y 0.000000 1.758210 0.000000 
#    z 0.000000 0.000000 1.713470 
# 
# From -- ./inp_files/328.got.cif
#   From: 2010.05.17/outbox.cif.g08.bks.cpg/sg120_1_cif.got.tgz:328.got - 2010.05.20 11:28:13.
