data_PCOD9559059
_publ_section_title
;
Structure prediction by ZEFSAII (Michael W. Deem and Ramdas Pophale) SiO2 
 PCOD9559059
Probable space group: I -4 M 2
;
_chemical_formula_sum "Si O2"
_cell_formula_units_Z 72
_cell_length_a 15.170404
_cell_length_b 15.170404
_cell_length_c 15.852515
_cell_angle_alpha 90.000000
_cell_angle_beta 90.000000
_cell_angle_gamma 90.000000
_cell_volume 3648.316152
_symmetry_space_group_name_H-M "I -4 M 2"
_symmetry_group_IT_number 119
_symmetry_cell_setting 'tetragonal'
loop_
_space_group_symop_operation_xyz
x,y,z
y,-x,-z
-x,-y,z
-y,x,-z
y,x,-z
-y,-x,-z
-x,y,z
x,-y,z
1/2+x,1/2+y,1/2+z
1/2+y,1/2-x,1/2-z
1/2-x,1/2-y,1/2+z
1/2-y,1/2+x,1/2-z
1/2+y,1/2+x,1/2-z
1/2-y,1/2-x,1/2-z
1/2-x,1/2+y,1/2+z
1/2+x,1/2-y,1/2+z
loop_
_atom_site_type_symbol
_atom_site_label
_atom_site_fract_x
_atom_site_fract_y
_atom_site_fract_z
Si Si1 0.599960 0.599960 0.500000
Si Si2 0.405455 0.728953 0.737553
Si Si3 0.728561 0.396880 0.659147
Si Si4 0.106790 0.401019 0.929949
Si Si5 0.898595 0.638211 0.374664
O O1 0.608458 0.500000 0.466108
O O2 0.609550 0.671632 0.427386
O O3 0.500000 0.684581 0.723797
O O4 0.324122 0.666399 0.720501
O O5 0.403558 0.816248 0.676474
O O6 0.401453 0.766285 0.831962
O O7 0.729588 0.500000 0.684237
O O8 0.826483 0.366109 0.635618
O O9 0.134547 0.500000 0.907284
O O10 0.000000 0.398745 0.932522
O O11 0.135916 0.381757 0.025934
O O12 0.000000 0.602200 0.362000
#
# Coordination Sequence:
#
# PCOD9559059 Si02
#       5
#     8  16  16  16  16
#     4   9  16  24  36  60  96 134 164 191 240 312
#     4  10  19  30  47  73 104 138 173 208 256 318
#     4  10  19  30  47  73 105 137 169 212 262 309
#     4   9  17  30  49  74 103 135 172 214 262 313
#     4   9  18  31  47  69 100 134 166 205 254 309
#
# _framework density 19.735133000000001
#
# number of rings (size 3 to 8) (size 9 to 14) (size 15 to 20)
#    0.000    2.556    0.000    2.667    0.000    5.333 
#    0.000    4.444    0.000    5.333    0.000    1.556 
#    0.000    1.778    0.000    0.000    0.000    0.000 
#
# Total GULP energy -200708.287572 kJ/mol
# GULP energy per Si atom -5575.230210 kJ/mol
# Density = 1.969021 g / cm^3
# Si number density = 19.735133 Si / 1000 Ang^3
#
#
#
# Elastic Constant Matrix: (Units=GPa)
#
#
# Indices 1 2 3 4 5 6 
#
# 1 83.3974 49.8115 32.6802 0.0000 0.0000 0.0000
# 2 49.8115 83.3974 32.6802 0.0000 0.0000 0.0000
# 3 32.6802 32.6802 27.6872 0.0000 0.0000 0.0000
# 4 0.0000 0.0000 0.0000 12.2868 0.0000 0.0000
# 5 0.0000 0.0000 0.0000 0.0000 12.2868 0.0000
# 6 0.0000 0.0000 0.0000 0.0000 0.0000 23.3310
#
#
#
# Elastic Compliance Matrix: (Units=1/GPa)
#
#
# Indices 1 2 3 4 5 6 
#
# 1 0.023806 -0.005968 -0.021054 0.000000 0.000000 0.000000
# 2 -0.005968 0.023806 -0.021054 0.000000 0.000000 0.000000
# 3 -0.021054 -0.021054 0.085820 0.000000 0.000000 0.000000
# 4 0.000000 0.000000 0.000000 0.081388 0.000000 0.000000
# 5 0.000000 0.000000 0.000000 0.000000 0.081388 0.000000
# 6 0.000000 0.000000 0.000000 0.000000 0.000000 0.042861
#
#
# Mechanical properties :
#
#
# Convention : Reuss Voigt Hill
#
# Bulk Modulus (GPa) = 26.82555 47.20288 37.01422
# Shear Modulus (GPa) = 11.16946 14.86826 13.01886
#
# Velocity S-wave (km/s) = 2.38159 2.74777 2.57121
# Velocity P-wave (km/s) = 4.60271 5.83414 5.25462
#
# Compressibility (1/GPa) = 0.03727789
#
# Stress axis : x y z
#
# Youngs Moduli (GPa) = 42.00625 42.00625 11.65232
#
# Poissons Ratio (x) = 0.25071 0.24533
# Poissons Ratio (y) = 0.25071 0.24533
# Poissons Ratio (z) = 0.88441 0.88441
#
# Static dielectric constant tensor:
#      x y z
#    x 1.724510 0.000000 0.000000 
#    y 0.000000 1.724510 0.000000 
#    z 0.000000 0.000000 1.679340 
# 
# From -- ./inp_files/6362.got.cif
#   From: 2010.05.17/outbox.cif.g08.bks.cpg/sg119_4_cif.got.tgz:6362.got - 2010.05.20 11:21:29.
