data_PCOD9559066
_publ_section_title
;
Structure prediction by ZEFSAII (Michael W. Deem and Ramdas Pophale) SiO2 
 PCOD9559066
Probable space group: I -4 M 2
;
_chemical_formula_sum "Si O2"
_cell_formula_units_Z 96
_cell_length_a 23.473828
_cell_length_b 23.473828
_cell_length_c 10.704840
_cell_angle_alpha 90.000000
_cell_angle_beta 90.000000
_cell_angle_gamma 90.000000
_cell_volume 5898.587370
_symmetry_space_group_name_H-M "I -4 M 2"
_symmetry_group_IT_number 119
_symmetry_cell_setting 'tetragonal'
loop_
_space_group_symop_operation_xyz
x,y,z
y,-x,-z
-x,-y,z
-y,x,-z
y,x,-z
-y,-x,-z
-x,y,z
x,-y,z
1/2+x,1/2+y,1/2+z
1/2+y,1/2-x,1/2-z
1/2-x,1/2-y,1/2+z
1/2-y,1/2+x,1/2-z
1/2+y,1/2+x,1/2-z
1/2-y,1/2-x,1/2-z
1/2-x,1/2+y,1/2+z
1/2+x,1/2-y,1/2+z
loop_
_atom_site_type_symbol
_atom_site_label
_atom_site_fract_x
_atom_site_fract_y
_atom_site_fract_z
Si Si1 0.787604 0.564088 0.476819
Si Si2 0.329970 0.726365 0.614945
Si Si3 0.935762 0.691870 0.482127
Si Si4 0.262918 0.327452 0.105206
Si Si5 0.661295 0.066853 0.239498
Si Si6 0.562916 0.084610 0.607033
O O1 0.765877 0.500000 0.486221
O O2 0.746330 0.606259 0.408302
O O3 0.803790 0.584767 0.616629
O O4 0.847185 0.563445 0.402772
O O5 0.313833 0.686168 0.500000
O O6 0.324387 0.707973 0.758559
O O7 0.288058 0.780932 0.602719
O O8 0.887229 0.730082 0.418026
O O9 0.927239 0.695386 0.631680
O O10 0.932785 0.623409 0.453530
O O11 0.000000 0.709977 0.448847
O O12 0.307651 0.307651 0.000000
O O13 0.605429 0.105429 0.250000
O O14 0.646936 0.000000 0.223072
O O15 0.500000 0.066953 0.554972
O O16 0.565610 0.065610 0.750000
#
# Coordination Sequence:
#
# PCOD9559066 Si02
#       6
#    16  16  16  16  16  16
#     4  10  20  34  52  71  99 131 168 216 260 305
#     4  10  20  34  54  75  97 130 171 208 257 311
#     4  11  22  34  52  73  99 133 172 215 263 312
#     4  10  21  36  52  74 101 129 168 215 260 305
#     4  10  19  31  47  67  93 131 171 210 254 298
#     4  11  21  33  47  66  95 133 176 219 259 298
#
# _framework density 16.275082999999999
#
# number of rings (size 3 to 8) (size 9 to 14) (size 15 to 20)
#    0.000    1.667    3.333    1.500    2.333    3.333 
#    0.000    1.667    0.000    0.000    0.000    0.000 
#    0.000    0.667    0.000    3.000    0.000    0.000 
#
# Total GULP energy -267599.216532 kJ/mol
# GULP energy per Si atom -5574.983678 kJ/mol
# Density = 1.623804 g / cm^3
# Si number density = 16.275083 Si / 1000 Ang^3
#
#
#
# Elastic Constant Matrix: (Units=GPa)
#
#
# Indices 1 2 3 4 5 6 
#
# 1 50.0349 25.8728 32.7599 0.0000 0.0000 0.0000
# 2 25.8728 50.0366 32.7605 0.0000 0.0000 0.0000
# 3 32.7599 32.7605 106.5790 0.0000 0.0000 0.0000
# 4 0.0000 0.0000 0.0000 18.4132 0.0000 0.0000
# 5 0.0000 0.0000 0.0000 0.0000 18.4133 0.0000
# 6 0.0000 0.0000 0.0000 0.0000 0.0000 17.1167
#
#
#
# Elastic Compliance Matrix: (Units=1/GPa)
#
#
# Indices 1 2 3 4 5 6 
#
# 1 0.029659 -0.011727 -0.005512 0.000000 0.000000 0.000000
# 2 -0.011727 0.029658 -0.005512 0.000000 0.000000 0.000000
# 3 -0.005512 -0.005512 0.012771 0.000000 0.000000 0.000000
# 4 0.000000 0.000000 0.000000 0.054309 0.000000 0.000000
# 5 0.000000 0.000000 0.000000 0.000000 0.054308 0.000000
# 6 0.000000 0.000000 0.000000 0.000000 0.000000 0.058423
#
#
# Mechanical properties :
#
#
# Convention : Reuss Voigt Hill
#
# Bulk Modulus (GPa) = 37.61281 43.27076 40.44179
# Shear Modulus (GPa) = 17.03628 18.47246 17.75437
#
# Velocity S-wave (km/s) = 3.23889 3.37265 3.30645
# Velocity P-wave (km/s) = 6.09492 6.46616 6.28328
#
# Compressibility (1/GPa) = 0.02658668
#
# Stress axis : x y z
#
# Youngs Moduli (GPa) = 33.71666 33.71782 78.30202
#
# Poissons Ratio (x) = 0.39542 0.43158
# Poissons Ratio (y) = 0.39540 0.43157
# Poissons Ratio (z) = 0.18584 0.18584
#
# Static dielectric constant tensor:
#      x y z
#    x 1.540010 0.000000 0.000000 
#    y 0.000000 1.540010 0.000000 
#    z 0.000000 0.000000 1.611990 
# 
# From -- ./inp_files/4187.got.cif
#   From: 2010.05.17/outbox.cif.g08.bks.cpg/sg119_3_cif.got.tgz:4187.got - 2010.05.20 11:21:29.
