data_PCOD9559885
_publ_section_title
;
Structure prediction by ZEFSAII (Michael W. Deem and Ramdas Pophale) SiO2 
 PCOD9559885
Probable space group: I -4 C 2
;
_chemical_formula_sum "Si O2"
_cell_formula_units_Z 128
_cell_length_a 17.134418
_cell_length_b 17.134418
_cell_length_c 23.996363
_cell_angle_alpha 90.000000
_cell_angle_beta 90.000000
_cell_angle_gamma 90.000000
_cell_volume 7045.050944
_symmetry_space_group_name_H-M "I -4 C 2"
_symmetry_group_IT_number 120
_symmetry_cell_setting 'tetragonal'
loop_
_space_group_symop_operation_xyz
x,y,z
y,-x,-z
-x,-y,z
-y,x,-z
y,x,1/2-z
-y,-x,1/2-z
-x,y,1/2+z
x,-y,1/2+z
1/2+x,1/2+y,1/2+z
1/2+y,1/2-x,1/2-z
1/2-x,1/2-y,1/2+z
1/2-y,1/2+x,1/2-z
1/2+y,1/2+x,-z
1/2-y,1/2-x,-z
1/2-x,1/2+y,z
1/2+x,1/2-y,z
loop_
_atom_site_type_symbol
_atom_site_label
_atom_site_fract_x
_atom_site_fract_y
_atom_site_fract_z
Si Si1 0.385909 0.948511 0.557891
Si Si2 0.400499 0.919722 0.239477
Si Si3 0.831706 0.263165 0.202395
Si Si4 0.613704 0.893606 0.618493
Si Si5 0.698316 0.043869 0.382626
Si Si6 0.519054 0.724837 0.997725
Si Si7 0.347151 0.668235 0.001579
Si Si8 0.233753 0.261404 0.908365
O O1 0.427799 0.927799 0.500000
O O2 0.405270 0.879314 0.601269
O O3 0.294442 0.953303 0.542818
O O4 0.409179 0.034243 0.579335
O O5 0.492473 0.898606 0.235996
O O6 0.346349 0.854521 0.269046
O O7 0.366159 0.929421 0.177936
O O8 0.797313 0.202688 0.250000
O O9 0.912684 0.252877 0.166033
O O10 0.768902 0.260999 0.151858
O O11 0.541847 0.835573 0.628920
O O12 0.685022 0.842884 0.596778
O O13 0.745179 0.030577 0.439421
O O14 0.576154 0.652254 0.991161
O O15 0.430118 0.704467 0.988830
O O16 0.289352 0.692274 0.951001
O O17 0.312621 0.704444 0.057994
#
# Coordination Sequence:
#
# PCOD9559885 Si02
#       8
#    16  16  16  16  16  16  16  16
#     4  10  23  35  57  96 132 166 198 242 318 400
#     4  11  24  39  60  90 125 163 205 262 318 372
#     4  12  23  40  61  88 122 167 217 252 307 373
#     4  12  21  38  59  89 126 163 200 251 310 379
#     4  11  22  37  57  87 123 162 196 246 306 375
#     4  11  22  38  59  85 122 159 202 254 306 374
#     4  11  23  39  60  87 121 158 205 255 316 372
#     4  11  23  39  61  88 122 162 206 257 309 377
#
# _framework density 18.168783000000001
#
# number of rings (size 3 to 8) (size 9 to 14) (size 15 to 20)
#    0.000    0.875    6.250    1.875    5.250    3.750 
#    0.000    0.000    0.000    0.000    0.000    0.000 
#    0.000    0.000    0.000    0.000    0.000    0.000 
#
# Total GULP energy -356724.467870 kJ/mol
# GULP energy per Si atom -5573.819810 kJ/mol
# Density = 1.812743 g / cm^3
# Si number density = 18.168783 Si / 1000 Ang^3
#
#
#
# Elastic Constant Matrix: (Units=GPa)
#
#
# Indices 1 2 3 4 5 6 
#
# 1 60.7122 43.2372 19.2616 0.0000 0.0000 0.0000
# 2 43.2372 60.7127 19.2615 0.0000 0.0000 0.0000
# 3 19.2616 19.2615 69.2129 0.0000 0.0000 0.0000
# 4 0.0000 0.0000 0.0000 25.2568 0.0000 0.0000
# 5 0.0000 0.0000 0.0000 0.0000 25.2569 0.0000
# 6 0.0000 0.0000 0.0000 0.0000 0.0000 35.0757
#
#
#
# Elastic Compliance Matrix: (Units=1/GPa)
#
#
# Indices 1 2 3 4 5 6 
#
# 1 0.033975 -0.023249 -0.002985 0.000000 0.000000 0.000000
# 2 -0.023249 0.033975 -0.002985 0.000000 0.000000 0.000000
# 3 -0.002985 -0.002985 0.016110 0.000000 0.000000 0.000000
# 4 0.000000 0.000000 0.000000 0.039593 0.000000 0.000000
# 5 0.000000 0.000000 0.000000 0.000000 0.039593 0.000000
# 6 0.000000 0.000000 0.000000 0.000000 0.000000 0.028510
#
#
# Mechanical properties :
#
#
# Convention : Reuss Voigt Hill
#
# Bulk Modulus (GPa) = 39.02906 39.35095 39.19000
# Shear Modulus (GPa) = 19.32484 24.37639 21.85062
#
# Velocity S-wave (km/s) = 3.26487 3.66685 3.47168
# Velocity P-wave (km/s) = 5.97834 6.29549 6.13896
#
# Compressibility (1/GPa) = 0.02562194
#
# Stress axis : x y z
#
# Youngs Moduli (GPa) = 29.43324 29.43348 62.07471
#
# Poissons Ratio (x) = 0.68429 0.18530
# Poissons Ratio (y) = 0.68429 0.18529
# Poissons Ratio (z) = 0.08786 0.08786
#
# Static dielectric constant tensor:
#      x y z
#    x 1.646540 0.000000 0.000000 
#    y 0.000000 1.646540 0.000000 
#    z 0.000000 0.000000 1.666130 
# 
# From -- ./inp_files/6035.got.cif
#   From: 2010.05.17/outbox.cif.g08.bks.cpg/sg120_4_cif.got.tgz:6035.got - 2010.05.20 11:28:13.
