data_PCOD9559848
_publ_section_title
;
Structure prediction by ZEFSAII (Michael W. Deem and Ramdas Pophale) SiO2 
 PCOD9559848
Probable space group: I -4 C 2
;
_chemical_formula_sum "Si O2"
_cell_formula_units_Z 88
_cell_length_a 14.179136
_cell_length_b 14.179136
_cell_length_c 19.857841
_cell_angle_alpha 90.000000
_cell_angle_beta 90.000000
_cell_angle_gamma 90.000000
_cell_volume 3992.377186
_symmetry_space_group_name_H-M "I -4 C 2"
_symmetry_group_IT_number 120
_symmetry_cell_setting 'tetragonal'
loop_
_space_group_symop_operation_xyz
x,y,z
y,-x,-z
-x,-y,z
-y,x,-z
y,x,1/2-z
-y,-x,1/2-z
-x,y,1/2+z
x,-y,1/2+z
1/2+x,1/2+y,1/2+z
1/2+y,1/2-x,1/2-z
1/2-x,1/2-y,1/2+z
1/2-y,1/2+x,1/2-z
1/2+y,1/2+x,-z
1/2-y,1/2-x,-z
1/2-x,1/2+y,z
1/2+x,1/2-y,z
loop_
_atom_site_type_symbol
_atom_site_label
_atom_site_fract_x
_atom_site_fract_y
_atom_site_fract_z
Si Si1 0.483355 0.225208 0.221523
Si Si2 0.628599 0.414995 0.491342
Si Si3 0.783058 0.216943 0.250000
Si Si4 0.650281 0.720825 0.641464
Si Si5 0.402915 0.057683 0.158871
Si Si6 0.086561 0.673063 0.436633
O O1 0.394016 0.268149 0.259381
O O2 0.560845 0.293155 0.190252
O O3 0.437016 0.164780 0.161006
O O4 0.535232 0.154182 0.272694
O O5 0.528059 0.381115 0.519946
O O6 0.652777 0.360685 0.421985
O O7 0.719286 0.400558 0.539006
O O8 0.722818 0.257005 0.312776
O O9 0.647386 0.828414 0.613883
O O10 0.500000 0.000000 0.159292
O O11 0.343939 0.013939 0.097841
O O12 0.104762 0.604762 0.500000
#
# Coordination Sequence:
#
# PCOD9559848 Si02
#       6
#    16  16   8  16  16  16
#     4  12  22  38  61  95 134 172 202 276 344 396
#     4  10  25  47  65  84 128 188 225 268 328 391
#     4  12  24  38  68 100 132 170 214 278 334 406
#     4  11  24  42  63 100 130 164 231 271 339 401
#     4  12  18  37  62  89 129 166 198 263 350 392
#     4  10  22  40  60  91 126 160 218 275 315 402
#
# _framework density 22.042005
#
# number of rings (size 3 to 8) (size 9 to 14) (size 15 to 20)
#    0.000    0.909    7.273    0.000    5.091    0.364 
#    0.000    0.000    0.000    0.000    0.000    0.000 
#    0.000    0.000    0.000    0.000    0.000    0.000 
#
# Total GULP energy -245788.865409 kJ/mol
# GULP energy per Si atom -5586.110577 kJ/mol
# Density = 2.199184 g / cm^3
# Si number density = 22.042005 Si / 1000 Ang^3
#
#
#
# Elastic Constant Matrix: (Units=GPa)
#
#
# Indices 1 2 3 4 5 6 
#
# 1 67.2427 10.3943 5.2484 0.0000 0.0000 0.0000
# 2 10.3943 67.2416 5.2486 0.0000 0.0000 0.0000
# 3 5.2484 5.2486 63.4032 0.0000 0.0000 0.0000
# 4 0.0000 0.0000 0.0000 20.3213 0.0000 0.0000
# 5 0.0000 0.0000 0.0000 0.0000 20.3213 0.0000
# 6 0.0000 0.0000 0.0000 0.0000 0.0000 29.7909
#
#
#
# Elastic Compliance Matrix: (Units=1/GPa)
#
#
# Indices 1 2 3 4 5 6 
#
# 1 0.015308 -0.002282 -0.001078 0.000000 0.000000 0.000000
# 2 -0.002282 0.015309 -0.001078 0.000000 0.000000 0.000000
# 3 -0.001078 -0.001078 0.015951 0.000000 0.000000 0.000000
# 4 0.000000 0.000000 0.000000 0.049210 0.000000 0.000000
# 5 0.000000 0.000000 0.000000 0.000000 0.049210 0.000000
# 6 0.000000 0.000000 0.000000 0.000000 0.000000 0.033567
#
#
# Mechanical properties :
#
#
# Convention : Reuss Voigt Hill
#
# Bulk Modulus (GPa) = 26.53222 26.63001 26.58112
# Shear Modulus (GPa) = 25.00059 25.88642 25.44351
#
# Velocity S-wave (km/s) = 3.37148 3.43069 3.40121
# Velocity P-wave (km/s) = 5.21719 5.27262 5.24498
#
# Compressibility (1/GPa) = 0.03769002
#
# Stress axis : x y z
#
# Youngs Moduli (GPa) = 65.32336 65.32231 62.69353
#
# Poissons Ratio (x) = 0.14908 0.06760
# Poissons Ratio (y) = 0.14908 0.06761
# Poissons Ratio (z) = 0.07044 0.07044
#
# Static dielectric constant tensor:
#      x y z
#    x 1.800520 0.000000 0.000000 
#    y 0.000000 1.800530 0.000000 
#    z 0.000000 0.000000 1.826800 
# 
# From -- ./inp_files/5260.got.cif
#   From: 2010.05.17/outbox.cif.g08.bks.cpg/sg120_3_cif.got.tgz:5260.got - 2010.05.20 11:28:13.
