data_PCOD9559686
_publ_section_title
;
Structure prediction by ZEFSAII (Michael W. Deem and Ramdas Pophale) SiO2 
 PCOD9559686
Probable space group: I -4 C 2
;
_chemical_formula_sum "Si O2"
_cell_formula_units_Z 64
_cell_length_a 15.205575
_cell_length_b 15.205575
_cell_length_c 16.087110
_cell_angle_alpha 90.000000
_cell_angle_beta 90.000000
_cell_angle_gamma 90.000000
_cell_volume 3719.492838
_symmetry_space_group_name_H-M "I -4 C 2"
_symmetry_group_IT_number 120
_symmetry_cell_setting 'tetragonal'
loop_
_space_group_symop_operation_xyz
x,y,z
y,-x,-z
-x,-y,z
-y,x,-z
y,x,1/2-z
-y,-x,1/2-z
-x,y,1/2+z
x,-y,1/2+z
1/2+x,1/2+y,1/2+z
1/2+y,1/2-x,1/2-z
1/2-x,1/2-y,1/2+z
1/2-y,1/2+x,1/2-z
1/2+y,1/2+x,-z
1/2-y,1/2-x,-z
1/2-x,1/2+y,z
1/2+x,1/2-y,z
loop_
_atom_site_type_symbol
_atom_site_label
_atom_site_fract_x
_atom_site_fract_y
_atom_site_fract_z
Si Si1 0.692961 0.112108 0.420794
Si Si2 0.492507 0.138590 0.727242
Si Si3 0.377173 0.725864 0.320782
Si Si4 0.869833 0.065343 0.515005
O O1 0.629621 0.129621 0.500000
O O2 0.683001 0.200128 0.365531
O O3 0.790318 0.095572 0.455358
O O4 0.663100 0.032439 0.361822
O O5 0.569521 0.087724 0.776903
O O6 0.457134 0.221827 0.777551
O O7 0.324183 0.675818 0.250000
O O8 0.411038 0.660792 0.392025
O O9 0.961326 0.113215 0.494280
#
# Coordination Sequence:
#
# PCOD9559686 Si02
#       4
#    16  16  16  16
#     4   9  19  36  56  79 107 139 175 218 270 321
#     4   9  18  34  54  79 107 135 175 223 266 317
#     4  10  20  35  56  80 106 138 178 222 267 320
#     4  10  21  37  53  75 109 143 178 219 262 319
#
# _framework density 17.206647
#
# number of rings (size 3 to 8) (size 9 to 14) (size 15 to 20)
#    0.000    2.500    0.000    1.500    0.000    4.000 
#    0.000   31.250    0.000    0.000    0.000    0.000 
#    0.000    0.000    0.000    0.000    0.000    0.000 
#
# Total GULP energy -178438.971092 kJ/mol
# GULP energy per Si atom -5576.217847 kJ/mol
# Density = 1.716748 g / cm^3
# Si number density = 17.206647 Si / 1000 Ang^3
#
#
#
# Elastic Constant Matrix: (Units=GPa)
#
#
# Indices 1 2 3 4 5 6 
#
# 1 96.0285 61.9003 86.4644 0.0000 0.0000 0.0000
# 2 61.9003 96.0261 86.4643 0.0000 0.0000 0.0000
# 3 86.4644 86.4643 161.5558 0.0000 0.0000 0.0000
# 4 0.0000 0.0000 0.0000 28.8422 0.0000 0.0000
# 5 0.0000 0.0000 0.0000 0.0000 28.8431 0.0000
# 6 0.0000 0.0000 0.0000 0.0000 0.0000 20.2083
#
#
#
# Elastic Compliance Matrix: (Units=1/GPa)
#
#
# Indices 1 2 3 4 5 6 
#
# 1 0.022299 -0.007003 -0.008186 0.000000 0.000000 0.000000
# 2 -0.007003 0.022300 -0.008187 0.000000 0.000000 0.000000
# 3 -0.008186 -0.008187 0.014953 0.000000 0.000000 0.000000
# 4 0.000000 0.000000 0.000000 0.034671 0.000000 0.000000
# 5 0.000000 0.000000 0.000000 0.000000 0.034670 0.000000
# 6 0.000000 0.000000 0.000000 0.000000 0.000000 0.049485
#
#
# Mechanical properties :
#
#
# Convention : Reuss Voigt Hill
#
# Bulk Modulus (GPa) = 78.13145 91.47425 84.80285
# Shear Modulus (GPa) = 21.79642 23.49747 22.64695
#
# Velocity S-wave (km/s) = 3.56300 3.69942 3.63185
# Velocity P-wave (km/s) = 7.90145 8.45725 8.18407
#
# Compressibility (1/GPa) = 0.01279894
#
# Stress axis : x y z
#
# Youngs Moduli (GPa) = 44.84574 44.84376 66.87841
#
# Poissons Ratio (x) = 0.31405 0.54748
# Poissons Ratio (y) = 0.31406 0.54751
# Poissons Ratio (z) = 0.36711 0.36712
#
# Static dielectric constant tensor:
#      x y z
#    x 1.571610 0.000000 0.000000 
#    y 0.000000 1.571610 0.000000 
#    z 0.000000 0.000000 1.566510 
# 
# From -- ./inp_files/3289.got.cif
#   From: 2010.05.17/outbox.cif.g08.bks.cpg/sg120_2_cif.got.tgz:3289.got - 2010.05.20 11:28:13.
