data_PCOD9559481
_publ_section_title
;
Structure prediction by ZEFSAII (Michael W. Deem and Ramdas Pophale) SiO2 
 PCOD9559481
Probable space group: I -4 M 2
;
_chemical_formula_sum "Si O2"
_cell_formula_units_Z 60
_cell_length_a 19.089278
_cell_length_b 19.089278
_cell_length_c 8.125568
_cell_angle_alpha 90.000000
_cell_angle_beta 90.000000
_cell_angle_gamma 90.000000
_cell_volume 2960.961323
_symmetry_space_group_name_H-M "I -4 M 2"
_symmetry_group_IT_number 119
_symmetry_cell_setting 'tetragonal'
loop_
_space_group_symop_operation_xyz
x,y,z
y,-x,-z
-x,-y,z
-y,x,-z
y,x,-z
-y,-x,-z
-x,y,z
x,-y,z
1/2+x,1/2+y,1/2+z
1/2+y,1/2-x,1/2-z
1/2-x,1/2-y,1/2+z
1/2-y,1/2+x,1/2-z
1/2+y,1/2+x,1/2-z
1/2-y,1/2-x,1/2-z
1/2-x,1/2+y,1/2+z
1/2+x,1/2-y,1/2+z
loop_
_atom_site_type_symbol
_atom_site_label
_atom_site_fract_x
_atom_site_fract_y
_atom_site_fract_z
Si Si1 0.500000 0.000000 0.250000
Si Si2 0.000000 0.145683 0.322447
Si Si3 0.000000 0.000000 0.500000
Si Si4 0.265824 0.620382 0.019677
Si Si5 0.755872 0.000000 0.256072
Si Si6 0.500000 0.616500 0.472504
Si Si7 0.369144 0.000000 0.998741
Si Si8 0.869496 0.369496 0.250000
O O1 0.500000 0.067236 0.370289
O O2 0.069564 0.177969 0.396476
O O3 0.000000 0.164678 0.132067
O O4 0.000000 0.065256 0.376165
O O5 0.200064 0.627783 0.139415
O O6 0.305344 0.694657 0.000000
O O7 0.245493 0.571918 0.861285
O O8 0.836032 0.000000 0.188697
O O9 0.701413 0.000000 0.106908
O O10 0.567107 0.567107 0.500000
O O11 0.372542 0.066565 0.878190
#
# Coordination Sequence:
#
# PCOD9559481 Si02
#       8
#     2   8   2  16   8   8   8   8
#     4  12  24  42  76  92 116 150 204 276 344 414
#     4  11  22  40  65 100 138 179 221 275 332 402
#     4  12  20  36  78 100 144 184 226 268 332 424
#     4  11  24  42  66  95 135 180 224 271 336 403
#     4  11  24  42  65  95 134 171 218 278 327 398
#     4  11  22  33  57  95 137 176 219 258 315 389
#     4  12  25  46  68  97 120 159 218 280 347 397
#     4  12  26  45  69  94 130 172 225 289 342 404
#
# _framework density 20.263688999999999
#
# number of rings (size 3 to 8) (size 9 to 14) (size 15 to 20)
#    0.000    0.667    1.333    8.000    3.733    2.133 
#    0.000    1.333    0.000    0.000    0.000    0.000 
#    0.000    0.000    0.000    0.000    0.000    0.000 
#
# Total GULP energy -167636.275097 kJ/mol
# GULP energy per Si atom -5587.875837 kJ/mol
# Density = 2.021757 g / cm^3
# Si number density = 20.263689 Si / 1000 Ang^3
#
#
#
# Elastic Constant Matrix: (Units=GPa)
#
#
# Indices 1 2 3 4 5 6 
#
# 1 156.2920 72.7682 77.8711 0.0000 0.0000 0.0000
# 2 72.7682 156.2883 77.8708 0.0000 0.0000 0.0000
# 3 77.8711 77.8708 149.7284 0.0000 0.0000 0.0000
# 4 0.0000 0.0000 0.0000 39.7226 0.0000 0.0000
# 5 0.0000 0.0000 0.0000 0.0000 39.7218 0.0000
# 6 0.0000 0.0000 0.0000 0.0000 0.0000 -82.6486
#
#
#
# Elastic Compliance Matrix: (Units=1/GPa)
#
#
# Indices 1 2 3 4 5 6 
#
# 1 0.009363 -0.002609 -0.003513 0.000000 0.000000 0.000000
# 2 -0.002609 0.009364 -0.003513 0.000000 0.000000 0.000000
# 3 -0.003513 -0.003513 0.010332 0.000000 0.000000 0.000000
# 4 0.000000 0.000000 0.000000 0.025175 0.000000 0.000000
# 5 0.000000 0.000000 0.000000 0.000000 0.025175 0.000000
# 6 0.000000 0.000000 0.000000 0.000000 0.000000 -0.012099
#
#
# Mechanical properties :
#
#
# Convention : Reuss Voigt Hill
#
# Bulk Modulus (GPa) = 102.14547 102.14765 102.14656
# Shear Modulus (GPa) = 55.65298 14.94573 35.29936
#
# Velocity S-wave (km/s) = 5.24633 2.71876 4.17826
# Velocity P-wave (km/s) = 9.33896 7.77008 8.59041
#
# Compressibility (1/GPa) = 0.00978996
#
# Stress axis : x y z
#
# Youngs Moduli (GPa) = 106.79967 106.79652 96.78223
#
# Poissons Ratio (x) = 0.27868 0.33996
# Poissons Ratio (y) = 0.27869 0.33997
# Poissons Ratio (z) = 0.37514 0.37514
#
# Static dielectric constant tensor:
#      x y z
#    x 1.701340 0.000000 0.000000 
#    y 0.000000 1.701340 0.000000 
#    z 0.000000 0.000000 1.747330 
# 
# From -- ./inp_files/2084.got.cif
#   From: 2010.05.17/outbox.cif.g08.bks.cpg/sg119_2_cif.got.tgz:2084.got - 2010.05.20 11:21:29.
