data_PCOD9559342
_publ_section_title
;
Structure prediction by ZEFSAII (Michael W. Deem and Ramdas Pophale) SiO2 
 PCOD9559342
Probable space group: I -4 M 2
;
_chemical_formula_sum "Si O2"
_cell_formula_units_Z 112
_cell_length_a 14.815252
_cell_length_b 14.815252
_cell_length_c 26.463198
_cell_angle_alpha 90.000000
_cell_angle_beta 90.000000
_cell_angle_gamma 90.000000
_cell_volume 5808.452100
_symmetry_space_group_name_H-M "I -4 M 2"
_symmetry_group_IT_number 119
_symmetry_cell_setting 'tetragonal'
loop_
_space_group_symop_operation_xyz
x,y,z
y,-x,-z
-x,-y,z
-y,x,-z
y,x,-z
-y,-x,-z
-x,y,z
x,-y,z
1/2+x,1/2+y,1/2+z
1/2+y,1/2-x,1/2-z
1/2-x,1/2-y,1/2+z
1/2-y,1/2+x,1/2-z
1/2+y,1/2+x,1/2-z
1/2-y,1/2-x,1/2-z
1/2-x,1/2+y,1/2+z
1/2+x,1/2-y,1/2+z
loop_
_atom_site_type_symbol
_atom_site_label
_atom_site_fract_x
_atom_site_fract_y
_atom_site_fract_z
Si Si1 0.101197 0.135286 0.059697
Si Si2 0.396736 0.397434 0.244288
Si Si3 0.207950 0.602141 0.596542
Si Si4 0.296535 0.107280 0.702300
Si Si5 0.392913 0.898747 0.496025
Si Si6 0.604169 0.839191 0.601136
Si Si7 0.392947 0.210992 0.293762
O O1 0.185179 0.094783 0.089270
O O2 0.102100 0.238590 0.078292
O O3 0.000000 0.101199 0.069204
O O4 0.121442 0.121442 0.000000
O O5 0.500000 0.388657 0.224109
O O6 0.388407 0.500000 0.264578
O O7 0.312297 0.384470 0.206698
O O8 0.385432 0.318466 0.285108
O O9 0.170402 0.500000 0.598162
O O10 0.167749 0.646276 0.546113
O O11 0.187013 0.643547 0.650775
O O12 0.341735 0.158266 0.750000
O O13 0.337081 0.147993 0.650987
O O14 0.317696 0.000000 0.704610
O O15 0.500000 0.876083 0.502233
O O16 0.357894 0.893731 0.553021
O O17 0.385808 0.000000 0.476507
O O18 0.500000 0.865872 0.612992
O O19 0.500000 0.189693 0.290938
O O20 0.340001 0.160000 0.250000
#
# Coordination Sequence:
#
# PCOD9559342 Si02
#       7
#    16  16  16  16  16  16  16
#     4  11  22  36  56  82 116 156 195 236 285 340
#     4   9  20  39  59  81 112 153 200 241 283 344
#     4  10  21  36  53  81 112 145 192 238 282 339
#     4  11  23  37  59  90 123 159 197 242 299 358
#     4   9  17  33  56  78 107 146 183 226 282 342
#     4  10  21  36  55  83 118 154 190 232 291 355
#     4  10  22  38  58  82 114 152 191 240 294 344
#
# _framework density 19.282245
#
# number of rings (size 3 to 8) (size 9 to 14) (size 15 to 20)
#    0.000    2.000    1.429    1.714    4.000    3.857 
#    0.000    2.857    0.000    0.000    0.000    0.000 
#    0.000    1.143    0.000    8.000    0.000    0.143 
#
# Total GULP energy -312122.575200 kJ/mol
# GULP energy per Si atom -5573.617414 kJ/mol
# Density = 1.923836 g / cm^3
# Si number density = 19.282245 Si / 1000 Ang^3
#
#
#
# Elastic Constant Matrix: (Units=GPa)
#
#
# Indices 1 2 3 4 5 6 
#
# 1 78.9127 24.1818 44.2781 0.0000 0.0000 0.0000
# 2 24.1818 78.9134 44.2776 0.0000 0.0000 0.0000
# 3 44.2781 44.2776 151.6352 0.0000 0.0000 0.0000
# 4 0.0000 0.0000 0.0000 18.1950 0.0000 0.0000
# 5 0.0000 0.0000 0.0000 0.0000 18.1950 0.0000
# 6 0.0000 0.0000 0.0000 0.0000 0.0000 20.4048
#
#
#
# Elastic Compliance Matrix: (Units=1/GPa)
#
#
# Indices 1 2 3 4 5 6 
#
# 1 0.015609 -0.002662 -0.003781 0.000000 0.000000 0.000000
# 2 -0.002662 0.015609 -0.003781 0.000000 0.000000 0.000000
# 3 -0.003781 -0.003781 0.008803 0.000000 0.000000 0.000000
# 4 0.000000 0.000000 0.000000 0.054960 0.000000 0.000000
# 5 0.000000 0.000000 0.000000 0.000000 0.054960 0.000000
# 6 0.000000 0.000000 0.000000 0.000000 0.000000 0.049008
#
#
# Mechanical properties :
#
#
# Convention : Reuss Voigt Hill
#
# Bulk Modulus (GPa) = 51.08639 59.43737 55.26188
# Shear Modulus (GPa) = 22.13166 24.47388 23.30277
#
# Velocity S-wave (km/s) = 3.39156 3.56651 3.48013
# Velocity P-wave (km/s) = 6.47212 6.91750 6.69852
#
# Compressibility (1/GPa) = 0.01957469
#
# Stress axis : x y z
#
# Youngs Moduli (GPa) = 64.06434 64.06535 113.60176
#
# Poissons Ratio (x) = 0.17054 0.42949
# Poissons Ratio (y) = 0.17053 0.42948
# Poissons Ratio (z) = 0.24221 0.24220
#
# Static dielectric constant tensor:
#      x y z
#    x 1.714350 0.000000 0.000000 
#    y 0.000000 1.714350 0.000000 
#    z 0.000000 0.000000 1.686080 
# 
# From -- ./inp_files/8847.got.cif
#   From: 2010.05.17/outbox.cif.g08.bks.cpg/sg119_5_cif.got.tgz:8847.got - 2010.05.20 11:21:29.
