data_PCOD9559296
_publ_section_title
;
Structure prediction by ZEFSAII (Michael W. Deem and Ramdas Pophale) SiO2 
 PCOD9559296
Probable space group: I -4 M 2
;
_chemical_formula_sum "Si O2"
_cell_formula_units_Z 40
_cell_length_a 17.853051
_cell_length_b 17.853051
_cell_length_c 5.491131
_cell_angle_alpha 90.000000
_cell_angle_beta 90.000000
_cell_angle_gamma 90.000000
_cell_volume 1750.196036
_symmetry_space_group_name_H-M "I -4 M 2"
_symmetry_group_IT_number 119
_symmetry_cell_setting 'tetragonal'
loop_
_space_group_symop_operation_xyz
x,y,z
y,-x,-z
-x,-y,z
-y,x,-z
y,x,-z
-y,-x,-z
-x,y,z
x,-y,z
1/2+x,1/2+y,1/2+z
1/2+y,1/2-x,1/2-z
1/2-x,1/2-y,1/2+z
1/2-y,1/2+x,1/2-z
1/2+y,1/2+x,1/2-z
1/2-y,1/2-x,1/2-z
1/2-x,1/2+y,1/2+z
1/2+x,1/2-y,1/2+z
loop_
_atom_site_type_symbol
_atom_site_label
_atom_site_fract_x
_atom_site_fract_y
_atom_site_fract_z
Si Si1 0.702850 0.412595 0.008312
Si Si2 0.090215 0.409786 0.250000
Si Si3 0.271255 0.849893 0.009793
O O1 0.707417 0.500000 0.995081
O O2 0.743326 0.380721 0.767064
O O3 0.619363 0.380638 0.000000
O O4 0.734694 0.386984 0.269728
O O5 0.101828 0.500000 0.221608
O O6 0.123153 0.357398 0.032725
O O7 0.234998 0.765003 0.000000
#
# Coordination Sequence:
#
# PCOD9559296 Si02
#       3
#    16   8  16
#     4  10  20  37  62  92 129 175 228 286 344 405
#     4  11  24  44  72 108 148 185 228 292 362 421
#     4  10  23  42  65  93 131 182 232 276 334 417
#
# _framework density 22.854583999999999
#
# number of rings (size 3 to 8) (size 9 to 14) (size 15 to 20)
#    0.000    1.800    0.000    3.600    0.000    6.800 
#    0.000    6.000    0.000   19.200    0.000    0.000 
#    0.000   16.800    0.000    0.000    0.000    0.000 
#
# Total GULP energy -111513.488920 kJ/mol
# GULP energy per Si atom -5575.674446 kJ/mol
# Density = 2.280257 g / cm^3
# Si number density = 22.854584 Si / 1000 Ang^3
#
#
#
# Elastic Constant Matrix: (Units=GPa)
#
#
# Indices 1 2 3 4 5 6 
#
# 1 186.7513 92.4254 73.7367 0.0000 0.0000 0.0000
# 2 92.4254 186.7448 73.7332 0.0000 0.0000 0.0000
# 3 73.7367 73.7332 211.7509 0.0000 0.0000 0.0000
# 4 0.0000 0.0000 0.0000 33.8024 0.0000 0.0000
# 5 0.0000 0.0000 0.0000 0.0000 33.8033 0.0000
# 6 0.0000 0.0000 0.0000 0.0000 0.0000 29.5063
#
#
#
# Elastic Compliance Matrix: (Units=1/GPa)
#
#
# Indices 1 2 3 4 5 6 
#
# 1 0.007496 -0.003106 -0.001529 0.000000 0.000000 0.000000
# 2 -0.003106 0.007496 -0.001528 0.000000 0.000000 0.000000
# 3 -0.001529 -0.001528 0.005787 0.000000 0.000000 0.000000
# 4 0.000000 0.000000 0.000000 0.029584 0.000000 0.000000
# 5 0.000000 0.000000 0.000000 0.000000 0.029583 0.000000
# 6 0.000000 0.000000 0.000000 0.000000 0.000000 0.033891
#
#
# Mechanical properties :
#
#
# Convention : Reuss Voigt Hill
#
# Bulk Modulus (GPa) = 118.31580 118.33752 118.32666
# Shear Modulus (GPa) = 38.76581 42.44584 40.60582
#
# Velocity S-wave (km/s) = 4.12296 4.31422 4.21967
# Velocity P-wave (km/s) = 8.63402 8.75828 8.69637
#
# Compressibility (1/GPa) = 0.00845196
#
# Stress axis : x y z
#
# Youngs Moduli (GPa) = 133.41239 133.40905 172.80138
#
# Poissons Ratio (x) = 0.41440 0.26413
# Poissons Ratio (y) = 0.41441 0.26411
# Poissons Ratio (z) = 0.20392 0.20390
#
# Static dielectric constant tensor:
#      x y z
#    x 1.877530 0.000000 0.000000 
#    y 0.000000 1.877520 0.000000 
#    z 0.000000 0.000000 1.827500 
# 
# From -- ./inp_files/258.got.cif
#   From: 2010.05.17/outbox.cif.g08.bks.cpg/sg119_1_cif.got.tgz:258.got - 2010.05.20 11:21:29.
