data_PCOD9559583
_publ_section_title
;
Structure prediction by ZEFSAII (Michael W. Deem and Ramdas Pophale) SiO2 
 PCOD9559583
Probable space group: I -4 C 2
;
_chemical_formula_sum "Si O2"
_cell_formula_units_Z 72
_cell_length_a 20.154797
_cell_length_b 20.154797
_cell_length_c 9.041566
_cell_angle_alpha 90.000000
_cell_angle_beta 90.000000
_cell_angle_gamma 90.000000
_cell_volume 3672.827347
_symmetry_space_group_name_H-M "I -4 C 2"
_symmetry_group_IT_number 120
_symmetry_cell_setting 'tetragonal'
loop_
_space_group_symop_operation_xyz
x,y,z
y,-x,-z
-x,-y,z
-y,x,-z
y,x,1/2-z
-y,-x,1/2-z
-x,y,1/2+z
x,-y,1/2+z
1/2+x,1/2+y,1/2+z
1/2+y,1/2-x,1/2-z
1/2-x,1/2-y,1/2+z
1/2-y,1/2+x,1/2-z
1/2+y,1/2+x,-z
1/2-y,1/2-x,-z
1/2-x,1/2+y,z
1/2+x,1/2-y,z
loop_
_atom_site_type_symbol
_atom_site_label
_atom_site_fract_x
_atom_site_fract_y
_atom_site_fract_z
Si Si1 0.034163 0.745131 0.812005
Si Si2 0.776376 0.087389 0.015509
Si Si3 0.400312 0.026795 0.256455
Si Si4 0.222113 0.821585 0.584695
Si Si5 0.866023 0.633977 0.000000
O O1 0.052364 0.764477 0.643960
O O2 0.012272 0.667802 0.827423
O O3 0.103465 0.752104 0.898445
O O4 0.972814 0.787920 0.872596
O O5 0.824429 0.149833 0.993684
O O6 0.707794 0.124394 0.059237
O O7 0.460436 0.066255 0.178614
O O8 0.378160 0.078459 0.379276
O O9 0.207988 0.792013 0.750000
O O10 0.274409 0.774409 0.500000
#
# Coordination Sequence:
#
# PCOD9559583 Si02
#       5
#    16  16  16  16   8
#     4  10  22  37  57  83 110 157 198 242 295 359
#     4  10  20  39  57  80 117 147 192 245 298 345
#     4  10  20  32  47  76 115 154 194 228 277 350
#     4  10  22  38  60  87 117 154 201 252 304 357
#     4  10  18  33  50  68 106 156 178 227 278 328
#
# _framework density 19.603425999999999
#
# number of rings (size 3 to 8) (size 9 to 14) (size 15 to 20)
#    0.000    2.000    3.333    0.000    0.000    7.111 
#    0.000    0.000    0.000    0.667    0.000    4.667 
#    0.000    0.000    0.000    0.000    0.000    0.000 
#
# Total GULP energy -200695.367544 kJ/mol
# GULP energy per Si atom -5574.871321 kJ/mol
# Density = 1.955881 g / cm^3
# Si number density = 19.603426 Si / 1000 Ang^3
#
#
#
# Elastic Constant Matrix: (Units=GPa)
#
#
# Indices 1 2 3 4 5 6 
#
# 1 48.9856 18.7216 10.9631 0.0000 0.0000 0.0000
# 2 18.7216 48.9843 10.9626 0.0000 0.0000 0.0000
# 3 10.9631 10.9626 22.7207 0.0000 0.0000 0.0000
# 4 0.0000 0.0000 0.0000 18.3178 0.0000 0.0000
# 5 0.0000 0.0000 0.0000 0.0000 18.3191 0.0000
# 6 0.0000 0.0000 0.0000 0.0000 0.0000 31.0387
#
#
#
# Elastic Compliance Matrix: (Units=1/GPa)
#
#
# Indices 1 2 3 4 5 6 
#
# 1 0.025274 -0.007769 -0.008446 0.000000 0.000000 0.000000
# 2 -0.007769 0.025274 -0.008446 0.000000 0.000000 0.000000
# 3 -0.008446 -0.008446 0.052163 0.000000 0.000000 0.000000
# 4 0.000000 0.000000 0.000000 0.054592 0.000000 0.000000
# 5 0.000000 0.000000 0.000000 0.000000 0.054588 0.000000
# 6 0.000000 0.000000 0.000000 0.000000 0.000000 0.032218
#
#
# Mechanical properties :
#
#
# Convention : Reuss Voigt Hill
#
# Bulk Modulus (GPa) = 18.73069 22.44281 20.58675
# Shear Modulus (GPa) = 16.06540 18.87135 17.46838
#
# Velocity S-wave (km/s) = 2.86583 3.10604 2.98835
# Velocity P-wave (km/s) = 4.53059 4.93321 4.73618
#
# Compressibility (1/GPa) = 0.05338832
#
# Stress axis : x y z
#
# Youngs Moduli (GPa) = 39.56673 39.56604 19.17056
#
# Poissons Ratio (x) = 0.30740 0.16192
# Poissons Ratio (y) = 0.30740 0.16191
# Poissons Ratio (z) = 0.33420 0.33417
#
# Static dielectric constant tensor:
#      x y z
#    x 1.751090 0.000000 0.000000 
#    y 0.000000 1.751090 0.000000 
#    z 0.000000 0.000000 1.752670 
# 
# From -- ./inp_files/1325.got.cif
#   From: 2010.05.17/outbox.cif.g08.bks.cpg/sg120_1_cif.got.tgz:1325.got - 2010.05.20 11:28:13.
