data_PCOD9559801
_publ_section_title
;
Structure prediction by ZEFSAII (Michael W. Deem and Ramdas Pophale) SiO2 
 PCOD9559801
Probable space group: I -4 C 2
;
_chemical_formula_sum "Si O2"
_cell_formula_units_Z 112
_cell_length_a 14.100287
_cell_length_b 14.100287
_cell_length_c 25.870854
_cell_angle_alpha 90.000000
_cell_angle_beta 90.000000
_cell_angle_gamma 90.000000
_cell_volume 5143.593869
_symmetry_space_group_name_H-M "I -4 C 2"
_symmetry_group_IT_number 120
_symmetry_cell_setting 'tetragonal'
loop_
_space_group_symop_operation_xyz
x,y,z
y,-x,-z
-x,-y,z
-y,x,-z
y,x,1/2-z
-y,-x,1/2-z
-x,y,1/2+z
x,-y,1/2+z
1/2+x,1/2+y,1/2+z
1/2+y,1/2-x,1/2-z
1/2-x,1/2-y,1/2+z
1/2-y,1/2+x,1/2-z
1/2+y,1/2+x,-z
1/2-y,1/2-x,-z
1/2-x,1/2+y,z
1/2+x,1/2-y,z
loop_
_atom_site_type_symbol
_atom_site_label
_atom_site_fract_x
_atom_site_fract_y
_atom_site_fract_z
Si Si1 0.345559 0.629956 0.615599
Si Si2 0.587921 0.324282 0.395783
Si Si3 0.365567 0.174745 0.154214
Si Si4 0.405992 0.121771 0.740773
Si Si5 0.208826 0.634133 0.369137
Si Si6 0.492613 0.108244 0.069366
Si Si7 0.227770 0.876616 0.489157
O O1 0.351055 0.516914 0.625092
O O2 0.399365 0.716906 0.644340
O O3 0.241483 0.670049 0.629373
O O4 0.368775 0.650314 0.555646
O O5 0.628949 0.223846 0.375635
O O6 0.679650 0.385531 0.379547
O O7 0.582882 0.312897 0.457724
O O8 0.342689 0.161990 0.213920
O O9 0.446016 0.111349 0.126861
O O10 0.511420 0.121754 0.765054
O O11 0.400274 0.178867 0.687922
O O12 0.153802 0.592629 0.418458
O O13 0.436031 0.182557 0.033699
O O14 0.500000 0.000000 0.053084
O O15 0.273374 0.773374 0.500000
#
# Coordination Sequence:
#
# PCOD9559801 Si02
#       7
#    16  16  16  16  16  16  16
#     4  10  23  41  62  84 134 186 220 288 339 403
#     4  11  23  42  62  89 134 184 234 276 344 419
#     4  10  21  41  61  93 140 164 220 284 349 411
#     4  11  21  36  67 102 139 175 217 286 366 426
#     4  11  23  38  65 100 130 177 229 281 348 429
#     4  11  21  38  62  97 136 170 219 293 355 412
#     4  11  22  41  59  92 136 181 227 289 347 419
#
# _framework density 21.774657000000001
#
# number of rings (size 3 to 8) (size 9 to 14) (size 15 to 20)
#    0.000    1.286    5.714    2.571    2.000    2.571 
#    0.000    2.857    0.000    0.000    0.000    0.000 
#    0.000    0.000    0.000    0.000    0.000    0.000 
#
# Total GULP energy -311912.292862 kJ/mol
# GULP energy per Si atom -5569.862373 kJ/mol
# Density = 2.172510 g / cm^3
# Si number density = 21.774657 Si / 1000 Ang^3
#
#
#
# Elastic Constant Matrix: (Units=GPa)
#
#
# Indices 1 2 3 4 5 6 
#
# 1 120.4865 20.6923 41.3530 0.0000 0.0000 0.0000
# 2 20.6923 120.4865 41.3530 0.0000 0.0000 0.0000
# 3 41.3530 41.3530 133.5037 0.0000 0.0000 0.0000
# 4 0.0000 0.0000 0.0000 9.2075 0.0000 0.0000
# 5 0.0000 0.0000 0.0000 0.0000 9.2075 0.0000
# 6 0.0000 0.0000 0.0000 0.0000 0.0000 13.3305
#
#
#
# Elastic Compliance Matrix: (Units=1/GPa)
#
#
# Indices 1 2 3 4 5 6 
#
# 1 0.009337 -0.000684 -0.002680 0.000000 0.000000 0.000000
# 2 -0.000684 0.009337 -0.002680 0.000000 0.000000 0.000000
# 3 -0.002680 -0.002680 0.009151 0.000000 0.000000 0.000000
# 4 0.000000 0.000000 0.000000 0.108607 0.000000 0.000000
# 5 0.000000 0.000000 0.000000 0.000000 0.108607 0.000000
# 6 0.000000 0.000000 0.000000 0.000000 0.000000 0.075016
#
#
# Mechanical properties :
#
#
# Convention : Reuss Voigt Hill
#
# Bulk Modulus (GPa) = 63.54778 64.58596 64.06687
# Shear Modulus (GPa) = 14.81972 24.42102 19.62037
#
# Velocity S-wave (km/s) = 2.61165 3.35256 3.00503
# Velocity P-wave (km/s) = 6.19209 6.68668 6.44413
#
# Compressibility (1/GPa) = 0.01573619
#
# Stress axis : x y z
#
# Youngs Moduli (GPa) = 107.10023 107.10023 109.27808
#
# Poissons Ratio (x) = 0.07321 0.29291
# Poissons Ratio (y) = 0.07321 0.29291
# Poissons Ratio (z) = 0.28707 0.28707
#
# Static dielectric constant tensor:
#      x y z
#    x 1.909160 0.000000 0.000000 
#    y 0.000000 1.909160 0.000000 
#    z 0.000000 0.000000 1.806040 
# 
# From -- ./inp_files/6268.got.cif
#   From: 2010.05.17/outbox.cif.g08.bks.cpg/sg120_4_cif.got.tgz:6268.got - 2010.05.20 11:28:13.
