data_PCOD9559492
_publ_section_title
;
Structure prediction by ZEFSAII (Michael W. Deem and Ramdas Pophale) SiO2 
 PCOD9559492
Probable space group: I -4 M 2
;
_chemical_formula_sum "Si O2"
_cell_formula_units_Z 40
_cell_length_a 20.899793
_cell_length_b 20.899793
_cell_length_c 4.909253
_cell_angle_alpha 90.000000
_cell_angle_beta 90.000000
_cell_angle_gamma 90.000000
_cell_volume 2144.368325
_symmetry_space_group_name_H-M "I -4 M 2"
_symmetry_group_IT_number 119
_symmetry_cell_setting 'tetragonal'
loop_
_space_group_symop_operation_xyz
x,y,z
y,-x,-z
-x,-y,z
-y,x,-z
y,x,-z
-y,-x,-z
-x,y,z
x,-y,z
1/2+x,1/2+y,1/2+z
1/2+y,1/2-x,1/2-z
1/2-x,1/2-y,1/2+z
1/2-y,1/2+x,1/2-z
1/2+y,1/2+x,1/2-z
1/2-y,1/2-x,1/2-z
1/2-x,1/2+y,1/2+z
1/2+x,1/2-y,1/2+z
loop_
_atom_site_type_symbol
_atom_site_label
_atom_site_fract_x
_atom_site_fract_y
_atom_site_fract_z
Si Si1 0.847376 0.752155 0.380095
Si Si2 0.071454 0.571454 0.750000
Si Si3 0.426453 0.790744 0.395776
O O1 0.816493 0.816493 0.500000
O O2 0.789681 0.710320 0.250000
O O3 0.882488 0.719567 0.633257
O O4 0.898589 0.751987 0.137926
O O5 0.075989 0.500000 0.876214
O O6 0.132574 0.575632 0.550339
O O7 0.500000 0.774537 0.338748
#
# Coordination Sequence:
#
# PCOD9559492 Si02
#       3
#    16   8  16
#     4  12  22  38  57  82 114 154 197 240 301 358
#     4   9  18  34  54  78 116 164 206 242 278 325
#     4  11  22  38  57  83 116 152 202 247 290 344
#
# _framework density 18.653510000000001
#
# number of rings (size 3 to 8) (size 9 to 14) (size 15 to 20)
#    0.000    1.000    4.000    4.800    0.000    0.000 
#    0.000    2.000    0.000    9.600    0.000    0.000 
#    0.000   56.000    0.000    0.000    0.000    0.000 
#
# Total GULP energy -111557.798297 kJ/mol
# GULP energy per Si atom -5577.889915 kJ/mol
# Density = 1.861105 g / cm^3
# Si number density = 18.653510 Si / 1000 Ang^3
#
#
#
# Elastic Constant Matrix: (Units=GPa)
#
#
# Indices 1 2 3 4 5 6 
#
# 1 71.7700 62.3282 35.9877 0.0000 0.0000 0.0000
# 2 62.3282 71.7656 35.9863 0.0000 0.0000 0.0000
# 3 35.9877 35.9863 111.5593 0.0000 0.0000 0.0000
# 4 0.0000 0.0000 0.0000 73.9970 0.0000 0.0000
# 5 0.0000 0.0000 0.0000 0.0000 74.0106 0.0000
# 6 0.0000 0.0000 0.0000 0.0000 0.0000 22.1556
#
#
#
# Elastic Compliance Matrix: (Units=1/GPa)
#
#
# Indices 1 2 3 4 5 6 
#
# 1 0.057476 -0.048459 -0.002909 0.000000 0.000000 0.000000
# 2 -0.048459 0.057480 -0.002909 0.000000 0.000000 0.000000
# 3 -0.002909 -0.002909 0.010841 0.000000 0.000000 0.000000
# 4 0.000000 0.000000 0.000000 0.013514 0.000000 0.000000
# 5 0.000000 0.000000 0.000000 0.000000 0.013512 0.000000
# 6 0.000000 0.000000 0.000000 0.000000 0.000000 0.045135
#
#
# Mechanical properties :
#
#
# Convention : Reuss Voigt Hill
#
# Bulk Modulus (GPa) = 58.00029 58.18880 58.09454
# Shear Modulus (GPa) = 16.01226 42.08550 29.04888
#
# Velocity S-wave (km/s) = 2.93303 4.75507 3.95053
# Velocity P-wave (km/s) = 6.52926 7.83644 7.21253
#
# Compressibility (1/GPa) = 0.01724129
#
# Stress axis : x y z
#
# Youngs Moduli (GPa) = 17.39843 17.39743 92.24384
#
# Poissons Ratio (x) = 0.84307 0.26838
# Poissons Ratio (y) = 0.84311 0.26835
# Poissons Ratio (z) = 0.05062 0.05061
#
# Static dielectric constant tensor:
#      x y z
#    x 1.638020 0.000000 0.000000 
#    y 0.000000 1.638030 0.000000 
#    z 0.000000 0.000000 1.681390 
# 
# From -- ./inp_files/365.got.cif
#   From: 2010.05.17/outbox.cif.g08.bks.cpg/sg119_1_cif.got.tgz:365.got - 2010.05.20 11:21:29.
