data_PCOD9559472
_publ_section_title
;
Structure prediction by ZEFSAII (Michael W. Deem and Ramdas Pophale) SiO2 
 PCOD9559472
Probable space group: I -4 M 2
;
_chemical_formula_sum "Si O2"
_cell_formula_units_Z 96
_cell_length_a 24.044992
_cell_length_b 24.044992
_cell_length_c 9.511864
_cell_angle_alpha 90.000000
_cell_angle_beta 90.000000
_cell_angle_gamma 90.000000
_cell_volume 5499.394892
_symmetry_space_group_name_H-M "I -4 M 2"
_symmetry_group_IT_number 119
_symmetry_cell_setting 'tetragonal'
loop_
_space_group_symop_operation_xyz
x,y,z
y,-x,-z
-x,-y,z
-y,x,-z
y,x,-z
-y,-x,-z
-x,y,z
x,-y,z
1/2+x,1/2+y,1/2+z
1/2+y,1/2-x,1/2-z
1/2-x,1/2-y,1/2+z
1/2-y,1/2+x,1/2-z
1/2+y,1/2+x,1/2-z
1/2-y,1/2-x,1/2-z
1/2-x,1/2+y,1/2+z
1/2+x,1/2-y,1/2+z
loop_
_atom_site_type_symbol
_atom_site_label
_atom_site_fract_x
_atom_site_fract_y
_atom_site_fract_z
Si Si1 0.063992 0.885139 0.375654
Si Si2 0.065441 0.342937 0.571253
Si Si3 0.261965 0.433027 0.115182
Si Si4 0.377085 0.564751 0.612892
Si Si5 0.268300 0.432623 0.438162
Si Si6 0.655125 0.935158 0.093468
O O1 0.071179 0.928822 0.500000
O O2 0.077957 0.824319 0.438668
O O3 0.104618 0.901220 0.249283
O O4 0.000000 0.883207 0.324278
O O5 0.085345 0.289460 0.481479
O O6 0.069184 0.333593 0.739303
O O7 0.104439 0.396122 0.547163
O O8 0.000000 0.353395 0.539623
O O9 0.256059 0.500000 0.119185
O O10 0.264029 0.412976 0.276988
O O11 0.425949 0.574052 0.500000
O O12 0.370425 0.500000 0.650143
O O13 0.321538 0.584572 0.530823
O O14 0.272540 0.500000 0.431990
O O15 0.211276 0.418474 0.515073
O O16 0.643060 0.000000 0.063331
#
# Coordination Sequence:
#
# PCOD9559472 Si02
#       6
#    16  16  16  16  16  16
#     4  11  23  36  51  77 109 141 176 220 274 329
#     4   9  18  32  53  81 111 142 173 213 264 316
#     4   9  18  34  52  73 103 139 180 216 255 312
#     4  11  21  34  53  77 105 140 179 222 271 321
#     4   9  18  33  52  75 102 137 181 218 252 307
#     4   9  18  32  53  82 110 139 176 216 260 314
#
# _framework density 17.456465000000001
#
# number of rings (size 3 to 8) (size 9 to 14) (size 15 to 20)
#    0.000    2.333    1.667    1.000    2.333    3.000 
#    0.000    1.667    0.000    1.000    0.000    4.667 
#    0.000    0.000    0.000    0.000    0.000    0.000 
#
# Total GULP energy -267333.871737 kJ/mol
# GULP energy per Si atom -5569.455661 kJ/mol
# Density = 1.741673 g / cm^3
# Si number density = 17.456465 Si / 1000 Ang^3
#
#
#
# Elastic Constant Matrix: (Units=GPa)
#
#
# Indices 1 2 3 4 5 6 
#
# 1 81.0687 50.3736 38.2465 0.0000 0.0000 0.0000
# 2 50.3736 81.0681 38.2458 0.0000 0.0000 0.0000
# 3 38.2465 38.2458 60.6956 0.0000 0.0000 0.0000
# 4 0.0000 0.0000 0.0000 29.2161 0.0000 0.0000
# 5 0.0000 0.0000 0.0000 0.0000 29.2160 0.0000
# 6 0.0000 0.0000 0.0000 0.0000 0.0000 5.7945
#
#
#
# Elastic Compliance Matrix: (Units=1/GPa)
#
#
# Indices 1 2 3 4 5 6 
#
# 1 0.022296 -0.010283 -0.007570 0.000000 0.000000 0.000000
# 2 -0.010283 0.022296 -0.007570 0.000000 0.000000 0.000000
# 3 -0.007570 -0.007570 0.026016 0.000000 0.000000 0.000000
# 4 0.000000 0.000000 0.000000 0.034228 0.000000 0.000000
# 5 0.000000 0.000000 0.000000 0.000000 0.034228 0.000000
# 6 0.000000 0.000000 0.000000 0.000000 0.000000 0.172576
#
#
# Mechanical properties :
#
#
# Convention : Reuss Voigt Hill
#
# Bulk Modulus (GPa) = 50.60075 52.95157 51.77616
# Shear Modulus (GPa) = 13.54749 19.24310 16.39530
#
# Velocity S-wave (km/s) = 2.78883 3.32376 3.06798
# Velocity P-wave (km/s) = 6.27852 6.71783 6.50189
#
# Compressibility (1/GPa) = 0.01976255
#
# Stress axis : x y z
#
# Youngs Moduli (GPa) = 44.85104 44.85123 38.43841
#
# Poissons Ratio (x) = 0.46120 0.29098
# Poissons Ratio (y) = 0.46119 0.29097
# Poissons Ratio (z) = 0.33953 0.33951
#
# Static dielectric constant tensor:
#      x y z
#    x 1.594280 0.000000 0.000000 
#    y 0.000000 1.594280 0.000000 
#    z 0.000000 0.000000 1.618630 
# 
# From -- ./inp_files/2699.got.cif
#   From: 2010.05.17/outbox.cif.g08.bks.cpg/sg119_2_cif.got.tgz:2699.got - 2010.05.20 11:21:29.
