data_PCOD9559438
_publ_section_title
;
Structure prediction by ZEFSAII (Michael W. Deem and Ramdas Pophale) SiO2 
 PCOD9559438
Probable space group: I -4 M 2
;
_chemical_formula_sum "Si O2"
_cell_formula_units_Z 42
_cell_length_a 7.500107
_cell_length_b 7.500107
_cell_length_c 34.994737
_cell_angle_alpha 90.000000
_cell_angle_beta 90.000000
_cell_angle_gamma 90.000000
_cell_volume 1968.510123
_symmetry_space_group_name_H-M "I -4 M 2"
_symmetry_group_IT_number 119
_symmetry_cell_setting 'tetragonal'
loop_
_space_group_symop_operation_xyz
x,y,z
y,-x,-z
-x,-y,z
-y,x,-z
y,x,-z
-y,-x,-z
-x,y,z
x,-y,z
1/2+x,1/2+y,1/2+z
1/2+y,1/2-x,1/2-z
1/2-x,1/2-y,1/2+z
1/2-y,1/2+x,1/2-z
1/2+y,1/2+x,1/2-z
1/2-y,1/2-x,1/2-z
1/2-x,1/2+y,1/2+z
1/2+x,1/2-y,1/2+z
loop_
_atom_site_type_symbol
_atom_site_label
_atom_site_fract_x
_atom_site_fract_y
_atom_site_fract_z
Si Si1 0.214319 0.205119 0.040564
Si Si2 0.716851 0.500000 0.184076
Si Si3 0.287569 0.797810 0.124268
Si Si4 0.000000 0.500000 0.250000
O O1 0.252963 0.282553 0.082095
O O2 0.000000 0.201522 0.036782
O O3 0.279814 0.000000 0.043263
O O4 0.280907 0.280907 0.000000
O O5 0.500000 0.500000 0.189037
O O6 0.770609 0.329502 0.158342
O O7 0.826195 0.500000 0.223002
O O8 0.500000 0.809769 0.127629
O O9 0.213860 0.000000 0.126041
#
# Coordination Sequence:
#
# PCOD9559438 Si02
#       4
#    16   8  16   2
#     4   8  14  26  46  75 111 151 197 241 278 332
#     4  10  24  44  62  90 124 146 190 258 294 364
#     4   9  18  35  58  81 114 158 195 233 296 353
#     4  12  28  44  68  96 116 148 204 244 316 384
#
# _framework density 21.335934000000002
#
# number of rings (size 3 to 8) (size 9 to 14) (size 15 to 20)
#    0.000    3.048    0.000    1.143    2.667    1.524 
#    3.429    0.000    0.000    0.000    0.000    0.000 
#    0.000    0.000    0.000    0.000    0.000    0.000 
#
# Total GULP energy -117066.735432 kJ/mol
# GULP energy per Si atom -5574.606449 kJ/mol
# Density = 2.128737 g / cm^3
# Si number density = 21.335934 Si / 1000 Ang^3
#
#
#
# Elastic Constant Matrix: (Units=GPa)
#
#
# Indices 1 2 3 4 5 6 
#
# 1 83.8839 20.6622 57.4233 0.0000 0.0000 0.0000
# 2 20.6622 83.8839 57.4233 0.0000 0.0000 0.0000
# 3 57.4233 57.4233 218.6823 0.0000 0.0000 0.0000
# 4 0.0000 0.0000 0.0000 49.9658 0.0000 0.0000
# 5 0.0000 0.0000 0.0000 0.0000 49.9658 0.0000
# 6 0.0000 0.0000 0.0000 0.0000 0.0000 2.1073
#
#
#
# Elastic Compliance Matrix: (Units=1/GPa)
#
#
# Indices 1 2 3 4 5 6 
#
# 1 0.014630 -0.001187 -0.003530 0.000000 0.000000 0.000000
# 2 -0.001187 0.014630 -0.003530 0.000000 0.000000 0.000000
# 3 -0.003530 -0.003530 0.006427 0.000000 0.000000 0.000000
# 4 0.000000 0.000000 0.000000 0.020014 0.000000 0.000000
# 5 0.000000 0.000000 0.000000 0.000000 0.020014 0.000000
# 6 0.000000 0.000000 0.000000 0.000000 0.000000 0.474533
#
#
# Mechanical properties :
#
#
# Convention : Reuss Voigt Hill
#
# Bulk Modulus (GPa) = 52.10314 73.05199 62.57757
# Shear Modulus (GPa) = 8.72389 37.13722 22.93056
#
# Velocity S-wave (km/s) = 2.02428 4.17657 3.28188
# Velocity P-wave (km/s) = 5.47147 7.58759 6.61470
#
# Compressibility (1/GPa) = 0.01919270
#
# Stress axis : x y z
#
# Youngs Moduli (GPa) = 68.35215 68.35216 155.60119
#
# Poissons Ratio (x) = 0.08115 0.54926
# Poissons Ratio (y) = 0.08115 0.54926
# Poissons Ratio (z) = 0.24128 0.24128
#
# Static dielectric constant tensor:
#      x y z
#    x 1.803980 0.000000 0.000000 
#    y 0.000000 1.803980 0.000000 
#    z 0.000000 0.000000 1.770350 
# 
# From -- ./inp_files/9790.got.cif
#   From: 2010.05.17/outbox.cif.g08.bks.cpg/sg119_5_cif.got.tgz:9790.got - 2010.05.20 11:21:29.
