data_PCOD9559985
_publ_section_title
;
Structure prediction by ZEFSAII (Michael W. Deem and Ramdas Pophale) SiO2 
 PCOD9559985
Probable space group: I -4 C 2
;
_chemical_formula_sum "Si O2"
_cell_formula_units_Z 96
_cell_length_a 21.425209
_cell_length_b 21.425209
_cell_length_c 9.288168
_cell_angle_alpha 90.000000
_cell_angle_beta 90.000000
_cell_angle_gamma 90.000000
_cell_volume 4263.636744
_symmetry_space_group_name_H-M "I -4 C 2"
_symmetry_group_IT_number 120
_symmetry_cell_setting 'tetragonal'
loop_
_space_group_symop_operation_xyz
x,y,z
y,-x,-z
-x,-y,z
-y,x,-z
y,x,1/2-z
-y,-x,1/2-z
-x,y,1/2+z
x,-y,1/2+z
1/2+x,1/2+y,1/2+z
1/2+y,1/2-x,1/2-z
1/2-x,1/2-y,1/2+z
1/2-y,1/2+x,1/2-z
1/2+y,1/2+x,-z
1/2-y,1/2-x,-z
1/2-x,1/2+y,z
1/2+x,1/2-y,z
loop_
_atom_site_type_symbol
_atom_site_label
_atom_site_fract_x
_atom_site_fract_y
_atom_site_fract_z
Si Si1 0.302875 0.197126 0.000000
Si Si2 0.437936 0.187639 0.130300
Si Si3 0.701288 0.298713 0.250000
Si Si4 0.856046 0.083354 0.064444
Si Si5 0.735467 0.867773 0.468868
Si Si6 0.666330 0.531113 0.366540
Si Si7 0.133428 0.461944 0.052247
O O1 0.303298 0.134324 0.906386
O O2 0.296196 0.251605 0.883654
O O3 0.464453 0.258448 0.134059
O O4 0.450538 0.151295 0.280790
O O5 0.468736 0.147105 0.001782
O O6 0.638156 0.276879 0.174497
O O7 0.910221 0.134482 0.050495
O O8 0.860339 0.041291 0.207123
O O9 0.789375 0.118721 0.084094
O O10 0.853451 0.033726 0.936772
O O11 0.691318 0.808683 0.500000
O O12 0.685921 0.922863 0.465047
O O13 0.068155 0.431846 0.000000
#
# Coordination Sequence:
#
# PCOD9559985 Si02
#       7
#     8  16   8  16  16  16  16
#     4  12  28  42  73 110 148 200 245 312 380 464
#     4  12  25  47  77 106 146 195 250 304 393 446
#     4  12  26  40  70 106 154 187 243 302 390 446
#     4  11  25  44  68  97 141 182 244 293 368 430
#     4  11  22  41  66 101 142 185 228 302 368 437
#     4  11  24  44  69 100 136 188 231 305 354 451
#     4  11  26  47  76 104 152 191 250 308 371 457
#
# _framework density 22.515989000000001
#
# number of rings (size 3 to 8) (size 9 to 14) (size 15 to 20)
#    0.000    0.667    4.167    3.000    4.667    3.667 
#    0.000    2.083    0.000    0.000    0.000    0.000 
#    0.000    0.000    0.000    0.000    0.000    0.000 
#
# Total GULP energy -268006.620484 kJ/mol
# GULP energy per Si atom -5583.471260 kJ/mol
# Density = 2.246474 g / cm^3
# Si number density = 22.515989 Si / 1000 Ang^3
#
#
#
# Elastic Constant Matrix: (Units=GPa)
#
#
# Indices 1 2 3 4 5 6 
#
# 1 -229.7480 318.7522 8.0007 0.0000 0.0000 0.0000
# 2 318.7522 -229.7660 7.9270 0.0000 0.0000 0.0000
# 3 8.0007 7.9270 85.1262 0.0000 0.0000 0.0000
# 4 0.0000 0.0000 0.0000 33.9701 0.0000 0.0000
# 5 0.0000 0.0000 0.0000 0.0000 33.9721 0.0000
# 6 0.0000 0.0000 0.0000 0.0000 0.0000 37.4079
#
#
#
# Elastic Compliance Matrix: (Units=1/GPa)
#
#
# Indices 1 2 3 4 5 6 
#
# 1 0.004802 0.006626 -0.001068 0.000000 0.000000 0.000000
# 2 0.006626 0.004802 -0.001070 0.000000 0.000000 0.000000
# 3 -0.001068 -0.001070 0.011947 0.000000 0.000000 0.000000
# 4 0.000000 0.000000 0.000000 0.029438 0.000000 0.000000
# 5 0.000000 0.000000 0.000000 0.000000 0.029436 0.000000
# 6 0.000000 0.000000 0.000000 0.000000 0.000000 0.026732
#
#
# Mechanical properties :
#
#
# Convention : Reuss Voigt Hill
#
# Bulk Modulus (GPa) = 32.75827 32.77466 32.76646
# Shear Modulus (GPa) = 46.14294 -26.20116 9.97089
#
# Velocity S-wave (km/s) = 4.53188 -3.41496 2.10665
# Velocity P-wave (km/s) = 6.47799 0.98056 4.52785
#
# Compressibility (1/GPa) = 0.03052664
#
# Stress axis : x y z
#
# Youngs Moduli (GPa) = 208.22783 208.23167 83.70086
#
# Poissons Ratio (x) = -1.37964 0.08942
# Poissons Ratio (y) = -1.37962 0.08955
# Poissons Ratio (z) = 0.22246 0.22279
#
# Static dielectric constant tensor:
#      x y z
#    x 1.871870 0.000000 0.000000 
#    y 0.000000 1.871870 0.000000 
#    z 0.000000 0.000000 2.051530 
# 
# From -- ./inp_files/1583.got.cif
#   From: 2010.05.17/outbox.cif.g08.bks.cpg/sg120_1_cif.got.tgz:1583.got - 2010.05.20 11:28:13.
