data_PCOD9559375
_publ_section_title
;
Structure prediction by ZEFSAII (Michael W. Deem and Ramdas Pophale) SiO2 
 PCOD9559375
Probable space group: I -4 M 2
;
_chemical_formula_sum "Si O2"
_cell_formula_units_Z 80
_cell_length_a 28.650254
_cell_length_b 28.650254
_cell_length_c 5.335866
_cell_angle_alpha 90.000000
_cell_angle_beta 90.000000
_cell_angle_gamma 90.000000
_cell_volume 4379.876529
_symmetry_space_group_name_H-M "I -4 M 2"
_symmetry_group_IT_number 119
_symmetry_cell_setting 'tetragonal'
loop_
_space_group_symop_operation_xyz
x,y,z
y,-x,-z
-x,-y,z
-y,x,-z
y,x,-z
-y,-x,-z
-x,y,z
x,-y,z
1/2+x,1/2+y,1/2+z
1/2+y,1/2-x,1/2-z
1/2-x,1/2-y,1/2+z
1/2-y,1/2+x,1/2-z
1/2+y,1/2+x,1/2-z
1/2-y,1/2-x,1/2-z
1/2-x,1/2+y,1/2+z
1/2+x,1/2-y,1/2+z
loop_
_atom_site_type_symbol
_atom_site_label
_atom_site_fract_x
_atom_site_fract_y
_atom_site_fract_z
Si Si1 0.190066 0.445939 0.000008
Si Si2 0.363242 0.136759 0.750000
Si Si3 0.200884 0.053083 0.541463
Si Si4 0.771021 0.271021 0.750000
Si Si5 0.394250 0.315922 0.484264
Si Si6 0.631201 0.218059 0.378764
O O1 0.175715 0.500000 0.966450
O O2 0.200346 0.416272 0.749079
O O3 0.152065 0.414806 0.152319
O O4 0.243225 0.446785 0.103442
O O5 0.352683 0.173577 0.533641
O O6 0.189342 0.084144 0.295638
O O7 0.189196 0.000000 0.475997
O O8 0.174736 0.069484 0.791854
O O9 0.744392 0.255608 0.500000
O O10 0.764791 0.326426 0.795972
O O11 0.353396 0.353396 0.500000
O O12 0.376051 0.263821 0.543862
#
# Coordination Sequence:
#
# PCOD9559375 Si02
#       6
#    16   8  16   8  16  16
#     4  10  22  37  60  85 113 156 206 264 310 355
#     4  12  19  40  60  85 116 155 206 256 303 370
#     4  10  21  38  58  82 117 162 208 249 299 355
#     4  12  25  36  56  84 120 173 209 233 293 368
#     4  11  22  36  56  86 123 159 202 249 298 355
#     4  11  23  36  55  80 123 161 200 253 295 366
#
# _framework density 18.265353999999999
#
# number of rings (size 3 to 8) (size 9 to 14) (size 15 to 20)
#    0.000    1.200    4.000    2.400    0.000    4.800 
#    0.000    0.000    0.000    0.300    0.000    0.000 
#    0.000   28.000    0.000    0.000    0.000    0.000 
#
# Total GULP energy -222699.158233 kJ/mol
# GULP energy per Si atom -5567.478956 kJ/mol
# Density = 1.822378 g / cm^3
# Si number density = 18.265354 Si / 1000 Ang^3
#
#
#
# Elastic Constant Matrix: (Units=GPa)
#
#
# Indices 1 2 3 4 5 6 
#
# 1 107.7957 67.7377 41.4834 0.0000 0.0000 0.0000
# 2 67.7377 107.7947 41.4842 0.0000 0.0000 0.0000
# 3 41.4834 41.4842 56.7491 0.0000 0.0000 0.0000
# 4 0.0000 0.0000 0.0000 20.5783 0.0000 0.0000
# 5 0.0000 0.0000 0.0000 0.0000 20.5782 0.0000
# 6 0.0000 0.0000 0.0000 0.0000 0.0000 14.9868
#
#
#
# Elastic Compliance Matrix: (Units=1/GPa)
#
#
# Indices 1 2 3 4 5 6 
#
# 1 0.016834 -0.008130 -0.006363 0.000000 0.000000 0.000000
# 2 -0.008130 0.016835 -0.006363 0.000000 0.000000 0.000000
# 3 -0.006363 -0.006363 0.026924 0.000000 0.000000 0.000000
# 4 0.000000 0.000000 0.000000 0.048595 0.000000 0.000000
# 5 0.000000 0.000000 0.000000 0.000000 0.048595 0.000000
# 6 0.000000 0.000000 0.000000 0.000000 0.000000 0.066725
#
#
# Mechanical properties :
#
#
# Convention : Reuss Voigt Hill
#
# Bulk Modulus (GPa) = 52.96297 63.75001 58.35649
# Shear Modulus (GPa) = 18.34772 19.33762 18.84267
#
# Velocity S-wave (km/s) = 3.17284 3.25730 3.21535
# Velocity P-wave (km/s) = 6.51781 7.00890 6.76781
#
# Compressibility (1/GPa) = 0.01888111
#
# Stress axis : x y z
#
# Youngs Moduli (GPa) = 59.40333 59.40176 37.14136
#
# Poissons Ratio (x) = 0.48293 0.23632
# Poissons Ratio (y) = 0.48294 0.23634
# Poissons Ratio (z) = 0.37796 0.37799
#
# Static dielectric constant tensor:
#      x y z
#    x 1.652860 0.000000 0.000000 
#    y 0.000000 1.652860 0.000000 
#    z 0.000000 0.000000 1.717200 
# 
# From -- ./inp_files/1018.got.cif
#   From: 2010.05.17/outbox.cif.g08.bks.cpg/sg119_1_cif.got.tgz:1018.got - 2010.05.20 11:21:29.
