data_PCOD9559891
_publ_section_title
;
Structure prediction by ZEFSAII (Michael W. Deem and Ramdas Pophale) SiO2 
 PCOD9559891
Probable space group: I -4 C 2
;
_chemical_formula_sum "Si O2"
_cell_formula_units_Z 88
_cell_length_a 14.874894
_cell_length_b 14.874894
_cell_length_c 22.410021
_cell_angle_alpha 90.000000
_cell_angle_beta 90.000000
_cell_angle_gamma 90.000000
_cell_volume 4958.496633
_symmetry_space_group_name_H-M "I -4 C 2"
_symmetry_group_IT_number 120
_symmetry_cell_setting 'tetragonal'
loop_
_space_group_symop_operation_xyz
x,y,z
y,-x,-z
-x,-y,z
-y,x,-z
y,x,1/2-z
-y,-x,1/2-z
-x,y,1/2+z
x,-y,1/2+z
1/2+x,1/2+y,1/2+z
1/2+y,1/2-x,1/2-z
1/2-x,1/2-y,1/2+z
1/2-y,1/2+x,1/2-z
1/2+y,1/2+x,-z
1/2-y,1/2-x,-z
1/2-x,1/2+y,z
1/2+x,1/2-y,z
loop_
_atom_site_type_symbol
_atom_site_label
_atom_site_fract_x
_atom_site_fract_y
_atom_site_fract_z
Si Si1 0.239723 0.996825 0.482641
Si Si2 0.962984 0.785721 0.382628
Si Si3 0.303112 0.196889 0.500000
Si Si4 0.027940 0.903632 0.620412
Si Si5 0.859818 0.851339 0.818869
Si Si6 0.173705 0.298870 0.589182
O O1 0.288674 0.090470 0.496403
O O2 0.168119 0.015706 0.431282
O O3 0.195632 0.974254 0.546378
O O4 0.295647 0.912194 0.455911
O O5 0.907773 0.870384 0.357461
O O6 0.897331 0.699546 0.385801
O O7 0.059184 0.790956 0.348486
O O8 0.256449 0.250725 0.554478
O O9 0.954984 0.888871 0.671799
O O10 0.000000 0.000000 0.594454
O O11 0.838277 0.838277 0.750000
O O12 0.769637 0.842792 0.857128
#
# Coordination Sequence:
#
# PCOD9559891 Si02
#       6
#    16  16   8  16  16  16
#     4  11  20  33  56  89 126 149 194 246 300 372
#     4  11  20  34  59  87 118 156 190 250 309 358
#     4  12  20  36  61  89 124 152 198 248 316 364
#     4   9  20  29  55  85 114 150 180 238 305 349
#     4  10  23  41  55  84 124 157 202 249 297 369
#     4  11  21  38  59  89 122 158 202 249 306 378
#
# _framework density 17.747313999999999
#
# number of rings (size 3 to 8) (size 9 to 14) (size 15 to 20)
#    0.000    1.455    5.455    0.000    5.091    3.273 
#    3.273    1.818    0.000    0.000    0.000    0.000 
#    0.000    0.000    0.000    0.000    0.000    0.000 
#
# Total GULP energy -244936.155493 kJ/mol
# GULP energy per Si atom -5566.730807 kJ/mol
# Density = 1.770692 g / cm^3
# Si number density = 17.747314 Si / 1000 Ang^3
#
#
#
# Elastic Constant Matrix: (Units=GPa)
#
#
# Indices 1 2 3 4 5 6 
#
# 1 34.8223 1.5102 -1.9896 0.0000 0.0000 0.0000
# 2 1.5102 34.8219 -1.9895 0.0000 0.0000 0.0000
# 3 -1.9896 -1.9895 76.7607 0.0000 0.0000 0.0000
# 4 0.0000 0.0000 0.0000 11.5792 0.0000 0.0000
# 5 0.0000 0.0000 0.0000 0.0000 11.5793 0.0000
# 6 0.0000 0.0000 0.0000 0.0000 0.0000 28.1600
#
#
#
# Elastic Compliance Matrix: (Units=1/GPa)
#
#
# Indices 1 2 3 4 5 6 
#
# 1 0.028811 -0.001209 0.000715 0.000000 0.000000 0.000000
# 2 -0.001209 0.028811 0.000715 0.000000 0.000000 0.000000
# 3 0.000715 0.000715 0.013065 0.000000 0.000000 0.000000
# 4 0.000000 0.000000 0.000000 0.086362 0.000000 0.000000
# 5 0.000000 0.000000 0.000000 0.000000 0.086361 0.000000
# 6 0.000000 0.000000 0.000000 0.000000 0.000000 0.035511
#
#
# Mechanical properties :
#
#
# Convention : Reuss Voigt Hill
#
# Bulk Modulus (GPa) = 14.05869 15.71857 14.88863
# Shear Modulus (GPa) = 16.54613 20.18864 18.36738
#
# Velocity S-wave (km/s) = 3.05670 3.37643 3.22054
# Velocity P-wave (km/s) = 4.51627 4.90678 4.71557
#
# Compressibility (1/GPa) = 0.07113036
#
# Stress axis : x y z
#
# Youngs Moduli (GPa) = 34.70952 34.70918 76.54282
#
# Poissons Ratio (x) = 0.04195 -0.05476
# Poissons Ratio (y) = 0.04195 -0.05476
# Poissons Ratio (z) = -0.02483 -0.02483
#
# Static dielectric constant tensor:
#      x y z
#    x 1.653170 0.000000 0.000000 
#    y 0.000000 1.653170 0.000000 
#    z 0.000000 0.000000 1.618930 
# 
# From -- ./inp_files/5265.got.cif
#   From: 2010.05.17/outbox.cif.g08.bks.cpg/sg120_3_cif.got.tgz:5265.got - 2010.05.20 11:28:13.
