data_PCOD9559092
_publ_section_title
;
Structure prediction by ZEFSAII (Michael W. Deem and Ramdas Pophale) SiO2 
 PCOD9559092
Probable space group: I -4 M 2
;
_chemical_formula_sum "Si O2"
_cell_formula_units_Z 80
_cell_length_a 14.259183
_cell_length_b 14.259183
_cell_length_c 21.618305
_cell_angle_alpha 90.000000
_cell_angle_beta 90.000000
_cell_angle_gamma 90.000000
_cell_volume 4395.526728
_symmetry_space_group_name_H-M "I -4 M 2"
_symmetry_group_IT_number 119
_symmetry_cell_setting 'tetragonal'
loop_
_space_group_symop_operation_xyz
x,y,z
y,-x,-z
-x,-y,z
-y,x,-z
y,x,-z
-y,-x,-z
-x,y,z
x,-y,z
1/2+x,1/2+y,1/2+z
1/2+y,1/2-x,1/2-z
1/2-x,1/2-y,1/2+z
1/2-y,1/2+x,1/2-z
1/2+y,1/2+x,1/2-z
1/2-y,1/2-x,1/2-z
1/2-x,1/2+y,1/2+z
1/2+x,1/2-y,1/2+z
loop_
_atom_site_type_symbol
_atom_site_label
_atom_site_fract_x
_atom_site_fract_y
_atom_site_fract_z
Si Si1 0.389001 0.239369 0.436710
Si Si2 0.230286 0.389082 0.426128
Si Si3 0.606250 0.607368 0.241244
Si Si4 0.391959 0.794384 0.306722
Si Si5 0.695406 0.111129 0.686337
O O1 0.500000 0.259578 0.430832
O O2 0.328030 0.333456 0.431169
O O3 0.375605 0.191835 0.503505
O O4 0.360760 0.180951 0.375764
O O5 0.241525 0.500000 0.415273
O O6 0.167113 0.345072 0.372111
O O7 0.500000 0.618605 0.215867
O O8 0.615760 0.500000 0.262984
O O9 0.615350 0.682387 0.296003
O O10 0.692237 0.624203 0.194549
O O11 0.500000 0.821779 0.300094
O O12 0.337136 0.837136 0.250000
O O13 0.649650 0.149650 0.750000
O O14 0.676618 0.000000 0.680868
#
# Coordination Sequence:
#
# PCOD9559092 Si02
#       5
#    16  16  16  16  16
#     4   9  19  34  52  75 103 135 173 219 266 310
#     4  10  20  34  52  75 107 143 174 210 260 320
#     4   9  18  32  52  80 108 133 167 214 267 316
#     4  10  19  32  51  74 101 131 164 207 255 303
#     4  11  22  35  54  80 110 144 181 222 266 319
#
# _framework density 18.200320999999999
#
# number of rings (size 3 to 8) (size 9 to 14) (size 15 to 20)
#    0.000    2.200    0.000    3.600    0.000    4.400 
#    0.000    5.000    0.000    8.400    0.000    0.000 
#    0.000    6.400    0.000    0.000    0.000    0.000 
#
# Total GULP energy -222842.212264 kJ/mol
# GULP energy per Si atom -5571.055307 kJ/mol
# Density = 1.815890 g / cm^3
# Si number density = 18.200321 Si / 1000 Ang^3
#
#
#
# Elastic Constant Matrix: (Units=GPa)
#
#
# Indices 1 2 3 4 5 6 
#
# 1 68.6663 29.1121 62.2017 0.0000 0.0000 0.0000
# 2 29.1121 68.6663 62.2017 0.0000 0.0000 0.0000
# 3 62.2017 62.2017 179.0974 0.0000 0.0000 0.0000
# 4 0.0000 0.0000 0.0000 21.9354 0.0000 0.0000
# 5 0.0000 0.0000 0.0000 0.0000 21.9354 0.0000
# 6 0.0000 0.0000 0.0000 0.0000 0.0000 19.7414
#
#
#
# Elastic Compliance Matrix: (Units=1/GPa)
#
#
# Indices 1 2 3 4 5 6 
#
# 1 0.021803 -0.003479 -0.006364 0.000000 0.000000 0.000000
# 2 -0.003479 0.021803 -0.006364 0.000000 0.000000 0.000000
# 3 -0.006364 -0.006364 0.010004 0.000000 0.000000 0.000000
# 4 0.000000 0.000000 0.000000 0.045588 0.000000 0.000000
# 5 0.000000 0.000000 0.000000 0.000000 0.045588 0.000000
# 6 0.000000 0.000000 0.000000 0.000000 0.000000 0.050655
#
#
# Mechanical properties :
#
#
# Convention : Reuss Voigt Hill
#
# Bulk Modulus (GPa) = 47.17825 69.27346 58.22586
# Shear Modulus (GPa) = 21.28368 23.58339 22.43353
#
# Velocity S-wave (km/s) = 3.42338 3.60358 3.51463
# Velocity P-wave (km/s) = 6.45011 7.44706 6.96644
#
# Compressibility (1/GPa) = 0.02119621
#
# Stress axis : x y z
#
# Youngs Moduli (GPa) = 45.86514 45.86514 99.95815
#
# Poissons Ratio (x) = 0.15955 0.63615
# Poissons Ratio (y) = 0.15955 0.63615
# Poissons Ratio (z) = 0.29189 0.29189
#
# Static dielectric constant tensor:
#      x y z
#    x 1.642760 0.000000 0.000000 
#    y 0.000000 1.642760 0.000000 
#    z 0.000000 0.000000 1.665260 
# 
# From -- ./inp_files/7544.got.cif
#   From: 2010.05.17/outbox.cif.g08.bks.cpg/sg119_4_cif.got.tgz:7544.got - 2010.05.20 11:21:29.
