data_PCOD9559904
_publ_section_title
;
Structure prediction by ZEFSAII (Michael W. Deem and Ramdas Pophale) SiO2 
 PCOD9559904
Probable space group: I -4 C 2
;
_chemical_formula_sum "Si O2"
_cell_formula_units_Z 72
_cell_length_a 19.090787
_cell_length_b 19.090787
_cell_length_c 8.360428
_cell_angle_alpha 90.000000
_cell_angle_beta 90.000000
_cell_angle_gamma 90.000000
_cell_volume 3047.026108
_symmetry_space_group_name_H-M "I -4 C 2"
_symmetry_group_IT_number 120
_symmetry_cell_setting 'tetragonal'
loop_
_space_group_symop_operation_xyz
x,y,z
y,-x,-z
-x,-y,z
-y,x,-z
y,x,1/2-z
-y,-x,1/2-z
-x,y,1/2+z
x,-y,1/2+z
1/2+x,1/2+y,1/2+z
1/2+y,1/2-x,1/2-z
1/2-x,1/2-y,1/2+z
1/2-y,1/2+x,1/2-z
1/2+y,1/2+x,-z
1/2-y,1/2-x,-z
1/2-x,1/2+y,z
1/2+x,1/2-y,z
loop_
_atom_site_type_symbol
_atom_site_label
_atom_site_fract_x
_atom_site_fract_y
_atom_site_fract_z
Si Si1 0.851875 0.532891 0.791630
Si Si2 0.528690 0.651655 0.038839
Si Si3 0.070389 0.929612 0.750000
Si Si4 0.564890 0.064890 0.500000
Si Si5 0.263355 0.420835 0.176646
Si Si6 0.669559 0.830442 0.500000
O O1 0.871568 0.564000 0.621373
O O2 0.800259 0.469550 0.745580
O O3 0.919064 0.500842 0.884849
O O4 0.827824 0.597298 0.898936
O O5 0.496046 0.585375 0.135401
O O6 0.577999 0.686991 0.169166
O O7 0.569213 0.631952 0.878577
O O8 0.464294 0.698111 0.967229
O O9 0.233958 0.346290 0.117866
#
# Coordination Sequence:
#
# PCOD9559904 Si02
#       6
#    16  16   8   8  16   8
#     4  12  22  34  50  81 120 173 225 281 336 394
#     4  10  23  43  70 101 138 167 211 262 345 416
#     4  10  24  43  74 110 138 170 190 268 350 441
#     4  12  22  33  44  72 123 167 218 287 353 398
#     4  11  21  40  59  92 131 177 227 274 323 403
#     4  12  22  35  56  88 127 183 232 275 335 371
#
# _framework density 23.629597
#
# number of rings (size 3 to 8) (size 9 to 14) (size 15 to 20)
#    0.000    0.889    6.667    0.000    0.000    8.444 
#    0.000    0.000    0.000    2.667    0.000    1.556 
#    0.000    0.000    0.000    0.000    0.000    0.000 
#
# Total GULP energy -200847.958199 kJ/mol
# GULP energy per Si atom -5579.109950 kJ/mol
# Density = 2.357582 g / cm^3
# Si number density = 23.629597 Si / 1000 Ang^3
#
#
#
# Elastic Constant Matrix: (Units=GPa)
#
#
# Indices 1 2 3 4 5 6 
#
# 1 61.5220 39.7379 44.1862 0.0000 0.0000 0.0000
# 2 39.7379 61.5217 44.1857 0.0000 0.0000 0.0000
# 3 44.1862 44.1857 164.8562 0.0000 0.0000 0.0000
# 4 0.0000 0.0000 0.0000 45.9569 0.0000 0.0000
# 5 0.0000 0.0000 0.0000 0.0000 45.9569 0.0000
# 6 0.0000 0.0000 0.0000 0.0000 0.0000 31.1654
#
#
#
# Elastic Compliance Matrix: (Units=1/GPa)
#
#
# Indices 1 2 3 4 5 6 
#
# 1 0.029398 -0.016507 -0.003455 0.000000 0.000000 0.000000
# 2 -0.016507 0.029398 -0.003455 0.000000 0.000000 0.000000
# 3 -0.003455 -0.003455 0.007918 0.000000 0.000000 0.000000
# 4 0.000000 0.000000 0.000000 0.021760 0.000000 0.000000
# 5 0.000000 0.000000 0.000000 0.000000 0.021760 0.000000
# 6 0.000000 0.000000 0.000000 0.000000 0.000000 0.032087
#
#
# Mechanical properties :
#
#
# Convention : Reuss Voigt Hill
#
# Bulk Modulus (GPa) = 50.30318 60.45771 55.38044
# Shear Modulus (GPa) = 25.53866 35.26851 30.40359
#
# Velocity S-wave (km/s) = 3.29111 3.86755 3.59092
# Velocity P-wave (km/s) = 5.98133 6.75167 6.37814
#
# Compressibility (1/GPa) = 0.01987946
#
# Stress axis : x y z
#
# Youngs Moduli (GPa) = 34.01577 34.01571 126.29390
#
# Poissons Ratio (x) = 0.56150 0.43637
# Poissons Ratio (y) = 0.56150 0.43636
# Poissons Ratio (z) = 0.11753 0.11753
#
# Static dielectric constant tensor:
#      x y z
#    x 1.982320 0.000000 0.000000 
#    y 0.000000 1.982320 0.000000 
#    z 0.000000 0.000000 1.904870 
# 
# From -- ./inp_files/1367.got.cif
#   From: 2010.05.17/outbox.cif.g08.bks.cpg/sg120_1_cif.got.tgz:1367.got - 2010.05.20 11:28:13.
