data_PCOD9559628
_publ_section_title
;
Structure prediction by ZEFSAII (Michael W. Deem and Ramdas Pophale) SiO2 
 PCOD9559628
Probable space group: I -4 C 2
;
_chemical_formula_sum "Si O2"
_cell_formula_units_Z 112
_cell_length_a 14.366354
_cell_length_b 14.366354
_cell_length_c 29.938990
_cell_angle_alpha 90.000000
_cell_angle_beta 90.000000
_cell_angle_gamma 90.000000
_cell_volume 6179.171834
_symmetry_space_group_name_H-M "I -4 C 2"
_symmetry_group_IT_number 120
_symmetry_cell_setting 'tetragonal'
loop_
_space_group_symop_operation_xyz
x,y,z
y,-x,-z
-x,-y,z
-y,x,-z
y,x,1/2-z
-y,-x,1/2-z
-x,y,1/2+z
x,-y,1/2+z
1/2+x,1/2+y,1/2+z
1/2+y,1/2-x,1/2-z
1/2-x,1/2-y,1/2+z
1/2-y,1/2+x,1/2-z
1/2+y,1/2+x,-z
1/2-y,1/2-x,-z
1/2-x,1/2+y,z
1/2+x,1/2-y,z
loop_
_atom_site_type_symbol
_atom_site_label
_atom_site_fract_x
_atom_site_fract_y
_atom_site_fract_z
Si Si1 0.745649 0.615586 0.474561
Si Si2 0.692428 0.567729 0.377497
Si Si3 0.735218 0.363528 0.383704
Si Si4 0.928333 0.188887 0.824552
Si Si5 0.100120 0.251990 0.011994
Si Si6 0.000000 0.000000 0.858381
Si Si7 0.722292 0.277709 0.250000
Si Si8 0.745642 0.362946 0.673186
O O1 0.823929 0.676072 0.500000
O O2 0.746882 0.606566 0.420550
O O3 0.650521 0.670744 0.484573
O O4 0.750120 0.510487 0.492619
O O5 0.734812 0.468389 0.363836
O O6 0.584381 0.540175 0.388046
O O7 0.679865 0.644148 0.339193
O O8 0.644680 0.307956 0.365819
O O9 0.732938 0.375385 0.436343
O O10 0.825374 0.310906 0.366251
O O11 0.866900 0.216642 0.782268
O O12 0.960166 0.081163 0.827096
O O13 0.025761 0.242577 0.826530
O O14 0.150826 0.349175 0.000000
O O15 0.722684 0.186620 0.218685
#
# Coordination Sequence:
#
# PCOD9559628 Si02
#       8
#    16  16  16  16  16   8   8  16
#     4  10  21  35  53  80 112 146 184 228 273 321
#     4   9  18  34  54  78 106 137 179 218 261 315
#     4   9  19  35  53  77 107 137 177 220 254 308
#     4   9  19  34  53  79 105 133 171 213 263 316
#     4  10  21  35  54  81 113 147 184 229 275 320
#     4   8  16  31  56  79 100 134 172 220 270 314
#     4  10  22  33  50  83 108 126 166 216 260 318
#     4  10  19  34  57  76 102 140 169 210 269 316
#
# _framework density 18.125406000000002
#
# number of rings (size 3 to 8) (size 9 to 14) (size 15 to 20)
#    0.000    2.571    0.000    1.714    0.000   11.143 
#    0.000    0.000    0.000   10.714    0.000    0.000 
#    0.000    0.000    0.000    0.000    0.000    0.000 
#
# Total GULP energy -311904.794298 kJ/mol
# GULP energy per Si atom -5569.728470 kJ/mol
# Density = 1.808415 g / cm^3
# Si number density = 18.125406 Si / 1000 Ang^3
#
#
#
# Elastic Constant Matrix: (Units=GPa)
#
#
# Indices 1 2 3 4 5 6 
#
# 1 94.1443 50.8493 25.0295 0.0000 0.0000 0.0000
# 2 50.8493 94.1415 25.0270 0.0000 0.0000 0.0000
# 3 25.0295 25.0270 29.6208 0.0000 0.0000 0.0000
# 4 0.0000 0.0000 0.0000 16.9165 0.0000 0.0000
# 5 0.0000 0.0000 0.0000 0.0000 16.9169 0.0000
# 6 0.0000 0.0000 0.0000 0.0000 0.0000 23.0780
#
#
#
# Elastic Compliance Matrix: (Units=1/GPa)
#
#
# Indices 1 2 3 4 5 6 
#
# 1 0.016418 -0.006680 -0.008229 0.000000 0.000000 0.000000
# 2 -0.006680 0.016418 -0.008227 0.000000 0.000000 0.000000
# 3 -0.008229 -0.008227 0.047664 0.000000 0.000000 0.000000
# 4 0.000000 0.000000 0.000000 0.059114 0.000000 0.000000
# 5 0.000000 0.000000 0.000000 0.000000 0.059113 0.000000
# 6 0.000000 0.000000 0.000000 0.000000 0.000000 0.043331
#
#
# Mechanical properties :
#
#
# Convention : Reuss Voigt Hill
#
# Bulk Modulus (GPa) = 29.21566 46.63534 37.92550
# Shear Modulus (GPa) = 16.68123 19.18234 17.93179
#
# Velocity S-wave (km/s) = 3.03697 3.25670 3.14875
# Velocity P-wave (km/s) = 5.33397 6.31875 5.84713
#
# Compressibility (1/GPa) = 0.03422822
#
# Stress axis : x y z
#
# Youngs Moduli (GPa) = 60.90903 60.91028 20.98015
#
# Poissons Ratio (x) = 0.40690 0.17264
# Poissons Ratio (y) = 0.40689 0.17259
# Poissons Ratio (z) = 0.50121 0.50108
#
# Static dielectric constant tensor:
#      x y z
#    x 1.641880 0.000000 0.000000 
#    y 0.000000 1.641880 0.000000 
#    z 0.000000 0.000000 1.642000 
# 
# From -- ./inp_files/6322.got.cif
#   From: 2010.05.17/outbox.cif.g08.bks.cpg/sg120_4_cif.got.tgz:6322.got - 2010.05.20 11:28:13.
