data_PCOD9559643
_publ_section_title
;
Structure prediction by ZEFSAII (Michael W. Deem and Ramdas Pophale) SiO2 
 PCOD9559643
Probable space group: I -4 C 2
;
_chemical_formula_sum "Si O2"
_cell_formula_units_Z 84
_cell_length_a 20.411459
_cell_length_b 20.411459
_cell_length_c 10.301760
_cell_angle_alpha 90.000000
_cell_angle_beta 90.000000
_cell_angle_gamma 90.000000
_cell_volume 4291.998147
_symmetry_space_group_name_H-M "I -4 C 2"
_symmetry_group_IT_number 120
_symmetry_cell_setting 'tetragonal'
loop_
_space_group_symop_operation_xyz
x,y,z
y,-x,-z
-x,-y,z
-y,x,-z
y,x,1/2-z
-y,-x,1/2-z
-x,y,1/2+z
x,-y,1/2+z
1/2+x,1/2+y,1/2+z
1/2+y,1/2-x,1/2-z
1/2-x,1/2-y,1/2+z
1/2-y,1/2+x,1/2-z
1/2+y,1/2+x,-z
1/2-y,1/2-x,-z
1/2-x,1/2+y,z
1/2+x,1/2-y,z
loop_
_atom_site_type_symbol
_atom_site_label
_atom_site_fract_x
_atom_site_fract_y
_atom_site_fract_z
Si Si1 0.500000 0.000000 0.250000
Si Si2 0.282138 0.359822 0.926361
Si Si3 0.990185 0.282773 0.597171
Si Si4 0.165768 0.706495 0.305205
Si Si5 0.361644 0.248131 0.033462
Si Si6 0.462841 0.138927 0.343949
O O1 0.488136 0.065619 0.331880
O O2 0.276833 0.437579 0.901342
O O3 0.235591 0.326903 0.819438
O O4 0.244522 0.349686 0.063011
O O5 0.343903 0.312291 0.949280
O O6 0.061178 0.263934 0.539688
O O7 0.999065 0.314615 0.739698
O O8 0.966288 0.336000 0.491339
O O9 0.157386 0.754028 0.184524
O O10 0.111889 0.648836 0.296396
O O11 0.315124 0.184877 0.000000
#
# Coordination Sequence:
#
# PCOD9559643 Si02
#       6
#     4  16  16  16  16  16
#     4  12  24  34  52  74 104 162 192 210 268 338
#     4  10  19  37  59  79 109 148 183 234 283 336
#     4  10  24  40  54  81 114 145 182 240 289 324
#     4   9  19  37  53  79 106 146 190 229 272 321
#     4  11  22  34  60  85 110 143 191 237 276 338
#     4  10  23  38  53  74 114 150 190 226 270 334
#
# _framework density 19.571304999999999
#
# number of rings (size 3 to 8) (size 9 to 14) (size 15 to 20)
#    0.000    1.905    1.905    1.714    8.000    3.048 
#    0.000    0.000    0.000    0.571    0.000    0.000 
#    0.000    9.143    0.000    0.000    0.000    0.762 
#
# Total GULP energy -234199.185575 kJ/mol
# GULP energy per Si atom -5576.171085 kJ/mol
# Density = 1.952676 g / cm^3
# Si number density = 19.571305 Si / 1000 Ang^3
#
#
#
# Elastic Constant Matrix: (Units=GPa)
#
#
# Indices 1 2 3 4 5 6 
#
# 1 72.0711 41.5845 4.9161 0.0000 0.0000 0.0000
# 2 41.5845 72.0717 4.9146 0.0000 0.0000 0.0000
# 3 4.9161 4.9146 68.0649 0.0000 0.0000 0.0000
# 4 0.0000 0.0000 0.0000 21.3565 0.0000 0.0000
# 5 0.0000 0.0000 0.0000 0.0000 21.3564 0.0000
# 6 0.0000 0.0000 0.0000 0.0000 0.0000 28.3571
#
#
#
# Elastic Compliance Matrix: (Units=1/GPa)
#
#
# Indices 1 2 3 4 5 6 
#
# 1 0.020827 -0.011974 -0.000640 0.000000 0.000000 0.000000
# 2 -0.011974 0.020827 -0.000639 0.000000 0.000000 0.000000
# 3 -0.000640 -0.000639 0.014784 0.000000 0.000000 0.000000
# 4 0.000000 0.000000 0.000000 0.046824 0.000000 0.000000
# 5 0.000000 0.000000 0.000000 0.000000 0.046824 0.000000
# 6 0.000000 0.000000 0.000000 0.000000 0.000000 0.035265
#
#
# Mechanical properties :
#
#
# Convention : Reuss Voigt Hill
#
# Bulk Modulus (GPa) = 33.40654 35.00424 34.20539
# Shear Modulus (GPa) = 22.53930 24.93350 23.73640
#
# Velocity S-wave (km/s) = 3.39728 3.57316 3.48633
# Velocity P-wave (km/s) = 5.70043 5.91165 5.80700
#
# Compressibility (1/GPa) = 0.02993426
#
# Stress axis : x y z
#
# Youngs Moduli (GPa) = 48.01348 48.01404 67.63972
#
# Poissons Ratio (x) = 0.57490 0.04327
# Poissons Ratio (y) = 0.57489 0.04322
# Poissons Ratio (z) = 0.03072 0.03068
#
# Static dielectric constant tensor:
#      x y z
#    x 1.788830 0.000000 0.000000 
#    y 0.000000 1.788820 0.000000 
#    z 0.000000 0.000000 1.736210 
# 
# From -- ./inp_files/2670.got.cif
#   From: 2010.05.17/outbox.cif.g08.bks.cpg/sg120_2_cif.got.tgz:2670.got - 2010.05.20 11:28:13.
