data_PCOD9559428
_publ_section_title
;
Structure prediction by ZEFSAII (Michael W. Deem and Ramdas Pophale) SiO2 
 PCOD9559428
Probable space group: I -4 M 2
;
_chemical_formula_sum "Si O2"
_cell_formula_units_Z 112
_cell_length_a 30.294394
_cell_length_b 30.294394
_cell_length_c 5.486888
_cell_angle_alpha 90.000000
_cell_angle_beta 90.000000
_cell_angle_gamma 90.000000
_cell_volume 5035.593151
_symmetry_space_group_name_H-M "I -4 M 2"
_symmetry_group_IT_number 119
_symmetry_cell_setting 'tetragonal'
loop_
_space_group_symop_operation_xyz
x,y,z
y,-x,-z
-x,-y,z
-y,x,-z
y,x,-z
-y,-x,-z
-x,y,z
x,-y,z
1/2+x,1/2+y,1/2+z
1/2+y,1/2-x,1/2-z
1/2-x,1/2-y,1/2+z
1/2-y,1/2+x,1/2-z
1/2+y,1/2+x,1/2-z
1/2-y,1/2-x,1/2-z
1/2-x,1/2+y,1/2+z
1/2+x,1/2-y,1/2+z
loop_
_atom_site_type_symbol
_atom_site_label
_atom_site_fract_x
_atom_site_fract_y
_atom_site_fract_z
Si Si1 0.090402 0.551409 0.497191
Si Si2 0.550023 0.175357 0.200190
Si Si3 0.047679 0.186416 0.357897
Si Si4 0.305135 0.872660 0.635260
Si Si5 0.916268 0.951098 0.755963
Si Si6 0.916505 0.243939 0.966713
Si Si7 0.213159 0.858310 0.409065
O O1 0.079590 0.500000 0.455743
O O2 0.067043 0.567043 0.750000
O O3 0.142037 0.553993 0.572084
O O4 0.076636 0.576636 0.250000
O O5 0.500000 0.169196 0.100457
O O6 0.557948 0.226339 0.270553
O O7 0.591856 0.167838 0.025009
O O8 0.048692 0.134932 0.309030
O O9 0.093769 0.198376 0.486465
O O10 0.000000 0.197200 0.474592
O O11 0.051128 0.211273 0.101515
O O12 0.336836 0.836836 0.750000
O O13 0.264119 0.850477 0.488434
O O14 0.279868 0.899516 0.842328
O O15 0.938421 0.938421 0.500000
O O16 0.931194 0.000000 0.826068
O O17 0.922840 0.922840 0.000000
O O18 0.872774 0.218055 0.873070
O O19 0.179446 0.820555 0.500000
#
# Coordination Sequence:
#
# PCOD9559428 Si02
#       7
#    16  16  16  16  16  16  16
#     4  11  26  45  70 105 143 194 248 302 367 437
#     4  10  24  42  67 100 137 182 236 295 367 441
#     4  10  23  39  63  97 134 177 229 287 356 425
#     4  10  24  44  67 100 136 181 234 298 368 434
#     4  11  25  43  67  99 136 184 235 287 346 412
#     4  10  23  40  68  95 134 177 229 290 360 426
#     4  10  23  43  65  97 136 183 236 292 363 441
#
# _framework density 22.241672000000001
#
# number of rings (size 3 to 8) (size 9 to 14) (size 15 to 20)
#    0.000    1.714    0.000    1.714    8.000   11.429 
#    2.571    0.000    0.000    0.000    0.000    0.000 
#    0.000    0.000    0.000    0.000    0.000    0.000 
#
# Total GULP energy -312504.887725 kJ/mol
# GULP energy per Si atom -5580.444424 kJ/mol
# Density = 2.219105 g / cm^3
# Si number density = 22.241672 Si / 1000 Ang^3
#
#
#
# Elastic Constant Matrix: (Units=GPa)
#
#
# Indices 1 2 3 4 5 6 
#
# 1 182.9356 -38.3373 25.0650 0.0000 0.0000 0.0000
# 2 -38.3373 182.9475 25.0682 0.0000 0.0000 0.0000
# 3 25.0650 25.0682 69.5574 0.0000 0.0000 0.0000
# 4 0.0000 0.0000 0.0000 33.2650 0.0000 0.0000
# 5 0.0000 0.0000 0.0000 0.0000 33.2646 0.0000
# 6 0.0000 0.0000 0.0000 0.0000 0.0000 -55.6886
#
#
#
# Elastic Compliance Matrix: (Units=1/GPa)
#
#
# Indices 1 2 3 4 5 6 
#
# 1 0.006211 0.001692 -0.002848 0.000000 0.000000 0.000000
# 2 0.001692 0.006211 -0.002848 0.000000 0.000000 0.000000
# 3 -0.002848 -0.002848 0.016429 0.000000 0.000000 0.000000
# 4 0.000000 0.000000 0.000000 0.030062 0.000000 0.000000
# 5 0.000000 0.000000 0.000000 0.000000 0.030062 0.000000
# 6 0.000000 0.000000 0.000000 0.000000 0.000000 -0.017957
#
#
# Mechanical properties :
#
#
# Convention : Reuss Voigt Hill
#
# Bulk Modulus (GPa) = 47.97766 51.00360 49.49063
# Shear Modulus (GPa) = 58.15731 30.41118 44.28424
#
# Velocity S-wave (km/s) = 5.11905 3.70172 4.46696
# Velocity P-wave (km/s) = 7.52047 6.42275 6.99318
#
# Compressibility (1/GPa) = 0.02084303
#
# Stress axis : x y z
#
# Youngs Moduli (GPa) = 161.00055 161.00941 60.86698
#
# Poissons Ratio (x) = -0.27240 0.17334
# Poissons Ratio (y) = -0.27238 0.17335
# Poissons Ratio (z) = 0.45852 0.45855
#
# Static dielectric constant tensor:
#      x y z
#    x 1.824800 0.000000 0.000000 
#    y 0.000000 1.824800 0.000000 
#    z 0.000000 0.000000 0.649130 
# 
# From -- ./inp_files/1211.got.cif
#   From: 2010.05.17/outbox.cif.g08.bks.cpg/sg119_1_cif.got.tgz:1211.got - 2010.05.20 11:21:29.
