data_PCOD9559402
_publ_section_title
;
Structure prediction by ZEFSAII (Michael W. Deem and Ramdas Pophale) SiO2 
 PCOD9559402
Probable space group: I -4 M 2
;
_chemical_formula_sum "Si O2"
_cell_formula_units_Z 112
_cell_length_a 14.853258
_cell_length_b 14.853258
_cell_length_c 21.677634
_cell_angle_alpha 90.000000
_cell_angle_beta 90.000000
_cell_angle_gamma 90.000000
_cell_volume 4782.503858
_symmetry_space_group_name_H-M "I -4 M 2"
_symmetry_group_IT_number 119
_symmetry_cell_setting 'tetragonal'
loop_
_space_group_symop_operation_xyz
x,y,z
y,-x,-z
-x,-y,z
-y,x,-z
y,x,-z
-y,-x,-z
-x,y,z
x,-y,z
1/2+x,1/2+y,1/2+z
1/2+y,1/2-x,1/2-z
1/2-x,1/2-y,1/2+z
1/2-y,1/2+x,1/2-z
1/2+y,1/2+x,1/2-z
1/2-y,1/2-x,1/2-z
1/2-x,1/2+y,1/2+z
1/2+x,1/2-y,1/2+z
loop_
_atom_site_type_symbol
_atom_site_label
_atom_site_fract_x
_atom_site_fract_y
_atom_site_fract_z
Si Si1 0.786912 0.104833 0.460701
Si Si2 0.282299 0.898390 0.123777
Si Si3 0.721143 0.713615 0.163199
Si Si4 0.602930 0.895844 0.675416
Si Si5 0.603181 0.602785 0.744692
Si Si6 0.095676 0.893888 0.095801
Si Si7 0.894243 0.402563 0.509256
O O1 0.874755 0.125246 0.500000
O O2 0.795004 0.161227 0.398180
O O3 0.700361 0.134159 0.503373
O O4 0.775672 0.000000 0.446753
O O5 0.283509 0.820878 0.173835
O O6 0.197941 0.869754 0.078800
O O7 0.371013 0.902004 0.082331
O O8 0.265832 0.000000 0.145997
O O9 0.821154 0.673314 0.153653
O O10 0.675829 0.658977 0.218323
O O11 0.500000 0.873252 0.657389
O O12 0.605161 0.894840 0.750000
O O13 0.620936 0.000000 0.656199
O O14 0.500000 0.610866 0.766098
O O15 0.633020 0.500000 0.757134
O O16 0.598992 0.614920 0.670524
O O17 0.000000 0.853440 0.074244
O O18 0.090248 0.000000 0.081090
O O19 0.856178 0.500000 0.487069
O O20 0.000000 0.406244 0.496403
#
# Coordination Sequence:
#
# PCOD9559402 Si02
#       7
#    16  16  16  16  16  16  16
#     4  10  22  39  57  82 115 147 182 230 287 343
#     4   9  18  30  46  72 104 134 169 217 268 314
#     4  11  21  33  56  80 104 143 192 228 271 336
#     4   9  20  38  56  78 112 151 190 235 288 342
#     4   9  18  31  47  70 100 133 175 227 272 316
#     4   8  15  28  44  65  97 134 171 213 259 307
#     4   8  15  32  57  79 100 134 180 223 265 321
#
# _framework density 23.418696000000001
#
# number of rings (size 3 to 8) (size 9 to 14) (size 15 to 20)
#    0.000    2.857    0.000    2.143    2.000    2.429 
#    0.000    0.714    0.000    3.429    0.000    2.000 
#    0.000    0.000    0.000    0.143    0.000    0.000 
#
# Total GULP energy -312054.042017 kJ/mol
# GULP energy per Si atom -5572.393607 kJ/mol
# Density = 2.336539 g / cm^3
# Si number density = 23.418696 Si / 1000 Ang^3
#
#
#
# Elastic Constant Matrix: (Units=GPa)
#
#
# Indices 1 2 3 4 5 6 
#
# 1 101.5427 42.8040 27.3093 0.0000 0.0000 0.0000
# 2 42.8040 101.5455 27.3097 0.0000 0.0000 0.0000
# 3 27.3093 27.3097 63.8382 0.0000 0.0000 0.0000
# 4 0.0000 0.0000 0.0000 12.7543 0.0000 0.0000
# 5 0.0000 0.0000 0.0000 0.0000 12.7537 0.0000
# 6 0.0000 0.0000 0.0000 0.0000 0.0000 31.9302
#
#
#
# Elastic Compliance Matrix: (Units=1/GPa)
#
#
# Indices 1 2 3 4 5 6 
#
# 1 0.012645 -0.004379 -0.003536 0.000000 0.000000 0.000000
# 2 -0.004379 0.012645 -0.003536 0.000000 0.000000 0.000000
# 3 -0.003536 -0.003536 0.018690 0.000000 0.000000 0.000000
# 4 0.000000 0.000000 0.000000 0.078405 0.000000 0.000000
# 5 0.000000 0.000000 0.000000 0.000000 0.078409 0.000000
# 6 0.000000 0.000000 0.000000 0.000000 0.000000 0.031318
#
#
# Mechanical properties :
#
#
# Convention : Reuss Voigt Hill
#
# Bulk Modulus (GPa) = 47.44437 51.30803 49.37620
# Shear Modulus (GPa) = 19.08105 22.78786 20.93446
#
# Velocity S-wave (km/s) = 2.85753 3.12278 2.99309
# Velocity P-wave (km/s) = 5.58484 5.91261 5.75106
#
# Compressibility (1/GPa) = 0.02107732
#
# Stress axis : x y z
#
# Youngs Moduli (GPa) = 79.08219 79.08439 53.50471
#
# Poissons Ratio (x) = 0.34633 0.18919
# Poissons Ratio (y) = 0.34632 0.18919
# Poissons Ratio (z) = 0.27964 0.27964
#
# Static dielectric constant tensor:
#      x y z
#    x 1.970540 0.000000 0.000000 
#    y 0.000000 1.970530 0.000000 
#    z 0.000000 0.000000 1.863880 
# 
# From -- ./inp_files/9646.got.cif
#   From: 2010.05.17/outbox.cif.g08.bks.cpg/sg119_5_cif.got.tgz:9646.got - 2010.05.20 11:21:29.
