data_PCOD9559741
_publ_section_title
;
Structure prediction by ZEFSAII (Michael W. Deem and Ramdas Pophale) SiO2 
 PCOD9559741
Probable space group: I -4 C 2
;
_chemical_formula_sum "Si O2"
_cell_formula_units_Z 60
_cell_length_a 18.755554
_cell_length_b 18.755554
_cell_length_c 7.662126
_cell_angle_alpha 90.000000
_cell_angle_beta 90.000000
_cell_angle_gamma 90.000000
_cell_volume 2695.312238
_symmetry_space_group_name_H-M "I -4 C 2"
_symmetry_group_IT_number 120
_symmetry_cell_setting 'tetragonal'
loop_
_space_group_symop_operation_xyz
x,y,z
y,-x,-z
-x,-y,z
-y,x,-z
y,x,1/2-z
-y,-x,1/2-z
-x,y,1/2+z
x,-y,1/2+z
1/2+x,1/2+y,1/2+z
1/2+y,1/2-x,1/2-z
1/2-x,1/2-y,1/2+z
1/2-y,1/2+x,1/2-z
1/2+y,1/2+x,-z
1/2-y,1/2-x,-z
1/2-x,1/2+y,z
1/2+x,1/2-y,z
loop_
_atom_site_type_symbol
_atom_site_label
_atom_site_fract_x
_atom_site_fract_y
_atom_site_fract_z
Si Si1 0.396338 0.816300 0.242433
Si Si2 0.457356 0.848067 0.864750
Si Si3 0.500000 0.000000 0.500000
Si Si4 0.167508 0.167508 0.250000
Si Si5 0.086756 0.079840 0.544155
O O1 0.473195 0.802518 0.328246
O O2 0.358814 0.893481 0.273952
O O3 0.346301 0.750639 0.276515
O O4 0.420273 0.821655 0.040022
O O5 0.492544 0.926293 0.894991
O O6 0.138590 0.123760 0.417503
O O7 0.095396 0.095396 0.750000
O O8 0.004842 0.096484 0.489502
#
# Coordination Sequence:
#
# PCOD9559741 Si02
#       5
#    16  16   4   8  16
#     4  10  23  40  65  97 136 175 227 274 335 410
#     4  10  20  40  67  97 136 177 223 278 336 397
#     4   8  16  34  68 102 120 166 240 270 300 414
#     4  12  26  41  68 100 142 173 224 284 344 424
#     4  11  21  39  66  95 127 175 239 291 330 386
#
# _framework density 22.260871999999999
#
# number of rings (size 3 to 8) (size 9 to 14) (size 15 to 20)
#    0.000    1.867    2.667    4.000    3.733    1.067 
#    0.000    8.000    2.933    0.000    0.000    0.000 
#    0.000    0.000    0.000    0.000    0.000    0.000 
#
# Total GULP energy -167504.408141 kJ/mol
# GULP energy per Si atom -5583.480271 kJ/mol
# Density = 2.221021 g / cm^3
# Si number density = 22.260872 Si / 1000 Ang^3
#
#
#
# Elastic Constant Matrix: (Units=GPa)
#
#
# Indices 1 2 3 4 5 6 
#
# 1 80.6774 67.2886 -8.9910 0.0000 0.0000 0.0000
# 2 67.2886 80.6774 -8.9910 0.0000 0.0000 0.0000
# 3 -8.9910 -8.9910 70.8147 0.0000 0.0000 0.0000
# 4 0.0000 0.0000 0.0000 17.7411 0.0000 0.0000
# 5 0.0000 0.0000 0.0000 0.0000 17.7411 0.0000
# 6 0.0000 0.0000 0.0000 0.0000 0.0000 44.8681
#
#
#
# Elastic Compliance Matrix: (Units=1/GPa)
#
#
# Indices 1 2 3 4 5 6 
#
# 1 0.040777 -0.033912 0.000872 0.000000 0.000000 0.000000
# 2 -0.033912 0.040777 0.000872 0.000000 0.000000 0.000000
# 3 0.000872 0.000872 0.014343 0.000000 0.000000 0.000000
# 4 0.000000 0.000000 0.000000 0.056366 0.000000 0.000000
# 5 0.000000 0.000000 0.000000 0.000000 0.056366 0.000000
# 6 0.000000 0.000000 0.000000 0.000000 0.000000 0.022288
#
#
# Mechanical properties :
#
#
# Convention : Reuss Voigt Hill
#
# Bulk Modulus (GPa) = 31.68852 36.75365 34.22109
# Shear Modulus (GPa) = 16.35195 28.26092 22.30644
#
# Velocity S-wave (km/s) = 2.71322 3.56692 3.16895
# Velocity P-wave (km/s) = 4.90728 5.78879 5.36617
#
# Compressibility (1/GPa) = 0.03155717
#
# Stress axis : x y z
#
# Youngs Moduli (GPa) = 24.52386 24.52386 69.72202
#
# Poissons Ratio (x) = 0.83166 -0.06076
# Poissons Ratio (y) = 0.83166 -0.06076
# Poissons Ratio (z) = -0.02137 -0.02137
#
# Static dielectric constant tensor:
#      x y z
#    x 1.809050 0.000000 0.000000 
#    y 0.000000 1.809050 0.000000 
#    z 0.000000 0.000000 1.914910 
# 
# From -- ./inp_files/1101.got.cif
#   From: 2010.05.17/outbox.cif.g08.bks.cpg/sg120_1_cif.got.tgz:1101.got - 2010.05.20 11:28:13.
