data_PCOD9559680
_publ_section_title
;
Structure prediction by ZEFSAII (Michael W. Deem and Ramdas Pophale) SiO2 
 PCOD9559680
Probable space group: I -4 C 2
;
_chemical_formula_sum "Si O2"
_cell_formula_units_Z 64
_cell_length_a 16.195832
_cell_length_b 16.195832
_cell_length_c 9.196610
_cell_angle_alpha 90.000000
_cell_angle_beta 90.000000
_cell_angle_gamma 90.000000
_cell_volume 2412.316549
_symmetry_space_group_name_H-M "I -4 C 2"
_symmetry_group_IT_number 120
_symmetry_cell_setting 'tetragonal'
loop_
_space_group_symop_operation_xyz
x,y,z
y,-x,-z
-x,-y,z
-y,x,-z
y,x,1/2-z
-y,-x,1/2-z
-x,y,1/2+z
x,-y,1/2+z
1/2+x,1/2+y,1/2+z
1/2+y,1/2-x,1/2-z
1/2-x,1/2-y,1/2+z
1/2-y,1/2+x,1/2-z
1/2+y,1/2+x,-z
1/2-y,1/2-x,-z
1/2-x,1/2+y,z
1/2+x,1/2-y,z
loop_
_atom_site_type_symbol
_atom_site_label
_atom_site_fract_x
_atom_site_fract_y
_atom_site_fract_z
Si Si1 0.456241 0.329046 0.891438
Si Si2 0.410324 0.910324 0.500000
Si Si3 0.000000 0.500000 0.750000
Si Si4 0.000000 0.000000 0.750000
Si Si5 0.769708 0.502665 0.368114
Si Si6 0.829975 0.670026 0.000000
Si Si7 0.716053 0.716053 0.750000
O O1 0.491343 0.415808 0.841162
O O2 0.495816 0.253674 0.798056
O O3 0.359856 0.307731 0.861448
O O4 0.486054 0.317258 0.054014
O O5 0.470982 0.930362 0.363514
O O6 0.421896 0.824251 0.578611
O O7 0.815280 0.422462 0.436699
O O8 0.782742 0.704746 0.143731
#
# Coordination Sequence:
#
# PCOD9559680 Si02
#       7
#    16   8   4   4  16   8   8
#     4  10  24  42  65  94 121 161 214 264 325 385
#     4  11  22  39  60  89 134 171 210 261 300 367
#     4  10  20  34  60  86 116 182 220 234 296 350
#     4  10  24  48  72  90 124 160 212 284 328 378
#     4  11  24  40  63  97 130 168 214 256 316 393
#     4  10  22  42  64  91 128 166 212 263 316 382
#     4   9  22  42  62  90 124 158 206 269 322 374
#
# _framework density 26.530515999999999
#
# number of rings (size 3 to 8) (size 9 to 14) (size 15 to 20)
#    0.000    1.750    0.000    3.000    0.000   17.000 
#    0.000    0.000    0.000    0.000    0.000    0.000 
#    0.000    0.000    0.000    0.000    0.000    0.000 
#
# Total GULP energy -178737.981362 kJ/mol
# GULP energy per Si atom -5585.561918 kJ/mol
# Density = 2.647013 g / cm^3
# Si number density = 26.530516 Si / 1000 Ang^3
#
#
#
# Elastic Constant Matrix: (Units=GPa)
#
#
# Indices 1 2 3 4 5 6 
#
# 1 63.9654 24.4681 13.4960 0.0000 0.0000 0.0000
# 2 24.4681 63.9660 13.4963 0.0000 0.0000 0.0000
# 3 13.4960 13.4963 110.1798 0.0000 0.0000 0.0000
# 4 0.0000 0.0000 0.0000 28.1300 0.0000 0.0000
# 5 0.0000 0.0000 0.0000 0.0000 28.1307 0.0000
# 6 0.0000 0.0000 0.0000 0.0000 0.0000 30.6525
#
#
#
# Elastic Compliance Matrix: (Units=1/GPa)
#
#
# Indices 1 2 3 4 5 6 
#
# 1 0.018533 -0.006785 -0.001439 0.000000 0.000000 0.000000
# 2 -0.006785 0.018532 -0.001439 0.000000 0.000000 0.000000
# 3 -0.001439 -0.001439 0.009429 0.000000 0.000000 0.000000
# 4 0.000000 0.000000 0.000000 0.035549 0.000000 0.000000
# 5 0.000000 0.000000 0.000000 0.000000 0.035548 0.000000
# 6 0.000000 0.000000 0.000000 0.000000 0.000000 0.032624
#
#
# Mechanical properties :
#
#
# Convention : Reuss Voigt Hill
#
# Bulk Modulus (GPa) = 36.80927 37.89244 37.35085
# Shear Modulus (GPa) = 27.99595 29.82604 28.91099
#
# Velocity S-wave (km/s) = 3.25196 3.35657 3.30468
# Velocity P-wave (km/s) = 5.29195 5.41624 5.35446
#
# Compressibility (1/GPa) = 0.02716707
#
# Stress axis : x y z
#
# Youngs Moduli (GPa) = 53.95889 53.95936 106.06044
#
# Poissons Ratio (x) = 0.36614 0.15261
# Poissons Ratio (y) = 0.36614 0.15262
# Poissons Ratio (z) = 0.07764 0.07765
#
# Static dielectric constant tensor:
#      x y z
#    x 2.146310 0.000000 0.000000 
#    y 0.000000 2.146310 0.000000 
#    z 0.000000 0.000000 2.030290 
# 
# From -- ./inp_files/2433.got.cif
#   From: 2010.05.17/outbox.cif.g08.bks.cpg/sg120_2_cif.got.tgz:2433.got - 2010.05.20 11:28:13.
