data_PCOD9559353
_publ_section_title
;
Structure prediction by ZEFSAII (Michael W. Deem and Ramdas Pophale) SiO2 
 PCOD9559353
Probable space group: I -4 M 2
;
_chemical_formula_sum "Si O2"
_cell_formula_units_Z 112
_cell_length_a 14.316107
_cell_length_b 14.316107
_cell_length_c 27.076240
_cell_angle_alpha 90.000000
_cell_angle_beta 90.000000
_cell_angle_gamma 90.000000
_cell_volume 5549.300288
_symmetry_space_group_name_H-M "I -4 M 2"
_symmetry_group_IT_number 119
_symmetry_cell_setting 'tetragonal'
loop_
_space_group_symop_operation_xyz
x,y,z
y,-x,-z
-x,-y,z
-y,x,-z
y,x,-z
-y,-x,-z
-x,y,z
x,-y,z
1/2+x,1/2+y,1/2+z
1/2+y,1/2-x,1/2-z
1/2-x,1/2-y,1/2+z
1/2-y,1/2+x,1/2-z
1/2+y,1/2+x,1/2-z
1/2-y,1/2-x,1/2-z
1/2-x,1/2+y,1/2+z
1/2+x,1/2-y,1/2+z
loop_
_atom_site_type_symbol
_atom_site_label
_atom_site_fract_x
_atom_site_fract_y
_atom_site_fract_z
Si Si1 0.890951 0.725237 0.446263
Si Si2 0.605608 0.752732 0.488340
Si Si3 0.106356 0.106241 0.291229
Si Si4 0.894896 0.387821 0.343493
Si Si5 0.394304 0.194046 0.375472
Si Si6 0.107262 0.794939 0.608569
Si Si7 0.212199 0.806948 0.792215
O O1 0.834570 0.668873 0.487930
O O2 0.888907 0.659898 0.397326
O O3 0.836956 0.820479 0.431191
O O4 0.000000 0.742087 0.458841
O O5 0.655962 0.655962 0.500000
O O6 0.500000 0.759495 0.507737
O O7 0.602276 0.760302 0.429466
O O8 0.163892 0.139890 0.338512
O O9 0.115703 0.160725 0.240433
O O10 0.000000 0.107075 0.307975
O O11 0.136886 0.000000 0.281882
O O12 0.886023 0.500000 0.347090
O O13 0.810810 0.346007 0.311456
O O14 0.000000 0.367019 0.323723
O O15 0.500000 0.165422 0.361990
O O16 0.316132 0.114940 0.383840
O O17 0.350678 0.265653 0.335841
O O18 0.000000 0.822568 0.599235
O O19 0.229048 0.729048 0.750000
#
# Coordination Sequence:
#
# PCOD9559353 Si02
#       7
#    16  16  16  16  16  16  16
#     4  11  22  41  68  99 136 176 216 260 319 393
#     4  11  23  43  70  99 133 172 216 269 325 383
#     4  10  21  37  61  94 128 168 219 265 316 388
#     4  10  21  36  59  96 136 170 209 259 320 393
#     4  11  24  43  65  92 126 164 214 272 327 382
#     4  11  22  41  67  96 132 173 214 266 328 388
#     4  12  21  38  62  88 123 173 211 267 326 381
#
# _framework density 20.182725999999999
#
# number of rings (size 3 to 8) (size 9 to 14) (size 15 to 20)
#    0.000    1.143    4.286    1.714    0.000    5.000 
#    0.000    2.857    0.000    1.714    0.000    0.000 
#    0.000    0.000    0.000    0.000    0.000    0.000 
#
# Total GULP energy -312709.290866 kJ/mol
# GULP energy per Si atom -5584.094480 kJ/mol
# Density = 2.013679 g / cm^3
# Si number density = 20.182726 Si / 1000 Ang^3
#
#
#
# Elastic Constant Matrix: (Units=GPa)
#
#
# Indices 1 2 3 4 5 6 
#
# 1 134.5517 45.8508 47.3059 0.0000 0.0000 0.0000
# 2 45.8508 134.5517 47.3059 0.0000 0.0000 0.0000
# 3 47.3059 47.3059 91.4050 0.0000 0.0000 0.0000
# 4 0.0000 0.0000 0.0000 26.0560 0.0000 0.0000
# 5 0.0000 0.0000 0.0000 0.0000 26.0560 0.0000
# 6 0.0000 0.0000 0.0000 0.0000 0.0000 23.1020
#
#
#
# Elastic Compliance Matrix: (Units=1/GPa)
#
#
# Indices 1 2 3 4 5 6 
#
# 1 0.009441 -0.001833 -0.003938 0.000000 0.000000 0.000000
# 2 -0.001833 0.009441 -0.003938 0.000000 0.000000 0.000000
# 3 -0.003938 -0.003938 0.015016 0.000000 0.000000 0.000000
# 4 0.000000 0.000000 0.000000 0.038379 0.000000 0.000000
# 5 0.000000 0.000000 0.000000 0.000000 0.038379 0.000000
# 6 0.000000 0.000000 0.000000 0.000000 0.000000 0.043286
#
#
# Mechanical properties :
#
#
# Convention : Reuss Voigt Hill
#
# Bulk Modulus (GPa) = 69.05032 71.27038 70.16035
# Shear Modulus (GPa) = 28.06065 29.71252 28.88659
#
# Velocity S-wave (km/s) = 3.73276 3.84106 3.78729
# Velocity P-wave (km/s) = 7.27082 7.42030 7.34594
#
# Compressibility (1/GPa) = 0.01448219
#
# Stress axis : x y z
#
# Youngs Moduli (GPa) = 105.92072 105.92072 66.59549
#
# Poissons Ratio (x) = 0.19413 0.26222
# Poissons Ratio (y) = 0.19413 0.26222
# Poissons Ratio (z) = 0.41707 0.41707
#
# Static dielectric constant tensor:
#      x y z
#    x 1.742750 0.000000 0.000000 
#    y 0.000000 1.742750 0.000000 
#    z 0.000000 0.000000 1.710930 
# 
# From -- ./inp_files/8827.got.cif
#   From: 2010.05.17/outbox.cif.g08.bks.cpg/sg119_5_cif.got.tgz:8827.got - 2010.05.20 11:21:29.
