data_PCOD9559154
_publ_section_title
;
Structure prediction by ZEFSAII (Michael W. Deem and Ramdas Pophale) SiO2 
 PCOD9559154
Probable space group: I -4 M 2
;
_chemical_formula_sum "Si O2"
_cell_formula_units_Z 112
_cell_length_a 14.879120
_cell_length_b 14.879120
_cell_length_c 26.330476
_cell_angle_alpha 90.000000
_cell_angle_beta 90.000000
_cell_angle_gamma 90.000000
_cell_volume 5829.257002
_symmetry_space_group_name_H-M "I -4 M 2"
_symmetry_group_IT_number 119
_symmetry_cell_setting 'tetragonal'
loop_
_space_group_symop_operation_xyz
x,y,z
y,-x,-z
-x,-y,z
-y,x,-z
y,x,-z
-y,-x,-z
-x,y,z
x,-y,z
1/2+x,1/2+y,1/2+z
1/2+y,1/2-x,1/2-z
1/2-x,1/2-y,1/2+z
1/2-y,1/2+x,1/2-z
1/2+y,1/2+x,1/2-z
1/2-y,1/2-x,1/2-z
1/2-x,1/2+y,1/2+z
1/2+x,1/2-y,1/2+z
loop_
_atom_site_type_symbol
_atom_site_label
_atom_site_fract_x
_atom_site_fract_y
_atom_site_fract_z
Si Si1 0.654047 0.700710 0.917973
Si Si2 0.599695 0.396382 0.179581
Si Si3 0.602820 0.105602 0.188851
Si Si4 0.720890 0.398760 0.536715
Si Si5 0.755242 0.891017 0.761767
Si Si6 0.309544 0.280841 0.358083
Si Si7 0.600268 0.802472 0.016676
O O1 0.604469 0.639577 0.877021
O O2 0.714028 0.768927 0.885387
O O3 0.722241 0.634924 0.947362
O O4 0.603886 0.758901 0.960392
O O5 0.500000 0.354651 0.182233
O O6 0.590851 0.500000 0.194855
O O7 0.673893 0.359962 0.218332
O O8 0.500000 0.132084 0.175137
O O9 0.611032 0.111032 0.250000
O O10 0.683310 0.161416 0.163979
O O11 0.613433 0.000000 0.175222
O O12 0.669027 0.330974 0.500000
O O13 0.697293 0.500000 0.524459
O O14 0.699164 0.376767 0.595396
O O15 0.825883 0.378970 0.525854
O O16 0.662890 0.837111 0.750000
O O17 0.797984 0.853986 0.814139
O O18 0.744396 0.000000 0.761550
O O19 0.500000 0.831113 0.028953
#
# Coordination Sequence:
#
# PCOD9559154 Si02
#       7
#    16  16  16  16  16  16  16
#     4  10  19  36  58  89 122 162 198 244 302 367
#     4  10  21  36  57  88 123 158 201 248 299 367
#     4   9  19  34  54  88 131 168 204 244 295 371
#     4  11  24  44  65  90 124 161 209 261 314 374
#     4  11  24  43  65  91 124 164 210 260 314 367
#     4  11  21  39  60  90 118 162 202 256 312 365
#     4  10  20  38  63  92 125 160 202 254 310 370
#
# _framework density 19.213425999999998
#
# number of rings (size 3 to 8) (size 9 to 14) (size 15 to 20)
#    0.000    1.714    4.286    2.143    0.000    5.143 
#    0.000    0.000    0.000    3.429    0.000    0.000 
#    0.000    0.000    0.000    0.000    0.000    0.000 
#
# Total GULP energy -312379.634357 kJ/mol
# GULP energy per Si atom -5578.207756 kJ/mol
# Density = 1.916970 g / cm^3
# Si number density = 19.213426 Si / 1000 Ang^3
#
#
#
# Elastic Constant Matrix: (Units=GPa)
#
#
# Indices 1 2 3 4 5 6 
#
# 1 64.0323 -3.9442 18.5677 0.0000 0.0000 0.0000
# 2 -3.9442 64.0348 18.5678 0.0000 0.0000 0.0000
# 3 18.5677 18.5678 100.6176 0.0000 0.0000 0.0000
# 4 0.0000 0.0000 0.0000 12.6358 0.0000 0.0000
# 5 0.0000 0.0000 0.0000 0.0000 12.6345 0.0000
# 6 0.0000 0.0000 0.0000 0.0000 0.0000 13.2651
#
#
#
# Elastic Compliance Matrix: (Units=1/GPa)
#
#
# Indices 1 2 3 4 5 6 
#
# 1 0.016748 0.002037 -0.003466 0.000000 0.000000 0.000000
# 2 0.002037 0.016747 -0.003466 0.000000 0.000000 0.000000
# 3 -0.003466 -0.003466 0.011218 0.000000 0.000000 0.000000
# 4 0.000000 0.000000 0.000000 0.079140 0.000000 0.000000
# 5 0.000000 0.000000 0.000000 0.000000 0.079149 0.000000
# 6 0.000000 0.000000 0.000000 0.000000 0.000000 0.075386
#
#
# Mechanical properties :
#
#
# Convention : Reuss Voigt Hill
#
# Bulk Modulus (GPa) = 28.63630 32.78526 30.71078
# Shear Modulus (GPa) = 16.67670 20.73997 18.70834
#
# Velocity S-wave (km/s) = 2.94933 3.28907 3.12382
# Velocity P-wave (km/s) = 5.15119 5.61469 5.38792
#
# Compressibility (1/GPa) = 0.03492071
#
# Stress axis : x y z
#
# Youngs Moduli (GPa) = 59.70950 59.71194 89.14262
#
# Poissons Ratio (x) = -0.12162 0.30901
# Poissons Ratio (y) = -0.12161 0.30900
# Poissons Ratio (z) = 0.20698 0.20698
#
# Static dielectric constant tensor:
#      x y z
#    x 1.677710 0.000000 0.000000 
#    y 0.000000 1.677710 0.000000 
#    z 0.000000 0.000000 1.701110 
# 
# From -- ./inp_files/8810.got.cif
#   From: 2010.05.17/outbox.cif.g08.bks.cpg/sg119_5_cif.got.tgz:8810.got - 2010.05.20 11:21:29.
