data_PCOD9559069
_publ_section_title
;
Structure prediction by ZEFSAII (Michael W. Deem and Ramdas Pophale) SiO2 
 PCOD9559069
Probable space group: I -4 M 2
;
_chemical_formula_sum "Si O2"
_cell_formula_units_Z 112
_cell_length_a 14.567206
_cell_length_b 14.567206
_cell_length_c 31.484456
_cell_angle_alpha 90.000000
_cell_angle_beta 90.000000
_cell_angle_gamma 90.000000
_cell_volume 6681.111464
_symmetry_space_group_name_H-M "I -4 M 2"
_symmetry_group_IT_number 119
_symmetry_cell_setting 'tetragonal'
loop_
_space_group_symop_operation_xyz
x,y,z
y,-x,-z
-x,-y,z
-y,x,-z
y,x,-z
-y,-x,-z
-x,y,z
x,-y,z
1/2+x,1/2+y,1/2+z
1/2+y,1/2-x,1/2-z
1/2-x,1/2-y,1/2+z
1/2-y,1/2+x,1/2-z
1/2+y,1/2+x,1/2-z
1/2-y,1/2-x,1/2-z
1/2-x,1/2+y,1/2+z
1/2+x,1/2-y,1/2+z
loop_
_atom_site_type_symbol
_atom_site_label
_atom_site_fract_x
_atom_site_fract_y
_atom_site_fract_z
Si Si1 0.263451 0.108312 0.451896
Si Si2 0.794997 0.390749 0.789989
Si Si3 0.604915 0.888295 0.375931
Si Si4 0.894330 0.104225 0.746126
Si Si5 0.290736 0.891630 0.788503
Si Si6 0.744513 0.107078 0.549598
Si Si7 0.391857 0.108445 0.873531
O O1 0.341386 0.137344 0.418637
O O2 0.173307 0.168967 0.444543
O O3 0.290633 0.120123 0.501266
O O4 0.244783 0.000000 0.445304
O O5 0.813270 0.500000 0.785346
O O6 0.839214 0.339214 0.750000
O O7 0.839886 0.359196 0.833909
O O8 0.685153 0.378538 0.787684
O O9 0.500000 0.855954 0.374878
O O10 0.602844 0.000000 0.375141
O O11 0.818541 0.118038 0.782542
O O12 0.000000 0.112621 0.760719
O O13 0.882008 0.000000 0.729629
O O14 0.337903 0.837903 0.750000
O O15 0.330700 0.861474 0.833573
O O16 0.312908 0.000000 0.784155
O O17 0.667716 0.126916 0.584705
O O18 0.770735 0.000000 0.553651
O O19 0.500000 0.119316 0.862603
O O20 0.376118 0.000000 0.881194
#
# Coordination Sequence:
#
# PCOD9559069 Si02
#       7
#    16  16  16  16  16  16  16
#     4   9  18  32  49  71  98 127 159 194 233 278
#     4  10  19  31  48  69  94 124 157 195 238 283
#     4   9  18  32  49  70  96 124 156 196 240 285
#     4   9  19  34  48  64  90 127 168 201 229 269
#     4  10  19  31  49  71  96 126 156 192 238 283
#     4   9  18  32  50  71  96 127 160 194 233 278
#     4   9  18  32  50  73  97 120 153 197 242 288
#
# _framework density 16.763677999999999
#
# number of rings (size 3 to 8) (size 9 to 14) (size 15 to 20)
#    0.000    2.714    0.000    1.286    0.000    4.571 
#    0.000    6.429    0.000    2.571    0.000    0.000 
#    0.000    0.000    0.000    3.143    0.000    1.857 
#
# Total GULP energy -312099.096289 kJ/mol
# GULP energy per Si atom -5573.198148 kJ/mol
# Density = 1.672552 g / cm^3
# Si number density = 16.763678 Si / 1000 Ang^3
#
#
#
# Elastic Constant Matrix: (Units=GPa)
#
#
# Indices 1 2 3 4 5 6 
#
# 1 79.0527 55.7029 73.9236 0.0000 0.0000 0.0000
# 2 55.7029 79.0527 73.9236 0.0000 0.0000 0.0000
# 3 73.9236 73.9236 132.2642 0.0000 0.0000 0.0000
# 4 0.0000 0.0000 0.0000 22.3236 0.0000 0.0000
# 5 0.0000 0.0000 0.0000 0.0000 22.3236 0.0000
# 6 0.0000 0.0000 0.0000 0.0000 0.0000 19.0241
#
#
#
# Elastic Compliance Matrix: (Units=1/GPa)
#
#
# Indices 1 2 3 4 5 6 
#
# 1 0.031006 -0.011821 -0.010723 0.000000 0.000000 0.000000
# 2 -0.011821 0.031006 -0.010723 0.000000 0.000000 0.000000
# 3 -0.010723 -0.010723 0.019547 0.000000 0.000000 0.000000
# 4 0.000000 0.000000 0.000000 0.044796 0.000000 0.000000
# 5 0.000000 0.000000 0.000000 0.000000 0.044796 0.000000
# 6 0.000000 0.000000 0.000000 0.000000 0.000000 0.052565
#
#
# Mechanical properties :
#
#
# Convention : Reuss Voigt Hill
#
# Bulk Modulus (GPa) = 66.55054 77.49667 72.02361
# Shear Modulus (GPa) = 16.93438 18.52224 17.72831
#
# Velocity S-wave (km/s) = 3.18179 3.32761 3.25552
# Velocity P-wave (km/s) = 7.29957 7.81622 7.56231
#
# Compressibility (1/GPa) = 0.01502617
#
# Stress axis : x y z
#
# Youngs Moduli (GPa) = 32.25162 32.25162 51.15883
#
# Poissons Ratio (x) = 0.38123 0.54858
# Poissons Ratio (y) = 0.38123 0.54858
# Poissons Ratio (z) = 0.34583 0.34583
#
# Static dielectric constant tensor:
#      x y z
#    x 1.573430 0.000000 0.000000 
#    y 0.000000 1.573430 0.000000 
#    z 0.000000 0.000000 1.546830 
# 
# From -- ./inp_files/9625.got.cif
#   From: 2010.05.17/outbox.cif.g08.bks.cpg/sg119_5_cif.got.tgz:9625.got - 2010.05.20 11:21:29.
