data_PCOD9559938
_publ_section_title
;
Structure prediction by ZEFSAII (Michael W. Deem and Ramdas Pophale) SiO2 
 PCOD9559938
Probable space group: I -4 C 2
;
_chemical_formula_sum "Si O2"
_cell_formula_units_Z 60
_cell_length_a 17.528777
_cell_length_b 17.528777
_cell_length_c 9.511423
_cell_angle_alpha 90.000000
_cell_angle_beta 90.000000
_cell_angle_gamma 90.000000
_cell_volume 2922.461028
_symmetry_space_group_name_H-M "I -4 C 2"
_symmetry_group_IT_number 120
_symmetry_cell_setting 'tetragonal'
loop_
_space_group_symop_operation_xyz
x,y,z
y,-x,-z
-x,-y,z
-y,x,-z
y,x,1/2-z
-y,-x,1/2-z
-x,y,1/2+z
x,-y,1/2+z
1/2+x,1/2+y,1/2+z
1/2+y,1/2-x,1/2-z
1/2-x,1/2-y,1/2+z
1/2-y,1/2+x,1/2-z
1/2+y,1/2+x,-z
1/2-y,1/2-x,-z
1/2-x,1/2+y,z
1/2+x,1/2-y,z
loop_
_atom_site_type_symbol
_atom_site_label
_atom_site_fract_x
_atom_site_fract_y
_atom_site_fract_z
Si Si1 0.461923 0.728650 0.465534
Si Si2 0.872976 0.162384 0.407267
Si Si3 0.000000 0.500000 0.750000
Si Si4 0.180005 0.319996 0.000000
Si Si5 0.529564 0.829281 0.688624
O O1 0.393180 0.669615 0.483145
O O2 0.540120 0.681338 0.447374
O O3 0.468806 0.776333 0.609259
O O4 0.458988 0.791669 0.341578
O O5 0.870118 0.129883 0.250000
O O6 0.828074 0.242213 0.414945
O O7 0.083215 0.497244 0.821301
O O8 0.175876 0.391473 0.895408
#
# Coordination Sequence:
#
# PCOD9559938 Si02
#       5
#    16  16   4   8  16
#     4  11  25  45  71  99 140 173 241 285 344 411
#     4  11  24  46  69 102 136 182 222 291 348 414
#     4  12  24  42  68  94 148 186 220 270 356 386
#     4  10  26  41  68 100 136 183 236 266 350 414
#     4  11  25  44  64 105 137 183 232 286 327 429
#
# _framework density 20.530643000000001
#
# number of rings (size 3 to 8) (size 9 to 14) (size 15 to 20)
#    0.000    1.067    2.667    3.200    3.733    8.533 
#    0.000    1.333    0.000    0.000    0.000    0.000 
#    0.000    0.000    0.000    0.000    0.000    0.000 
#
# Total GULP energy -167597.842521 kJ/mol
# GULP energy per Si atom -5586.594751 kJ/mol
# Density = 2.048391 g / cm^3
# Si number density = 20.530643 Si / 1000 Ang^3
#
#
#
# Elastic Constant Matrix: (Units=GPa)
#
#
# Indices 1 2 3 4 5 6 
#
# 1 83.3104 57.4349 5.6239 0.0000 0.0000 0.0000
# 2 57.4349 83.3145 5.6228 0.0000 0.0000 0.0000
# 3 5.6239 5.6228 59.8278 0.0000 0.0000 0.0000
# 4 0.0000 0.0000 0.0000 17.0896 0.0000 0.0000
# 5 0.0000 0.0000 0.0000 0.0000 17.0888 0.0000
# 6 0.0000 0.0000 0.0000 0.0000 0.0000 37.0669
#
#
#
# Elastic Compliance Matrix: (Units=1/GPa)
#
#
# Indices 1 2 3 4 5 6 
#
# 1 0.022902 -0.015742 -0.000673 0.000000 0.000000 0.000000
# 2 -0.015742 0.022901 -0.000672 0.000000 0.000000 0.000000
# 3 -0.000673 -0.000672 0.016841 0.000000 0.000000 0.000000
# 4 0.000000 0.000000 0.000000 0.058515 0.000000 0.000000
# 5 0.000000 0.000000 0.000000 0.000000 0.058518 0.000000
# 6 0.000000 0.000000 0.000000 0.000000 0.000000 0.026978
#
#
# Mechanical properties :
#
#
# Convention : Reuss Voigt Hill
#
# Bulk Modulus (GPa) = 35.12831 40.42399 37.77615
# Shear Modulus (GPa) = 19.97444 24.76715 22.37080
#
# Velocity S-wave (km/s) = 3.12253 3.47702 3.30453
# Velocity P-wave (km/s) = 5.49068 5.98765 5.74454
#
# Compressibility (1/GPa) = 0.02846707
#
# Stress axis : x y z
#
# Youngs Moduli (GPa) = 43.66484 43.66709 59.37847
#
# Poissons Ratio (x) = 0.68743 0.03998
# Poissons Ratio (y) = 0.68739 0.03993
# Poissons Ratio (z) = 0.02940 0.02936
#
# Static dielectric constant tensor:
#      x y z
#    x 1.731090 0.000000 0.000000 
#    y 0.000000 1.731090 0.000000 
#    z 0.000000 0.000000 1.756760 
# 
# From -- ./inp_files/1081.got.cif
#   From: 2010.05.17/outbox.cif.g08.bks.cpg/sg120_1_cif.got.tgz:1081.got - 2010.05.20 11:28:13.
