data_PCOD9559924
_publ_section_title
;
Structure prediction by ZEFSAII (Michael W. Deem and Ramdas Pophale) SiO2 
 PCOD9559924
Probable space group: I -4 C 2
;
_chemical_formula_sum "Si O2"
_cell_formula_units_Z 96
_cell_length_a 14.086512
_cell_length_b 14.086512
_cell_length_c 21.180480
_cell_angle_alpha 90.000000
_cell_angle_beta 90.000000
_cell_angle_gamma 90.000000
_cell_volume 4202.838841
_symmetry_space_group_name_H-M "I -4 C 2"
_symmetry_group_IT_number 120
_symmetry_cell_setting 'tetragonal'
loop_
_space_group_symop_operation_xyz
x,y,z
y,-x,-z
-x,-y,z
-y,x,-z
y,x,1/2-z
-y,-x,1/2-z
-x,y,1/2+z
x,-y,1/2+z
1/2+x,1/2+y,1/2+z
1/2+y,1/2-x,1/2-z
1/2-x,1/2-y,1/2+z
1/2-y,1/2+x,1/2-z
1/2+y,1/2+x,-z
1/2-y,1/2-x,-z
1/2-x,1/2+y,z
1/2+x,1/2-y,z
loop_
_atom_site_type_symbol
_atom_site_label
_atom_site_fract_x
_atom_site_fract_y
_atom_site_fract_z
Si Si1 0.421873 0.925688 0.657535
Si Si2 0.790247 0.481981 0.444387
Si Si3 0.222030 0.774785 0.571196
Si Si4 0.097035 0.939489 0.389946
Si Si5 0.750138 0.989776 0.082661
Si Si6 0.761323 0.145045 0.307366
O O1 0.460516 0.867461 0.595611
O O2 0.325098 0.979134 0.638814
O O3 0.403906 0.839362 0.705096
O O4 0.500000 0.000000 0.676595
O O5 0.785782 0.373300 0.422415
O O6 0.681989 0.520817 0.433883
O O7 0.806742 0.489252 0.518624
O O8 0.260345 0.760345 0.500000
O O9 0.201633 0.886529 0.576840
O O10 0.293413 0.753413 0.628523
O O11 0.153753 0.927776 0.323840
O O12 0.064660 0.833935 0.409808
O O13 0.000000 0.000000 0.388511
O O14 0.790214 0.209787 0.250000
#
# Coordination Sequence:
#
# PCOD9559924 Si02
#       6
#    16  16  16  16  16  16
#     4  10  24  42  66  99 137 183 240 286 358 429
#     4  11  22  37  62 101 140 178 231 291 351 422
#     4  11  22  40  67  99 137 184 229 287 358 417
#     4  11  23  40  65  99 134 178 240 291 353 417
#     4  11  21  38  63  97 143 179 231 292 350 421
#     4  10  24  48  72  96 142 187 232 292 358 428
#
# _framework density 22.841704
#
# number of rings (size 3 to 8) (size 9 to 14) (size 15 to 20)
#    0.000    1.333    1.667    5.500    4.667    1.000 
#    0.000    6.667    3.667    0.000    0.000    0.000 
#    0.000    0.000    0.000    0.000    0.000    0.000 
#
# Total GULP energy -268484.711444 kJ/mol
# GULP energy per Si atom -5593.431488 kJ/mol
# Density = 2.278972 g / cm^3
# Si number density = 22.841704 Si / 1000 Ang^3
#
#
#
# Elastic Constant Matrix: (Units=GPa)
#
#
# Indices 1 2 3 4 5 6 
#
# 1 103.9527 23.5412 29.2020 0.0000 0.0000 0.0000
# 2 23.5412 103.9526 29.2018 0.0000 0.0000 0.0000
# 3 29.2020 29.2018 69.6382 0.0000 0.0000 0.0000
# 4 0.0000 0.0000 0.0000 11.8266 0.0000 0.0000
# 5 0.0000 0.0000 0.0000 0.0000 11.8279 0.0000
# 6 0.0000 0.0000 0.0000 0.0000 0.0000 48.5664
#
#
#
# Elastic Compliance Matrix: (Units=1/GPa)
#
#
# Indices 1 2 3 4 5 6 
#
# 1 0.011072 -0.001364 -0.004071 0.000000 0.000000 0.000000
# 2 -0.001364 0.011072 -0.004071 0.000000 0.000000 0.000000
# 3 -0.004071 -0.004071 0.017774 0.000000 0.000000 0.000000
# 4 0.000000 0.000000 0.000000 0.084555 0.000000 0.000000
# 5 0.000000 0.000000 0.000000 0.000000 0.084546 0.000000
# 6 0.000000 0.000000 0.000000 0.000000 0.000000 0.020590
#
#
# Mechanical properties :
#
#
# Convention : Reuss Voigt Hill
#
# Bulk Modulus (GPa) = 47.83151 49.04817 48.43984
# Shear Modulus (GPa) = 19.56247 27.48406 23.52327
#
# Velocity S-wave (km/s) = 2.92967 3.47254 3.21259
# Velocity P-wave (km/s) = 5.69472 6.13170 5.91724
#
# Compressibility (1/GPa) = 0.02090672
#
# Stress axis : x y z
#
# Youngs Moduli (GPa) = 90.31582 90.31592 56.26106
#
# Poissons Ratio (x) = 0.12317 0.22905
# Poissons Ratio (y) = 0.12317 0.22904
# Poissons Ratio (z) = 0.36769 0.36769
#
# Static dielectric constant tensor:
#      x y z
#    x 1.879450 0.000000 0.000000 
#    y 0.000000 1.879450 0.000000 
#    z 0.000000 0.000000 1.830440 
# 
# From -- ./inp_files/5331.got.cif
#   From: 2010.05.17/outbox.cif.g08.bks.cpg/sg120_3_cif.got.tgz:5331.got - 2010.05.20 11:28:13.
