data_PCOD9559167
_publ_section_title
;
Structure prediction by ZEFSAII (Michael W. Deem and Ramdas Pophale) SiO2 
 PCOD9559167
Probable space group: I -4 M 2
;
_chemical_formula_sum "Si O2"
_cell_formula_units_Z 112
_cell_length_a 23.778602
_cell_length_b 23.778602
_cell_length_c 12.187330
_cell_angle_alpha 90.000000
_cell_angle_beta 90.000000
_cell_angle_gamma 90.000000
_cell_volume 6890.983444
_symmetry_space_group_name_H-M "I -4 M 2"
_symmetry_group_IT_number 119
_symmetry_cell_setting 'tetragonal'
loop_
_space_group_symop_operation_xyz
x,y,z
y,-x,-z
-x,-y,z
-y,x,-z
y,x,-z
-y,-x,-z
-x,y,z
x,-y,z
1/2+x,1/2+y,1/2+z
1/2+y,1/2-x,1/2-z
1/2-x,1/2-y,1/2+z
1/2-y,1/2+x,1/2-z
1/2+y,1/2+x,1/2-z
1/2-y,1/2-x,1/2-z
1/2-x,1/2+y,1/2+z
1/2+x,1/2-y,1/2+z
loop_
_atom_site_type_symbol
_atom_site_label
_atom_site_fract_x
_atom_site_fract_y
_atom_site_fract_z
Si Si1 0.370617 0.283059 0.749143
Si Si2 0.062535 0.436560 0.380769
Si Si3 0.250415 0.656800 0.771938
Si Si4 0.935677 0.146065 0.066390
Si Si5 0.872082 0.676736 0.091204
Si Si6 0.754920 0.436615 0.588751
Si Si7 0.746988 0.346748 0.018783
O O1 0.306151 0.305227 0.750391
O O2 0.405437 0.327826 0.675194
O O3 0.376881 0.221654 0.691390
O O4 0.383776 0.276192 0.879287
O O5 0.075415 0.500000 0.422992
O O6 0.058200 0.441801 0.250000
O O7 0.113166 0.393191 0.394586
O O8 0.000000 0.419842 0.421619
O O9 0.197259 0.697259 0.750000
O O10 0.251048 0.605781 0.688163
O O11 0.248599 0.631265 0.894816
O O12 0.000000 0.129446 0.091782
O O13 0.901604 0.098397 0.000000
O O14 0.937203 0.197634 0.980991
O O15 0.807371 0.675697 0.056324
O O16 0.910890 0.700291 0.994710
O O17 0.768806 0.500000 0.621838
O O18 0.705541 0.294460 0.000000
#
# Coordination Sequence:
#
# PCOD9559167 Si02
#       7
#    16  16  16  16  16  16  16
#     4  10  20  32  51  83 115 140 175 228 284 342
#     4   9  18  32  48  67  96 137 180 221 272 330
#     4  11  19  34  54  76 109 149 190 230 278 339
#     4  10  20  36  58  84 116 151 181 227 281 337
#     4  11  19  31  52  77 107 135 181 231 276 333
#     4  10  21  34  53  78 110 147 185 227 282 334
#     4  10  20  31  50  79 107 140 178 222 277 340
#
# _framework density 16.253124
#
# number of rings (size 3 to 8) (size 9 to 14) (size 15 to 20)
#    0.000    1.857    2.857    3.857    0.000    0.714 
#    0.000    2.143    0.000    0.000    0.000    0.000 
#    0.000    0.000    0.000    0.000    0.000    0.000 
#
# Total GULP energy -311754.168762 kJ/mol
# GULP energy per Si atom -5567.038728 kJ/mol
# Density = 1.621613 g / cm^3
# Si number density = 16.253124 Si / 1000 Ang^3
#
#
#
# Elastic Constant Matrix: (Units=GPa)
#
#
# Indices 1 2 3 4 5 6 
#
# 1 64.3130 19.6373 46.5638 0.0000 0.0000 0.0000
# 2 19.6373 64.3220 46.5614 0.0000 0.0000 0.0000
# 3 46.5638 46.5614 111.9240 0.0000 0.0000 0.0000
# 4 0.0000 0.0000 0.0000 13.9148 0.0000 0.0000
# 5 0.0000 0.0000 0.0000 0.0000 13.9148 0.0000
# 6 0.0000 0.0000 0.0000 0.0000 0.0000 15.2149
#
#
#
# Elastic Compliance Matrix: (Units=1/GPa)
#
#
# Indices 1 2 3 4 5 6 
#
# 1 0.022252 -0.000132 -0.009203 0.000000 0.000000 0.000000
# 2 -0.000132 0.022247 -0.009200 0.000000 0.000000 0.000000
# 3 -0.009203 -0.009200 0.016591 0.000000 0.000000 0.000000
# 4 0.000000 0.000000 0.000000 0.071866 0.000000 0.000000
# 5 0.000000 0.000000 0.000000 0.000000 0.071866 0.000000
# 6 0.000000 0.000000 0.000000 0.000000 0.000000 0.065725
#
#
# Mechanical properties :
#
#
# Convention : Reuss Voigt Hill
#
# Bulk Modulus (GPa) = 41.63148 51.78710 46.70929
# Shear Modulus (GPa) = 15.84171 17.12865 16.48518
#
# Velocity S-wave (km/s) = 3.12538 3.24986 3.18823
# Velocity P-wave (km/s) = 6.22046 6.78337 6.50800
#
# Compressibility (1/GPa) = 0.02402029
#
# Stress axis : x y z
#
# Youngs Moduli (GPa) = 44.93952 44.95044 60.27542
#
# Poissons Ratio (x) = 0.00593 0.55470
# Poissons Ratio (y) = 0.00593 0.55453
# Poissons Ratio (z) = 0.41357 0.41354
#
# Static dielectric constant tensor:
#      x y z
#    x 1.550020 0.000000 0.000000 
#    y 0.000000 1.550020 0.000000 
#    z 0.000000 0.000000 1.585600 
# 
# From -- ./inp_files/4382.got.cif
#   From: 2010.05.17/outbox.cif.g08.bks.cpg/sg119_3_cif.got.tgz:4382.got - 2010.05.20 11:21:29.
