data_PCOD9559835
_publ_section_title
;
Structure prediction by ZEFSAII (Michael W. Deem and Ramdas Pophale) SiO2 
 PCOD9559835
Probable space group: I -4 C 2
;
_chemical_formula_sum "Si O2"
_cell_formula_units_Z 112
_cell_length_a 14.333335
_cell_length_b 14.333335
_cell_length_c 26.260134
_cell_angle_alpha 90.000000
_cell_angle_beta 90.000000
_cell_angle_gamma 90.000000
_cell_volume 5394.999895
_symmetry_space_group_name_H-M "I -4 C 2"
_symmetry_group_IT_number 120
_symmetry_cell_setting 'tetragonal'
loop_
_space_group_symop_operation_xyz
x,y,z
y,-x,-z
-x,-y,z
-y,x,-z
y,x,1/2-z
-y,-x,1/2-z
-x,y,1/2+z
x,-y,1/2+z
1/2+x,1/2+y,1/2+z
1/2+y,1/2-x,1/2-z
1/2-x,1/2-y,1/2+z
1/2-y,1/2+x,1/2-z
1/2+y,1/2+x,-z
1/2-y,1/2-x,-z
1/2-x,1/2+y,z
1/2+x,1/2-y,z
loop_
_atom_site_type_symbol
_atom_site_label
_atom_site_fract_x
_atom_site_fract_y
_atom_site_fract_z
Si Si1 0.365310 0.249593 0.562423
Si Si2 0.036678 0.098426 0.134909
Si Si3 0.319968 0.821379 0.613121
Si Si4 0.868865 0.062314 0.020228
Si Si5 0.003103 0.210736 0.869447
Si Si6 0.166725 0.148640 0.809844
Si Si7 0.983081 0.401037 0.053714
O O1 0.427709 0.319445 0.598407
O O2 0.262535 0.264844 0.584853
O O3 0.372644 0.294318 0.506938
O O4 0.417200 0.151175 0.556213
O O5 0.131591 0.059296 0.159389
O O6 0.953805 0.132955 0.170792
O O7 0.000000 0.000000 0.110053
O O8 0.290753 0.928895 0.620868
O O9 0.337254 0.767852 0.665646
O O10 0.412038 0.829032 0.579295
O O11 0.828833 0.035019 0.075276
O O12 0.966642 0.115586 0.011864
O O13 0.095453 0.221649 0.836554
O O14 0.160170 0.160170 0.750000
O O15 0.000000 0.500000 0.081009
O O16 0.934065 0.434065 0.000000
#
# Coordination Sequence:
#
# PCOD9559835 Si02
#       7
#    16  16  16  16  16  16  16
#     4  11  22  40  64  99 135 183 224 268 325 411
#     4   9  17  37  61  93 129 162 204 276 343 389
#     4  11  24  44  66  96 128 183 230 275 343 406
#     4  11  19  31  61 100 139 166 205 260 327 407
#     4  10  22  38  64  97 134 166 216 274 338 404
#     4  11  24  43  66  94 127 166 232 294 346 398
#     4  11  26  46  65  97 147 188 225 271 333 415
#
# _framework density 20.759962999999999
#
# number of rings (size 3 to 8) (size 9 to 14) (size 15 to 20)
#    0.000    1.429    4.286    2.571    4.000    2.571 
#    7.714    0.000    0.000    0.000    0.000    0.000 
#    0.000    0.000    0.000    0.000    0.000    0.000 
#
# Total GULP energy -312156.211980 kJ/mol
# GULP energy per Si atom -5574.218071 kJ/mol
# Density = 2.071271 g / cm^3
# Si number density = 20.759963 Si / 1000 Ang^3
#
#
#
# Elastic Constant Matrix: (Units=GPa)
#
#
# Indices 1 2 3 4 5 6 
#
# 1 76.7517 20.7230 38.4127 0.0000 0.0000 0.0000
# 2 20.7230 76.7517 38.4127 0.0000 0.0000 0.0000
# 3 38.4127 38.4127 125.1943 0.0000 0.0000 0.0000
# 4 0.0000 0.0000 0.0000 17.4286 0.0000 0.0000
# 5 0.0000 0.0000 0.0000 0.0000 17.4286 0.0000
# 6 0.0000 0.0000 0.0000 0.0000 0.0000 36.1369
#
#
#
# Elastic Compliance Matrix: (Units=1/GPa)
#
#
# Indices 1 2 3 4 5 6 
#
# 1 0.015690 -0.002158 -0.004152 0.000000 0.000000 0.000000
# 2 -0.002158 0.015690 -0.004152 0.000000 0.000000 0.000000
# 3 -0.004152 -0.004152 0.010535 0.000000 0.000000 0.000000
# 4 0.000000 0.000000 0.000000 0.057377 0.000000 0.000000
# 5 0.000000 0.000000 0.000000 0.000000 0.057377 0.000000
# 6 0.000000 0.000000 0.000000 0.000000 0.000000 0.027673
#
#
# Mechanical properties :
#
#
# Convention : Reuss Voigt Hill
#
# Bulk Modulus (GPa) = 47.63958 52.64383 50.14171
# Shear Modulus (GPa) = 23.55582 26.27543 24.91562
#
# Velocity S-wave (km/s) = 3.37215 3.56150 3.46811
# Velocity P-wave (km/s) = 6.17734 6.50582 6.34371
#
# Compressibility (1/GPa) = 0.02099095
#
# Stress axis : x y z
#
# Youngs Moduli (GPa) = 63.73629 63.73629 94.91897
#
# Poissons Ratio (x) = 0.13756 0.39408
# Poissons Ratio (y) = 0.13756 0.39408
# Poissons Ratio (z) = 0.26462 0.26462
#
# Static dielectric constant tensor:
#      x y z
#    x 1.797890 0.000000 0.000000 
#    y 0.000000 1.797890 0.000000 
#    z 0.000000 0.000000 1.734370 
# 
# From -- ./inp_files/5942.got.cif
#   From: 2010.05.17/outbox.cif.g08.bks.cpg/sg120_3_cif.got.tgz:5942.got - 2010.05.20 11:28:13.
