data_PCOD9559056
_publ_section_title
;
Structure prediction by ZEFSAII (Michael W. Deem and Ramdas Pophale) SiO2 
 PCOD9559056
Probable space group: I -4 M 2
;
_chemical_formula_sum "Si O2"
_cell_formula_units_Z 88
_cell_length_a 15.306819
_cell_length_b 15.306819
_cell_length_c 23.057093
_cell_angle_alpha 90.000000
_cell_angle_beta 90.000000
_cell_angle_gamma 90.000000
_cell_volume 5402.247098
_symmetry_space_group_name_H-M "I -4 M 2"
_symmetry_group_IT_number 119
_symmetry_cell_setting 'tetragonal'
loop_
_space_group_symop_operation_xyz
x,y,z
y,-x,-z
-x,-y,z
-y,x,-z
y,x,-z
-y,-x,-z
-x,y,z
x,-y,z
1/2+x,1/2+y,1/2+z
1/2+y,1/2-x,1/2-z
1/2-x,1/2-y,1/2+z
1/2-y,1/2+x,1/2-z
1/2+y,1/2+x,1/2-z
1/2-y,1/2-x,1/2-z
1/2-x,1/2+y,1/2+z
1/2+x,1/2-y,1/2+z
loop_
_atom_site_type_symbol
_atom_site_label
_atom_site_fract_x
_atom_site_fract_y
_atom_site_fract_z
Si Si1 0.899225 0.899225 0.000000
Si Si2 0.600238 0.654388 0.918724
Si Si3 0.095793 0.726327 0.520334
Si Si4 0.731155 0.104210 0.215619
Si Si5 0.604036 0.401184 0.210564
Si Si6 0.736363 0.896640 0.079457
O O1 0.882695 0.831921 0.948007
O O2 0.000000 0.888143 0.018581
O O3 0.500000 0.621907 0.929234
O O4 0.680238 0.600876 0.946275
O O5 0.611776 0.654653 0.849857
O O6 0.606629 0.746060 0.953125
O O7 0.169431 0.663326 0.544269
O O8 0.000000 0.688080 0.529611
O O9 0.658827 0.158827 0.250000
O O10 0.825456 0.123604 0.243969
O O11 0.731614 0.125244 0.147425
O O12 0.715883 0.000000 0.221721
O O13 0.500000 0.395768 0.196694
O O14 0.620473 0.500000 0.231775
O O15 0.716064 0.000000 0.073289
#
# Coordination Sequence:
#
# PCOD9559056 Si02
#       6
#     8  16  16  16  16  16
#     4   9  18  34  56  76  92 115 152 204 260 297
#     4   9  17  28  45  70  95 120 152 188 232 286
#     4  10  19  30  46  68  97 131 160 190 230 277
#     4  10  21  34  48  69  97 130 166 199 231 273
#     4   9  17  30  48  70  97 126 155 192 239 288
#     4  10  21  35  50  70  95 125 165 205 237 277
#
# _framework density 16.289518999999999
#
# number of rings (size 3 to 8) (size 9 to 14) (size 15 to 20)
#    0.000    2.455    0.000    2.727    0.000    5.273 
#    0.000    9.091    0.000    0.000    0.000    0.000 
#    0.000    0.364    0.000    0.000    0.000    9.273 
#
# Total GULP energy -245126.684143 kJ/mol
# GULP energy per Si atom -5571.061003 kJ/mol
# Density = 1.625244 g / cm^3
# Si number density = 16.289519 Si / 1000 Ang^3
#
#
#
# Elastic Constant Matrix: (Units=GPa)
#
#
# Indices 1 2 3 4 5 6 
#
# 1 72.6067 53.7833 50.5421 0.0000 0.0000 0.0000
# 2 53.7833 72.6067 50.5421 0.0000 0.0000 0.0000
# 3 50.5421 50.5421 82.1097 0.0000 0.0000 0.0000
# 4 0.0000 0.0000 0.0000 21.3602 0.0000 0.0000
# 5 0.0000 0.0000 0.0000 0.0000 21.3602 0.0000
# 6 0.0000 0.0000 0.0000 0.0000 0.0000 23.3793
#
#
#
# Elastic Compliance Matrix: (Units=1/GPa)
#
#
# Indices 1 2 3 4 5 6 
#
# 1 0.034355 -0.018771 -0.009593 0.000000 0.000000 0.000000
# 2 -0.018771 0.034355 -0.009593 0.000000 0.000000 0.000000
# 3 -0.009593 -0.009593 0.023988 0.000000 0.000000 0.000000
# 4 0.000000 0.000000 0.000000 0.046816 0.000000 0.000000
# 5 0.000000 0.000000 0.000000 0.000000 0.046816 0.000000
# 6 0.000000 0.000000 0.000000 0.000000 0.000000 0.042773
#
#
# Mechanical properties :
#
#
# Convention : Reuss Voigt Hill
#
# Bulk Modulus (GPa) = 59.57460 59.67312 59.62386
# Shear Modulus (GPa) = 16.09738 18.05033 17.07385
#
# Velocity S-wave (km/s) = 3.14698 3.33242 3.24103
# Velocity P-wave (km/s) = 7.06091 7.17768 7.11953
#
# Compressibility (1/GPa) = 0.01678568
#
# Stress axis : x y z
#
# Youngs Moduli (GPa) = 29.10807 29.10807 41.68725
#
# Poissons Ratio (x) = 0.54638 0.39989
# Poissons Ratio (y) = 0.54638 0.39989
# Poissons Ratio (z) = 0.27922 0.27922
#
# Static dielectric constant tensor:
#      x y z
#    x 1.545960 0.000000 0.000000 
#    y 0.000000 1.545960 0.000000 
#    z 0.000000 0.000000 1.543250 
# 
# From -- ./inp_files/8680.got.cif
#   From: 2010.05.17/outbox.cif.g08.bks.cpg/sg119_5_cif.got.tgz:8680.got - 2010.05.20 11:21:29.
