data_PCOD9559119
_publ_section_title
;
Structure prediction by ZEFSAII (Michael W. Deem and Ramdas Pophale) SiO2 
 PCOD9559119
Probable space group: I -4 M 2
;
_chemical_formula_sum "Si O2"
_cell_formula_units_Z 56
_cell_length_a 13.556074
_cell_length_b 13.556074
_cell_length_c 17.206763
_cell_angle_alpha 90.000000
_cell_angle_beta 90.000000
_cell_angle_gamma 90.000000
_cell_volume 3162.037665
_symmetry_space_group_name_H-M "I -4 M 2"
_symmetry_group_IT_number 119
_symmetry_cell_setting 'tetragonal'
loop_
_space_group_symop_operation_xyz
x,y,z
y,-x,-z
-x,-y,z
-y,x,-z
y,x,-z
-y,-x,-z
-x,y,z
x,-y,z
1/2+x,1/2+y,1/2+z
1/2+y,1/2-x,1/2-z
1/2-x,1/2-y,1/2+z
1/2-y,1/2+x,1/2-z
1/2+y,1/2+x,1/2-z
1/2-y,1/2-x,1/2-z
1/2-x,1/2+y,1/2+z
1/2+x,1/2-y,1/2+z
loop_
_atom_site_type_symbol
_atom_site_label
_atom_site_fract_x
_atom_site_fract_y
_atom_site_fract_z
Si Si1 0.704899 0.383217 0.077558
Si Si2 0.108968 0.119323 0.738306
Si Si3 0.767943 0.386290 0.364125
Si Si4 0.391532 0.608469 0.500000
O O1 0.699282 0.500000 0.062009
O O2 0.630903 0.358595 0.148379
O O3 0.811755 0.353708 0.111779
O O4 0.675918 0.324083 0.000000
O O5 0.200129 0.150064 0.792506
O O6 0.000000 0.156252 0.760737
O O7 0.107396 0.000000 0.745898
O O8 0.799615 0.500000 0.350063
O O9 0.692482 0.385937 0.436425
O O10 0.500000 0.614275 0.461859
#
# Coordination Sequence:
#
# PCOD9559119 Si02
#       4
#    16  16  16   8
#     4  11  22  36  53  76 108 145 185 224 268 322
#     4   9  18  33  54  78 102 132 173 221 268 314
#     4  10  19  33  53  78 108 138 174 222 276 328
#     4   9  16  28  50  78 105 132 166 216 271 316
#
# _framework density 17.710097999999999
#
# number of rings (size 3 to 8) (size 9 to 14) (size 15 to 20)
#    0.000    2.143    1.429    2.571    0.000    5.429 
#    0.000    0.000    0.000    5.143    0.000    0.000 
#    0.000    4.571    0.000    0.000    0.000    0.000 
#
# Total GULP energy -156041.153162 kJ/mol
# GULP energy per Si atom -5572.898327 kJ/mol
# Density = 1.766979 g / cm^3
# Si number density = 17.710098 Si / 1000 Ang^3
#
#
#
# Elastic Constant Matrix: (Units=GPa)
#
#
# Indices 1 2 3 4 5 6 
#
# 1 54.5435 21.1191 23.7292 0.0000 0.0000 0.0000
# 2 21.1191 54.5432 23.7297 0.0000 0.0000 0.0000
# 3 23.7292 23.7297 84.7402 0.0000 0.0000 0.0000
# 4 0.0000 0.0000 0.0000 22.0288 0.0000 0.0000
# 5 0.0000 0.0000 0.0000 0.0000 22.0280 0.0000
# 6 0.0000 0.0000 0.0000 0.0000 0.0000 23.4249
#
#
#
# Elastic Compliance Matrix: (Units=1/GPa)
#
#
# Indices 1 2 3 4 5 6 
#
# 1 0.022975 -0.006943 -0.004489 0.000000 0.000000 0.000000
# 2 -0.006943 0.022976 -0.004490 0.000000 0.000000 0.000000
# 3 -0.004489 -0.004490 0.014315 0.000000 0.000000 0.000000
# 4 0.000000 0.000000 0.000000 0.045395 0.000000 0.000000
# 5 0.000000 0.000000 0.000000 0.000000 0.045397 0.000000
# 6 0.000000 0.000000 0.000000 0.000000 0.000000 0.042690
#
#
# Mechanical properties :
#
#
# Convention : Reuss Voigt Hill
#
# Bulk Modulus (GPa) = 35.18372 36.77586 35.97979
# Shear Modulus (GPa) = 21.27067 21.84629 21.55848
#
# Velocity S-wave (km/s) = 3.46937 3.51600 3.49277
# Velocity P-wave (km/s) = 5.99653 6.10685 6.05194
#
# Compressibility (1/GPa) = 0.02842224
#
# Stress axis : x y z
#
# Youngs Moduli (GPa) = 43.52486 43.52433 69.85602
#
# Poissons Ratio (x) = 0.30218 0.31361
# Poissons Ratio (y) = 0.30219 0.31363
# Poissons Ratio (z) = 0.19540 0.19541
#
# Static dielectric constant tensor:
#      x y z
#    x 1.612220 0.000000 0.000000 
#    y 0.000000 1.612220 0.000000 
#    z 0.000000 0.000000 1.616400 
# 
# From -- ./inp_files/4925.got.cif
#   From: 2010.05.17/outbox.cif.g08.bks.cpg/sg119_3_cif.got.tgz:4925.got - 2010.05.20 11:21:29.
