data_PCOD9559191
_publ_section_title
;
Structure prediction by ZEFSAII (Michael W. Deem and Ramdas Pophale) SiO2 
 PCOD9559191
Probable space group: I -4 M 2
;
_chemical_formula_sum "Si O2"
_cell_formula_units_Z 96
_cell_length_a 25.242196
_cell_length_b 25.242196
_cell_length_c 7.425488
_cell_angle_alpha 90.000000
_cell_angle_beta 90.000000
_cell_angle_gamma 90.000000
_cell_volume 4731.286746
_symmetry_space_group_name_H-M "I -4 M 2"
_symmetry_group_IT_number 119
_symmetry_cell_setting 'tetragonal'
loop_
_space_group_symop_operation_xyz
x,y,z
y,-x,-z
-x,-y,z
-y,x,-z
y,x,-z
-y,-x,-z
-x,y,z
x,-y,z
1/2+x,1/2+y,1/2+z
1/2+y,1/2-x,1/2-z
1/2-x,1/2-y,1/2+z
1/2-y,1/2+x,1/2-z
1/2+y,1/2+x,1/2-z
1/2-y,1/2-x,1/2-z
1/2-x,1/2+y,1/2+z
1/2+x,1/2-y,1/2+z
loop_
_atom_site_type_symbol
_atom_site_label
_atom_site_fract_x
_atom_site_fract_y
_atom_site_fract_z
Si Si1 0.147120 0.441478 0.214975
Si Si2 0.058522 0.352882 0.714975
Si Si3 0.588403 0.733507 0.781132
Si Si4 0.706592 0.293410 0.212598
Si Si5 0.088404 0.766491 0.718875
Si Si6 0.442592 0.352647 0.500002
O O1 0.130708 0.500000 0.282119
O O2 0.105072 0.394929 0.250000
O O3 0.207420 0.429439 0.274023
O O4 0.150409 0.444298 1.000000
O O5 0.105070 0.394931 0.750000
O O6 0.070563 0.292582 0.774026
O O7 0.000000 0.369292 0.782118
O O8 0.649615 0.725984 0.724705
O O9 0.560670 0.686430 0.672759
O O10 0.582558 0.728835 0.000004
O O11 0.750001 0.250001 0.250000
O O12 0.649617 0.274015 0.275298
O O13 0.700754 0.299247 0.000000
O O14 0.060671 0.813568 0.827252
O O15 0.394461 0.394461 0.500000
O O16 0.500000 0.379577 0.499998
#
# Coordination Sequence:
#
# PCOD9559191 Si02
#       6
#    16  16  16  16  16  16
#     4  10  22  39  59  85 120 164 213 265 315 367
#     4  10  22  39  59  85 120 164 213 265 315 367
#     4  10  22  42  63  93 128 163 209 257 313 378
#     4  10  20  32  58  92 128 167 195 247 315 371
#     4  10  22  42  63  93 128 163 209 257 313 378
#     4  12  26  43  70  98 125 167 209 255 317 380
#
# _framework density 20.290462999999999
#
# number of rings (size 3 to 8) (size 9 to 14) (size 15 to 20)
#    0.000    1.667    1.667    2.000    4.667    3.167 
#    0.000    1.667    0.000    0.000    0.000    2.333 
#    0.000    0.000    0.000    0.000    0.000    0.000 
#
# Total GULP energy -267910.777023 kJ/mol
# GULP energy per Si atom -5581.474521 kJ/mol
# Density = 2.024428 g / cm^3
# Si number density = 20.290463 Si / 1000 Ang^3
#
#
#
# Elastic Constant Matrix: (Units=GPa)
#
#
# Indices 1 2 3 4 5 6 
#
# 1 148.4742 72.8749 27.0682 0.0000 0.0000 0.0000
# 2 72.8749 148.4894 27.0669 0.0000 0.0000 0.0000
# 3 27.0682 27.0669 80.5352 0.0000 0.0000 0.0000
# 4 0.0000 0.0000 0.0000 -8.1612 0.0000 0.0000
# 5 0.0000 0.0000 0.0000 0.0000 -8.1674 0.0000
# 6 0.0000 0.0000 0.0000 0.0000 0.0000 8.5300
#
#
#
# Elastic Compliance Matrix: (Units=1/GPa)
#
#
# Indices 1 2 3 4 5 6 
#
# 1 0.009075 -0.004152 -0.001655 0.000000 0.000000 0.000000
# 2 -0.004152 0.009074 -0.001654 0.000000 0.000000 0.000000
# 3 -0.001655 -0.001654 0.013529 0.000000 0.000000 0.000000
# 4 0.000000 0.000000 0.000000 -0.122531 0.000000 0.000000
# 5 0.000000 0.000000 0.000000 0.000000 -0.122438 0.000000
# 6 0.000000 0.000000 0.000000 0.000000 0.000000 0.117233
#
#
# Mechanical properties :
#
#
# Convention : Reuss Voigt Hill
#
# Bulk Modulus (GPa) = 59.68007 70.16876 64.92442
# Shear Modulus (GPa) = -66.18051 15.13953 -25.52049
#
# Velocity S-wave (km/s) = -5.71729 2.73452 -3.55034
# Velocity P-wave (km/s) = 3.75585 6.68037 3.90646
#
# Compressibility (1/GPa) = 0.01675601
#
# Stress axis : x y z
#
# Youngs Moduli (GPa) = 110.19566 110.20842 73.91557
#
# Poissons Ratio (x) = 0.45759 0.12230
# Poissons Ratio (y) = 0.45754 0.12226
# Poissons Ratio (z) = 0.18233 0.18229
#
# Static dielectric constant tensor:
#      x y z
#    x 1.717720 0.000000 0.000000 
#    y 0.000000 1.717720 0.000000 
#    z 0.000000 0.000000 1.780520 
# 
# From -- ./inp_files/2724.got.cif
#   From: 2010.05.17/outbox.cif.g08.bks.cpg/sg119_2_cif.got.tgz:2724.got - 2010.05.20 11:21:29.
