data_PCOD9559186
_publ_section_title
;
Structure prediction by ZEFSAII (Michael W. Deem and Ramdas Pophale) SiO2 
 PCOD9559186
Probable space group: I -4 M 2
;
_chemical_formula_sum "Si O2"
_cell_formula_units_Z 46
_cell_length_a 10.280087
_cell_length_b 10.280087
_cell_length_c 24.520029
_cell_angle_alpha 90.000000
_cell_angle_beta 90.000000
_cell_angle_gamma 90.000000
_cell_volume 2591.281292
_symmetry_space_group_name_H-M "I -4 M 2"
_symmetry_group_IT_number 119
_symmetry_cell_setting 'tetragonal'
loop_
_space_group_symop_operation_xyz
x,y,z
y,-x,-z
-x,-y,z
-y,x,-z
y,x,-z
-y,-x,-z
-x,y,z
x,-y,z
1/2+x,1/2+y,1/2+z
1/2+y,1/2-x,1/2-z
1/2-x,1/2-y,1/2+z
1/2-y,1/2+x,1/2-z
1/2+y,1/2+x,1/2-z
1/2-y,1/2-x,1/2-z
1/2-x,1/2+y,1/2+z
1/2+x,1/2-y,1/2+z
loop_
_atom_site_type_symbol
_atom_site_label
_atom_site_fract_x
_atom_site_fract_y
_atom_site_fract_z
Si Si1 0.000000 0.280385 0.259067
Si Si2 0.500000 0.500000 0.692931
Si Si3 0.500000 0.500000 0.500000
Si Si4 0.651384 0.244436 0.054678
Si Si5 0.352338 0.500000 0.127359
Si Si6 0.000000 0.790922 0.903257
O O1 0.872581 0.372581 0.250000
O O2 0.000000 0.243451 0.322429
O O3 0.000000 0.140083 0.226033
O O4 0.376960 0.500000 0.651338
O O5 0.500000 0.380692 0.457663
O O6 0.500000 0.225320 0.039937
O O7 0.662695 0.374834 0.089664
O O8 0.703096 0.126955 0.090796
O O9 0.734114 0.265887 0.000000
O O10 0.500000 0.500000 0.149078
#
# Coordination Sequence:
#
# PCOD9559186 Si02
#       6
#     8   4   2  16   8   8
#     4  11  23  43  67  97 120 159 213 265 308 368
#     4  11  24  43  66  86 131 168 203 254 330 362
#     4  10  20  32  52  68 112 156 182 220 290 352
#     4  11  21  36  60  90 122 159 204 249 306 369
#     4  10  21  38  63  87 117 160 203 247 306 361
#     4  11  22  38  54  87 122 161 196 245 304 374
#
# _framework density 17.751836999999998
#
# number of rings (size 3 to 8) (size 9 to 14) (size 15 to 20)
#    0.000    1.217    4.348    2.609    0.000    0.000 
#    0.000    1.739    0.000    0.000    0.000    0.000 
#    0.000    0.000    0.000    0.000    0.000    0.000 
#
# Total GULP energy -128263.628270 kJ/mol
# GULP energy per Si atom -5576.679490 kJ/mol
# Density = 1.771143 g / cm^3
# Si number density = 17.751837 Si / 1000 Ang^3
#
#
#
# Elastic Constant Matrix: (Units=GPa)
#
#
# Indices 1 2 3 4 5 6 
#
# 1 116.5082 49.8193 22.0402 0.0000 0.0000 0.0000
# 2 49.8193 116.5090 22.0405 0.0000 0.0000 0.0000
# 3 22.0402 22.0405 46.1635 0.0000 0.0000 0.0000
# 4 0.0000 0.0000 0.0000 -102.0881 0.0000 0.0000
# 5 0.0000 0.0000 0.0000 0.0000 -102.1241 0.0000
# 6 0.0000 0.0000 0.0000 0.0000 0.0000 32.8868
#
#
#
# Elastic Compliance Matrix: (Units=1/GPa)
#
#
# Indices 1 2 3 4 5 6 
#
# 1 0.010939 -0.004056 -0.003286 0.000000 0.000000 0.000000
# 2 -0.004056 0.010939 -0.003286 0.000000 0.000000 0.000000
# 3 -0.003286 -0.003286 0.024800 0.000000 0.000000 0.000000
# 4 0.000000 0.000000 0.000000 -0.009795 0.000000 0.000000
# 5 0.000000 0.000000 0.000000 0.000000 -0.009792 0.000000
# 6 0.000000 0.000000 0.000000 0.000000 0.000000 0.030407
#
#
# Mechanical properties :
#
#
# Convention : Reuss Voigt Hill
#
# Bulk Modulus (GPa) = 39.33711 51.88673 45.61192
# Shear Modulus (GPa) = 57.32053 -21.91302 17.70376
#
# Velocity S-wave (km/s) = 5.68859 -3.51723 3.16142
# Velocity P-wave (km/s) = 8.08420 3.57741 6.25108
#
# Compressibility (1/GPa) = 0.02542129
#
# Stress axis : x y z
#
# Youngs Moduli (GPa) = 91.41551 91.41594 40.32232
#
# Poissons Ratio (x) = 0.37077 0.13251
# Poissons Ratio (y) = 0.37077 0.13251
# Poissons Ratio (z) = 0.30042 0.30042
#
# Static dielectric constant tensor:
#      x y z
#    x 1.615080 0.000000 0.000000 
#    y 0.000000 1.615070 0.000000 
#    z 0.000000 0.000000 1.570880 
# 
# From -- ./inp_files/9928.got.cif
#   From: 2010.05.17/outbox.cif.g08.bks.cpg/sg119_5_cif.got.tgz:9928.got - 2010.05.20 11:21:29.
