data_PCOD9559596
_publ_section_title
;
Structure prediction by ZEFSAII (Michael W. Deem and Ramdas Pophale) SiO2 
 PCOD9559596
Probable space group: I -4 C 2
;
_chemical_formula_sum "Si O2"
_cell_formula_units_Z 84
_cell_length_a 12.320219
_cell_length_b 12.320219
_cell_length_c 26.931350
_cell_angle_alpha 90.000000
_cell_angle_beta 90.000000
_cell_angle_gamma 90.000000
_cell_volume 4087.850265
_symmetry_space_group_name_H-M "I -4 C 2"
_symmetry_group_IT_number 120
_symmetry_cell_setting 'tetragonal'
loop_
_space_group_symop_operation_xyz
x,y,z
y,-x,-z
-x,-y,z
-y,x,-z
y,x,1/2-z
-y,-x,1/2-z
-x,y,1/2+z
x,-y,1/2+z
1/2+x,1/2+y,1/2+z
1/2+y,1/2-x,1/2-z
1/2-x,1/2-y,1/2+z
1/2-y,1/2+x,1/2-z
1/2+y,1/2+x,-z
1/2-y,1/2-x,-z
1/2-x,1/2+y,z
1/2+x,1/2-y,z
loop_
_atom_site_type_symbol
_atom_site_label
_atom_site_fract_x
_atom_site_fract_y
_atom_site_fract_z
Si Si1 0.255358 0.039437 0.360250
Si Si2 0.042860 0.342169 0.913063
Si Si3 0.000000 0.500000 0.500000
Si Si4 0.400071 0.426551 0.109185
Si Si5 0.156573 0.929657 0.699933
Si Si6 0.097914 0.419813 0.685432
O O1 0.348020 0.102816 0.390373
O O2 0.170048 0.123466 0.336581
O O3 0.191884 0.951187 0.392736
O O4 0.306561 0.963831 0.317382
O O5 0.058837 0.213857 0.917442
O O6 0.954001 0.368942 0.870829
O O7 0.006933 0.397754 0.963548
O O8 0.500000 0.500000 0.091362
O O9 0.374282 0.465098 0.166587
O O10 0.089687 0.910314 0.750000
O O11 0.285609 0.925231 0.711576
O O12 0.000000 0.500000 0.699773
#
# Coordination Sequence:
#
# PCOD9559596 Si02
#       6
#    16  16   4  16  16  16
#     4  10  18  36  59  84 126 170 208 260 333 387
#     4  10  20  38  66  94 122 163 219 267 340 397
#     4  12  20  40  72  96 122 168 234 290 324 436
#     4   9  20  37  64  86 130 173 207 264 331 401
#     4  10  21  37  57  91 124 174 221 264 315 388
#     4   9  18  38  57  85 125 164 202 261 322 388
#
# _framework density 20.548696
#
# number of rings (size 3 to 8) (size 9 to 14) (size 15 to 20)
#    0.000    2.286    2.857    1.143    0.000    3.429 
#   13.714    0.952    0.000    0.000    0.000    0.000 
#    0.000    0.000    0.000    0.000    0.000    0.000 
#
# Total GULP energy -234164.339199 kJ/mol
# GULP energy per Si atom -5575.341410 kJ/mol
# Density = 2.050193 g / cm^3
# Si number density = 20.548696 Si / 1000 Ang^3
#
#
#
# Elastic Constant Matrix: (Units=GPa)
#
#
# Indices 1 2 3 4 5 6 
#
# 1 128.2698 40.0807 22.3748 0.0000 0.0000 0.0000
# 2 40.0807 128.2695 22.3748 0.0000 0.0000 0.0000
# 3 22.3748 22.3748 87.3727 0.0000 0.0000 0.0000
# 4 0.0000 0.0000 0.0000 -486.4345 0.0002 0.0000
# 5 0.0000 0.0000 0.0000 0.0002 -484.6437 0.0000
# 6 0.0000 0.0000 0.0000 0.0000 0.0000 12.9338
#
#
#
# Elastic Compliance Matrix: (Units=1/GPa)
#
#
# Indices 1 2 3 4 5 6 
#
# 1 0.008857 -0.002483 -0.001632 0.000000 0.000000 0.000000
# 2 -0.002483 0.008857 -0.001632 0.000000 0.000000 0.000000
# 3 -0.001632 -0.001632 0.012281 0.000000 0.000000 0.000000
# 4 0.000000 0.000000 0.000000 -0.002056 0.000000 0.000000
# 5 0.000000 0.000000 0.000000 0.000000 -0.002063 0.000000
# 6 0.000000 0.000000 0.000000 0.000000 0.000000 0.077317
#
#
# Mechanical properties :
#
#
# Convention : Reuss Voigt Hill
#
# Bulk Modulus (GPa) = 54.05420 57.06362 55.55891
# Shear Modulus (GPa) = 41.37249 -174.35677 -66.49214
#
# Velocity S-wave (km/s) = 4.49195 -9.22143 -5.69461
# Velocity P-wave (km/s) = 7.29835 9.24929 4.01768
#
# Compressibility (1/GPa) = 0.01849995
#
# Stress axis : x y z
#
# Youngs Moduli (GPa) = 112.91053 112.91031 81.42517
#
# Poissons Ratio (x) = 0.28032 0.13291
# Poissons Ratio (y) = 0.28032 0.13291
# Poissons Ratio (z) = 0.18430 0.18430
#
# Static dielectric constant tensor:
#      x y z
#    x 2.443380 0.000000 0.000000 
#    y 0.000000 2.445520 0.000000 
#    z 0.000000 0.000000 1.747170 
# 
# From -- ./inp_files/6564.got.cif
#   From: 2010.05.17/outbox.cif.g08.bks.cpg/sg120_4_cif.got.tgz:6564.got - 2010.05.20 11:28:13.
