data_PCOD9559982
_publ_section_title
;
Structure prediction by ZEFSAII (Michael W. Deem and Ramdas Pophale) SiO2 
 PCOD9559982
Probable space group: I -4 C 2
;
_chemical_formula_sum "Si O2"
_cell_formula_units_Z 72
_cell_length_a 18.801739
_cell_length_b 18.801739
_cell_length_c 8.815308
_cell_angle_alpha 90.000000
_cell_angle_beta 90.000000
_cell_angle_gamma 90.000000
_cell_volume 3116.258887
_symmetry_space_group_name_H-M "I -4 C 2"
_symmetry_group_IT_number 120
_symmetry_cell_setting 'tetragonal'
loop_
_space_group_symop_operation_xyz
x,y,z
y,-x,-z
-x,-y,z
-y,x,-z
y,x,1/2-z
-y,-x,1/2-z
-x,y,1/2+z
x,-y,1/2+z
1/2+x,1/2+y,1/2+z
1/2+y,1/2-x,1/2-z
1/2-x,1/2-y,1/2+z
1/2-y,1/2+x,1/2-z
1/2+y,1/2+x,-z
1/2-y,1/2-x,-z
1/2-x,1/2+y,z
1/2+x,1/2-y,z
loop_
_atom_site_type_symbol
_atom_site_label
_atom_site_fract_x
_atom_site_fract_y
_atom_site_fract_z
Si Si1 0.068201 0.568201 0.500000
Si Si2 0.350194 0.955976 0.306242
Si Si3 0.317496 0.182505 0.000000
Si Si4 0.695212 0.695212 0.750000
Si Si5 0.114550 0.972402 0.475107
Si Si6 0.209128 0.040767 0.250207
O O1 0.070018 0.623324 0.359090
O O2 0.088465 0.496658 0.403483
O O3 0.320027 0.891746 0.407215
O O4 0.287649 0.011902 0.271034
O O5 0.305419 0.242857 0.873817
O O6 0.701954 0.617621 0.827127
O O7 0.179549 0.949638 0.581799
O O8 0.048801 0.919232 0.480352
O O9 0.151991 0.986122 0.316730
#
# Coordination Sequence:
#
# PCOD9559982 Si02
#       6
#     8  16   8   8  16  16
#     4  12  26  50  80 119 154 201 264 339 408 485
#     4  12  28  50  83 115 160 208 271 339 415 495
#     4  12  30  52  76 115 156 212 274 339 414 496
#     4  12  26  50  71 108 156 203 262 334 408 508
#     4  11  22  40  67 107 148 198 257 316 380 462
#     4  12  24  44  73 105 153 202 256 315 401 477
#
# _framework density 23.104628000000002
#
# number of rings (size 3 to 8) (size 9 to 14) (size 15 to 20)
#    0.000    0.222    2.222    7.333    0.000   10.667 
#    0.000    0.000    0.000    0.000    0.000    0.000 
#    0.000    0.000    0.000    0.000    0.000    0.000 
#
# Total GULP energy -201176.980262 kJ/mol
# GULP energy per Si atom -5588.249452 kJ/mol
# Density = 2.305204 g / cm^3
# Si number density = 23.104628 Si / 1000 Ang^3
#
#
#
# Elastic Constant Matrix: (Units=GPa)
#
#
# Indices 1 2 3 4 5 6 
#
# 1 122.8743 80.3430 57.2817 0.0000 0.0000 0.0000
# 2 80.3430 122.8748 57.2807 0.0000 0.0000 0.0000
# 3 57.2817 57.2807 127.8701 0.0000 0.0000 0.0000
# 4 0.0000 0.0000 0.0000 35.2328 0.0000 0.0000
# 5 0.0000 0.0000 0.0000 0.0000 35.2328 0.0000
# 6 0.0000 0.0000 0.0000 0.0000 0.0000 47.3315
#
#
#
# Elastic Compliance Matrix: (Units=1/GPa)
#
#
# Indices 1 2 3 4 5 6 
#
# 1 0.015048 -0.008464 -0.002949 0.000000 0.000000 0.000000
# 2 -0.008464 0.015048 -0.002949 0.000000 0.000000 0.000000
# 3 -0.002949 -0.002949 0.010463 0.000000 0.000000 0.000000
# 4 0.000000 0.000000 0.000000 0.028383 0.000000 0.000000
# 5 0.000000 0.000000 0.000000 0.000000 0.028383 0.000000
# 6 0.000000 0.000000 0.000000 0.000000 0.000000 0.021128
#
#
# Mechanical properties :
#
#
# Convention : Reuss Voigt Hill
#
# Bulk Modulus (GPa) = 84.50998 84.82556 84.66777
# Shear Modulus (GPa) = 33.08625 35.47368 34.27996
#
# Velocity S-wave (km/s) = 3.78831 3.92260 3.85604
# Velocity P-wave (km/s) = 7.46937 7.57028 7.51999
#
# Compressibility (1/GPa) = 0.01183292
#
# Stress axis : x y z
#
# Youngs Moduli (GPa) = 66.45496 66.45594 95.57825
#
# Poissons Ratio (x) = 0.56250 0.28189
# Poissons Ratio (y) = 0.56249 0.28186
# Poissons Ratio (z) = 0.19599 0.19598
#
# Static dielectric constant tensor:
#      x y z
#    x 1.870900 0.000000 0.000000 
#    y 0.000000 1.870900 0.000000 
#    z 0.000000 0.000000 1.869110 
# 
# From -- ./inp_files/1383.got.cif
#   From: 2010.05.17/outbox.cif.g08.bks.cpg/sg120_1_cif.got.tgz:1383.got - 2010.05.20 11:28:13.
