data_PCOD9559899
_publ_section_title
;
Structure prediction by ZEFSAII (Michael W. Deem and Ramdas Pophale) SiO2 
 PCOD9559899
Probable space group: I -4 C 2
;
_chemical_formula_sum "Si O2"
_cell_formula_units_Z 56
_cell_length_a 16.354158
_cell_length_b 16.354158
_cell_length_c 8.227496
_cell_angle_alpha 90.000000
_cell_angle_beta 90.000000
_cell_angle_gamma 90.000000
_cell_volume 2200.513606
_symmetry_space_group_name_H-M "I -4 C 2"
_symmetry_group_IT_number 120
_symmetry_cell_setting 'tetragonal'
loop_
_space_group_symop_operation_xyz
x,y,z
y,-x,-z
-x,-y,z
-y,x,-z
y,x,1/2-z
-y,-x,1/2-z
-x,y,1/2+z
x,-y,1/2+z
1/2+x,1/2+y,1/2+z
1/2+y,1/2-x,1/2-z
1/2-x,1/2-y,1/2+z
1/2-y,1/2+x,1/2-z
1/2+y,1/2+x,-z
1/2-y,1/2-x,-z
1/2-x,1/2+y,z
1/2+x,1/2-y,z
loop_
_atom_site_type_symbol
_atom_site_label
_atom_site_fract_x
_atom_site_fract_y
_atom_site_fract_z
Si Si1 0.258043 0.882463 0.038494
Si Si2 0.000000 0.500000 0.250000
Si Si3 0.816118 0.522941 0.712647
Si Si4 0.500000 0.500000 0.000000
Si Si5 0.156374 0.904724 0.583920
O O1 0.161864 0.868546 0.047733
O O2 0.295099 0.936615 0.886910
O O3 0.295321 0.795321 0.000000
O O4 0.291195 0.927606 0.197545
O O5 0.087510 0.524999 0.170105
O O6 0.748260 0.562969 0.592573
O O7 0.473078 0.414851 0.915174
O O8 0.144617 0.855384 0.750000
#
# Coordination Sequence:
#
# PCOD9559899 Si02
#       5
#    16   4  16   4  16
#     4  11  23  46  65 102 145 185 242 304 365 438
#     4  12  24  46  76 106 148 198 248 290 372 430
#     4  11  24  44  70 102 143 188 247 298 364 448
#     4  12  18  40  76  98 136 180 242 292 386 416
#     4  10  23  42  67 103 143 183 235 303 372 446
#
# _framework density 25.448605000000001
#
# number of rings (size 3 to 8) (size 9 to 14) (size 15 to 20)
#    0.000    1.143    5.714    0.429    0.000    2.286 
#    5.143    1.429    0.000    0.000    0.000    0.000 
#    0.000    0.000    0.000    0.000    0.000    0.000 
#
# Total GULP energy -156020.743133 kJ/mol
# GULP energy per Si atom -5572.169398 kJ/mol
# Density = 2.539068 g / cm^3
# Si number density = 25.448605 Si / 1000 Ang^3
#
#
#
# Elastic Constant Matrix: (Units=GPa)
#
#
# Indices 1 2 3 4 5 6 
#
# 1 143.2157 121.6523 19.9713 0.0000 0.0000 0.0000
# 2 121.6523 143.2149 19.9707 0.0000 0.0000 0.0000
# 3 19.9713 19.9707 49.3768 0.0000 0.0000 0.0000
# 4 0.0000 0.0000 0.0000 -7.6630 0.0000 0.0000
# 5 0.0000 0.0000 0.0000 0.0000 -7.6627 0.0000
# 6 0.0000 0.0000 0.0000 0.0000 0.0000 57.2569
#
#
#
# Elastic Compliance Matrix: (Units=1/GPa)
#
#
# Indices 1 2 3 4 5 6 
#
# 1 0.025198 -0.021178 -0.001626 0.000000 0.000000 0.000000
# 2 -0.021178 0.025198 -0.001626 0.000000 0.000000 0.000000
# 3 -0.001626 -0.001626 0.021568 0.000000 0.000000 0.000000
# 4 0.000000 0.000000 0.000000 -0.130497 0.000000 0.000000
# 5 0.000000 0.000000 0.000000 0.000000 -0.130502 0.000000
# 6 0.000000 0.000000 0.000000 0.000000 0.000000 0.017465
#
#
# Mechanical properties :
#
#
# Convention : Reuss Voigt Hill
#
# Bulk Modulus (GPa) = 43.28172 73.22177 58.25175
# Shear Modulus (GPa) = -43.47547 20.00044 -11.73752
#
# Velocity S-wave (km/s) = -4.13772 2.80646 -2.14994
# Velocity P-wave (km/s) = 2.40483 6.27188 4.09593
#
# Compressibility (1/GPa) = 0.02310444
#
# Stress axis : x y z
#
# Youngs Moduli (GPa) = 39.68540 39.68530 46.36518
#
# Poissons Ratio (x) = 0.84044 0.07541
# Poissons Ratio (y) = 0.84044 0.07539
# Poissons Ratio (z) = 0.06455 0.06453
#
# Static dielectric constant tensor:
#      x y z
#    x 2.095640 0.000000 0.000000 
#    y 0.000000 2.095630 0.000000 
#    z 0.000000 0.000000 2.065190 
# 
# From -- ./inp_files/2235.got.cif
#   From: 2010.05.17/outbox.cif.g08.bks.cpg/sg120_2_cif.got.tgz:2235.got - 2010.05.20 11:28:13.
