data_PCOD9559451
_publ_section_title
;
Structure prediction by ZEFSAII (Michael W. Deem and Ramdas Pophale) SiO2 
 PCOD9559451
Probable space group: I -4 M 2
;
_chemical_formula_sum "Si O2"
_cell_formula_units_Z 72
_cell_length_a 11.515512
_cell_length_b 11.515512
_cell_length_c 31.372148
_cell_angle_alpha 90.000000
_cell_angle_beta 90.000000
_cell_angle_gamma 90.000000
_cell_volume 4160.166951
_symmetry_space_group_name_H-M "I -4 M 2"
_symmetry_group_IT_number 119
_symmetry_cell_setting 'tetragonal'
loop_
_space_group_symop_operation_xyz
x,y,z
y,-x,-z
-x,-y,z
-y,x,-z
y,x,-z
-y,-x,-z
-x,y,z
x,-y,z
1/2+x,1/2+y,1/2+z
1/2+y,1/2-x,1/2-z
1/2-x,1/2-y,1/2+z
1/2-y,1/2+x,1/2-z
1/2+y,1/2+x,1/2-z
1/2-y,1/2-x,1/2-z
1/2-x,1/2+y,1/2+z
1/2+x,1/2-y,1/2+z
loop_
_atom_site_type_symbol
_atom_site_label
_atom_site_fract_x
_atom_site_fract_y
_atom_site_fract_z
Si Si1 0.245070 0.713548 0.618364
Si Si2 0.360383 0.134670 0.201838
Si Si3 0.308595 0.500000 0.490220
Si Si4 0.500000 0.641243 0.605116
Si Si5 0.137690 0.500000 0.566029
Si Si6 0.860676 0.864933 0.452217
O O1 0.186715 0.715743 0.664599
O O2 0.379325 0.680725 0.625437
O O3 0.185092 0.609172 0.592138
O O4 0.215910 0.818728 0.586389
O O5 0.500000 0.132994 0.200047
O O6 0.329374 0.170627 0.250000
O O7 0.321757 0.000000 0.194664
O O8 0.388241 0.611760 0.500000
O O9 0.293659 0.500000 0.440170
O O10 0.196989 0.500000 0.519809
O O11 0.500000 0.500000 0.598964
O O12 0.000000 0.500000 0.563879
O O13 0.824195 0.824195 0.500000
O O14 0.000000 0.867500 0.453571
O O15 0.820906 0.000000 0.445911
#
# Coordination Sequence:
#
# PCOD9559451 Si02
#       6
#    16  16   8   8   8  16
#     4  12  21  35  55  80 110 142 182 218 272 324
#     4   9  17  31  53  81 109 133 165 222 286 331
#     4  11  18  36  51  66 103 154 182 203 260 321
#     4  12  22  36  54  75 113 156 176 216 268 326
#     4  12  23  31  52  82 106 133 185 230 263 317
#     4   9  20  38  56  76 108 149 186 226 274 315
#
# _framework density 17.306996000000002
#
# number of rings (size 3 to 8) (size 9 to 14) (size 15 to 20)
#    0.000    1.444    5.556    3.333    3.111    0.000 
#    0.000    0.556    2.444    0.000    0.000    0.000 
#    0.000    0.000    0.000    0.000    0.000    0.000 
#
# Total GULP energy -200825.208323 kJ/mol
# GULP energy per Si atom -5578.478009 kJ/mol
# Density = 1.726760 g / cm^3
# Si number density = 17.306996 Si / 1000 Ang^3
#
#
#
# Elastic Constant Matrix: (Units=GPa)
#
#
# Indices 1 2 3 4 5 6 
#
# 1 62.3530 12.4221 22.1994 0.0000 0.0000 0.0000
# 2 12.4221 62.3534 22.1998 0.0000 0.0000 0.0000
# 3 22.1994 22.1998 118.9137 0.0000 0.0000 0.0000
# 4 0.0000 0.0000 0.0000 25.4724 0.0000 0.0000
# 5 0.0000 0.0000 0.0000 0.0000 25.4685 0.0000
# 6 0.0000 0.0000 0.0000 0.0000 0.0000 16.2894
#
#
#
# Elastic Compliance Matrix: (Units=1/GPa)
#
#
# Indices 1 2 3 4 5 6 
#
# 1 0.017534 -0.002493 -0.002808 0.000000 0.000000 0.000000
# 2 -0.002493 0.017534 -0.002808 0.000000 0.000000 0.000000
# 3 -0.002808 -0.002808 0.009458 0.000000 0.000000 0.000000
# 4 0.000000 0.000000 0.000000 0.039258 0.000000 0.000000
# 5 0.000000 0.000000 0.000000 0.000000 0.039264 0.000000
# 6 0.000000 0.000000 0.000000 0.000000 0.000000 0.061390
#
#
# Mechanical properties :
#
#
# Convention : Reuss Voigt Hill
#
# Bulk Modulus (GPa) = 35.32624 39.69586 37.51105
# Shear Modulus (GPa) = 23.79906 25.89931 24.84918
#
# Velocity S-wave (km/s) = 3.71227 3.87261 3.79329
# Velocity P-wave (km/s) = 6.23141 6.55609 6.39581
#
# Compressibility (1/GPa) = 0.02830757
#
# Stress axis : x y z
#
# Youngs Moduli (GPa) = 57.03160 57.03178 105.73231
#
# Poissons Ratio (x) = 0.14221 0.29688
# Poissons Ratio (y) = 0.14221 0.29689
# Poissons Ratio (z) = 0.16014 0.16014
#
# Static dielectric constant tensor:
#      x y z
#    x 1.603160 0.000000 0.000000 
#    y 0.000000 1.603150 0.000000 
#    z 0.000000 0.000000 1.596480 
# 
# From -- ./inp_files/10067.got.cif
#   From: 2010.05.17/outbox.cif.g08.bks.cpg/sg119_6_cif.got.tgz:10067.got - 2010.05.20 11:21:29.
