data_PCOD9559656
_publ_section_title
;
Structure prediction by ZEFSAII (Michael W. Deem and Ramdas Pophale) SiO2 
 PCOD9559656
Probable space group: I -4 C 2
;
_chemical_formula_sum "Si O2"
_cell_formula_units_Z 104
_cell_length_a 17.547976
_cell_length_b 17.547976
_cell_length_c 17.156737
_cell_angle_alpha 90.000000
_cell_angle_beta 90.000000
_cell_angle_gamma 90.000000
_cell_volume 5283.099102
_symmetry_space_group_name_H-M "I -4 C 2"
_symmetry_group_IT_number 120
_symmetry_cell_setting 'tetragonal'
loop_
_space_group_symop_operation_xyz
x,y,z
y,-x,-z
-x,-y,z
-y,x,-z
y,x,1/2-z
-y,-x,1/2-z
-x,y,1/2+z
x,-y,1/2+z
1/2+x,1/2+y,1/2+z
1/2+y,1/2-x,1/2-z
1/2-x,1/2-y,1/2+z
1/2-y,1/2+x,1/2-z
1/2+y,1/2+x,-z
1/2-y,1/2-x,-z
1/2-x,1/2+y,z
1/2+x,1/2-y,z
loop_
_atom_site_type_symbol
_atom_site_label
_atom_site_fract_x
_atom_site_fract_y
_atom_site_fract_z
Si Si1 0.917567 0.917567 0.250000
Si Si2 0.704042 0.094639 0.599775
Si Si3 0.468275 0.122600 0.760418
Si Si4 0.543990 0.733215 0.650360
Si Si5 0.863915 0.033470 0.604105
Si Si6 0.884553 0.742428 0.572802
Si Si7 0.105085 0.832608 0.498669
O O1 0.930565 0.838581 0.202722
O O2 0.978561 0.913981 0.319619
O O3 0.656262 0.037840 0.652746
O O4 0.791434 0.086656 0.625985
O O5 0.705483 0.080886 0.506794
O O6 0.667765 0.178140 0.611273
O O7 0.552088 0.089726 0.745411
O O8 0.447799 0.189286 0.699309
O O9 0.454719 0.728930 0.624864
O O10 0.590360 0.726031 0.568959
O O11 0.905287 0.083714 0.538585
O O12 0.828699 0.958432 0.567313
O O13 0.834407 0.812242 0.540359
#
# Coordination Sequence:
#
# PCOD9559656 Si02
#       7
#     8  16  16  16  16  16  16
#     4  10  22  36  65  88 128 168 214 261 338 388
#     4  10  19  40  66  88 125 174 208 274 324 387
#     4  11  23  40  67  97 131 170 218 273 337 389
#     4  11  20  40  65  95 128 173 218 270 327 401
#     4  10  20  38  62  88 127 167 217 266 324 390
#     4  10  21  39  68  89 127 174 218 265 333 388
#     4  10  20  38  63  92 125 171 218 267 321 396
#
# _framework density 19.685414999999999
#
# number of rings (size 3 to 8) (size 9 to 14) (size 15 to 20)
#    0.000    1.692    6.154    0.000    0.000    0.308 
#    0.000   10.000    3.385    0.000    0.000    0.000 
#    0.000    0.000    0.000    0.000    0.000    0.000 
#
# Total GULP energy -289835.970590 kJ/mol
# GULP energy per Si atom -5573.768665 kJ/mol
# Density = 1.964061 g / cm^3
# Si number density = 19.685415 Si / 1000 Ang^3
#
#
#
# Elastic Constant Matrix: (Units=GPa)
#
#
# Indices 1 2 3 4 5 6 
#
# 1 82.2455 32.3226 36.8407 0.0000 0.0000 0.0000
# 2 32.3226 82.2455 36.8407 0.0000 0.0000 0.0000
# 3 36.8407 36.8407 84.5742 0.0000 0.0000 0.0000
# 4 0.0000 0.0000 0.0000 24.9106 0.0000 0.0000
# 5 0.0000 0.0000 0.0000 0.0000 24.9106 0.0000
# 6 0.0000 0.0000 0.0000 0.0000 0.0000 27.0713
#
#
#
# Elastic Compliance Matrix: (Units=1/GPa)
#
#
# Indices 1 2 3 4 5 6 
#
# 1 0.016078 -0.003953 -0.005282 0.000000 0.000000 0.000000
# 2 -0.003953 0.016078 -0.005282 0.000000 0.000000 0.000000
# 3 -0.005282 -0.005282 0.016425 0.000000 0.000000 0.000000
# 4 0.000000 0.000000 0.000000 0.040143 0.000000 0.000000
# 5 0.000000 0.000000 0.000000 0.000000 0.040143 0.000000
# 6 0.000000 0.000000 0.000000 0.000000 0.000000 0.036940
#
#
# Mechanical properties :
#
#
# Convention : Reuss Voigt Hill
#
# Bulk Modulus (GPa) = 51.15394 51.23034 51.19214
# Shear Modulus (GPa) = 24.83149 24.91592 24.87371
#
# Velocity S-wave (km/s) = 3.55549 3.56153 3.55852
# Velocity P-wave (km/s) = 6.54962 6.55696 6.55329
#
# Compressibility (1/GPa) = 0.01954884
#
# Stress axis : x y z
#
# Youngs Moduli (GPa) = 62.19646 62.19646 60.88111
#
# Poissons Ratio (x) = 0.24585 0.32156
# Poissons Ratio (y) = 0.24585 0.32156
# Poissons Ratio (z) = 0.32851 0.32851
#
# Static dielectric constant tensor:
#      x y z
#    x 1.701880 0.000000 0.000000 
#    y 0.000000 1.701880 0.000000 
#    z 0.000000 0.000000 1.735470 
# 
# From -- ./inp_files/4526.got.cif
#   From: 2010.05.17/outbox.cif.g08.bks.cpg/sg120_3_cif.got.tgz:4526.got - 2010.05.20 11:28:13.
