data_PCOD9559955
_publ_section_title
;
Structure prediction by ZEFSAII (Michael W. Deem and Ramdas Pophale) SiO2 
 PCOD9559955
Probable space group: I -4 C 2
;
_chemical_formula_sum "Si O2"
_cell_formula_units_Z 128
_cell_length_a 24.166011
_cell_length_b 24.166011
_cell_length_c 12.148500
_cell_angle_alpha 90.000000
_cell_angle_beta 90.000000
_cell_angle_gamma 90.000000
_cell_volume 7094.676471
_symmetry_space_group_name_H-M "I -4 C 2"
_symmetry_group_IT_number 120
_symmetry_cell_setting 'tetragonal'
loop_
_space_group_symop_operation_xyz
x,y,z
y,-x,-z
-x,-y,z
-y,x,-z
y,x,1/2-z
-y,-x,1/2-z
-x,y,1/2+z
x,-y,1/2+z
1/2+x,1/2+y,1/2+z
1/2+y,1/2-x,1/2-z
1/2-x,1/2-y,1/2+z
1/2-y,1/2+x,1/2-z
1/2+y,1/2+x,-z
1/2-y,1/2-x,-z
1/2-x,1/2+y,z
1/2+x,1/2-y,z
loop_
_atom_site_type_symbol
_atom_site_label
_atom_site_fract_x
_atom_site_fract_y
_atom_site_fract_z
Si Si1 0.092445 0.298874 0.587373
Si Si2 0.247494 0.338200 0.012131
Si Si3 0.918892 0.604362 0.209466
Si Si4 0.086102 0.527861 0.905239
Si Si5 0.734311 0.214201 0.354348
Si Si6 0.783460 0.864413 0.264233
Si Si7 0.055152 0.285078 0.350561
Si Si8 0.928339 0.292288 0.327838
O O1 0.064636 0.359017 0.573180
O O2 0.156841 0.295059 0.617299
O O3 0.082379 0.273718 0.468692
O O4 0.066658 0.274669 0.699603
O O5 0.265890 0.355711 0.890838
O O6 0.185301 0.314700 0.000000
O O7 0.280073 0.283374 0.053628
O O8 0.244821 0.387046 0.100453
O O9 0.933306 0.553274 0.289616
O O10 0.925719 0.659719 0.283657
O O11 0.855334 0.595184 0.174686
O O12 0.964268 0.603009 0.112739
O O13 0.043106 0.543106 0.000000
O O14 0.774235 0.225766 0.250000
O O15 0.681076 0.251121 0.313784
O O16 0.846846 0.846846 0.250000
O O17 0.764873 0.924379 0.225740
O O18 0.990295 0.291895 0.371714
#
# Coordination Sequence:
#
# PCOD9559955 Si02
#       8
#    16  16  16  16  16  16  16  16
#     4  11  22  38  60  80 112 147 193 245 312 368
#     4  12  21  38  61  86 121 144 193 258 310 365
#     4  11  22  42  56  77 105 140 214 256 305 350
#     4  11  23  41  58  72 100 149 197 266 304 346
#     4  11  21  36  59  93 112 144 190 251 315 377
#     4  11  23  37  61  88 114 149 195 249 307 377
#     4  12  24  39  61  83 115 157 202 251 307 372
#     4  11  26  40  57  85 114 158 202 255 311 360
#
# _framework density 18.041696000000002
#
# number of rings (size 3 to 8) (size 9 to 14) (size 15 to 20)
#    0.000    0.750    7.500    3.000    1.750    1.250 
#    0.000    5.000    0.000    0.000    0.000    0.000 
#    0.000    0.000    0.000    2.250    4.500    0.000 
#
# Total GULP energy -356615.670579 kJ/mol
# GULP energy per Si atom -5572.119853 kJ/mol
# Density = 1.800063 g / cm^3
# Si number density = 18.041696 Si / 1000 Ang^3
#
#
#
# Elastic Constant Matrix: (Units=GPa)
#
#
# Indices 1 2 3 4 5 6 
#
# 1 44.9175 41.6389 14.9895 0.0000 0.0000 0.0000
# 2 41.6389 44.9152 14.9876 0.0000 0.0000 0.0000
# 3 14.9895 14.9876 88.4384 0.0000 0.0000 0.0000
# 4 0.0000 0.0000 0.0000 -46.2373 0.0000 0.0000
# 5 0.0000 0.0000 0.0000 0.0000 -46.1662 0.0000
# 6 0.0000 0.0000 0.0000 0.0000 0.0000 22.5828
#
#
#
# Elastic Compliance Matrix: (Units=1/GPa)
#
#
# Indices 1 2 3 4 5 6 
#
# 1 0.158689 -0.146418 -0.002083 0.000000 0.000000 0.000000
# 2 -0.146418 0.158695 -0.002077 0.000000 0.000000 0.000000
# 3 -0.002083 -0.002077 0.012012 0.000000 0.000000 0.000000
# 4 0.000000 0.000000 0.000000 -0.021628 0.000000 0.000000
# 5 0.000000 0.000000 0.000000 0.000000 -0.021661 0.000000
# 6 0.000000 0.000000 0.000000 0.000000 0.000000 0.044282
#
#
# Mechanical properties :
#
#
# Convention : Reuss Voigt Hill
#
# Bulk Modulus (GPa) = 35.41167 35.72254 35.56711
# Shear Modulus (GPa) = 7.80081 -6.85379 0.47351
#
# Velocity S-wave (km/s) = 2.08162 -1.95118 0.51286
# Velocity P-wave (km/s) = 5.04458 3.84276 4.48412
#
# Compressibility (1/GPa) = 0.02823928
#
# Stress axis : x y z
#
# Youngs Moduli (GPa) = 6.30165 6.30140 83.24738
#
# Poissons Ratio (x) = 0.92264 0.17340
# Poissons Ratio (y) = 0.92267 0.17294
# Poissons Ratio (z) = 0.01313 0.01309
#
# Static dielectric constant tensor:
#      x y z
#    x 1.833000 0.000000 0.000000 
#    y 0.000000 1.833180 0.000000 
#    z 0.000000 0.000000 1.782930 
# 
# From -- ./inp_files/2912.got.cif
#   From: 2010.05.17/outbox.cif.g08.bks.cpg/sg120_2_cif.got.tgz:2912.got - 2010.05.20 11:28:13.
