data_PCOD9559241
_publ_section_title
;
Structure prediction by ZEFSAII (Michael W. Deem and Ramdas Pophale) SiO2 
 PCOD9559241
Probable space group: I -4 M 2
;
_chemical_formula_sum "Si O2"
_cell_formula_units_Z 88
_cell_length_a 14.198429
_cell_length_b 14.198429
_cell_length_c 24.201922
_cell_angle_alpha 90.000000
_cell_angle_beta 90.000000
_cell_angle_gamma 90.000000
_cell_volume 4878.995809
_symmetry_space_group_name_H-M "I -4 M 2"
_symmetry_group_IT_number 119
_symmetry_cell_setting 'tetragonal'
loop_
_space_group_symop_operation_xyz
x,y,z
y,-x,-z
-x,-y,z
-y,x,-z
y,x,-z
-y,-x,-z
-x,y,z
x,-y,z
1/2+x,1/2+y,1/2+z
1/2+y,1/2-x,1/2-z
1/2-x,1/2-y,1/2+z
1/2-y,1/2+x,1/2-z
1/2+y,1/2+x,1/2-z
1/2-y,1/2-x,1/2-z
1/2-x,1/2+y,1/2+z
1/2+x,1/2-y,1/2+z
loop_
_atom_site_type_symbol
_atom_site_label
_atom_site_fract_x
_atom_site_fract_y
_atom_site_fract_z
Si Si1 0.391937 0.721436 0.666133
Si Si2 0.890410 0.390410 0.250000
Si Si3 0.743775 0.389921 0.465685
Si Si4 0.609341 0.611549 0.149031
Si Si5 0.737100 0.609219 0.742553
Si Si6 0.611518 0.273004 0.958075
O O1 0.500000 0.695869 0.680087
O O2 0.372521 0.819212 0.699299
O O3 0.385732 0.727778 0.600349
O O4 0.320321 0.646113 0.690116
O O5 0.878432 0.500000 0.233014
O O6 0.659607 0.340394 0.500000
O O7 0.755703 0.500000 0.480721
O O8 0.834604 0.322904 0.473589
O O9 0.500000 0.627838 0.130814
O O10 0.618016 0.500000 0.160170
O O11 0.625131 0.670155 0.204357
O O12 0.685090 0.636850 0.102242
O O13 0.758134 0.500000 0.738333
O O14 0.829442 0.670559 0.750000
O O15 0.500000 0.260897 0.960385
O O16 0.647528 0.352472 0.000000
#
# Coordination Sequence:
#
# PCOD9559241 Si02
#       6
#    16   8  16  16  16  16
#     4  10  20  36  60  87 115 146 184 228 284 351
#     4   9  18  32  56  94 133 156 170 208 283 370
#     4  10  23  41  58  80 111 152 200 245 287 331
#     4   9  18  33  55  83 113 142 172 216 281 353
#     4  11  22  36  53  76 107 143 187 236 283 331
#     4  10  20  34  56  84 114 146 182 225 275 338
#
# _framework density 18.036498000000002
#
# number of rings (size 3 to 8) (size 9 to 14) (size 15 to 20)
#    0.000    2.091    0.909    2.182    0.000    4.182 
#    0.000    3.636    0.000    0.000    0.000    5.091 
#    0.000    0.000    0.000    0.000    0.000    0.000 
#
# Total GULP energy -245603.129572 kJ/mol
# GULP energy per Si atom -5581.889308 kJ/mol
# Density = 1.799545 g / cm^3
# Si number density = 18.036498 Si / 1000 Ang^3
#
#
#
# Elastic Constant Matrix: (Units=GPa)
#
#
# Indices 1 2 3 4 5 6 
#
# 1 -7.5837 129.1272 20.6933 0.0000 0.0000 0.0000
# 2 129.1272 -7.7578 20.6385 0.0000 0.0000 0.0000
# 3 20.6933 20.6385 52.5754 0.0000 0.0000 0.0000
# 4 0.0000 0.0000 0.0000 22.3045 0.0000 0.0000
# 5 0.0000 0.0000 0.0000 0.0000 22.3028 0.0000
# 6 0.0000 0.0000 0.0000 0.0000 0.0000 23.6755
#
#
#
# Elastic Compliance Matrix: (Units=1/GPa)
#
#
# Indices 1 2 3 4 5 6 
#
# 1 0.001102 0.008407 -0.003734 0.000000 0.000000 0.000000
# 2 0.008407 0.001093 -0.003738 0.000000 0.000000 0.000000
# 3 -0.003734 -0.003738 0.021957 0.000000 0.000000 0.000000
# 4 0.000000 0.000000 0.000000 0.044834 0.000000 0.000000
# 5 0.000000 0.000000 0.000000 0.000000 0.044837 0.000000
# 6 0.000000 0.000000 0.000000 0.000000 0.000000 0.042238
#
#
# Mechanical properties :
#
#
# Convention : Reuss Voigt Hill
#
# Bulk Modulus (GPa) = 38.42801 42.01690 40.22245
# Shear Modulus (GPa) = 30.70033 4.77491 17.73762
#
# Velocity S-wave (km/s) = 4.13015 1.62884 3.13937
# Velocity P-wave (km/s) = 6.64050 5.18493 5.95734
#
# Compressibility (1/GPa) = 0.02602269
#
# Stress axis : x y z
#
# Youngs Moduli (GPa) = 907.50270 915.06700 45.54277
#
# Poissons Ratio (x) = -7.69335 0.17006
# Poissons Ratio (y) = -7.62975 0.17024
# Poissons Ratio (z) = 3.38866 3.42060
#
# Static dielectric constant tensor:
#      x y z
#    x 1.614360 0.000000 0.000000 
#    y 0.000000 1.614360 0.000000 
#    z 0.000000 0.000000 1.635330 
# 
# From -- ./inp_files/7701.got.cif
#   From: 2010.05.17/outbox.cif.g08.bks.cpg/sg119_4_cif.got.tgz:7701.got - 2010.05.20 11:21:29.
