data_PCOD9559778
_publ_section_title
;
Structure prediction by ZEFSAII (Michael W. Deem and Ramdas Pophale) SiO2 
 PCOD9559778
Probable space group: I -4 C 2
;
_chemical_formula_sum "Si O2"
_cell_formula_units_Z 72
_cell_length_a 21.767184
_cell_length_b 21.767184
_cell_length_c 8.118719
_cell_angle_alpha 90.000000
_cell_angle_beta 90.000000
_cell_angle_gamma 90.000000
_cell_volume 3846.732679
_symmetry_space_group_name_H-M "I -4 C 2"
_symmetry_group_IT_number 120
_symmetry_cell_setting 'tetragonal'
loop_
_space_group_symop_operation_xyz
x,y,z
y,-x,-z
-x,-y,z
-y,x,-z
y,x,1/2-z
-y,-x,1/2-z
-x,y,1/2+z
x,-y,1/2+z
1/2+x,1/2+y,1/2+z
1/2+y,1/2-x,1/2-z
1/2-x,1/2-y,1/2+z
1/2-y,1/2+x,1/2-z
1/2+y,1/2+x,-z
1/2-y,1/2-x,-z
1/2-x,1/2+y,z
1/2+x,1/2-y,z
loop_
_atom_site_type_symbol
_atom_site_label
_atom_site_fract_x
_atom_site_fract_y
_atom_site_fract_z
Si Si1 0.422335 0.444798 0.058557
Si Si2 0.186667 0.859784 0.069942
Si Si3 0.138524 0.684804 0.328017
Si Si4 0.278926 0.721075 0.250000
Si Si5 0.421281 0.055438 0.811261
O O1 0.432808 0.432808 0.250000
O O2 0.362423 0.408387 0.005472
O O3 0.419943 0.517357 0.032105
O O4 0.164714 0.835287 0.250000
O O5 0.250896 0.891046 0.117605
O O6 0.197596 0.810192 0.922100
O O7 0.152179 0.652179 0.500000
O O8 0.205722 0.703724 0.250457
O O9 0.093838 0.639792 0.230612
O O10 0.482290 0.081373 0.720616
O O11 0.435351 0.064650 0.000000
#
# Coordination Sequence:
#
# PCOD9559778 Si02
#       5
#    16  16  16   8  16
#     4  10  21  38  61  85 120 165 200 254 302 363
#     4  10  22  38  60  92 124 157 212 254 302 371
#     4  10  21  40  62  91 123 162 208 246 318 366
#     4  10  22  38  68  83 126 171 194 264 300 378
#     4  11  23  41  66  89 125 162 205 259 310 371
#
# _framework density 18.717182999999999
#
# number of rings (size 3 to 8) (size 9 to 14) (size 15 to 20)
#    0.000    1.778    1.111    4.000    6.222    0.000 
#    4.000    2.222    0.000    0.000    0.000    0.000 
#    0.000    0.000    0.000    0.000    0.000    0.000 
#
# Total GULP energy -200583.008051 kJ/mol
# GULP energy per Si atom -5571.750224 kJ/mol
# Density = 1.867458 g / cm^3
# Si number density = 18.717183 Si / 1000 Ang^3
#
#
#
# Elastic Constant Matrix: (Units=GPa)
#
#
# Indices 1 2 3 4 5 6 
#
# 1 87.9539 86.1866 17.1948 0.0000 0.0000 0.0000
# 2 86.1866 87.9545 17.1947 0.0000 0.0000 0.0000
# 3 17.1948 17.1947 70.0683 0.0000 0.0000 0.0000
# 4 0.0000 0.0000 0.0000 27.7476 0.0000 0.0000
# 5 0.0000 0.0000 0.0000 0.0000 27.7483 0.0000
# 6 0.0000 0.0000 0.0000 0.0000 0.0000 36.6444
#
#
#
# Elastic Compliance Matrix: (Units=1/GPa)
#
#
# Indices 1 2 3 4 5 6 
#
# 1 0.285890 -0.279854 -0.001482 0.000000 0.000000 0.000000
# 2 -0.279854 0.285887 -0.001480 0.000000 0.000000 0.000000
# 3 -0.001482 -0.001480 0.014999 0.000000 0.000000 0.000000
# 4 0.000000 0.000000 0.000000 0.036039 0.000000 0.000000
# 5 0.000000 0.000000 0.000000 0.000000 0.036038 0.000000
# 6 0.000000 0.000000 0.000000 0.000000 0.000000 0.027289
#
#
# Mechanical properties :
#
#
# Convention : Reuss Voigt Hill
#
# Bulk Modulus (GPa) = 47.29330 54.12543 50.70937
# Shear Modulus (GPa) = 3.97197 26.78811 15.38004
#
# Velocity S-wave (km/s) = 1.45832 3.78723 2.86965
# Velocity P-wave (km/s) = 5.30639 6.93574 6.17504
#
# Compressibility (1/GPa) = 0.02114464
#
# Stress axis : x y z
#
# Youngs Moduli (GPa) = 3.49785 3.49788 66.67267
#
# Poissons Ratio (x) = 0.97889 0.09881
# Poissons Ratio (y) = 0.97889 0.09867
# Poissons Ratio (z) = 0.00518 0.00518
#
# Static dielectric constant tensor:
#      x y z
#    x 1.725850 0.000000 0.000000 
#    y 0.000000 1.725840 0.000000 
#    z 0.000000 0.000000 1.656660 
# 
# From -- ./inp_files/1327.got.cif
#   From: 2010.05.17/outbox.cif.g08.bks.cpg/sg120_1_cif.got.tgz:1327.got - 2010.05.20 11:28:13.
