data_PCOD9559878
_publ_section_title
;
Structure prediction by ZEFSAII (Michael W. Deem and Ramdas Pophale) SiO2 
 PCOD9559878
Probable space group: I -4 C 2
;
_chemical_formula_sum "Si O2"
_cell_formula_units_Z 92
_cell_length_a 14.186830
_cell_length_b 14.186830
_cell_length_c 18.003602
_cell_angle_alpha 90.000000
_cell_angle_beta 90.000000
_cell_angle_gamma 90.000000
_cell_volume 3623.515579
_symmetry_space_group_name_H-M "I -4 C 2"
_symmetry_group_IT_number 120
_symmetry_cell_setting 'tetragonal'
loop_
_space_group_symop_operation_xyz
x,y,z
y,-x,-z
-x,-y,z
-y,x,-z
y,x,1/2-z
-y,-x,1/2-z
-x,y,1/2+z
x,-y,1/2+z
1/2+x,1/2+y,1/2+z
1/2+y,1/2-x,1/2-z
1/2-x,1/2-y,1/2+z
1/2-y,1/2+x,1/2-z
1/2+y,1/2+x,-z
1/2-y,1/2-x,-z
1/2-x,1/2+y,z
1/2+x,1/2-y,z
loop_
_atom_site_type_symbol
_atom_site_label
_atom_site_fract_x
_atom_site_fract_y
_atom_site_fract_z
Si Si1 0.825040 0.674961 0.000000
Si Si2 0.469339 0.687107 0.239541
Si Si3 0.000000 0.000000 0.000000
Si Si4 0.172518 0.116345 0.012619
Si Si5 0.119688 0.840985 0.342736
Si Si6 0.643245 0.136367 0.839952
Si Si7 0.894005 0.394005 0.000000
Si Si8 0.500000 0.000000 0.630638
O O1 0.723286 0.666183 0.960257
O O2 0.849475 0.616314 0.071894
O O3 0.389333 0.610668 0.250000
O O4 0.561768 0.649197 0.196378
O O5 0.513984 0.693579 0.322337
O O6 0.428667 0.774749 0.194176
O O7 0.912783 0.948648 0.041516
O O8 0.145043 0.135011 0.926713
O O9 0.281832 0.088468 0.014248
O O10 0.170105 0.743513 0.318870
O O11 0.548689 0.080405 0.819583
O O12 0.951002 0.424754 0.073696
#
# Coordination Sequence:
#
# PCOD9559878 Si02
#       8
#     8  16   4  16  16  16   8   8
#     4   9  22  46  68 104 148 193 240 304 396 459
#     4  11  26  46  76  98 144 201 252 313 394 456
#     4  12  28  32  72 114 148 180 252 316 390 468
#     4  10  24  41  66 105 148 189 241 312 380 465
#     4  10  24  46  69 103 142 188 258 313 378 459
#     4  11  25  45  75 108 149 193 256 318 379 466
#     4  10  22  45  68  99 158 202 236 296 396 474
#     4  11  24  40  73 104 142 198 249 297 378 468
#
# _framework density 25.389707000000001
#
# number of rings (size 3 to 8) (size 9 to 14) (size 15 to 20)
#    0.000    1.565    0.000    3.130   14.609    1.391 
#    6.261    0.000    0.000    0.000    0.000    0.000 
#    0.000    0.000    0.000    0.000    0.000    0.000 
#
# Total GULP energy -256346.322038 kJ/mol
# GULP energy per Si atom -5572.746131 kJ/mol
# Density = 2.533192 g / cm^3
# Si number density = 25.389707 Si / 1000 Ang^3
#
#
#
# Elastic Constant Matrix: (Units=GPa)
#
#
# Indices 1 2 3 4 5 6 
#
# 1 138.3627 64.4628 19.6811 0.0000 0.0000 0.0000
# 2 64.4628 138.3568 19.6796 0.0000 0.0000 0.0000
# 3 19.6811 19.6796 73.7040 0.0000 0.0000 0.0000
# 4 0.0000 0.0000 0.0000 31.8497 0.0000 0.0000
# 5 0.0000 0.0000 0.0000 0.0000 31.8511 0.0000
# 6 0.0000 0.0000 0.0000 0.0000 0.0000 63.5579
#
#
#
# Elastic Compliance Matrix: (Units=1/GPa)
#
#
# Indices 1 2 3 4 5 6 
#
# 1 0.009366 -0.004166 -0.001389 0.000000 0.000000 0.000000
# 2 -0.004166 0.009366 -0.001388 0.000000 0.000000 0.000000
# 3 -0.001389 -0.001388 0.014309 0.000000 0.000000 0.000000
# 4 0.000000 0.000000 0.000000 0.031397 0.000000 0.000000
# 5 0.000000 0.000000 0.000000 0.000000 0.031396 0.000000
# 6 0.000000 0.000000 0.000000 0.000000 0.000000 0.015734
#
#
# Mechanical properties :
#
#
# Convention : Reuss Voigt Hill
#
# Bulk Modulus (GPa) = 52.20524 62.00783 57.10653
# Shear Modulus (GPa) = 37.92473 41.89176 39.90824
#
# Velocity S-wave (km/s) = 3.86904 4.06636 3.96893
# Velocity P-wave (km/s) = 6.36911 6.82074 6.59879
#
# Compressibility (1/GPa) = 0.01915517
#
# Stress axis : x y z
#
# Youngs Moduli (GPa) = 106.76993 106.76585 69.88472
#
# Poissons Ratio (x) = 0.44481 0.09704
# Poissons Ratio (y) = 0.44483 0.09703
# Poissons Ratio (z) = 0.14826 0.14823
#
# Static dielectric constant tensor:
#      x y z
#    x 2.095430 0.000000 0.000000 
#    y 0.000000 2.095430 0.000000 
#    z 0.000000 0.000000 2.196520 
# 
# From -- ./inp_files/5416.got.cif
#   From: 2010.05.17/outbox.cif.g08.bks.cpg/sg120_3_cif.got.tgz:5416.got - 2010.05.20 11:28:13.
