data_PCOD9559688
_publ_section_title
;
Structure prediction by ZEFSAII (Michael W. Deem and Ramdas Pophale) SiO2 
 PCOD9559688
Probable space group: I -4 C 2
;
_chemical_formula_sum "Si O2"
_cell_formula_units_Z 96
_cell_length_a 24.149004
_cell_length_b 24.149004
_cell_length_c 8.791717
_cell_angle_alpha 90.000000
_cell_angle_beta 90.000000
_cell_angle_gamma 90.000000
_cell_volume 5127.104235
_symmetry_space_group_name_H-M "I -4 C 2"
_symmetry_group_IT_number 120
_symmetry_cell_setting 'tetragonal'
loop_
_space_group_symop_operation_xyz
x,y,z
y,-x,-z
-x,-y,z
-y,x,-z
y,x,1/2-z
-y,-x,1/2-z
-x,y,1/2+z
x,-y,1/2+z
1/2+x,1/2+y,1/2+z
1/2+y,1/2-x,1/2-z
1/2-x,1/2-y,1/2+z
1/2-y,1/2+x,1/2-z
1/2+y,1/2+x,-z
1/2-y,1/2-x,-z
1/2-x,1/2+y,z
1/2+x,1/2-y,z
loop_
_atom_site_type_symbol
_atom_site_label
_atom_site_fract_x
_atom_site_fract_y
_atom_site_fract_z
Si Si1 0.570498 0.876116 0.366103
Si Si2 0.881368 0.442372 0.133700
Si Si3 0.260613 0.937795 0.664349
Si Si4 0.438596 0.351648 0.689373
Si Si5 0.648322 0.436818 0.676427
Si Si6 0.061622 0.736706 0.200821
O O1 0.613791 0.886210 0.500000
O O2 0.505977 0.871865 0.413847
O O3 0.576353 0.932575 0.270092
O O4 0.583355 0.821978 0.263908
O O5 0.822863 0.416733 0.188961
O O6 0.907003 0.407003 0.000000
O O7 0.206053 0.913519 0.743631
O O8 0.256197 0.938799 0.481062
O O9 0.262578 0.998775 0.738078
O O10 0.401791 0.401791 0.750000
O O11 0.439737 0.352664 0.506429
O O12 0.501017 0.356400 0.755293
O O13 0.600687 0.399314 0.750000
O O14 0.708137 0.412780 0.726729
#
# Coordination Sequence:
#
# PCOD9559688 Si02
#       6
#    16  16  16  16  16  16
#     4  11  24  34  57  80 118 153 202 244 310 359
#     4  11  22  38  53  84 114 157 195 251 300 364
#     4  10  20  35  58  80 115 150 201 238 286 343
#     4  11  22  38  62  92 123 157 194 238 291 346
#     4  11  22  38  62  91 125 155 196 238 289 347
#     4  10  20  36  56  83 111 154 197 242 282 347
#
# _framework density 18.724019999999999
#
# number of rings (size 3 to 8) (size 9 to 14) (size 15 to 20)
#    0.000    1.333    1.667    7.000    9.333    2.333 
#    0.000    1.667    0.000    1.000    0.000    0.000 
#    0.000    0.000    0.000    0.000    0.000    0.000 
#
# Total GULP energy -267445.708975 kJ/mol
# GULP energy per Si atom -5571.785604 kJ/mol
# Density = 1.868140 g / cm^3
# Si number density = 18.724020 Si / 1000 Ang^3
#
#
#
# Elastic Constant Matrix: (Units=GPa)
#
#
# Indices 1 2 3 4 5 6 
#
# 1 83.8292 39.3328 49.1360 0.0000 0.0000 0.0000
# 2 39.3328 83.8302 49.1341 0.0000 0.0000 0.0000
# 3 49.1360 49.1341 154.0636 0.0000 0.0000 0.0000
# 4 0.0000 0.0000 0.0000 32.8298 0.0000 0.0000
# 5 0.0000 0.0000 0.0000 0.0000 32.8307 0.0000
# 6 0.0000 0.0000 0.0000 0.0000 0.0000 4.6913
#
#
#
# Elastic Compliance Matrix: (Units=1/GPa)
#
#
# Indices 1 2 3 4 5 6 
#
# 1 0.016682 -0.005791 -0.003474 0.000000 0.000000 0.000000
# 2 -0.005791 0.016682 -0.003473 0.000000 0.000000 0.000000
# 3 -0.003474 -0.003473 0.008706 0.000000 0.000000 0.000000
# 4 0.000000 0.000000 0.000000 0.030460 0.000000 0.000000
# 5 0.000000 0.000000 0.000000 0.000000 0.030459 0.000000
# 6 0.000000 0.000000 0.000000 0.000000 0.000000 0.213158
#
#
# Mechanical properties :
#
#
# Convention : Reuss Voigt Hill
#
# Bulk Modulus (GPa) = 60.26149 66.32541 63.29345
# Shear Modulus (GPa) = 14.40275 26.34504 20.37390
#
# Velocity S-wave (km/s) = 2.77648 3.75509 3.30224
# Velocity P-wave (km/s) = 6.52168 7.36889 6.95819
#
# Compressibility (1/GPa) = 0.01659435
#
# Stress axis : x y z
#
# Youngs Moduli (GPa) = 59.94358 59.94551 114.85932
#
# Poissons Ratio (x) = 0.34717 0.39897
# Poissons Ratio (y) = 0.34716 0.39892
# Poissons Ratio (z) = 0.20822 0.20820
#
# Static dielectric constant tensor:
#      x y z
#    x 1.601320 0.000000 0.000000 
#    y 0.000000 1.601340 0.000000 
#    z 0.000000 0.000000 1.710350 
# 
# From -- ./inp_files/1548.got.cif
#   From: 2010.05.17/outbox.cif.g08.bks.cpg/sg120_1_cif.got.tgz:1548.got - 2010.05.20 11:28:13.
