data_PCOD9559144
_publ_section_title
;
Structure prediction by ZEFSAII (Michael W. Deem and Ramdas Pophale) SiO2 
 PCOD9559144
Probable space group: I -4 M 2
;
_chemical_formula_sum "Si O2"
_cell_formula_units_Z 48
_cell_length_a 7.961417
_cell_length_b 7.961417
_cell_length_c 38.315439
_cell_angle_alpha 90.000000
_cell_angle_beta 90.000000
_cell_angle_gamma 90.000000
_cell_volume 2428.591941
_symmetry_space_group_name_H-M "I -4 M 2"
_symmetry_group_IT_number 119
_symmetry_cell_setting 'tetragonal'
loop_
_space_group_symop_operation_xyz
x,y,z
y,-x,-z
-x,-y,z
-y,x,-z
y,x,-z
-y,-x,-z
-x,y,z
x,-y,z
1/2+x,1/2+y,1/2+z
1/2+y,1/2-x,1/2-z
1/2-x,1/2-y,1/2+z
1/2-y,1/2+x,1/2-z
1/2+y,1/2+x,1/2-z
1/2-y,1/2-x,1/2-z
1/2-x,1/2+y,1/2+z
1/2+x,1/2-y,1/2+z
loop_
_atom_site_type_symbol
_atom_site_label
_atom_site_fract_x
_atom_site_fract_y
_atom_site_fract_z
Si Si1 0.000000 0.298966 0.584354
Si Si2 0.188651 0.203345 0.211730
Si Si3 0.500000 0.205324 0.164068
Si Si4 0.300492 0.814374 0.962645
O O1 0.000000 0.236555 0.624168
O O2 0.165389 0.243404 0.563560
O O3 0.000000 0.500000 0.585041
O O4 0.223881 0.276120 0.250000
O O5 0.334112 0.258155 0.185217
O O6 0.000000 0.247286 0.200316
O O7 0.198625 0.000000 0.214615
O O8 0.500000 0.000000 0.163670
O O9 0.500000 0.809234 0.968981
O O10 0.255564 0.000000 0.949141
O O11 0.214780 0.785221 0.000000
#
# Coordination Sequence:
#
# PCOD9559144 Si02
#       4
#     8  16   8  16
#     4  11  23  39  61  95 129 165 211 264 329 387
#     4  10  19  34  60  89 116 158 211 257 309 373
#     4   9  20  37  59  87 127 166 204 260 320 376
#     4  11  23  40  63  90 121 164 216 264 314 379
#
# _framework density 19.764538000000002
#
# number of rings (size 3 to 8) (size 9 to 14) (size 15 to 20)
#    0.000    1.667    3.333    1.500    0.000    4.000 
#    0.000    6.667    0.000    0.000    0.000    0.000 
#    0.000    0.000    0.000    0.000    0.000    0.000 
#
# Total GULP energy -134124.683309 kJ/mol
# GULP energy per Si atom -5588.528471 kJ/mol
# Density = 1.971955 g / cm^3
# Si number density = 19.764538 Si / 1000 Ang^3
#
#
#
# Elastic Constant Matrix: (Units=GPa)
#
#
# Indices 1 2 3 4 5 6 
#
# 1 118.7928 49.8626 61.0712 0.0000 0.0000 0.0000
# 2 49.8626 118.7924 61.0687 0.0000 0.0000 0.0000
# 3 61.0712 61.0687 144.7054 0.0000 0.0000 0.0000
# 4 0.0000 0.0000 0.0000 1.7638 0.0000 0.0000
# 5 0.0000 0.0000 0.0000 0.0000 1.7658 0.0000
# 6 0.0000 0.0000 0.0000 0.0000 0.0000 7.9650
#
#
#
# Elastic Compliance Matrix: (Units=1/GPa)
#
#
# Indices 1 2 3 4 5 6 
#
# 1 0.011523 -0.002984 -0.003604 0.000000 0.000000 0.000000
# 2 -0.002984 0.011523 -0.003604 0.000000 0.000000 0.000000
# 3 -0.003604 -0.003604 0.009952 0.000000 0.000000 0.000000
# 4 0.000000 0.000000 0.000000 0.566946 -0.000001 0.000000
# 5 0.000000 0.000000 0.000000 -0.000001 0.566302 0.000000
# 6 0.000000 0.000000 0.000000 0.000000 0.000000 0.125550
#
#
# Mechanical properties :
#
#
# Convention : Reuss Voigt Hill
#
# Bulk Modulus (GPa) = 79.26724 80.69952 79.98338
# Shear Modulus (GPa) = 3.79828 16.31814 10.05821
#
# Velocity S-wave (km/s) = 1.38778 2.87649 2.25833
# Velocity P-wave (km/s) = 6.53917 7.20773 6.88157
#
# Compressibility (1/GPa) = 0.01261555
#
# Stress axis : x y z
#
# Youngs Moduli (GPa) = 86.78012 86.78162 100.47861
#
# Poissons Ratio (x) = 0.25897 0.36212
# Poissons Ratio (y) = 0.25897 0.36208
# Poissons Ratio (z) = 0.31275 0.31272
#
# Static dielectric constant tensor:
#      x y z
#    x 1.711510 0.000000 0.000000 
#    y 0.000000 1.711510 0.000000 
#    z 0.000000 0.000000 1.647290 
# 
# From -- ./inp_files/9860.got.cif
#   From: 2010.05.17/outbox.cif.g08.bks.cpg/sg119_5_cif.got.tgz:9860.got - 2010.05.20 11:21:29.
