data_PCOD9559965
_publ_section_title
;
Structure prediction by ZEFSAII (Michael W. Deem and Ramdas Pophale) SiO2 
 PCOD9559965
Probable space group: I -4 C 2
;
_chemical_formula_sum "Si O2"
_cell_formula_units_Z 88
_cell_length_a 13.480322
_cell_length_b 13.480322
_cell_length_c 21.864874
_cell_angle_alpha 90.000000
_cell_angle_beta 90.000000
_cell_angle_gamma 90.000000
_cell_volume 3973.264814
_symmetry_space_group_name_H-M "I -4 C 2"
_symmetry_group_IT_number 120
_symmetry_cell_setting 'tetragonal'
loop_
_space_group_symop_operation_xyz
x,y,z
y,-x,-z
-x,-y,z
-y,x,-z
y,x,1/2-z
-y,-x,1/2-z
-x,y,1/2+z
x,-y,1/2+z
1/2+x,1/2+y,1/2+z
1/2+y,1/2-x,1/2-z
1/2-x,1/2-y,1/2+z
1/2-y,1/2+x,1/2-z
1/2+y,1/2+x,-z
1/2-y,1/2-x,-z
1/2-x,1/2+y,z
1/2+x,1/2-y,z
loop_
_atom_site_type_symbol
_atom_site_label
_atom_site_fract_x
_atom_site_fract_y
_atom_site_fract_z
Si Si1 0.000696 0.619851 0.087632
Si Si2 0.683671 0.258569 0.103164
Si Si3 0.325966 0.174035 0.000000
Si Si4 0.121109 0.582266 0.776629
Si Si5 0.899361 0.059561 0.679110
Si Si6 0.127665 0.789042 0.303756
O O1 0.892813 0.670444 0.085970
O O2 0.000000 0.500000 0.079326
O O3 0.046116 0.638811 0.155347
O O4 0.072550 0.670468 0.038603
O O5 0.623542 0.340954 0.141446
O O6 0.771160 0.205757 0.142618
O O7 0.735249 0.313525 0.046767
O O8 0.123800 0.487434 0.731762
O O9 0.198057 0.650061 0.742412
O O10 0.908703 0.091298 0.750000
O O11 0.810125 0.980631 0.668573
O O12 0.000000 0.000000 0.661179
O O13 0.128089 0.871912 0.250000
#
# Coordination Sequence:
#
# PCOD9559965 Si02
#       6
#    16  16   8  16  16  16
#     4  12  26  51  79 107 148 195 249 321 382 454
#     4  12  29  48  74 107 149 199 262 311 374 455
#     4  12  33  48  73 102 146 202 266 302 367 454
#     4  11  21  40  71 112 140 173 232 309 386 449
#     4  11  25  47  72 112 157 195 237 309 396 466
#     4  12  24  40  73 109 153 190 237 301 384 463
#
# _framework density 22.148032000000001
#
# number of rings (size 3 to 8) (size 9 to 14) (size 15 to 20)
#    0.000    0.364    5.455    3.000   12.727    0.000 
#    0.000    0.000    0.000    0.000    0.000    0.000 
#    0.000    0.000    0.000    0.000    0.000    0.000 
#
# Total GULP energy -245653.386093 kJ/mol
# GULP energy per Si atom -5583.031502 kJ/mol
# Density = 2.209762 g / cm^3
# Si number density = 22.148032 Si / 1000 Ang^3
#
#
#
# Elastic Constant Matrix: (Units=GPa)
#
#
# Indices 1 2 3 4 5 6 
#
# 1 108.3691 60.9678 36.5856 0.0000 0.0000 0.0000
# 2 60.9678 108.3677 36.5853 0.0000 0.0000 0.0000
# 3 36.5856 36.5853 98.4135 0.0000 0.0000 0.0000
# 4 0.0000 0.0000 0.0000 37.1758 0.0000 0.0000
# 5 0.0000 0.0000 0.0000 0.0000 37.1760 0.0000
# 6 0.0000 0.0000 0.0000 0.0000 0.0000 50.7322
#
#
#
# Elastic Compliance Matrix: (Units=1/GPa)
#
#
# Indices 1 2 3 4 5 6 
#
# 1 0.014066 -0.007031 -0.002615 0.000000 0.000000 0.000000
# 2 -0.007031 0.014066 -0.002615 0.000000 0.000000 0.000000
# 3 -0.002615 -0.002615 0.012106 0.000000 0.000000 0.000000
# 4 0.000000 0.000000 0.000000 0.026899 0.000000 0.000000
# 5 0.000000 0.000000 0.000000 0.000000 0.026899 0.000000
# 6 0.000000 0.000000 0.000000 0.000000 0.000000 0.019711
#
#
# Mechanical properties :
#
#
# Convention : Reuss Voigt Hill
#
# Bulk Modulus (GPa) = 63.63339 64.82531 64.22935
# Shear Modulus (GPa) = 34.84092 37.08422 35.96257
#
# Velocity S-wave (km/s) = 3.97053 4.09636 4.03393
# Velocity P-wave (km/s) = 7.05786 7.19070 7.12459
#
# Compressibility (1/GPa) = 0.01571502
#
# Stress axis : x y z
#
# Youngs Moduli (GPa) = 71.09296 71.09209 82.60477
#
# Poissons Ratio (x) = 0.49982 0.21605
# Poissons Ratio (y) = 0.49983 0.21605
# Poissons Ratio (z) = 0.18594 0.18594
#
# Static dielectric constant tensor:
#      x y z
#    x 1.745350 0.000000 0.000000 
#    y 0.000000 1.745340 0.000000 
#    z 0.000000 0.000000 1.742710 
# 
# From -- ./inp_files/5269.got.cif
#   From: 2010.05.17/outbox.cif.g08.bks.cpg/sg120_3_cif.got.tgz:5269.got - 2010.05.20 11:28:13.
