data_PCOD9559727
_publ_section_title
;
Structure prediction by ZEFSAII (Michael W. Deem and Ramdas Pophale) SiO2 
 PCOD9559727
Probable space group: I -4 C 2
;
_chemical_formula_sum "Si O2"
_cell_formula_units_Z 88
_cell_length_a 14.949607
_cell_length_b 14.949607
_cell_length_c 20.406690
_cell_angle_alpha 90.000000
_cell_angle_beta 90.000000
_cell_angle_gamma 90.000000
_cell_volume 4560.706442
_symmetry_space_group_name_H-M "I -4 C 2"
_symmetry_group_IT_number 120
_symmetry_cell_setting 'tetragonal'
loop_
_space_group_symop_operation_xyz
x,y,z
y,-x,-z
-x,-y,z
-y,x,-z
y,x,1/2-z
-y,-x,1/2-z
-x,y,1/2+z
x,-y,1/2+z
1/2+x,1/2+y,1/2+z
1/2+y,1/2-x,1/2-z
1/2-x,1/2-y,1/2+z
1/2-y,1/2+x,1/2-z
1/2+y,1/2+x,-z
1/2-y,1/2-x,-z
1/2-x,1/2+y,z
1/2+x,1/2-y,z
loop_
_atom_site_type_symbol
_atom_site_label
_atom_site_fract_x
_atom_site_fract_y
_atom_site_fract_z
Si Si1 0.292844 0.088809 0.350726
Si Si2 0.342234 0.292121 0.036808
Si Si3 0.033919 0.250189 0.999987
Si Si4 0.278697 0.278697 0.750000
Si Si5 0.886570 0.680411 0.665924
Si Si6 0.988447 0.394261 0.394973
O O1 0.262686 0.071029 0.426132
O O2 0.223465 0.150271 0.310388
O O3 0.394804 0.124816 0.358006
O O4 0.304702 0.990773 0.318801
O O5 0.438111 0.297378 0.001412
O O6 0.362674 0.244026 0.104967
O O7 0.272192 0.227809 0.000000
O O8 0.300335 0.389887 0.040284
O O9 0.015676 0.343850 0.964112
O O10 0.180407 0.293253 0.722201
O O11 0.868494 0.577842 0.644563
O O12 0.000000 0.500000 0.404779
#
# Coordination Sequence:
#
# PCOD9559727 Si02
#       6
#    16  16  16   8  16  16
#     4  10  24  38  61  94 121 167 211 255 317 380
#     4  11  21  39  60  95 126 162 206 259 326 382
#     4  11  22  37  66  92 132 161 206 264 323 395
#     4  12  24  42  60  82 134 170 212 248 304 380
#     4  10  23  39  62  93 122 164 209 260 322 382
#     4  10  20  38  66  99 128 152 203 279 349 382
#
# _framework density 19.295258
#
# number of rings (size 3 to 8) (size 9 to 14) (size 15 to 20)
#    0.000    1.455    1.818    3.818    2.545    4.000 
#    0.000    0.000    0.000    0.545    0.000    0.000 
#    0.000    0.000    0.000    0.000    0.000    0.000 
#
# Total GULP energy -245676.885332 kJ/mol
# GULP energy per Si atom -5583.565576 kJ/mol
# Density = 1.925134 g / cm^3
# Si number density = 19.295258 Si / 1000 Ang^3
#
#
#
# Elastic Constant Matrix: (Units=GPa)
#
#
# Indices 1 2 3 4 5 6 
#
# 1 76.5156 40.4739 19.5435 0.0000 0.0000 0.0000
# 2 40.4739 76.5130 19.5418 0.0000 0.0000 0.0000
# 3 19.5435 19.5418 40.9118 0.0000 0.0000 0.0000
# 4 0.0000 0.0000 0.0000 22.5828 0.0000 0.0000
# 5 0.0000 0.0000 0.0000 0.0000 22.5818 0.0000
# 6 0.0000 0.0000 0.0000 0.0000 0.0000 33.6294
#
#
#
# Elastic Compliance Matrix: (Units=1/GPa)
#
#
# Indices 1 2 3 4 5 6 
#
# 1 0.018959 -0.008788 -0.004859 0.000000 0.000000 0.000000
# 2 -0.008788 0.018959 -0.004858 0.000000 0.000000 0.000000
# 3 -0.004859 -0.004858 0.029084 0.000000 0.000000 0.000000
# 4 0.000000 0.000000 0.000000 0.044281 0.000000 0.000000
# 5 0.000000 0.000000 0.000000 0.000000 0.044283 0.000000
# 6 0.000000 0.000000 0.000000 0.000000 0.000000 0.029736
#
#
# Mechanical properties :
#
#
# Convention : Reuss Voigt Hill
#
# Bulk Modulus (GPa) = 33.34157 39.22876 36.28517
# Shear Modulus (GPa) = 21.52296 23.38421 22.45359
#
# Velocity S-wave (km/s) = 3.34346 3.48503 3.41498
# Velocity P-wave (km/s) = 5.67646 6.04722 5.86477
#
# Compressibility (1/GPa) = 0.02999259
#
# Stress axis : x y z
#
# Youngs Moduli (GPa) = 52.74613 52.74540 34.38265
#
# Poissons Ratio (x) = 0.46352 0.16707
# Poissons Ratio (y) = 0.46352 0.16703
# Poissons Ratio (z) = 0.25629 0.25624
#
# Static dielectric constant tensor:
#      x y z
#    x 1.691750 0.000000 0.000000 
#    y 0.000000 1.691760 0.000000 
#    z 0.000000 0.000000 1.758580 
# 
# From -- ./inp_files/5246.got.cif
#   From: 2010.05.17/outbox.cif.g08.bks.cpg/sg120_3_cif.got.tgz:5246.got - 2010.05.20 11:28:13.
