data_PCOD9559147
_publ_section_title
;
Structure prediction by ZEFSAII (Michael W. Deem and Ramdas Pophale) SiO2 
 PCOD9559147
Probable space group: I -4 M 2
;
_chemical_formula_sum "Si O2"
_cell_formula_units_Z 112
_cell_length_a 14.972850
_cell_length_b 14.972850
_cell_length_c 25.119040
_cell_angle_alpha 90.000000
_cell_angle_beta 90.000000
_cell_angle_gamma 90.000000
_cell_volume 5631.343058
_symmetry_space_group_name_H-M "I -4 M 2"
_symmetry_group_IT_number 119
_symmetry_cell_setting 'tetragonal'
loop_
_space_group_symop_operation_xyz
x,y,z
y,-x,-z
-x,-y,z
-y,x,-z
y,x,-z
-y,-x,-z
-x,y,z
x,-y,z
1/2+x,1/2+y,1/2+z
1/2+y,1/2-x,1/2-z
1/2-x,1/2-y,1/2+z
1/2-y,1/2+x,1/2-z
1/2+y,1/2+x,1/2-z
1/2-y,1/2-x,1/2-z
1/2-x,1/2+y,1/2+z
1/2+x,1/2-y,1/2+z
loop_
_atom_site_type_symbol
_atom_site_label
_atom_site_fract_x
_atom_site_fract_y
_atom_site_fract_z
Si Si1 0.096753 0.828859 0.050264
Si Si2 0.105220 0.602738 0.880096
Si Si3 0.779772 0.102082 0.656240
Si Si4 0.595597 0.707102 0.962490
Si Si5 0.279376 0.297800 0.649931
Si Si6 0.900509 0.629370 0.007006
Si Si7 0.604975 0.396067 0.261703
O O1 0.172593 0.828236 0.095052
O O2 0.000000 0.841205 0.076358
O O3 0.106669 0.893332 0.000000
O O4 0.099849 0.733240 0.021327
O O5 0.126519 0.500000 0.865891
O O6 0.167649 0.677404 0.853834
O O7 0.113070 0.611919 0.944318
O O8 0.000000 0.619155 0.867611
O O9 0.823949 0.107064 0.597825
O O10 0.717665 0.190279 0.656985
O O11 0.849593 0.111609 0.703952
O O12 0.741418 0.000000 0.660141
O O13 0.500000 0.674879 0.983651
O O14 0.673821 0.673821 0.000000
O O15 0.593686 0.814418 0.962509
O O16 0.331273 0.344952 0.697707
O O17 0.000000 0.596596 0.021108
O O18 0.500000 0.375682 0.259720
O O19 0.615034 0.500000 0.278401
#
# Coordination Sequence:
#
# PCOD9559147 Si02
#       7
#    16  16  16  16  16  16  16
#     4  11  22  36  58  90 129 167 205 253 308 365
#     4  10  21  35  56  91 131 168 206 253 311 373
#     4  10  23  41  61  87 123 162 203 258 314 371
#     4  11  22  37  59  89 123 161 205 253 308 373
#     4  12  21  39  67  90 122 165 215 259 312 374
#     4  10  19  35  56  82 121 165 202 244 297 360
#     4  10  23  43  66  92 120 157 207 261 320 385
#
# _framework density 19.888683
#
# number of rings (size 3 to 8) (size 9 to 14) (size 15 to 20)
#    0.000    1.429    2.857    3.000    0.000    2.857 
#    0.000    1.429    0.000    1.714    0.000    8.000 
#    0.000    0.000    0.000    0.000    0.000    0.000 
#
# Total GULP energy -312447.090675 kJ/mol
# GULP energy per Si atom -5579.412333 kJ/mol
# Density = 1.984342 g / cm^3
# Si number density = 19.888683 Si / 1000 Ang^3
#
#
#
# Elastic Constant Matrix: (Units=GPa)
#
#
# Indices 1 2 3 4 5 6 
#
# 1 102.1515 42.8304 51.0271 0.0000 0.0000 0.0000
# 2 42.8304 102.1514 51.0265 0.0000 0.0000 0.0000
# 3 51.0271 51.0265 95.5763 0.0000 0.0000 0.0000
# 4 0.0000 0.0000 0.0000 135.7064 0.0000 0.0000
# 5 0.0000 0.0000 0.0000 0.0000 135.6498 0.0000
# 6 0.0000 0.0000 0.0000 0.0000 0.0000 3.7614
#
#
#
# Elastic Compliance Matrix: (Units=1/GPa)
#
#
# Indices 1 2 3 4 5 6 
#
# 1 0.013954 -0.002904 -0.005900 0.000000 0.000000 0.000000
# 2 -0.002904 0.013954 -0.005899 0.000000 0.000000 0.000000
# 3 -0.005900 -0.005899 0.016762 0.000000 0.000000 0.000000
# 4 0.000000 0.000000 0.000000 0.007369 0.000000 0.000000
# 5 0.000000 0.000000 0.000000 0.000000 0.007372 0.000000
# 6 0.000000 0.000000 0.000000 0.000000 0.000000 0.265855
#
#
# Mechanical properties :
#
#
# Convention : Reuss Voigt Hill
#
# Bulk Modulus (GPa) = 65.51192 65.51635 65.51413
# Shear Modulus (GPa) = 13.89820 65.35654 39.62737
#
# Velocity S-wave (km/s) = 2.64635 5.73869 4.46854
# Velocity P-wave (km/s) = 6.50756 8.77058 7.72242
#
# Compressibility (1/GPa) = 0.01526440
#
# Stress axis : x y z
#
# Youngs Moduli (GPa) = 71.66500 71.66558 59.65821
#
# Poissons Ratio (x) = 0.20809 0.35196
# Poissons Ratio (y) = 0.20809 0.35195
# Poissons Ratio (z) = 0.42279 0.42278
#
# Static dielectric constant tensor:
#      x y z
#    x 1.505850 0.000000 0.000000 
#    y 0.000000 1.505770 0.000000 
#    z 0.000000 0.000000 1.664370 
# 
# From -- ./inp_files/8825.got.cif
#   From: 2010.05.17/outbox.cif.g08.bks.cpg/sg119_5_cif.got.tgz:8825.got - 2010.05.20 11:21:29.
