data_PCOD9559887
_publ_section_title
;
Structure prediction by ZEFSAII (Michael W. Deem and Ramdas Pophale) SiO2 
 PCOD9559887
Probable space group: I -4 C 2
;
_chemical_formula_sum "Si O2"
_cell_formula_units_Z 112
_cell_length_a 13.498249
_cell_length_b 13.498249
_cell_length_c 26.205910
_cell_angle_alpha 90.000000
_cell_angle_beta 90.000000
_cell_angle_gamma 90.000000
_cell_volume 4774.788241
_symmetry_space_group_name_H-M "I -4 C 2"
_symmetry_group_IT_number 120
_symmetry_cell_setting 'tetragonal'
loop_
_space_group_symop_operation_xyz
x,y,z
y,-x,-z
-x,-y,z
-y,x,-z
y,x,1/2-z
-y,-x,1/2-z
-x,y,1/2+z
x,-y,1/2+z
1/2+x,1/2+y,1/2+z
1/2+y,1/2-x,1/2-z
1/2-x,1/2-y,1/2+z
1/2-y,1/2+x,1/2-z
1/2+y,1/2+x,-z
1/2-y,1/2-x,-z
1/2-x,1/2+y,z
1/2+x,1/2-y,z
loop_
_atom_site_type_symbol
_atom_site_label
_atom_site_fract_x
_atom_site_fract_y
_atom_site_fract_z
Si Si1 0.686064 0.891222 0.208296
Si Si2 0.363254 0.079748 0.648172
Si Si3 0.937895 0.140795 0.106718
Si Si4 0.245506 0.746513 0.127081
Si Si5 0.000435 0.263034 0.193678
Si Si6 0.824262 0.873915 0.459945
Si Si7 0.769763 0.978413 0.560325
O O1 0.752335 0.849594 0.162005
O O2 0.740354 0.922956 0.259661
O O3 0.604230 0.805025 0.213998
O O4 0.633282 0.990473 0.187841
O O5 0.273429 0.156621 0.659654
O O6 0.457616 0.150606 0.655724
O O7 0.329430 0.032949 0.593855
O O8 0.862794 0.235347 0.103978
O O9 0.863813 0.049965 0.096675
O O10 0.986703 0.162553 0.161668
O O11 0.022263 0.139711 0.064257
O O12 0.324879 0.745500 0.082171
O O13 0.776949 0.901140 0.513750
O O14 0.914247 0.795534 0.461995
#
# Coordination Sequence:
#
# PCOD9559887 Si02
#       7
#    16  16  16  16  16  16  16
#     4  11  22  41  67  96 130 179 224 265 335 399
#     4  11  22  40  61 101 126 165 221 274 325 387
#     4  10  23  40  59  99 130 166 220 274 326 394
#     4  10  24  42  64  96 135 168 218 284 328 395
#     4  11  22  40  66  95 133 176 217 274 330 402
#     4  12  21  44  67  93 126 177 226 272 334 402
#     4  11  24  40  68  95 125 176 223 274 331 400
#
# _framework density 23.456537999999998
#
# number of rings (size 3 to 8) (size 9 to 14) (size 15 to 20)
#    0.000    1.143    5.714    0.857    0.000    2.857 
#    2.571    0.000    0.000    0.000   11.143    0.000 
#    0.000    0.000    0.000    0.000    0.000    0.000 
#
# Total GULP energy -312556.099587 kJ/mol
# GULP energy per Si atom -5581.358921 kJ/mol
# Density = 2.340315 g / cm^3
# Si number density = 23.456538 Si / 1000 Ang^3
#
#
#
# Elastic Constant Matrix: (Units=GPa)
#
#
# Indices 1 2 3 4 5 6 
#
# 1 53.6306 -19.8772 9.3856 0.0000 0.0000 0.0000
# 2 -19.8772 53.6306 9.3856 0.0000 0.0000 0.0000
# 3 9.3856 9.3856 100.8146 0.0000 0.0000 0.0000
# 4 0.0000 0.0000 0.0000 34.5763 0.0000 0.0000
# 5 0.0000 0.0000 0.0000 0.0000 34.5763 0.0000
# 6 0.0000 0.0000 0.0000 0.0000 0.0000 25.1120
#
#
#
# Elastic Compliance Matrix: (Units=1/GPa)
#
#
# Indices 1 2 3 4 5 6 
#
# 1 0.022424 0.008820 -0.002909 0.000000 0.000000 0.000000
# 2 0.008820 0.022424 -0.002909 0.000000 0.000000 0.000000
# 3 -0.002909 -0.002909 0.010461 0.000000 0.000000 0.000000
# 4 0.000000 0.000000 0.000000 0.028922 0.000000 0.000000
# 5 0.000000 0.000000 0.000000 0.000000 0.028922 0.000000
# 6 0.000000 0.000000 0.000000 0.000000 0.000000 0.039822
#
#
# Mechanical properties :
#
#
# Convention : Reuss Voigt Hill
#
# Bulk Modulus (GPa) = 16.30941 22.87374 19.59157
# Shear Modulus (GPa) = 29.86739 32.79837 31.33288
#
# Velocity S-wave (km/s) = 3.57222 3.74339 3.65880
# Velocity P-wave (km/s) = 4.89719 5.33448 5.12050
#
# Compressibility (1/GPa) = 0.06131432
#
# Stress axis : x y z
#
# Youngs Moduli (GPa) = 44.59477 44.59477 95.59498
#
# Poissons Ratio (x) = -0.39333 0.27806
# Poissons Ratio (y) = -0.39333 0.27806
# Poissons Ratio (z) = 0.12972 0.12972
#
# Static dielectric constant tensor:
#      x y z
#    x 1.931570 0.000000 0.000000 
#    y 0.000000 1.931570 0.000000 
#    z 0.000000 0.000000 1.948010 
# 
# From -- ./inp_files/6278.got.cif
#   From: 2010.05.17/outbox.cif.g08.bks.cpg/sg120_4_cif.got.tgz:6278.got - 2010.05.20 11:28:13.
