data_PCOD9559356
_publ_section_title
;
Structure prediction by ZEFSAII (Michael W. Deem and Ramdas Pophale) SiO2 
 PCOD9559356
Probable space group: I -4 M 2
;
_chemical_formula_sum "Si O2"
_cell_formula_units_Z 112
_cell_length_a 15.459028
_cell_length_b 15.459028
_cell_length_c 27.210200
_cell_angle_alpha 90.000000
_cell_angle_beta 90.000000
_cell_angle_gamma 90.000000
_cell_volume 6502.735682
_symmetry_space_group_name_H-M "I -4 M 2"
_symmetry_group_IT_number 119
_symmetry_cell_setting 'tetragonal'
loop_
_space_group_symop_operation_xyz
x,y,z
y,-x,-z
-x,-y,z
-y,x,-z
y,x,-z
-y,-x,-z
-x,y,z
x,-y,z
1/2+x,1/2+y,1/2+z
1/2+y,1/2-x,1/2-z
1/2-x,1/2-y,1/2+z
1/2-y,1/2+x,1/2-z
1/2+y,1/2+x,1/2-z
1/2-y,1/2-x,1/2-z
1/2-x,1/2+y,1/2+z
1/2+x,1/2-y,1/2+z
loop_
_atom_site_type_symbol
_atom_site_label
_atom_site_fract_x
_atom_site_fract_y
_atom_site_fract_z
Si Si1 0.333364 0.598769 0.686996
Si Si2 0.900955 0.603140 0.491926
Si Si3 0.397396 0.096075 0.102618
Si Si4 0.760902 0.713669 0.448059
Si Si5 0.601916 0.401477 0.205596
Si Si6 0.899362 0.097637 0.076765
Si Si7 0.697116 0.240149 0.155776
O O1 0.295190 0.500000 0.689893
O O2 0.390864 0.607927 0.735470
O O3 0.385227 0.601178 0.635726
O O4 0.267098 0.679738 0.684061
O O5 0.901547 0.500000 0.486978
O O6 0.867258 0.620089 0.547594
O O7 0.838742 0.645925 0.452889
O O8 0.000000 0.634175 0.488131
O O9 0.500000 0.089392 0.098764
O O10 0.374106 0.168511 0.141352
O O11 0.362576 0.000000 0.114322
O O12 0.764227 0.764227 0.500000
O O13 0.670374 0.662113 0.445125
O O14 0.768362 0.764752 0.397169
O O15 0.500000 0.390138 0.192428
O O16 0.627159 0.500000 0.191718
O O17 0.658103 0.323501 0.182673
O O18 0.000000 0.112438 0.065365
O O19 0.876094 0.000000 0.060758
#
# Coordination Sequence:
#
# PCOD9559356 Si02
#       7
#    16  16  16  16  16  16  16
#     4   9  18  33  54  79 106 134 165 209 266 324
#     4   9  18  33  51  68  91 131 179 217 255 305
#     4   9  17  30  49  72  99 132 169 211 258 310
#     4  11  21  32  46  72 103 137 169 213 260 307
#     4  10  21  37  56  75  99 135 177 220 265 317
#     4   9  18  31  48  73 106 142 173 202 244 307
#     4  11  20  32  52  77 107 132 174 214 263 316
#
# _framework density 17.223520000000001
#
# number of rings (size 3 to 8) (size 9 to 14) (size 15 to 20)
#    0.000    2.286    1.429    3.000    0.000    4.000 
#    0.000    0.714    0.000    0.000    0.000    7.000 
#    0.000    5.714    0.000    0.000    0.000    0.000 
#
# Total GULP energy -312025.940003 kJ/mol
# GULP energy per Si atom -5571.891786 kJ/mol
# Density = 1.718432 g / cm^3
# Si number density = 17.223520 Si / 1000 Ang^3
#
#
#
# Elastic Constant Matrix: (Units=GPa)
#
#
# Indices 1 2 3 4 5 6 
#
# 1 73.6947 34.5818 28.8737 0.0000 0.0000 0.0000
# 2 34.5818 73.6947 28.8737 0.0000 0.0000 0.0000
# 3 28.8737 28.8737 66.9871 0.0000 0.0000 0.0000
# 4 0.0000 0.0000 0.0000 22.1784 0.0000 0.0000
# 5 0.0000 0.0000 0.0000 0.0000 22.1784 0.0000
# 6 0.0000 0.0000 0.0000 0.0000 0.0000 29.1095
#
#
#
# Elastic Compliance Matrix: (Units=1/GPa)
#
#
# Indices 1 2 3 4 5 6 
#
# 1 0.018780 -0.006787 -0.005169 0.000000 0.000000 0.000000
# 2 -0.006787 0.018780 -0.005169 0.000000 0.000000 0.000000
# 3 -0.005169 -0.005169 0.019384 0.000000 0.000000 0.000000
# 4 0.000000 0.000000 0.000000 0.045089 0.000000 0.000000
# 5 0.000000 0.000000 0.000000 0.000000 0.045089 0.000000
# 6 0.000000 0.000000 0.000000 0.000000 0.000000 0.034353
#
#
# Mechanical properties :
#
#
# Convention : Reuss Voigt Hill
#
# Bulk Modulus (GPa) = 44.06697 44.33722 44.20209
# Shear Modulus (GPa) = 22.39239 22.82977 22.61108
#
# Velocity S-wave (km/s) = 3.60961 3.64469 3.62719
# Velocity P-wave (km/s) = 6.55845 6.59620 6.57735
#
# Compressibility (1/GPa) = 0.02269273
#
# Stress axis : x y z
#
# Youngs Moduli (GPa) = 53.24885 53.24885 51.58775
#
# Poissons Ratio (x) = 0.36141 0.26667
# Poissons Ratio (y) = 0.36141 0.26667
# Poissons Ratio (z) = 0.27525 0.27525
#
# Static dielectric constant tensor:
#      x y z
#    x 1.597740 0.000000 0.000000 
#    y 0.000000 1.597740 0.000000 
#    z 0.000000 0.000000 1.590370 
# 
# From -- ./inp_files/9611.got.cif
#   From: 2010.05.17/outbox.cif.g08.bks.cpg/sg119_5_cif.got.tgz:9611.got - 2010.05.20 11:21:29.
