data_PCOD9559088
_publ_section_title
;
Structure prediction by ZEFSAII (Michael W. Deem and Ramdas Pophale) SiO2 
 PCOD9559088
Probable space group: I -4 M 2
;
_chemical_formula_sum "Si O2"
_cell_formula_units_Z 104
_cell_length_a 17.807790
_cell_length_b 17.807790
_cell_length_c 18.524696
_cell_angle_alpha 90.000000
_cell_angle_beta 90.000000
_cell_angle_gamma 90.000000
_cell_volume 5874.503148
_symmetry_space_group_name_H-M "I -4 M 2"
_symmetry_group_IT_number 119
_symmetry_cell_setting 'tetragonal'
loop_
_space_group_symop_operation_xyz
x,y,z
y,-x,-z
-x,-y,z
-y,x,-z
y,x,-z
-y,-x,-z
-x,y,z
x,-y,z
1/2+x,1/2+y,1/2+z
1/2+y,1/2-x,1/2-z
1/2-x,1/2-y,1/2+z
1/2-y,1/2+x,1/2-z
1/2+y,1/2+x,1/2-z
1/2-y,1/2-x,1/2-z
1/2-x,1/2+y,1/2+z
1/2+x,1/2-y,1/2+z
loop_
_atom_site_type_symbol
_atom_site_label
_atom_site_fract_x
_atom_site_fract_y
_atom_site_fract_z
Si Si1 0.698093 0.319295 0.115607
Si Si2 0.412070 0.229844 0.008800
Si Si3 0.589147 0.855555 0.408668
Si Si4 0.416815 0.413356 0.382157
Si Si5 0.215558 0.184895 0.079720
Si Si6 0.088838 0.588838 0.750000
Si Si7 0.584908 0.587791 0.208405
O O1 0.634128 0.280835 0.065417
O O2 0.753139 0.249168 0.132943
O O3 0.651154 0.361522 0.176802
O O4 0.747073 0.377783 0.068532
O O5 0.500000 0.245477 0.010966
O O6 0.397568 0.143960 0.034917
O O7 0.500000 0.869463 0.417488
O O8 0.612692 0.769189 0.416427
O O9 0.612233 0.876968 0.326518
O O10 0.500000 0.386409 0.405434
O O11 0.411089 0.500000 0.403139
O O12 0.346634 0.366717 0.409591
O O13 0.415083 0.408699 0.295115
O O14 0.220355 0.220355 0.000000
O O15 0.102275 0.500000 0.756125
O O16 0.500000 0.610543 0.184639
O O17 0.595005 0.500000 0.187755
#
# Coordination Sequence:
#
# PCOD9559088 Si02
#       7
#    16  16  16  16  16   8  16
#     4  10  19  34  49  75 105 138 173 210 257 305
#     4  10  19  32  49  71 102 138 175 212 252 300
#     4  10  20  34  52  74 103 138 175 214 257 311
#     4   9  20  37  56  79 103 131 173 221 268 316
#     4  11  21  37  50  74 105 139 175 217 262 311
#     4   9  18  32  50  76 108 138 172 210 251 306
#     4   9  18  34  56  81 107 136 173 217 262 310
#
# _framework density 17.703624000000001
#
# number of rings (size 3 to 8) (size 9 to 14) (size 15 to 20)
#    0.000    2.231    3.077    2.769    0.000    5.231 
#    0.000    3.846    0.000    3.692    0.000    0.000 
#    0.000    0.000    0.000    3.385    0.000    0.000 
#
# Total GULP energy -289708.979415 kJ/mol
# GULP energy per Si atom -5571.326527 kJ/mol
# Density = 1.766333 g / cm^3
# Si number density = 17.703624 Si / 1000 Ang^3
#
#
#
# Elastic Constant Matrix: (Units=GPa)
#
#
# Indices 1 2 3 4 5 6 
#
# 1 79.3535 41.5752 18.7501 0.0000 0.0000 0.0000
# 2 41.5752 79.3535 18.7501 0.0000 0.0000 0.0000
# 3 18.7501 18.7501 33.4740 0.0000 0.0000 0.0000
# 4 0.0000 0.0000 0.0000 31.0407 0.0000 0.0000
# 5 0.0000 0.0000 0.0000 0.0000 31.0407 0.0000
# 6 0.0000 0.0000 0.0000 0.0000 0.0000 37.5396
#
#
#
# Elastic Compliance Matrix: (Units=1/GPa)
#
#
# Indices 1 2 3 4 5 6 
#
# 1 0.018239 -0.008231 -0.005606 0.000000 0.000000 0.000000
# 2 -0.008231 0.018239 -0.005606 0.000000 0.000000 0.000000
# 3 -0.005606 -0.005606 0.036154 0.000000 0.000000 0.000000
# 4 0.000000 0.000000 0.000000 0.032216 0.000000 0.000000
# 5 0.000000 0.000000 0.000000 0.000000 0.032216 0.000000
# 6 0.000000 0.000000 0.000000 0.000000 0.000000 0.026639
#
#
# Mechanical properties :
#
#
# Convention : Reuss Voigt Hill
#
# Bulk Modulus (GPa) = 29.63276 38.92576 34.27926
# Shear Modulus (GPa) = 23.38244 27.46459 25.42352
#
# Velocity S-wave (km/s) = 3.63818 3.94300 3.79365
# Velocity P-wave (km/s) = 5.86712 6.53948 6.21240
#
# Compressibility (1/GPa) = 0.03374643
#
# Stress axis : x y z
#
# Youngs Moduli (GPa) = 54.82772 54.82772 27.65963
#
# Poissons Ratio (x) = 0.45130 0.15505
# Poissons Ratio (y) = 0.45130 0.15505
# Poissons Ratio (z) = 0.30735 0.30735
#
# Static dielectric constant tensor:
#      x y z
#    x 1.619670 0.000000 0.000000 
#    y 0.000000 1.619670 0.000000 
#    z 0.000000 0.000000 1.621040 
# 
# From -- ./inp_files/6710.got.cif
#   From: 2010.05.17/outbox.cif.g08.bks.cpg/sg119_4_cif.got.tgz:6710.got - 2010.05.20 11:21:29.
