data_PCOD9559574
_publ_section_title
;
Structure prediction by ZEFSAII (Michael W. Deem and Ramdas Pophale) SiO2 
 PCOD9559574
Probable space group: I -4 C 2
;
_chemical_formula_sum "Si O2"
_cell_formula_units_Z 96
_cell_length_a 15.908267
_cell_length_b 15.908267
_cell_length_c 17.063303
_cell_angle_alpha 90.000000
_cell_angle_beta 90.000000
_cell_angle_gamma 90.000000
_cell_volume 4318.260580
_symmetry_space_group_name_H-M "I -4 C 2"
_symmetry_group_IT_number 120
_symmetry_cell_setting 'tetragonal'
loop_
_space_group_symop_operation_xyz
x,y,z
y,-x,-z
-x,-y,z
-y,x,-z
y,x,1/2-z
-y,-x,1/2-z
-x,y,1/2+z
x,-y,1/2+z
1/2+x,1/2+y,1/2+z
1/2+y,1/2-x,1/2-z
1/2-x,1/2-y,1/2+z
1/2-y,1/2+x,1/2-z
1/2+y,1/2+x,-z
1/2-y,1/2-x,-z
1/2-x,1/2+y,z
1/2+x,1/2-y,z
loop_
_atom_site_type_symbol
_atom_site_label
_atom_site_fract_x
_atom_site_fract_y
_atom_site_fract_z
Si Si1 0.478689 0.692098 0.952753
Si Si2 0.317237 0.413361 0.408156
Si Si3 0.825145 0.843759 0.132924
Si Si4 0.773265 0.273265 0.000000
Si Si5 0.835979 0.164022 0.250000
Si Si6 0.687352 0.913850 0.666571
Si Si7 0.918177 0.280486 0.736671
O O1 0.405459 0.626555 0.935958
O O2 0.562997 0.664566 0.904553
O O3 0.447135 0.781108 0.917258
O O4 0.501738 0.693881 0.043495
O O5 0.242474 0.354987 0.444972
O O6 0.327098 0.409807 0.314479
O O7 0.801310 0.781186 0.062253
O O8 0.743029 0.857888 0.189005
O O9 0.898345 0.802185 0.184394
O O10 0.845808 0.243150 0.305877
O O11 0.604383 0.861785 0.684306
O O12 0.699198 0.993005 0.723931
#
# Coordination Sequence:
#
# PCOD9559574 Si02
#       7
#    16  16  16   8   8  16  16
#     4   9  20  35  54  79 113 151 196 248 309 372
#     4  10  20  36  55  81 113 152 196 247 307 372
#     4   9  18  34  55  79 106 150 199 247 296 360
#     4  10  18  30  54  76 102 144 194 242 290 352
#     4  10  20  36  58  81 110 149 204 256 298 360
#     4  10  20  35  56  84 115 155 199 251 306 372
#     4  10  19  34  56  80 115 152 199 253 306 365
#
# _framework density 22.231173999999999
#
# number of rings (size 3 to 8) (size 9 to 14) (size 15 to 20)
#    0.000    2.333    0.000    4.000    0.000    3.333 
#    0.000    3.333    0.000   10.000    0.000    0.000 
#    0.000   12.000    0.000    0.000    0.000    0.000 
#
# Total GULP energy -267271.881346 kJ/mol
# GULP energy per Si atom -5568.164195 kJ/mol
# Density = 2.218057 g / cm^3
# Si number density = 22.231174 Si / 1000 Ang^3
#
#
#
# Elastic Constant Matrix: (Units=GPa)
#
#
# Indices 1 2 3 4 5 6 
#
# 1 70.3780 17.8095 24.9995 0.0000 0.0000 0.0000
# 2 17.8095 70.3778 24.9995 0.0000 0.0000 0.0000
# 3 24.9995 24.9995 145.3560 0.0000 0.0000 0.0000
# 4 0.0000 0.0000 0.0000 35.1962 0.0000 0.0000
# 5 0.0000 0.0000 0.0000 0.0000 35.1965 0.0000
# 6 0.0000 0.0000 0.0000 0.0000 0.0000 16.5211
#
#
#
# Elastic Compliance Matrix: (Units=1/GPa)
#
#
# Indices 1 2 3 4 5 6 
#
# 1 0.015794 -0.003229 -0.002161 0.000000 0.000000 0.000000
# 2 -0.003229 0.015794 -0.002161 0.000000 0.000000 0.000000
# 3 -0.002161 -0.002161 0.007623 0.000000 0.000000 0.000000
# 4 0.000000 0.000000 0.000000 0.028412 0.000000 0.000000
# 5 0.000000 0.000000 0.000000 0.000000 0.028412 0.000000
# 6 0.000000 0.000000 0.000000 0.000000 0.000000 0.060529
#
#
# Mechanical properties :
#
#
# Convention : Reuss Voigt Hill
#
# Bulk Modulus (GPa) = 41.47922 46.85874 44.16898
# Shear Modulus (GPa) = 27.82392 31.93631 29.88011
#
# Velocity S-wave (km/s) = 3.54159 3.79430 3.67012
# Velocity P-wave (km/s) = 5.95168 6.34975 6.15394
#
# Compressibility (1/GPa) = 0.02410846
#
# Stress axis : x y z
#
# Youngs Moduli (GPa) = 63.31619 63.31601 131.18227
#
# Poissons Ratio (x) = 0.20445 0.28348
# Poissons Ratio (y) = 0.20445 0.28348
# Poissons Ratio (z) = 0.13682 0.13682
#
# Static dielectric constant tensor:
#      x y z
#    x 1.883700 0.000000 0.000000 
#    y 0.000000 1.883700 0.000000 
#    z 0.000000 0.000000 1.932400 
# 
# From -- ./inp_files/4491.got.cif
#   From: 2010.05.17/outbox.cif.g08.bks.cpg/sg120_3_cif.got.tgz:4491.got - 2010.05.20 11:28:13.
