data_PCOD9559825
_publ_section_title
;
Structure prediction by ZEFSAII (Michael W. Deem and Ramdas Pophale) SiO2 
 PCOD9559825
Probable space group: I -4 C 2
;
_chemical_formula_sum "Si O2"
_cell_formula_units_Z 92
_cell_length_a 24.375417
_cell_length_b 24.375417
_cell_length_c 7.709259
_cell_angle_alpha 90.000000
_cell_angle_beta 90.000000
_cell_angle_gamma 90.000000
_cell_volume 4580.540681
_symmetry_space_group_name_H-M "I -4 C 2"
_symmetry_group_IT_number 120
_symmetry_cell_setting 'tetragonal'
loop_
_space_group_symop_operation_xyz
x,y,z
y,-x,-z
-x,-y,z
-y,x,-z
y,x,1/2-z
-y,-x,1/2-z
-x,y,1/2+z
x,-y,1/2+z
1/2+x,1/2+y,1/2+z
1/2+y,1/2-x,1/2-z
1/2-x,1/2-y,1/2+z
1/2-y,1/2+x,1/2-z
1/2+y,1/2+x,-z
1/2-y,1/2-x,-z
1/2-x,1/2+y,z
1/2+x,1/2-y,z
loop_
_atom_site_type_symbol
_atom_site_label
_atom_site_fract_x
_atom_site_fract_y
_atom_site_fract_z
Si Si1 0.865401 0.079848 0.491208
Si Si2 0.631467 0.131467 0.500000
Si Si3 0.412446 0.245759 0.069382
Si Si4 0.500000 0.000000 0.750000
Si Si5 0.231033 0.522164 0.292088
Si Si6 0.957803 0.848722 0.112309
Si Si7 0.389489 0.058002 0.339468
O O1 0.808166 0.108036 0.434857
O O2 0.859111 0.063408 0.693429
O O3 0.917784 0.119169 0.481940
O O4 0.868861 0.020475 0.401302
O O5 0.626131 0.193524 0.568534
O O6 0.616285 0.090959 0.658808
O O7 0.447054 0.237108 0.890411
O O8 0.457220 0.239607 0.219529
O O9 0.440626 0.984730 0.834006
O O10 0.282903 0.542525 0.405108
O O11 0.169937 0.530708 0.364665
O O12 0.402615 0.097386 0.500000
#
# Coordination Sequence:
#
# PCOD9559825 Si02
#       7
#    16   8  16   4  16  16  16
#     4   9  18  33  55  81 111 145 178 222 277 337
#     4  10  22  37  56  80 106 144 194 236 282 327
#     4   9  18  33  53  77 102 139 184 228 271 332
#     4  12  26  36  50  82 116 146 186 232 294 330
#     4   9  19  34  53  74 100 143 183 220 273 335
#     4   9  18  34  55  81 109 144 181 220 276 334
#     4  11  25  37  54  77 112 149 184 237 285 339
#
# _framework density 20.084965
#
# number of rings (size 3 to 8) (size 9 to 14) (size 15 to 20)
#    0.000    2.435    0.000    1.304    9.739    1.043 
#    0.000    1.739    1.913    0.000    0.000    0.000 
#    0.000    0.000    0.000    0.000    0.000    0.000 
#
# Total GULP energy -256422.730510 kJ/mol
# GULP energy per Si atom -5574.407185 kJ/mol
# Density = 2.003925 g / cm^3
# Si number density = 20.084965 Si / 1000 Ang^3
#
#
#
# Elastic Constant Matrix: (Units=GPa)
#
#
# Indices 1 2 3 4 5 6 
#
# 1 107.1395 66.9916 17.9566 0.0000 0.0000 0.0000
# 2 66.9916 107.1390 17.9567 0.0000 0.0000 0.0000
# 3 17.9566 17.9567 46.7091 0.0000 0.0000 0.0000
# 4 0.0000 0.0000 0.0000 16.6488 0.0000 0.0000
# 5 0.0000 0.0000 0.0000 0.0000 16.6496 0.0000
# 6 0.0000 0.0000 0.0000 0.0000 0.0000 34.3002
#
#
#
# Elastic Compliance Matrix: (Units=1/GPa)
#
#
# Indices 1 2 3 4 5 6 
#
# 1 0.015573 -0.009335 -0.002398 0.000000 0.000000 0.000000
# 2 -0.009335 0.015573 -0.002398 0.000000 0.000000 0.000000
# 3 -0.002398 -0.002398 0.023253 0.000000 0.000000 0.000000
# 4 0.000000 0.000000 0.000000 0.060064 0.000000 0.000000
# 5 0.000000 0.000000 0.000000 0.000000 0.060062 0.000000
# 6 0.000000 0.000000 0.000000 0.000000 0.000000 0.029154
#
#
# Mechanical properties :
#
#
# Convention : Reuss Voigt Hill
#
# Bulk Modulus (GPa) = 38.26139 51.86637 45.06388
# Shear Modulus (GPa) = 20.77683 24.05856 22.41770
#
# Velocity S-wave (km/s) = 3.21977 3.46474 3.34450
# Velocity P-wave (km/s) = 5.73705 6.47189 6.11552
#
# Compressibility (1/GPa) = 0.02613601
#
# Stress axis : x y z
#
# Youngs Moduli (GPa) = 64.21509 64.21473 43.00565
#
# Poissons Ratio (x) = 0.59947 0.10312
# Poissons Ratio (y) = 0.59947 0.10312
# Poissons Ratio (z) = 0.15398 0.15398
#
# Static dielectric constant tensor:
#      x y z
#    x 1.726930 0.000000 0.000000 
#    y 0.000000 1.726930 0.000000 
#    z 0.000000 0.000000 1.787980 
# 
# From -- ./inp_files/1588.got.cif
#   From: 2010.05.17/outbox.cif.g08.bks.cpg/sg120_1_cif.got.tgz:1588.got - 2010.05.20 11:28:13.
