data_PCOD9559710
_publ_section_title
;
Structure prediction by ZEFSAII (Michael W. Deem and Ramdas Pophale) SiO2 
 PCOD9559710
Probable space group: I -4 C 2
;
_chemical_formula_sum "Si O2"
_cell_formula_units_Z 80
_cell_length_a 17.933680
_cell_length_b 17.933680
_cell_length_c 14.290203
_cell_angle_alpha 90.000000
_cell_angle_beta 90.000000
_cell_angle_gamma 90.000000
_cell_volume 4595.970480
_symmetry_space_group_name_H-M "I -4 C 2"
_symmetry_group_IT_number 120
_symmetry_cell_setting 'tetragonal'
loop_
_space_group_symop_operation_xyz
x,y,z
y,-x,-z
-x,-y,z
-y,x,-z
y,x,1/2-z
-y,-x,1/2-z
-x,y,1/2+z
x,-y,1/2+z
1/2+x,1/2+y,1/2+z
1/2+y,1/2-x,1/2-z
1/2-x,1/2-y,1/2+z
1/2-y,1/2+x,1/2-z
1/2+y,1/2+x,-z
1/2-y,1/2-x,-z
1/2-x,1/2+y,z
1/2+x,1/2-y,z
loop_
_atom_site_type_symbol
_atom_site_label
_atom_site_fract_x
_atom_site_fract_y
_atom_site_fract_z
Si Si1 0.500000 0.500000 0.500000
Si Si2 0.972474 0.231878 0.477839
Si Si3 0.640826 0.972467 0.371278
Si Si4 0.174241 0.174241 0.750000
Si Si5 0.869566 0.095728 0.440557
Si Si6 0.000000 0.500000 0.500000
Si Si7 0.814866 0.416954 0.703990
O O1 0.536975 0.437134 0.563830
O O2 0.959758 0.291952 0.557680
O O3 0.907967 0.169123 0.483869
O O4 0.963826 0.273090 0.378047
O O5 0.052313 0.192448 0.498492
O O6 0.613999 0.894053 0.329514
O O7 0.571685 0.001833 0.432836
O O8 0.667785 0.030042 0.292088
O O9 0.121265 0.156742 0.661355
O O10 0.151650 0.258634 0.775055
#
# Coordination Sequence:
#
# PCOD9559710 Si02
#       7
#     4  16  16   8  16   4  16
#     4   8  16  30  56  88 116 158 196 236 294 356
#     4  10  20  40  61  89 123 157 194 248 303 354
#     4  12  23  42  61  88 119 156 204 249 303 355
#     4  10  20  37  60  88 122 157 198 246 300 354
#     4   9  18  35  60  87 121 157 195 243 296 360
#     4  12  24  42  64  88 114 160 208 262 302 350
#     4  11  23  40  63  89 120 159 201 250 299 366
#
# _framework density 17.406552000000001
#
# number of rings (size 3 to 8) (size 9 to 14) (size 15 to 20)
#    0.000    1.600    4.000    1.200    0.000    0.400 
#    3.600    0.000    0.000    0.000    0.000    0.000 
#    0.000    0.000    0.000    0.000    0.000    0.000 
#
# Total GULP energy -222976.649035 kJ/mol
# GULP energy per Si atom -5574.416226 kJ/mol
# Density = 1.736693 g / cm^3
# Si number density = 17.406552 Si / 1000 Ang^3
#
#
#
# Elastic Constant Matrix: (Units=GPa)
#
#
# Indices 1 2 3 4 5 6 
#
# 1 80.6218 57.4660 57.3963 0.0000 0.0000 0.0000
# 2 57.4660 80.6218 57.3963 0.0000 0.0000 0.0000
# 3 57.3963 57.3963 110.8457 0.0000 0.0000 0.0000
# 4 0.0000 0.0000 0.0000 11.9389 0.0000 0.0000
# 5 0.0000 0.0000 0.0000 0.0000 11.9389 0.0000
# 6 0.0000 0.0000 0.0000 0.0000 0.0000 19.8260
#
#
#
# Elastic Compliance Matrix: (Units=1/GPa)
#
#
# Indices 1 2 3 4 5 6 
#
# 1 0.027950 -0.015235 -0.006584 0.000000 0.000000 0.000000
# 2 -0.015235 0.027950 -0.006584 0.000000 0.000000 0.000000
# 3 -0.006584 -0.006584 0.015840 0.000000 0.000000 0.000000
# 4 0.000000 0.000000 0.000000 0.083760 0.000000 0.000000
# 5 0.000000 0.000000 0.000000 0.000000 0.083760 0.000000
# 6 0.000000 0.000000 0.000000 0.000000 0.000000 0.050439
#
#
# Mechanical properties :
#
#
# Convention : Reuss Voigt Hill
#
# Bulk Modulus (GPa) = 66.95979 68.51179 67.73579
# Shear Modulus (GPa) = 14.22545 15.39616 14.81080
#
# Velocity S-wave (km/s) = 2.86185 2.97729 2.92014
# Velocity P-wave (km/s) = 7.03363 7.15990 7.09705
#
# Compressibility (1/GPa) = 0.01493434
#
# Stress axis : x y z
#
# Youngs Moduli (GPa) = 35.77774 35.77774 63.13210
#
# Poissons Ratio (x) = 0.54509 0.41565
# Poissons Ratio (y) = 0.54509 0.41565
# Poissons Ratio (z) = 0.23555 0.23555
#
# Static dielectric constant tensor:
#      x y z
#    x 1.603890 0.000000 0.000000 
#    y 0.000000 1.603890 0.000000 
#    z 0.000000 0.000000 1.579610 
# 
# From -- ./inp_files/3504.got.cif
#   From: 2010.05.17/outbox.cif.g08.bks.cpg/sg120_2_cif.got.tgz:3504.got - 2010.05.20 11:28:13.
