data_PCOD9559403
_publ_section_title
;
Structure prediction by ZEFSAII (Michael W. Deem and Ramdas Pophale) SiO2 
 PCOD9559403
Probable space group: I -4 M 2
;
_chemical_formula_sum "Si O2"
_cell_formula_units_Z 112
_cell_length_a 14.203688
_cell_length_b 14.203688
_cell_length_c 27.605635
_cell_angle_alpha 90.000000
_cell_angle_beta 90.000000
_cell_angle_gamma 90.000000
_cell_volume 5569.292009
_symmetry_space_group_name_H-M "I -4 M 2"
_symmetry_group_IT_number 119
_symmetry_cell_setting 'tetragonal'
loop_
_space_group_symop_operation_xyz
x,y,z
y,-x,-z
-x,-y,z
-y,x,-z
y,x,-z
-y,-x,-z
-x,y,z
x,-y,z
1/2+x,1/2+y,1/2+z
1/2+y,1/2-x,1/2-z
1/2-x,1/2-y,1/2+z
1/2-y,1/2+x,1/2-z
1/2+y,1/2+x,1/2-z
1/2-y,1/2-x,1/2-z
1/2-x,1/2+y,1/2+z
1/2+x,1/2-y,1/2+z
loop_
_atom_site_type_symbol
_atom_site_label
_atom_site_fract_x
_atom_site_fract_y
_atom_site_fract_z
Si Si1 0.608550 0.234255 0.056548
Si Si2 0.114625 0.108501 0.629231
Si Si3 0.278992 0.273202 0.695460
Si Si4 0.111147 0.609323 0.140133
Si Si5 0.894083 0.612233 0.650745
Si Si6 0.612787 0.105076 0.974944
Si Si7 0.891608 0.888468 0.261764
O O1 0.500000 0.261952 0.045462
O O2 0.649050 0.322687 0.086672
O O3 0.606512 0.149572 0.095666
O O4 0.651197 0.188906 0.008370
O O5 0.141146 0.142430 0.683626
O O6 0.000000 0.110490 0.628289
O O7 0.143235 0.000000 0.621873
O O8 0.262503 0.237498 0.750000
O O9 0.328378 0.190981 0.664917
O O10 0.189064 0.331073 0.676374
O O11 0.354193 0.352890 0.710682
O O12 0.138010 0.500000 0.151922
O O13 0.119549 0.622209 0.082287
O O14 0.000000 0.618487 0.152583
O O15 0.881962 0.500000 0.653739
O O16 0.000000 0.635149 0.670067
O O17 0.500000 0.102507 0.984278
O O18 0.649515 0.000000 0.987029
O O19 0.000000 0.861976 0.264270
O O20 0.880528 0.000000 0.262401
#
# Coordination Sequence:
#
# PCOD9559403 Si02
#       7
#    16  16  16  16  16  16  16
#     4   9  15  27  52  82 109 144 192 237 279 337
#     4   8  14  25  43  72 111 149 183 225 278 334
#     4  12  24  36  55  82 112 148 193 242 293 351
#     4   9  20  40  63  87 115 146 187 245 307 360
#     4  10  22  39  58  84 120 158 196 242 295 354
#     4   8  14  28  54  84 110 140 182 233 287 342
#     4   9  18  34  55  78 107 145 189 236 288 347
#
# _framework density 20.110275999999999
#
# number of rings (size 3 to 8) (size 9 to 14) (size 15 to 20)
#    0.000    2.714    0.000    3.857    0.000    5.143 
#    0.000    2.857    0.000    2.143    0.000    2.000 
#    0.000    0.000    0.000   10.286    0.000    3.429 
#
# Total GULP energy -312025.379871 kJ/mol
# GULP energy per Si atom -5571.881783 kJ/mol
# Density = 2.006450 g / cm^3
# Si number density = 20.110276 Si / 1000 Ang^3
#
#
#
# Elastic Constant Matrix: (Units=GPa)
#
#
# Indices 1 2 3 4 5 6 
#
# 1 114.1838 50.7091 44.6344 0.0000 0.0000 0.0000
# 2 50.7091 114.1825 44.6334 0.0000 0.0000 0.0000
# 3 44.6344 44.6334 74.9084 0.0000 0.0000 0.0000
# 4 0.0000 0.0000 0.0000 27.4227 0.0000 0.0000
# 5 0.0000 0.0000 0.0000 0.0000 27.4226 0.0000
# 6 0.0000 0.0000 0.0000 0.0000 0.0000 21.5659
#
#
#
# Elastic Compliance Matrix: (Units=1/GPa)
#
#
# Indices 1 2 3 4 5 6 
#
# 1 0.012353 -0.003401 -0.005334 0.000000 0.000000 0.000000
# 2 -0.003401 0.012353 -0.005334 0.000000 0.000000 0.000000
# 3 -0.005334 -0.005334 0.019706 0.000000 0.000000 0.000000
# 4 0.000000 0.000000 0.000000 0.036466 0.000000 0.000000
# 5 0.000000 0.000000 0.000000 0.000000 0.036466 0.000000
# 6 0.000000 0.000000 0.000000 0.000000 0.000000 0.046369
#
#
# Mechanical properties :
#
#
# Convention : Reuss Voigt Hill
#
# Bulk Modulus (GPa) = 61.44697 64.80317 63.12507
# Shear Modulus (GPa) = 25.34483 26.16876 25.75680
#
# Velocity S-wave (km/s) = 3.55391 3.61122 3.58268
# Velocity P-wave (km/s) = 6.88925 7.04853 6.96934
#
# Compressibility (1/GPa) = 0.01627420
#
# Stress axis : x y z
#
# Youngs Moduli (GPa) = 80.94926 80.94922 50.74494
#
# Poissons Ratio (x) = 0.27531 0.27069
# Poissons Ratio (y) = 0.27531 0.27068
# Poissons Ratio (z) = 0.43181 0.43179
#
# Static dielectric constant tensor:
#      x y z
#    x 2.677590 0.000000 0.000000 
#    y 0.000000 2.677590 0.000000 
#    z 0.000000 0.000000 1.759380 
# 
# From -- ./inp_files/9630.got.cif
#   From: 2010.05.17/outbox.cif.g08.bks.cpg/sg119_5_cif.got.tgz:9630.got - 2010.05.20 11:21:29.
