data_PCOD9559264
_publ_section_title
;
Structure prediction by ZEFSAII (Michael W. Deem and Ramdas Pophale) SiO2 
 PCOD9559264
Probable space group: I -4 M 2
;
_chemical_formula_sum "Si O2"
_cell_formula_units_Z 34
_cell_length_a 8.200092
_cell_length_b 8.200092
_cell_length_c 27.644231
_cell_angle_alpha 90.000000
_cell_angle_beta 90.000000
_cell_angle_gamma 90.000000
_cell_volume 1858.839802
_symmetry_space_group_name_H-M "I -4 M 2"
_symmetry_group_IT_number 119
_symmetry_cell_setting 'tetragonal'
loop_
_space_group_symop_operation_xyz
x,y,z
y,-x,-z
-x,-y,z
-y,x,-z
y,x,-z
-y,-x,-z
-x,y,z
x,-y,z
1/2+x,1/2+y,1/2+z
1/2+y,1/2-x,1/2-z
1/2-x,1/2-y,1/2+z
1/2-y,1/2+x,1/2-z
1/2+y,1/2+x,1/2-z
1/2-y,1/2-x,1/2-z
1/2-x,1/2+y,1/2+z
1/2+x,1/2-y,1/2+z
loop_
_atom_site_type_symbol
_atom_site_label
_atom_site_fract_x
_atom_site_fract_y
_atom_site_fract_z
Si Si1 0.500000 0.500000 0.000000
Si Si2 0.304789 0.804789 0.250000
Si Si3 0.500000 0.682433 0.094459
Si Si4 0.304116 0.679685 0.353846
O O1 0.500000 0.652217 0.036731
O O2 0.500000 0.780110 0.243934
O O3 0.249014 0.718209 0.299022
O O4 0.500000 0.500000 0.115893
O O5 0.666678 0.761475 0.112763
O O6 0.500000 0.674253 0.351893
O O7 0.244712 0.500000 0.369421
#
# Coordination Sequence:
#
# PCOD9559264 Si02
#       4
#     2   8   8  16
#     4   8  24  44  64  84 104 176 220 248 344 350
#     4   9  16  30  52  83 124 176 209 240 305 378
#     4  10  21  41  62  82 119 159 208 270 311 373
#     4  10  20  35  59  90 125 164 206 254 313 378
#
# _framework density 18.290980999999999
#
# number of rings (size 3 to 8) (size 9 to 14) (size 15 to 20)
#    0.706    1.647    2.353    0.706    0.000    2.824 
#    0.000    4.706    0.000    2.824    0.000    0.000 
#    0.000    0.000    0.000    0.000    0.000    0.000 
#
# Total GULP energy -94660.271783 kJ/mol
# GULP energy per Si atom -5568.251281 kJ/mol
# Density = 1.824935 g / cm^3
# Si number density = 18.290981 Si / 1000 Ang^3
#
#
#
# Elastic Constant Matrix: (Units=GPa)
#
#
# Indices 1 2 3 4 5 6 
#
# 1 85.9179 37.6505 49.1346 0.0000 0.0000 0.0000
# 2 37.6505 85.9179 49.1346 0.0000 0.0000 0.0000
# 3 49.1346 49.1346 127.6072 0.0000 0.0000 0.0000
# 4 0.0000 0.0000 0.0000 -3.1818 0.0000 0.0000
# 5 0.0000 0.0000 0.0000 0.0000 -3.1818 0.0000
# 6 0.0000 0.0000 0.0000 0.0000 0.0000 11.4750
#
#
#
# Elastic Compliance Matrix: (Units=1/GPa)
#
#
# Indices 1 2 3 4 5 6 
#
# 1 0.016191 -0.004527 -0.004491 0.000000 0.000000 0.000000
# 2 -0.004527 0.016191 -0.004491 0.000000 0.000000 0.000000
# 3 -0.004491 -0.004491 0.011295 0.000000 0.000000 0.000000
# 4 0.000000 0.000000 0.000000 -0.314289 0.000000 0.000000
# 5 0.000000 0.000000 0.000000 0.000000 -0.314288 0.000000
# 6 0.000000 0.000000 0.000000 0.000000 0.000000 0.087146
#
#
# Mechanical properties :
#
#
# Convention : Reuss Voigt Hill
#
# Bulk Modulus (GPa) = 60.02822 63.47585 61.75203
# Shear Modulus (GPa) = -10.74850 11.92383 0.58767
#
# Velocity S-wave (km/s) = -2.42676 2.55600 0.56744
# Velocity P-wave (km/s) = 5.00375 6.59466 5.85351
#
# Compressibility (1/GPa) = 0.01665883
#
# Stress axis : x y z
#
# Youngs Moduli (GPa) = 61.76194 61.76194 88.53231
#
# Poissons Ratio (x) = 0.27958 0.39763
# Poissons Ratio (y) = 0.27958 0.39763
# Poissons Ratio (z) = 0.27740 0.27740
#
# Static dielectric constant tensor:
#      x y z
#    x 1.673200 0.000000 0.000000 
#    y 0.000000 1.673200 0.000000 
#    z 0.000000 0.000000 1.610770 
# 
# From -- ./inp_files/9091.got.cif
#   From: 2010.05.17/outbox.cif.g08.bks.cpg/sg119_5_cif.got.tgz:9091.got - 2010.05.20 11:21:29.
