data_PCOD9559592
_publ_section_title
;
Structure prediction by ZEFSAII (Michael W. Deem and Ramdas Pophale) SiO2 
 PCOD9559592
Probable space group: I -4 C 2
;
_chemical_formula_sum "Si O2"
_cell_formula_units_Z 56
_cell_length_a 15.668403
_cell_length_b 15.668403
_cell_length_c 10.778109
_cell_angle_alpha 90.000000
_cell_angle_beta 90.000000
_cell_angle_gamma 90.000000
_cell_volume 2646.013392
_symmetry_space_group_name_H-M "I -4 C 2"
_symmetry_group_IT_number 120
_symmetry_cell_setting 'tetragonal'
loop_
_space_group_symop_operation_xyz
x,y,z
y,-x,-z
-x,-y,z
-y,x,-z
y,x,1/2-z
-y,-x,1/2-z
-x,y,1/2+z
x,-y,1/2+z
1/2+x,1/2+y,1/2+z
1/2+y,1/2-x,1/2-z
1/2-x,1/2-y,1/2+z
1/2-y,1/2+x,1/2-z
1/2+y,1/2+x,-z
1/2-y,1/2-x,-z
1/2-x,1/2+y,z
1/2+x,1/2-y,z
loop_
_atom_site_type_symbol
_atom_site_label
_atom_site_fract_x
_atom_site_fract_y
_atom_site_fract_z
Si Si1 0.691507 0.680908 0.882684
Si Si2 0.356189 0.856189 0.500000
Si Si3 0.628049 0.274340 0.854358
Si Si4 0.469106 0.135561 0.223991
O O1 0.653958 0.653958 0.750000
O O2 0.790569 0.708992 0.861189
O O3 0.648476 0.770587 0.919410
O O4 0.689279 0.622499 0.005729
O O5 0.439438 0.850961 0.583511
O O6 0.657210 0.342791 0.750000
O O7 0.549231 0.219780 0.803454
O O8 0.561784 0.095458 0.229831
#
# Coordination Sequence:
#
# PCOD9559592 Si02
#       4
#    16   8  16  16
#     4   9  15  28  58  71  82 119 184 243 255 269
#     4  10  18  35  46  72  98 131 190 220 236 300
#     4   9  15  31  53  67  88 136 183 219 246 283
#     4  11  23  34  47  74 115 152 168 199 256 322
#
# _framework density 21.163916
#
# number of rings (size 3 to 8) (size 9 to 14) (size 15 to 20)
#    0.000    2.571    8.571    0.000    0.000    6.857 
#    0.000    0.000    0.000    0.000    0.000    0.000 
#    0.000    1.143    0.000   20.571    0.000    4.000 
#
# Total GULP energy -156141.480452 kJ/mol
# GULP energy per Si atom -5576.481445 kJ/mol
# Density = 2.111575 g / cm^3
# Si number density = 21.163916 Si / 1000 Ang^3
#
#
#
# Elastic Constant Matrix: (Units=GPa)
#
#
# Indices 1 2 3 4 5 6 
#
# 1 -48.3372 113.5275 19.8703 0.0000 0.0000 0.0000
# 2 113.5275 -48.3336 19.8718 0.0000 0.0000 0.0000
# 3 19.8703 19.8718 185.5081 0.0000 0.0000 0.0000
# 4 0.0000 0.0000 0.0000 13.7562 0.0000 0.0000
# 5 0.0000 0.0000 0.0000 0.0000 13.7564 0.0000
# 6 0.0000 0.0000 0.0000 0.0000 0.0000 34.8374
#
#
#
# Elastic Compliance Matrix: (Units=1/GPa)
#
#
# Indices 1 2 3 4 5 6 
#
# 1 0.005116 0.011294 -0.001758 0.000000 0.000000 0.000000
# 2 0.011294 0.005117 -0.001758 0.000000 0.000000 0.000000
# 3 -0.001758 -0.001758 0.005767 0.000000 0.000000 0.000000
# 4 0.000000 0.000000 0.000000 0.072694 0.000000 0.000000
# 5 0.000000 0.000000 0.000000 0.000000 0.072694 0.000000
# 6 0.000000 0.000000 0.000000 0.000000 0.000000 0.028705
#
#
# Mechanical properties :
#
#
# Convention : Reuss Voigt Hill
#
# Bulk Modulus (GPa) = 31.68821 43.93074 37.80948
# Shear Modulus (GPa) = 27.01904 8.17450 17.59677
#
# Velocity S-wave (km/s) = 3.57691 1.96745 2.88662
# Velocity P-wave (km/s) = 5.66253 5.09545 5.38646
#
# Compressibility (1/GPa) = 0.03155747
#
# Stress axis : x y z
#
# Youngs Moduli (GPa) = 195.45555 195.44257 173.39435
#
# Poissons Ratio (x) = -2.20742 0.30481
# Poissons Ratio (y) = -2.20757 0.30481
# Poissons Ratio (z) = 0.34359 0.34357
#
# Static dielectric constant tensor:
#      x y z
#    x 1.759550 0.000000 0.000000 
#    y 0.000000 1.759550 0.000000 
#    z 0.000000 0.000000 3.995230 
# 
# From -- ./inp_files/2292.got.cif
#   From: 2010.05.17/outbox.cif.g08.bks.cpg/sg120_2_cif.got.tgz:2292.got - 2010.05.20 11:28:13.
