data_PCOD9559585
_publ_section_title
;
Structure prediction by ZEFSAII (Michael W. Deem and Ramdas Pophale) SiO2 
 PCOD9559585
Probable space group: I -4 C 2
;
_chemical_formula_sum "Si O2"
_cell_formula_units_Z 64
_cell_length_a 18.494460
_cell_length_b 18.494460
_cell_length_c 8.529171
_cell_angle_alpha 90.000000
_cell_angle_beta 90.000000
_cell_angle_gamma 90.000000
_cell_volume 2917.360727
_symmetry_space_group_name_H-M "I -4 C 2"
_symmetry_group_IT_number 120
_symmetry_cell_setting 'tetragonal'
loop_
_space_group_symop_operation_xyz
x,y,z
y,-x,-z
-x,-y,z
-y,x,-z
y,x,1/2-z
-y,-x,1/2-z
-x,y,1/2+z
x,-y,1/2+z
1/2+x,1/2+y,1/2+z
1/2+y,1/2-x,1/2-z
1/2-x,1/2-y,1/2+z
1/2-y,1/2+x,1/2-z
1/2+y,1/2+x,-z
1/2-y,1/2-x,-z
1/2-x,1/2+y,z
1/2+x,1/2-y,z
loop_
_atom_site_type_symbol
_atom_site_label
_atom_site_fract_x
_atom_site_fract_y
_atom_site_fract_z
Si Si1 0.432241 0.752767 0.583437
Si Si2 0.154326 0.531464 0.205880
Si Si3 0.428480 0.071521 0.500000
Si Si4 0.353300 0.353300 0.250000
Si Si5 0.518525 0.613465 0.481717
O O1 0.463179 0.803484 0.720087
O O2 0.428849 0.795650 0.420404
O O3 0.358880 0.715484 0.639198
O O4 0.487995 0.685420 0.562051
O O5 0.131303 0.573067 0.362836
O O6 0.087494 0.500197 0.103375
O O7 0.426408 0.358247 0.351668
O O8 0.567713 0.552766 0.569443
#
# Coordination Sequence:
#
# PCOD9559585 Si02
#       5
#    16  16   8   8  16
#     4  10  19  35  56  87 128 164 210 247 311 369
#     4  10  22  41  62  94 124 160 195 255 326 401
#     4  10  24  41  70  94 130 148 190 260 342 407
#     4  10  18  33  52  88 132 176 212 268 296 375
#     4   9  18  29  48  85 126 168 207 260 312 353
#
# _framework density 21.937636999999999
#
# number of rings (size 3 to 8) (size 9 to 14) (size 15 to 20)
#    0.000    2.250    2.500    0.000    0.000   13.500 
#    0.000    0.000    0.000    3.000    0.000    0.000 
#    0.000    0.000    0.000    0.000    0.000    0.000 
#
# Total GULP energy -178279.118625 kJ/mol
# GULP energy per Si atom -5571.222457 kJ/mol
# Density = 2.188771 g / cm^3
# Si number density = 21.937637 Si / 1000 Ang^3
#
#
#
# Elastic Constant Matrix: (Units=GPa)
#
#
# Indices 1 2 3 4 5 6 
#
# 1 65.1299 33.2636 50.8664 0.0000 0.0000 0.0000
# 2 33.2636 65.1304 50.8670 0.0000 0.0000 0.0000
# 3 50.8664 50.8670 169.4925 0.0000 0.0000 0.0000
# 4 0.0000 0.0000 0.0000 33.9146 0.0000 0.0000
# 5 0.0000 0.0000 0.0000 0.0000 33.9146 0.0000
# 6 0.0000 0.0000 0.0000 0.0000 0.0000 20.2095
#
#
#
# Elastic Compliance Matrix: (Units=1/GPa)
#
#
# Indices 1 2 3 4 5 6 
#
# 1 0.023058 -0.008323 -0.004422 0.000000 0.000000 0.000000
# 2 -0.008323 0.023058 -0.004422 0.000000 0.000000 0.000000
# 3 -0.004422 -0.004422 0.008554 0.000000 0.000000 0.000000
# 4 0.000000 0.000000 0.000000 0.029486 0.000000 0.000000
# 5 0.000000 0.000000 0.000000 0.000000 0.029486 0.000000
# 6 0.000000 0.000000 0.000000 0.000000 0.000000 0.049482
#
#
# Mechanical properties :
#
#
# Convention : Reuss Voigt Hill
#
# Bulk Modulus (GPa) = 49.17303 63.30519 56.23911
# Shear Modulus (GPa) = 24.48130 28.59147 26.53638
#
# Velocity S-wave (km/s) = 3.34421 3.61405 3.48174
# Velocity P-wave (km/s) = 6.11353 6.80696 6.46954
#
# Compressibility (1/GPa) = 0.02033635
#
# Stress axis : x y z
#
# Youngs Moduli (GPa) = 43.36834 43.36848 116.89925
#
# Poissons Ratio (x) = 0.36094 0.51697
# Poissons Ratio (y) = 0.36093 0.51698
# Poissons Ratio (z) = 0.19179 0.19179
#
# Static dielectric constant tensor:
#      x y z
#    x 1.885490 0.000000 0.000000 
#    y 0.000000 1.885490 0.000000 
#    z 0.000000 0.000000 1.840090 
# 
# From -- ./inp_files/1287.got.cif
#   From: 2010.05.17/outbox.cif.g08.bks.cpg/sg120_1_cif.got.tgz:1287.got - 2010.05.20 11:28:13.
