data_PCOD9559856
_publ_section_title
;
Structure prediction by ZEFSAII (Michael W. Deem and Ramdas Pophale) SiO2 
 PCOD9559856
Probable space group: I -4 C 2
;
_chemical_formula_sum "Si O2"
_cell_formula_units_Z 48
_cell_length_a 16.907675
_cell_length_b 16.907675
_cell_length_c 8.213434
_cell_angle_alpha 90.000000
_cell_angle_beta 90.000000
_cell_angle_gamma 90.000000
_cell_volume 2347.970057
_symmetry_space_group_name_H-M "I -4 C 2"
_symmetry_group_IT_number 120
_symmetry_cell_setting 'tetragonal'
loop_
_space_group_symop_operation_xyz
x,y,z
y,-x,-z
-x,-y,z
-y,x,-z
y,x,1/2-z
-y,-x,1/2-z
-x,y,1/2+z
x,-y,1/2+z
1/2+x,1/2+y,1/2+z
1/2+y,1/2-x,1/2-z
1/2-x,1/2-y,1/2+z
1/2-y,1/2+x,1/2-z
1/2+y,1/2+x,-z
1/2-y,1/2-x,-z
1/2-x,1/2+y,z
1/2+x,1/2-y,z
loop_
_atom_site_type_symbol
_atom_site_label
_atom_site_fract_x
_atom_site_fract_y
_atom_site_fract_z
Si Si1 0.255036 0.147507 0.632624
Si Si2 0.564567 0.896571 0.186493
Si Si3 0.395325 0.445063 0.069287
O O1 0.205760 0.205760 0.750000
O O2 0.302870 0.197131 0.500000
O O3 0.315711 0.097915 0.742344
O O4 0.191842 0.089138 0.547521
O O5 0.470068 0.901662 0.208103
O O6 0.588851 0.911150 0.000000
O O7 0.422612 0.422612 0.250000
O O8 0.403836 0.538695 0.043882
#
# Coordination Sequence:
#
# PCOD9559856 Si02
#       3
#    16  16  16
#     4  11  25  40  61  95 129 165 210 264 318 364
#     4  11  23  43  67  92 125 169 212 255 313 387
#     4  10  22  41  63  89 119 162 208 249 306 375
#
# _framework density 20.443192
#
# number of rings (size 3 to 8) (size 9 to 14) (size 15 to 20)
#    0.000    1.333    0.000    7.000    0.000   16.000 
#    0.000    0.000    0.000    0.000    0.000    0.000 
#    0.000    0.000    0.000    0.000    0.000    0.000 
#
# Total GULP energy -134267.510185 kJ/mol
# GULP energy per Si atom -5594.479591 kJ/mol
# Density = 2.039666 g / cm^3
# Si number density = 20.443192 Si / 1000 Ang^3
#
#
#
# Elastic Constant Matrix: (Units=GPa)
#
#
# Indices 1 2 3 4 5 6 
#
# 1 124.3166 103.4746 37.0585 0.0000 0.0000 0.0000
# 2 103.4746 124.3171 37.0563 0.0000 0.0000 0.0000
# 3 37.0585 37.0563 70.9679 0.0000 0.0000 0.0000
# 4 0.0000 0.0000 0.0000 34.4909 0.0000 0.0000
# 5 0.0000 0.0000 0.0000 0.0000 34.4904 0.0000
# 6 0.0000 0.0000 0.0000 0.0000 0.0000 45.4079
#
#
#
# Elastic Compliance Matrix: (Units=1/GPa)
#
#
# Indices 1 2 3 4 5 6 
#
# 1 0.026634 -0.021345 -0.002762 0.000000 0.000000 0.000000
# 2 -0.021345 0.026634 -0.002761 0.000000 0.000000 0.000000
# 3 -0.002762 -0.002761 0.016975 0.000000 0.000000 0.000000
# 4 0.000000 0.000000 0.000000 0.028993 0.000000 0.000000
# 5 0.000000 0.000000 0.000000 0.000000 0.028994 0.000000
# 6 0.000000 0.000000 0.000000 0.000000 0.000000 0.022023
#
#
# Mechanical properties :
#
#
# Convention : Reuss Voigt Hill
#
# Bulk Modulus (GPa) = 60.58475 74.97559 67.78017
# Shear Modulus (GPa) = 23.86741 32.34535 28.10638
#
# Velocity S-wave (km/s) = 3.42058 3.98201 3.71192
# Velocity P-wave (km/s) = 6.73056 7.60898 7.18321
#
# Compressibility (1/GPa) = 0.01650580
#
# Stress axis : x y z
#
# Youngs Moduli (GPa) = 37.54559 37.54661 58.91082
#
# Poissons Ratio (x) = 0.80145 0.16274
# Poissons Ratio (y) = 0.80143 0.16262
# Poissons Ratio (z) = 0.10372 0.10365
#
# Static dielectric constant tensor:
#      x y z
#    x 1.721450 0.000000 0.000000 
#    y 0.000000 1.721450 0.000000 
#    z 0.000000 0.000000 1.720210 
# 
# From -- ./inp_files/915.got.cif
#   From: 2010.05.17/outbox.cif.g08.bks.cpg/sg120_1_cif.got.tgz:915.got - 2010.05.20 11:28:13.
