data_PCOD9559648
_publ_section_title
;
Structure prediction by ZEFSAII (Michael W. Deem and Ramdas Pophale) SiO2 
 PCOD9559648
Probable space group: I -4 C 2
;
_chemical_formula_sum "Si O2"
_cell_formula_units_Z 64
_cell_length_a 12.922403
_cell_length_b 12.922403
_cell_length_c 15.861493
_cell_angle_alpha 90.000000
_cell_angle_beta 90.000000
_cell_angle_gamma 90.000000
_cell_volume 2648.686913
_symmetry_space_group_name_H-M "I -4 C 2"
_symmetry_group_IT_number 120
_symmetry_cell_setting 'tetragonal'
loop_
_space_group_symop_operation_xyz
x,y,z
y,-x,-z
-x,-y,z
-y,x,-z
y,x,1/2-z
-y,-x,1/2-z
-x,y,1/2+z
x,-y,1/2+z
1/2+x,1/2+y,1/2+z
1/2+y,1/2-x,1/2-z
1/2-x,1/2-y,1/2+z
1/2-y,1/2+x,1/2-z
1/2+y,1/2+x,-z
1/2-y,1/2-x,-z
1/2-x,1/2+y,z
1/2+x,1/2-y,z
loop_
_atom_site_type_symbol
_atom_site_label
_atom_site_fract_x
_atom_site_fract_y
_atom_site_fract_z
Si Si1 0.733069 0.089662 0.743784
Si Si2 0.012386 0.829349 0.506696
Si Si3 0.225282 0.395035 0.151210
Si Si4 0.138826 0.295983 0.595665
O O1 0.833344 0.166657 0.750000
O O2 0.651822 0.117142 0.817559
O O3 0.661393 0.112374 0.660193
O O4 0.765302 0.972604 0.723773
O O5 0.970057 0.761968 0.583127
O O6 0.101929 0.913587 0.524893
O O7 0.051300 0.748418 0.437780
O O8 0.291487 0.292190 0.137773
O O9 0.174528 0.325473 0.500000
#
# Coordination Sequence:
#
# PCOD9559648 Si02
#       4
#    16  16  16  16
#     4  10  22  39  60  89 122 173 209 263 331 393
#     4   9  18  34  62  95 121 156 212 278 325 376
#     4  10  21  38  60  85 128 166 209 261 323 397
#     4  10  19  38  63  90 120 165 220 268 328 384
#
# _framework density 24.162917
#
# number of rings (size 3 to 8) (size 9 to 14) (size 15 to 20)
#    0.000    2.250    2.500    0.000    0.000    2.500 
#    4.500    7.500    5.500    0.000    0.000    0.000 
#    0.000    0.000    0.000    0.000    0.000    0.000 
#
# Total GULP energy -178326.793775 kJ/mol
# GULP energy per Si atom -5572.712305 kJ/mol
# Density = 2.410792 g / cm^3
# Si number density = 24.162917 Si / 1000 Ang^3
#
#
#
# Elastic Constant Matrix: (Units=GPa)
#
#
# Indices 1 2 3 4 5 6 
#
# 1 46.9283 14.1726 29.1409 0.0000 0.0000 0.0000
# 2 14.1726 46.9266 29.1401 0.0000 0.0000 0.0000
# 3 29.1409 29.1401 103.1985 0.0000 0.0000 0.0000
# 4 0.0000 0.0000 0.0000 43.7611 0.0000 0.0000
# 5 0.0000 0.0000 0.0000 0.0000 43.7610 0.0000
# 6 0.0000 0.0000 0.0000 0.0000 0.0000 26.9617
#
#
#
# Elastic Compliance Matrix: (Units=1/GPa)
#
#
# Indices 1 2 3 4 5 6 
#
# 1 0.026464 -0.004065 -0.006325 0.000000 0.000000 0.000000
# 2 -0.004065 0.026465 -0.006325 0.000000 0.000000 0.000000
# 3 -0.006325 -0.006325 0.013262 0.000000 0.000000 0.000000
# 4 0.000000 0.000000 0.000000 0.022851 0.000000 0.000000
# 5 0.000000 0.000000 0.000000 0.000000 0.022851 0.000000
# 6 0.000000 0.000000 0.000000 0.000000 0.000000 0.037090
#
#
# Mechanical properties :
#
#
# Convention : Reuss Voigt Hill
#
# Bulk Modulus (GPa) = 30.52371 37.99564 34.25967
# Shear Modulus (GPa) = 25.86180 31.20340 28.53260
#
# Velocity S-wave (km/s) = 3.27511 3.59747 3.44007
# Velocity P-wave (km/s) = 5.19246 5.74584 5.47614
#
# Compressibility (1/GPa) = 0.03276142
#
# Stress axis : x y z
#
# Youngs Moduli (GPa) = 37.78650 37.78534 75.40247
#
# Poissons Ratio (x) = 0.15360 0.47693
# Poissons Ratio (y) = 0.15360 0.47693
# Poissons Ratio (z) = 0.23900 0.23900
#
# Static dielectric constant tensor:
#      x y z
#    x 2.024710 0.000000 0.000000 
#    y 0.000000 2.024710 0.000000 
#    z 0.000000 0.000000 2.047310 
# 
# From -- ./inp_files/3310.got.cif
#   From: 2010.05.17/outbox.cif.g08.bks.cpg/sg120_2_cif.got.tgz:3310.got - 2010.05.20 11:28:13.
