data_PCOD9559808
_publ_section_title
;
Structure prediction by ZEFSAII (Michael W. Deem and Ramdas Pophale) SiO2 
 PCOD9559808
Probable space group: I -4 C 2
;
_chemical_formula_sum "Si O2"
_cell_formula_units_Z 80
_cell_length_a 11.569864
_cell_length_b 11.569864
_cell_length_c 25.626030
_cell_angle_alpha 90.000000
_cell_angle_beta 90.000000
_cell_angle_gamma 90.000000
_cell_volume 3430.345298
_symmetry_space_group_name_H-M "I -4 C 2"
_symmetry_group_IT_number 120
_symmetry_cell_setting 'tetragonal'
loop_
_space_group_symop_operation_xyz
x,y,z
y,-x,-z
-x,-y,z
-y,x,-z
y,x,1/2-z
-y,-x,1/2-z
-x,y,1/2+z
x,-y,1/2+z
1/2+x,1/2+y,1/2+z
1/2+y,1/2-x,1/2-z
1/2-x,1/2-y,1/2+z
1/2-y,1/2+x,1/2-z
1/2+y,1/2+x,-z
1/2-y,1/2-x,-z
1/2-x,1/2+y,z
1/2+x,1/2-y,z
loop_
_atom_site_type_symbol
_atom_site_label
_atom_site_fract_x
_atom_site_fract_y
_atom_site_fract_z
Si Si1 0.631037 0.016100 0.896119
Si Si2 0.313854 0.642460 0.926489
Si Si3 0.834377 0.665624 0.000000
Si Si4 0.935208 0.816870 0.297096
Si Si5 0.323373 0.210555 0.323488
Si Si6 0.000000 0.000000 0.883910
O O1 0.685018 0.077985 0.844710
O O2 0.500000 0.000000 0.881472
O O3 0.684399 0.895268 0.914419
O O4 0.639808 0.088965 0.949768
O O5 0.342715 0.724606 0.878072
O O6 0.391455 0.531035 0.918935
O O7 0.342761 0.703766 0.979854
O O8 0.904876 0.904876 0.250000
O O9 0.807170 0.756051 0.303897
O O10 0.056542 0.742366 0.291801
O O11 0.959628 0.895775 0.347141
#
# Coordination Sequence:
#
# PCOD9559808 Si02
#       6
#    16  16   8  16  16   8
#     4  11  22  41  64  92 136 183 230 292 364 438
#     4  10  22  40  66  90 136 175 232 283 359 434
#     4  10  25  36  59 100 124 172 230 290 343 424
#     4  11  23  43  72 106 141 182 247 307 381 455
#     4  10  23  44  68 103 137 187 236 297 378 452
#     4  10  21  42  69  96 132 190 226 297 367 454
#
# _framework density 23.321266000000001
#
# number of rings (size 3 to 8) (size 9 to 14) (size 15 to 20)
#    0.000    1.600    2.000    1.800    2.800    4.800 
#    3.600    0.000    0.000    0.000    0.000    0.000 
#    0.000    0.000    0.000    0.000    0.000    0.000 
#
# Total GULP energy -222669.151193 kJ/mol
# GULP energy per Si atom -5566.728780 kJ/mol
# Density = 2.326819 g / cm^3
# Si number density = 23.321266 Si / 1000 Ang^3
#
#
#
# Elastic Constant Matrix: (Units=GPa)
#
#
# Indices 1 2 3 4 5 6 
#
# 1 84.6842 7.1029 22.0220 0.0000 0.0000 0.0000
# 2 7.1029 84.6845 22.0223 0.0000 0.0000 0.0000
# 3 22.0220 22.0223 28.4647 0.0000 0.0000 0.0000
# 4 0.0000 0.0000 0.0000 11.3288 0.0000 0.0000
# 5 0.0000 0.0000 0.0000 0.0000 11.3293 0.0000
# 6 0.0000 0.0000 0.0000 0.0000 0.0000 43.0029
#
#
#
# Elastic Compliance Matrix: (Units=1/GPa)
#
#
# Indices 1 2 3 4 5 6 
#
# 1 0.015109 0.002219 -0.013406 0.000000 0.000000 0.000000
# 2 0.002219 0.015109 -0.013406 0.000000 0.000000 0.000000
# 3 -0.013406 -0.013406 0.055874 0.000000 0.000000 0.000000
# 4 0.000000 0.000000 0.000000 0.088271 0.000000 0.000000
# 5 0.000000 0.000000 0.000000 0.000000 0.088267 0.000000
# 6 0.000000 0.000000 0.000000 0.000000 0.000000 0.023254
#
#
# Mechanical properties :
#
#
# Convention : Reuss Voigt Hill
#
# Bulk Modulus (GPa) = 27.09550 33.34753 30.22151
# Shear Modulus (GPa) = 14.39385 22.91127 18.65256
#
# Velocity S-wave (km/s) = 2.48704 3.13776 2.83116
# Velocity P-wave (km/s) = 4.45991 5.24000 4.86561
#
# Compressibility (1/GPa) = 0.03690650
#
# Stress axis : x y z
#
# Youngs Moduli (GPa) = 66.18758 66.18746 17.89736
#
# Poissons Ratio (x) = -0.14686 0.23992
# Poissons Ratio (y) = -0.14686 0.23993
# Poissons Ratio (z) = 0.88728 0.88729
#
# Static dielectric constant tensor:
#      x y z
#    x 1.989010 0.000000 0.000000 
#    y 0.000000 1.989010 0.000000 
#    z 0.000000 0.000000 1.817260 
# 
# From -- ./inp_files/6518.got.cif
#   From: 2010.05.17/outbox.cif.g08.bks.cpg/sg120_4_cif.got.tgz:6518.got - 2010.05.20 11:28:13.
