data_PCOD9559421
_publ_section_title
;
Structure prediction by ZEFSAII (Michael W. Deem and Ramdas Pophale) SiO2 
 PCOD9559421
Probable space group: I -4 M 2
;
_chemical_formula_sum "Si O2"
_cell_formula_units_Z 112
_cell_length_a 31.213497
_cell_length_b 31.213497
_cell_length_c 5.387441
_cell_angle_alpha 90.000000
_cell_angle_beta 90.000000
_cell_angle_gamma 90.000000
_cell_volume 5248.888920
_symmetry_space_group_name_H-M "I -4 M 2"
_symmetry_group_IT_number 119
_symmetry_cell_setting 'tetragonal'
loop_
_space_group_symop_operation_xyz
x,y,z
y,-x,-z
-x,-y,z
-y,x,-z
y,x,-z
-y,-x,-z
-x,y,z
x,-y,z
1/2+x,1/2+y,1/2+z
1/2+y,1/2-x,1/2-z
1/2-x,1/2-y,1/2+z
1/2-y,1/2+x,1/2-z
1/2+y,1/2+x,1/2-z
1/2-y,1/2-x,1/2-z
1/2-x,1/2+y,1/2+z
1/2+x,1/2-y,1/2+z
loop_
_atom_site_type_symbol
_atom_site_label
_atom_site_fract_x
_atom_site_fract_y
_atom_site_fract_z
Si Si1 0.314625 0.745398 0.326908
Si Si2 0.090149 0.339183 0.267803
Si Si3 0.378598 0.949088 0.234806
Si Si4 0.396440 0.750568 0.571006
Si Si5 0.448984 0.591766 0.252246
Si Si6 0.130379 0.808263 0.438595
Si Si7 0.306342 0.451175 0.764531
O O1 0.286705 0.713296 0.500000
O O2 0.280316 0.780316 0.250000
O O3 0.356827 0.770819 0.421196
O O4 0.336887 0.719257 0.103041
O O5 0.135517 0.364484 0.250000
O O6 0.066809 0.353456 0.520093
O O7 0.092674 0.287751 0.261531
O O8 0.065113 0.354567 0.018862
O O9 0.423554 0.923554 0.250000
O O10 0.383761 0.000000 0.237959
O O11 0.436299 0.729560 0.432129
O O12 0.370545 0.708143 0.661858
O O13 0.431273 0.568728 0.500000
O O14 0.500000 0.583507 0.221624
O O15 0.444990 0.643296 0.302581
O O16 0.425363 0.574638 0.000000
O O17 0.143953 0.856048 0.500000
O O18 0.082082 0.799711 0.515728
O O19 0.300431 0.500000 0.834442
#
# Coordination Sequence:
#
# PCOD9559421 Si02
#       7
#    16  16  16  16  16  16  16
#     4  11  24  38  61  94 132 166 215 274 338 397
#     4  10  24  42  66  96 138 182 229 280 340 406
#     4  10  22  43  69 102 137 179 228 284 349 413
#     4  11  26  42  64  94 127 179 227 278 331 404
#     4  11  25  45  72 102 134 172 211 267 336 404
#     4  11  23  42  66  93 127 169 220 273 338 396
#     4  10  26  44  64  96 129 169 223 273 331 402
#
# _framework density 21.337847
#
# number of rings (size 3 to 8) (size 9 to 14) (size 15 to 20)
#    0.000    1.429    1.429    1.714   10.000    3.286 
#    0.000    0.000    0.000    2.571    0.000    0.000 
#    0.000    0.000    0.000    0.000    0.000    0.000 
#
# Total GULP energy -312129.672898 kJ/mol
# GULP energy per Si atom -5573.744159 kJ/mol
# Density = 2.128928 g / cm^3
# Si number density = 21.337847 Si / 1000 Ang^3
#
#
#
# Elastic Constant Matrix: (Units=GPa)
#
#
# Indices 1 2 3 4 5 6 
#
# 1 120.6932 71.0729 26.4769 0.0000 0.0000 0.0000
# 2 71.0729 120.7018 26.4804 0.0000 0.0000 0.0000
# 3 26.4769 26.4804 70.5977 0.0000 0.0000 0.0000
# 4 0.0000 0.0000 0.0000-1996.2956 0.0000 0.0000
# 5 0.0000 0.0000 0.0000 0.0000-1978.8893 0.0000
# 6 0.0000 0.0000 0.0000 0.0000 0.0000 24.6239
#
#
#
# Elastic Compliance Matrix: (Units=1/GPa)
#
#
# Indices 1 2 3 4 5 6 
#
# 1 0.012985 -0.007167 -0.002181 0.000000 0.000000 0.000000
# 2 -0.007167 0.012984 -0.002182 0.000000 0.000000 0.000000
# 3 -0.002181 -0.002182 0.015801 0.000000 0.000000 0.000000
# 4 0.000000 0.000000 0.000000 -0.000501 0.000000 0.000000
# 5 0.000000 0.000000 0.000000 0.000000 -0.000505 0.000000
# 6 0.000000 0.000000 0.000000 0.000000 0.000000 0.040611
#
#
# Mechanical properties :
#
#
# Convention : Reuss Voigt Hill
#
# Bulk Modulus (GPa) = 53.45189 62.22814 57.84001
# Shear Modulus (GPa) = 45.17861 -777.58135 -366.20137
#
# Velocity S-wave (km/s) = 4.60640 -19.11034 -13.11462
# Velocity P-wave (km/s) = 7.30730 21.39425 14.21825
#
# Compressibility (1/GPa) = 0.01870841
#
# Stress axis : x y z
#
# Youngs Moduli (GPa) = 77.01470 77.01888 63.28563
#
# Poissons Ratio (x) = 0.55200 0.13805
# Poissons Ratio (y) = 0.55197 0.13810
# Poissons Ratio (z) = 0.16800 0.16807
#
# Static dielectric constant tensor:
#      x y z
#    x 3.355530 0.000000 0.000000 
#    y 0.000000 3.368050 0.000000 
#    z 0.000000 0.000000 1.892010 
# 
# From -- ./inp_files/1241.got.cif
#   From: 2010.05.17/outbox.cif.g08.bks.cpg/sg119_1_cif.got.tgz:1241.got - 2010.05.20 11:21:29.
