data_PCOD9559898
_publ_section_title
;
Structure prediction by ZEFSAII (Michael W. Deem and Ramdas Pophale) SiO2 
 PCOD9559898
Probable space group: I -4 C 2
;
_chemical_formula_sum "Si O2"
_cell_formula_units_Z 96
_cell_length_a 14.425732
_cell_length_b 14.425732
_cell_length_c 22.124600
_cell_angle_alpha 90.000000
_cell_angle_beta 90.000000
_cell_angle_gamma 90.000000
_cell_volume 4604.167839
_symmetry_space_group_name_H-M "I -4 C 2"
_symmetry_group_IT_number 120
_symmetry_cell_setting 'tetragonal'
loop_
_space_group_symop_operation_xyz
x,y,z
y,-x,-z
-x,-y,z
-y,x,-z
y,x,1/2-z
-y,-x,1/2-z
-x,y,1/2+z
x,-y,1/2+z
1/2+x,1/2+y,1/2+z
1/2+y,1/2-x,1/2-z
1/2-x,1/2-y,1/2+z
1/2-y,1/2+x,1/2-z
1/2+y,1/2+x,-z
1/2-y,1/2-x,-z
1/2-x,1/2+y,z
1/2+x,1/2-y,z
loop_
_atom_site_type_symbol
_atom_site_label
_atom_site_fract_x
_atom_site_fract_y
_atom_site_fract_z
Si Si1 0.693114 0.193114 0.500000
Si Si2 0.910157 0.372881 0.249051
Si Si3 0.000000 0.500000 0.500000
Si Si4 0.500000 0.500000 0.000000
Si Si5 0.387401 0.770957 0.628000
Si Si6 0.302419 0.469323 0.542719
Si Si7 0.312472 0.942578 0.935723
Si Si8 0.884494 0.736511 0.872380
O O1 0.644878 0.180449 0.565628
O O2 0.636463 0.285447 0.479398
O O3 0.877385 0.478333 0.256719
O O4 0.868910 0.328194 0.188375
O O5 0.886875 0.312270 0.307663
O O6 0.984402 0.412542 0.544121
O O7 0.487592 0.410443 0.958799
O O8 0.498213 0.767913 0.618655
O O9 0.330515 0.675393 0.629140
O O10 0.253064 0.533377 0.491864
O O11 0.257156 0.512049 0.602995
O O12 0.332343 0.836835 0.917149
#
# Coordination Sequence:
#
# PCOD9559898 Si02
#       8
#     8  16   4   4  16  16  16  16
#     4  10  23  41  73 100 137 173 237 296 344 427
#     4  11  24  43  68  99 135 178 235 302 359 421
#     4  12  22  38  68 106 146 164 218 306 372 398
#     4  12  28  44  68 100 162 192 236 296 370 428
#     4  11  24  41  62 101 141 180 230 286 360 428
#     4  11  23  43  65 103 141 190 229 291 356 427
#     4  11  23  39  67 104 138 175 232 289 353 427
#     4  12  24  40  70  97 141 185 233 289 356 428
#
# _framework density 20.850674000000001
#
# number of rings (size 3 to 8) (size 9 to 14) (size 15 to 20)
#    0.000    0.833    3.333    5.500    7.000    0.000 
#    0.000    0.000    0.000    0.000    0.000    4.667 
#    0.000    0.000    0.000    0.000    0.000    0.000 
#
# Total GULP energy -267348.121479 kJ/mol
# GULP energy per Si atom -5569.752531 kJ/mol
# Density = 2.080322 g / cm^3
# Si number density = 20.850674 Si / 1000 Ang^3
#
#
#
# Elastic Constant Matrix: (Units=GPa)
#
#
# Indices 1 2 3 4 5 6 
#
# 1 90.8081 44.5323 11.1781 0.0000 0.0000 0.0000
# 2 44.5323 90.8081 11.1781 0.0000 0.0000 0.0000
# 3 11.1781 11.1781 99.3881 0.0000 0.0000 0.0000
# 4 0.0000 0.0000 0.0000 3.7286 0.0000 0.0000
# 5 0.0000 0.0000 0.0000 0.0000 3.7286 0.0000
# 6 0.0000 0.0000 0.0000 0.0000 0.0000 30.5678
#
#
#
# Elastic Compliance Matrix: (Units=1/GPa)
#
#
# Indices 1 2 3 4 5 6 
#
# 1 0.014569 -0.007040 -0.000847 0.000000 0.000000 0.000000
# 2 -0.007040 0.014569 -0.000847 0.000000 0.000000 0.000000
# 3 -0.000847 -0.000847 0.010252 0.000000 0.000000 0.000000
# 4 0.000000 0.000000 0.000000 0.268194 0.000000 0.000000
# 5 0.000000 0.000000 0.000000 0.000000 0.268194 0.000000
# 6 0.000000 0.000000 0.000000 0.000000 0.000000 0.032714
#
#
# Mechanical properties :
#
#
# Convention : Reuss Voigt Hill
#
# Bulk Modulus (GPa) = 45.61551 46.08680 45.85116
# Shear Modulus (GPa) = 7.89555 21.87941 14.88748
#
# Velocity S-wave (km/s) = 1.94806 3.24286 2.67499
# Velocity P-wave (km/s) = 5.19467 6.01438 5.61949
#
# Compressibility (1/GPa) = 0.02192237
#
# Stress axis : x y z
#
# Youngs Moduli (GPa) = 68.63842 68.63842 97.54167
#
# Poissons Ratio (x) = 0.48325 0.08259
# Poissons Ratio (y) = 0.48325 0.08259
# Poissons Ratio (z) = 0.05812 0.05812
#
# Static dielectric constant tensor:
#      x y z
#    x 1.804510 0.000000 0.000000 
#    y 0.000000 1.804510 0.000000 
#    z 0.000000 0.000000 1.742460 
# 
# From -- ./inp_files/5425.got.cif
#   From: 2010.05.17/outbox.cif.g08.bks.cpg/sg120_3_cif.got.tgz:5425.got - 2010.05.20 11:28:13.
