data_PCOD9559802
_publ_section_title
;
Structure prediction by ZEFSAII (Michael W. Deem and Ramdas Pophale) SiO2 
 PCOD9559802
Probable space group: I -4 C 2
;
_chemical_formula_sum "Si O2"
_cell_formula_units_Z 96
_cell_length_a 20.051206
_cell_length_b 20.051206
_cell_length_c 12.317127
_cell_angle_alpha 90.000000
_cell_angle_beta 90.000000
_cell_angle_gamma 90.000000
_cell_volume 4952.111528
_symmetry_space_group_name_H-M "I -4 C 2"
_symmetry_group_IT_number 120
_symmetry_cell_setting 'tetragonal'
loop_
_space_group_symop_operation_xyz
x,y,z
y,-x,-z
-x,-y,z
-y,x,-z
y,x,1/2-z
-y,-x,1/2-z
-x,y,1/2+z
x,-y,1/2+z
1/2+x,1/2+y,1/2+z
1/2+y,1/2-x,1/2-z
1/2-x,1/2-y,1/2+z
1/2-y,1/2+x,1/2-z
1/2+y,1/2+x,-z
1/2-y,1/2-x,-z
1/2-x,1/2+y,z
1/2+x,1/2-y,z
loop_
_atom_site_type_symbol
_atom_site_label
_atom_site_fract_x
_atom_site_fract_y
_atom_site_fract_z
Si Si1 0.747717 0.295263 0.366165
Si Si2 0.734136 0.447818 0.415215
Si Si3 0.047232 0.905214 0.473271
Si Si4 0.893766 0.680332 0.912339
Si Si5 0.188269 0.311732 0.500000
Si Si6 0.627623 0.372378 0.750000
Si Si7 0.585162 0.777703 0.184849
O O1 0.735685 0.264316 0.250000
O O2 0.746321 0.375241 0.362905
O O3 0.823161 0.279818 0.404311
O O4 0.691514 0.259544 0.438035
O O5 0.657642 0.449471 0.447567
O O6 0.773566 0.447149 0.529348
O O7 0.761121 0.509547 0.347801
O O8 0.083265 0.891382 0.357243
O O9 0.968704 0.921041 0.465582
O O10 0.911860 0.671920 0.787337
O O11 0.878034 0.621967 0.000000
O O12 0.192015 0.371063 0.413381
O O13 0.704932 0.385363 0.781486
#
# Coordination Sequence:
#
# PCOD9559802 Si02
#       7
#    16  16  16  16   8   8  16
#     4  11  21  37  65  93 128 175 223 273 339 401
#     4  11  23  39  61  95 128 171 227 280 327 404
#     4  11  24  39  54  80 124 180 234 269 321 391
#     4  10  21  41  63  89 128 167 207 271 349 395
#     4  12  22  38  64  98 129 169 228 274 346 410
#     4  12  22  41  60  76 126 182 216 280 337 374
#     4  12  24  39  66  94 131 173 219 287 341 401
#
# _framework density 19.385669
#
# number of rings (size 3 to 8) (size 9 to 14) (size 15 to 20)
#    0.000    0.833    7.500    2.000    0.000    4.000 
#    0.000    0.000    0.000    0.000    0.000    5.250 
#    0.000    0.000    0.000    0.000    0.000    0.000 
#
# Total GULP energy -267516.821080 kJ/mol
# GULP energy per Si atom -5573.267106 kJ/mol
# Density = 1.934155 g / cm^3
# Si number density = 19.385669 Si / 1000 Ang^3
#
#
#
# Elastic Constant Matrix: (Units=GPa)
#
#
# Indices 1 2 3 4 5 6 
#
# 1 71.3171 25.5600 34.3136 0.0000 0.0000 0.0000
# 2 25.5600 71.3168 34.3146 0.0000 0.0000 0.0000
# 3 34.3136 34.3146 121.1795 0.0000 0.0000 0.0000
# 4 0.0000 0.0000 0.0000 29.4295 0.0000 0.0000
# 5 0.0000 0.0000 0.0000 0.0000 29.4290 0.0000
# 6 0.0000 0.0000 0.0000 0.0000 0.0000 16.3982
#
#
#
# Elastic Compliance Matrix: (Units=1/GPa)
#
#
# Indices 1 2 3 4 5 6 
#
# 1 0.017383 -0.004471 -0.003656 0.000000 0.000000 0.000000
# 2 -0.004471 0.017384 -0.003657 0.000000 0.000000 0.000000
# 3 -0.003656 -0.003657 0.010323 0.000000 0.000000 0.000000
# 4 0.000000 0.000000 0.000000 0.033979 0.000000 0.000000
# 5 0.000000 0.000000 0.000000 0.000000 0.033980 0.000000
# 6 0.000000 0.000000 0.000000 0.000000 0.000000 0.060982
#
#
# Mechanical properties :
#
#
# Convention : Reuss Voigt Hill
#
# Bulk Modulus (GPa) = 46.46306 50.24332 48.35319
# Shear Modulus (GPa) = 24.41716 26.35969 25.38842
#
# Velocity S-wave (km/s) = 3.55286 3.69148 3.62283
# Velocity P-wave (km/s) = 6.39141 6.64405 6.51896
#
# Compressibility (1/GPa) = 0.02152247
#
# Stress axis : x y z
#
# Youngs Moduli (GPa) = 57.52584 57.52508 96.87115
#
# Poissons Ratio (x) = 0.25719 0.35419
# Poissons Ratio (y) = 0.25720 0.35421
# Poissons Ratio (z) = 0.21033 0.21034
#
# Static dielectric constant tensor:
#      x y z
#    x 1.707660 0.000000 0.000000 
#    y 0.000000 1.707670 0.000000 
#    z 0.000000 0.000000 1.766430 
# 
# From -- ./inp_files/2765.got.cif
#   From: 2010.05.17/outbox.cif.g08.bks.cpg/sg120_2_cif.got.tgz:2765.got - 2010.05.20 11:28:13.
