data_PCOD9559958
_publ_section_title
;
Structure prediction by ZEFSAII (Michael W. Deem and Ramdas Pophale) SiO2 
 PCOD9559958
Probable space group: I -4 C 2
;
_chemical_formula_sum "Si O2"
_cell_formula_units_Z 96
_cell_length_a 13.670220
_cell_length_b 13.670220
_cell_length_c 27.634381
_cell_angle_alpha 90.000000
_cell_angle_beta 90.000000
_cell_angle_gamma 90.000000
_cell_volume 5164.172596
_symmetry_space_group_name_H-M "I -4 C 2"
_symmetry_group_IT_number 120
_symmetry_cell_setting 'tetragonal'
loop_
_space_group_symop_operation_xyz
x,y,z
y,-x,-z
-x,-y,z
-y,x,-z
y,x,1/2-z
-y,-x,1/2-z
-x,y,1/2+z
x,-y,1/2+z
1/2+x,1/2+y,1/2+z
1/2+y,1/2-x,1/2-z
1/2-x,1/2-y,1/2+z
1/2-y,1/2+x,1/2-z
1/2+y,1/2+x,-z
1/2-y,1/2-x,-z
1/2-x,1/2+y,z
1/2+x,1/2-y,z
loop_
_atom_site_type_symbol
_atom_site_label
_atom_site_fract_x
_atom_site_fract_y
_atom_site_fract_z
Si Si1 0.616704 0.616704 0.750000
Si Si2 0.164160 0.973969 0.500000
Si Si3 0.769721 0.885940 0.652067
Si Si4 0.616704 0.616704 0.250000
Si Si5 0.230279 0.885940 0.847933
Si Si6 0.748546 0.913844 0.899852
Si Si7 0.413844 0.248546 0.899852
O O1 0.631628 0.500000 0.750000
O O2 0.643522 0.676161 0.701975
O O3 0.229679 0.958908 0.452340
O O4 0.229679 0.958908 0.547660
O O5 0.077766 0.892094 0.500000
O O6 0.823839 0.856478 0.701975
O O7 0.664969 0.835031 0.651746
O O8 0.837198 0.835098 0.611632
O O9 0.758019 0.999467 0.639442
O O10 0.162802 0.835098 0.888368
O O11 0.241981 0.999467 0.860558
O O12 0.648149 0.851851 0.897436
#
# Coordination Sequence:
#
# PCOD9559958 Si02
#       7
#     8  16  16   8  16  16  16
#     4  11  21  36  64  94 121 157 202 258 310 368
#     4  11  21  36  64  93 122 164 214 267 316 368
#     4  11  23  40  63  89 123 163 206 255 316 376
#     4  11  21  36  64  94 121 157 202 258 310 368
#     4  11  23  40  63  89 123 163 206 255 316 376
#     4  11  23  40  62  90 126 166 208 259 316 375
#     4  11  23  40  62  90 126 166 208 259 316 375
#
# _framework density 18.589618000000002
#
# number of rings (size 3 to 8) (size 9 to 14) (size 15 to 20)
#    0.000    1.000    6.667    1.000    0.000    1.333 
#    0.000    0.833    0.000    2.000    0.000    0.000 
#    0.000    0.000    0.000    0.000    0.000    0.000 
#
# Total GULP energy -267653.310912 kJ/mol
# GULP energy per Si atom -5576.110644 kJ/mol
# Density = 1.854731 g / cm^3
# Si number density = 18.589618 Si / 1000 Ang^3
#
#
#
# Elastic Constant Matrix: (Units=GPa)
#
#
# Indices 1 2 3 4 5 6 
#
# 1 83.9126 54.2012 23.4139 0.0000 0.0000 0.0000
# 2 54.2012 83.9126 23.4139 0.0000 0.0000 0.0000
# 3 23.4139 23.4139 105.2290 0.0000 0.0000 0.0000
# 4 0.0000 0.0000 0.0000 17.0404 0.0000 0.0000
# 5 0.0000 0.0000 0.0000 0.0000 17.0404 0.0000
# 6 0.0000 0.0000 0.0000 0.0000 0.0000 20.3797
#
#
#
# Elastic Compliance Matrix: (Units=1/GPa)
#
#
# Indices 1 2 3 4 5 6 
#
# 1 0.020744 -0.012913 -0.001742 0.000000 0.000000 0.000000
# 2 -0.012913 0.020744 -0.001742 0.000000 0.000000 0.000000
# 3 -0.001742 -0.001742 0.010279 0.000000 0.000000 0.000000
# 4 0.000000 0.000000 0.000000 0.058684 0.000000 0.000000
# 5 0.000000 0.000000 0.000000 0.000000 0.058684 0.000000
# 6 0.000000 0.000000 0.000000 0.000000 0.000000 0.049068
#
#
# Mechanical properties :
#
#
# Convention : Reuss Voigt Hill
#
# Bulk Modulus (GPa) = 52.71207 52.79027 52.75117
# Shear Modulus (GPa) = 19.43084 22.36044 20.89564
#
# Velocity S-wave (km/s) = 3.23654 3.47197 3.35632
# Velocity P-wave (km/s) = 6.51031 6.67324 6.59228
#
# Compressibility (1/GPa) = 0.01897099
#
# Stress axis : x y z
#
# Youngs Moduli (GPa) = 48.20633 48.20633 97.29040
#
# Poissons Ratio (x) = 0.62249 0.16953
# Poissons Ratio (y) = 0.62249 0.16953
# Poissons Ratio (z) = 0.08400 0.08400
#
# Static dielectric constant tensor:
#      x y z
#    x 1.616880 0.000000 0.000000 
#    y 0.000000 1.616880 0.000000 
#    z 0.000000 0.000000 1.689190 
# 
# From -- ./inp_files/5873.got.cif
#   From: 2010.05.17/outbox.cif.g08.bks.cpg/sg120_3_cif.got.tgz:5873.got - 2010.05.20 11:28:13.
