data_PCOD9559772
_publ_section_title
;
Structure prediction by ZEFSAII (Michael W. Deem and Ramdas Pophale) SiO2 
 PCOD9559772
Probable space group: I -4 C 2
;
_chemical_formula_sum "Si O2"
_cell_formula_units_Z 52
_cell_length_a 12.048187
_cell_length_b 12.048187
_cell_length_c 22.232555
_cell_angle_alpha 90.000000
_cell_angle_beta 90.000000
_cell_angle_gamma 90.000000
_cell_volume 3227.251227
_symmetry_space_group_name_H-M "I -4 C 2"
_symmetry_group_IT_number 120
_symmetry_cell_setting 'tetragonal'
loop_
_space_group_symop_operation_xyz
x,y,z
y,-x,-z
-x,-y,z
-y,x,-z
y,x,1/2-z
-y,-x,1/2-z
-x,y,1/2+z
x,-y,1/2+z
1/2+x,1/2+y,1/2+z
1/2+y,1/2-x,1/2-z
1/2-x,1/2-y,1/2+z
1/2-y,1/2+x,1/2-z
1/2+y,1/2+x,-z
1/2-y,1/2-x,-z
1/2-x,1/2+y,z
1/2+x,1/2-y,z
loop_
_atom_site_type_symbol
_atom_site_label
_atom_site_fract_x
_atom_site_fract_y
_atom_site_fract_z
Si Si1 0.500000 0.000000 0.750000
Si Si2 0.089160 0.589160 0.367185
Si Si3 0.463829 0.681181 0.071061
Si Si4 0.536171 0.318819 0.928938
O O1 0.426557 0.073444 0.704494
O O2 0.210997 0.558417 0.389785
O O3 0.058417 0.710997 0.389785
O O4 0.000000 0.500000 0.392828
O O5 0.373872 0.584073 0.082092
O O6 0.584073 0.626128 0.082092
O O7 0.457690 0.709427 1.000000
#
# Coordination Sequence:
#
# PCOD9559772 Si02
#       4
#     4  16  16  16
#     4   8  24  40  46  76 108 140 188 234 252 288
#     4  10  21  37  55  74 104 149 182 216 264 310
#     4   9  19  35  56  85 114 135 166 218 273 325
#     4   9  19  35  56  85 114 135 166 218 273 325
#
# _framework density 16.112781999999999
#
# number of rings (size 3 to 8) (size 9 to 14) (size 15 to 20)
#    0.923    1.846    0.000    2.769    4.308    2.462 
#    0.000    6.154    0.000    3.692    0.000    0.000 
#    0.000    0.000    0.000    0.000    0.000    0.000 
#
# Total GULP energy -144780.461235 kJ/mol
# GULP energy per Si atom -5568.479278 kJ/mol
# Density = 1.607611 g / cm^3
# Si number density = 16.112782 Si / 1000 Ang^3
#
#
#
# Elastic Constant Matrix: (Units=GPa)
#
#
# Indices 1 2 3 4 5 6 
#
# 1 123.5560 63.1522 87.7879 0.0000 0.0000 0.0000
# 2 63.1522 123.5560 87.7879 0.0000 0.0000 0.0000
# 3 87.7879 87.7879 112.7130 0.0000 0.0000 0.0000
# 4 0.0000 0.0000 0.0000 -32.2531 0.0000 0.0000
# 5 0.0000 0.0000 0.0000 0.0000 -32.2531 0.0000
# 6 0.0000 0.0000 0.0000 0.0000 0.0000 6.9004
#
#
#
# Elastic Compliance Matrix: (Units=1/GPa)
#
#
# Indices 1 2 3 4 5 6 
#
# 1 0.018286 0.001731 -0.015590 0.000000 0.000000 0.000000
# 2 0.001731 0.018286 -0.015590 0.000000 0.000000 0.000000
# 3 -0.015590 -0.015590 0.033157 0.000000 0.000000 0.000000
# 4 0.000000 0.000000 0.000000 -0.031005 0.000000 0.000000
# 5 0.000000 0.000000 0.000000 0.000000 -0.031005 0.000000
# 6 0.000000 0.000000 0.000000 0.000000 0.000000 0.144919
#
#
# Mechanical properties :
#
#
# Convention : Reuss Voigt Hill
#
# Bulk Modulus (GPa) = 92.33801 93.03124 92.68463
# Shear Modulus (GPa) = 23.23989 -3.44804 9.89593
#
# Velocity S-wave (km/s) = 3.80192 -1.46444 2.48093
# Velocity P-wave (km/s) = 8.75811 7.41643 8.11505
#
# Compressibility (1/GPa) = 0.01082978
#
# Stress axis : x y z
#
# Youngs Moduli (GPa) = 54.68698 54.68698 30.15935
#
# Poissons Ratio (x) = -0.09464 0.47019
# Poissons Ratio (y) = -0.09464 0.47019
# Poissons Ratio (z) = 0.85258 0.85258
#
# Static dielectric constant tensor:
#      x y z
#    x 1.527840 0.000000 0.000000 
#    y 0.000000 1.527840 0.000000 
#    z 0.000000 0.000000 1.524010 
# 
# From -- ./inp_files/4925.got.cif
#   From: 2010.05.17/outbox.cif.g08.bks.cpg/sg120_3_cif.got.tgz:4925.got - 2010.05.20 11:28:13.
