data_PCOD9559145
_publ_section_title
;
Structure prediction by ZEFSAII (Michael W. Deem and Ramdas Pophale) SiO2 
 PCOD9559145
Probable space group: I -4 M 2
;
_chemical_formula_sum "Si O2"
_cell_formula_units_Z 96
_cell_length_a 23.948752
_cell_length_b 23.948752
_cell_length_c 8.800450
_cell_angle_alpha 90.000000
_cell_angle_beta 90.000000
_cell_angle_gamma 90.000000
_cell_volume 5047.434051
_symmetry_space_group_name_H-M "I -4 M 2"
_symmetry_group_IT_number 119
_symmetry_cell_setting 'tetragonal'
loop_
_space_group_symop_operation_xyz
x,y,z
y,-x,-z
-x,-y,z
-y,x,-z
y,x,-z
-y,-x,-z
-x,y,z
x,-y,z
1/2+x,1/2+y,1/2+z
1/2+y,1/2-x,1/2-z
1/2-x,1/2-y,1/2+z
1/2-y,1/2+x,1/2-z
1/2+y,1/2+x,1/2-z
1/2-y,1/2-x,1/2-z
1/2-x,1/2+y,1/2+z
1/2+x,1/2-y,1/2+z
loop_
_atom_site_type_symbol
_atom_site_label
_atom_site_fract_x
_atom_site_fract_y
_atom_site_fract_z
Si Si1 0.851522 0.656466 0.564871
Si Si2 0.274393 0.640806 0.551144
Si Si3 0.565369 0.632304 0.607018
Si Si4 0.937735 0.564004 0.935197
Si Si5 0.133233 0.783695 0.583417
Si Si6 0.062697 0.884491 0.630231
O O1 0.847829 0.652172 0.750000
O O2 0.790170 0.639745 0.507600
O O3 0.896618 0.611690 0.511477
O O4 0.867918 0.720057 0.526529
O O5 0.300937 0.699064 0.500000
O O6 0.313742 0.593852 0.472551
O O7 0.279136 0.638893 0.733663
O O8 0.579433 0.579433 0.500000
O O9 0.500000 0.639960 0.631879
O O10 0.598563 0.612338 0.755442
O O11 0.930585 0.500000 0.983983
O O12 0.936286 0.563715 0.750000
O O13 0.000000 0.583135 0.979062
O O14 0.183344 0.816657 0.500000
O O15 0.079260 0.823672 0.564342
O O16 0.069401 0.930600 0.500000
O O17 0.000000 0.883510 0.693487
#
# Coordination Sequence:
#
# PCOD9559145 Si02
#       6
#    16  16  16  16  16  16
#     4   9  18  30  51  77 104 144 186 218 267 336
#     4  10  19  35  52  77 109 141 178 228 277 325
#     4  11  22  36  54  79 110 147 187 234 286 331
#     4   8  14  26  44  71 107 138 166 208 261 317
#     4  10  20  35  53  76 106 145 183 225 277 320
#     4  11  23  39  58  81 111 148 191 236 282 332
#
# _framework density 19.019565
#
# number of rings (size 3 to 8) (size 9 to 14) (size 15 to 20)
#    0.000    2.167    3.333    2.000    0.000    3.333 
#    0.000    3.333    0.000    0.000    0.000    0.000 
#    0.000    0.000    0.000    7.333    0.000    6.667 
#
# Total GULP energy -267321.589129 kJ/mol
# GULP energy per Si atom -5569.199774 kJ/mol
# Density = 1.897628 g / cm^3
# Si number density = 19.019565 Si / 1000 Ang^3
#
#
#
# Elastic Constant Matrix: (Units=GPa)
#
#
# Indices 1 2 3 4 5 6 
#
# 1 135.7857 107.9229 17.7151 0.0000 0.0000 0.0000
# 2 107.9229 135.7858 17.7156 0.0000 0.0000 0.0000
# 3 17.7151 17.7156 24.4861 0.0000 0.0000 0.0000
# 4 0.0000 0.0000 0.0000 15.5800 0.0000 0.0000
# 5 0.0000 0.0000 0.0000 0.0000 15.5804 0.0000
# 6 0.0000 0.0000 0.0000 0.0000 0.0000 21.3157
#
#
#
# Elastic Compliance Matrix: (Units=1/GPa)
#
#
# Indices 1 2 3 4 5 6 
#
# 1 0.020238 -0.015652 -0.003317 0.000000 0.000000 0.000000
# 2 -0.015652 0.020238 -0.003318 0.000000 0.000000 0.000000
# 3 -0.003317 -0.003318 0.045640 0.000000 0.000000 0.000000
# 4 0.000000 0.000000 0.000000 0.064185 0.000000 0.000000
# 5 0.000000 0.000000 0.000000 0.000000 0.064183 0.000000
# 6 0.000000 0.000000 0.000000 0.000000 0.000000 0.046914
#
#
# Mechanical properties :
#
#
# Convention : Reuss Voigt Hill
#
# Bulk Modulus (GPa) = 24.07278 64.75166 44.41222
# Shear Modulus (GPa) = 15.63381 20.67546 18.15464
#
# Velocity S-wave (km/s) = 2.87014 3.30064 3.09289
# Velocity P-wave (km/s) = 4.86497 6.97455 6.01300
#
# Compressibility (1/GPa) = 0.04154070
#
# Stress axis : x y z
#
# Youngs Moduli (GPa) = 49.41256 49.41234 21.91061
#
# Poissons Ratio (x) = 0.77341 0.07268
# Poissons Ratio (y) = 0.77342 0.07270
# Poissons Ratio (z) = 0.16391 0.16395
#
# Static dielectric constant tensor:
#      x y z
#    x 1.657100 0.000000 0.000000 
#    y 0.000000 1.657100 0.000000 
#    z 0.000000 0.000000 1.726020 
# 
# From -- ./inp_files/2695.got.cif
#   From: 2010.05.17/outbox.cif.g08.bks.cpg/sg119_2_cif.got.tgz:2695.got - 2010.05.20 11:21:29.
