data_PCOD9559240
_publ_section_title
;
Structure prediction by ZEFSAII (Michael W. Deem and Ramdas Pophale) SiO2 
 PCOD9559240
Probable space group: I -4 M 2
;
_chemical_formula_sum "Si O2"
_cell_formula_units_Z 96
_cell_length_a 14.230121
_cell_length_b 14.230121
_cell_length_c 27.290242
_cell_angle_alpha 90.000000
_cell_angle_beta 90.000000
_cell_angle_gamma 90.000000
_cell_volume 5526.174223
_symmetry_space_group_name_H-M "I -4 M 2"
_symmetry_group_IT_number 119
_symmetry_cell_setting 'tetragonal'
loop_
_space_group_symop_operation_xyz
x,y,z
y,-x,-z
-x,-y,z
-y,x,-z
y,x,-z
-y,-x,-z
-x,y,z
x,-y,z
1/2+x,1/2+y,1/2+z
1/2+y,1/2-x,1/2-z
1/2-x,1/2-y,1/2+z
1/2-y,1/2+x,1/2-z
1/2+y,1/2+x,1/2-z
1/2-y,1/2-x,1/2-z
1/2-x,1/2+y,1/2+z
1/2+x,1/2-y,1/2+z
loop_
_atom_site_type_symbol
_atom_site_label
_atom_site_fract_x
_atom_site_fract_y
_atom_site_fract_z
Si Si1 0.108491 0.886740 0.149827
Si Si2 0.396063 0.603938 0.000000
Si Si3 0.714943 0.609145 0.181247
Si Si4 0.391349 0.777377 0.926444
Si Si5 0.265391 0.388852 0.743638
Si Si6 0.888364 0.212006 0.045872
Si Si7 0.105277 0.605277 0.250000
O O1 0.177948 0.859881 0.194128
O O2 0.131723 0.841882 0.097225
O O3 0.000000 0.860571 0.162229
O O4 0.111726 0.000000 0.145484
O O5 0.311988 0.610829 0.037939
O O6 0.500000 0.609771 0.023582
O O7 0.685590 0.500000 0.180019
O O8 0.739261 0.639436 0.126515
O O9 0.639391 0.669374 0.210528
O O10 0.812637 0.615210 0.210942
O O11 0.500000 0.810544 0.922681
O O12 0.318560 0.853919 0.946057
O O13 0.249160 0.500000 0.741681
O O14 0.171265 0.328736 0.750000
O O15 0.000000 0.206588 0.037441
O O16 0.834668 0.165333 0.000000
O O17 0.112848 0.500000 0.271754
#
# Coordination Sequence:
#
# PCOD9559240 Si02
#       7
#    16   8  16  16  16  16   8
#     4   9  19  36  58  82 108 139 175 222 277 328
#     4   9  18  36  60  78  99 136 180 226 271 316
#     4  10  20  34  56  84 114 143 177 219 268 328
#     4  10  21  37  55  81 113 143 178 220 272 329
#     4  11  22  37  55  78 110 147 189 231 274 320
#     4  11  22  36  57  83 111 143 183 227 271 320
#     4   9  18  32  52  80 115 148 172 204 259 332
#
# _framework density 17.371874999999999
#
# number of rings (size 3 to 8) (size 9 to 14) (size 15 to 20)
#    0.000    2.000    1.667    2.000    0.000    3.667 
#    0.000    3.333    0.000    0.000    0.000    2.333 
#    0.000    0.000    0.000    0.000    0.000    0.000 
#
# Total GULP energy -267842.256606 kJ/mol
# GULP energy per Si atom -5580.047013 kJ/mol
# Density = 1.733234 g / cm^3
# Si number density = 17.371875 Si / 1000 Ang^3
#
#
#
# Elastic Constant Matrix: (Units=GPa)
#
#
# Indices 1 2 3 4 5 6 
#
# 1 81.7798 41.2624 47.8771 0.0000 0.0000 0.0000
# 2 41.2624 81.7782 47.8771 0.0000 0.0000 0.0000
# 3 47.8771 47.8771 103.2127 0.0000 0.0000 0.0000
# 4 0.0000 0.0000 0.0000 19.1453 0.0000 0.0000
# 5 0.0000 0.0000 0.0000 0.0000 19.1460 0.0000
# 6 0.0000 0.0000 0.0000 0.0000 0.0000 28.8850
#
#
#
# Elastic Compliance Matrix: (Units=1/GPa)
#
#
# Indices 1 2 3 4 5 6 
#
# 1 0.018700 -0.005981 -0.005900 0.000000 0.000000 0.000000
# 2 -0.005981 0.018700 -0.005900 0.000000 0.000000 0.000000
# 3 -0.005900 -0.005900 0.015162 0.000000 0.000000 0.000000
# 4 0.000000 0.000000 0.000000 0.052232 0.000000 0.000000
# 5 0.000000 0.000000 0.000000 0.000000 0.052230 0.000000
# 6 0.000000 0.000000 0.000000 0.000000 0.000000 0.034620
#
#
# Mechanical properties :
#
#
# Convention : Reuss Voigt Hill
#
# Bulk Modulus (GPa) = 58.82208 60.08931 59.45569
# Shear Modulus (GPa) = 21.47093 22.08555 21.77824
#
# Velocity S-wave (km/s) = 3.51943 3.56945 3.54453
# Velocity P-wave (km/s) = 7.10276 7.18701 7.14501
#
# Compressibility (1/GPa) = 0.01700042
#
# Stress axis : x y z
#
# Youngs Moduli (GPa) = 53.47672 53.47525 65.95351
#
# Poissons Ratio (x) = 0.31985 0.38911
# Poissons Ratio (y) = 0.31986 0.38912
# Poissons Ratio (z) = 0.31550 0.31550
#
# Static dielectric constant tensor:
#      x y z
#    x 1.590330 0.000000 0.000000 
#    y 0.000000 1.590330 0.000000 
#    z 0.000000 0.000000 1.568160 
# 
# From -- ./inp_files/8757.got.cif
#   From: 2010.05.17/outbox.cif.g08.bks.cpg/sg119_5_cif.got.tgz:8757.got - 2010.05.20 11:21:29.
