data_PCOD9559015
_publ_section_title
;
Structure prediction by ZEFSAII (Michael W. Deem and Ramdas Pophale) SiO2 
 PCOD9559015
Probable space group: I -4 M 2
;
_chemical_formula_sum "Si O2"
_cell_formula_units_Z 96
_cell_length_a 17.606904
_cell_length_b 17.606904
_cell_length_c 14.353324
_cell_angle_alpha 90.000000
_cell_angle_beta 90.000000
_cell_angle_gamma 90.000000
_cell_volume 4449.574483
_symmetry_space_group_name_H-M "I -4 M 2"
_symmetry_group_IT_number 119
_symmetry_cell_setting 'tetragonal'
loop_
_space_group_symop_operation_xyz
x,y,z
y,-x,-z
-x,-y,z
-y,x,-z
y,x,-z
-y,-x,-z
-x,y,z
x,-y,z
1/2+x,1/2+y,1/2+z
1/2+y,1/2-x,1/2-z
1/2-x,1/2-y,1/2+z
1/2-y,1/2+x,1/2-z
1/2+y,1/2+x,1/2-z
1/2-y,1/2-x,1/2-z
1/2-x,1/2+y,1/2+z
1/2+x,1/2-y,1/2+z
loop_
_atom_site_type_symbol
_atom_site_label
_atom_site_fract_x
_atom_site_fract_y
_atom_site_fract_z
Si Si1 0.000000 0.758465 0.772824
Si Si2 0.081827 0.000000 0.267644
Si Si3 0.748334 0.225487 0.609939
Si Si4 0.342735 0.000000 0.386271
Si Si5 0.000000 0.588753 0.418299
Si Si6 0.912144 0.329103 0.101672
Si Si7 0.586588 0.646495 0.900842
Si Si8 0.166500 0.375624 0.621204
O O1 0.070320 0.717941 0.819078
O O2 0.000000 0.845973 0.796936
O O3 0.000000 0.740015 0.661989
O O4 0.087706 0.924780 0.331002
O O5 0.000000 0.000000 0.220797
O O6 0.755042 0.244959 0.500000
O O7 0.659693 0.219781 0.638472
O O8 0.787554 0.144575 0.627012
O O9 0.802919 0.291894 0.644942
O O10 0.350386 0.000000 0.497650
O O11 0.381747 0.922254 0.356329
O O12 0.918209 0.596636 0.369406
O O13 0.000000 0.500000 0.454179
O O14 0.898741 0.327772 0.988631
O O15 0.000000 0.306157 0.121229
O O16 0.500000 0.673617 0.907737
O O17 0.614782 0.614782 0.000000
#
# Coordination Sequence:
#
# PCOD9559015 Si02
#       8
#     8   8  16   8   8  16  16  16
#     4  12  22  35  52  70 103 142 178 218 257 299
#     4  10  22  36  53  75 102 136 178 212 266 317
#     4   9  19  30  47  74  99 130 178 216 266 310
#     4  10  20  30  50  72 100 139 178 196 256 315
#     4   8  16  28  46  70 110 136 161 211 249 310
#     4   9  16  31  50  71 100 136 171 213 267 306
#     4  10  18  31  52  74 103 134 167 213 260 318
#     4  10  20  35  47  71 103 141 173 223 252 307
#
# _framework density 21.575095999999998
#
# number of rings (size 3 to 8) (size 9 to 14) (size 15 to 20)
#    0.000    2.333    1.667    1.500    2.333    1.333 
#    6.000    0.833    0.000    0.000    0.000    0.000 
#    0.000    0.000    0.000    0.000    0.000    0.000 
#
# Total GULP energy -267787.518996 kJ/mol
# GULP energy per Si atom -5578.906646 kJ/mol
# Density = 2.152599 g / cm^3
# Si number density = 21.575096 Si / 1000 Ang^3
#
#
#
# Elastic Constant Matrix: (Units=GPa)
#
#
# Indices 1 2 3 4 5 6 
#
# 1 154.7097 64.6982 3.2176 0.0000 0.0000 0.0000
# 2 64.6982 154.7091 3.2173 0.0000 0.0000 0.0000
# 3 3.2176 3.2173 25.7415 0.0000 0.0000 0.0000
# 4 0.0000 0.0000 0.0000 5.8490 0.0000 0.0000
# 5 0.0000 0.0000 0.0000 0.0000 5.8492 0.0000
# 6 0.0000 0.0000 0.0000 0.0000 0.0000 27.9977
#
#
#
# Elastic Compliance Matrix: (Units=1/GPa)
#
#
# Indices 1 2 3 4 5 6 
#
# 1 0.007842 -0.003268 -0.000572 0.000000 0.000000 0.000000
# 2 -0.003268 0.007842 -0.000572 0.000000 0.000000 0.000000
# 3 -0.000572 -0.000572 0.038991 0.000000 0.000000 0.000000
# 4 0.000000 0.000000 0.000000 0.170968 0.000000 0.000000
# 5 0.000000 0.000000 0.000000 0.000000 0.170963 0.000000
# 6 0.000000 0.000000 0.000000 0.000000 0.000000 0.035717
#
#
# Mechanical properties :
#
#
# Convention : Reuss Voigt Hill
#
# Bulk Modulus (GPa) = 21.80902 53.04739 37.42821
# Shear Modulus (GPa) = 10.95458 25.54101 18.24780
#
# Velocity S-wave (km/s) = 2.25576 3.44440 2.91139
# Velocity P-wave (km/s) = 4.11278 6.36076 5.35603
#
# Compressibility (1/GPa) = 0.04585258
#
# Stress axis : x y z
#
# Youngs Moduli (GPa) = 127.51690 127.51644 25.64717
#
# Poissons Ratio (x) = 0.41667 0.01467
# Poissons Ratio (y) = 0.41668 0.01466
# Poissons Ratio (z) = 0.07292 0.07290
#
# Static dielectric constant tensor:
#      x y z
#    x 1.719370 0.000000 0.000000 
#    y 0.000000 1.719370 0.000000 
#    z 0.000000 0.000000 1.857440 
# 
# From -- ./inp_files/7969.got.cif
#   From: 2010.05.17/outbox.cif.g08.bks.cpg/sg119_4_cif.got.tgz:7969.got - 2010.05.20 11:21:29.
