data_PCOD9559515
_publ_section_title
;
Structure prediction by ZEFSAII (Michael W. Deem and Ramdas Pophale) SiO2 
 PCOD9559515
Probable space group: I -4 M 2
;
_chemical_formula_sum "Si O2"
_cell_formula_units_Z 96
_cell_length_a 20.451852
_cell_length_b 20.451852
_cell_length_c 9.845376
_cell_angle_alpha 90.000000
_cell_angle_beta 90.000000
_cell_angle_gamma 90.000000
_cell_volume 4118.106646
_symmetry_space_group_name_H-M "I -4 M 2"
_symmetry_group_IT_number 119
_symmetry_cell_setting 'tetragonal'
loop_
_space_group_symop_operation_xyz
x,y,z
y,-x,-z
-x,-y,z
-y,x,-z
y,x,-z
-y,-x,-z
-x,y,z
x,-y,z
1/2+x,1/2+y,1/2+z
1/2+y,1/2-x,1/2-z
1/2-x,1/2-y,1/2+z
1/2-y,1/2+x,1/2-z
1/2+y,1/2+x,1/2-z
1/2-y,1/2-x,1/2-z
1/2-x,1/2+y,1/2+z
1/2+x,1/2-y,1/2+z
loop_
_atom_site_type_symbol
_atom_site_label
_atom_site_fract_x
_atom_site_fract_y
_atom_site_fract_z
Si Si1 0.775804 0.070347 0.242883
Si Si2 0.780530 0.927731 0.831961
Si Si3 0.572998 0.572473 0.328556
Si Si4 0.619935 0.723006 0.975373
Si Si5 0.924491 0.421378 0.406926
Si Si6 0.648794 0.805708 0.467236
O O1 0.854759 0.075435 0.234528
O O2 0.761868 0.071501 0.402033
O O3 0.757139 0.000000 0.181279
O O4 0.734633 0.126869 0.166776
O O5 0.854328 0.928476 0.891271
O O6 0.778299 0.911025 0.672959
O O7 0.740599 0.874978 0.912309
O O8 0.752117 0.000000 0.851188
O O9 0.500000 0.572039 0.394284
O O10 0.573862 0.500000 0.254360
O O11 0.675143 0.777431 0.001595
O O12 0.653388 0.653388 0.000000
O O13 0.923146 0.500000 0.415946
O O14 0.905032 0.405032 0.250000
O O15 0.873908 0.390234 0.511994
O O16 0.000000 0.400264 0.426831
#
# Coordination Sequence:
#
# PCOD9559515 Si02
#       6
#    16  16  16  16  16  16
#     4  11  24  45  69  97 136 176 219 272 335 405
#     4  11  23  43  71 101 131 170 227 282 331 395
#     4   9  20  41  68  97 129 170 221 281 342 397
#     4  12  26  44  64  92 132 177 222 267 326 395
#     4   9  18  36  63  95 130 168 220 283 337 384
#     4  12  26  40  66  99 136 179 216 272 329 402
#
# _framework density 23.311682999999999
#
# number of rings (size 3 to 8) (size 9 to 14) (size 15 to 20)
#    0.000    1.333    1.667    4.500    2.333    4.000 
#    0.000    3.333    0.000   10.000    0.000    2.333 
#    0.000    0.000    0.000    0.000    0.000    0.000 
#
# Total GULP energy -267758.756429 kJ/mol
# GULP energy per Si atom -5578.307426 kJ/mol
# Density = 2.325862 g / cm^3
# Si number density = 23.311683 Si / 1000 Ang^3
#
#
#
# Elastic Constant Matrix: (Units=GPa)
#
#
# Indices 1 2 3 4 5 6 
#
# 1 111.1040 32.4056 25.7484 0.0000 0.0000 0.0000
# 2 32.4056 111.1040 25.7484 0.0000 0.0000 0.0000
# 3 25.7484 25.7484 123.5274 0.0000 0.0000 0.0000
# 4 0.0000 0.0000 0.0000 18.3562 0.0000 0.0000
# 5 0.0000 0.0000 0.0000 0.0000 18.3562 0.0000
# 6 0.0000 0.0000 0.0000 0.0000 0.0000 29.6925
#
#
#
# Elastic Compliance Matrix: (Units=1/GPa)
#
#
# Indices 1 2 3 4 5 6 
#
# 1 0.010119 -0.002588 -0.001570 0.000000 0.000000 0.000000
# 2 -0.002588 0.010119 -0.001570 0.000000 0.000000 0.000000
# 3 -0.001570 -0.001570 0.008750 0.000000 0.000000 0.000000
# 4 0.000000 0.000000 0.000000 0.054478 0.000000 0.000000
# 5 0.000000 0.000000 0.000000 0.000000 0.054478 0.000000
# 6 0.000000 0.000000 0.000000 0.000000 0.000000 0.033678
#
#
# Mechanical properties :
#
#
# Convention : Reuss Voigt Hill
#
# Bulk Modulus (GPa) = 57.03433 57.06003 57.04718
# Shear Modulus (GPa) = 26.46609 30.73650 28.60130
#
# Velocity S-wave (km/s) = 3.37310 3.63506 3.50652
# Velocity P-wave (km/s) = 6.29996 6.49218 6.39679
#
# Compressibility (1/GPa) = 0.01753330
#
# Stress axis : x y z
#
# Youngs Moduli (GPa) = 98.82273 98.82273 114.28782
#
# Poissons Ratio (x) = 0.25572 0.17942
# Poissons Ratio (y) = 0.25572 0.17942
# Poissons Ratio (z) = 0.15514 0.15514
#
# Static dielectric constant tensor:
#      x y z
#    x 1.904170 0.000000 0.000000 
#    y 0.000000 1.904170 0.000000 
#    z 0.000000 0.000000 1.911820 
# 
# From -- ./inp_files/4185.got.cif
#   From: 2010.05.17/outbox.cif.g08.bks.cpg/sg119_3_cif.got.tgz:4185.got - 2010.05.20 11:21:29.
