data_PCOD9559922
_publ_section_title
;
Structure prediction by ZEFSAII (Michael W. Deem and Ramdas Pophale) SiO2 
 PCOD9559922
Probable space group: I -4 C 2
;
_chemical_formula_sum "Si O2"
_cell_formula_units_Z 28
_cell_length_a 12.801452
_cell_length_b 12.801452
_cell_length_c 8.519111
_cell_angle_alpha 90.000000
_cell_angle_beta 90.000000
_cell_angle_gamma 90.000000
_cell_volume 1396.087830
_symmetry_space_group_name_H-M "I -4 C 2"
_symmetry_group_IT_number 120
_symmetry_cell_setting 'tetragonal'
loop_
_space_group_symop_operation_xyz
x,y,z
y,-x,-z
-x,-y,z
-y,x,-z
y,x,1/2-z
-y,-x,1/2-z
-x,y,1/2+z
x,-y,1/2+z
1/2+x,1/2+y,1/2+z
1/2+y,1/2-x,1/2-z
1/2-x,1/2-y,1/2+z
1/2-y,1/2+x,1/2-z
1/2+y,1/2+x,-z
1/2-y,1/2-x,-z
1/2-x,1/2+y,z
1/2+x,1/2-y,z
loop_
_atom_site_type_symbol
_atom_site_label
_atom_site_fract_x
_atom_site_fract_y
_atom_site_fract_z
Si Si1 0.126901 0.873100 0.750000
Si Si2 0.000000 0.000000 0.000000
Si Si3 0.136008 0.572343 0.175843
O O1 0.247360 0.892633 0.712012
O O2 0.087099 0.944181 0.893955
O O3 0.124419 0.448661 0.207415
O O4 0.102981 0.602981 0.000000
#
# Coordination Sequence:
#
# PCOD9559922 Si02
#       3
#     8   4  16
#     4  11  24  44  66  91 130 168 204 263 316 362
#     4  10  24  42  64  98 124 162 220 250 304 394
#     4  11  24  41  65  95 127 165 212 257 310 376
#
# _framework density 20.056044
#
# number of rings (size 3 to 8) (size 9 to 14) (size 15 to 20)
#    0.000    1.143    0.000    6.857    0.000   13.714 
#    0.000    0.000    0.000    0.000    0.000    0.000 
#    0.000    0.000    0.000    0.000    0.000    0.000 
#
# Total GULP energy -78339.332945 kJ/mol
# GULP energy per Si atom -5595.666639 kJ/mol
# Density = 2.001040 g / cm^3
# Si number density = 20.056044 Si / 1000 Ang^3
#
#
#
# Elastic Constant Matrix: (Units=GPa)
#
#
# Indices 1 2 3 4 5 6 
#
# 1 148.2526 62.6248 84.9128 0.0000 0.0000 0.0000
# 2 62.6248 148.2535 84.9122 0.0000 0.0000 0.0000
# 3 84.9128 84.9122 169.0180 0.0000 0.0000 0.0000
# 4 0.0000 0.0000 0.0000 10.1815 0.0000 0.0000
# 5 0.0000 0.0000 0.0000 0.0000 10.1732 0.0000
# 6 0.0000 0.0000 0.0000 0.0000 0.0000 21.3657
#
#
#
# Elastic Compliance Matrix: (Units=1/GPa)
#
#
# Indices 1 2 3 4 5 6 
#
# 1 0.009821 -0.001857 -0.004001 0.000000 0.000000 0.000000
# 2 -0.001857 0.009821 -0.004001 0.000000 0.000000 0.000000
# 3 -0.004001 -0.004001 0.009937 0.000000 0.000000 0.000000
# 4 0.000000 0.000000 0.000000 0.098218 0.000000 0.000000
# 5 0.000000 0.000000 0.000000 0.000000 0.098297 0.000000
# 6 0.000000 0.000000 0.000000 0.000000 0.000000 0.046804
#
#
# Mechanical properties :
#
#
# Convention : Reuss Voigt Hill
#
# Bulk Modulus (GPa) = 101.41213 103.38043 102.39628
# Shear Modulus (GPa) = 16.89737 23.88237 20.38987
#
# Velocity S-wave (km/s) = 2.90575 3.45451 3.19195
# Velocity P-wave (km/s) = 7.86969 8.22005 8.04678
#
# Compressibility (1/GPa) = 0.00986075
#
# Stress axis : x y z
#
# Youngs Moduli (GPa) = 101.81821 101.81961 100.63593
#
# Poissons Ratio (x) = 0.18908 0.40267
# Poissons Ratio (y) = 0.18908 0.40266
# Poissons Ratio (z) = 0.40740 0.40739
#
# Static dielectric constant tensor:
#      x y z
#    x 1.678700 0.000000 0.000000 
#    y 0.000000 1.678710 0.000000 
#    z 0.000000 0.000000 1.718780 
# 
# From -- ./inp_files/582.got.cif
#   From: 2010.05.17/outbox.cif.g08.bks.cpg/sg120_1_cif.got.tgz:582.got - 2010.05.20 11:28:13.
