data_PCOD9559039
_publ_section_title
;
Structure prediction by ZEFSAII (Michael W. Deem and Ramdas Pophale) SiO2 
 PCOD9559039
Probable space group: I -4 M 2
;
_chemical_formula_sum "Si O2"
_cell_formula_units_Z 80
_cell_length_a 18.070741
_cell_length_b 18.070741
_cell_length_c 13.122523
_cell_angle_alpha 90.000000
_cell_angle_beta 90.000000
_cell_angle_gamma 90.000000
_cell_volume 4285.181935
_symmetry_space_group_name_H-M "I -4 M 2"
_symmetry_group_IT_number 119
_symmetry_cell_setting 'tetragonal'
loop_
_space_group_symop_operation_xyz
x,y,z
y,-x,-z
-x,-y,z
-y,x,-z
y,x,-z
-y,-x,-z
-x,y,z
x,-y,z
1/2+x,1/2+y,1/2+z
1/2+y,1/2-x,1/2-z
1/2-x,1/2-y,1/2+z
1/2-y,1/2+x,1/2-z
1/2+y,1/2+x,1/2-z
1/2-y,1/2-x,1/2-z
1/2-x,1/2+y,1/2+z
1/2+x,1/2-y,1/2+z
loop_
_atom_site_type_symbol
_atom_site_label
_atom_site_fract_x
_atom_site_fract_y
_atom_site_fract_z
Si Si1 0.357549 0.728670 0.634291
Si Si2 0.221269 0.157007 0.639382
Si Si3 0.920578 0.777241 0.921399
Si Si4 0.748614 0.083563 0.428329
Si Si5 0.581333 0.111915 0.365001
O O1 0.288387 0.784689 0.625904
O O2 0.381913 0.730224 0.751408
O O3 0.327357 0.646933 0.611410
O O4 0.411528 0.744838 0.540622
O O5 0.146675 0.206998 0.634321
O O6 0.227622 0.101966 0.544376
O O7 0.916795 0.700799 0.860707
O O8 0.000000 0.813173 0.905670
O O9 0.659157 0.090211 0.417260
O O10 0.769069 0.000000 0.399176
O O11 0.500000 0.091691 0.410245
O O12 0.583461 0.083461 0.250000
#
# Coordination Sequence:
#
# PCOD9559039 Si02
#       5
#    16  16  16  16  16
#     4  10  18  35  58  74 105 140 177 230 263 308
#     4  10  20  36  55  78 103 139 186 222 267 307
#     4  10  19  32  54  82 107 138 177 218 267 315
#     4  11  21  35  54  79 110 142 179 221 264 315
#     4  11  21  33  49  77 115 148 176 208 255 316
#
# _framework density 18.668984999999999
#
# number of rings (size 3 to 8) (size 9 to 14) (size 15 to 20)
#    0.000    1.600    4.000    3.000    0.000    4.600 
#    0.000    0.000    0.000    9.600    0.000   11.200 
#    0.000    0.000    0.000    0.000    0.000    0.000 
#
# Total GULP energy -223015.909917 kJ/mol
# GULP energy per Si atom -5575.397748 kJ/mol
# Density = 1.862649 g / cm^3
# Si number density = 18.668985 Si / 1000 Ang^3
#
#
#
# Elastic Constant Matrix: (Units=GPa)
#
#
# Indices 1 2 3 4 5 6 
#
# 1 60.8056 10.5565 -1.7727 0.0000 0.0000 0.0000
# 2 10.5565 60.8056 -1.7727 0.0000 0.0000 0.0000
# 3 -1.7727 -1.7727 60.2282 0.0000 0.0000 0.0000
# 4 0.0000 0.0000 0.0000 4.8295 0.0000 0.0000
# 5 0.0000 0.0000 0.0000 0.0000 4.8295 0.0000
# 6 0.0000 0.0000 0.0000 0.0000 0.0000 6.3571
#
#
#
# Elastic Compliance Matrix: (Units=1/GPa)
#
#
# Indices 1 2 3 4 5 6 
#
# 1 0.016967 -0.002934 0.000413 0.000000 0.000000 0.000000
# 2 -0.002934 0.016967 0.000413 0.000000 0.000000 0.000000
# 3 0.000413 0.000413 0.016628 0.000000 0.000000 0.000000
# 4 0.000000 0.000000 0.000000 0.207061 0.000000 0.000000
# 5 0.000000 0.000000 0.000000 0.000000 0.207061 0.000000
# 6 0.000000 0.000000 0.000000 0.000000 0.000000 0.157305
#
#
# Mechanical properties :
#
#
# Convention : Reuss Voigt Hill
#
# Bulk Modulus (GPa) = 21.57631 21.76242 21.66937
# Shear Modulus (GPa) = 7.79236 14.85843 11.32539
#
# Velocity S-wave (km/s) = 2.04524 2.82421 2.46568
# Velocity P-wave (km/s) = 4.14243 4.72411 4.44280
#
# Compressibility (1/GPa) = 0.04634712
#
# Stress axis : x y z
#
# Youngs Moduli (GPa) = 58.93723 58.93723 60.14012
#
# Poissons Ratio (x) = 0.17290 -0.02484
# Poissons Ratio (y) = 0.17290 -0.02484
# Poissons Ratio (z) = -0.02434 -0.02434
#
# Static dielectric constant tensor:
#      x y z
#    x 1.639880 0.000000 0.000000 
#    y 0.000000 1.639880 0.000000 
#    z 0.000000 0.000000 1.698510 
# 
# From -- ./inp_files/5260.got.cif
#   From: 2010.05.17/outbox.cif.g08.bks.cpg/sg119_3_cif.got.tgz:5260.got - 2010.05.20 11:21:29.
