data_PCOD9559471
_publ_section_title
;
Structure prediction by ZEFSAII (Michael W. Deem and Ramdas Pophale) SiO2 
 PCOD9559471
Probable space group: I -4 M 2
;
_chemical_formula_sum "Si O2"
_cell_formula_units_Z 68
_cell_length_a 11.660338
_cell_length_b 11.660338
_cell_length_c 30.946843
_cell_angle_alpha 90.000000
_cell_angle_beta 90.000000
_cell_angle_gamma 90.000000
_cell_volume 4207.640540
_symmetry_space_group_name_H-M "I -4 M 2"
_symmetry_group_IT_number 119
_symmetry_cell_setting 'tetragonal'
loop_
_space_group_symop_operation_xyz
x,y,z
y,-x,-z
-x,-y,z
-y,x,-z
y,x,-z
-y,-x,-z
-x,y,z
x,-y,z
1/2+x,1/2+y,1/2+z
1/2+y,1/2-x,1/2-z
1/2-x,1/2-y,1/2+z
1/2-y,1/2+x,1/2-z
1/2+y,1/2+x,1/2-z
1/2-y,1/2-x,1/2-z
1/2-x,1/2+y,1/2+z
1/2+x,1/2-y,1/2+z
loop_
_atom_site_type_symbol
_atom_site_label
_atom_site_fract_x
_atom_site_fract_y
_atom_site_fract_z
Si Si1 0.635676 0.240008 0.459900
Si Si2 0.768926 0.362754 0.387716
Si Si3 0.000000 0.241645 0.525467
Si Si4 0.748259 0.000000 0.577775
Si Si5 0.632689 0.860752 0.798146
Si Si6 0.000000 0.000000 0.574083
O O1 0.690227 0.309774 0.500000
O O2 0.500000 0.232533 0.465242
O O3 0.670612 0.302728 0.415492
O O4 0.692333 0.114449 0.460557
O O5 0.757908 0.500000 0.390118
O O6 0.888028 0.322530 0.409467
O O7 0.785513 0.327600 0.337636
O O8 0.000000 0.234309 0.473707
O O9 0.000000 0.116153 0.546196
O O10 0.876586 0.000000 0.597900
O O11 0.500000 0.822923 0.805577
O O12 0.671961 0.828040 0.750000
O O13 0.628508 0.000000 0.797904
#
# Coordination Sequence:
#
# PCOD9559471 Si02
#       6
#    16  16   8   8  16   4
#     4  12  25  38  53  75 108 146 183 220 259 306
#     4  11  21  33  52  79 108 143 176 211 263 324
#     4  12  22  38  55  79 106 137 178 228 274 307
#     4  12  20  32  53  79 106 135 176 220 270 310
#     4   8  14  26  47  77 107 131 163 213 272 324
#     4  12  21  36  56  76 108 140 176 228 276 310
#
# _framework density 16.161076999999999
#
# number of rings (size 3 to 8) (size 9 to 14) (size 15 to 20)
#    0.000    1.176    5.882    3.176    0.000    2.588 
#    0.000    0.000    0.000    0.000    6.118    0.000 
#    0.000    0.000    0.000    0.000    0.000    0.000 
#
# Total GULP energy -189734.592307 kJ/mol
# GULP energy per Si atom -5580.429186 kJ/mol
# Density = 1.612429 g / cm^3
# Si number density = 16.161077 Si / 1000 Ang^3
#
#
#
# Elastic Constant Matrix: (Units=GPa)
#
#
# Indices 1 2 3 4 5 6 
#
# 1 103.2914 39.0351 34.7771 0.0000 0.0000 0.0000
# 2 39.0351 103.2915 34.7768 0.0000 0.0000 0.0000
# 3 34.7771 34.7768 101.8709 0.0000 0.0000 0.0000
# 4 0.0000 0.0000 0.0000 16.1307 0.0000 0.0000
# 5 0.0000 0.0000 0.0000 0.0000 16.1305 0.0000
# 6 0.0000 0.0000 0.0000 0.0000 0.0000 16.4507
#
#
#
# Elastic Compliance Matrix: (Units=1/GPa)
#
#
# Indices 1 2 3 4 5 6 
#
# 1 0.011998 -0.003565 -0.002879 0.000000 0.000000 0.000000
# 2 -0.003565 0.011998 -0.002879 0.000000 0.000000 0.000000
# 3 -0.002879 -0.002879 0.011782 0.000000 0.000000 0.000000
# 4 0.000000 0.000000 0.000000 0.061993 0.000000 0.000000
# 5 0.000000 0.000000 0.000000 0.000000 0.061994 0.000000
# 6 0.000000 0.000000 0.000000 0.000000 0.000000 0.060788
#
#
# Mechanical properties :
#
#
# Convention : Reuss Voigt Hill
#
# Bulk Modulus (GPa) = 58.36891 58.40354 58.38623
# Shear Modulus (GPa) = 20.41574 23.06670 21.74122
#
# Velocity S-wave (km/s) = 3.55810 3.78206 3.67179
# Velocity P-wave (km/s) = 7.28529 7.43565 7.36085
#
# Compressibility (1/GPa) = 0.01713241
#
# Stress axis : x y z
#
# Youngs Moduli (GPa) = 83.34829 83.34854 84.87561
#
# Poissons Ratio (x) = 0.29712 0.24435
# Poissons Ratio (y) = 0.29712 0.24434
# Poissons Ratio (z) = 0.23995 0.23995
#
# Static dielectric constant tensor:
#      x y z
#    x 1.540600 0.000000 0.000000 
#    y 0.000000 1.540600 0.000000 
#    z 0.000000 0.000000 1.570740 
# 
# From -- ./inp_files/10063.got.cif
#   From: 2010.05.17/outbox.cif.g08.bks.cpg/sg119_6_cif.got.tgz:10063.got - 2010.05.20 11:21:29.
