data_PCOD9559500
_publ_section_title
;
Structure prediction by ZEFSAII (Michael W. Deem and Ramdas Pophale) SiO2 
 PCOD9559500
Probable space group: I -4 M 2
;
_chemical_formula_sum "Si O2"
_cell_formula_units_Z 56
_cell_length_a 15.362911
_cell_length_b 15.362911
_cell_length_c 10.293126
_cell_angle_alpha 90.000000
_cell_angle_beta 90.000000
_cell_angle_gamma 90.000000
_cell_volume 2429.373659
_symmetry_space_group_name_H-M "I -4 M 2"
_symmetry_group_IT_number 119
_symmetry_cell_setting 'tetragonal'
loop_
_space_group_symop_operation_xyz
x,y,z
y,-x,-z
-x,-y,z
-y,x,-z
y,x,-z
-y,-x,-z
-x,y,z
x,-y,z
1/2+x,1/2+y,1/2+z
1/2+y,1/2-x,1/2-z
1/2-x,1/2-y,1/2+z
1/2-y,1/2+x,1/2-z
1/2+y,1/2+x,1/2-z
1/2-y,1/2-x,1/2-z
1/2-x,1/2+y,1/2+z
1/2+x,1/2-y,1/2+z
loop_
_atom_site_type_symbol
_atom_site_label
_atom_site_fract_x
_atom_site_fract_y
_atom_site_fract_z
Si Si1 0.302210 0.500000 0.991559
Si Si2 0.655286 0.500000 0.300672
Si Si3 0.189623 0.334851 0.994478
Si Si4 0.500000 0.221011 0.441767
Si Si5 0.622592 0.500000 0.738838
Si Si6 0.897944 0.602057 0.250000
O O1 0.384356 0.500000 0.894883
O O2 0.313748 0.500000 0.148542
O O3 0.251422 0.412600 0.947514
O O4 0.723670 0.500000 0.420245
O O5 0.588527 0.420119 0.313371
O O6 0.163859 0.368869 0.135967
O O7 0.245670 0.245670 0.000000
O O8 0.093359 0.326942 0.933628
O O9 0.500000 0.282877 0.318981
O O10 0.887467 0.500000 0.281115
#
# Coordination Sequence:
#
# PCOD9559500 Si02
#       6
#     8   8  16   8   8   8
#     4  12  26  44  67 104 143 187 243 294 363 442
#     4  11  22  44  70  99 134 182 250 307 356 421
#     4  12  25  43  72 103 146 187 237 302 366 425
#     4  12  26  44  67 104 143 187 243 294 363 442
#     4  11  24  42  68  97 142 190 230 301 372 441
#     4  11  22  46  80 108 140 189 258 320 352 419
#
# _framework density 23.051209
#
# number of rings (size 3 to 8) (size 9 to 14) (size 15 to 20)
#    0.000    0.429    2.857    6.857    0.000    6.286 
#    0.000    0.000    0.000    1.714    0.000    0.000 
#    0.000    0.000    0.000    0.000    0.000    0.000 
#
# Total GULP energy -156309.202134 kJ/mol
# GULP energy per Si atom -5582.471505 kJ/mol
# Density = 2.299874 g / cm^3
# Si number density = 23.051209 Si / 1000 Ang^3
#
#
#
# Elastic Constant Matrix: (Units=GPa)
#
#
# Indices 1 2 3 4 5 6 
#
# 1 101.9844 21.5044 -2.2207 0.0000 0.0000 0.0000
# 2 21.5044 101.9834 -2.2208 0.0000 0.0000 0.0000
# 3 -2.2207 -2.2208 72.3943 0.0000 0.0000 0.0000
# 4 0.0000 0.0000 0.0000 35.0886 0.0000 0.0000
# 5 0.0000 0.0000 0.0000 0.0000 35.0883 0.0000
# 6 0.0000 0.0000 0.0000 0.0000 0.0000 85.8630
#
#
#
# Elastic Compliance Matrix: (Units=1/GPa)
#
#
# Indices 1 2 3 4 5 6 
#
# 1 0.010266 -0.002159 0.000249 0.000000 0.000000 0.000000
# 2 -0.002159 0.010266 0.000249 0.000000 0.000000 0.000000
# 3 0.000249 0.000249 0.013828 0.000000 0.000000 0.000000
# 4 0.000000 0.000000 0.000000 0.028499 0.000000 0.000000
# 5 0.000000 0.000000 0.000000 0.000000 0.028500 0.000000
# 6 0.000000 0.000000 0.000000 0.000000 0.000000 0.011646
#
#
# Mechanical properties :
#
#
# Convention : Reuss Voigt Hill
#
# Bulk Modulus (GPa) = 32.21962 34.49866 33.35914
# Shear Modulus (GPa) = 42.85380 48.49458 45.67419
#
# Velocity S-wave (km/s) = 4.31637 4.59167 4.45615
# Velocity P-wave (km/s) = 6.23291 6.56581 6.40152
#
# Compressibility (1/GPa) = 0.03103699
#
# Stress axis : x y z
#
# Youngs Moduli (GPa) = 97.40747 97.40657 72.31446
#
# Poissons Ratio (x) = 0.21033 -0.01798
# Poissons Ratio (y) = 0.21033 -0.01798
# Poissons Ratio (z) = -0.02422 -0.02422
#
# Static dielectric constant tensor:
#      x y z
#    x 1.951760 0.000000 0.000000 
#    y 0.000000 1.951760 0.000000 
#    z 0.000000 0.000000 1.808570 
# 
# From -- ./inp_files/3570.got.cif
#   From: 2010.05.17/outbox.cif.g08.bks.cpg/sg119_2_cif.got.tgz:3570.got - 2010.05.20 11:21:29.
