data_PCOD9559400
_publ_section_title
;
Structure prediction by ZEFSAII (Michael W. Deem and Ramdas Pophale) SiO2 
 PCOD9559400
Probable space group: I -4 M 2
;
_chemical_formula_sum "Si O2"
_cell_formula_units_Z 38
_cell_length_a 10.515346
_cell_length_b 10.515346
_cell_length_c 19.867172
_cell_angle_alpha 90.000000
_cell_angle_beta 90.000000
_cell_angle_gamma 90.000000
_cell_volume 2196.762906
_symmetry_space_group_name_H-M "I -4 M 2"
_symmetry_group_IT_number 119
_symmetry_cell_setting 'tetragonal'
loop_
_space_group_symop_operation_xyz
x,y,z
y,-x,-z
-x,-y,z
-y,x,-z
y,x,-z
-y,-x,-z
-x,y,z
x,-y,z
1/2+x,1/2+y,1/2+z
1/2+y,1/2-x,1/2-z
1/2-x,1/2-y,1/2+z
1/2-y,1/2+x,1/2-z
1/2+y,1/2+x,1/2-z
1/2-y,1/2-x,1/2-z
1/2-x,1/2+y,1/2+z
1/2+x,1/2-y,1/2+z
loop_
_atom_site_type_symbol
_atom_site_label
_atom_site_fract_x
_atom_site_fract_y
_atom_site_fract_z
Si Si1 0.241075 0.845924 0.926382
Si Si2 0.500000 0.500000 0.214662
Si Si3 0.000000 0.500000 0.250000
Si Si4 0.500000 0.769943 0.857279
Si Si5 0.000000 0.145490 0.845503
O O1 0.374884 0.793040 0.901463
O O2 0.130099 0.800785 0.874957
O O3 0.250518 0.000000 0.925789
O O4 0.200635 0.799366 0.000000
O O5 0.628965 0.500000 0.173077
O O6 0.500000 0.620932 0.265945
O O7 0.124761 0.500000 0.202683
O O8 0.000000 0.000000 0.873553
#
# Coordination Sequence:
#
# PCOD9559400 Si02
#       5
#    16   4   2   8   8
#     4  11  20  37  62  88 117 151 202 248 292 348
#     4  10  22  38  54  84 130 154 194 232 310 354
#     4  12  20  40  64  92 124 152 212 250 284 364
#     4  12  24  37  60  93 124 158 192 251 301 353
#     4   8  18  34  58  84 108 153 194 244 281 338
#
# _framework density 17.298179999999999
#
# number of rings (size 3 to 8) (size 9 to 14) (size 15 to 20)
#    0.632    0.842    4.211    2.526    0.000    1.684 
#    0.000    0.000    0.000    0.000    0.000    2.947 
#    0.000    0.000    0.000    0.000    0.000    0.000 
#
# Total GULP energy -105889.307296 kJ/mol
# GULP energy per Si atom -5573.121437 kJ/mol
# Density = 1.725881 g / cm^3
# Si number density = 17.298180 Si / 1000 Ang^3
#
#
#
# Elastic Constant Matrix: (Units=GPa)
#
#
# Indices 1 2 3 4 5 6 
#
# 1 142.6919 43.2537 61.3754 0.0000 0.0000 0.0000
# 2 43.2537 142.6914 61.3748 0.0000 0.0000 0.0000
# 3 61.3754 61.3748 93.3911 0.0000 0.0000 0.0000
# 4 0.0000 0.0000 0.0000 -105.3149 0.0000 0.0000
# 5 0.0000 0.0000 0.0000 0.0000 -105.3513 0.0000
# 6 0.0000 0.0000 0.0000 0.0000 0.0000 8.7263
#
#
#
# Elastic Compliance Matrix: (Units=1/GPa)
#
#
# Indices 1 2 3 4 5 6 
#
# 1 0.009778 -0.000279 -0.006243 0.000000 0.000000 0.000000
# 2 -0.000279 0.009778 -0.006242 0.000000 0.000000 0.000000
# 3 -0.006243 -0.006242 0.018913 0.000000 0.000000 0.000000
# 4 0.000000 0.000000 0.000000 -0.009495 0.000000 0.000000
# 5 0.000000 0.000000 0.000000 0.000000 -0.009492 0.000000
# 6 0.000000 0.000000 0.000000 0.000000 0.000000 0.114596
#
#
# Mechanical properties :
#
#
# Convention : Reuss Voigt Hill
#
# Bulk Modulus (GPa) = 77.27779 78.97579 78.12679
# Shear Modulus (GPa) = 30.50314 -26.20327 2.14994
#
# Velocity S-wave (km/s) = 4.20381 -3.89626 1.11605
# Velocity P-wave (km/s) = 8.26641 5.05109 6.85008
#
# Compressibility (1/GPa) = 0.01294033
#
# Stress axis : x y z
#
# Youngs Moduli (GPa) = 102.27358 102.27390 52.87493
#
# Poissons Ratio (x) = 0.02852 0.33007
# Poissons Ratio (y) = 0.02852 0.33007
# Poissons Ratio (z) = 0.63844 0.63844
#
# Static dielectric constant tensor:
#      x y z
#    x 1.599930 0.000000 0.000000 
#    y 0.000000 1.599920 0.000000 
#    z 0.000000 0.000000 1.578570 
# 
# From -- ./inp_files/5870.got.cif
#   From: 2010.05.17/outbox.cif.g08.bks.cpg/sg119_3_cif.got.tgz:5870.got - 2010.05.20 11:21:29.
