data_PCOD9559348
_publ_section_title
;
Structure prediction by ZEFSAII (Michael W. Deem and Ramdas Pophale) SiO2 
 PCOD9559348
Probable space group: I -4 M 2
;
_chemical_formula_sum "Si O2"
_cell_formula_units_Z 112
_cell_length_a 14.123013
_cell_length_b 14.123013
_cell_length_c 27.282683
_cell_angle_alpha 90.000000
_cell_angle_beta 90.000000
_cell_angle_gamma 90.000000
_cell_volume 5441.790206
_symmetry_space_group_name_H-M "I -4 M 2"
_symmetry_group_IT_number 119
_symmetry_cell_setting 'tetragonal'
loop_
_space_group_symop_operation_xyz
x,y,z
y,-x,-z
-x,-y,z
-y,x,-z
y,x,-z
-y,-x,-z
-x,y,z
x,-y,z
1/2+x,1/2+y,1/2+z
1/2+y,1/2-x,1/2-z
1/2-x,1/2-y,1/2+z
1/2-y,1/2+x,1/2-z
1/2+y,1/2+x,1/2-z
1/2-y,1/2-x,1/2-z
1/2-x,1/2+y,1/2+z
1/2+x,1/2-y,1/2+z
loop_
_atom_site_type_symbol
_atom_site_label
_atom_site_fract_x
_atom_site_fract_y
_atom_site_fract_z
Si Si1 0.301357 0.387448 0.049004
Si Si2 0.900258 0.888314 0.071357
Si Si3 0.889040 0.229531 0.748746
Si Si4 0.891428 0.773083 0.172580
Si Si5 0.608802 0.805891 0.419888
Si Si6 0.389807 0.102481 0.978681
Si Si7 0.288781 0.692696 0.853769
O O1 0.301142 0.500000 0.046933
O O2 0.339125 0.352074 0.100603
O O3 0.350514 0.350514 0.000000
O O4 0.193288 0.349007 0.047666
O O5 0.900405 0.832198 0.122370
O O6 0.794301 0.872614 0.052265
O O7 0.000000 0.868052 0.044037
O O8 0.902543 0.000000 0.081895
O O9 0.826307 0.326307 0.750000
O O10 0.840767 0.153784 0.785608
O O11 0.871670 0.195597 0.693239
O O12 0.000000 0.242539 0.759502
O O13 0.803918 0.700093 0.162388
O O14 0.000000 0.740435 0.184173
O O15 0.500000 0.807669 0.402710
O O16 0.619115 0.881655 0.463072
O O17 0.681969 0.815847 0.375741
O O18 0.500000 0.098191 0.965653
O O19 0.346861 0.000000 0.967165
#
# Coordination Sequence:
#
# PCOD9559348 Si02
#       7
#    16  16  16  16  16  16  16
#     4  11  23  40  60  83 118 162 207 253 296 341
#     4   8  13  22  41  72 105 134 165 205 261 336
#     4  10  22  38  57  85 121 158 198 244 296 360
#     4   9  18  34  57  83 111 145 188 241 303 362
#     4   9  16  29  51  76 106 140 181 233 289 347
#     4   9  18  33  55  80 105 141 190 239 288 342
#     4  10  21  36  56  86 118 154 199 246 300 354
#
# _framework density 20.581461000000001
#
# number of rings (size 3 to 8) (size 9 to 14) (size 15 to 20)
#    0.000    2.571    1.429    0.429    0.000    6.857 
#    0.000    0.000    0.000    0.857    0.000    0.000 
#    0.000    0.000    0.000    0.000    0.000    0.000 
#
# Total GULP energy -311989.354188 kJ/mol
# GULP energy per Si atom -5571.238468 kJ/mol
# Density = 2.053462 g / cm^3
# Si number density = 20.581461 Si / 1000 Ang^3
#
#
#
# Elastic Constant Matrix: (Units=GPa)
#
#
# Indices 1 2 3 4 5 6 
#
# 1 52.1390 17.8364 11.3867 0.0000 0.0000 0.0000
# 2 17.8364 52.1390 11.3867 0.0000 0.0000 0.0000
# 3 11.3867 11.3867 77.5164 0.0000 0.0000 0.0000
# 4 0.0000 0.0000 0.0000 12.3444 0.0000 0.0000
# 5 0.0000 0.0000 0.0000 0.0000 12.3444 0.0000
# 6 0.0000 0.0000 0.0000 0.0000 0.0000 6.4294
#
#
#
# Elastic Compliance Matrix: (Units=1/GPa)
#
#
# Indices 1 2 3 4 5 6 
#
# 1 0.022080 -0.007072 -0.002205 0.000000 0.000000 0.000000
# 2 -0.007072 0.022080 -0.002205 0.000000 0.000000 0.000000
# 3 -0.002205 -0.002205 0.013548 0.000000 0.000000 0.000000
# 4 0.000000 0.000000 0.000000 0.081009 0.000000 0.000000
# 5 0.000000 0.000000 0.000000 0.000000 0.081009 0.000000
# 6 0.000000 0.000000 0.000000 0.000000 0.000000 0.155536
#
#
# Mechanical properties :
#
#
# Convention : Reuss Voigt Hill
#
# Bulk Modulus (GPa) = 28.78015 29.22377 29.00196
# Shear Modulus (GPa) = 12.20088 15.63593 13.91841
#
# Velocity S-wave (km/s) = 2.43741 2.75927 2.60332
# Velocity P-wave (km/s) = 4.68350 4.93775 4.81230
#
# Compressibility (1/GPa) = 0.03474617
#
# Stress axis : x y z
#
# Youngs Moduli (GPa) = 45.28932 45.28932 73.81059
#
# Poissons Ratio (x) = 0.32029 0.16272
# Poissons Ratio (y) = 0.32029 0.16272
# Poissons Ratio (z) = 0.09985 0.09985
#
# Static dielectric constant tensor:
#      x y z
#    x 1.786920 0.000000 0.000000 
#    y 0.000000 1.786920 0.000000 
#    z 0.000000 0.000000 1.729430 
# 
# From -- ./inp_files/8808.got.cif
#   From: 2010.05.17/outbox.cif.g08.bks.cpg/sg119_5_cif.got.tgz:8808.got - 2010.05.20 11:21:29.
