data_PCOD9559050
_publ_section_title
;
Structure prediction by ZEFSAII (Michael W. Deem and Ramdas Pophale) SiO2 
 PCOD9559050
Probable space group: I -4 M 2
;
_chemical_formula_sum "Si O2"
_cell_formula_units_Z 96
_cell_length_a 17.748697
_cell_length_b 17.748697
_cell_length_c 15.479564
_cell_angle_alpha 90.000000
_cell_angle_beta 90.000000
_cell_angle_gamma 90.000000
_cell_volume 4876.314129
_symmetry_space_group_name_H-M "I -4 M 2"
_symmetry_group_IT_number 119
_symmetry_cell_setting 'tetragonal'
loop_
_space_group_symop_operation_xyz
x,y,z
y,-x,-z
-x,-y,z
-y,x,-z
y,x,-z
-y,-x,-z
-x,y,z
x,-y,z
1/2+x,1/2+y,1/2+z
1/2+y,1/2-x,1/2-z
1/2-x,1/2-y,1/2+z
1/2-y,1/2+x,1/2-z
1/2+y,1/2+x,1/2-z
1/2-y,1/2-x,1/2-z
1/2-x,1/2+y,1/2+z
1/2+x,1/2-y,1/2+z
loop_
_atom_site_type_symbol
_atom_site_label
_atom_site_fract_x
_atom_site_fract_y
_atom_site_fract_z
Si Si1 0.686022 0.299898 0.134147
Si Si2 0.418055 0.838929 0.325428
Si Si3 0.583150 0.243378 0.984360
Si Si4 0.412627 0.666051 0.301956
Si Si5 0.723061 0.660068 0.410017
Si Si6 0.628330 0.083899 0.974460
O O1 0.639003 0.250004 0.065872
O O2 0.630315 0.318788 0.211995
O O3 0.768000 0.258794 0.143269
O O4 0.705458 0.378509 0.087780
O O5 0.500000 0.859555 0.287883
O O6 0.360087 0.860087 0.250000
O O7 0.417186 0.749976 0.341667
O O8 0.413237 0.873714 0.420475
O O9 0.500000 0.267453 0.009182
O O10 0.582802 0.158192 0.949570
O O11 0.500000 0.638580 0.295580
O O12 0.349399 0.625951 0.361039
O O13 0.695413 0.695413 0.500000
O O14 0.788839 0.601844 0.435265
O O15 0.604210 0.000000 0.948829
#
# Coordination Sequence:
#
# PCOD9559050 Si02
#       6
#    16  16  16  16  16  16
#     4  10  19  35  54  84 114 146 191 233 280 347
#     4  10  19  29  44  72 110 147 179 216 266 324
#     4  10  19  34  57  80 111 150 188 234 290 348
#     4  11  21  32  55  84 108 138 180 236 290 334
#     4  11  18  34  55  79 114 155 194 229 271 338
#     4  10  20  34  52  79 114 150 189 232 281 342
#
# _framework density 19.687000999999999
#
# number of rings (size 3 to 8) (size 9 to 14) (size 15 to 20)
#    0.000    1.667    5.000    3.000    0.000    2.500 
#    0.000    2.500    0.000   10.000    0.000    1.167 
#    0.000    5.333    0.000    0.000    0.000    0.000 
#
# Total GULP energy -267250.883853 kJ/mol
# GULP energy per Si atom -5567.726747 kJ/mol
# Density = 1.964219 g / cm^3
# Si number density = 19.687001 Si / 1000 Ang^3
#
#
#
# Elastic Constant Matrix: (Units=GPa)
#
#
# Indices 1 2 3 4 5 6 
#
# 1 79.9783 9.0383 14.2803 0.0000 0.0000 0.0000
# 2 9.0383 79.9783 14.2803 0.0000 0.0000 0.0000
# 3 14.2803 14.2803 53.2567 0.0000 0.0000 0.0000
# 4 0.0000 0.0000 0.0000 17.5852 0.0000 0.0000
# 5 0.0000 0.0000 0.0000 0.0000 17.5852 0.0000
# 6 0.0000 0.0000 0.0000 0.0000 0.0000 5.1429
#
#
#
# Elastic Compliance Matrix: (Units=1/GPa)
#
#
# Indices 1 2 3 4 5 6 
#
# 1 0.013194 -0.000903 -0.003296 0.000000 0.000000 0.000000
# 2 -0.000903 0.013194 -0.003296 0.000000 0.000000 0.000000
# 3 -0.003296 -0.003296 0.020544 0.000000 0.000000 0.000000
# 4 0.000000 0.000000 0.000000 0.056866 0.000000 0.000000
# 5 0.000000 0.000000 0.000000 0.000000 0.056866 0.000000
# 6 0.000000 0.000000 0.000000 0.000000 0.000000 0.194442
#
#
# Mechanical properties :
#
#
# Convention : Reuss Voigt Hill
#
# Bulk Modulus (GPa) = 31.30494 32.04570 31.67532
# Shear Modulus (GPa) = 13.13225 19.77030 16.45128
#
# Velocity S-wave (km/s) = 2.58554 3.17240 2.89388
# Velocity P-wave (km/s) = 4.98490 5.45268 5.22403
#
# Compressibility (1/GPa) = 0.03194384
#
# Stress axis : x y z
#
# Youngs Moduli (GPa) = 75.79280 75.79280 48.67487
#
# Poissons Ratio (x) = 0.06841 0.16042
# Poissons Ratio (y) = 0.06841 0.16042
# Poissons Ratio (z) = 0.24980 0.24980
#
# Static dielectric constant tensor:
#      x y z
#    x 1.742610 0.000000 0.000000 
#    y 0.000000 1.742610 0.000000 
#    z 0.000000 0.000000 1.707150 
# 
# From -- ./inp_files/6645.got.cif
#   From: 2010.05.17/outbox.cif.g08.bks.cpg/sg119_4_cif.got.tgz:6645.got - 2010.05.20 11:21:29.
