data_PCOD9559566
_publ_section_title
;
Structure prediction by ZEFSAII (Michael W. Deem and Ramdas Pophale) SiO2 
 PCOD9559566
Probable space group: I -4 C 2
;
_chemical_formula_sum "Si O2"
_cell_formula_units_Z 96
_cell_length_a 23.161951
_cell_length_b 23.161951
_cell_length_c 9.422203
_cell_angle_alpha 90.000000
_cell_angle_beta 90.000000
_cell_angle_gamma 90.000000
_cell_volume 5054.785533
_symmetry_space_group_name_H-M "I -4 C 2"
_symmetry_group_IT_number 120
_symmetry_cell_setting 'tetragonal'
loop_
_space_group_symop_operation_xyz
x,y,z
y,-x,-z
-x,-y,z
-y,x,-z
y,x,1/2-z
-y,-x,1/2-z
-x,y,1/2+z
x,-y,1/2+z
1/2+x,1/2+y,1/2+z
1/2+y,1/2-x,1/2-z
1/2-x,1/2-y,1/2+z
1/2-y,1/2+x,1/2-z
1/2+y,1/2+x,-z
1/2-y,1/2-x,-z
1/2-x,1/2+y,z
1/2+x,1/2-y,z
loop_
_atom_site_type_symbol
_atom_site_label
_atom_site_fract_x
_atom_site_fract_y
_atom_site_fract_z
Si Si1 0.700079 0.885465 0.197194
Si Si2 0.805422 0.194579 0.250000
Si Si3 0.265372 0.540789 0.392934
Si Si4 0.724585 0.224585 0.500000
Si Si5 0.935230 0.224896 0.292316
Si Si6 0.635724 0.073439 0.216301
Si Si7 0.015404 0.647530 0.003853
O O1 0.753938 0.904914 0.292062
O O2 0.717847 0.830903 0.102931
O O3 0.641758 0.874742 0.288529
O O4 0.680168 0.937256 0.093134
O O5 0.778466 0.223068 0.392226
O O6 0.873275 0.205355 0.239708
O O7 0.293525 0.488295 0.306831
O O8 0.292416 0.554465 0.544493
O O9 0.199641 0.520125 0.424484
O O10 0.932980 0.294789 0.288077
O O11 0.615700 0.048698 0.369084
O O12 0.614087 0.030282 0.094240
#
# Coordination Sequence:
#
# PCOD9559566 Si02
#       7
#    16   8  16   8  16  16  16
#     4  12  19  35  60  77 112 157 204 249 296 361
#     4  12  26  40  56  90 138 167 200 247 316 382
#     4  10  20  35  62  82 106 154 211 251 292 358
#     4  12  26  38  54  86 136 173 196 241 310 384
#     4  10  21  39  57  85 119 158 205 247 294 366
#     4  10  19  32  51  79 102 147 198 254 290 346
#     4  10  17  32  48  78  98 137 202 249 295 331
#
# _framework density 18.991903000000001
#
# number of rings (size 3 to 8) (size 9 to 14) (size 15 to 20)
#    0.000    1.333    8.333    1.000    2.333    2.667 
#    0.000    0.000    0.000    0.500    4.333    0.000 
#    0.000    2.000    0.000    0.000    0.000    0.000 
#
# Total GULP energy -267853.063524 kJ/mol
# GULP energy per Si atom -5580.272157 kJ/mol
# Density = 1.894868 g / cm^3
# Si number density = 18.991903 Si / 1000 Ang^3
#
#
#
# Elastic Constant Matrix: (Units=GPa)
#
#
# Indices 1 2 3 4 5 6 
#
# 1 10.3398 13.9570 12.6812 0.0000 0.0000 0.0000
# 2 13.9570 10.3401 12.6809 0.0000 0.0000 0.0000
# 3 12.6812 12.6809 94.9239 0.0000 0.0000 0.0000
# 4 0.0000 0.0000 0.0000 14.7273 0.0000 0.0000
# 5 0.0000 0.0000 0.0000 0.0000 14.7271 0.0000
# 6 0.0000 0.0000 0.0000 0.0000 0.0000 15.4053
#
#
#
# Elastic Compliance Matrix: (Units=1/GPa)
#
#
# Indices 1 2 3 4 5 6 
#
# 1 -0.114322 0.162147 -0.006388 0.000000 0.000000 0.000000
# 2 0.162147 -0.114318 -0.006390 0.000000 0.000000 0.000000
# 3 -0.006388 -0.006390 0.012242 0.000000 0.000000 0.000000
# 4 0.000000 0.000000 0.000000 0.067901 0.000000 0.000000
# 5 0.000000 0.000000 0.000000 0.000000 0.067902 0.000000
# 6 0.000000 0.000000 0.000000 0.000000 0.000000 0.064913
#
#
# Mechanical properties :
#
#
# Convention : Reuss Voigt Hill
#
# Bulk Modulus (GPa) = 12.14501 21.58243 16.86372
# Shear Modulus (GPa) = -17.42333 14.05757 -1.68288
#
# Velocity S-wave (km/s) = -3.03216 2.72359 -0.94235
# Velocity P-wave (km/s) = 2.41867 4.61295 2.77753
#
# Compressibility (1/GPa) = 0.08233836
#
# Stress axis : x y z
#
# Youngs Moduli (GPa) = -8.74721 -8.74756 81.68702
#
# Poissons Ratio (x) = 1.41839 0.52186
# Poissons Ratio (y) = 1.41833 0.52198
# Poissons Ratio (z) = -0.05588 -0.05590
#
# Static dielectric constant tensor:
#      x y z
#    x 1.670540 0.000000 0.000000 
#    y 0.000000 1.670540 0.000000 
#    z 0.000000 0.000000 1.786950 
# 
# From -- ./inp_files/1586.got.cif
#   From: 2010.05.17/outbox.cif.g08.bks.cpg/sg120_1_cif.got.tgz:1586.got - 2010.05.20 11:28:13.
