data_PCOD9559189
_publ_section_title
;
Structure prediction by ZEFSAII (Michael W. Deem and Ramdas Pophale) SiO2 
 PCOD9559189
Probable space group: I -4 M 2
;
_chemical_formula_sum "Si O2"
_cell_formula_units_Z 112
_cell_length_a 14.884641
_cell_length_b 14.884641
_cell_length_c 26.209115
_cell_angle_alpha 90.000000
_cell_angle_beta 90.000000
_cell_angle_gamma 90.000000
_cell_volume 5806.695939
_symmetry_space_group_name_H-M "I -4 M 2"
_symmetry_group_IT_number 119
_symmetry_cell_setting 'tetragonal'
loop_
_space_group_symop_operation_xyz
x,y,z
y,-x,-z
-x,-y,z
-y,x,-z
y,x,-z
-y,-x,-z
-x,y,z
x,-y,z
1/2+x,1/2+y,1/2+z
1/2+y,1/2-x,1/2-z
1/2-x,1/2-y,1/2+z
1/2-y,1/2+x,1/2-z
1/2+y,1/2+x,1/2-z
1/2-y,1/2-x,1/2-z
1/2-x,1/2+y,1/2+z
1/2+x,1/2-y,1/2+z
loop_
_atom_site_type_symbol
_atom_site_label
_atom_site_fract_x
_atom_site_fract_y
_atom_site_fract_z
Si Si1 0.137952 0.400753 0.970192
Si Si2 0.393355 0.603891 0.835809
Si Si3 0.801935 0.898962 0.046593
Si Si4 0.898869 0.839875 0.555150
Si Si5 0.402081 0.108865 0.911422
Si Si6 0.211305 0.893780 0.865894
Si Si7 0.243772 0.893188 0.749912
O O1 0.097019 0.500000 0.960846
O O2 0.096023 0.306108 0.955050
O O3 0.233071 0.401482 0.942187
O O4 0.148632 0.395836 0.031716
O O5 0.500000 0.597602 0.828634
O O6 0.357981 0.500000 0.832606
O O7 0.376321 0.641997 0.892706
O O8 0.361124 0.673566 0.793159
O O9 0.837097 0.853994 0.098349
O O10 0.837466 0.000000 0.040406
O O11 0.837640 0.837640 0.000000
O O12 0.859184 0.859184 0.500000
O O13 0.000000 0.877417 0.554020
O O14 0.500000 0.133579 0.889340
O O15 0.314423 0.131687 0.879356
O O16 0.401257 0.000000 0.917766
O O17 0.198969 0.883019 0.805712
O O18 0.200751 0.000000 0.878546
O O19 0.333469 0.833469 0.750000
O O20 0.263239 0.000000 0.743226
#
# Coordination Sequence:
#
# PCOD9559189 Si02
#       7
#    16  16  16  16  16  16  16
#     4  10  21  35  54  83 117 155 193 234 289 354
#     4   9  19  37  59  82 111 150 194 240 296 357
#     4  12  24  38  59  87 122 161 201 248 297 349
#     4  10  20  32  52  84 118 150 185 230 285 350
#     4   9  17  32  54  79 111 152 191 230 283 343
#     4  10  22  39  57  84 118 154 201 251 296 349
#     4  10  23  40  61  86 115 155 200 249 300 353
#
# _framework density 19.288077000000001
#
# number of rings (size 3 to 8) (size 9 to 14) (size 15 to 20)
#    0.000    2.000    1.429    1.714    2.000    3.857 
#    0.000    5.714    0.000    0.000    0.000    0.000 
#    0.000    0.286    0.000    0.000    0.000    0.000 
#
# Total GULP energy -312373.045653 kJ/mol
# GULP energy per Si atom -5578.090101 kJ/mol
# Density = 1.924418 g / cm^3
# Si number density = 19.288077 Si / 1000 Ang^3
#
#
#
# Elastic Constant Matrix: (Units=GPa)
#
#
# Indices 1 2 3 4 5 6 
#
# 1 84.8250 37.4573 44.8603 0.0000 0.0000 0.0000
# 2 37.4573 84.8250 44.8603 0.0000 0.0000 0.0000
# 3 44.8603 44.8603 101.5453 0.0000 0.0000 0.0000
# 4 0.0000 0.0000 0.0000 25.3691 0.0000 0.0000
# 5 0.0000 0.0000 0.0000 0.0000 25.3691 0.0000
# 6 0.0000 0.0000 0.0000 0.0000 0.0000 13.2405
#
#
#
# Elastic Compliance Matrix: (Units=1/GPa)
#
#
# Indices 1 2 3 4 5 6 
#
# 1 0.016606 -0.004506 -0.005345 0.000000 0.000000 0.000000
# 2 -0.004506 0.016606 -0.005345 0.000000 0.000000 0.000000
# 3 -0.005345 -0.005345 0.014571 0.000000 0.000000 0.000000
# 4 0.000000 0.000000 0.000000 0.039418 0.000000 0.000000
# 5 0.000000 0.000000 0.000000 0.000000 0.039418 0.000000
# 6 0.000000 0.000000 0.000000 0.000000 0.000000 0.075526
#
#
# Mechanical properties :
#
#
# Convention : Reuss Voigt Hill
#
# Bulk Modulus (GPa) = 57.50840 58.39457 57.95149
# Shear Modulus (GPa) = 20.97901 22.39690 21.68796
#
# Velocity S-wave (km/s) = 3.30156 3.41130 3.35688
# Velocity P-wave (km/s) = 6.66438 6.77176 6.71828
#
# Compressibility (1/GPa) = 0.01738876
#
# Stress axis : x y z
#
# Youngs Moduli (GPa) = 60.22050 60.22050 68.63046
#
# Poissons Ratio (x) = 0.27134 0.36686
# Poissons Ratio (y) = 0.27134 0.36686
# Poissons Ratio (z) = 0.32190 0.32190
#
# Static dielectric constant tensor:
#      x y z
#    x 1.699760 0.000000 0.000000 
#    y 0.000000 1.699760 0.000000 
#    z 0.000000 0.000000 1.660450 
# 
# From -- ./inp_files/8830.got.cif
#   From: 2010.05.17/outbox.cif.g08.bks.cpg/sg119_5_cif.got.tgz:8830.got - 2010.05.20 11:21:29.
