data_PCOD9559478
_publ_section_title
;
Structure prediction by ZEFSAII (Michael W. Deem and Ramdas Pophale) SiO2 
 PCOD9559478
Probable space group: I -4 M 2
;
_chemical_formula_sum "Si O2"
_cell_formula_units_Z 80
_cell_length_a 29.200251
_cell_length_b 29.200251
_cell_length_c 4.919258
_cell_angle_alpha 90.000000
_cell_angle_beta 90.000000
_cell_angle_gamma 90.000000
_cell_volume 4194.428250
_symmetry_space_group_name_H-M "I -4 M 2"
_symmetry_group_IT_number 119
_symmetry_cell_setting 'tetragonal'
loop_
_space_group_symop_operation_xyz
x,y,z
y,-x,-z
-x,-y,z
-y,x,-z
y,x,-z
-y,-x,-z
-x,y,z
x,-y,z
1/2+x,1/2+y,1/2+z
1/2+y,1/2-x,1/2-z
1/2-x,1/2-y,1/2+z
1/2-y,1/2+x,1/2-z
1/2+y,1/2+x,1/2-z
1/2-y,1/2-x,1/2-z
1/2-x,1/2+y,1/2+z
1/2+x,1/2-y,1/2+z
loop_
_atom_site_type_symbol
_atom_site_label
_atom_site_fract_x
_atom_site_fract_y
_atom_site_fract_z
Si Si1 0.889817 0.319637 0.880910
Si Si2 0.180914 0.755543 0.832063
Si Si3 0.051805 0.795560 0.117700
Si Si4 0.889217 0.818380 0.603983
Si Si5 0.447498 0.193488 0.845909
O O1 0.858592 0.358592 0.750000
O O2 0.854321 0.279656 0.973756
O O3 0.922538 0.302358 0.635417
O O4 0.918379 0.336986 0.138127
O O5 0.223806 0.723806 0.750000
O O6 0.149559 0.778169 0.596527
O O7 0.202429 0.797572 0.000000
O O8 0.067727 0.813328 0.408529
O O9 0.052406 0.741119 0.175301
O O10 0.000000 0.808251 0.040858
O O11 0.089390 0.813352 0.903971
O O12 0.863001 0.863001 0.500000
O O13 0.500000 0.179722 0.886758
#
# Coordination Sequence:
#
# PCOD9559478 Si02
#       5
#    16  16  16  16  16
#     4  11  23  38  58  84 118 151 202 246 283 331
#     4  11  23  36  52  75 115 164 206 237 275 317
#     4  11  22  39  58  80 111 149 191 232 293 342
#     4  12  23  38  57  83 113 147 196 241 276 329
#     4  11  21  39  60  83 112 153 197 238 297 347
#
# _framework density 19.072921999999998
#
# number of rings (size 3 to 8) (size 9 to 14) (size 15 to 20)
#    0.000    0.800    4.000    4.200    0.000    6.400 
#    0.000    0.000    0.000    0.000    0.000    0.000 
#    0.000   56.000    0.000    0.000    0.000    0.000 
#
# Total GULP energy -223190.310073 kJ/mol
# GULP energy per Si atom -5579.757752 kJ/mol
# Density = 1.902951 g / cm^3
# Si number density = 19.072922 Si / 1000 Ang^3
#
#
#
# Elastic Constant Matrix: (Units=GPa)
#
#
# Indices 1 2 3 4 5 6 
#
# 1 88.4958 26.6407 20.2031 0.0000 0.0000 0.0000
# 2 26.6407 88.4940 20.2024 0.0000 0.0000 0.0000
# 3 20.2031 20.2024 91.0512 0.0000 0.0000 0.0000
# 4 0.0000 0.0000 0.0000 29.3553 0.0000 0.0000
# 5 0.0000 0.0000 0.0000 0.0000 29.3557 0.0000
# 6 0.0000 0.0000 0.0000 0.0000 0.0000 8.1289
#
#
#
# Elastic Compliance Matrix: (Units=1/GPa)
#
#
# Indices 1 2 3 4 5 6 
#
# 1 0.012793 -0.003374 -0.002090 0.000000 0.000000 0.000000
# 2 -0.003374 0.012793 -0.002090 0.000000 0.000000 0.000000
# 3 -0.002090 -0.002090 0.011910 0.000000 0.000000 0.000000
# 4 0.000000 0.000000 0.000000 0.034065 0.000000 0.000000
# 5 0.000000 0.000000 0.000000 0.000000 0.034065 0.000000
# 6 0.000000 0.000000 0.000000 0.000000 0.000000 0.123018
#
#
# Mechanical properties :
#
#
# Convention : Reuss Voigt Hill
#
# Bulk Modulus (GPa) = 44.66601 44.68148 44.67375
# Shear Modulus (GPa) = 19.90324 26.76762 23.33543
#
# Velocity S-wave (km/s) = 3.23388 3.75031 3.50163
# Velocity P-wave (km/s) = 6.11665 6.49851 6.31047
#
# Compressibility (1/GPa) = 0.02238839
#
# Stress axis : x y z
#
# Youngs Moduli (GPa) = 78.16875 78.16738 83.96128
#
# Poissons Ratio (x) = 0.26375 0.17547
# Poissons Ratio (y) = 0.26375 0.17547
# Poissons Ratio (z) = 0.16337 0.16336
#
# Static dielectric constant tensor:
#      x y z
#    x 1.696160 0.000000 0.000000 
#    y 0.000000 1.696160 0.000000 
#    z 0.000000 0.000000 1.721410 
# 
# From -- ./inp_files/994.got.cif
#   From: 2010.05.17/outbox.cif.g08.bks.cpg/sg119_1_cif.got.tgz:994.got - 2010.05.20 11:21:29.
