data_PCOD9559911
_publ_section_title
;
Structure prediction by ZEFSAII (Michael W. Deem and Ramdas Pophale) SiO2 
 PCOD9559911
Probable space group: I -4 C 2
;
_chemical_formula_sum "Si O2"
_cell_formula_units_Z 60
_cell_length_a 16.824705
_cell_length_b 16.824705
_cell_length_c 8.381510
_cell_angle_alpha 90.000000
_cell_angle_beta 90.000000
_cell_angle_gamma 90.000000
_cell_volume 2372.559889
_symmetry_space_group_name_H-M "I -4 C 2"
_symmetry_group_IT_number 120
_symmetry_cell_setting 'tetragonal'
loop_
_space_group_symop_operation_xyz
x,y,z
y,-x,-z
-x,-y,z
-y,x,-z
y,x,1/2-z
-y,-x,1/2-z
-x,y,1/2+z
x,-y,1/2+z
1/2+x,1/2+y,1/2+z
1/2+y,1/2-x,1/2-z
1/2-x,1/2-y,1/2+z
1/2-y,1/2+x,1/2-z
1/2+y,1/2+x,-z
1/2-y,1/2-x,-z
1/2-x,1/2+y,z
1/2+x,1/2-y,z
loop_
_atom_site_type_symbol
_atom_site_label
_atom_site_fract_x
_atom_site_fract_y
_atom_site_fract_z
Si Si1 0.500000 0.000000 0.750000
Si Si2 0.584073 0.165181 0.684675
Si Si3 0.230566 0.990748 0.559899
Si Si4 0.264753 0.264753 0.250000
Si Si5 0.665319 0.650212 0.926971
O O1 0.451328 0.923277 0.684744
O O2 0.531423 0.224712 0.794723
O O3 0.565356 0.201848 0.513567
O O4 0.671313 0.184102 0.748061
O O5 0.158220 0.929351 0.584803
O O6 0.197903 0.062556 0.451239
O O7 0.302571 0.302482 0.418580
O O8 0.689528 0.689528 0.750000
#
# Coordination Sequence:
#
# PCOD9559911 Si02
#       5
#     4  16  16   8  16
#     4  12  28  46  68 118 156 194 252 326 380 422
#     4  12  26  43  73 104 149 199 244 312 368 452
#     4  12  24  46  72 104 144 190 248 300 382 436
#     4  10  24  50  70 100 140 202 250 288 378 462
#     4  10  23  46  68 102 140 180 238 310 361 456
#
# _framework density 25.289138999999999
#
# number of rings (size 3 to 8) (size 9 to 14) (size 15 to 20)
#    0.800    0.000    2.667    4.800    0.000   12.267 
#    0.000    1.333    0.000    0.000    0.000    0.000 
#    0.000    0.000    0.000    0.000    0.000    0.000 
#
# Total GULP energy -167092.621535 kJ/mol
# GULP energy per Si atom -5569.754051 kJ/mol
# Density = 2.523158 g / cm^3
# Si number density = 25.289139 Si / 1000 Ang^3
#
#
#
# Elastic Constant Matrix: (Units=GPa)
#
#
# Indices 1 2 3 4 5 6 
#
# 1 192.8215 66.0759 46.9425 0.0000 0.0000 0.0000
# 2 66.0759 192.8215 46.9425 0.0000 0.0000 0.0000
# 3 46.9425 46.9425 138.1750 0.0000 0.0000 0.0000
# 4 0.0000 0.0000 0.0000 31.2821 0.0000 0.0000
# 5 0.0000 0.0000 0.0000 0.0000 31.2821 0.0000
# 6 0.0000 0.0000 0.0000 0.0000 0.0000 49.0129
#
#
#
# Elastic Compliance Matrix: (Units=1/GPa)
#
#
# Indices 1 2 3 4 5 6 
#
# 1 0.006148 -0.001742 -0.001497 0.000000 0.000000 0.000000
# 2 -0.001742 0.006148 -0.001497 0.000000 0.000000 0.000000
# 3 -0.001497 -0.001497 0.008254 0.000000 0.000000 0.000000
# 4 0.000000 0.000000 0.000000 0.031967 0.000000 0.000000
# 5 0.000000 0.000000 0.000000 0.000000 0.031967 0.000000
# 6 0.000000 0.000000 0.000000 0.000000 0.000000 0.020403
#
#
# Mechanical properties :
#
#
# Convention : Reuss Voigt Hill
#
# Bulk Modulus (GPa) = 90.26759 93.74885 92.00822
# Shear Modulus (GPa) = 42.35490 46.57254 44.46372
#
# Velocity S-wave (km/s) = 4.09690 4.29604 4.19766
# Velocity P-wave (km/s) = 7.62569 7.85871 7.74308
#
# Compressibility (1/GPa) = 0.01107817
#
# Stress axis : x y z
#
# Youngs Moduli (GPa) = 162.66675 162.66675 121.15201
#
# Poissons Ratio (x) = 0.28341 0.18132
# Poissons Ratio (y) = 0.28341 0.18132
# Poissons Ratio (z) = 0.24345 0.24345
#
# Static dielectric constant tensor:
#      x y z
#    x 1.989520 0.000000 0.000000 
#    y 0.000000 1.989520 0.000000 
#    z 0.000000 0.000000 2.133300 
# 
# From -- ./inp_files/1115.got.cif
#   From: 2010.05.17/outbox.cif.g08.bks.cpg/sg120_1_cif.got.tgz:1115.got - 2010.05.20 11:28:13.
