data_PCOD9559757
_publ_section_title
;
Structure prediction by ZEFSAII (Michael W. Deem and Ramdas Pophale) SiO2 
 PCOD9559757
Probable space group: I -4 C 2
;
_chemical_formula_sum "Si O2"
_cell_formula_units_Z 48
_cell_length_a 21.029845
_cell_length_b 21.029845
_cell_length_c 5.380922
_cell_angle_alpha 90.000000
_cell_angle_beta 90.000000
_cell_angle_gamma 90.000000
_cell_volume 2379.736327
_symmetry_space_group_name_H-M "I -4 C 2"
_symmetry_group_IT_number 120
_symmetry_cell_setting 'tetragonal'
loop_
_space_group_symop_operation_xyz
x,y,z
y,-x,-z
-x,-y,z
-y,x,-z
y,x,1/2-z
-y,-x,1/2-z
-x,y,1/2+z
x,-y,1/2+z
1/2+x,1/2+y,1/2+z
1/2+y,1/2-x,1/2-z
1/2-x,1/2-y,1/2+z
1/2-y,1/2+x,1/2-z
1/2+y,1/2+x,-z
1/2-y,1/2-x,-z
1/2-x,1/2+y,z
1/2+x,1/2-y,z
loop_
_atom_site_type_symbol
_atom_site_label
_atom_site_fract_x
_atom_site_fract_y
_atom_site_fract_z
Si Si1 0.225968 0.832202 0.998067
Si Si2 0.968933 0.877158 0.649291
Si Si3 0.763488 0.520783 0.926247
O O1 0.186404 0.813597 0.750000
O O2 0.244038 0.906256 0.972576
O O3 0.190263 0.809738 0.250000
O O4 0.290181 0.790181 0.000000
O O5 0.901853 0.901853 0.750000
O O6 0.986203 0.900440 0.374945
O O7 0.980320 0.802022 0.618289
O O8 0.797309 0.509689 0.663581
#
# Coordination Sequence:
#
# PCOD9559757 Si02
#       3
#    16  16  16
#     4  10  21  38  59  81 108 147 196 247 294 339
#     4  10  21  33  43  60  91 133 176 213 250 299
#     4  10  21  34  52  77 106 139 181 231 286 338
#
# _framework density 20.170304000000002
#
# number of rings (size 3 to 8) (size 9 to 14) (size 15 to 20)
#    0.000    2.000    0.000    3.000    0.000   18.000 
#    0.000    0.000    0.000    0.000    0.000    0.000 
#    0.000    4.000    0.000    0.000    0.000    0.000 
#
# Total GULP energy -133773.967541 kJ/mol
# GULP energy per Si atom -5573.915314 kJ/mol
# Density = 2.012440 g / cm^3
# Si number density = 20.170304 Si / 1000 Ang^3
#
#
#
# Elastic Constant Matrix: (Units=GPa)
#
#
# Indices 1 2 3 4 5 6 
#
# 1 76.2527 17.3653 22.6673 0.0000 0.0000 0.0000
# 2 17.3653 76.2524 22.6656 0.0000 0.0000 0.0000
# 3 22.6673 22.6656 209.3905 0.0000 0.0000 0.0000
# 4 0.0000 0.0000 0.0000 7.2020 0.0000 0.0000
# 5 0.0000 0.0000 0.0000 0.0000 7.1994 0.0000
# 6 0.0000 0.0000 0.0000 0.0000 0.0000 26.3000
#
#
#
# Elastic Compliance Matrix: (Units=1/GPa)
#
#
# Indices 1 2 3 4 5 6 
#
# 1 0.014127 -0.002854 -0.001220 0.000000 0.000000 0.000000
# 2 -0.002854 0.014127 -0.001220 0.000000 0.000000 0.000000
# 3 -0.001220 -0.001220 0.005040 0.000000 0.000000 0.000000
# 4 0.000000 0.000000 0.000000 0.138850 0.000000 0.000000
# 5 0.000000 0.000000 0.000000 0.000000 0.138900 0.000000
# 6 0.000000 0.000000 0.000000 0.000000 0.000000 0.038023
#
#
# Mechanical properties :
#
#
# Convention : Reuss Voigt Hill
#
# Bulk Modulus (GPa) = 44.04482 54.14356 49.09419
# Shear Modulus (GPa) = 13.61564 28.08679 20.85122
#
# Velocity S-wave (km/s) = 2.60096 3.73565 3.21870
# Velocity P-wave (km/s) = 5.55912 6.74598 6.18110
#
# Compressibility (1/GPa) = 0.02270415
#
# Stress axis : x y z
#
# Youngs Moduli (GPa) = 70.78587 70.78597 198.41466
#
# Poissons Ratio (x) = 0.20206 0.24213
# Poissons Ratio (y) = 0.20206 0.24210
# Poissons Ratio (z) = 0.08638 0.08637
#
# Static dielectric constant tensor:
#      x y z
#    x 1.729310 0.000000 0.000000 
#    y 0.000000 1.729310 0.000000 
#    z 0.000000 0.000000 1.775640 
# 
# From -- ./inp_files/299.got.cif
#   From: 2010.05.17/outbox.cif.g08.bks.cpg/sg120_1_cif.got.tgz:299.got - 2010.05.20 11:28:13.
