data_PCOD9559954
_publ_section_title
;
Structure prediction by ZEFSAII (Michael W. Deem and Ramdas Pophale) SiO2 
 PCOD9559954
Probable space group: I -4 C 2
;
_chemical_formula_sum "Si O2"
_cell_formula_units_Z 48
_cell_length_a 19.861561
_cell_length_b 19.861561
_cell_length_c 4.815037
_cell_angle_alpha 90.000000
_cell_angle_beta 90.000000
_cell_angle_gamma 90.000000
_cell_volume 1899.443526
_symmetry_space_group_name_H-M "I -4 C 2"
_symmetry_group_IT_number 120
_symmetry_cell_setting 'tetragonal'
loop_
_space_group_symop_operation_xyz
x,y,z
y,-x,-z
-x,-y,z
-y,x,-z
y,x,1/2-z
-y,-x,1/2-z
-x,y,1/2+z
x,-y,1/2+z
1/2+x,1/2+y,1/2+z
1/2+y,1/2-x,1/2-z
1/2-x,1/2-y,1/2+z
1/2-y,1/2+x,1/2-z
1/2+y,1/2+x,-z
1/2-y,1/2-x,-z
1/2-x,1/2+y,z
1/2+x,1/2-y,z
loop_
_atom_site_type_symbol
_atom_site_label
_atom_site_fract_x
_atom_site_fract_y
_atom_site_fract_z
Si Si1 0.221981 0.156392 0.479483
Si Si2 0.551518 0.158927 0.930039
Si Si3 0.364706 0.460869 0.870600
O O1 0.217458 0.217458 0.250000
O O2 0.332472 0.990312 0.352136
O O3 0.114701 0.288555 0.932314
O O4 0.188110 0.095944 0.300382
O O5 0.819485 0.180516 0.250000
O O6 0.587652 0.087652 0.000000
O O7 0.435080 0.435080 0.750000
O O8 0.355170 0.527716 0.694709
#
# Coordination Sequence:
#
# PCOD9559954 Si02
#       3
#    16  16  16
#     4  11  23  42  69 101 137 181 233 291 357 427
#     4  12  27  48  76 109 148 194 244 302 365 435
#     4  11  21  34  52  78 118 168 221 279 340 406
#
# _framework density 25.27056
#
# number of rings (size 3 to 8) (size 9 to 14) (size 15 to 20)
#    0.000    0.667    0.000   10.000    0.000    5.333 
#    0.000    0.000    0.000    0.000    0.000    0.000 
#    0.000    0.000    0.000    0.000    0.000    0.000 
#
# Total GULP energy -133718.500356 kJ/mol
# GULP energy per Si atom -5571.604182 kJ/mol
# Density = 2.521304 g / cm^3
# Si number density = 25.270560 Si / 1000 Ang^3
#
#
#
# Elastic Constant Matrix: (Units=GPa)
#
#
# Indices 1 2 3 4 5 6 
#
# 1 77.9224 70.4633 3.9788 0.0000 0.0000 0.0000
# 2 70.4633 77.9241 3.9786 0.0000 0.0000 0.0000
# 3 3.9788 3.9786 110.8402 0.0000 0.0000 0.0000
# 4 0.0000 0.0000 0.0000 -5.3398 0.0000 0.0000
# 5 0.0000 0.0000 0.0000 0.0000 -5.3403 0.0000
# 6 0.0000 0.0000 0.0000 0.0000 0.0000 66.0656
#
#
#
# Elastic Compliance Matrix: (Units=1/GPa)
#
#
# Indices 1 2 3 4 5 6 
#
# 1 0.070401 -0.063648 -0.000242 0.000000 0.000000 0.000000
# 2 -0.063648 0.070399 -0.000242 0.000000 0.000000 0.000000
# 3 -0.000242 -0.000242 0.009039 0.000000 0.000000 0.000000
# 4 0.000000 0.000000 0.000000 -0.187272 0.000000 0.000000
# 5 0.000000 0.000000 0.000000 0.000000 -0.187255 0.000000
# 6 0.000000 0.000000 0.000000 0.000000 0.000000 0.015136
#
#
# Mechanical properties :
#
#
# Convention : Reuss Voigt Hill
#
# Bulk Modulus (GPa) = 46.35163 47.05867 46.70515
# Shear Modulus (GPa) = -67.48175 23.62817 -21.92679
#
# Velocity S-wave (km/s) = -5.17317 3.06111 -2.94884
# Velocity P-wave (km/s) = 4.15936 5.58177 2.63210
#
# Compressibility (1/GPa) = 0.02157421
#
# Stress axis : x y z
#
# Youngs Moduli (GPa) = 14.20437 14.20468 110.62681
#
# Poissons Ratio (x) = 0.90410 0.02683
# Poissons Ratio (y) = 0.90408 0.02680
# Poissons Ratio (z) = 0.00344 0.00344
#
# Static dielectric constant tensor:
#      x y z
#    x 2.155210 0.000000 0.000000 
#    y 0.000000 2.155200 0.000000 
#    z 0.000000 0.000000 1.806810 
# 
# From -- ./inp_files/291.got.cif
#   From: 2010.05.17/outbox.cif.g08.bks.cpg/sg120_1_cif.got.tgz:291.got - 2010.05.20 11:28:13.
