data_PCOD9559917
_publ_section_title
;
Structure prediction by ZEFSAII (Michael W. Deem and Ramdas Pophale) SiO2 
 PCOD9559917
Probable space group: I -4 C 2
;
_chemical_formula_sum "Si O2"
_cell_formula_units_Z 60
_cell_length_a 18.595685
_cell_length_b 18.595685
_cell_length_c 8.326849
_cell_angle_alpha 90.000000
_cell_angle_beta 90.000000
_cell_angle_gamma 90.000000
_cell_volume 2879.420226
_symmetry_space_group_name_H-M "I -4 C 2"
_symmetry_group_IT_number 120
_symmetry_cell_setting 'tetragonal'
loop_
_space_group_symop_operation_xyz
x,y,z
y,-x,-z
-x,-y,z
-y,x,-z
y,x,1/2-z
-y,-x,1/2-z
-x,y,1/2+z
x,-y,1/2+z
1/2+x,1/2+y,1/2+z
1/2+y,1/2-x,1/2-z
1/2-x,1/2-y,1/2+z
1/2-y,1/2+x,1/2-z
1/2+y,1/2+x,-z
1/2-y,1/2-x,-z
1/2-x,1/2+y,z
1/2+x,1/2-y,z
loop_
_atom_site_type_symbol
_atom_site_label
_atom_site_fract_x
_atom_site_fract_y
_atom_site_fract_z
Si Si1 0.174523 0.284944 0.680762
Si Si2 0.500000 0.000000 0.750000
Si Si3 0.260136 0.956981 0.131610
Si Si4 0.082515 0.582515 0.500000
Si Si5 0.102798 0.778958 0.696458
O O1 0.218105 0.218105 0.750000
O O2 0.196291 0.303710 0.500000
O O3 0.092341 0.265501 0.709031
O O4 0.205174 0.350802 0.787289
O O5 0.527400 0.935501 0.642295
O O6 0.233232 0.034698 0.187284
O O7 0.339955 0.944327 0.060690
O O8 0.212352 0.923582 0.986973
O O9 0.156963 0.843038 0.750000
#
# Coordination Sequence:
#
# PCOD9559917 Si02
#       5
#    16   4  16   8  16
#     4  11  22  40  65  95 132 174 224 286 347 422
#     4  10  24  38  56  82 144 174 216 270 344 446
#     4  12  23  43  66  97 135 177 237 289 351 431
#     4  11  22  40  60  94 126 184 218 277 350 426
#     4  11  24  43  67 100 136 180 234 295 360 430
#
# _framework density 20.837527999999999
#
# number of rings (size 3 to 8) (size 9 to 14) (size 15 to 20)
#    0.000    0.800    2.667    6.400    0.000    0.000 
#    0.000    0.000    0.000    6.400    0.000    0.000 
#    0.000    0.000    0.000    0.000    0.000    0.000 
#
# Total GULP energy -167509.546559 kJ/mol
# GULP energy per Si atom -5583.651552 kJ/mol
# Density = 2.079010 g / cm^3
# Si number density = 20.837528 Si / 1000 Ang^3
#
#
#
# Elastic Constant Matrix: (Units=GPa)
#
#
# Indices 1 2 3 4 5 6 
#
# 1 80.9613 77.7864 34.4053 0.0000 0.0000 0.0000
# 2 77.7864 80.9687 34.4056 0.0000 0.0000 0.0000
# 3 34.4053 34.4056 102.7572 0.0000 0.0000 0.0000
# 4 0.0000 0.0000 0.0000 54.4626 0.0000 0.0000
# 5 0.0000 0.0000 0.0000 0.0000 54.5444 0.0000
# 6 0.0000 0.0000 0.0000 0.0000 0.0000 20.3526
#
#
#
# Elastic Compliance Matrix: (Units=1/GPa)
#
#
# Indices 1 2 3 4 5 6 
#
# 1 0.160995 -0.153618 -0.002469 0.000000 0.000000 0.000000
# 2 -0.153618 0.160978 -0.002465 0.000000 0.000000 0.000000
# 3 -0.002469 -0.002465 0.011384 0.000000 0.000000 0.000000
# 4 0.000000 0.000000 0.000000 0.018361 0.000000 0.000000
# 5 0.000000 0.000000 0.000000 0.000000 0.018334 0.000000
# 6 0.000000 0.000000 0.000000 0.000000 0.000000 0.049134
#
#
# Mechanical properties :
#
#
# Convention : Reuss Voigt Hill
#
# Bulk Modulus (GPa) = 61.52986 61.98684 61.75835
# Shear Modulus (GPa) = 6.74120 33.74457 20.24288
#
# Velocity S-wave (km/s) = 1.80060 4.02856 3.12021
# Velocity P-wave (km/s) = 5.82369 7.17296 6.53325
#
# Compressibility (1/GPa) = 0.01625227
#
# Stress axis : x y z
#
# Youngs Moduli (GPa) = 6.21138 6.21202 87.84410
#
# Poissons Ratio (x) = 0.95428 0.21692
# Poissons Ratio (y) = 0.95418 0.21653
# Poissons Ratio (z) = 0.01534 0.01531
#
# Static dielectric constant tensor:
#      x y z
#    x 1.611840 0.000000 0.000000 
#    y 0.000000 1.612180 0.000000 
#    z 0.000000 0.000000 1.827700 
# 
# From -- ./inp_files/1118.got.cif
#   From: 2010.05.17/outbox.cif.g08.bks.cpg/sg120_1_cif.got.tgz:1118.got - 2010.05.20 11:28:13.
