data_PCOD9559687
_publ_section_title
;
Structure prediction by ZEFSAII (Michael W. Deem and Ramdas Pophale) SiO2 
 PCOD9559687
Probable space group: I -4 C 2
;
_chemical_formula_sum "Si O2"
_cell_formula_units_Z 100
_cell_length_a 14.680287
_cell_length_b 14.680287
_cell_length_c 21.292046
_cell_angle_alpha 90.000000
_cell_angle_beta 90.000000
_cell_angle_gamma 90.000000
_cell_volume 4588.666429
_symmetry_space_group_name_H-M "I -4 C 2"
_symmetry_group_IT_number 120
_symmetry_cell_setting 'tetragonal'
loop_
_space_group_symop_operation_xyz
x,y,z
y,-x,-z
-x,-y,z
-y,x,-z
y,x,1/2-z
-y,-x,1/2-z
-x,y,1/2+z
x,-y,1/2+z
1/2+x,1/2+y,1/2+z
1/2+y,1/2-x,1/2-z
1/2-x,1/2-y,1/2+z
1/2-y,1/2+x,1/2-z
1/2+y,1/2+x,-z
1/2-y,1/2-x,-z
1/2-x,1/2+y,z
1/2+x,1/2-y,z
loop_
_atom_site_type_symbol
_atom_site_label
_atom_site_fract_x
_atom_site_fract_y
_atom_site_fract_z
Si Si1 0.144553 0.708725 0.065190
Si Si2 0.651229 0.761744 0.379835
Si Si3 0.205996 0.205996 0.750000
Si Si4 0.500000 0.000000 0.669546
Si Si5 0.195456 0.550268 0.166845
Si Si6 0.317844 0.048381 0.403863
Si Si7 0.500000 0.500000 0.250000
Si Si8 0.699063 0.504773 0.784971
O O1 0.170469 0.808381 0.090751
O O2 0.177158 0.631940 0.117030
O O3 0.036924 0.698575 0.051786
O O4 0.193086 0.693086 0.000000
O O5 0.704885 0.766861 0.312555
O O6 0.543312 0.769805 0.366655
O O7 0.681406 0.846936 0.422327
O O8 0.101602 0.221698 0.727657
O O9 0.403826 0.969040 0.699367
O O10 0.469520 0.083465 0.626333
O O11 0.265409 0.562058 0.224542
O O12 0.247224 0.035894 0.347420
O O13 0.503921 0.409036 0.209727
#
# Coordination Sequence:
#
# PCOD9559687 Si02
#       8
#    16  16   8   8  16  16   4  16
#     4  11  24  41  59  85 123 160 202 242 291 365
#     4  10  21  37  61  89 118 151 198 246 305 353
#     4   9  18  36  56  86 120 146 185 254 294 350
#     4   8  18  35  53  86 114 142 185 233 302 354
#     4   9  21  37  59  87 116 155 192 249 302 353
#     4  10  21  36  59  88 116 154 193 248 303 355
#     4  10  24  34  52  88 126 170 190 236 300 362
#     4  10  20  35  56  85 122 156 196 243 297 357
#
# _framework density 21.792822999999999
#
# number of rings (size 3 to 8) (size 9 to 14) (size 15 to 20)
#    0.000    2.240    1.600    0.000    4.480    5.760 
#    0.000   13.600    0.000    0.000    0.000    3.360 
#    0.000    0.000    0.000    0.000    0.000    0.000 
#
# Total GULP energy -278748.899273 kJ/mol
# GULP energy per Si atom -5574.977985 kJ/mol
# Density = 2.174322 g / cm^3
# Si number density = 21.792823 Si / 1000 Ang^3
#
#
#
# Elastic Constant Matrix: (Units=GPa)
#
#
# Indices 1 2 3 4 5 6 
#
# 1 66.8485 17.6754 5.3622 0.0000 0.0000 0.0000
# 2 17.6754 66.8485 5.3622 0.0000 0.0000 0.0000
# 3 5.3622 5.3622 47.2765 0.0000 0.0000 0.0000
# 4 0.0000 0.0000 0.0000 12.6519 0.0000 0.0000
# 5 0.0000 0.0000 0.0000 0.0000 12.6519 0.0000
# 6 0.0000 0.0000 0.0000 0.0000 0.0000 26.2970
#
#
#
# Elastic Compliance Matrix: (Units=1/GPa)
#
#
# Indices 1 2 3 4 5 6 
#
# 1 0.016170 -0.004166 -0.001361 0.000000 0.000000 0.000000
# 2 -0.004166 0.016170 -0.001361 0.000000 0.000000 0.000000
# 3 -0.001361 -0.001361 0.021461 0.000000 0.000000 0.000000
# 4 0.000000 0.000000 0.000000 0.079039 0.000000 0.000000
# 5 0.000000 0.000000 0.000000 0.000000 0.079039 0.000000
# 6 0.000000 0.000000 0.000000 0.000000 0.000000 0.038027
#
#
# Mechanical properties :
#
#
# Convention : Reuss Voigt Hill
#
# Bulk Modulus (GPa) = 24.98594 26.41923 25.70258
# Shear Modulus (GPa) = 18.04883 20.49175 19.27029
#
# Velocity S-wave (km/s) = 2.88097 3.06975 2.97686
# Velocity P-wave (km/s) = 4.74940 4.97129 4.86161
#
# Compressibility (1/GPa) = 0.04002250
#
# Stress axis : x y z
#
# Youngs Moduli (GPa) = 61.84287 61.84287 46.59614
#
# Poissons Ratio (x) = 0.25766 0.06344
# Poissons Ratio (y) = 0.25766 0.06344
# Poissons Ratio (z) = 0.08420 0.08420
#
# Static dielectric constant tensor:
#      x y z
#    x 1.844560 0.000000 0.000000 
#    y 0.000000 1.844560 0.000000 
#    z 0.000000 0.000000 1.865260 
# 
# From -- ./inp_files/5883.got.cif
#   From: 2010.05.17/outbox.cif.g08.bks.cpg/sg120_3_cif.got.tgz:5883.got - 2010.05.20 11:28:13.
