data_PCOD9559806
_publ_section_title
;
Structure prediction by ZEFSAII (Michael W. Deem and Ramdas Pophale) SiO2 
 PCOD9559806
Probable space group: I -4 C 2
;
_chemical_formula_sum "Si O2"
_cell_formula_units_Z 112
_cell_length_a 31.173783
_cell_length_b 31.173783
_cell_length_c 5.649402
_cell_angle_alpha 90.000000
_cell_angle_beta 90.000000
_cell_angle_gamma 90.000000
_cell_volume 5490.115679
_symmetry_space_group_name_H-M "I -4 C 2"
_symmetry_group_IT_number 120
_symmetry_cell_setting 'tetragonal'
loop_
_space_group_symop_operation_xyz
x,y,z
y,-x,-z
-x,-y,z
-y,x,-z
y,x,1/2-z
-y,-x,1/2-z
-x,y,1/2+z
x,-y,1/2+z
1/2+x,1/2+y,1/2+z
1/2+y,1/2-x,1/2-z
1/2-x,1/2-y,1/2+z
1/2-y,1/2+x,1/2-z
1/2+y,1/2+x,-z
1/2-y,1/2-x,-z
1/2-x,1/2+y,z
1/2+x,1/2-y,z
loop_
_atom_site_type_symbol
_atom_site_label
_atom_site_fract_x
_atom_site_fract_y
_atom_site_fract_z
Si Si1 0.695705 0.023830 0.452420
Si Si2 0.090796 0.164279 0.756176
Si Si3 0.407409 0.023345 0.963672
Si Si4 0.594908 0.476204 0.810535
Si Si5 0.741489 0.806380 0.677923
Si Si6 0.363090 0.700491 0.127178
Si Si7 0.112638 0.255135 0.517684
O O1 0.644071 0.027453 0.459481
O O2 0.716076 0.071281 0.444887
O O3 0.707747 0.000693 0.704637
O O4 0.129369 0.129369 0.750000
O O5 0.047259 0.140805 0.697894
O O6 0.101224 0.206570 0.606348
O O7 0.093502 0.181206 0.022974
O O8 0.418909 0.003865 0.703153
O O9 0.432091 0.067910 0.000000
O O10 0.559526 0.440474 0.750000
O O11 0.590276 0.507191 0.580763
O O12 0.759462 0.759462 0.750000
O O13 0.703211 0.796790 0.500000
O O14 0.782889 0.827745 0.556366
O O15 0.729548 0.842724 0.866688
O O16 0.337932 0.662069 0.250000
O O17 0.375765 0.744684 0.250272
#
# Coordination Sequence:
#
# PCOD9559806 Si02
#       7
#    16  16  16  16  16  16  16
#     4  10  25  46  65  91 134 176 213 265 327 388
#     4  10  22  38  61  90 121 156 207 272 327 373
#     4  10  21  41  67  99 132 164 203 255 313 370
#     4  11  26  44  66  95 126 163 206 260 329 407
#     4  11  23  38  57  94 133 174 219 277 335 385
#     4  11  19  37  62  86 124 167 214 270 334 378
#     4  11  23  40  64  90 123 175 224 266 324 396
#
# _framework density 20.400297999999999
#
# number of rings (size 3 to 8) (size 9 to 14) (size 15 to 20)
#    0.000    1.429    2.857    2.143    6.000    2.857 
#    2.571    0.000    0.000    0.000    0.000    0.000 
#    0.000    0.000    0.000    0.000    0.000    0.000 
#
# Total GULP energy -311793.556334 kJ/mol
# GULP energy per Si atom -5567.742077 kJ/mol
# Density = 2.035387 g / cm^3
# Si number density = 20.400298 Si / 1000 Ang^3
#
#
#
# Elastic Constant Matrix: (Units=GPa)
#
#
# Indices 1 2 3 4 5 6 
#
# 1 49.1109 27.2506 20.7280 0.0000 0.0000 0.0000
# 2 27.2506 49.0904 20.7257 0.0000 0.0000 0.0000
# 3 20.7280 20.7257 86.7339 0.0000 0.0000 0.0000
# 4 0.0000 0.0000 0.0000 28.0591 0.0000 0.0000
# 5 0.0000 0.0000 0.0000 0.0000 28.0590 0.0000
# 6 0.0000 0.0000 0.0000 0.0000 0.0000 37.9617
#
#
#
# Elastic Compliance Matrix: (Units=1/GPa)
#
#
# Indices 1 2 3 4 5 6 
#
# 1 0.030402 -0.015358 -0.003596 0.000000 0.000000 0.000000
# 2 -0.015358 0.030415 -0.003597 0.000000 0.000000 0.000000
# 3 -0.003596 -0.003597 0.013248 0.000000 0.000000 0.000000
# 4 0.000000 0.000000 0.000000 0.035639 0.000000 0.000000
# 5 0.000000 0.000000 0.000000 0.000000 0.035639 0.000000
# 6 0.000000 0.000000 0.000000 0.000000 0.000000 0.026342
#
#
# Mechanical properties :
#
#
# Convention : Reuss Voigt Hill
#
# Bulk Modulus (GPa) = 34.52746 35.81597 35.17171
# Shear Modulus (GPa) = 22.08069 26.56468 24.32269
#
# Velocity S-wave (km/s) = 3.29351 3.61248 3.45667
# Velocity P-wave (km/s) = 5.60577 5.91563 5.76278
#
# Compressibility (1/GPa) = 0.02896246
#
# Stress axis : x y z
#
# Youngs Moduli (GPa) = 32.89300 32.87862 75.48055
#
# Poissons Ratio (x) = 0.50496 0.27139
# Poissons Ratio (y) = 0.50518 0.27154
# Poissons Ratio (z) = 0.11827 0.11828
#
# Static dielectric constant tensor:
#      x y z
#    x 1.706530 0.000000 0.000000 
#    y 0.000000 1.706540 0.000000 
#    z 0.000000 0.000000 2.012890 
# 
# From -- ./inp_files/535.got.cif
#   From: 2010.05.17/outbox.cif.g08.bks.cpg/sg120_1_cif.got.tgz:535.got - 2010.05.20 11:28:13.
