data_PCOD9559208
_publ_section_title
;
Structure prediction by ZEFSAII (Michael W. Deem and Ramdas Pophale) SiO2 
 PCOD9559208
Probable space group: I -4 M 2
;
_chemical_formula_sum "Si O2"
_cell_formula_units_Z 128
_cell_length_a 23.359444
_cell_length_b 23.359444
_cell_length_c 12.651252
_cell_angle_alpha 90.000000
_cell_angle_beta 90.000000
_cell_angle_gamma 90.000000
_cell_volume 6903.328014
_symmetry_space_group_name_H-M "I -4 M 2"
_symmetry_group_IT_number 119
_symmetry_cell_setting 'tetragonal'
loop_
_space_group_symop_operation_xyz
x,y,z
y,-x,-z
-x,-y,z
-y,x,-z
y,x,-z
-y,-x,-z
-x,y,z
x,-y,z
1/2+x,1/2+y,1/2+z
1/2+y,1/2-x,1/2-z
1/2-x,1/2-y,1/2+z
1/2-y,1/2+x,1/2-z
1/2+y,1/2+x,1/2-z
1/2-y,1/2-x,1/2-z
1/2-x,1/2+y,1/2+z
1/2+x,1/2-y,1/2+z
loop_
_atom_site_type_symbol
_atom_site_label
_atom_site_fract_x
_atom_site_fract_y
_atom_site_fract_z
Si Si1 0.632521 0.193175 0.827535
Si Si2 0.066308 0.203029 0.209720
Si Si3 0.285366 0.065081 0.471730
Si Si4 0.391854 0.341639 0.270125
Si Si5 0.937665 0.848445 0.543453
Si Si6 0.773417 0.312965 0.489428
Si Si7 0.157878 0.732177 0.675129
Si Si8 0.265427 0.565525 0.537803
O O1 0.639417 0.139417 0.750000
O O2 0.602635 0.246782 0.768525
O O3 0.697567 0.197110 0.875321
O O4 0.596503 0.182797 0.933476
O O5 0.099864 0.143371 0.221277
O O6 0.000000 0.202550 0.247315
O O7 0.065242 0.214071 0.083830
O O8 0.216948 0.069392 0.494401
O O9 0.290397 0.095869 0.359291
O O10 0.301823 0.000000 0.466420
O O11 0.434263 0.347011 0.170746
O O12 0.347335 0.293263 0.229064
O O13 0.419839 0.314846 0.375720
O O14 0.887362 0.887362 0.500000
O O15 0.000000 0.869354 0.509089
O O16 0.707893 0.292108 0.500000
O O17 0.807501 0.270105 0.566269
O O18 0.776195 0.378213 0.533033
O O19 0.189401 0.689401 0.750000
O O20 0.244462 0.500000 0.560118
#
# Coordination Sequence:
#
# PCOD9559208 Si02
#       8
#    16  16  16  16  16  16  16  16
#     4  11  21  33  54  82 114 148 182 230 285 345
#     4  11  23  37  55  83 116 155 199 240 287 349
#     4   9  20  37  54  76 115 153 180 219 276 344
#     4  11  21  37  59  79 112 154 189 237 295 349
#     4  10  21  37  55  77 104 142 190 237 288 338
#     4  11  21  35  54  81 116 150 185 234 297 359
#     4  10  20  33  55  88 113 143 188 226 289 358
#     4  11  23  36  52  78 114 155 200 241 287 343
#
# _framework density 18.541781
#
# number of rings (size 3 to 8) (size 9 to 14) (size 15 to 20)
#    0.000    1.500    2.500    3.375    0.000    6.625 
#    0.000    0.000    0.000    1.125    0.000    5.250 
#    0.000   40.750    0.000    0.000    0.000    0.000 
#
# Total GULP energy -356649.645970 kJ/mol
# GULP energy per Si atom -5572.650718 kJ/mol
# Density = 1.849958 g / cm^3
# Si number density = 18.541781 Si / 1000 Ang^3
#
#
#
# Elastic Constant Matrix: (Units=GPa)
#
#
# Indices 1 2 3 4 5 6 
#
# 1 69.7090 39.2515 17.2015 0.0000 0.0000 0.0000
# 2 39.2515 69.7071 17.2015 0.0000 0.0000 0.0000
# 3 17.2015 17.2015 75.5675 0.0000 0.0000 0.0000
# 4 0.0000 0.0000 0.0000 20.8815 0.0000 0.0000
# 5 0.0000 0.0000 0.0000 0.0000 20.8818 0.0000
# 6 0.0000 0.0000 0.0000 0.0000 0.0000 12.4039
#
#
#
# Elastic Compliance Matrix: (Units=1/GPa)
#
#
# Indices 1 2 3 4 5 6 
#
# 1 0.021361 -0.011473 -0.002251 0.000000 0.000000 0.000000
# 2 -0.011473 0.021361 -0.002251 0.000000 0.000000 0.000000
# 3 -0.002251 -0.002251 0.014258 0.000000 0.000000 0.000000
# 4 0.000000 0.000000 0.000000 0.047889 0.000000 0.000000
# 5 0.000000 0.000000 0.000000 0.000000 0.047889 0.000000
# 6 0.000000 0.000000 0.000000 0.000000 0.000000 0.080620
#
#
# Mechanical properties :
#
#
# Convention : Reuss Voigt Hill
#
# Bulk Modulus (GPa) = 39.95022 40.25474 40.10248
# Shear Modulus (GPa) = 18.27013 20.25536 19.26275
#
# Velocity S-wave (km/s) = 3.14243 3.30876 3.22667
# Velocity P-wave (km/s) = 5.89571 6.02948 5.96297
#
# Compressibility (1/GPa) = 0.02503115
#
# Stress axis : x y z
#
# Youngs Moduli (GPa) = 46.81491 46.81351 70.13626
#
# Poissons Ratio (x) = 0.53707 0.15787
# Poissons Ratio (y) = 0.53709 0.15788
# Poissons Ratio (z) = 0.10537 0.10538
#
# Static dielectric constant tensor:
#      x y z
#    x 1.675300 0.000000 0.000000 
#    y 0.000000 1.675300 0.000000 
#    z 0.000000 0.000000 1.709770 
# 
# From -- ./inp_files/4456.got.cif
#   From: 2010.05.17/outbox.cif.g08.bks.cpg/sg119_3_cif.got.tgz:4456.got - 2010.05.20 11:21:29.
