data_PCOD9559749
_publ_section_title
;
Structure prediction by ZEFSAII (Michael W. Deem and Ramdas Pophale) SiO2 
 PCOD9559749
Probable space group: I -4 C 2
;
_chemical_formula_sum "Si O2"
_cell_formula_units_Z 116
_cell_length_a 19.139614
_cell_length_b 19.139614
_cell_length_c 15.497225
_cell_angle_alpha 90.000000
_cell_angle_beta 90.000000
_cell_angle_gamma 90.000000
_cell_volume 5677.018222
_symmetry_space_group_name_H-M "I -4 C 2"
_symmetry_group_IT_number 120
_symmetry_cell_setting 'tetragonal'
loop_
_space_group_symop_operation_xyz
x,y,z
y,-x,-z
-x,-y,z
-y,x,-z
y,x,1/2-z
-y,-x,1/2-z
-x,y,1/2+z
x,-y,1/2+z
1/2+x,1/2+y,1/2+z
1/2+y,1/2-x,1/2-z
1/2-x,1/2-y,1/2+z
1/2-y,1/2+x,1/2-z
1/2+y,1/2+x,-z
1/2-y,1/2-x,-z
1/2-x,1/2+y,z
1/2+x,1/2-y,z
loop_
_atom_site_type_symbol
_atom_site_label
_atom_site_fract_x
_atom_site_fract_y
_atom_site_fract_z
Si Si1 0.000000 0.000000 0.250000
Si Si2 0.749990 0.990284 0.292907
Si Si3 0.899039 0.452099 0.239954
Si Si4 0.405500 0.563199 0.620419
Si Si5 0.684616 0.381908 0.166955
Si Si6 0.785701 0.858420 0.814002
Si Si7 0.164976 0.351869 0.594898
Si Si8 0.957595 0.141155 0.563536
O O1 0.929563 0.008055 0.193471
O O2 0.671676 0.961036 0.295146
O O3 0.792422 0.951667 0.217558
O O4 0.789423 0.978876 0.383868
O O5 0.754676 0.071873 0.271074
O O6 0.920432 0.531782 0.215252
O O7 0.876693 0.400927 0.162151
O O8 0.374799 0.635320 0.657351
O O9 0.357512 0.542839 0.539938
O O10 0.481858 0.585480 0.584393
O O11 0.667941 0.332060 0.250000
O O12 0.752954 0.364198 0.111236
O O13 0.617269 0.380013 0.104284
O O14 0.793437 0.793437 0.750000
O O15 0.730576 0.844445 0.887958
O O16 0.136303 0.363698 0.500000
#
# Coordination Sequence:
#
# PCOD9559749 Si02
#       8
#     4  16  16  16  16  16  16  16
#     4  12  24  38  56  84 126 176 244 252 330 376
#     4   9  20  37  64  95 127 170 215 268 325 394
#     4  10  20  41  73  98 126 166 215 267 336 412
#     4  11  23  36  57  87 124 175 213 277 308 375
#     4   9  19  37  63  91 123 174 220 265 319 392
#     4  11  22  38  60  90 125 167 214 259 320 386
#     4  11  22  39  65  97 130 164 211 269 338 399
#     4  10  21  37  58  90 127 166 221 266 322 370
#
# _framework density 20.433261000000002
#
# number of rings (size 3 to 8) (size 9 to 14) (size 15 to 20)
#    0.000    1.793    2.069    2.069    4.828    1.103 
#    0.000    2.759    0.000    0.000    0.000    0.000 
#    0.000    0.000    0.000    0.000    0.000    0.000 
#
# Total GULP energy -323447.219140 kJ/mol
# GULP energy per Si atom -5576.676192 kJ/mol
# Density = 2.038675 g / cm^3
# Si number density = 20.433261 Si / 1000 Ang^3
#
#
#
# Elastic Constant Matrix: (Units=GPa)
#
#
# Indices 1 2 3 4 5 6 
#
# 1 91.0665 19.2107 35.4872 0.0000 0.0000 0.0000
# 2 19.2107 91.0658 35.4864 0.0000 0.0000 0.0000
# 3 35.4872 35.4864 100.5635 0.0000 0.0000 0.0000
# 4 0.0000 0.0000 0.0000 15.2430 0.0000 0.0000
# 5 0.0000 0.0000 0.0000 0.0000 15.2430 0.0000
# 6 0.0000 0.0000 0.0000 0.0000 0.0000 24.0565
#
#
#
# Elastic Compliance Matrix: (Units=1/GPa)
#
#
# Indices 1 2 3 4 5 6 
#
# 1 0.012825 -0.001092 -0.004140 0.000000 0.000000 0.000000
# 2 -0.001092 0.012825 -0.004140 0.000000 0.000000 0.000000
# 3 -0.004140 -0.004140 0.012866 0.000000 0.000000 0.000000
# 4 0.000000 0.000000 0.000000 0.065604 0.000000 0.000000
# 5 0.000000 0.000000 0.000000 0.000000 0.065604 0.000000
# 6 0.000000 0.000000 0.000000 0.000000 0.000000 0.041569
#
#
# Mechanical properties :
#
#
# Convention : Reuss Voigt Hill
#
# Bulk Modulus (GPa) = 50.58047 51.45158 51.01602
# Shear Modulus (GPa) = 21.13028 23.74260 22.43644
#
# Velocity S-wave (km/s) = 3.21925 3.41245 3.31726
# Velocity P-wave (km/s) = 6.21497 6.38446 6.30029
#
# Compressibility (1/GPa) = 0.01977048
#
# Stress axis : x y z
#
# Youngs Moduli (GPa) = 77.97411 77.97400 77.72436
#
# Poissons Ratio (x) = 0.08515 0.32180
# Poissons Ratio (y) = 0.08515 0.32179
# Poissons Ratio (z) = 0.32284 0.32283
#
# Static dielectric constant tensor:
#      x y z
#    x 1.769340 0.000000 0.000000 
#    y 0.000000 1.769340 0.000000 
#    z 0.000000 0.000000 1.764240 
# 
# From -- ./inp_files/4590.got.cif
#   From: 2010.05.17/outbox.cif.g08.bks.cpg/sg120_3_cif.got.tgz:4590.got - 2010.05.20 11:28:13.
