data_PCOD9559988
_publ_section_title
;
Structure prediction by ZEFSAII (Michael W. Deem and Ramdas Pophale) SiO2 
 PCOD9559988
Probable space group: I -4 C 2
;
_chemical_formula_sum "Si O2"
_cell_formula_units_Z 52
_cell_length_a 12.318605
_cell_length_b 12.318605
_cell_length_c 15.158527
_cell_angle_alpha 90.000000
_cell_angle_beta 90.000000
_cell_angle_gamma 90.000000
_cell_volume 2300.276597
_symmetry_space_group_name_H-M "I -4 C 2"
_symmetry_group_IT_number 120
_symmetry_cell_setting 'tetragonal'
loop_
_space_group_symop_operation_xyz
x,y,z
y,-x,-z
-x,-y,z
-y,x,-z
y,x,1/2-z
-y,-x,1/2-z
-x,y,1/2+z
x,-y,1/2+z
1/2+x,1/2+y,1/2+z
1/2+y,1/2-x,1/2-z
1/2-x,1/2-y,1/2+z
1/2-y,1/2+x,1/2-z
1/2+y,1/2+x,-z
1/2-y,1/2-x,-z
1/2-x,1/2+y,z
1/2+x,1/2-y,z
loop_
_atom_site_type_symbol
_atom_site_label
_atom_site_fract_x
_atom_site_fract_y
_atom_site_fract_z
Si Si1 0.000000 0.500000 0.000000
Si Si2 0.507140 0.176311 0.265668
Si Si3 0.728767 0.621585 0.560591
Si Si4 0.025168 0.260705 0.086281
O O1 0.990054 0.612119 0.056409
O O2 0.401904 0.101008 0.274523
O O3 0.555496 0.225007 0.355246
O O4 0.479221 0.255245 0.184569
O O5 0.814714 0.685287 0.500000
O O6 0.645851 0.713850 0.589750
O O7 0.690843 0.532869 0.489673
#
# Coordination Sequence:
#
# PCOD9559988 Si02
#       4
#     4  16  16  16
#     4  12  20  40  74  96 130 176 232 290 324 416
#     4  11  22  41  71 104 138 178 235 292 344 416
#     4  12  25  43  69  99 139 188 229 287 354 415
#     4  12  24  44  68 102 138 180 234 284 353 419
#
# _framework density 22.605976999999999
#
# number of rings (size 3 to 8) (size 9 to 14) (size 15 to 20)
#    0.000    0.308    6.154    4.615    0.000    0.615 
#    0.000    1.538    0.000    3.692    0.000    0.000 
#    0.000    0.000    0.000    0.000    0.000    0.000 
#
# Total GULP energy -144921.099267 kJ/mol
# GULP energy per Si atom -5573.888433 kJ/mol
# Density = 2.255452 g / cm^3
# Si number density = 22.605977 Si / 1000 Ang^3
#
#
#
# Elastic Constant Matrix: (Units=GPa)
#
#
# Indices 1 2 3 4 5 6 
#
# 1 38.8404 20.5766 24.4283 0.0000 0.0000 0.0000
# 2 20.5766 38.8401 24.4282 0.0000 0.0000 0.0000
# 3 24.4283 24.4282 174.0013 0.0000 0.0000 0.0000
# 4 0.0000 0.0000 0.0000 21.1425 0.0000 0.0000
# 5 0.0000 0.0000 0.0000 0.0000 21.1426 0.0000
# 6 0.0000 0.0000 0.0000 0.0000 0.0000 44.7981
#
#
#
# Elastic Compliance Matrix: (Units=1/GPa)
#
#
# Indices 1 2 3 4 5 6 
#
# 1 0.036890 -0.017864 -0.002671 0.000000 0.000000 0.000000
# 2 -0.017864 0.036890 -0.002671 0.000000 0.000000 0.000000
# 3 -0.002671 -0.002671 0.006497 0.000000 0.000000 0.000000
# 4 0.000000 0.000000 0.000000 0.047298 0.000000 0.000000
# 5 0.000000 0.000000 0.000000 0.000000 0.047298 0.000000
# 6 0.000000 0.000000 0.000000 0.000000 0.000000 0.022322
#
#
# Mechanical properties :
#
#
# Convention : Reuss Voigt Hill
#
# Bulk Modulus (GPa) = 29.52838 43.39422 36.46130
# Shear Modulus (GPa) = 19.61583 29.56655 24.59119
#
# Velocity S-wave (km/s) = 2.94892 3.62043 3.30179
# Velocity P-wave (km/s) = 4.96844 6.05923 5.54074
#
# Compressibility (1/GPa) = 0.03386573
#
# Stress axis : x y z
#
# Youngs Moduli (GPa) = 27.10757 27.10735 153.91470
#
# Poissons Ratio (x) = 0.48423 0.41113
# Poissons Ratio (y) = 0.48424 0.41114
# Poissons Ratio (z) = 0.07241 0.07241
#
# Static dielectric constant tensor:
#      x y z
#    x 1.984250 0.000000 0.000000 
#    y 0.000000 1.984250 0.000000 
#    z 0.000000 0.000000 1.919290 
# 
# From -- ./inp_files/3237.got.cif
#   From: 2010.05.17/outbox.cif.g08.bks.cpg/sg120_2_cif.got.tgz:3237.got - 2010.05.20 11:28:13.
