data_PCOD9559606
_publ_section_title
;
Structure prediction by ZEFSAII (Michael W. Deem and Ramdas Pophale) SiO2 
 PCOD9559606
Probable space group: I -4 C 2
;
_chemical_formula_sum "Si O2"
_cell_formula_units_Z 80
_cell_length_a 30.190633
_cell_length_b 30.190633
_cell_length_c 5.402186
_cell_angle_alpha 90.000000
_cell_angle_beta 90.000000
_cell_angle_gamma 90.000000
_cell_volume 4923.953816
_symmetry_space_group_name_H-M "I -4 C 2"
_symmetry_group_IT_number 120
_symmetry_cell_setting 'tetragonal'
loop_
_space_group_symop_operation_xyz
x,y,z
y,-x,-z
-x,-y,z
-y,x,-z
y,x,1/2-z
-y,-x,1/2-z
-x,y,1/2+z
x,-y,1/2+z
1/2+x,1/2+y,1/2+z
1/2+y,1/2-x,1/2-z
1/2-x,1/2-y,1/2+z
1/2-y,1/2+x,1/2-z
1/2+y,1/2+x,-z
1/2-y,1/2-x,-z
1/2-x,1/2+y,z
1/2+x,1/2-y,z
loop_
_atom_site_type_symbol
_atom_site_label
_atom_site_fract_x
_atom_site_fract_y
_atom_site_fract_z
Si Si1 0.354130 0.337091 0.499810
Si Si2 0.676584 0.246419 0.500356
Si Si3 0.761433 0.624316 0.999342
Si Si4 0.975121 0.405466 0.539381
Si Si5 0.700950 0.025831 0.972419
O O1 0.362673 0.362673 0.250000
O O2 0.300358 0.325577 0.499372
O O3 0.380436 0.291651 0.499746
O O4 0.362579 0.362579 0.750000
O O5 0.725763 0.225763 0.500000
O O6 0.652101 0.229745 0.251454
O O7 0.651294 0.229579 0.746999
O O8 0.783036 0.576307 0.990689
O O9 0.927819 0.427819 0.500000
O O10 0.972898 0.352479 0.532757
O O11 0.005073 0.419250 0.304534
O O12 0.714935 0.001856 0.716558
#
# Coordination Sequence:
#
# PCOD9559606 Si02
#       5
#    16  16  16  16  16
#     4   8  16  27  41  61  88 115 141 170 200 236
#     4  10  19  29  43  67  96 119 141 172 208 250
#     4  10  19  31  46  63  83 116 149 169 207 255
#     4  10  21  35  50  66  81  96 119 159 212 269
#     4  10  21  37  51  64  85 109 138 180 221 254
#
# _framework density 16.247107
#
# number of rings (size 3 to 8) (size 9 to 14) (size 15 to 20)
#    0.000    2.400    0.000    2.400    0.000   10.000 
#    0.000    0.000    0.000    0.000    0.000    0.000 
#    0.000    0.000    0.000    0.000    0.000    0.000 
#
# Total GULP energy -222856.441855 kJ/mol
# GULP energy per Si atom -5571.411046 kJ/mol
# Density = 1.621013 g / cm^3
# Si number density = 16.247107 Si / 1000 Ang^3
#
#
#
# Elastic Constant Matrix: (Units=GPa)
#
#
# Indices 1 2 3 4 5 6 
#
# 1 18.1604 18.2301 9.7594 0.0000 0.0000 0.0000
# 2 18.2301 18.1604 9.7594 0.0000 0.0000 0.0000
# 3 9.7594 9.7594 143.2759 0.0000 0.0000 0.0000
# 4 0.0000 0.0000 0.0000 15.0769 0.0000 0.0000
# 5 0.0000 0.0000 0.0000 0.0000 15.0769 0.0000
# 6 0.0000 0.0000 0.0000 0.0000 0.0000 29.7063
#
#
#
# Elastic Compliance Matrix: (Units=1/GPa)
#
#
# Indices 1 2 3 4 5 6 
#
# 1 -7.160846 7.189368 -0.001943 0.000000 0.000000 0.000000
# 2 7.189368 -7.160846 -0.001943 0.000000 0.000000 0.000000
# 3 -0.001943 -0.001943 0.007244 0.000000 0.000000 0.000000
# 4 0.000000 0.000000 0.000000 0.066326 0.000000 0.000000
# 5 0.000000 0.000000 0.000000 0.000000 0.066326 0.000000
# 6 0.000000 0.000000 0.000000 0.000000 0.000000 0.033663
#
#
# Mechanical properties :
#
#
# Convention : Reuss Voigt Hill
#
# Bulk Modulus (GPa) = 17.69393 28.34383 23.01888
# Shear Modulus (GPa) = -0.17544 21.42856 10.62656
#
# Velocity S-wave (km/s) = -0.32896 3.63563 2.56023
# Velocity P-wave (km/s) = 3.28175 5.92512 4.78941
#
# Compressibility (1/GPa) = 0.05651654
#
# Stress axis : x y z
#
# Youngs Moduli (GPa) = -0.13965 -0.13965 138.04132
#
# Poissons Ratio (x) = 1.00398 0.26818
# Poissons Ratio (y) = 1.00398 0.26818
# Poissons Ratio (z) = -0.00027 -0.00027
#
# Static dielectric constant tensor:
#      x y z
#    x 1.516520 0.000000 0.000000 
#    y 0.000000 1.516520 0.000000 
#    z 0.000000 0.000000 1.641640 
# 
# From -- ./inp_files/433.got.cif
#   From: 2010.05.17/outbox.cif.g08.bks.cpg/sg120_1_cif.got.tgz:433.got - 2010.05.20 11:28:13.
