data_PCOD9559085
_publ_section_title
;
Structure prediction by ZEFSAII (Michael W. Deem and Ramdas Pophale) SiO2 
 PCOD9559085
Probable space group: I -4 M 2
;
_chemical_formula_sum "Si O2"
_cell_formula_units_Z 96
_cell_length_a 19.318479
_cell_length_b 19.318479
_cell_length_c 13.984360
_cell_angle_alpha 90.000000
_cell_angle_beta 90.000000
_cell_angle_gamma 90.000000
_cell_volume 5219.013927
_symmetry_space_group_name_H-M "I -4 M 2"
_symmetry_group_IT_number 119
_symmetry_cell_setting 'tetragonal'
loop_
_space_group_symop_operation_xyz
x,y,z
y,-x,-z
-x,-y,z
-y,x,-z
y,x,-z
-y,-x,-z
-x,y,z
x,-y,z
1/2+x,1/2+y,1/2+z
1/2+y,1/2-x,1/2-z
1/2-x,1/2-y,1/2+z
1/2-y,1/2+x,1/2-z
1/2+y,1/2+x,1/2-z
1/2-y,1/2-x,1/2-z
1/2-x,1/2+y,1/2+z
1/2+x,1/2-y,1/2+z
loop_
_atom_site_type_symbol
_atom_site_label
_atom_site_fract_x
_atom_site_fract_y
_atom_site_fract_z
Si Si1 0.849818 0.716442 0.067561
Si Si2 0.219876 0.079121 0.755005
Si Si3 0.688902 0.686138 0.896407
Si Si4 0.826045 0.579998 0.612409
Si Si5 0.695929 0.077706 0.337905
Si Si6 0.872392 0.426983 0.157881
O O1 0.885694 0.768485 0.141830
O O2 0.767444 0.711337 0.089789
O O3 0.723496 0.875962 0.041126
O O4 0.879259 0.640185 0.093749
O O5 0.179938 0.131329 0.685380
O O6 0.295689 0.076100 0.704528
O O7 0.194637 0.000000 0.761624
O O8 0.752706 0.637057 0.873008
O O9 0.662746 0.662746 0.000000
O O10 0.831311 0.500000 0.580821
O O11 0.898504 0.621141 0.622999
O O12 0.801251 0.579591 0.722637
O O13 0.713055 0.000000 0.369972
O O14 0.881490 0.500000 0.107563
O O15 0.920855 0.420855 0.250000
#
# Coordination Sequence:
#
# PCOD9559085 Si02
#       6
#    16  16  16  16  16  16
#     4  10  19  31  54  83 111 144 187 243 295 354
#     4   9  19  33  52  80 114 144 179 238 304 359
#     4  11  21  35  58  86 112 153 199 247 300 353
#     4  10  21  37  57  80 115 158 200 242 293 351
#     4  10  23  40  57  80 117 158 204 251 292 348
#     4   8  15  27  40  63 100 138 174 215 269 329
#
# _framework density 18.394279000000001
#
# number of rings (size 3 to 8) (size 9 to 14) (size 15 to 20)
#    0.000    2.333    1.667    2.000    4.667    2.500 
#    0.000    1.667    0.000    0.500    0.000    1.167 
#    0.000    0.000    0.000    4.167    0.000    0.000 
#
# Total GULP energy -267394.523827 kJ/mol
# GULP energy per Si atom -5570.719246 kJ/mol
# Density = 1.835241 g / cm^3
# Si number density = 18.394279 Si / 1000 Ang^3
#
#
#
# Elastic Constant Matrix: (Units=GPa)
#
#
# Indices 1 2 3 4 5 6 
#
# 1 75.2262 45.0759 26.8399 0.0000 0.0000 0.0000
# 2 45.0759 75.2262 26.8399 0.0000 0.0000 0.0000
# 3 26.8399 26.8399 86.4697 0.0000 0.0000 0.0000
# 4 0.0000 0.0000 0.0000 18.2283 0.0000 0.0000
# 5 0.0000 0.0000 0.0000 0.0000 18.2283 0.0000
# 6 0.0000 0.0000 0.0000 0.0000 0.0000 11.7201
#
#
#
# Elastic Compliance Matrix: (Units=1/GPa)
#
#
# Indices 1 2 3 4 5 6 
#
# 1 0.021408 -0.011759 -0.002995 0.000000 0.000000 0.000000
# 2 -0.011759 0.021408 -0.002995 0.000000 0.000000 0.000000
# 3 -0.002995 -0.002995 0.013424 0.000000 0.000000 0.000000
# 4 0.000000 0.000000 0.000000 0.054860 0.000000 0.000000
# 5 0.000000 0.000000 0.000000 0.000000 0.054860 0.000000
# 6 0.000000 0.000000 0.000000 0.000000 0.000000 0.085323
#
#
# Mechanical properties :
#
#
# Convention : Reuss Voigt Hill
#
# Bulk Modulus (GPa) = 48.21193 48.27038 48.24116
# Shear Modulus (GPa) = 17.02449 18.84645 17.93547
#
# Velocity S-wave (km/s) = 3.04556 3.20438 3.12598
# Velocity P-wave (km/s) = 6.21566 6.32375 6.26994
#
# Compressibility (1/GPa) = 0.02074175
#
# Stress axis : x y z
#
# Youngs Moduli (GPa) = 46.71167 46.71167 74.49354
#
# Poissons Ratio (x) = 0.54929 0.22310
# Poissons Ratio (y) = 0.54929 0.22310
# Poissons Ratio (z) = 0.13990 0.13990
#
# Static dielectric constant tensor:
#      x y z
#    x 1.647970 0.000000 0.000000 
#    y 0.000000 1.647970 0.000000 
#    z 0.000000 0.000000 1.697300 
# 
# From -- ./inp_files/6640.got.cif
#   From: 2010.05.17/outbox.cif.g08.bks.cpg/sg119_4_cif.got.tgz:6640.got - 2010.05.20 11:21:29.
