data_PCOD9559746
_publ_section_title
;
Structure prediction by ZEFSAII (Michael W. Deem and Ramdas Pophale) SiO2 
 PCOD9559746
Probable space group: I -4 C 2
;
_chemical_formula_sum "Si O2"
_cell_formula_units_Z 60
_cell_length_a 17.652167
_cell_length_b 17.652167
_cell_length_c 9.436546
_cell_angle_alpha 90.000000
_cell_angle_beta 90.000000
_cell_angle_gamma 90.000000
_cell_volume 2940.418295
_symmetry_space_group_name_H-M "I -4 C 2"
_symmetry_group_IT_number 120
_symmetry_cell_setting 'tetragonal'
loop_
_space_group_symop_operation_xyz
x,y,z
y,-x,-z
-x,-y,z
-y,x,-z
y,x,1/2-z
-y,-x,1/2-z
-x,y,1/2+z
x,-y,1/2+z
1/2+x,1/2+y,1/2+z
1/2+y,1/2-x,1/2-z
1/2-x,1/2-y,1/2+z
1/2-y,1/2+x,1/2-z
1/2+y,1/2+x,-z
1/2-y,1/2-x,-z
1/2-x,1/2+y,z
1/2+x,1/2-y,z
loop_
_atom_site_type_symbol
_atom_site_label
_atom_site_fract_x
_atom_site_fract_y
_atom_site_fract_z
Si Si1 0.500000 0.500000 0.500000
Si Si2 0.545775 0.257444 0.089818
Si Si3 0.471795 0.118376 0.255362
Si Si4 0.647878 0.147878 0.000000
Si Si5 0.973708 0.140470 0.317936
O O1 0.571586 0.511590 0.599089
O O2 0.494123 0.186434 0.148279
O O3 0.630877 0.223581 0.086966
O O4 0.525208 0.323855 0.197147
O O5 0.535430 0.294509 0.935715
O O6 0.549827 0.078900 0.307883
O O7 0.421407 0.143265 0.389031
O O8 0.896963 0.103038 0.250000
#
# Coordination Sequence:
#
# PCOD9559746 Si02
#       5
#     4  16  16   8  16
#     4  12  26  44  78 100 126 168 250 308 370 412
#     4  11  23  41  67 103 145 182 232 292 370 424
#     4   9  19  35  62 102 144 192 235 282 337 426
#     4  10  20  41  66 102 154 188 232 287 360 438
#     4  12  25  43  71 102 135 177 237 312 359 428
#
# _framework density 20.405259999999998
#
# number of rings (size 3 to 8) (size 9 to 14) (size 15 to 20)
#    0.000    1.333    5.333    0.400    0.000    8.533 
#    0.000    0.000    5.867    3.200    0.000    0.000 
#    0.000    0.000    0.000    0.000    0.000    0.000 
#
# Total GULP energy -167075.373913 kJ/mol
# GULP energy per Si atom -5569.179130 kJ/mol
# Density = 2.035882 g / cm^3
# Si number density = 20.405260 Si / 1000 Ang^3
#
#
#
# Elastic Constant Matrix: (Units=GPa)
#
#
# Indices 1 2 3 4 5 6 
#
# 1 113.5237 52.8598 54.5239 0.0000 0.0000 0.0000
# 2 52.8598 113.5207 54.5222 0.0000 0.0000 0.0000
# 3 54.5239 54.5222 130.0951 0.0000 0.0000 0.0000
# 4 0.0000 0.0000 0.0000 41.7846 0.0000 0.0000
# 5 0.0000 0.0000 0.0000 0.0000 41.7841 0.0000
# 6 0.0000 0.0000 0.0000 0.0000 0.0000 30.0184
#
#
#
# Elastic Compliance Matrix: (Units=1/GPa)
#
#
# Indices 1 2 3 4 5 6 
#
# 1 0.012385 -0.004099 -0.003473 0.000000 0.000000 0.000000
# 2 -0.004099 0.012386 -0.003473 0.000000 0.000000 0.000000
# 3 -0.003473 -0.003473 0.010598 0.000000 0.000000 0.000000
# 4 0.000000 0.000000 0.000000 0.023932 0.000000 0.000000
# 5 0.000000 0.000000 0.000000 0.000000 0.023933 0.000000
# 6 0.000000 0.000000 0.000000 0.000000 0.000000 0.033313
#
#
# Mechanical properties :
#
#
# Convention : Reuss Voigt Hill
#
# Bulk Modulus (GPa) = 75.30677 75.66125 75.48401
# Shear Modulus (GPa) = 34.94980 35.73298 35.34139
#
# Velocity S-wave (km/s) = 4.14307 4.18923 4.16621
# Velocity P-wave (km/s) = 7.73772 7.78199 7.75989
#
# Compressibility (1/GPa) = 0.01327902
#
# Stress axis : x y z
#
# Youngs Moduli (GPa) = 80.74020 80.73876 94.36087
#
# Poissons Ratio (x) = 0.33096 0.32770
# Poissons Ratio (y) = 0.33097 0.32769
# Poissons Ratio (z) = 0.28040 0.28039
#
# Static dielectric constant tensor:
#      x y z
#    x 1.770500 0.000000 0.000000 
#    y 0.000000 1.770500 0.000000 
#    z 0.000000 0.000000 1.791990 
# 
# From -- ./inp_files/1082.got.cif
#   From: 2010.05.17/outbox.cif.g08.bks.cpg/sg120_1_cif.got.tgz:1082.got - 2010.05.20 11:28:13.
