data_PCOD9559826
_publ_section_title
;
Structure prediction by ZEFSAII (Michael W. Deem and Ramdas Pophale) SiO2 
 PCOD9559826
Probable space group: I -4 C 2
;
_chemical_formula_sum "Si O2"
_cell_formula_units_Z 112
_cell_length_a 13.846418
_cell_length_b 13.846418
_cell_length_c 23.455370
_cell_angle_alpha 90.000000
_cell_angle_beta 90.000000
_cell_angle_gamma 90.000000
_cell_volume 4496.940738
_symmetry_space_group_name_H-M "I -4 C 2"
_symmetry_group_IT_number 120
_symmetry_cell_setting 'tetragonal'
loop_
_space_group_symop_operation_xyz
x,y,z
y,-x,-z
-x,-y,z
-y,x,-z
y,x,1/2-z
-y,-x,1/2-z
-x,y,1/2+z
x,-y,1/2+z
1/2+x,1/2+y,1/2+z
1/2+y,1/2-x,1/2-z
1/2-x,1/2-y,1/2+z
1/2-y,1/2+x,1/2-z
1/2+y,1/2+x,-z
1/2-y,1/2-x,-z
1/2-x,1/2+y,z
1/2+x,1/2-y,z
loop_
_atom_site_type_symbol
_atom_site_label
_atom_site_fract_x
_atom_site_fract_y
_atom_site_fract_z
Si Si1 0.722204 0.155624 0.170305
Si Si2 0.995324 0.816120 0.451529
Si Si3 0.356852 0.872070 0.061250
Si Si4 0.094500 0.376234 0.266728
Si Si5 0.921304 0.935558 0.656216
Si Si6 0.781470 0.990022 0.925603
Si Si7 0.840911 0.316627 0.889809
O O1 0.646217 0.098968 0.128404
O O2 0.665343 0.184324 0.226348
O O3 0.818664 0.093132 0.183415
O O4 0.760541 0.246689 0.133986
O O5 0.975186 0.842902 0.516704
O O6 0.910799 0.744585 0.430098
O O7 0.095670 0.753936 0.450803
O O8 0.005564 0.892264 0.401267
O O9 0.406517 0.768112 0.068839
O O10 0.404665 0.904665 0.000000
O O11 0.129277 0.486008 0.256076
O O12 0.105886 0.348155 0.331987
O O13 0.972140 0.839716 0.631978
O O14 0.000000 0.000000 0.687532
O O15 0.696694 0.910584 0.923358
#
# Coordination Sequence:
#
# PCOD9559826 Si02
#       7
#    16  16  16  16  16  16  16
#     4  10  22  41  63  91 129 160 213 264 317 400
#     4  10  22  37  60  93 129 166 214 259 314 396
#     4   9  19  37  58  89 127 164 204 261 314 378
#     4  11  23  42  68  91 118 157 210 274 330 384
#     4  10  23  38  59  92 128 170 214 256 313 395
#     4  10  22  37  60  91 127 170 207 260 323 384
#     4  11  23  39  62  90 124 165 204 263 324 388
#
# _framework density 24.905821
#
# number of rings (size 3 to 8) (size 9 to 14) (size 15 to 20)
#    0.000    1.857    0.000    3.429    4.000    5.143 
#    0.000    2.143    0.000    3.429    0.000    0.000 
#    0.000    0.000    0.000    0.000    0.000    0.000 
#
# Total GULP energy -312247.074407 kJ/mol
# GULP energy per Si atom -5575.840614 kJ/mol
# Density = 2.484913 g / cm^3
# Si number density = 24.905821 Si / 1000 Ang^3
#
#
#
# Elastic Constant Matrix: (Units=GPa)
#
#
# Indices 1 2 3 4 5 6 
#
# 1 78.6986 33.2866 16.2551 0.0000 0.0000 0.0000
# 2 33.2866 78.6986 16.2551 0.0000 0.0000 0.0000
# 3 16.2551 16.2551 96.8902 0.0000 0.0000 0.0000
# 4 0.0000 0.0000 0.0000 11.3500 0.0000 0.0000
# 5 0.0000 0.0000 0.0000 0.0000 11.3500 0.0000
# 6 0.0000 0.0000 0.0000 0.0000 0.0000 50.5891
#
#
#
# Elastic Compliance Matrix: (Units=1/GPa)
#
#
# Indices 1 2 3 4 5 6 
#
# 1 0.015704 -0.006317 -0.001575 0.000000 0.000000 0.000000
# 2 -0.006317 0.015704 -0.001575 0.000000 0.000000 0.000000
# 3 -0.001575 -0.001575 0.010849 0.000000 0.000000 0.000000
# 4 0.000000 0.000000 0.000000 0.088106 0.000000 0.000000
# 5 0.000000 0.000000 0.000000 0.000000 0.088106 0.000000
# 6 0.000000 0.000000 0.000000 0.000000 0.000000 0.019767
#
#
# Mechanical properties :
#
#
# Convention : Reuss Voigt Hill
#
# Bulk Modulus (GPa) = 42.87442 42.87566 42.87504
# Shear Modulus (GPa) = 18.87192 27.22383 23.04788
#
# Velocity S-wave (km/s) = 2.75568 3.30975 3.04534
# Velocity P-wave (km/s) = 5.23230 5.64433 5.44222
#
# Compressibility (1/GPa) = 0.02332393
#
# Stress axis : x y z
#
# Youngs Moduli (GPa) = 63.67887 63.67887 92.17120
#
# Poissons Ratio (x) = 0.40225 0.14515
# Poissons Ratio (y) = 0.40225 0.14515
# Poissons Ratio (z) = 0.10028 0.10028
#
# Static dielectric constant tensor:
#      x y z
#    x 2.021240 0.000000 0.000000 
#    y 0.000000 2.021240 0.000000 
#    z 0.000000 0.000000 2.026100 
# 
# From -- ./inp_files/5933.got.cif
#   From: 2010.05.17/outbox.cif.g08.bks.cpg/sg120_3_cif.got.tgz:5933.got - 2010.05.20 11:28:13.
