data_PCOD9559309
_publ_section_title
;
Structure prediction by ZEFSAII (Michael W. Deem and Ramdas Pophale) SiO2 
 PCOD9559309
Probable space group: I -4 M 2
;
_chemical_formula_sum "Si O2"
_cell_formula_units_Z 88
_cell_length_a 12.110243
_cell_length_b 12.110243
_cell_length_c 30.709759
_cell_angle_alpha 90.000000
_cell_angle_beta 90.000000
_cell_angle_gamma 90.000000
_cell_volume 4503.831391
_symmetry_space_group_name_H-M "I -4 M 2"
_symmetry_group_IT_number 119
_symmetry_cell_setting 'tetragonal'
loop_
_space_group_symop_operation_xyz
x,y,z
y,-x,-z
-x,-y,z
-y,x,-z
y,x,-z
-y,-x,-z
-x,y,z
x,-y,z
1/2+x,1/2+y,1/2+z
1/2+y,1/2-x,1/2-z
1/2-x,1/2-y,1/2+z
1/2-y,1/2+x,1/2-z
1/2+y,1/2+x,1/2-z
1/2-y,1/2-x,1/2-z
1/2-x,1/2+y,1/2+z
1/2+x,1/2-y,1/2+z
loop_
_atom_site_type_symbol
_atom_site_label
_atom_site_fract_x
_atom_site_fract_y
_atom_site_fract_z
Si Si1 0.000000 0.869367 0.359846
Si Si2 0.313285 0.368660 0.697229
Si Si3 0.197677 0.870344 0.295878
Si Si4 0.244257 0.365697 0.539676
Si Si5 0.000000 0.370402 0.514592
Si Si6 0.752511 0.380306 0.387710
Si Si7 0.171726 0.500000 0.087905
O O1 0.892547 0.837798 0.331564
O O2 0.000000 0.802658 0.404204
O O3 0.000000 0.000000 0.365443
O O4 0.315602 0.500000 0.688240
O O5 0.192594 0.312372 0.697543
O O6 0.350301 0.350814 0.747262
O O7 0.374876 0.298195 0.660591
O O8 0.216418 0.000000 0.299355
O O9 0.317044 0.317044 0.500000
O O10 0.250869 0.500000 0.540994
O O11 0.117064 0.329025 0.532398
O O12 0.289414 0.309368 0.583434
O O13 0.000000 0.357902 0.462538
O O14 0.000000 0.500000 0.524839
O O15 0.724504 0.500000 0.407147
O O16 0.885163 0.369287 0.390981
#
# Coordination Sequence:
#
# PCOD9559309 Si02
#       7
#     8  16  16  16   8  16   8
#     4  10  20  38  64  90 120 166 211 257 306 363
#     4  10  21  37  59  91 126 163 205 256 314 373
#     4   9  19  37  60  87 123 167 212 254 306 367
#     4  11  23  41  65  93 123 160 202 254 308 379
#     4  10  22  44  68  88 120 164 208 246 320 382
#     4  12  25  41  63  92 126 162 208 257 316 378
#     4  12  22  42  64  90 120 161 212 256 313 384
#
# _framework density 19.538919
#
# number of rings (size 3 to 8) (size 9 to 14) (size 15 to 20)
#    0.000    1.455    3.636    1.909    1.273    2.727 
#    3.273    1.818    2.000    0.000    0.000    0.000 
#    0.000    0.000    0.000    0.000    0.000    0.000 
#
# Total GULP energy -245426.590808 kJ/mol
# GULP energy per Si atom -5577.877064 kJ/mol
# Density = 1.949445 g / cm^3
# Si number density = 19.538919 Si / 1000 Ang^3
#
#
#
# Elastic Constant Matrix: (Units=GPa)
#
#
# Indices 1 2 3 4 5 6 
#
# 1 109.8407 25.0388 24.2690 0.0000 0.0000 0.0000
# 2 25.0388 109.8407 24.2690 0.0000 0.0000 0.0000
# 3 24.2690 24.2690 34.4711 0.0000 0.0000 0.0000
# 4 0.0000 0.0000 0.0000 29.8937 0.0000 0.0000
# 5 0.0000 0.0000 0.0000 0.0000 29.8937 0.0000
# 6 0.0000 0.0000 0.0000 0.0000 0.0000 15.4511
#
#
#
# Elastic Compliance Matrix: (Units=1/GPa)
#
#
# Indices 1 2 3 4 5 6 
#
# 1 0.010861 -0.000931 -0.006991 0.000000 0.000000 0.000000
# 2 -0.000931 0.010861 -0.006991 0.000000 0.000000 0.000000
# 3 -0.006991 -0.006991 0.038854 0.000000 0.000000 0.000000
# 4 0.000000 0.000000 0.000000 0.033452 0.000000 0.000000
# 5 0.000000 0.000000 0.000000 0.000000 0.033452 0.000000
# 6 0.000000 0.000000 0.000000 0.000000 0.000000 0.064721
#
#
# Mechanical properties :
#
#
# Convention : Reuss Voigt Hill
#
# Bulk Modulus (GPa) = 32.52097 44.58958 38.55527
# Shear Modulus (GPa) = 21.52610 27.08606 24.30608
#
# Velocity S-wave (km/s) = 3.32279 3.72729 3.53084
# Velocity P-wave (km/s) = 5.60371 6.43382 6.03306
#
# Compressibility (1/GPa) = 0.03074939
#
# Stress axis : x y z
#
# Youngs Moduli (GPa) = 92.07253 92.07253 25.73755
#
# Poissons Ratio (x) = 0.08574 0.17993
# Poissons Ratio (y) = 0.08574 0.17993
# Poissons Ratio (z) = 0.64368 0.64368
#
# Static dielectric constant tensor:
#      x y z
#    x 1.691970 0.000000 0.000000 
#    y 0.000000 1.691970 0.000000 
#    z 0.000000 0.000000 1.699690 
# 
# From -- ./inp_files/10295.got.cif
#   From: 2010.05.17/outbox.cif.g08.bks.cpg/sg119_6_cif.got.tgz:10295.got - 2010.05.20 11:21:29.
