data_PCOD9559957
_publ_section_title
;
Structure prediction by ZEFSAII (Michael W. Deem and Ramdas Pophale) SiO2 
 PCOD9559957
Probable space group: I -4 C 2
;
_chemical_formula_sum "Si O2"
_cell_formula_units_Z 112
_cell_length_a 14.550434
_cell_length_b 14.550434
_cell_length_c 23.710662
_cell_angle_alpha 90.000000
_cell_angle_beta 90.000000
_cell_angle_gamma 90.000000
_cell_volume 5019.905878
_symmetry_space_group_name_H-M "I -4 C 2"
_symmetry_group_IT_number 120
_symmetry_cell_setting 'tetragonal'
loop_
_space_group_symop_operation_xyz
x,y,z
y,-x,-z
-x,-y,z
-y,x,-z
y,x,1/2-z
-y,-x,1/2-z
-x,y,1/2+z
x,-y,1/2+z
1/2+x,1/2+y,1/2+z
1/2+y,1/2-x,1/2-z
1/2-x,1/2-y,1/2+z
1/2-y,1/2+x,1/2-z
1/2+y,1/2+x,-z
1/2-y,1/2-x,-z
1/2-x,1/2+y,z
1/2+x,1/2-y,z
loop_
_atom_site_type_symbol
_atom_site_label
_atom_site_fract_x
_atom_site_fract_y
_atom_site_fract_z
Si Si1 0.359789 0.236672 0.588251
Si Si2 0.084784 0.139959 0.185364
Si Si3 0.329247 0.819906 0.610990
Si Si4 0.034009 0.142176 0.999857
Si Si5 0.995421 0.213785 0.880394
Si Si6 0.132876 0.158382 0.685264
Si Si7 0.994590 0.404735 0.057277
O O1 0.383115 0.265583 0.653376
O O2 0.252730 0.263413 0.580401
O O3 0.413163 0.308197 0.548897
O O4 0.404344 0.141281 0.565563
O O5 0.120854 0.120854 0.250000
O O6 0.129283 0.061330 0.146485
O O7 0.975009 0.133595 0.180330
O O8 0.295819 0.922538 0.625973
O O9 0.351782 0.761213 0.665230
O O10 0.423395 0.828608 0.577356
O O11 0.011338 0.205170 0.946903
O O12 0.940921 0.096911 0.022427
O O13 0.092071 0.202745 0.848930
O O14 0.152943 0.152943 0.750000
O O15 0.000000 0.500000 0.091508
O O16 0.942307 0.442307 0.000000
#
# Coordination Sequence:
#
# PCOD9559957 Si02
#       7
#    16  16  16  16  16  16  16
#     4  11  24  46  72 108 143 202 252 317 378 470
#     4  11  21  42  71 104 140 181 240 321 391 445
#     4  11  26  45  68 102 141 193 248 305 373 459
#     4  11  21  36  64 105 148 177 231 302 380 442
#     4  11  24  40  67 100 143 183 233 307 371 445
#     4  12  25  43  70 103 136 186 249 307 384 450
#     4  11  26  49  73 104 155 206 255 310 389 478
#
# _framework density 22.311176
#
# number of rings (size 3 to 8) (size 9 to 14) (size 15 to 20)
#    0.000    0.857    5.714    2.143    4.000    2.286 
#    2.571    0.000    0.000    0.000    0.000    0.000 
#    0.000    0.000    0.000    0.000    0.000    0.000 
#
# Total GULP energy -312430.897847 kJ/mol
# GULP energy per Si atom -5579.123176 kJ/mol
# Density = 2.226039 g / cm^3
# Si number density = 22.311176 Si / 1000 Ang^3
#
#
#
# Elastic Constant Matrix: (Units=GPa)
#
#
# Indices 1 2 3 4 5 6 
#
# 1 75.5190 20.7715 8.4086 0.0000 0.0000 0.0000
# 2 20.7715 75.5190 8.4086 0.0000 0.0000 0.0000
# 3 8.4086 8.4086 70.2288 0.0000 0.0000 0.0000
# 4 0.0000 0.0000 0.0000 -19.0482 0.0000 0.0000
# 5 0.0000 0.0000 0.0000 0.0000 -19.0482 0.0000
# 6 0.0000 0.0000 0.0000 0.0000 0.0000 30.2088
#
#
#
# Elastic Compliance Matrix: (Units=1/GPa)
#
#
# Indices 1 2 3 4 5 6 
#
# 1 0.014436 -0.003829 -0.001270 0.000000 0.000000 0.000000
# 2 -0.003829 0.014436 -0.001270 0.000000 0.000000 0.000000
# 3 -0.001270 -0.001270 0.014543 0.000000 0.000000 0.000000
# 4 0.000000 0.000000 0.000000 -0.052498 0.000000 0.000000
# 5 0.000000 0.000000 0.000000 0.000000 -0.052498 0.000000
# 6 0.000000 0.000000 0.000000 0.000000 0.000000 0.033103
#
#
# Mechanical properties :
#
#
# Convention : Reuss Voigt Hill
#
# Bulk Modulus (GPa) = 32.59730 32.93825 32.76777
# Shear Modulus (GPa) = -906.90842 10.66767 -448.12037
#
# Velocity S-wave (km/s) = -20.18326 2.18899 -14.18754
# Velocity P-wave (km/s) = 22.98935 4.60262 15.92680
#
# Compressibility (1/GPa) = 0.03067739
#
# Stress axis : x y z
#
# Youngs Moduli (GPa) = 69.26956 69.26956 68.76022
#
# Poissons Ratio (x) = 0.26525 0.08733
# Poissons Ratio (y) = 0.26525 0.08733
# Poissons Ratio (z) = 0.08797 0.08797
#
# Static dielectric constant tensor:
#      x y z
#    x 1.931730 0.000000 0.000000 
#    y 0.000000 1.931730 0.000000 
#    z 0.000000 0.000000 1.718760 
# 
# From -- ./inp_files/5941.got.cif
#   From: 2010.05.17/outbox.cif.g08.bks.cpg/sg120_3_cif.got.tgz:5941.got - 2010.05.20 11:28:13.
