data_PCOD9559140
_publ_section_title
;
Structure prediction by ZEFSAII (Michael W. Deem and Ramdas Pophale) SiO2 
 PCOD9559140
Probable space group: I -4 M 2
;
_chemical_formula_sum "Si O2"
_cell_formula_units_Z 128
_cell_length_a 21.642272
_cell_length_b 21.642272
_cell_length_c 15.153849
_cell_angle_alpha 90.000000
_cell_angle_beta 90.000000
_cell_angle_gamma 90.000000
_cell_volume 7097.880076
_symmetry_space_group_name_H-M "I -4 M 2"
_symmetry_group_IT_number 119
_symmetry_cell_setting 'tetragonal'
loop_
_space_group_symop_operation_xyz
x,y,z
y,-x,-z
-x,-y,z
-y,x,-z
y,x,-z
-y,-x,-z
-x,y,z
x,-y,z
1/2+x,1/2+y,1/2+z
1/2+y,1/2-x,1/2-z
1/2-x,1/2-y,1/2+z
1/2-y,1/2+x,1/2-z
1/2+y,1/2+x,1/2-z
1/2-y,1/2-x,1/2-z
1/2-x,1/2+y,1/2+z
1/2+x,1/2-y,1/2+z
loop_
_atom_site_type_symbol
_atom_site_label
_atom_site_fract_x
_atom_site_fract_y
_atom_site_fract_z
Si Si1 0.626394 0.238133 0.104947
Si Si2 0.231207 0.930122 0.717291
Si Si3 0.333981 0.753843 0.448060
Si Si4 0.155183 0.429082 0.489348
Si Si5 0.169708 0.930952 0.525924
Si Si6 0.608517 0.071746 0.347836
Si Si7 0.874517 0.429222 0.163203
Si Si8 0.804734 0.798286 0.763405
O O1 0.685980 0.210610 0.054394
O O2 0.592615 0.180196 0.149836
O O3 0.653329 0.284408 0.178171
O O4 0.582454 0.271659 0.036191
O O5 0.192297 0.926551 0.626573
O O6 0.302988 0.922637 0.690849
O O7 0.211125 0.870390 0.773128
O O8 0.223591 0.000000 0.754171
O O9 0.300083 0.699918 0.500000
O O10 0.396205 0.779777 0.490598
O O11 0.338698 0.730965 0.347640
O O12 0.161908 0.500000 0.463201
O O13 0.114829 0.423655 0.579027
O O14 0.117971 0.392845 0.413610
O O15 0.119388 0.880612 0.500000
O O16 0.146396 0.000000 0.510256
O O17 0.582996 0.082996 0.250000
O O18 0.602167 0.000000 0.371387
O O19 0.884515 0.500000 0.134021
O O20 0.914293 0.414293 0.250000
O O21 0.741745 0.758256 0.750000
#
# Coordination Sequence:
#
# PCOD9559140 Si02
#       8
#    16  16  16  16  16  16  16  16
#     4  10  19  34  55  80 110 147 185 231 281 339
#     4  10  21  36  56  84 118 152 195 240 283 345
#     4  10  22  36  57  83 110 142 184 241 294 342
#     4  11  24  40  58  82 118 156 197 243 285 339
#     4  11  21  35  56  82 114 150 186 229 284 350
#     4  11  22  36  55  81 113 151 198 240 282 334
#     4  11  24  39  58  86 122 164 204 239 281 343
#     4  10  20  33  57  82 112 146 186 233 293 345
#
# _framework density 18.033553000000001
#
# number of rings (size 3 to 8) (size 9 to 14) (size 15 to 20)
#    0.000    1.500    1.250    5.625    7.000    3.375 
#    0.000    0.625    0.000    0.000    0.000    0.000 
#    0.000    1.250    0.000    0.000    0.000    0.000 
#
# Total GULP energy -357548.187680 kJ/mol
# GULP energy per Si atom -5586.690433 kJ/mol
# Density = 1.799251 g / cm^3
# Si number density = 18.033553 Si / 1000 Ang^3
#
#
#
# Elastic Constant Matrix: (Units=GPa)
#
#
# Indices 1 2 3 4 5 6 
#
# 1 68.2202 32.6643 0.0279 0.0000 0.0000 0.0000
# 2 32.6643 68.2197 0.0270 0.0000 0.0000 0.0000
# 3 0.0279 0.0270 35.7208 0.0000 0.0000 0.0000
# 4 0.0000 0.0000 0.0000 23.0567 0.0000 0.0000
# 5 0.0000 0.0000 0.0000 0.0000 23.0567 0.0000
# 6 0.0000 0.0000 0.0000 0.0000 0.0000 -11.3546
#
#
#
# Elastic Compliance Matrix: (Units=1/GPa)
#
#
# Indices 1 2 3 4 5 6 
#
# 1 0.019019 -0.009106 -0.000008 0.000000 0.000000 0.000000
# 2 -0.009106 0.019019 -0.000007 0.000000 0.000000 0.000000
# 3 -0.000008 -0.000007 0.027995 0.000000 0.000000 0.000000
# 4 0.000000 0.000000 0.000000 0.043371 0.000000 0.000000
# 5 0.000000 0.000000 0.000000 0.000000 0.043371 0.000000
# 6 0.000000 0.000000 0.000000 0.000000 0.000000 -0.088070
#
#
# Mechanical properties :
#
#
# Convention : Reuss Voigt Hill
#
# Bulk Modulus (GPa) = 20.92524 26.39989 23.66256
# Shear Modulus (GPa) = 50.56776 16.24787 33.40782
#
# Velocity S-wave (km/s) = 5.30111 3.00489 4.30878
# Velocity P-wave (km/s) = 7.00698 5.16820 6.15662
#
# Compressibility (1/GPa) = 0.04778918
#
# Stress axis : x y z
#
# Youngs Moduli (GPa) = 52.58018 52.57982 35.72076
#
# Poissons Ratio (x) = 0.47881 0.00029
# Poissons Ratio (y) = 0.47881 0.00026
# Poissons Ratio (z) = 0.00042 0.00038
#
# Static dielectric constant tensor:
#      x y z
#    x 1.611670 0.000000 0.000000 
#    y 0.000000 1.611670 0.000000 
#    z 0.000000 0.000000 1.625670 
# 
# From -- ./inp_files/6911.got.cif
#   From: 2010.05.17/outbox.cif.g08.bks.cpg/sg119_4_cif.got.tgz:6911.got - 2010.05.20 11:21:29.
