data_PCOD9559352
_publ_section_title
;
Structure prediction by ZEFSAII (Michael W. Deem and Ramdas Pophale) SiO2 
 PCOD9559352
Probable space group: I -4 M 2
;
_chemical_formula_sum "Si O2"
_cell_formula_units_Z 72
_cell_length_a 21.295380
_cell_length_b 21.295380
_cell_length_c 7.880848
_cell_angle_alpha 90.000000
_cell_angle_beta 90.000000
_cell_angle_gamma 90.000000
_cell_volume 3573.911052
_symmetry_space_group_name_H-M "I -4 M 2"
_symmetry_group_IT_number 119
_symmetry_cell_setting 'tetragonal'
loop_
_space_group_symop_operation_xyz
x,y,z
y,-x,-z
-x,-y,z
-y,x,-z
y,x,-z
-y,-x,-z
-x,y,z
x,-y,z
1/2+x,1/2+y,1/2+z
1/2+y,1/2-x,1/2-z
1/2-x,1/2-y,1/2+z
1/2-y,1/2+x,1/2-z
1/2+y,1/2+x,1/2-z
1/2-y,1/2-x,1/2-z
1/2-x,1/2+y,1/2+z
1/2+x,1/2-y,1/2+z
loop_
_atom_site_type_symbol
_atom_site_label
_atom_site_fract_x
_atom_site_fract_y
_atom_site_fract_z
Si Si1 0.166562 0.612036 0.004103
Si Si2 0.933399 0.566602 0.250000
Si Si3 0.775863 0.821475 0.681662
Si Si4 0.335903 0.573893 0.428885
Si Si5 0.929469 0.288056 0.854078
O O1 0.124012 0.669670 0.938786
O O2 0.202039 0.581062 0.845971
O O3 0.119805 0.569752 0.110140
O O4 0.216245 0.636932 0.136253
O O5 0.929342 0.500000 0.340691
O O6 0.807877 0.807877 0.500000
O O7 0.745252 0.754749 0.750000
O O8 0.815559 0.868508 0.801974
O O9 0.402927 0.597074 0.500000
O O10 0.336429 0.500000 0.368847
O O11 0.282328 0.576099 0.575494
O O12 0.000000 0.309580 0.897199
#
# Coordination Sequence:
#
# PCOD9559352 Si02
#       5
#    16   8  16  16  16
#     4  11  21  36  58  87 124 169 216 267 328 388
#     4  11  22  36  54  80 122 174 224 264 308 371
#     4  12  24  39  67  98 134 169 210 265 338 405
#     4  11  24  45  68  96 129 171 221 271 330 395
#     4  10  21  36  59  88 125 168 218 271 323 387
#
# _framework density 20.145997000000001
#
# number of rings (size 3 to 8) (size 9 to 14) (size 15 to 20)
#    0.000    1.000    3.333    3.333    3.111    3.778 
#    0.000    1.111    0.000    5.333    0.000    0.000 
#    0.000    0.000    0.000    0.000    0.000    0.000 
#
# Total GULP energy -200688.761044 kJ/mol
# GULP energy per Si atom -5574.687807 kJ/mol
# Density = 2.010014 g / cm^3
# Si number density = 20.145997 Si / 1000 Ang^3
#
#
#
# Elastic Constant Matrix: (Units=GPa)
#
#
# Indices 1 2 3 4 5 6 
#
# 1 80.7016 52.9353 30.3896 0.0000 0.0000 0.0000
# 2 52.9353 80.7067 30.3920 0.0000 0.0000 0.0000
# 3 30.3896 30.3920 85.8427 0.0000 0.0000 0.0000
# 4 0.0000 0.0000 0.0000 46.7830 0.0000 0.0000
# 5 0.0000 0.0000 0.0000 0.0000 46.7828 0.0000
# 6 0.0000 0.0000 0.0000 0.0000 0.0000 25.9939
#
#
#
# Elastic Compliance Matrix: (Units=1/GPa)
#
#
# Indices 1 2 3 4 5 6 
#
# 1 0.022466 -0.013546 -0.003157 0.000000 0.000000 0.000000
# 2 -0.013546 0.022465 -0.003158 0.000000 0.000000 0.000000
# 3 -0.003157 -0.003158 0.013885 0.000000 0.000000 0.000000
# 4 0.000000 0.000000 0.000000 0.021375 0.000000 0.000000
# 5 0.000000 0.000000 0.000000 0.000000 0.021375 0.000000
# 6 0.000000 0.000000 0.000000 0.000000 0.000000 0.038471
#
#
# Mechanical properties :
#
#
# Convention : Reuss Voigt Hill
#
# Bulk Modulus (GPa) = 52.37640 52.74277 52.55958
# Shear Modulus (GPa) = 26.86383 32.81420 29.83902
#
# Velocity S-wave (km/s) = 3.65562 4.04024 3.85273
# Velocity P-wave (km/s) = 6.62366 6.92834 6.77771
#
# Compressibility (1/GPa) = 0.01909257
#
# Stress axis : x y z
#
# Youngs Moduli (GPa) = 44.51208 44.51426 72.02046
#
# Poissons Ratio (x) = 0.60300 0.22739
# Poissons Ratio (y) = 0.60298 0.22743
# Poissons Ratio (z) = 0.14054 0.14057
#
# Static dielectric constant tensor:
#      x y z
#    x 1.740300 0.000000 0.000000 
#    y 0.000000 1.740290 0.000000 
#    z 0.000000 0.000000 1.906530 
# 
# From -- ./inp_files/2439.got.cif
#   From: 2010.05.17/outbox.cif.g08.bks.cpg/sg119_2_cif.got.tgz:2439.got - 2010.05.20 11:21:29.
