data_PCOD9559784
_publ_section_title
;
Structure prediction by ZEFSAII (Michael W. Deem and Ramdas Pophale) SiO2 
 PCOD9559784
Probable space group: I -4 C 2
;
_chemical_formula_sum "Si O2"
_cell_formula_units_Z 80
_cell_length_a 13.658098
_cell_length_b 13.658098
_cell_length_c 18.767359
_cell_angle_alpha 90.000000
_cell_angle_beta 90.000000
_cell_angle_gamma 90.000000
_cell_volume 3500.931479
_symmetry_space_group_name_H-M "I -4 C 2"
_symmetry_group_IT_number 120
_symmetry_cell_setting 'tetragonal'
loop_
_space_group_symop_operation_xyz
x,y,z
y,-x,-z
-x,-y,z
-y,x,-z
y,x,1/2-z
-y,-x,1/2-z
-x,y,1/2+z
x,-y,1/2+z
1/2+x,1/2+y,1/2+z
1/2+y,1/2-x,1/2-z
1/2-x,1/2-y,1/2+z
1/2-y,1/2+x,1/2-z
1/2+y,1/2+x,-z
1/2-y,1/2-x,-z
1/2-x,1/2+y,z
1/2+x,1/2-y,z
loop_
_atom_site_type_symbol
_atom_site_label
_atom_site_fract_x
_atom_site_fract_y
_atom_site_fract_z
Si Si1 0.903789 0.407523 0.083208
Si Si2 0.484061 0.708124 0.576484
Si Si3 0.054444 0.372769 0.793175
Si Si4 0.080958 0.152670 0.821164
Si Si5 0.185101 0.101952 0.082038
O O1 0.974844 0.319297 0.101982
O O2 0.898669 0.505457 0.130113
O O3 0.795046 0.360103 0.091806
O O4 0.923920 0.423920 0.000000
O O5 0.406019 0.646130 0.621953
O O6 0.596044 0.676060 0.581988
O O7 0.453379 0.692586 0.494037
O O8 0.121828 0.456125 0.757056
O O9 0.103541 0.266324 0.800277
O O10 0.090203 0.090203 0.750000
O O11 0.974789 0.161034 0.856142
#
# Coordination Sequence:
#
# PCOD9559784 Si02
#       5
#    16  16  16  16  16
#     4   9  21  41  67 106 135 179 242 284 344 429
#     4  11  20  39  67 100 142 181 223 293 357 412
#     4  10  22  46  71  92 139 190 227 294 363 414
#     4  11  23  39  67 104 131 178 236 278 349 436
#     4  10  21  38  67 100 142 178 224 296 349 407
#
# _framework density 22.85106
#
# number of rings (size 3 to 8) (size 9 to 14) (size 15 to 20)
#    0.000    1.800    2.000    1.800    0.000    1.600 
#   10.800    2.000    4.400    0.000    0.000    0.000 
#    0.000    0.000    0.000    0.000    0.000    0.000 
#
# Total GULP energy -223443.849784 kJ/mol
# GULP energy per Si atom -5586.096245 kJ/mol
# Density = 2.279905 g / cm^3
# Si number density = 22.851060 Si / 1000 Ang^3
#
#
#
# Elastic Constant Matrix: (Units=GPa)
#
#
# Indices 1 2 3 4 5 6 
#
# 1 95.7755 55.4092 23.6601 0.0000 0.0000 0.0000
# 2 55.4092 95.7755 23.6601 0.0000 0.0000 0.0000
# 3 23.6601 23.6601 139.6924 0.0000 0.0000 0.0000
# 4 0.0000 0.0000 0.0000 20.4890 0.0000 0.0000
# 5 0.0000 0.0000 0.0000 0.0000 20.4890 0.0000
# 6 0.0000 0.0000 0.0000 0.0000 0.0000 29.5170
#
#
#
# Elastic Compliance Matrix: (Units=1/GPa)
#
#
# Indices 1 2 3 4 5 6 
#
# 1 0.015879 -0.008894 -0.001183 0.000000 0.000000 0.000000
# 2 -0.008894 0.015879 -0.001183 0.000000 0.000000 0.000000
# 3 -0.001183 -0.001183 0.007559 0.000000 0.000000 0.000000
# 4 0.000000 0.000000 0.000000 0.048807 0.000000 0.000000
# 5 0.000000 0.000000 0.000000 0.000000 0.048807 0.000000
# 6 0.000000 0.000000 0.000000 0.000000 0.000000 0.033879
#
#
# Mechanical properties :
#
#
# Convention : Reuss Voigt Hill
#
# Bulk Modulus (GPa) = 59.53565 59.63359 59.58462
# Shear Modulus (GPa) = 25.13466 29.33328 27.23397
#
# Velocity S-wave (km/s) = 3.32012 3.58672 3.45600
# Velocity P-wave (km/s) = 6.38811 6.58074 6.48514
#
# Compressibility (1/GPa) = 0.01679666
#
# Stress axis : x y z
#
# Youngs Moduli (GPa) = 62.97661 62.97661 132.28683
#
# Poissons Ratio (x) = 0.56013 0.15650
# Poissons Ratio (y) = 0.56013 0.15650
# Poissons Ratio (z) = 0.07450 0.07450
#
# Static dielectric constant tensor:
#      x y z
#    x 1.866670 0.000000 0.000000 
#    y 0.000000 1.866670 0.000000 
#    z 0.000000 0.000000 1.895300 
# 
# From -- ./inp_files/5173.got.cif
#   From: 2010.05.17/outbox.cif.g08.bks.cpg/sg120_3_cif.got.tgz:5173.got - 2010.05.20 11:28:13.
