data_PCOD9559482
_publ_section_title
;
Structure prediction by ZEFSAII (Michael W. Deem and Ramdas Pophale) SiO2 
 PCOD9559482
Probable space group: I -4 M 2
;
_chemical_formula_sum "Si O2"
_cell_formula_units_Z 48
_cell_length_a 22.177846
_cell_length_b 22.177846
_cell_length_c 4.882878
_cell_angle_alpha 90.000000
_cell_angle_beta 90.000000
_cell_angle_gamma 90.000000
_cell_volume 2401.677008
_symmetry_space_group_name_H-M "I -4 M 2"
_symmetry_group_IT_number 119
_symmetry_cell_setting 'tetragonal'
loop_
_space_group_symop_operation_xyz
x,y,z
y,-x,-z
-x,-y,z
-y,x,-z
y,x,-z
-y,-x,-z
-x,y,z
x,-y,z
1/2+x,1/2+y,1/2+z
1/2+y,1/2-x,1/2-z
1/2-x,1/2-y,1/2+z
1/2-y,1/2+x,1/2-z
1/2+y,1/2+x,1/2-z
1/2-y,1/2-x,1/2-z
1/2-x,1/2+y,1/2+z
1/2+x,1/2-y,1/2+z
loop_
_atom_site_type_symbol
_atom_site_label
_atom_site_fract_x
_atom_site_fract_y
_atom_site_fract_z
Si Si1 0.382290 0.936080 0.986935
Si Si2 0.155483 0.242217 0.320138
Si Si3 0.254364 0.430621 0.672371
O O1 0.421150 0.921150 0.250000
O O2 0.314083 0.937358 0.077022
O O3 0.400226 0.000000 0.863964
O O4 0.388622 0.888622 0.750000
O O5 0.195917 0.195917 0.500000
O O6 0.202795 0.297206 0.250000
O O7 0.278796 0.379692 0.457671
O O8 0.099530 0.251824 0.529276
O O9 0.280172 0.500000 0.672940
#
# Coordination Sequence:
#
# PCOD9559482 Si02
#       3
#    16  16  16
#     4  11  22  34  49  68  95 137 184 231 276 318
#     4  12  23  38  61  90 121 155 196 248 307 364
#     4  11  23  39  58  81 115 155 195 238 294 367
#
# _framework density 19.986034
#
# number of rings (size 3 to 8) (size 9 to 14) (size 15 to 20)
#    0.000    0.667    0.000   11.000    0.000    7.333 
#    0.000    0.000    0.000    0.000    0.000    0.000 
#    0.000   46.667    0.000    0.000    0.000    0.000 
#
# Total GULP energy -133684.407917 kJ/mol
# GULP energy per Si atom -5570.183663 kJ/mol
# Density = 1.994054 g / cm^3
# Si number density = 19.986034 Si / 1000 Ang^3
#
#
#
# Elastic Constant Matrix: (Units=GPa)
#
#
# Indices 1 2 3 4 5 6 
#
# 1 106.0602 11.5778 24.4135 0.0000 0.0000 0.0000
# 2 11.5778 106.0534 24.4075 0.0000 0.0000 0.0000
# 3 24.4135 24.4075 124.8733 0.0000 0.0000 0.0000
# 4 0.0000 0.0000 0.0000 29.8840 0.0000 0.0000
# 5 0.0000 0.0000 0.0000 0.0000 29.8842 0.0000
# 6 0.0000 0.0000 0.0000 0.0000 0.0000 20.6193
#
#
#
# Elastic Compliance Matrix: (Units=1/GPa)
#
#
# Indices 1 2 3 4 5 6 
#
# 1 0.009918 -0.000666 -0.001809 0.000000 0.000000 0.000000
# 2 -0.000666 0.009918 -0.001808 0.000000 0.000000 0.000000
# 3 -0.001809 -0.001808 0.008715 0.000000 0.000000 0.000000
# 4 0.000000 0.000000 0.000000 0.033463 0.000000 0.000000
# 5 0.000000 0.000000 0.000000 0.000000 0.033462 0.000000
# 6 0.000000 0.000000 0.000000 0.000000 0.000000 0.048498
#
#
# Mechanical properties :
#
#
# Convention : Reuss Voigt Hill
#
# Bulk Modulus (GPa) = 50.03973 50.86496 50.45235
# Shear Modulus (GPa) = 31.40652 34.51672 32.96162
#
# Velocity S-wave (km/s) = 3.96842 4.16028 4.06548
# Velocity P-wave (km/s) = 6.78892 6.97013 6.88012
#
# Compressibility (1/GPa) = 0.01998412
#
# Stress axis : x y z
#
# Youngs Moduli (GPa) = 100.82988 100.82539 114.74240
#
# Poissons Ratio (x) = 0.06719 0.20754
# Poissons Ratio (y) = 0.06720 0.20749
# Poissons Ratio (z) = 0.18237 0.18232
#
# Static dielectric constant tensor:
#      x y z
#    x 1.759960 0.000000 0.000000 
#    y 0.000000 1.759960 0.000000 
#    z 0.000000 0.000000 1.044940 
# 
# From -- ./inp_files/491.got.cif
#   From: 2010.05.17/outbox.cif.g08.bks.cpg/sg119_1_cif.got.tgz:491.got - 2010.05.20 11:21:29.
