data_PCOD9559370
_publ_section_title
;
Structure prediction by ZEFSAII (Michael W. Deem and Ramdas Pophale) SiO2 
 PCOD9559370
Probable space group: I -4 M 2
;
_chemical_formula_sum "Si O2"
_cell_formula_units_Z 64
_cell_length_a 16.383173
_cell_length_b 16.383173
_cell_length_c 12.257632
_cell_angle_alpha 90.000000
_cell_angle_beta 90.000000
_cell_angle_gamma 90.000000
_cell_volume 3290.050873
_symmetry_space_group_name_H-M "I -4 M 2"
_symmetry_group_IT_number 119
_symmetry_cell_setting 'tetragonal'
loop_
_space_group_symop_operation_xyz
x,y,z
y,-x,-z
-x,-y,z
-y,x,-z
y,x,-z
-y,-x,-z
-x,y,z
x,-y,z
1/2+x,1/2+y,1/2+z
1/2+y,1/2-x,1/2-z
1/2-x,1/2-y,1/2+z
1/2-y,1/2+x,1/2-z
1/2+y,1/2+x,1/2-z
1/2-y,1/2-x,1/2-z
1/2-x,1/2+y,1/2+z
1/2+x,1/2-y,1/2+z
loop_
_atom_site_type_symbol
_atom_site_label
_atom_site_fract_x
_atom_site_fract_y
_atom_site_fract_z
Si Si1 0.856789 0.409170 0.401702
Si Si2 0.589625 0.257832 0.784590
Si Si3 0.359106 0.906326 0.371674
Si Si4 0.666123 0.407183 0.889714
O O1 0.891571 0.500000 0.373500
O O2 0.770212 0.406409 0.340611
O O3 0.898547 0.327349 0.351898
O O4 0.856806 0.401678 0.531394
O O5 0.500000 0.288472 0.813160
O O6 0.648827 0.331899 0.809101
O O7 0.373740 0.873740 0.250000
O O8 0.263589 0.907497 0.401674
O O9 0.389024 0.000000 0.376319
O O10 0.641925 0.500000 0.858591
O O11 0.620121 0.379880 0.000000
#
# Coordination Sequence:
#
# PCOD9559370 Si02
#       4
#    16  16  16  16
#     4  10  21  37  60  88 124 165 203 255 318 385
#     4  10  21  38  60  91 124 161 209 258 320 386
#     4  11  24  39  60  92 128 172 221 265 322 389
#     4  11  23  39  62  93 128 168 217 268 322 382
#
# _framework density 19.452587000000001
#
# number of rings (size 3 to 8) (size 9 to 14) (size 15 to 20)
#    0.000    1.500    2.500    2.250    3.500    6.000 
#    0.000    5.000    0.000    0.000    0.000    1.750 
#    0.000   16.000    0.000    0.000    0.000    0.000 
#
# Total GULP energy -178274.394092 kJ/mol
# GULP energy per Si atom -5571.074815 kJ/mol
# Density = 1.940831 g / cm^3
# Si number density = 19.452587 Si / 1000 Ang^3
#
#
#
# Elastic Constant Matrix: (Units=GPa)
#
#
# Indices 1 2 3 4 5 6 
#
# 1 97.7476 35.0872 40.2192 0.0000 0.0000 0.0000
# 2 35.0872 97.7476 40.2181 0.0000 0.0000 0.0000
# 3 40.2192 40.2181 134.2134 0.0000 0.0000 0.0000
# 4 0.0000 0.0000 0.0000 18.5723 0.0000 0.0000
# 5 0.0000 0.0000 0.0000 0.0000 18.5722 0.0000
# 6 0.0000 0.0000 0.0000 0.0000 0.0000 -76.8479
#
#
#
# Elastic Compliance Matrix: (Units=1/GPa)
#
#
# Indices 1 2 3 4 5 6 
#
# 1 0.012578 -0.003381 -0.002756 0.000000 0.000000 0.000000
# 2 -0.003381 0.012578 -0.002756 0.000000 0.000000 0.000000
# 3 -0.002756 -0.002756 0.009103 0.000000 0.000000 0.000000
# 4 0.000000 0.000000 0.000000 0.053844 0.000000 0.000000
# 5 0.000000 0.000000 0.000000 0.000000 0.053844 0.000000
# 6 0.000000 0.000000 0.000000 0.000000 0.000000 -0.013013
#
#
# Mechanical properties :
#
#
# Convention : Reuss Voigt Hill
#
# Bulk Modulus (GPa) = 60.70684 62.30642 61.50663
# Shear Modulus (GPa) = 32.84925 6.33825 19.59375
#
# Velocity S-wave (km/s) = 4.11382 1.80704 3.17717
# Velocity P-wave (km/s) = 7.33757 6.03765 6.71912
#
# Compressibility (1/GPa) = 0.01647261
#
# Stress axis : x y z
#
# Youngs Moduli (GPa) = 79.50337 79.50393 109.85919
#
# Poissons Ratio (x) = 0.26880 0.30278
# Poissons Ratio (y) = 0.26880 0.30276
# Poissons Ratio (z) = 0.21912 0.21911
#
# Static dielectric constant tensor:
#      x y z
#    x 1.688530 0.000000 0.000000 
#    y 0.000000 1.688540 0.000000 
#    z 0.000000 0.000000 1.714180 
# 
# From -- ./inp_files/3738.got.cif
#   From: 2010.05.17/outbox.cif.g08.bks.cpg/sg119_2_cif.got.tgz:3738.got - 2010.05.20 11:21:29.
