data_PCOD9559129
_publ_section_title
;
Structure prediction by ZEFSAII (Michael W. Deem and Ramdas Pophale) SiO2 
 PCOD9559129
Probable space group: I -4 M 2
;
_chemical_formula_sum "Si O2"
_cell_formula_units_Z 96
_cell_length_a 19.084694
_cell_length_b 19.084694
_cell_length_c 13.850758
_cell_angle_alpha 90.000000
_cell_angle_beta 90.000000
_cell_angle_gamma 90.000000
_cell_volume 5044.799882
_symmetry_space_group_name_H-M "I -4 M 2"
_symmetry_group_IT_number 119
_symmetry_cell_setting 'tetragonal'
loop_
_space_group_symop_operation_xyz
x,y,z
y,-x,-z
-x,-y,z
-y,x,-z
y,x,-z
-y,-x,-z
-x,y,z
x,-y,z
1/2+x,1/2+y,1/2+z
1/2+y,1/2-x,1/2-z
1/2-x,1/2-y,1/2+z
1/2-y,1/2+x,1/2-z
1/2+y,1/2+x,1/2-z
1/2-y,1/2-x,1/2-z
1/2-x,1/2+y,1/2+z
1/2+x,1/2-y,1/2+z
loop_
_atom_site_type_symbol
_atom_site_label
_atom_site_fract_x
_atom_site_fract_y
_atom_site_fract_z
Si Si1 0.418859 0.316557 0.876088
Si Si2 0.080672 0.696047 0.230958
Si Si3 0.814003 0.422777 0.495072
Si Si4 0.344529 0.765734 0.039257
Si Si5 0.420961 0.338009 0.417719
Si Si6 0.685472 0.583530 0.804378
O O1 0.500000 0.327675 0.865173
O O2 0.394818 0.263301 0.791127
O O3 0.379584 0.389852 0.868106
O O4 0.400425 0.274269 0.972269
O O5 0.130695 0.630695 0.250000
O O6 0.000000 0.681508 0.260191
O O7 0.081295 0.708204 0.116861
O O8 0.849542 0.500000 0.507890
O O9 0.849121 0.348615 0.520718
O O10 0.743636 0.423706 0.556538
O O11 0.367367 0.746233 0.148608
O O12 0.271113 0.728888 0.000000
O O13 0.374958 0.374958 0.500000
O O14 0.500000 0.367353 0.423542
O O15 0.399471 0.337331 0.305568
O O16 0.699985 0.500000 0.809966
#
# Coordination Sequence:
#
# PCOD9559129 Si02
#       6
#    16  16  16  16  16  16
#     4  10  20  35  57  84 116 154 194 239 289 346
#     4  10  19  33  55  83 116 149 187 236 288 346
#     4  10  20  35  55  81 115 150 191 241 293 347
#     4  10  20  35  57  84 114 156 203 246 292 345
#     4  10  21  37  56  82 115 148 187 236 290 349
#     4  10  22  38  56  83 118 154 194 240 290 347
#
# _framework density 19.029495000000001
#
# number of rings (size 3 to 8) (size 9 to 14) (size 15 to 20)
#    0.000    2.000    1.667    2.000    0.000    3.333 
#    0.000    1.667    0.000    5.000    0.000    0.000 
#    0.000   12.000    0.000    0.000    0.000    0.000 
#
# Total GULP energy -267253.295590 kJ/mol
# GULP energy per Si atom -5567.776991 kJ/mol
# Density = 1.898618 g / cm^3
# Si number density = 19.029495 Si / 1000 Ang^3
#
#
#
# Elastic Constant Matrix: (Units=GPa)
#
#
# Indices 1 2 3 4 5 6 
#
# 1 59.8781 27.0466 36.7933 0.0000 0.0000 0.0000
# 2 27.0466 59.8775 36.7939 0.0000 0.0000 0.0000
# 3 36.7933 36.7939 83.7928 0.0000 0.0000 0.0000
# 4 0.0000 0.0000 0.0000 25.1714 0.0000 0.0000
# 5 0.0000 0.0000 0.0000 0.0000 25.1717 0.0000
# 6 0.0000 0.0000 0.0000 0.0000 0.0000 16.1889
#
#
#
# Elastic Compliance Matrix: (Units=1/GPa)
#
#
# Indices 1 2 3 4 5 6 
#
# 1 0.024385 -0.006074 -0.008040 0.000000 0.000000 0.000000
# 2 -0.006074 0.024385 -0.008041 0.000000 0.000000 0.000000
# 3 -0.008040 -0.008041 0.018995 0.000000 0.000000 0.000000
# 4 0.000000 0.000000 0.000000 0.039728 0.000000 0.000000
# 5 0.000000 0.000000 0.000000 0.000000 0.039727 0.000000
# 6 0.000000 0.000000 0.000000 0.000000 0.000000 0.061771
#
#
# Mechanical properties :
#
#
# Convention : Reuss Voigt Hill
#
# Bulk Modulus (GPa) = 42.63358 44.97956 43.80657
# Shear Modulus (GPa) = 19.14839 20.16737 19.65788
#
# Velocity S-wave (km/s) = 3.17558 3.25898 3.21755
# Velocity P-wave (km/s) = 5.99152 6.15218 6.07238
#
# Compressibility (1/GPa) = 0.02345569
#
# Stress axis : x y z
#
# Youngs Moduli (GPa) = 41.00953 41.00840 52.64458
#
# Poissons Ratio (x) = 0.24908 0.42327
# Poissons Ratio (y) = 0.24909 0.42330
# Poissons Ratio (z) = 0.32972 0.32973
#
# Static dielectric constant tensor:
#      x y z
#    x 1.678020 0.000000 0.000000 
#    y 0.000000 1.678020 0.000000 
#    z 0.000000 0.000000 1.782070 
# 
# From -- ./inp_files/4206.got.cif
#   From: 2010.05.17/outbox.cif.g08.bks.cpg/sg119_3_cif.got.tgz:4206.got - 2010.05.20 11:21:29.
