data_PCOD9559748
_publ_section_title
;
Structure prediction by ZEFSAII (Michael W. Deem and Ramdas Pophale) SiO2 
 PCOD9559748
Probable space group: I -4 C 2
;
_chemical_formula_sum "Si O2"
_cell_formula_units_Z 88
_cell_length_a 16.186031
_cell_length_b 16.186031
_cell_length_c 14.531331
_cell_angle_alpha 90.000000
_cell_angle_beta 90.000000
_cell_angle_gamma 90.000000
_cell_volume 3807.028527
_symmetry_space_group_name_H-M "I -4 C 2"
_symmetry_group_IT_number 120
_symmetry_cell_setting 'tetragonal'
loop_
_space_group_symop_operation_xyz
x,y,z
y,-x,-z
-x,-y,z
-y,x,-z
y,x,1/2-z
-y,-x,1/2-z
-x,y,1/2+z
x,-y,1/2+z
1/2+x,1/2+y,1/2+z
1/2+y,1/2-x,1/2-z
1/2-x,1/2-y,1/2+z
1/2-y,1/2+x,1/2-z
1/2+y,1/2+x,-z
1/2-y,1/2-x,-z
1/2-x,1/2+y,z
1/2+x,1/2-y,z
loop_
_atom_site_type_symbol
_atom_site_label
_atom_site_fract_x
_atom_site_fract_y
_atom_site_fract_z
Si Si1 0.537864 0.873167 0.784209
Si Si2 0.173762 0.826239 0.250000
Si Si3 0.769555 0.166392 0.063512
Si Si4 0.266623 0.503995 0.842698
Si Si5 0.848535 0.485617 0.516308
Si Si6 0.099396 0.927723 0.973660
O O1 0.596029 0.944454 0.741977
O O2 0.547465 0.786530 0.731865
O O3 0.543132 0.864327 0.894894
O O4 0.234722 0.809411 0.167571
O O5 0.194421 0.917506 0.289191
O O6 0.716165 0.084320 0.049088
O O7 0.735954 0.235954 0.000000
O O8 0.860687 0.145886 0.029762
O O9 0.341580 0.453941 0.890685
O O10 0.198006 0.519997 0.924937
O O11 0.933188 0.433188 0.500000
O O12 0.005104 0.905291 0.955301
#
# Coordination Sequence:
#
# PCOD9559748 Si02
#       6
#    16   8  16  16  16  16
#     4  11  23  41  67 102 140 186 245 301 363 441
#     4  12  22  44  69 100 138 183 242 296 362 444
#     4  10  22  41  71  94 137 188 227 293 362 431
#     4  11  23  40  69 101 136 191 235 296 372 433
#     4  10  20  41  67  92 136 181 228 292 361 432
#     4  10  21  42  71 101 138 180 237 294 360 422
#
# _framework density 23.115141000000001
#
# number of rings (size 3 to 8) (size 9 to 14) (size 15 to 20)
#    0.000    1.455    5.455    0.000    0.000    0.727 
#    3.273    1.818   12.000    0.000    0.000    0.000 
#    0.000    0.000    0.000    0.000    0.000    0.000 
#
# Total GULP energy -245722.430211 kJ/mol
# GULP energy per Si atom -5584.600687 kJ/mol
# Density = 2.306253 g / cm^3
# Si number density = 23.115141 Si / 1000 Ang^3
#
#
#
# Elastic Constant Matrix: (Units=GPa)
#
#
# Indices 1 2 3 4 5 6 
#
# 1 47.8870 31.6154 21.9879 0.0000 0.0000 0.0000
# 2 31.6154 47.8875 21.9880 0.0000 0.0000 0.0000
# 3 21.9879 21.9880 150.1024 0.0000 0.0000 0.0000
# 4 0.0000 0.0000 0.0000 35.6563 0.0000 0.0000
# 5 0.0000 0.0000 0.0000 0.0000 35.6562 0.0000
# 6 0.0000 0.0000 0.0000 0.0000 0.0000 12.5582
#
#
#
# Elastic Compliance Matrix: (Units=1/GPa)
#
#
# Indices 1 2 3 4 5 6 
#
# 1 0.037572 -0.023884 -0.002005 0.000000 0.000000 0.000000
# 2 -0.023884 0.037571 -0.002005 0.000000 0.000000 0.000000
# 3 -0.002005 -0.002005 0.007250 0.000000 0.000000 0.000000
# 4 0.000000 0.000000 0.000000 0.028046 0.000000 0.000000
# 5 0.000000 0.000000 0.000000 0.000000 0.028046 0.000000
# 6 0.000000 0.000000 0.000000 0.000000 0.000000 0.079629
#
#
# Mechanical properties :
#
#
# Convention : Reuss Voigt Hill
#
# Bulk Modulus (GPa) = 37.58827 44.11770 40.85298
# Shear Modulus (GPa) = 17.68224 28.12651 22.90437
#
# Velocity S-wave (km/s) = 2.76880 3.49205 3.15124
# Velocity P-wave (km/s) = 5.14959 5.94867 5.56350
#
# Compressibility (1/GPa) = 0.02660405
#
# Stress axis : x y z
#
# Youngs Moduli (GPa) = 26.61577 26.61604 137.94001
#
# Poissons Ratio (x) = 0.63570 0.27657
# Poissons Ratio (y) = 0.63570 0.27657
# Poissons Ratio (z) = 0.05336 0.05336
#
# Static dielectric constant tensor:
#      x y z
#    x 1.870440 0.000000 0.000000 
#    y 0.000000 1.870440 0.000000 
#    z 0.000000 0.000000 1.872200 
# 
# From -- ./inp_files/3545.got.cif
#   From: 2010.05.17/outbox.cif.g08.bks.cpg/sg120_2_cif.got.tgz:3545.got - 2010.05.20 11:28:13.
