data_PCOD9559790
_publ_section_title
;
Structure prediction by ZEFSAII (Michael W. Deem and Ramdas Pophale) SiO2 
 PCOD9559790
Probable space group: I -4 C 2
;
_chemical_formula_sum "Si O2"
_cell_formula_units_Z 64
_cell_length_a 16.381874
_cell_length_b 16.381874
_cell_length_c 9.910098
_cell_angle_alpha 90.000000
_cell_angle_beta 90.000000
_cell_angle_gamma 90.000000
_cell_volume 2659.531336
_symmetry_space_group_name_H-M "I -4 C 2"
_symmetry_group_IT_number 120
_symmetry_cell_setting 'tetragonal'
loop_
_space_group_symop_operation_xyz
x,y,z
y,-x,-z
-x,-y,z
-y,x,-z
y,x,1/2-z
-y,-x,1/2-z
-x,y,1/2+z
x,-y,1/2+z
1/2+x,1/2+y,1/2+z
1/2+y,1/2-x,1/2-z
1/2-x,1/2-y,1/2+z
1/2-y,1/2+x,1/2-z
1/2+y,1/2+x,-z
1/2-y,1/2-x,-z
1/2-x,1/2+y,z
1/2+x,1/2-y,z
loop_
_atom_site_type_symbol
_atom_site_label
_atom_site_fract_x
_atom_site_fract_y
_atom_site_fract_z
Si Si1 0.133347 0.027634 0.476681
Si Si2 0.944081 0.406538 0.842042
Si Si3 0.695252 0.208464 0.348578
Si Si4 0.193814 0.061787 0.742584
O O1 0.179595 0.015117 0.336804
O O2 0.091950 0.941325 0.524730
O O3 0.202423 0.048529 0.585298
O O4 0.901323 0.468424 0.732797
O O5 0.897525 0.321042 0.847119
O O6 0.938193 0.438193 0.000000
O O7 0.719496 0.280505 0.250000
O O8 0.724413 0.224413 0.500000
O O9 0.745136 0.127986 0.302056
O O10 0.104695 0.104695 0.750000
#
# Coordination Sequence:
#
# PCOD9559790 Si02
#       4
#    16  16  16  16
#     4   9  16  29  51  79 114 151 188 232 283 346
#     4  10  21  39  64  94 123 156 203 256 308 362
#     4  10  23  42  61  85 120 157 199 250 305 365
#     4   9  18  32  49  77 113 150 191 233 283 348
#
# _framework density 24.064391000000001
#
# number of rings (size 3 to 8) (size 9 to 14) (size 15 to 20)
#    0.000    2.500    0.000    2.250    0.000    9.000 
#    0.000   12.500    0.000    0.000    0.000    0.000 
#    0.000    0.000    0.000    0.000    0.000    0.000 
#
# Total GULP energy -178555.149559 kJ/mol
# GULP energy per Si atom -5579.848424 kJ/mol
# Density = 2.400962 g / cm^3
# Si number density = 24.064391 Si / 1000 Ang^3
#
#
#
# Elastic Constant Matrix: (Units=GPa)
#
#
# Indices 1 2 3 4 5 6 
#
# 1 44.0526 17.4182 29.5746 0.0000 0.0000 0.0000
# 2 17.4182 44.0520 29.5728 0.0000 0.0000 0.0000
# 3 29.5746 29.5728 147.2279 0.0000 0.0000 0.0000
# 4 0.0000 0.0000 0.0000 28.6033 0.0000 0.0000
# 5 0.0000 0.0000 0.0000 0.0000 28.6035 0.0000
# 6 0.0000 0.0000 0.0000 0.0000 0.0000 54.1938
#
#
#
# Elastic Compliance Matrix: (Units=1/GPa)
#
#
# Indices 1 2 3 4 5 6 
#
# 1 0.028856 -0.008690 -0.004051 0.000000 0.000000 0.000000
# 2 -0.008690 0.028856 -0.004050 0.000000 0.000000 0.000000
# 3 -0.004051 -0.004050 0.008419 0.000000 0.000000 0.000000
# 4 0.000000 0.000000 0.000000 0.034961 0.000000 0.000000
# 5 0.000000 0.000000 0.000000 0.000000 0.034961 0.000000
# 6 0.000000 0.000000 0.000000 0.000000 0.000000 0.018452
#
#
# Mechanical properties :
#
#
# Convention : Reuss Voigt Hill
#
# Bulk Modulus (GPa) = 30.72393 43.16265 36.94329
# Shear Modulus (GPa) = 25.13355 32.86458 28.99907
#
# Velocity S-wave (km/s) = 3.23527 3.69954 3.47517
# Velocity P-wave (km/s) = 5.17214 6.01864 5.61138
#
# Compressibility (1/GPa) = 0.03254792
#
# Stress axis : x y z
#
# Youngs Moduli (GPa) = 34.65513 34.65526 118.77196
#
# Poissons Ratio (x) = 0.30116 0.48113
# Poissons Ratio (y) = 0.30116 0.48107
# Poissons Ratio (z) = 0.14038 0.14037
#
# Static dielectric constant tensor:
#      x y z
#    x 1.987290 0.000000 0.000000 
#    y 0.000000 1.987290 0.000000 
#    z 0.000000 0.000000 1.923730 
# 
# From -- ./inp_files/1259.got.cif
#   From: 2010.05.17/outbox.cif.g08.bks.cpg/sg120_1_cif.got.tgz:1259.got - 2010.05.20 11:28:13.
