data_PCOD9559718
_publ_section_title
;
Structure prediction by ZEFSAII (Michael W. Deem and Ramdas Pophale) SiO2 
 PCOD9559718
Probable space group: I -4 C 2
;
_chemical_formula_sum "Si O2"
_cell_formula_units_Z 96
_cell_length_a 21.163323
_cell_length_b 21.163323
_cell_length_c 11.575501
_cell_angle_alpha 90.000000
_cell_angle_beta 90.000000
_cell_angle_gamma 90.000000
_cell_volume 5184.507624
_symmetry_space_group_name_H-M "I -4 C 2"
_symmetry_group_IT_number 120
_symmetry_cell_setting 'tetragonal'
loop_
_space_group_symop_operation_xyz
x,y,z
y,-x,-z
-x,-y,z
-y,x,-z
y,x,1/2-z
-y,-x,1/2-z
-x,y,1/2+z
x,-y,1/2+z
1/2+x,1/2+y,1/2+z
1/2+y,1/2-x,1/2-z
1/2-x,1/2-y,1/2+z
1/2-y,1/2+x,1/2-z
1/2+y,1/2+x,-z
1/2-y,1/2-x,-z
1/2-x,1/2+y,z
1/2+x,1/2-y,z
loop_
_atom_site_type_symbol
_atom_site_label
_atom_site_fract_x
_atom_site_fract_y
_atom_site_fract_z
Si Si1 0.401472 0.619543 0.947365
Si Si2 0.170620 0.545381 0.740707
Si Si3 0.891223 0.033794 0.660797
Si Si4 0.555558 0.752948 0.479096
Si Si5 0.426869 0.126398 0.612551
Si Si6 0.801424 0.964613 0.833188
O O1 0.471692 0.595131 0.914976
O O2 0.400981 0.695551 0.935500
O O3 0.353867 0.586295 0.860443
O O4 0.383930 0.592970 0.074126
O O5 0.202803 0.523649 0.618754
O O6 0.136251 0.492916 0.819688
O O7 0.122621 0.599573 0.704266
O O8 0.234384 0.566154 0.803799
O O9 0.945225 0.054776 0.750000
O O10 0.830171 0.012027 0.736408
O O11 0.588826 0.804336 0.561545
O O12 0.505259 0.714371 0.553861
O O13 0.420257 0.079744 0.500000
#
# Coordination Sequence:
#
# PCOD9559718 Si02
#       6
#    16  16  16  16  16  16
#     4  12  22  35  54  87 123 167 219 260 309 374
#     4  10  20  40  65  91 119 158 196 253 325 381
#     4  12  23  35  51  83 124 165 210 269 309 356
#     4  10  20  38  59  86 123 167 208 249 311 382
#     4   9  21  40  67  94 122 154 197 249 314 397
#     4  11  21  36  57  84 122 168 206 259 318 367
#
# _framework density 18.516705000000002
#
# number of rings (size 3 to 8) (size 9 to 14) (size 15 to 20)
#    0.000    1.333    5.000    0.500    0.000    4.667 
#    0.000   10.000    0.000   32.000    0.000    0.000 
#    0.000    0.000    0.000    0.000    0.000    0.000 
#
# Total GULP energy -267240.237657 kJ/mol
# GULP energy per Si atom -5567.504951 kJ/mol
# Density = 1.847456 g / cm^3
# Si number density = 18.516705 Si / 1000 Ang^3
#
#
#
# Elastic Constant Matrix: (Units=GPa)
#
#
# Indices 1 2 3 4 5 6 
#
# 1 76.7179 65.7860 39.2892 0.0000 0.0000 0.0000
# 2 65.7860 76.7196 39.2888 0.0000 0.0000 0.0000
# 3 39.2892 39.2888 79.7943 0.0000 0.0000 0.0000
# 4 0.0000 0.0000 0.0000 34.7970 0.0000 0.0000
# 5 0.0000 0.0000 0.0000 0.0000 34.7970 0.0000
# 6 0.0000 0.0000 0.0000 0.0000 0.0000 12.4875
#
#
#
# Elastic Compliance Matrix: (Units=1/GPa)
#
#
# Indices 1 2 3 4 5 6 
#
# 1 0.050551 -0.040918 -0.004744 0.000000 0.000000 0.000000
# 2 -0.040918 0.050549 -0.004742 0.000000 0.000000 0.000000
# 3 -0.004744 -0.004742 0.017203 0.000000 0.000000 0.000000
# 4 0.000000 0.000000 0.000000 0.028738 0.000000 0.000000
# 5 0.000000 0.000000 0.000000 0.000000 0.028738 0.000000
# 6 0.000000 0.000000 0.000000 0.000000 0.000000 0.080080
#
#
# Mechanical properties :
#
#
# Convention : Reuss Voigt Hill
#
# Bulk Modulus (GPa) = 57.15446 57.99553 57.57500
# Shear Modulus (GPa) = 13.79315 22.34082 18.06698
#
# Velocity S-wave (km/s) = 2.73225 3.47727 3.12703
# Velocity P-wave (km/s) = 6.39430 6.89279 6.64822
#
# Compressibility (1/GPa) = 0.01749645
#
# Stress axis : x y z
#
# Youngs Moduli (GPa) = 19.78194 19.78266 58.13012
#
# Poissons Ratio (x) = 0.80946 0.27574
# Poissons Ratio (y) = 0.80943 0.27567
# Poissons Ratio (z) = 0.09384 0.09381
#
# Static dielectric constant tensor:
#      x y z
#    x 1.636590 0.000000 0.000000 
#    y 0.000000 1.636590 0.000000 
#    z 0.000000 0.000000 1.771130 
# 
# From -- ./inp_files/2721.got.cif
#   From: 2010.05.17/outbox.cif.g08.bks.cpg/sg120_2_cif.got.tgz:2721.got - 2010.05.20 11:28:13.
