data_PCOD9559102
_publ_section_title
;
Structure prediction by ZEFSAII (Michael W. Deem and Ramdas Pophale) SiO2 
 PCOD9559102
Probable space group: I -4 M 2
;
_chemical_formula_sum "Si O2"
_cell_formula_units_Z 96
_cell_length_a 17.205145
_cell_length_b 17.205145
_cell_length_c 19.225130
_cell_angle_alpha 90.000000
_cell_angle_beta 90.000000
_cell_angle_gamma 90.000000
_cell_volume 5690.965585
_symmetry_space_group_name_H-M "I -4 M 2"
_symmetry_group_IT_number 119
_symmetry_cell_setting 'tetragonal'
loop_
_space_group_symop_operation_xyz
x,y,z
y,-x,-z
-x,-y,z
-y,x,-z
y,x,-z
-y,-x,-z
-x,y,z
x,-y,z
1/2+x,1/2+y,1/2+z
1/2+y,1/2-x,1/2-z
1/2-x,1/2-y,1/2+z
1/2-y,1/2+x,1/2-z
1/2+y,1/2+x,1/2-z
1/2-y,1/2-x,1/2-z
1/2-x,1/2+y,1/2+z
1/2+x,1/2-y,1/2+z
loop_
_atom_site_type_symbol
_atom_site_label
_atom_site_fract_x
_atom_site_fract_y
_atom_site_fract_z
Si Si1 0.345107 0.587663 0.207104
Si Si2 0.294691 0.805493 0.052565
Si Si3 0.412845 0.907600 0.967004
Si Si4 0.305950 0.717588 0.307544
Si Si5 0.667137 0.871167 0.677866
Si Si6 0.660571 0.409748 0.930314
O O1 0.362065 0.500000 0.229135
O O2 0.354233 0.651437 0.267926
O O3 0.253561 0.594052 0.185937
O O4 0.393047 0.610690 0.138705
O O5 0.254958 0.837488 0.122348
O O6 0.352079 0.734323 0.073146
O O7 0.231546 0.768455 0.000000
O O8 0.347401 0.867425 0.013174
O O9 0.500000 0.887621 0.991754
O O10 0.403377 0.875060 0.889045
O O11 0.404632 0.000000 0.966725
O O12 0.282266 0.782266 0.250000
O O13 0.222013 0.680461 0.328559
O O14 0.620443 0.879557 0.750000
O O15 0.682730 0.500000 0.934168
O O16 0.614077 0.385924 0.000000
#
# Coordination Sequence:
#
# PCOD9559102 Si02
#       6
#    16  16  16  16  16  16
#     4  10  19  32  52  81 111 139 168 209 264 323
#     4  11  19  37  57  76 100 141 188 220 256 317
#     4  11  23  35  50  79 115 145 177 225 276 317
#     4   9  17  34  54  76 100 133 179 217 251 302
#     4   9  17  32  53  76 107 144 172 205 252 325
#     4  11  21  32  51  77 108 144 174 208 261 324
#
# _framework density 16.868842999999998
#
# number of rings (size 3 to 8) (size 9 to 14) (size 15 to 20)
#    0.000    2.167    5.000    2.500    0.000    4.500 
#    0.000    1.667    0.000    0.000    0.000    1.167 
#    0.000    0.333    0.000    0.000    0.000    0.000 
#
# Total GULP energy -267732.809096 kJ/mol
# GULP energy per Si atom -5577.766856 kJ/mol
# Density = 1.683045 g / cm^3
# Si number density = 16.868843 Si / 1000 Ang^3
#
#
#
# Elastic Constant Matrix: (Units=GPa)
#
#
# Indices 1 2 3 4 5 6 
#
# 1 39.7916 19.3112 44.0548 0.0000 0.0000 0.0000
# 2 19.3112 39.7907 44.0540 0.0000 0.0000 0.0000
# 3 44.0548 44.0540 129.4751 0.0000 0.0000 0.0000
# 4 0.0000 0.0000 0.0000 12.7666 0.0000 0.0000
# 5 0.0000 0.0000 0.0000 0.0000 12.7657 0.0000
# 6 0.0000 0.0000 0.0000 0.0000 0.0000 16.8476
#
#
#
# Elastic Compliance Matrix: (Units=1/GPa)
#
#
# Indices 1 2 3 4 5 6 
#
# 1 0.041582 -0.007246 -0.011683 0.000000 0.000000 0.000000
# 2 -0.007246 0.041583 -0.011683 0.000000 0.000000 0.000000
# 3 -0.011683 -0.011683 0.015674 0.000000 0.000000 0.000000
# 4 0.000000 0.000000 0.000000 0.078329 0.000000 0.000000
# 5 0.000000 0.000000 0.000000 0.000000 0.078335 0.000000
# 6 0.000000 0.000000 0.000000 0.000000 0.000000 0.059355
#
#
# Mechanical properties :
#
#
# Convention : Reuss Voigt Hill
#
# Bulk Modulus (GPa) = 26.58514 47.09971 36.84243
# Shear Modulus (GPa) = 12.86597 15.25182 14.05889
#
# Velocity S-wave (km/s) = 2.76471 3.01016 2.89004
# Velocity P-wave (km/s) = 5.09761 6.32954 5.74668
#
# Compressibility (1/GPa) = 0.03761499
#
# Stress axis : x y z
#
# Youngs Moduli (GPa) = 24.04861 24.04833 63.79954
#
# Poissons Ratio (x) = 0.17424 0.74540
# Poissons Ratio (y) = 0.17425 0.74539
# Poissons Ratio (z) = 0.28097 0.28096
#
# Static dielectric constant tensor:
#      x y z
#    x 1.564370 0.000000 0.000000 
#    y 0.000000 1.564370 0.000000 
#    z 0.000000 0.000000 1.580070 
# 
# From -- ./inp_files/6639.got.cif
#   From: 2010.05.17/outbox.cif.g08.bks.cpg/sg119_4_cif.got.tgz:6639.got - 2010.05.20 11:21:29.
