data_PCOD9559729
_publ_section_title
;
Structure prediction by ZEFSAII (Michael W. Deem and Ramdas Pophale) SiO2 
 PCOD9559729
Probable space group: I -4 C 2
;
_chemical_formula_sum "Si O2"
_cell_formula_units_Z 40
_cell_length_a 9.928650
_cell_length_b 9.928650
_cell_length_c 18.160658
_cell_angle_alpha 90.000000
_cell_angle_beta 90.000000
_cell_angle_gamma 90.000000
_cell_volume 1790.242994
_symmetry_space_group_name_H-M "I -4 C 2"
_symmetry_group_IT_number 120
_symmetry_cell_setting 'tetragonal'
loop_
_space_group_symop_operation_xyz
x,y,z
y,-x,-z
-x,-y,z
-y,x,-z
y,x,1/2-z
-y,-x,1/2-z
-x,y,1/2+z
x,-y,1/2+z
1/2+x,1/2+y,1/2+z
1/2+y,1/2-x,1/2-z
1/2-x,1/2-y,1/2+z
1/2-y,1/2+x,1/2-z
1/2+y,1/2+x,-z
1/2-y,1/2-x,-z
1/2-x,1/2+y,z
1/2+x,1/2-y,z
loop_
_atom_site_type_symbol
_atom_site_label
_atom_site_fract_x
_atom_site_fract_y
_atom_site_fract_z
Si Si1 0.347657 0.379328 0.878718
Si Si2 0.940940 0.641102 0.915407
Si Si3 0.000000 0.000000 0.750000
Si Si4 0.000000 0.000000 0.000000
O O1 0.198660 0.323566 0.876274
O O2 0.452569 0.258958 0.897630
O O3 0.380982 0.469596 0.807796
O O4 0.372959 0.479451 0.947483
O O5 0.000000 0.500000 0.886874
O O6 0.895182 0.604819 0.000000
#
# Coordination Sequence:
#
# PCOD9559729 Si02
#       4
#    16  16   4   4
#     4  11  24  46  69 104 145 193 249 306 372 445
#     4  11  26  42  74 111 143 189 258 314 372 445
#     4  10  28  46  72  98 150 208 236 298 384 446
#     4  10  20  38  72  90 140 194 240 306 360 418
#
# _framework density 22.343336999999998
#
# number of rings (size 3 to 8) (size 9 to 14) (size 15 to 20)
#    0.000    1.200    4.000    0.000   16.800    1.600 
#    0.000    0.000    0.000    0.000    0.000    0.000 
#    0.000    0.000    0.000    0.000    0.000    0.000 
#
# Total GULP energy -111439.377318 kJ/mol
# GULP energy per Si atom -5571.968866 kJ/mol
# Density = 2.229248 g / cm^3
# Si number density = 22.343337 Si / 1000 Ang^3
#
#
#
# Elastic Constant Matrix: (Units=GPa)
#
#
# Indices 1 2 3 4 5 6 
#
# 1 132.0165 55.0817 29.9006 0.0000 0.0000 0.0000
# 2 55.0817 132.0164 29.9008 0.0000 0.0000 0.0000
# 3 29.9006 29.9008 95.4571 0.0000 0.0000 0.0000
# 4 0.0000 0.0000 0.0000 9.7145 0.0000 0.0000
# 5 0.0000 0.0000 0.0000 0.0000 9.7146 0.0000
# 6 0.0000 0.0000 0.0000 0.0000 0.0000 47.2646
#
#
#
# Elastic Compliance Matrix: (Units=1/GPa)
#
#
# Indices 1 2 3 4 5 6 
#
# 1 0.009469 -0.003529 -0.001860 0.000000 0.000000 0.000000
# 2 -0.003529 0.009469 -0.001860 0.000000 0.000000 0.000000
# 3 -0.001860 -0.001860 0.011641 0.000000 0.000000 0.000000
# 4 0.000000 0.000000 0.000000 0.102939 0.000000 0.000000
# 5 0.000000 0.000000 0.000000 0.000000 0.102938 0.000000
# 6 0.000000 0.000000 0.000000 0.000000 0.000000 0.021157
#
#
# Mechanical properties :
#
#
# Convention : Reuss Voigt Hill
#
# Bulk Modulus (GPa) = 62.19485 65.47292 63.83389
# Shear Modulus (GPa) = 18.01975 29.64585 23.83280
#
# Velocity S-wave (km/s) = 2.84296 3.64652 3.26952
# Velocity P-wave (km/s) = 6.21876 6.86267 6.54863
#
# Compressibility (1/GPa) = 0.01607850
#
# Stress axis : x y z
#
# Youngs Moduli (GPa) = 105.61086 105.61069 85.90004
#
# Poissons Ratio (x) = 0.37273 0.15981
# Poissons Ratio (y) = 0.37273 0.15981
# Poissons Ratio (z) = 0.19648 0.19649
#
# Static dielectric constant tensor:
#      x y z
#    x 1.870520 0.000000 0.000000 
#    y 0.000000 1.870520 0.000000 
#    z 0.000000 0.000000 1.896500 
# 
# From -- ./inp_files/3897.got.cif
#   From: 2010.05.17/outbox.cif.g08.bks.cpg/sg120_2_cif.got.tgz:3897.got - 2010.05.20 11:28:13.
