data_PCOD9559388
_publ_section_title
;
Structure prediction by ZEFSAII (Michael W. Deem and Ramdas Pophale) SiO2 
 PCOD9559388
Probable space group: I -4 M 2
;
_chemical_formula_sum "Si O2"
_cell_formula_units_Z 112
_cell_length_a 27.494937
_cell_length_b 27.494937
_cell_length_c 7.234907
_cell_angle_alpha 90.000000
_cell_angle_beta 90.000000
_cell_angle_gamma 90.000000
_cell_volume 5469.383936
_symmetry_space_group_name_H-M "I -4 M 2"
_symmetry_group_IT_number 119
_symmetry_cell_setting 'tetragonal'
loop_
_space_group_symop_operation_xyz
x,y,z
y,-x,-z
-x,-y,z
-y,x,-z
y,x,-z
-y,-x,-z
-x,y,z
x,-y,z
1/2+x,1/2+y,1/2+z
1/2+y,1/2-x,1/2-z
1/2-x,1/2-y,1/2+z
1/2-y,1/2+x,1/2-z
1/2+y,1/2+x,1/2-z
1/2-y,1/2-x,1/2-z
1/2-x,1/2+y,1/2+z
1/2+x,1/2-y,1/2+z
loop_
_atom_site_type_symbol
_atom_site_label
_atom_site_fract_x
_atom_site_fract_y
_atom_site_fract_z
Si Si1 0.626574 0.444603 0.882862
Si Si2 0.718895 0.055576 0.045256
Si Si3 0.333995 0.444567 0.471544
Si Si4 0.140068 0.441677 0.222789
Si Si5 0.818274 0.112579 0.622179
Si Si6 0.736934 0.814266 0.581363
Si Si7 0.674932 0.886748 0.364579
O O1 0.611701 0.500000 0.898788
O O2 0.639251 0.436056 0.666994
O O3 0.586993 0.413008 0.000000
O O4 0.677432 0.434217 0.990738
O O5 0.775450 0.056799 0.991145
O O6 0.680541 0.068261 0.882596
O O7 0.707441 0.000000 0.098346
O O8 0.711439 0.089871 0.219282
O O9 0.347305 0.500000 0.412498
O O10 0.342013 0.404635 0.313079
O O11 0.130705 0.500000 0.220912
O O12 0.092050 0.407951 0.250000
O O13 0.163076 0.422848 0.031233
O O14 0.848112 0.151889 0.500000
O O15 0.767677 0.138956 0.649255
O O16 0.773525 0.773525 0.500000
O O17 0.709291 0.790710 0.750000
O O18 0.698230 0.836995 0.441299
O O19 0.626795 0.873206 0.250000
#
# Coordination Sequence:
#
# PCOD9559388 Si02
#       7
#    16  16  16  16  16  16  16
#     4  10  22  41  65  98 133 169 218 272 331 397
#     4  10  22  40  65  96 129 170 221 276 333 392
#     4  10  21  39  65  95 129 169 217 272 327 392
#     4  11  23  42  65  96 132 172 225 278 335 406
#     4  10  22  40  62  88 123 170 215 264 320 382
#     4  11  25  45  61  93 132 176 223 274 335 399
#     4  12  23  38  66  93 127 170 212 271 331 396
#
# _framework density 20.477627999999999
#
# number of rings (size 3 to 8) (size 9 to 14) (size 15 to 20)
#    0.000    1.429    1.429    3.429    2.000    2.571 
#    7.714    5.714    0.000    0.857    0.000    4.000 
#    0.000    0.000    0.000    0.000    0.000    0.000 
#
# Total GULP energy -312296.573285 kJ/mol
# GULP energy per Si atom -5576.724523 kJ/mol
# Density = 2.043102 g / cm^3
# Si number density = 20.477628 Si / 1000 Ang^3
#
#
#
# Elastic Constant Matrix: (Units=GPa)
#
#
# Indices 1 2 3 4 5 6 
#
# 1 108.2735 26.1901 57.5062 0.0000 0.0000 0.0000
# 2 26.1901 108.2956 57.5052 0.0000 0.0000 0.0000
# 3 57.5062 57.5052 140.5973 0.0000 0.0000 0.0000
# 4 0.0000 0.0000 0.0000 19.8967 0.0000 0.0000
# 5 0.0000 0.0000 0.0000 0.0000 19.3233 0.0000
# 6 0.0000 0.0000 0.0000 0.0000 0.0000 36.0483
#
#
#
# Elastic Compliance Matrix: (Units=1/GPa)
#
#
# Indices 1 2 3 4 5 6 
#
# 1 0.011811 -0.000372 -0.004679 0.000000 0.000000 0.000000
# 2 -0.000372 0.011808 -0.004677 0.000000 0.000000 0.000000
# 3 -0.004679 -0.004677 0.010939 0.000000 0.000000 0.000000
# 4 0.000000 0.000000 0.000000 0.050260 0.000000 0.000000
# 5 0.000000 0.000000 0.000000 0.000000 0.051751 0.000000
# 6 0.000000 0.000000 0.000000 0.000000 0.000000 0.027741
#
#
# Mechanical properties :
#
#
# Convention : Reuss Voigt Hill
#
# Bulk Modulus (GPa) = 66.21708 71.06329 68.64018
# Shear Modulus (GPa) = 26.48331 29.45133 27.96732
#
# Velocity S-wave (km/s) = 3.60012 3.79650 3.69961
# Velocity P-wave (km/s) = 7.04895 7.34821 7.20013
#
# Compressibility (1/GPa) = 0.01510184
#
# Stress axis : x y z
#
# Youngs Moduli (GPa) = 84.66864 84.69152 91.41471
#
# Poissons Ratio (x) = 0.03150 0.42770
# Poissons Ratio (y) = 0.03149 0.42757
# Poissons Ratio (z) = 0.39613 0.39612
#
# Static dielectric constant tensor:
#      x y z
#    x 1.920590 0.000000 0.000000 
#    y 0.000000 1.915220 0.000000 
#    z 0.000000 0.000000 1.734280 
# 
# From -- ./inp_files/1234.got.cif
#   From: 2010.05.17/outbox.cif.g08.bks.cpg/sg119_1_cif.got.tgz:1234.got - 2010.05.20 11:21:29.
