data_PCOD9559427
_publ_section_title
;
Structure prediction by ZEFSAII (Michael W. Deem and Ramdas Pophale) SiO2 
 PCOD9559427
Probable space group: I -4 M 2
;
_chemical_formula_sum "Si O2"
_cell_formula_units_Z 38
_cell_length_a 9.863757
_cell_length_b 9.863757
_cell_length_c 20.650617
_cell_angle_alpha 90.000000
_cell_angle_beta 90.000000
_cell_angle_gamma 90.000000
_cell_volume 2009.174980
_symmetry_space_group_name_H-M "I -4 M 2"
_symmetry_group_IT_number 119
_symmetry_cell_setting 'tetragonal'
loop_
_space_group_symop_operation_xyz
x,y,z
y,-x,-z
-x,-y,z
-y,x,-z
y,x,-z
-y,-x,-z
-x,y,z
x,-y,z
1/2+x,1/2+y,1/2+z
1/2+y,1/2-x,1/2-z
1/2-x,1/2-y,1/2+z
1/2-y,1/2+x,1/2-z
1/2+y,1/2+x,1/2-z
1/2-y,1/2-x,1/2-z
1/2-x,1/2+y,1/2+z
1/2+x,1/2-y,1/2+z
loop_
_atom_site_type_symbol
_atom_site_label
_atom_site_fract_x
_atom_site_fract_y
_atom_site_fract_z
Si Si1 0.258695 0.658191 0.071152
Si Si2 0.656130 0.500000 0.403075
Si Si3 0.500000 0.000000 0.250000
Si Si4 0.000000 0.000000 0.777203
Si Si5 0.000000 0.773154 0.669565
O O1 0.220953 0.500000 0.079586
O O2 0.131173 0.758464 0.077220
O O3 0.369723 0.698545 0.124759
O O4 0.322104 0.677897 0.000000
O O5 0.500000 0.500000 0.428216
O O6 0.628330 0.500000 0.325624
O O7 0.626722 0.000000 0.298338
O O8 0.000000 0.126983 0.730390
#
# Coordination Sequence:
#
# PCOD9559427 Si02
#       5
#    16   8   2   4   8
#     4  12  25  45  72 102 137 182 229 284 347 410
#     4  10  27  45  67 104 137 179 226 281 347 402
#     4  12  28  40  72 108 132 184 244 278 356 400
#     4  10  22  48  70  92 146 180 220 278 340 402
#     4  12  24  45  73  99 141 179 231 290 329 417
#
# _framework density 18.913235
#
# number of rings (size 3 to 8) (size 9 to 14) (size 15 to 20)
#    0.632    0.000    4.211    3.158    5.895    0.000 
#    0.000    0.000    4.632    0.000    0.000    0.000 
#    0.000    0.000    0.000    0.000    0.000    0.000 
#
# Total GULP energy -106155.972149 kJ/mol
# GULP energy per Si atom -5587.156429 kJ/mol
# Density = 1.887019 g / cm^3
# Si number density = 18.913235 Si / 1000 Ang^3
#
#
#
# Elastic Constant Matrix: (Units=GPa)
#
#
# Indices 1 2 3 4 5 6 
#
# 1 171.2193 73.7561 47.5029 0.0000 0.0000 0.0000
# 2 73.7561 171.2194 47.5030 0.0000 0.0000 0.0000
# 3 47.5029 47.5030 134.6986 0.0000 0.0000 0.0000
# 4 0.0000 0.0000 0.0000 64.6030 0.0000 0.0000
# 5 0.0000 0.0000 0.0000 0.0000 64.6026 0.0000
# 6 0.0000 0.0000 0.0000 0.0000 0.0000 44.7031
#
#
#
# Elastic Compliance Matrix: (Units=1/GPa)
#
#
# Indices 1 2 3 4 5 6 
#
# 1 0.007495 -0.002766 -0.001668 0.000000 0.000000 0.000000
# 2 -0.002766 0.007495 -0.001668 0.000000 0.000000 0.000000
# 3 -0.001668 -0.001668 0.008600 0.000000 0.000000 0.000000
# 4 0.000000 0.000000 0.000000 0.015479 0.000000 0.000000
# 5 0.000000 0.000000 0.000000 0.000000 0.015479 0.000000
# 6 0.000000 0.000000 0.000000 0.000000 0.000000 0.022370
#
#
# Mechanical properties :
#
#
# Convention : Reuss Voigt Hill
#
# Bulk Modulus (GPa) = 87.81820 90.51791 89.16806
# Shear Modulus (GPa) = 53.81241 55.34009 54.57625
#
# Velocity S-wave (km/s) = 5.33985 5.41512 5.37762
# Velocity P-wave (km/s) = 9.19520 9.33067 9.26318
#
# Compressibility (1/GPa) = 0.01138716
#
# Stress axis : x y z
#
# Youngs Moduli (GPa) = 133.43063 133.43063 116.27610
#
# Poissons Ratio (x) = 0.36903 0.19391
# Poissons Ratio (y) = 0.36903 0.19391
# Poissons Ratio (z) = 0.22252 0.22252
#
# Static dielectric constant tensor:
#      x y z
#    x 1.608560 0.000000 0.000000 
#    y 0.000000 1.608560 0.000000 
#    z 0.000000 0.000000 1.631890 
# 
# From -- ./inp_files/8258.got.cif
#   From: 2010.05.17/outbox.cif.g08.bks.cpg/sg119_5_cif.got.tgz:8258.got - 2010.05.20 11:21:29.
