data_PCOD9559258
_publ_section_title
;
Structure prediction by ZEFSAII (Michael W. Deem and Ramdas Pophale) SiO2 
 PCOD9559258
Probable space group: I -4 M 2
;
_chemical_formula_sum "Si O2"
_cell_formula_units_Z 112
_cell_length_a 14.615525
_cell_length_b 14.615525
_cell_length_c 27.992918
_cell_angle_alpha 90.000000
_cell_angle_beta 90.000000
_cell_angle_gamma 90.000000
_cell_volume 5979.667177
_symmetry_space_group_name_H-M "I -4 M 2"
_symmetry_group_IT_number 119
_symmetry_cell_setting 'tetragonal'
loop_
_space_group_symop_operation_xyz
x,y,z
y,-x,-z
-x,-y,z
-y,x,-z
y,x,-z
-y,-x,-z
-x,y,z
x,-y,z
1/2+x,1/2+y,1/2+z
1/2+y,1/2-x,1/2-z
1/2-x,1/2-y,1/2+z
1/2-y,1/2+x,1/2-z
1/2+y,1/2+x,1/2-z
1/2-y,1/2-x,1/2-z
1/2-x,1/2+y,1/2+z
1/2+x,1/2-y,1/2+z
loop_
_atom_site_type_symbol
_atom_site_label
_atom_site_fract_x
_atom_site_fract_y
_atom_site_fract_z
Si Si1 0.608172 0.608918 0.142267
Si Si2 0.760782 0.272955 0.193619
Si Si3 0.401076 0.301696 0.038993
Si Si4 0.895008 0.786644 0.877344
Si Si5 0.253200 0.607389 0.442383
Si Si6 0.847119 0.600725 0.539029
Si Si7 0.610094 0.894326 0.633586
O O1 0.500000 0.617690 0.153573
O O2 0.630204 0.500000 0.143104
O O3 0.671886 0.670269 0.176125
O O4 0.621423 0.652333 0.089582
O O5 0.760059 0.260059 0.250000
O O6 0.771972 0.175358 0.166347
O O7 0.844608 0.337402 0.176323
O O8 0.500000 0.338228 0.023818
O O9 0.404489 0.192482 0.040236
O O10 0.327980 0.327980 0.000000
O O11 0.839714 0.849504 0.915422
O O12 0.903811 0.694722 0.908201
O O13 0.000000 0.816639 0.865973
O O14 0.262263 0.500000 0.434126
O O15 0.230989 0.616802 0.498377
O O16 0.161820 0.638801 0.413868
O O17 0.887178 0.500000 0.527450
O O18 0.500000 0.893048 0.636820
O O19 0.639485 0.000000 0.632207
#
# Coordination Sequence:
#
# PCOD9559258 Si02
#       7
#    16  16  16  16  16  16  16
#     4  10  22  41  63  89 122 157 196 243 296 356
#     4  11  23  39  61  84 111 149 196 250 306 355
#     4  11  22  36  58  89 126 164 201 241 287 350
#     4  10  20  36  57  81 110 149 195 243 296 349
#     4   9  18  32  52  82 119 156 193 233 280 344
#     4  10  20  35  56  84 121 159 196 239 287 344
#     4   9  19  35  55  83 119 153 186 228 282 351
#
# _framework density 18.730139000000001
#
# number of rings (size 3 to 8) (size 9 to 14) (size 15 to 20)
#    0.000    2.000    1.429    2.143    2.000    3.571 
#    0.000    2.143    0.000    3.000    0.000    1.000 
#    0.000    0.000    0.000    0.000    0.000    0.000 
#
# Total GULP energy -311992.179966 kJ/mol
# GULP energy per Si atom -5571.288928 kJ/mol
# Density = 1.868751 g / cm^3
# Si number density = 18.730139 Si / 1000 Ang^3
#
#
#
# Elastic Constant Matrix: (Units=GPa)
#
#
# Indices 1 2 3 4 5 6 
#
# 1 120.2335 43.7181 43.6097 0.0000 0.0000 0.0000
# 2 43.7181 120.2335 43.6097 0.0000 0.0000 0.0000
# 3 43.6097 43.6097 98.6621 0.0000 0.0000 0.0000
# 4 0.0000 0.0000 0.0000 15.0710 0.0000 0.0000
# 5 0.0000 0.0000 0.0000 0.0000 15.0710 0.0000
# 6 0.0000 0.0000 0.0000 0.0000 0.0000 22.2665
#
#
#
# Elastic Compliance Matrix: (Units=1/GPa)
#
#
# Indices 1 2 3 4 5 6 
#
# 1 0.010522 -0.002547 -0.003525 0.000000 0.000000 0.000000
# 2 -0.002547 0.010522 -0.003525 0.000000 0.000000 0.000000
# 3 -0.003525 -0.003525 0.013252 0.000000 0.000000 0.000000
# 4 0.000000 0.000000 0.000000 0.066353 0.000000 0.000000
# 5 0.000000 0.000000 0.000000 0.000000 0.066353 0.000000
# 6 0.000000 0.000000 0.000000 0.000000 0.000000 0.044911
#
#
# Mechanical properties :
#
#
# Convention : Reuss Voigt Hill
#
# Bulk Modulus (GPa) = 66.21919 66.77822 66.49870
# Shear Modulus (GPa) = 21.17394 24.36112 22.76753
#
# Velocity S-wave (km/s) = 3.36590 3.61035 3.49026
# Velocity P-wave (km/s) = 7.10892 7.28764 7.19884
#
# Compressibility (1/GPa) = 0.01510136
#
# Stress axis : x y z
#
# Youngs Moduli (GPa) = 95.04000 95.04000 75.46246
#
# Poissons Ratio (x) = 0.24210 0.26599
# Poissons Ratio (y) = 0.24210 0.26599
# Poissons Ratio (z) = 0.33500 0.33500
#
# Static dielectric constant tensor:
#      x y z
#    x 1.685290 0.000000 0.000000 
#    y 0.000000 1.685290 0.000000 
#    z 0.000000 0.000000 1.624870 
# 
# From -- ./inp_files/9568.got.cif
#   From: 2010.05.17/outbox.cif.g08.bks.cpg/sg119_5_cif.got.tgz:9568.got - 2010.05.20 11:21:29.
