data_PCOD9559728
_publ_section_title
;
Structure prediction by ZEFSAII (Michael W. Deem and Ramdas Pophale) SiO2 
 PCOD9559728
Probable space group: I -4 C 2
;
_chemical_formula_sum "Si O2"
_cell_formula_units_Z 48
_cell_length_a 13.947135
_cell_length_b 13.947135
_cell_length_c 10.148939
_cell_angle_alpha 90.000000
_cell_angle_beta 90.000000
_cell_angle_gamma 90.000000
_cell_volume 1974.197745
_symmetry_space_group_name_H-M "I -4 C 2"
_symmetry_group_IT_number 120
_symmetry_cell_setting 'tetragonal'
loop_
_space_group_symop_operation_xyz
x,y,z
y,-x,-z
-x,-y,z
-y,x,-z
y,x,1/2-z
-y,-x,1/2-z
-x,y,1/2+z
x,-y,1/2+z
1/2+x,1/2+y,1/2+z
1/2+y,1/2-x,1/2-z
1/2-x,1/2-y,1/2+z
1/2-y,1/2+x,1/2-z
1/2+y,1/2+x,-z
1/2-y,1/2-x,-z
1/2-x,1/2+y,z
1/2+x,1/2-y,z
loop_
_atom_site_type_symbol
_atom_site_label
_atom_site_fract_x
_atom_site_fract_y
_atom_site_fract_z
Si Si1 0.500000 0.500000 0.500000
Si Si2 0.005037 0.812298 0.635413
Si Si3 0.806848 0.193153 0.250000
Si Si4 0.000000 0.500000 0.000000
Si Si5 0.696855 0.954816 0.622864
O O1 0.417839 0.539563 0.403120
O O2 0.038164 0.744578 0.519196
O O3 0.888591 0.822887 0.639173
O O4 0.018254 0.759799 0.775258
O O5 0.846569 0.289824 0.317456
O O6 0.091297 0.493080 0.096267
#
# Coordination Sequence:
#
# PCOD9559728 Si02
#       5
#     4  16   8   4  16
#     4  12  16  38  76 118 160 206 248 350 436 502
#     4  10  20  38  69 109 148 193 253 329 420 482
#     4   8  20  41  60 102 158 172 262 335 394 474
#     4  12  28  50  80  98 160 232 280 328 428 530
#     4  10  23  42  69 107 147 205 270 330 404 509
#
# _framework density 24.313673000000001
#
# number of rings (size 3 to 8) (size 9 to 14) (size 15 to 20)
#    2.000    0.000    3.333    0.000    0.000   10.000 
#    0.000    1.667    0.000    0.000    0.000    0.000 
#    0.000    0.000    0.000    0.000    0.000    0.000 
#
# Total GULP energy -133602.360204 kJ/mol
# GULP energy per Si atom -5566.765009 kJ/mol
# Density = 2.425833 g / cm^3
# Si number density = 24.313673 Si / 1000 Ang^3
#
#
#
# Elastic Constant Matrix: (Units=GPa)
#
#
# Indices 1 2 3 4 5 6 
#
# 1 156.5781 21.5583 57.0372 0.0000 0.0000 0.0000
# 2 21.5583 156.5768 57.0385 0.0000 0.0000 0.0000
# 3 57.0372 57.0385 162.1966 0.0000 0.0000 0.0000
# 4 0.0000 0.0000 0.0000 26.5137 0.0000 0.0000
# 5 0.0000 0.0000 0.0000 0.0000 26.5135 0.0000
# 6 0.0000 0.0000 0.0000 0.0000 0.0000 31.5574
#
#
#
# Elastic Compliance Matrix: (Units=1/GPa)
#
#
# Indices 1 2 3 4 5 6 
#
# 1 0.007326 -0.000081 -0.002548 0.000000 0.000000 0.000000
# 2 -0.000081 0.007326 -0.002548 0.000000 0.000000 0.000000
# 3 -0.002548 -0.002548 0.007957 0.000000 0.000000 0.000000
# 4 0.000000 0.000000 0.000000 0.037716 0.000000 0.000000
# 5 0.000000 0.000000 0.000000 0.000000 0.037717 0.000000
# 6 0.000000 0.000000 0.000000 0.000000 0.000000 0.031688
#
#
# Mechanical properties :
#
#
# Convention : Reuss Voigt Hill
#
# Bulk Modulus (GPa) = 81.58971 82.95774 82.27373
# Shear Modulus (GPa) = 34.68167 39.56475 37.12321
#
# Velocity S-wave (km/s) = 3.78090 4.03831 3.91173
# Velocity P-wave (km/s) = 7.25881 7.47916 7.36981
#
# Compressibility (1/GPa) = 0.01225645
#
# Stress axis : x y z
#
# Youngs Moduli (GPa) = 136.50420 136.50199 125.67035
#
# Poissons Ratio (x) = 0.01099 0.32019
# Poissons Ratio (y) = 0.01099 0.32020
# Poissons Ratio (z) = 0.34779 0.34780
#
# Static dielectric constant tensor:
#      x y z
#    x 2.191290 0.000000 0.000000 
#    y 0.000000 2.191280 0.000000 
#    z 0.000000 0.000000 1.723290 
# 
# From -- ./inp_files/2145.got.cif
#   From: 2010.05.17/outbox.cif.g08.bks.cpg/sg120_2_cif.got.tgz:2145.got - 2010.05.20 11:28:13.
