data_PCOD9559273
_publ_section_title
;
Structure prediction by ZEFSAII (Michael W. Deem and Ramdas Pophale) SiO2 
 PCOD9559273
Probable space group: I -4 M 2
;
_chemical_formula_sum "Si O2"
_cell_formula_units_Z 56
_cell_length_a 16.993351
_cell_length_b 16.993351
_cell_length_c 8.893085
_cell_angle_alpha 90.000000
_cell_angle_beta 90.000000
_cell_angle_gamma 90.000000
_cell_volume 2568.091534
_symmetry_space_group_name_H-M "I -4 M 2"
_symmetry_group_IT_number 119
_symmetry_cell_setting 'tetragonal'
loop_
_space_group_symop_operation_xyz
x,y,z
y,-x,-z
-x,-y,z
-y,x,-z
y,x,-z
-y,-x,-z
-x,y,z
x,-y,z
1/2+x,1/2+y,1/2+z
1/2+y,1/2-x,1/2-z
1/2-x,1/2-y,1/2+z
1/2-y,1/2+x,1/2-z
1/2+y,1/2+x,1/2-z
1/2-y,1/2-x,1/2-z
1/2-x,1/2+y,1/2+z
1/2+x,1/2-y,1/2+z
loop_
_atom_site_type_symbol
_atom_site_label
_atom_site_fract_x
_atom_site_fract_y
_atom_site_fract_z
Si Si1 0.594571 0.594571 0.500000
Si Si2 0.914493 0.405158 0.073084
Si Si3 0.792845 0.156929 0.738488
Si Si4 0.589416 0.763725 0.060932
O O1 0.602632 0.500000 0.542573
O O2 0.613936 0.663563 0.623110
O O3 0.916456 0.500000 0.052226
O O4 0.896572 0.396572 0.250000
O O5 0.000000 0.371455 0.044261
O O6 0.850045 0.373429 0.960116
O O7 0.719202 0.219202 0.750000
O O8 0.768645 0.094726 0.609928
O O9 0.860638 0.209995 0.666638
O O10 0.500000 0.768305 0.110594
#
# Coordination Sequence:
#
# PCOD9559273 Si02
#       4
#     8  16  16  16
#     4  11  24  44  70  96 124 165 220 274 316 367
#     4   8  14  26  47  78 113 148 191 238 282 342
#     4  11  23  40  59  88 125 159 198 252 319 381
#     4  10  20  36  59  83 113 155 199 247 304 369
#
# _framework density 21.806076999999998
#
# number of rings (size 3 to 8) (size 9 to 14) (size 15 to 20)
#    0.000    2.143    0.000    5.143    0.000    0.000 
#    0.000   10.000    0.000    6.857    0.000    0.000 
#    0.000   11.429    0.000    0.000    0.000    0.000 
#
# Total GULP energy -155959.913598 kJ/mol
# GULP energy per Si atom -5569.996914 kJ/mol
# Density = 2.175644 g / cm^3
# Si number density = 21.806077 Si / 1000 Ang^3
#
#
#
# Elastic Constant Matrix: (Units=GPa)
#
#
# Indices 1 2 3 4 5 6 
#
# 1 -56.4369 171.3371 5.2943 0.0000 0.0000 0.0000
# 2 171.3371 -56.4369 5.2943 0.0000 0.0000 0.0000
# 3 5.2943 5.2943 14.8785 0.0000 0.0000 0.0000
# 4 0.0000 0.0000 0.0000 1.0144 0.0000 0.0000
# 5 0.0000 0.0000 0.0000 0.0000 1.0144 0.0000
# 6 0.0000 0.0000 0.0000 0.0000 0.0000 30.8390
#
#
#
# Elastic Compliance Matrix: (Units=1/GPa)
#
#
# Indices 1 2 3 4 5 6 
#
# 1 0.002304 0.006694 -0.003202 0.000000 0.000000 0.000000
# 2 0.006694 0.002304 -0.003202 0.000000 0.000000 0.000000
# 3 -0.003202 -0.003202 0.069490 0.000000 0.000000 0.000000
# 4 0.000000 0.000000 0.000000 0.985784 0.000000 0.000000
# 5 0.000000 0.000000 0.000000 0.000000 0.985784 0.000000
# 6 0.000000 0.000000 0.000000 0.000000 0.000000 0.032426
#
#
# Mechanical properties :
#
#
# Convention : Reuss Voigt Hill
#
# Bulk Modulus (GPa) = 13.39068 29.53955 21.46512
# Shear Modulus (GPa) = 2.37823 -12.08783 -4.85480
#
# Velocity S-wave (km/s) = 1.04546 -2.35698 -1.49371
# Velocity P-wave (km/s) = 2.75889 2.48369 2.62490
#
# Compressibility (1/GPa) = 0.07467878
#
# Stress axis : x y z
#
# Youngs Moduli (GPa) = 434.03194 434.03194 14.39061
#
# Poissons Ratio (x) = -2.90554 0.04608
# Poissons Ratio (y) = -2.90554 0.04608
# Poissons Ratio (z) = 1.38972 1.38972
#
# Static dielectric constant tensor:
#      x y z
#    x 1.843040 0.000000 0.000000 
#    y 0.000000 1.843040 0.000000 
#    z 0.000000 0.000000 1.899710 
# 
# From -- ./inp_files/1999.got.cif
#   From: 2010.05.17/outbox.cif.g08.bks.cpg/sg119_1_cif.got.tgz:1999.got - 2010.05.20 11:21:29.
