data_PCOD9559535
_publ_section_title
;
Structure prediction by ZEFSAII (Michael W. Deem and Ramdas Pophale) SiO2 
 PCOD9559535
Probable space group: I -4 M 2
;
_chemical_formula_sum "Si O2"
_cell_formula_units_Z 26
_cell_length_a 10.671595
_cell_length_b 10.671595
_cell_length_c 8.610967
_cell_angle_alpha 90.000000
_cell_angle_beta 90.000000
_cell_angle_gamma 90.000000
_cell_volume 980.642237
_symmetry_space_group_name_H-M "I -4 M 2"
_symmetry_group_IT_number 119
_symmetry_cell_setting 'tetragonal'
loop_
_space_group_symop_operation_xyz
x,y,z
y,-x,-z
-x,-y,z
-y,x,-z
y,x,-z
-y,-x,-z
-x,y,z
x,-y,z
1/2+x,1/2+y,1/2+z
1/2+y,1/2-x,1/2-z
1/2-x,1/2-y,1/2+z
1/2-y,1/2+x,1/2-z
1/2+y,1/2+x,1/2-z
1/2-y,1/2-x,1/2-z
1/2-x,1/2+y,1/2+z
1/2+x,1/2-y,1/2+z
loop_
_atom_site_type_symbol
_atom_site_label
_atom_site_fract_x
_atom_site_fract_y
_atom_site_fract_z
Si Si1 0.000000 0.500000 0.750000
Si Si2 0.272521 0.772521 0.750000
Si Si3 0.500000 0.215377 0.988794
Si Si4 0.645146 0.500000 0.720436
O O1 0.000000 0.612970 0.626364
O O2 0.379680 0.791512 0.878687
O O3 0.293172 0.633759 0.677487
O O4 0.500000 0.338277 0.094009
O O5 0.500000 0.500000 0.676154
#
# Coordination Sequence:
#
# PCOD9559535 Si02
#       4
#     2   8   8   8
#     4  12  28  50  88 124 192 230 308 372 436 542
#     4  12  27  50  96 127 176 236 301 368 456 537
#     4  12  27  52  86 134 171 240 289 374 438 542
#     4  12  28  53  89 127 174 230 295 369 443 529
#
# _framework density 26.513235999999999
#
# number of rings (size 3 to 8) (size 9 to 14) (size 15 to 20)
#    0.000    0.000    3.077    5.538    4.308    0.615 
#    0.000    9.231    6.769    0.000    0.000    0.000 
#    0.000    0.000    0.000    0.000    0.000    0.000 
#
# Total GULP energy -72858.785970 kJ/mol
# GULP energy per Si atom -5604.521998 kJ/mol
# Density = 2.645289 g / cm^3
# Si number density = 26.513236 Si / 1000 Ang^3
#
#
#
# Elastic Constant Matrix: (Units=GPa)
#
#
# Indices 1 2 3 4 5 6 
#
# 1 257.7520 68.3012 65.4295 0.0000 0.0000 0.0000
# 2 68.3012 257.7520 65.4295 0.0000 0.0000 0.0000
# 3 65.4295 65.4295 168.9369 0.0000 0.0000 0.0000
# 4 0.0000 0.0000 0.0000 63.1399 0.0000 0.0000
# 5 0.0000 0.0000 0.0000 0.0000 63.1399 0.0000
# 6 0.0000 0.0000 0.0000 0.0000 0.0000 44.6433
#
#
#
# Elastic Compliance Matrix: (Units=1/GPa)
#
#
# Indices 1 2 3 4 5 6 
#
# 1 0.004455 -0.000823 -0.001406 0.000000 0.000000 0.000000
# 2 -0.000823 0.004455 -0.001406 0.000000 0.000000 0.000000
# 3 -0.001406 -0.001406 0.007009 0.000000 0.000000 0.000000
# 4 0.000000 0.000000 0.000000 0.015838 0.000000 0.000000
# 5 0.000000 0.000000 0.000000 0.000000 0.015838 0.000000
# 6 0.000000 0.000000 0.000000 0.000000 0.000000 0.022400
#
#
# Mechanical properties :
#
#
# Convention : Reuss Voigt Hill
#
# Bulk Modulus (GPa) = 115.66219 120.30679 117.98449
# Shear Modulus (GPa) = 62.38385 66.53668 64.46026
#
# Velocity S-wave (km/s) = 4.85597 5.01499 4.93612
# Velocity P-wave (km/s) = 8.66946 8.88865 8.77974
#
# Compressibility (1/GPa) = 0.00864587
#
# Stress axis : x y z
#
# Youngs Moduli (GPa) = 224.47004 224.47004 142.67730
#
# Poissons Ratio (x) = 0.18485 0.20067
# Poissons Ratio (y) = 0.18485 0.20067
# Poissons Ratio (z) = 0.31571 0.31571
#
# Static dielectric constant tensor:
#      x y z
#    x 2.204500 0.000000 0.000000 
#    y 0.000000 2.204500 0.000000 
#    z 0.000000 0.000000 1.995060 
# 
# From -- ./inp_files/1341.got.cif
#   From: 2010.05.17/outbox.cif.g08.bks.cpg/sg119_1_cif.got.tgz:1341.got - 2010.05.20 11:21:29.
