data_PCOD9559424
_publ_section_title
;
Structure prediction by ZEFSAII (Michael W. Deem and Ramdas Pophale) SiO2 
 PCOD9559424
Probable space group: I -4 M 2
;
_chemical_formula_sum "Si O2"
_cell_formula_units_Z 46
_cell_length_a 10.023973
_cell_length_b 10.023973
_cell_length_c 26.305907
_cell_angle_alpha 90.000000
_cell_angle_beta 90.000000
_cell_angle_gamma 90.000000
_cell_volume 2643.218448
_symmetry_space_group_name_H-M "I -4 M 2"
_symmetry_group_IT_number 119
_symmetry_cell_setting 'tetragonal'
loop_
_space_group_symop_operation_xyz
x,y,z
y,-x,-z
-x,-y,z
-y,x,-z
y,x,-z
-y,-x,-z
-x,y,z
x,-y,z
1/2+x,1/2+y,1/2+z
1/2+y,1/2-x,1/2-z
1/2-x,1/2-y,1/2+z
1/2-y,1/2+x,1/2-z
1/2+y,1/2+x,1/2-z
1/2-y,1/2-x,1/2-z
1/2-x,1/2+y,1/2+z
1/2+x,1/2-y,1/2+z
loop_
_atom_site_type_symbol
_atom_site_label
_atom_site_fract_x
_atom_site_fract_y
_atom_site_fract_z
Si Si1 0.655971 0.655971 0.000000
Si Si2 0.761891 0.000000 0.320937
Si Si3 0.345152 0.500000 0.355555
Si Si4 0.000000 0.500000 0.750000
Si Si5 0.161540 0.744626 0.388313
Si Si6 0.000000 0.000000 0.757617
O O1 0.684218 0.734869 0.948595
O O2 0.674781 0.500000 0.987502
O O3 0.788610 0.127380 0.356710
O O4 0.873147 0.000000 0.277657
O O5 0.625054 0.000000 0.288967
O O6 0.500000 0.500000 0.376316
O O7 0.255666 0.625072 0.370801
O O8 0.373728 0.500000 0.295258
O O9 0.000000 0.727507 0.380749
#
# Coordination Sequence:
#
# PCOD9559424 Si02
#       6
#     8   8   8   2  16   4
#     4   9  18  36  65  96 118 152 209 262 299 364
#     4  12  22  42  65  95 117 169 211 257 311 365
#     4  10  25  43  58  87 137 159 202 260 309 375
#     4  12  28  36  64  88 144 160 208 260 316 378
#     4  11  21  41  67  93 123 163 208 259 314 368
#     4  10  22  44  62  86 124 164 210 256 296 366
#
# _framework density 17.403027000000002
#
# number of rings (size 3 to 8) (size 9 to 14) (size 15 to 20)
#    0.522    0.870    3.478    2.609    2.435    0.000 
#    3.130    0.000    3.826    0.000    0.000    0.000 
#    0.000    0.000    0.000    0.000    0.000    0.000 
#
# Total GULP energy -128169.300403 kJ/mol
# GULP energy per Si atom -5572.578278 kJ/mol
# Density = 1.736342 g / cm^3
# Si number density = 17.403027 Si / 1000 Ang^3
#
#
#
# Elastic Constant Matrix: (Units=GPa)
#
#
# Indices 1 2 3 4 5 6 
#
# 1 152.9292 87.7250 73.3517 0.0000 0.0000 0.0000
# 2 87.7250 152.9292 73.3517 0.0000 0.0000 0.0000
# 3 73.3517 73.3517 127.2968 0.0000 0.0000 0.0000
# 4 0.0000 0.0000 0.0000 54.4346 0.0000 0.0000
# 5 0.0000 0.0000 0.0000 0.0000 54.4346 0.0000
# 6 0.0000 0.0000 0.0000 0.0000 0.0000 21.1584
#
#
#
# Elastic Compliance Matrix: (Units=1/GPa)
#
#
# Indices 1 2 3 4 5 6 
#
# 1 0.010871 -0.004466 -0.003691 0.000000 0.000000 0.000000
# 2 -0.004466 0.010871 -0.003691 0.000000 0.000000 0.000000
# 3 -0.003691 -0.003691 0.012109 0.000000 0.000000 0.000000
# 4 0.000000 0.000000 0.000000 0.018371 0.000000 0.000000
# 5 0.000000 0.000000 0.000000 0.000000 0.018371 0.000000
# 6 0.000000 0.000000 0.000000 0.000000 0.000000 0.047263
#
#
# Mechanical properties :
#
#
# Convention : Reuss Voigt Hill
#
# Bulk Modulus (GPa) = 98.46150 100.22357 99.34254
# Shear Modulus (GPa) = 34.49820 39.25397 36.87608
#
# Velocity S-wave (km/s) = 4.45714 4.75445 4.60820
# Velocity P-wave (km/s) = 9.12076 9.37307 9.24778
#
# Compressibility (1/GPa) = 0.01015625
#
# Stress axis : x y z
#
# Youngs Moduli (GPa) = 91.98887 91.98887 82.58147
#
# Poissons Ratio (x) = 0.41078 0.30480
# Poissons Ratio (y) = 0.41078 0.30480
# Poissons Ratio (z) = 0.33952 0.33952
#
# Static dielectric constant tensor:
#      x y z
#    x 1.576030 0.000000 0.000000 
#    y 0.000000 1.576030 0.000000 
#    z 0.000000 0.000000 1.587110 
# 
# From -- ./inp_files/9840.got.cif
#   From: 2010.05.17/outbox.cif.g08.bks.cpg/sg119_5_cif.got.tgz:9840.got - 2010.05.20 11:21:29.
