data_PCOD9559677
_publ_section_title
;
Structure prediction by ZEFSAII (Michael W. Deem and Ramdas Pophale) SiO2 
 PCOD9559677
Probable space group: I -4 C 2
;
_chemical_formula_sum "Si O2"
_cell_formula_units_Z 104
_cell_length_a 17.735946
_cell_length_b 17.735946
_cell_length_c 19.065421
_cell_angle_alpha 90.000000
_cell_angle_beta 90.000000
_cell_angle_gamma 90.000000
_cell_volume 5997.290907
_symmetry_space_group_name_H-M "I -4 C 2"
_symmetry_group_IT_number 120
_symmetry_cell_setting 'tetragonal'
loop_
_space_group_symop_operation_xyz
x,y,z
y,-x,-z
-x,-y,z
-y,x,-z
y,x,1/2-z
-y,-x,1/2-z
-x,y,1/2+z
x,-y,1/2+z
1/2+x,1/2+y,1/2+z
1/2+y,1/2-x,1/2-z
1/2-x,1/2-y,1/2+z
1/2-y,1/2+x,1/2-z
1/2+y,1/2+x,-z
1/2-y,1/2-x,-z
1/2-x,1/2+y,z
1/2+x,1/2-y,z
loop_
_atom_site_type_symbol
_atom_site_label
_atom_site_fract_x
_atom_site_fract_y
_atom_site_fract_z
Si Si1 0.008584 0.622364 0.755352
Si Si2 0.760887 0.137345 0.996609
Si Si3 0.275798 0.109257 0.338422
Si Si4 0.417693 0.580551 0.530752
Si Si5 0.882315 0.038489 0.185489
Si Si6 0.717483 0.913461 0.645818
Si Si7 0.623660 0.376341 0.250000
O O1 0.074210 0.562571 0.771690
O O2 0.039711 0.680313 0.697550
O O3 0.979276 0.664746 0.824292
O O4 0.742788 0.102201 0.920809
O O5 0.717952 0.217952 0.000000
O O6 0.850541 0.137414 0.010699
O O7 0.727545 0.089672 0.061964
O O8 0.334180 0.179331 0.332801
O O9 0.199278 0.121400 0.295850
O O10 0.499864 0.602934 0.503970
O O11 0.420892 0.563252 0.613195
O O12 0.926547 0.073454 0.250000
O O13 0.798530 0.072541 0.180032
O O14 0.878582 0.949134 0.199075
#
# Coordination Sequence:
#
# PCOD9559677 Si02
#       7
#    16  16  16  16  16  16   8
#     4   9  17  33  57  83 110 139 177 225 275 323
#     4   9  19  37  58  77 109 146 183 220 271 327
#     4  10  20  34  58  81 109 144 184 223 273 325
#     4  10  22  36  56  79 109 147 180 217 270 325
#     4  11  24  36  54  79 114 138 179 226 266 314
#     4   9  19  38  55  83 108 143 177 227 273 326
#     4  12  23  34  56  84 108 145 182 230 260 328
#
# _framework density 17.341163999999999
#
# number of rings (size 3 to 8) (size 9 to 14) (size 15 to 20)
#    0.000    2.154    1.538    1.154    7.538    0.000 
#    0.000    0.769    0.000    4.615    0.000    0.000 
#    0.000    0.000    0.000    0.000    0.000    0.000 
#
# Total GULP energy -289946.487486 kJ/mol
# GULP energy per Si atom -5575.893990 kJ/mol
# Density = 1.730169 g / cm^3
# Si number density = 17.341164 Si / 1000 Ang^3
#
#
#
# Elastic Constant Matrix: (Units=GPa)
#
#
# Indices 1 2 3 4 5 6 
#
# 1 77.5309 36.9801 47.2251 0.0000 0.0000 0.0000
# 2 36.9801 77.5292 47.2269 0.0000 0.0000 0.0000
# 3 47.2251 47.2269 101.0630 0.0000 0.0000 0.0000
# 4 0.0000 0.0000 0.0000 21.4221 0.0000 0.0000
# 5 0.0000 0.0000 0.0000 0.0000 21.4233 0.0000
# 6 0.0000 0.0000 0.0000 0.0000 0.0000 17.7139
#
#
#
# Elastic Compliance Matrix: (Units=1/GPa)
#
#
# Indices 1 2 3 4 5 6 
#
# 1 0.019435 -0.005225 -0.006640 0.000000 0.000000 0.000000
# 2 -0.005225 0.019436 -0.006641 0.000000 0.000000 0.000000
# 3 -0.006640 -0.006641 0.016101 0.000000 0.000000 0.000000
# 4 0.000000 0.000000 0.000000 0.046681 0.000000 0.000000
# 5 0.000000 0.000000 0.000000 0.000000 0.046678 0.000000
# 6 0.000000 0.000000 0.000000 0.000000 0.000000 0.056453
#
#
# Mechanical properties :
#
#
# Convention : Reuss Voigt Hill
#
# Bulk Modulus (GPa) = 55.68018 57.66526 56.67272
# Shear Modulus (GPa) = 20.17906 20.42459 20.30183
#
# Velocity S-wave (km/s) = 3.41493 3.43565 3.42531
# Velocity P-wave (km/s) = 6.90850 7.00456 6.95670
#
# Compressibility (1/GPa) = 0.01795971
#
# Stress axis : x y z
#
# Youngs Moduli (GPa) = 51.45403 51.45088 62.10931
#
# Poissons Ratio (x) = 0.26886 0.41239
# Poissons Ratio (y) = 0.26887 0.41245
# Poissons Ratio (z) = 0.34164 0.34167
#
# Static dielectric constant tensor:
#      x y z
#    x 1.594990 0.000000 0.000000 
#    y 0.000000 1.595000 0.000000 
#    z 0.000000 0.000000 1.574510 
# 
# From -- ./inp_files/4511.got.cif
#   From: 2010.05.17/outbox.cif.g08.bks.cpg/sg120_3_cif.got.tgz:4511.got - 2010.05.20 11:28:13.
