data_PCOD9559242
_publ_section_title
;
Structure prediction by ZEFSAII (Michael W. Deem and Ramdas Pophale) SiO2 
 PCOD9559242
Probable space group: I -4 M 2
;
_chemical_formula_sum "Si O2"
_cell_formula_units_Z 96
_cell_length_a 14.431961
_cell_length_b 14.431961
_cell_length_c 22.205888
_cell_angle_alpha 90.000000
_cell_angle_beta 90.000000
_cell_angle_gamma 90.000000
_cell_volume 4625.075624
_symmetry_space_group_name_H-M "I -4 M 2"
_symmetry_group_IT_number 119
_symmetry_cell_setting 'tetragonal'
loop_
_space_group_symop_operation_xyz
x,y,z
y,-x,-z
-x,-y,z
-y,x,-z
y,x,-z
-y,-x,-z
-x,y,z
x,-y,z
1/2+x,1/2+y,1/2+z
1/2+y,1/2-x,1/2-z
1/2-x,1/2-y,1/2+z
1/2-y,1/2+x,1/2-z
1/2+y,1/2+x,1/2-z
1/2-y,1/2-x,1/2-z
1/2-x,1/2+y,1/2+z
1/2+x,1/2-y,1/2+z
loop_
_atom_site_type_symbol
_atom_site_label
_atom_site_fract_x
_atom_site_fract_y
_atom_site_fract_z
Si Si1 0.198921 0.896304 0.444167
Si Si2 0.388363 0.107482 0.876811
Si Si3 0.728277 0.604524 0.624439
Si Si4 0.396578 0.390995 0.725780
Si Si5 0.158846 0.393879 0.515249
Si Si6 0.204607 0.215068 0.327464
O O1 0.160897 0.839104 0.500000
O O2 0.310357 0.897029 0.454128
O O3 0.168015 0.846246 0.383263
O O4 0.163541 0.000000 0.445314
O O5 0.500000 0.122696 0.880826
O O6 0.339517 0.182915 0.834696
O O7 0.374230 0.000000 0.858765
O O8 0.344213 0.120200 0.943638
O O9 0.759449 0.500000 0.640243
O O10 0.628060 0.615198 0.654864
O O11 0.744763 0.613283 0.552993
O O12 0.783080 0.686120 0.657873
O O13 0.500000 0.358218 0.737636
O O14 0.389812 0.500000 0.741706
O O15 0.326490 0.332489 0.766232
O O16 0.124629 0.500000 0.524381
#
# Coordination Sequence:
#
# PCOD9559242 Si02
#       6
#    16  16  16  16  16  16
#     4  11  22  34  50  78 116 155 194 234 281 342
#     4  10  20  34  56  88 124 159 196 243 300 365
#     4   9  20  37  58  83 110 149 204 260 303 348
#     4  10  21  38  60  86 118 159 204 247 298 363
#     4   9  18  35  58  80 107 148 196 246 299 348
#     4  11  21  36  59  85 119 159 199 243 298 365
#
# _framework density 20.756419000000001
#
# number of rings (size 3 to 8) (size 9 to 14) (size 15 to 20)
#    0.000    2.000    1.667    2.000    0.000    2.500 
#    0.000    0.000    0.000    3.500    0.000   18.667 
#    0.000    0.000    0.000    0.000    0.000    0.000 
#
# Total GULP energy -267484.134332 kJ/mol
# GULP energy per Si atom -5572.586132 kJ/mol
# Density = 2.070918 g / cm^3
# Si number density = 20.756419 Si / 1000 Ang^3
#
#
#
# Elastic Constant Matrix: (Units=GPa)
#
#
# Indices 1 2 3 4 5 6 
#
# 1 85.2318 29.0516 24.0986 0.0000 0.0000 0.0000
# 2 29.0516 85.2328 24.0987 0.0000 0.0000 0.0000
# 3 24.0986 24.0987 72.2390 0.0000 0.0000 0.0000
# 4 0.0000 0.0000 0.0000 15.7313 0.0000 0.0000
# 5 0.0000 0.0000 0.0000 0.0000 15.7308 0.0000
# 6 0.0000 0.0000 0.0000 0.0000 0.0000 13.9813
#
#
#
# Elastic Compliance Matrix: (Units=1/GPa)
#
#
# Indices 1 2 3 4 5 6 
#
# 1 0.013991 -0.003808 -0.003397 0.000000 0.000000 0.000000
# 2 -0.003808 0.013991 -0.003397 0.000000 0.000000 0.000000
# 3 -0.003397 -0.003397 0.016109 0.000000 0.000000 0.000000
# 4 0.000000 0.000000 0.000000 0.063568 0.000000 0.000000
# 5 0.000000 0.000000 0.000000 0.000000 0.063570 0.000000
# 6 0.000000 0.000000 0.000000 0.000000 0.000000 0.071524
#
#
# Mechanical properties :
#
#
# Convention : Reuss Voigt Hill
#
# Bulk Modulus (GPa) = 43.69270 44.13349 43.91310
# Shear Modulus (GPa) = 18.41032 20.11898 19.26465
#
# Velocity S-wave (km/s) = 2.98144 3.11672 3.04983
# Velocity P-wave (km/s) = 5.74002 5.85326 5.79692
#
# Compressibility (1/GPa) = 0.02288712
#
# Stress axis : x y z
#
# Youngs Moduli (GPa) = 71.47292 71.47376 62.07580
#
# Poissons Ratio (x) = 0.27221 0.21087
# Poissons Ratio (y) = 0.27220 0.21087
# Poissons Ratio (z) = 0.24279 0.24279
#
# Static dielectric constant tensor:
#      x y z
#    x 1.762420 0.000000 0.000000 
#    y 0.000000 1.762420 0.000000 
#    z 0.000000 0.000000 1.743580 
# 
# From -- ./inp_files/7774.got.cif
#   From: 2010.05.17/outbox.cif.g08.bks.cpg/sg119_4_cif.got.tgz:7774.got - 2010.05.20 11:21:29.
