data_PCOD9559617
_publ_section_title
;
Structure prediction by ZEFSAII (Michael W. Deem and Ramdas Pophale) SiO2 
 PCOD9559617
Probable space group: I -4 C 2
;
_chemical_formula_sum "Si O2"
_cell_formula_units_Z 96
_cell_length_a 24.600237
_cell_length_b 24.600237
_cell_length_c 7.873578
_cell_angle_alpha 90.000000
_cell_angle_beta 90.000000
_cell_angle_gamma 90.000000
_cell_volume 4764.866272
_symmetry_space_group_name_H-M "I -4 C 2"
_symmetry_group_IT_number 120
_symmetry_cell_setting 'tetragonal'
loop_
_space_group_symop_operation_xyz
x,y,z
y,-x,-z
-x,-y,z
-y,x,-z
y,x,1/2-z
-y,-x,1/2-z
-x,y,1/2+z
x,-y,1/2+z
1/2+x,1/2+y,1/2+z
1/2+y,1/2-x,1/2-z
1/2-x,1/2-y,1/2+z
1/2-y,1/2+x,1/2-z
1/2+y,1/2+x,-z
1/2-y,1/2-x,-z
1/2-x,1/2+y,z
1/2+x,1/2-y,z
loop_
_atom_site_type_symbol
_atom_site_label
_atom_site_fract_x
_atom_site_fract_y
_atom_site_fract_z
Si Si1 0.064564 0.151951 0.295964
Si Si2 0.274776 0.056446 0.180827
Si Si3 0.432171 0.945666 0.199495
Si Si4 0.945273 0.142761 0.196256
Si Si5 0.265887 0.934406 0.271088
Si Si6 0.146757 0.358866 0.307684
O O1 0.116187 0.116187 0.250000
O O2 0.066002 0.214934 0.241053
O O3 0.060779 0.151736 0.497548
O O4 0.007827 0.127655 0.229810
O O5 0.315725 0.101731 0.255495
O O6 0.288623 0.992894 0.209352
O O7 0.271243 0.064160 0.976877
O O8 0.490044 0.928575 0.276733
O O9 0.386453 0.915165 0.304468
O O10 0.430835 0.930835 0.000000
O O11 0.903110 0.096891 0.250000
O O12 0.933987 0.202146 0.278581
O O13 0.298370 0.879831 0.216751
O O14 0.159325 0.340676 0.500000
#
# Coordination Sequence:
#
# PCOD9559617 Si02
#       6
#    16  16  16  16  16  16
#     4  10  20  36  57  82 109 139 171 209 255 309
#     4   9  19  34  53  75 104 139 176 216 262 309
#     4  11  21  32  45  65  93 127 167 217 271 319
#     4  10  20  36  57  82 109 139 171 209 255 309
#     4   9  19  34  53  75 104 139 176 216 262 309
#     4  10  19  33  51  73 100 135 176 217 258 306
#
# _framework density 20.147469000000001
#
# number of rings (size 3 to 8) (size 9 to 14) (size 15 to 20)
#    0.000    2.167    0.000    4.000    0.000    5.667 
#    0.000    2.500    0.000    0.000    0.000    0.000 
#    0.000    0.000    0.000    0.000    0.000    0.000 
#
# Total GULP energy -267668.976835 kJ/mol
# GULP energy per Si atom -5576.437017 kJ/mol
# Density = 2.010161 g / cm^3
# Si number density = 20.147469 Si / 1000 Ang^3
#
#
#
# Elastic Constant Matrix: (Units=GPa)
#
#
# Indices 1 2 3 4 5 6 
#
# 1 77.2953 53.8922 -9.0476 0.0000 0.0000 0.0000
# 2 53.8922 77.2989 -9.0460 0.0000 0.0000 0.0000
# 3 -9.0476 -9.0460 33.2966 0.0000 0.0000 0.0000
# 4 0.0000 0.0000 0.0000 19.2086 0.0000 0.0000
# 5 0.0000 0.0000 0.0000 0.0000 19.2070 0.0000
# 6 0.0000 0.0000 0.0000 0.0000 0.0000 36.5552
#
#
#
# Elastic Compliance Matrix: (Units=1/GPa)
#
#
# Indices 1 2 3 4 5 6 
#
# 1 0.025323 -0.017403 0.002153 0.000000 0.000000 0.000000
# 2 -0.017403 0.025322 0.002150 0.000000 0.000000 0.000000
# 3 0.002153 0.002150 0.031202 0.000000 0.000000 0.000000
# 4 0.000000 0.000000 0.000000 0.052060 0.000000 0.000000
# 5 0.000000 0.000000 0.000000 0.000000 0.052064 0.000000
# 6 0.000000 0.000000 0.000000 0.000000 0.000000 0.027356
#
#
# Mechanical properties :
#
#
# Convention : Reuss Voigt Hill
#
# Bulk Modulus (GPa) = 17.97012 28.83197 23.40104
# Shear Modulus (GPa) = 19.37407 25.13367 22.25387
#
# Velocity S-wave (km/s) = 3.10435 3.53581 3.32708
# Velocity P-wave (km/s) = 4.66776 5.56873 5.13803
#
# Compressibility (1/GPa) = 0.05564794
#
# Stress axis : x y z
#
# Youngs Moduli (GPa) = 39.48912 39.49149 32.04885
#
# Poissons Ratio (x) = 0.68728 -0.06900
# Poissons Ratio (y) = 0.68724 -0.06892
# Poissons Ratio (z) = -0.08502 -0.08493
#
# Static dielectric constant tensor:
#      x y z
#    x 1.662270 0.000000 0.000000 
#    y 0.000000 1.662210 0.000000 
#    z 0.000000 0.000000 1.742980 
# 
# From -- ./inp_files/1535.got.cif
#   From: 2010.05.17/outbox.cif.g08.bks.cpg/sg120_1_cif.got.tgz:1535.got - 2010.05.20 11:28:13.
