data_PCOD9559544
_publ_section_title
;
Structure prediction by ZEFSAII (Michael W. Deem and Ramdas Pophale) SiO2 
 PCOD9559544
Probable space group: I -4 M 2
;
_chemical_formula_sum "Si O2"
_cell_formula_units_Z 48
_cell_length_a 9.366729
_cell_length_b 9.366729
_cell_length_c 32.083424
_cell_angle_alpha 90.000000
_cell_angle_beta 90.000000
_cell_angle_gamma 90.000000
_cell_volume 2814.858845
_symmetry_space_group_name_H-M "I -4 M 2"
_symmetry_group_IT_number 119
_symmetry_cell_setting 'tetragonal'
loop_
_space_group_symop_operation_xyz
x,y,z
y,-x,-z
-x,-y,z
-y,x,-z
y,x,-z
-y,-x,-z
-x,y,z
x,-y,z
1/2+x,1/2+y,1/2+z
1/2+y,1/2-x,1/2-z
1/2-x,1/2-y,1/2+z
1/2-y,1/2+x,1/2-z
1/2+y,1/2+x,1/2-z
1/2-y,1/2-x,1/2-z
1/2-x,1/2+y,1/2+z
1/2+x,1/2-y,1/2+z
loop_
_atom_site_type_symbol
_atom_site_label
_atom_site_fract_x
_atom_site_fract_y
_atom_site_fract_z
Si Si1 0.670088 0.670088 0.000000
Si Si2 0.831107 0.829216 0.665885
Si Si3 0.326083 0.835715 0.916814
Si Si4 0.330407 0.830407 0.250000
O O1 0.752956 0.717433 0.041378
O O2 0.691907 0.500000 0.994124
O O3 0.744350 0.780789 0.625294
O O4 0.785571 0.752244 0.708373
O O5 0.000000 0.801444 0.659503
O O6 0.813596 0.000000 0.670402
O O7 0.500000 0.833095 0.916640
O O8 0.280369 0.000000 0.917280
O O9 0.500000 0.807174 0.255687
#
# Coordination Sequence:
#
# PCOD9559544 Si02
#       4
#     8  16  16   8
#     4   9  16  28  48  69  88 116 154 189 220 260
#     4   9  17  30  48  68  90 118 152 187 222 263
#     4   9  17  29  46  69  94 118 148 187 226 264
#     4   9  18  32  48  67  92 120 150 185 224 266
#
# _framework density 17.052364000000001
#
# number of rings (size 3 to 8) (size 9 to 14) (size 15 to 20)
#    0.000    3.000    0.000    1.000    0.000    5.333 
#    0.000    1.667    0.000   10.500    0.000    0.000 
#    0.000    0.000    0.000    0.000    0.000    0.000 
#
# Total GULP energy -133751.665071 kJ/mol
# GULP energy per Si atom -5572.986045 kJ/mol
# Density = 1.701355 g / cm^3
# Si number density = 17.052364 Si / 1000 Ang^3
#
#
#
# Elastic Constant Matrix: (Units=GPa)
#
#
# Indices 1 2 3 4 5 6 
#
# 1 43.8712 36.8876 77.6174 0.0000 0.0000 0.0000
# 2 36.8876 43.8712 77.6174 0.0000 0.0000 0.0000
# 3 77.6174 77.6174 227.6236 0.0000 0.0000 0.0000
# 4 0.0000 0.0000 0.0000 30.8420 0.0000 0.0000
# 5 0.0000 0.0000 0.0000 0.0000 30.8420 0.0000
# 6 0.0000 0.0000 0.0000 0.0000 0.0000 11.2453
#
#
#
# Elastic Compliance Matrix: (Units=1/GPa)
#
#
# Indices 1 2 3 4 5 6 
#
# 1 0.089566 -0.053627 -0.012255 0.000000 0.000000 0.000000
# 2 -0.053627 0.089566 -0.012255 0.000000 0.000000 0.000000
# 3 -0.012255 -0.012255 0.012751 0.000000 0.000000 0.000000
# 4 0.000000 0.000000 0.000000 0.032423 0.000000 0.000000
# 5 0.000000 0.000000 0.000000 0.000000 0.032423 0.000000
# 6 0.000000 0.000000 0.000000 0.000000 0.000000 0.088926
#
#
# Mechanical properties :
#
#
# Convention : Reuss Voigt Hill
#
# Bulk Modulus (GPa) = 28.08276 77.73453 52.90864
# Shear Modulus (GPa) = 9.73147 22.80211 16.26679
#
# Velocity S-wave (km/s) = 2.39149 3.66072 3.09193
# Velocity P-wave (km/s) = 4.91222 7.97198 6.62127
#
# Compressibility (1/GPa) = 0.03560904
#
# Stress axis : x y z
#
# Youngs Moduli (GPa) = 11.16501 11.16500 78.42716
#
# Poissons Ratio (x) = 0.59875 0.96110
# Poissons Ratio (y) = 0.59875 0.96110
# Poissons Ratio (z) = 0.13682 0.13682
#
# Static dielectric constant tensor:
#      x y z
#    x 1.570190 0.000000 0.000000 
#    y 0.000000 1.570190 0.000000 
#    z 0.000000 0.000000 1.557280 
# 
# From -- ./inp_files/9858.got.cif
#   From: 2010.05.17/outbox.cif.g08.bks.cpg/sg119_5_cif.got.tgz:9858.got - 2010.05.20 11:21:29.
