data_PCOD9559255
_publ_section_title
;
Structure prediction by ZEFSAII (Michael W. Deem and Ramdas Pophale) SiO2 
 PCOD9559255
Probable space group: I -4 M 2
;
_chemical_formula_sum "Si O2"
_cell_formula_units_Z 96
_cell_length_a 19.558702
_cell_length_b 19.558702
_cell_length_c 14.688323
_cell_angle_alpha 90.000000
_cell_angle_beta 90.000000
_cell_angle_gamma 90.000000
_cell_volume 5618.912559
_symmetry_space_group_name_H-M "I -4 M 2"
_symmetry_group_IT_number 119
_symmetry_cell_setting 'tetragonal'
loop_
_space_group_symop_operation_xyz
x,y,z
y,-x,-z
-x,-y,z
-y,x,-z
y,x,-z
-y,-x,-z
-x,y,z
x,-y,z
1/2+x,1/2+y,1/2+z
1/2+y,1/2-x,1/2-z
1/2-x,1/2-y,1/2+z
1/2-y,1/2+x,1/2-z
1/2+y,1/2+x,1/2-z
1/2-y,1/2-x,1/2-z
1/2-x,1/2+y,1/2+z
1/2+x,1/2-y,1/2+z
loop_
_atom_site_type_symbol
_atom_site_label
_atom_site_fract_x
_atom_site_fract_y
_atom_site_fract_z
Si Si1 0.308011 0.580557 0.347336
Si Si2 0.200068 0.418937 0.499999
Si Si3 0.419443 0.691990 0.347337
Si Si4 0.181378 0.417842 0.000001
Si Si5 0.149363 0.737841 0.316418
Si Si6 0.762162 0.649360 0.816417
O O1 0.320117 0.500000 0.358534
O O2 0.245952 0.602095 0.413736
O O3 0.374059 0.625942 0.369195
O O4 0.283163 0.599451 0.246412
O O5 0.196192 0.500000 0.500000
O O6 0.245951 0.397904 0.586263
O O7 0.124538 0.389179 0.499998
O O8 0.500000 0.679884 0.358537
O O9 0.400550 0.716839 0.246413
O O10 0.176535 0.500000 0.000003
O O11 0.216650 0.389553 0.092162
O O12 0.216648 0.389556 0.907837
O O13 0.177174 0.677174 0.250000
O O14 0.215815 0.784187 0.338969
O O15 0.822829 0.677172 0.750000
#
# Coordination Sequence:
#
# PCOD9559255 Si02
#       6
#    16  16  16  16  16  16
#     4  10  20  35  56  83 114 148 186 232 286 340
#     4  10  21  36  54  75 107 147 190 233 281 341
#     4  10  20  35  56  83 114 148 186 232 286 340
#     4  12  23  36  57  84 115 145 186 239 289 337
#     4  10  20  35  58  84 110 145 192 237 279 336
#     4  10  20  35  58  84 110 145 192 237 279 336
#
# _framework density 17.085156999999999
#
# number of rings (size 3 to 8) (size 9 to 14) (size 15 to 20)
#    0.000    1.667    3.333    2.000    0.000    2.000 
#    0.000    0.000    0.000    3.000    0.000    0.000 
#    0.000   12.000    0.000    0.000    0.000    0.000 
#
# Total GULP energy -267606.528419 kJ/mol
# GULP energy per Si atom -5575.136009 kJ/mol
# Density = 1.704627 g / cm^3
# Si number density = 17.085157 Si / 1000 Ang^3
#
#
#
# Elastic Constant Matrix: (Units=GPa)
#
#
# Indices 1 2 3 4 5 6 
#
# 1 105.3661 54.1671 52.9037 0.0000 0.0000 0.0000
# 2 54.1671 105.3673 52.9037 0.0000 0.0000 0.0000
# 3 52.9037 52.9037 120.0761 0.0000 0.0000 0.0000
# 4 0.0000 0.0000 0.0000 25.0728 0.0000 0.0000
# 5 0.0000 0.0000 0.0000 0.0000 25.0726 0.0000
# 6 0.0000 0.0000 0.0000 0.0000 0.0000 24.3639
#
#
#
# Elastic Compliance Matrix: (Units=1/GPa)
#
#
# Indices 1 2 3 4 5 6 
#
# 1 0.014194 -0.005338 -0.003902 0.000000 0.000000 0.000000
# 2 -0.005338 0.014194 -0.003902 0.000000 0.000000 0.000000
# 3 -0.003902 -0.003902 0.011766 0.000000 0.000000 0.000000
# 4 0.000000 0.000000 0.000000 0.039884 0.000000 0.000000
# 5 0.000000 0.000000 0.000000 0.000000 0.039884 0.000000
# 6 0.000000 0.000000 0.000000 0.000000 0.000000 0.041044
#
#
# Mechanical properties :
#
#
# Convention : Reuss Voigt Hill
#
# Bulk Modulus (GPa) = 72.09287 72.30650 72.19968
# Shear Modulus (GPa) = 26.05898 26.29087 26.17492
#
# Velocity S-wave (km/s) = 3.90967 3.92703 3.91836
# Velocity P-wave (km/s) = 7.91634 7.93569 7.92602
#
# Compressibility (1/GPa) = 0.01387100
#
# Stress axis : x y z
#
# Youngs Moduli (GPa) = 70.45306 70.45413 84.98888
#
# Poissons Ratio (x) = 0.37606 0.33162
# Poissons Ratio (y) = 0.37605 0.33161
# Poissons Ratio (z) = 0.27490 0.27490
#
# Static dielectric constant tensor:
#      x y z
#    x 1.569160 0.000000 0.000000 
#    y 0.000000 1.569160 0.000000 
#    z 0.000000 0.000000 1.610490 
# 
# From -- ./inp_files/4180.got.cif
#   From: 2010.05.17/outbox.cif.g08.bks.cpg/sg119_3_cif.got.tgz:4180.got - 2010.05.20 11:21:29.
