data_PCOD9559631
_publ_section_title
;
Structure prediction by ZEFSAII (Michael W. Deem and Ramdas Pophale) SiO2 
 PCOD9559631
Probable space group: I -4 C 2
;
_chemical_formula_sum "Si O2"
_cell_formula_units_Z 120
_cell_length_a 13.213596
_cell_length_b 13.213596
_cell_length_c 28.681003
_cell_angle_alpha 90.000000
_cell_angle_beta 90.000000
_cell_angle_gamma 90.000000
_cell_volume 5007.677863
_symmetry_space_group_name_H-M "I -4 C 2"
_symmetry_group_IT_number 120
_symmetry_cell_setting 'tetragonal'
loop_
_space_group_symop_operation_xyz
x,y,z
y,-x,-z
-x,-y,z
-y,x,-z
y,x,1/2-z
-y,-x,1/2-z
-x,y,1/2+z
x,-y,1/2+z
1/2+x,1/2+y,1/2+z
1/2+y,1/2-x,1/2-z
1/2-x,1/2-y,1/2+z
1/2-y,1/2+x,1/2-z
1/2+y,1/2+x,-z
1/2-y,1/2-x,-z
1/2-x,1/2+y,z
1/2+x,1/2-y,z
loop_
_atom_site_type_symbol
_atom_site_label
_atom_site_fract_x
_atom_site_fract_y
_atom_site_fract_z
Si Si1 0.311353 0.472533 0.566059
Si Si2 0.449549 0.095570 0.910157
Si Si3 0.875595 0.600343 0.240275
Si Si4 0.322089 0.655321 0.986916
Si Si5 0.644634 0.355367 0.750000
Si Si6 0.491498 0.741725 0.592894
Si Si7 0.653656 0.154709 0.860532
Si Si8 0.625384 0.586925 0.149252
O O1 0.197889 0.430446 0.562448
O O2 0.308189 0.585181 0.544865
O O3 0.371570 0.398443 0.532328
O O4 0.350492 0.487881 0.618446
O O5 0.345429 0.060110 0.887623
O O6 0.539244 0.126657 0.875461
O O7 0.500000 0.000000 0.936749
O O8 0.876894 0.478422 0.231613
O O9 0.764596 0.627138 0.259778
O O10 0.885579 0.662629 0.191956
O O11 0.270287 0.564541 0.956718
O O12 0.246228 0.746228 0.000000
O O13 0.579920 0.384702 0.795548
O O14 0.607921 0.771468 0.601361
O O15 0.463767 0.646691 0.624302
O O16 0.657259 0.274984 0.857446
#
# Coordination Sequence:
#
# PCOD9559631 Si02
#       8
#    16  16  16  16   8  16  16  16
#     4  10  22  41  57  87 126 160 216 250 319 378
#     4   9  18  32  57  82 116 150 192 248 313 370
#     4  10  21  32  56  92 124 161 209 264 322 388
#     4  11  23  40  61  88 121 165 209 266 312 389
#     4  10  20  38  58  94 132 162 208 260 332 390
#     4  10  19  34  59  81 119 161 195 253 318 367
#     4   9  19  33  50  85 116 154 198 247 313 375
#     4   9  20  36  59  86 124 164 198 258 310 385
#
# _framework density 23.963204000000001
#
# number of rings (size 3 to 8) (size 9 to 14) (size 15 to 20)
#    0.000    2.267    1.333    0.800    7.467    4.533 
#    0.000    2.000    0.000    0.400    0.000    0.000 
#    0.000    0.000    0.000    0.000    0.000    0.000 
#
# Total GULP energy -334861.957979 kJ/mol
# GULP energy per Si atom -5581.032633 kJ/mol
# Density = 2.390866 g / cm^3
# Si number density = 23.963204 Si / 1000 Ang^3
#
#
#
# Elastic Constant Matrix: (Units=GPa)
#
#
# Indices 1 2 3 4 5 6 
#
# 1 65.8667 30.4590 20.4528 0.0000 0.0000 0.0000
# 2 30.4590 65.8661 20.4529 0.0000 0.0000 0.0000
# 3 20.4528 20.4529 126.3729 0.0000 0.0000 0.0000
# 4 0.0000 0.0000 0.0000 28.3414 0.0000 0.0000
# 5 0.0000 0.0000 0.0000 0.0000 28.3415 0.0000
# 6 0.0000 0.0000 0.0000 0.0000 0.0000 35.6781
#
#
#
# Elastic Compliance Matrix: (Units=1/GPa)
#
#
# Indices 1 2 3 4 5 6 
#
# 1 0.019695 -0.008548 -0.001804 0.000000 0.000000 0.000000
# 2 -0.008548 0.019695 -0.001804 0.000000 0.000000 0.000000
# 3 -0.001804 -0.001804 0.008497 0.000000 0.000000 0.000000
# 4 0.000000 0.000000 0.000000 0.035284 0.000000 0.000000
# 5 0.000000 0.000000 0.000000 0.000000 0.035284 0.000000
# 6 0.000000 0.000000 0.000000 0.000000 0.000000 0.028028
#
#
# Mechanical properties :
#
#
# Convention : Reuss Voigt Hill
#
# Bulk Modulus (GPa) = 42.41671 44.53723 43.47697
# Shear Modulus (GPa) = 27.98703 30.92161 29.45432
#
# Velocity S-wave (km/s) = 3.42119 3.59608 3.50972
# Velocity P-wave (km/s) = 5.77453 5.98902 5.88276
#
# Compressibility (1/GPa) = 0.02357562
#
# Stress axis : x y z
#
# Youngs Moduli (GPa) = 50.77409 50.77359 117.68741
#
# Poissons Ratio (x) = 0.43399 0.21233
# Poissons Ratio (y) = 0.43399 0.21233
# Poissons Ratio (z) = 0.09160 0.09161
#
# Static dielectric constant tensor:
#      x y z
#    x 1.935540 0.000000 0.000000 
#    y 0.000000 1.935540 0.000000 
#    z 0.000000 0.000000 1.955570 
# 
# From -- ./inp_files/6712.got.cif
#   From: 2010.05.17/outbox.cif.g08.bks.cpg/sg120_4_cif.got.tgz:6712.got - 2010.05.20 11:28:13.
