data_PCOD9559984
_publ_section_title
;
Structure prediction by ZEFSAII (Michael W. Deem and Ramdas Pophale) SiO2 
 PCOD9559984
Probable space group: I -4 C 2
;
_chemical_formula_sum "Si O2"
_cell_formula_units_Z 100
_cell_length_a 14.828740
_cell_length_b 14.828740
_cell_length_c 22.080921
_cell_angle_alpha 90.000000
_cell_angle_beta 90.000000
_cell_angle_gamma 90.000000
_cell_volume 4855.407502
_symmetry_space_group_name_H-M "I -4 C 2"
_symmetry_group_IT_number 120
_symmetry_cell_setting 'tetragonal'
loop_
_space_group_symop_operation_xyz
x,y,z
y,-x,-z
-x,-y,z
-y,x,-z
y,x,1/2-z
-y,-x,1/2-z
-x,y,1/2+z
x,-y,1/2+z
1/2+x,1/2+y,1/2+z
1/2+y,1/2-x,1/2-z
1/2-x,1/2-y,1/2+z
1/2-y,1/2+x,1/2-z
1/2+y,1/2+x,-z
1/2-y,1/2-x,-z
1/2-x,1/2+y,z
1/2+x,1/2-y,z
loop_
_atom_site_type_symbol
_atom_site_label
_atom_site_fract_x
_atom_site_fract_y
_atom_site_fract_z
Si Si1 0.983586 0.766227 0.629516
Si Si2 0.370912 0.569849 0.991191
Si Si3 0.799827 0.793679 0.818455
Si Si4 0.980600 0.639788 0.224848
Si Si5 0.179592 0.836787 0.607492
Si Si6 0.995855 0.197480 0.807507
Si Si7 0.000000 0.000000 0.250000
O O1 0.947653 0.802584 0.564317
O O2 0.901370 0.792369 0.673495
O O3 0.004659 0.664057 0.653700
O O4 0.079317 0.815912 0.632139
O O5 0.472178 0.607700 0.976916
O O6 0.328815 0.642282 0.036892
O O7 0.770337 0.770337 0.750000
O O8 0.741121 0.744312 0.868682
O O9 0.904307 0.772702 0.824938
O O10 0.903461 0.569920 0.244636
O O11 0.961203 0.736253 0.255009
O O12 0.211194 0.928452 0.637901
O O13 0.998968 0.092789 0.788006
#
# Coordination Sequence:
#
# PCOD9559984 Si02
#       7
#    16  16  16  16  16  16   4
#     4  11  22  41  63  90 131 167 211 272 323 389
#     4   9  20  41  66  93 126 170 224 269 322 392
#     4  12  24  37  58  94 131 164 211 268 322 399
#     4  11  23  39  61  90 127 174 215 259 326 392
#     4  11  25  39  64  90 125 175 211 262 329 382
#     4  12  22  36  57  88 127 160 205 259 326 392
#     4  12  24  32  56  92 130 168 200 260 350 404
#
# _framework density 20.595593000000001
#
# number of rings (size 3 to 8) (size 9 to 14) (size 15 to 20)
#    0.000    0.960    2.400    4.800    3.360    3.200 
#    0.000    0.000    0.000    2.880    0.000    2.240 
#    0.000    0.000    0.000    0.000    0.000    0.000 
#
# Total GULP energy -278940.926573 kJ/mol
# GULP energy per Si atom -5578.818531 kJ/mol
# Density = 2.054872 g / cm^3
# Si number density = 20.595593 Si / 1000 Ang^3
#
#
#
# Elastic Constant Matrix: (Units=GPa)
#
#
# Indices 1 2 3 4 5 6 
#
# 1 86.7124 37.1441 36.7731 0.0000 0.0000 0.0000
# 2 37.1441 86.7124 36.7731 0.0000 0.0000 0.0000
# 3 36.7731 36.7731 79.5801 0.0000 0.0000 0.0000
# 4 0.0000 0.0000 0.0000 23.9165 0.0000 0.0000
# 5 0.0000 0.0000 0.0000 0.0000 23.9165 0.0000
# 6 0.0000 0.0000 0.0000 0.0000 0.0000 30.9323
#
#
#
# Elastic Compliance Matrix: (Units=1/GPa)
#
#
# Indices 1 2 3 4 5 6 
#
# 1 0.015651 -0.004524 -0.005142 0.000000 0.000000 0.000000
# 2 -0.004524 0.015651 -0.005142 0.000000 0.000000 0.000000
# 3 -0.005142 -0.005142 0.017318 0.000000 0.000000 0.000000
# 4 0.000000 0.000000 0.000000 0.041812 0.000000 0.000000
# 5 0.000000 0.000000 0.000000 0.000000 0.041812 0.000000
# 6 0.000000 0.000000 0.000000 0.000000 0.000000 0.032329
#
#
# Mechanical properties :
#
#
# Convention : Reuss Voigt Hill
#
# Bulk Modulus (GPa) = 52.61746 52.70950 52.66348
# Shear Modulus (GPa) = 24.93507 25.24069 25.08788
#
# Velocity S-wave (km/s) = 3.48329 3.50457 3.49394
# Velocity P-wave (km/s) = 6.46383 6.48260 6.47322
#
# Compressibility (1/GPa) = 0.01900510
#
# Stress axis : x y z
#
# Youngs Moduli (GPa) = 63.89543 63.89543 57.74421
#
# Poissons Ratio (x) = 0.28904 0.29690
# Poissons Ratio (y) = 0.28904 0.29690
# Poissons Ratio (z) = 0.32853 0.32853
#
# Static dielectric constant tensor:
#      x y z
#    x 1.756120 0.000000 0.000000 
#    y 0.000000 1.756120 0.000000 
#    z 0.000000 0.000000 1.813730 
# 
# From -- ./inp_files/5868.got.cif
#   From: 2010.05.17/outbox.cif.g08.bks.cpg/sg120_3_cif.got.tgz:5868.got - 2010.05.20 11:28:13.
