data_PCOD9559454
_publ_section_title
;
Structure prediction by ZEFSAII (Michael W. Deem and Ramdas Pophale) SiO2 
 PCOD9559454
Probable space group: I -4 M 2
;
_chemical_formula_sum "Si O2"
_cell_formula_units_Z 56
_cell_length_a 11.606994
_cell_length_b 11.606994
_cell_length_c 21.082415
_cell_angle_alpha 90.000000
_cell_angle_beta 90.000000
_cell_angle_gamma 90.000000
_cell_volume 2840.271643
_symmetry_space_group_name_H-M "I -4 M 2"
_symmetry_group_IT_number 119
_symmetry_cell_setting 'tetragonal'
loop_
_space_group_symop_operation_xyz
x,y,z
y,-x,-z
-x,-y,z
-y,x,-z
y,x,-z
-y,-x,-z
-x,y,z
x,-y,z
1/2+x,1/2+y,1/2+z
1/2+y,1/2-x,1/2-z
1/2-x,1/2-y,1/2+z
1/2-y,1/2+x,1/2-z
1/2+y,1/2+x,1/2-z
1/2-y,1/2-x,1/2-z
1/2-x,1/2+y,1/2+z
1/2+x,1/2-y,1/2+z
loop_
_atom_site_type_symbol
_atom_site_label
_atom_site_fract_x
_atom_site_fract_y
_atom_site_fract_z
Si Si1 0.000000 0.637013 0.884551
Si Si2 0.864407 0.361415 0.322412
Si Si3 0.708992 0.751531 0.073228
Si Si4 0.500000 0.631869 0.136709
Si Si5 0.000000 0.306437 0.753515
O O1 0.887632 0.612369 0.750000
O O2 0.000000 0.500000 0.865449
O O3 0.000000 0.727954 0.826479
O O4 0.861315 0.500000 0.324853
O O5 0.828807 0.328807 0.250000
O O6 0.783109 0.308377 0.376438
O O7 0.000000 0.327337 0.331371
O O8 0.609165 0.664371 0.094531
O O9 0.660676 0.880624 0.081084
O O10 0.738998 0.738998 0.000000
O O11 0.500000 0.500000 0.156008
O O12 0.500000 0.713245 0.198795
#
# Coordination Sequence:
#
# PCOD9559454 Si02
#       5
#     8  16  16   8   8
#     4  12  24  46  74  97 132 185 231 272 341 409
#     4   9  21  44  71  98 132 176 223 275 340 408
#     4  12  27  43  68 100 134 177 225 280 334 410
#     4  12  27  41  66 104 141 172 220 285 352 391
#     4  11  18  42  73 100 129 174 230 278 322 402
#
# _framework density 19.716424
#
# number of rings (size 3 to 8) (size 9 to 14) (size 15 to 20)
#    0.000    1.000    5.714    1.714   10.000    0.000 
#    0.000    0.714    0.000    0.000    0.000    0.000 
#    0.000    0.000    0.000    0.000    0.000    0.000 
#
# Total GULP energy -156314.134187 kJ/mol
# GULP energy per Si atom -5582.647650 kJ/mol
# Density = 1.967155 g / cm^3
# Si number density = 19.716424 Si / 1000 Ang^3
#
#
#
# Elastic Constant Matrix: (Units=GPa)
#
#
# Indices 1 2 3 4 5 6 
#
# 1 89.0970 34.9890 53.6642 0.0000 0.0000 0.0000
# 2 34.9890 89.0950 53.6637 0.0000 0.0000 0.0000
# 3 53.6642 53.6637 165.9264 0.0000 0.0000 0.0000
# 4 0.0000 0.0000 0.0000 2.0309 0.0000 0.0000
# 5 0.0000 0.0000 0.0000 0.0000 2.0346 0.0000
# 6 0.0000 0.0000 0.0000 0.0000 0.0000 30.6932
#
#
#
# Elastic Compliance Matrix: (Units=1/GPa)
#
#
# Indices 1 2 3 4 5 6 
#
# 1 0.014835 -0.003646 -0.003619 0.000000 0.000000 0.000000
# 2 -0.003646 0.014836 -0.003619 0.000000 0.000000 0.000000
# 3 -0.003619 -0.003619 0.008368 0.000000 0.000000 0.000000
# 4 0.000000 0.000000 0.000000 0.492389 0.000000 0.000000
# 5 0.000000 0.000000 0.000000 0.000000 0.491498 0.000000
# 6 0.000000 0.000000 0.000000 0.000000 0.000000 0.032581
#
#
# Mechanical properties :
#
#
# Convention : Reuss Voigt Hill
#
# Bulk Modulus (GPa) = 61.46061 69.86135 65.66098
# Shear Modulus (GPa) = 4.62236 20.40517 12.51377
#
# Velocity S-wave (km/s) = 1.53281 3.22053 2.52203
# Velocity P-wave (km/s) = 5.86282 7.02418 6.46961
#
# Compressibility (1/GPa) = 0.01627058
#
# Stress axis : x y z
#
# Youngs Moduli (GPa) = 67.40678 67.40519 119.50957
#
# Poissons Ratio (x) = 0.24579 0.43247
# Poissons Ratio (y) = 0.24579 0.43248
# Poissons Ratio (z) = 0.24393 0.24393
#
# Static dielectric constant tensor:
#      x y z
#    x 2.882100 0.000000 0.000000 
#    y 0.000000 2.885470 0.000000 
#    z 0.000000 0.000000 1.731780 
# 
# From -- ./inp_files/7316.got.cif
#   From: 2010.05.17/outbox.cif.g08.bks.cpg/sg119_4_cif.got.tgz:7316.got - 2010.05.20 11:21:29.
