data_PCOD9559700
_publ_section_title
;
Structure prediction by ZEFSAII (Michael W. Deem and Ramdas Pophale) SiO2 
 PCOD9559700
Probable space group: I -4 C 2
;
_chemical_formula_sum "Si O2"
_cell_formula_units_Z 80
_cell_length_a 16.238000
_cell_length_b 16.238000
_cell_length_c 14.539956
_cell_angle_alpha 90.000000
_cell_angle_beta 90.000000
_cell_angle_gamma 90.000000
_cell_volume 3833.788642
_symmetry_space_group_name_H-M "I -4 C 2"
_symmetry_group_IT_number 120
_symmetry_cell_setting 'tetragonal'
loop_
_space_group_symop_operation_xyz
x,y,z
y,-x,-z
-x,-y,z
-y,x,-z
y,x,1/2-z
-y,-x,1/2-z
-x,y,1/2+z
x,-y,1/2+z
1/2+x,1/2+y,1/2+z
1/2+y,1/2-x,1/2-z
1/2-x,1/2-y,1/2+z
1/2-y,1/2+x,1/2-z
1/2+y,1/2+x,-z
1/2-y,1/2-x,-z
1/2-x,1/2+y,z
1/2+x,1/2-y,z
loop_
_atom_site_type_symbol
_atom_site_label
_atom_site_fract_x
_atom_site_fract_y
_atom_site_fract_z
Si Si1 0.946247 0.181347 0.287181
Si Si2 0.693245 0.188588 0.800480
Si Si3 0.134536 0.991142 0.525828
Si Si4 0.932826 0.586365 0.700517
Si Si5 0.275786 0.023723 0.387227
O O1 0.898710 0.101291 0.250000
O O2 0.873704 0.241307 0.326346
O O3 0.007872 0.154754 0.366734
O O4 0.991064 0.228166 0.204119
O O5 0.768688 0.231312 0.750000
O O6 0.648508 0.135795 0.721406
O O7 0.715288 0.122188 0.878191
O O8 0.219716 0.994333 0.470468
O O9 0.083301 0.074757 0.503060
O O10 0.909688 0.490566 0.706137
O O11 0.981343 0.634104 0.621303
#
# Coordination Sequence:
#
# PCOD9559700 Si02
#       5
#    16  16  16  16  16
#     4  10  20  40  60  79 119 157 189 245 299 358
#     4   9  19  32  57  89 115 152 199 242 312 354
#     4  11  24  38  56  86 117 163 205 235 298 368
#     4   8  15  32  59  86 115 158 201 242 298 367
#     4  10  20  36  60  86 118 152 201 254 293 359
#
# _framework density 20.867087000000001
#
# number of rings (size 3 to 8) (size 9 to 14) (size 15 to 20)
#    0.000    2.400    2.000    0.000    2.800    0.800 
#    0.000    0.000    0.000   19.200    0.000   28.000 
#    0.000    0.000    0.000    0.000    0.000    0.000 
#
# Total GULP energy -222964.724605 kJ/mol
# GULP energy per Si atom -5574.118115 kJ/mol
# Density = 2.081959 g / cm^3
# Si number density = 20.867087 Si / 1000 Ang^3
#
#
#
# Elastic Constant Matrix: (Units=GPa)
#
#
# Indices 1 2 3 4 5 6 
#
# 1 60.8307 17.6953 3.5234 0.0000 0.0000 0.0000
# 2 17.6953 60.8320 3.5222 0.0000 0.0000 0.0000
# 3 3.5234 3.5222 49.5242 0.0000 0.0000 0.0000
# 4 0.0000 0.0000 0.0000 17.8631 0.0000 0.0000
# 5 0.0000 0.0000 0.0000 0.0000 17.8630 0.0000
# 6 0.0000 0.0000 0.0000 0.0000 0.0000 39.2494
#
#
#
# Elastic Compliance Matrix: (Units=1/GPa)
#
#
# Indices 1 2 3 4 5 6 
#
# 1 0.018000 -0.005183 -0.000912 0.000000 0.000000 0.000000
# 2 -0.005183 0.017999 -0.000911 0.000000 0.000000 0.000000
# 3 -0.000912 -0.000911 0.020322 0.000000 0.000000 0.000000
# 4 0.000000 0.000000 0.000000 0.055981 0.000000 0.000000
# 5 0.000000 0.000000 0.000000 0.000000 0.055982 0.000000
# 6 0.000000 0.000000 0.000000 0.000000 0.000000 0.025478
#
#
# Mechanical properties :
#
#
# Convention : Reuss Voigt Hill
#
# Bulk Modulus (GPa) = 23.63629 24.51876 24.07752
# Shear Modulus (GPa) = 22.53499 24.75816 23.64657
#
# Velocity S-wave (km/s) = 3.28979 3.44825 3.36995
# Velocity P-wave (km/s) = 5.07760 5.25637 5.16775
#
# Compressibility (1/GPa) = 0.04230783
#
# Stress axis : x y z
#
# Youngs Moduli (GPa) = 55.55669 55.55811 49.20811
#
# Poissons Ratio (x) = 0.28796 0.04488
# Poissons Ratio (y) = 0.28795 0.04485
# Poissons Ratio (z) = 0.05067 0.05063
#
# Static dielectric constant tensor:
#      x y z
#    x 1.792490 0.000000 0.000000 
#    y 0.000000 1.792490 0.000000 
#    z 0.000000 0.000000 1.715130 
# 
# From -- ./inp_files/3437.got.cif
#   From: 2010.05.17/outbox.cif.g08.bks.cpg/sg120_2_cif.got.tgz:3437.got - 2010.05.20 11:28:13.
