data_PCOD9559483
_publ_section_title
;
Structure prediction by ZEFSAII (Michael W. Deem and Ramdas Pophale) SiO2 
 PCOD9559483
Probable space group: I -4 M 2
;
_chemical_formula_sum "Si O2"
_cell_formula_units_Z 64
_cell_length_a 26.473719
_cell_length_b 26.473719
_cell_length_c 5.180810
_cell_angle_alpha 90.000000
_cell_angle_beta 90.000000
_cell_angle_gamma 90.000000
_cell_volume 3631.011087
_symmetry_space_group_name_H-M "I -4 M 2"
_symmetry_group_IT_number 119
_symmetry_cell_setting 'tetragonal'
loop_
_space_group_symop_operation_xyz
x,y,z
y,-x,-z
-x,-y,z
-y,x,-z
y,x,-z
-y,-x,-z
-x,y,z
x,-y,z
1/2+x,1/2+y,1/2+z
1/2+y,1/2-x,1/2-z
1/2-x,1/2-y,1/2+z
1/2-y,1/2+x,1/2-z
1/2+y,1/2+x,1/2-z
1/2-y,1/2-x,1/2-z
1/2-x,1/2+y,1/2+z
1/2+x,1/2-y,1/2+z
loop_
_atom_site_type_symbol
_atom_site_label
_atom_site_fract_x
_atom_site_fract_y
_atom_site_fract_z
Si Si1 0.440455 0.394256 0.757831
Si Si2 0.716877 0.438598 0.056962
Si Si3 0.392589 0.939981 0.005406
Si Si4 0.277033 0.061337 0.059677
O O1 0.411719 0.411719 0.500000
O O2 0.500000 0.391728 0.694975
O O3 0.423345 0.339446 0.862881
O O4 0.431133 0.431133 0.000000
O O5 0.715394 0.500000 0.045045
O O6 0.754729 0.423794 0.284520
O O7 0.740036 0.420689 0.786990
O O8 0.427253 0.927253 0.250000
O O9 0.335485 0.924203 0.080139
O O10 0.392657 0.000000 0.953880
O O11 0.411788 0.911788 0.750000
O O12 0.276163 0.000000 0.070136
#
# Coordination Sequence:
#
# PCOD9559483 Si02
#       4
#    16  16  16  16
#     4  11  22  34  49  72 104 140 174 205 242 300
#     4   9  17  31  50  69  91 123 165 214 259 287
#     4  11  22  34  49  72 104 140 174 205 242 300
#     4   9  17  31  50  69  91 123 165 214 259 287
#
# _framework density 17.625944
#
# number of rings (size 3 to 8) (size 9 to 14) (size 15 to 20)
#    0.000    2.000    0.000    4.500    0.000   11.000 
#    0.000    0.000    0.000    0.000    0.000    0.000 
#    0.000   56.000    0.000    0.000    0.000    0.000 
#
# Total GULP energy -178500.270600 kJ/mol
# GULP energy per Si atom -5578.133456 kJ/mol
# Density = 1.758583 g / cm^3
# Si number density = 17.625944 Si / 1000 Ang^3
#
#
#
# Elastic Constant Matrix: (Units=GPa)
#
#
# Indices 1 2 3 4 5 6 
#
# 1 42.2877 15.1074 -0.0374 0.0000 0.0000 0.0000
# 2 15.1074 42.2877 -0.0374 0.0000 0.0000 0.0000
# 3 -0.0374 -0.0374 74.8313 0.0000 0.0000 0.0000
# 4 0.0000 0.0000 0.0000 28.1950 0.0000 0.0000
# 5 0.0000 0.0000 0.0000 0.0000 28.1950 0.0000
# 6 0.0000 0.0000 0.0000 0.0000 0.0000 -1.7964
#
#
#
# Elastic Compliance Matrix: (Units=1/GPa)
#
#
# Indices 1 2 3 4 5 6 
#
# 1 0.027107 -0.009684 0.000009 0.000000 0.000000 0.000000
# 2 -0.009684 0.027107 0.000009 0.000000 0.000000 0.000000
# 3 0.000009 0.000009 0.013363 0.000000 0.000000 0.000000
# 4 0.000000 0.000000 0.000000 0.035467 0.000000 0.000000
# 5 0.000000 0.000000 0.000000 0.000000 0.035467 0.000000
# 6 0.000000 0.000000 0.000000 0.000000 0.000000 -0.556654
#
#
# Mechanical properties :
#
#
# Convention : Reuss Voigt Hill
#
# Bulk Modulus (GPa) = 20.72779 21.05244 20.89011
# Shear Modulus (GPa) = -13.06415 20.54363 3.73974
#
# Velocity S-wave (km/s) = -2.72543 3.41770 1.45819
# Velocity P-wave (km/s) = 1.37163 5.24825 3.83572
#
# Compressibility (1/GPa) = 0.04824442
#
# Stress axis : x y z
#
# Youngs Moduli (GPa) = 36.89057 36.89057 74.83121
#
# Poissons Ratio (x) = 0.35725 -0.00065
# Poissons Ratio (y) = 0.35725 -0.00065
# Poissons Ratio (z) = -0.00032 -0.00032
#
# Static dielectric constant tensor:
#      x y z
#    x 1.606830 0.000000 0.000000 
#    y 0.000000 1.606830 0.000000 
#    z 0.000000 0.000000 1.596750 
# 
# From -- ./inp_files/772.got.cif
#   From: 2010.05.17/outbox.cif.g08.bks.cpg/sg119_1_cif.got.tgz:772.got - 2010.05.20 11:21:29.
