data_PCOD9559584
_publ_section_title
;
Structure prediction by ZEFSAII (Michael W. Deem and Ramdas Pophale) SiO2 
 PCOD9559584
Probable space group: I -4 C 2
;
_chemical_formula_sum "Si O2"
_cell_formula_units_Z 80
_cell_length_a 13.527670
_cell_length_b 13.527670
_cell_length_c 25.316708
_cell_angle_alpha 90.000000
_cell_angle_beta 90.000000
_cell_angle_gamma 90.000000
_cell_volume 4632.903276
_symmetry_space_group_name_H-M "I -4 C 2"
_symmetry_group_IT_number 120
_symmetry_cell_setting 'tetragonal'
loop_
_space_group_symop_operation_xyz
x,y,z
y,-x,-z
-x,-y,z
-y,x,-z
y,x,1/2-z
-y,-x,1/2-z
-x,y,1/2+z
x,-y,1/2+z
1/2+x,1/2+y,1/2+z
1/2+y,1/2-x,1/2-z
1/2-x,1/2-y,1/2+z
1/2-y,1/2+x,1/2-z
1/2+y,1/2+x,-z
1/2-y,1/2-x,-z
1/2-x,1/2+y,z
1/2+x,1/2-y,z
loop_
_atom_site_type_symbol
_atom_site_label
_atom_site_fract_x
_atom_site_fract_y
_atom_site_fract_z
Si Si1 0.743079 0.873818 0.134346
Si Si2 0.917067 0.230867 0.323493
Si Si3 0.553887 0.098510 0.560879
Si Si4 0.404007 0.791670 0.125125
Si Si5 0.090825 0.257209 0.698754
O O1 0.656862 0.880689 0.090370
O O2 0.832749 0.802360 0.118868
O O3 0.679224 0.832798 0.184067
O O4 0.787693 0.978030 0.150602
O O5 0.872664 0.325115 0.354549
O O6 0.844348 0.136754 0.324469
O O7 0.924096 0.254299 0.261237
O O8 0.578769 0.078769 0.500000
O O9 0.469950 0.180009 0.573984
O O10 0.500000 0.000000 0.582667
O O11 0.488359 0.779884 0.169779
#
# Coordination Sequence:
#
# PCOD9559584 Si02
#       5
#    16  16  16  16  16
#     4  10  20  35  55  79 109 144 179 226 277 319
#     4  10  18  33  51  78 111 149 185 223 265 324
#     4  10  20  39  60  80 103 136 183 229 275 326
#     4  10  20  36  53  81 110 141 180 228 270 329
#     4   9  20  31  51  79 111 148 187 219 268 325
#
# _framework density 17.267789
#
# number of rings (size 3 to 8) (size 9 to 14) (size 15 to 20)
#    0.000    2.200    2.000    1.200    0.000    3.200 
#    3.600    4.000    0.000    0.000    0.000    0.000 
#    0.000    0.000    0.000    0.000    0.000    0.000 
#
# Total GULP energy -222757.433071 kJ/mol
# GULP energy per Si atom -5568.935827 kJ/mol
# Density = 1.722849 g / cm^3
# Si number density = 17.267789 Si / 1000 Ang^3
#
#
#
# Elastic Constant Matrix: (Units=GPa)
#
#
# Indices 1 2 3 4 5 6 
#
# 1 63.5146 35.2415 17.0552 0.0000 0.0000 0.0000
# 2 35.2415 63.5146 17.0552 0.0000 0.0000 0.0000
# 3 17.0552 17.0552 50.2913 0.0000 0.0000 0.0000
# 4 0.0000 0.0000 0.0000 15.5189 0.0000 0.0000
# 5 0.0000 0.0000 0.0000 0.0000 15.5189 0.0000
# 6 0.0000 0.0000 0.0000 0.0000 0.0000 18.0489
#
#
#
# Elastic Compliance Matrix: (Units=1/GPa)
#
#
# Indices 1 2 3 4 5 6 
#
# 1 0.023419 -0.011950 -0.003890 0.000000 0.000000 0.000000
# 2 -0.011950 0.023419 -0.003890 0.000000 0.000000 0.000000
# 3 -0.003890 -0.003890 0.022522 0.000000 0.000000 0.000000
# 4 0.000000 0.000000 0.000000 0.064438 0.000000 0.000000
# 5 0.000000 0.000000 0.000000 0.000000 0.064438 0.000000
# 6 0.000000 0.000000 0.000000 0.000000 0.000000 0.055405
#
#
# Mechanical properties :
#
#
# Convention : Reuss Voigt Hill
#
# Bulk Modulus (GPa) = 33.44174 35.11381 34.27777
# Shear Modulus (GPa) = 16.49800 17.01526 16.75663
#
# Velocity S-wave (km/s) = 3.09434 3.14247 3.11850
# Velocity P-wave (km/s) = 5.67232 5.79188 5.73241
#
# Compressibility (1/GPa) = 0.02990275
#
# Stress axis : x y z
#
# Youngs Moduli (GPa) = 42.69968 42.69968 44.40042
#
# Poissons Ratio (x) = 0.51026 0.17270
# Poissons Ratio (y) = 0.51026 0.17270
# Poissons Ratio (z) = 0.16608 0.16608
#
# Static dielectric constant tensor:
#      x y z
#    x 1.595670 0.000000 0.000000 
#    y 0.000000 1.595670 0.000000 
#    z 0.000000 0.000000 1.579800 
# 
# From -- ./inp_files/6476.got.cif
#   From: 2010.05.17/outbox.cif.g08.bks.cpg/sg120_4_cif.got.tgz:6476.got - 2010.05.20 11:28:13.
