data_PCOD9559920
_publ_section_title
;
Structure prediction by ZEFSAII (Michael W. Deem and Ramdas Pophale) SiO2 
 PCOD9559920
Probable space group: I -4 C 2
;
_chemical_formula_sum "Si O2"
_cell_formula_units_Z 96
_cell_length_a 14.679493
_cell_length_b 14.679493
_cell_length_c 22.118589
_cell_angle_alpha 90.000000
_cell_angle_beta 90.000000
_cell_angle_gamma 90.000000
_cell_volume 4766.279773
_symmetry_space_group_name_H-M "I -4 C 2"
_symmetry_group_IT_number 120
_symmetry_cell_setting 'tetragonal'
loop_
_space_group_symop_operation_xyz
x,y,z
y,-x,-z
-x,-y,z
-y,x,-z
y,x,1/2-z
-y,-x,1/2-z
-x,y,1/2+z
x,-y,1/2+z
1/2+x,1/2+y,1/2+z
1/2+y,1/2-x,1/2-z
1/2-x,1/2-y,1/2+z
1/2-y,1/2+x,1/2-z
1/2+y,1/2+x,-z
1/2-y,1/2-x,-z
1/2-x,1/2+y,z
1/2+x,1/2-y,z
loop_
_atom_site_type_symbol
_atom_site_label
_atom_site_fract_x
_atom_site_fract_y
_atom_site_fract_z
Si Si1 0.151150 0.752830 0.113464
Si Si2 0.870868 0.373607 0.694712
Si Si3 0.500000 0.000000 0.000000
Si Si4 0.455913 0.819705 0.071699
Si Si5 0.383320 0.739471 0.294028
Si Si6 0.782513 0.717488 0.000000
Si Si7 0.500000 0.000000 0.250000
Si Si8 0.666750 0.423087 0.695672
O O1 0.204193 0.680125 0.158317
O O2 0.142952 0.853128 0.142733
O O3 0.047435 0.725769 0.097402
O O4 0.213310 0.760769 0.054048
O O5 0.887662 0.339958 0.627402
O O6 0.917966 0.307248 0.742127
O O7 0.766734 0.384613 0.713664
O O8 0.923812 0.466332 0.703978
O O9 0.588494 0.006540 0.958455
O O10 0.387807 0.773007 0.023103
O O11 0.325674 0.674327 0.250000
O O12 0.471026 0.685518 0.320082
O O13 0.596193 0.403808 0.750000
#
# Coordination Sequence:
#
# PCOD9559920 Si02
#       8
#    16  16   4  16  16   8   4  16
#     4  12  24  44  67  99 135 179 227 284 345 406
#     4  12  20  38  62  99 136 164 214 279 352 408
#     4  10  24  40  60 102 134 166 230 286 352 406
#     4  11  24  40  66  96 135 172 223 289 342 405
#     4  12  24  42  68 101 138 180 222 275 350 422
#     4  11  25  45  66  93 131 179 230 276 340 409
#     4  12  22  28  64 106 124 164 214 280 356 410
#     4  12  24  41  66  97 141 180 222 276 340 422
#
# _framework density 20.141496
#
# number of rings (size 3 to 8) (size 9 to 14) (size 15 to 20)
#    0.000    0.333    6.667    3.000    2.333    1.667 
#    0.000    0.000    0.000    4.500    0.000    0.000 
#    0.000    0.000    0.000    0.000    0.000    0.000 
#
# Total GULP energy -267533.154747 kJ/mol
# GULP energy per Si atom -5573.607391 kJ/mol
# Density = 2.009565 g / cm^3
# Si number density = 20.141496 Si / 1000 Ang^3
#
#
#
# Elastic Constant Matrix: (Units=GPa)
#
#
# Indices 1 2 3 4 5 6 
#
# 1 21.6966 75.5960 23.3099 0.0000 0.0000 0.0000
# 2 75.5960 21.7149 23.3212 0.0000 0.0000 0.0000
# 3 23.3099 23.3212 103.6993 0.0000 0.0000 0.0000
# 4 0.0000 0.0000 0.0000 30.8633 0.0000 0.0000
# 5 0.0000 0.0000 0.0000 0.0000 30.8630 0.0000
# 6 0.0000 0.0000 0.0000 0.0000 0.0000 33.2366
#
#
#
# Elastic Compliance Matrix: (Units=1/GPa)
#
#
# Indices 1 2 3 4 5 6 
#
# 1 -0.003520 0.015037 -0.002590 0.000000 0.000000 0.000000
# 2 0.015037 -0.003517 -0.002589 0.000000 0.000000 0.000000
# 3 -0.002590 -0.002589 0.010808 0.000000 0.000000 0.000000
# 4 0.000000 0.000000 0.000000 0.032401 0.000000 0.000000
# 5 0.000000 0.000000 0.000000 0.000000 0.032401 0.000000
# 6 0.000000 0.000000 0.000000 0.000000 0.000000 0.030087
#
#
# Mechanical properties :
#
#
# Convention : Reuss Voigt Hill
#
# Bulk Modulus (GPa) = 42.57933 43.50723 43.04328
# Shear Modulus (GPa) = 57.62188 20.65148 39.13668
#
# Velocity S-wave (km/s) = 5.35450 3.20554 4.41283
# Velocity P-wave (km/s) = 7.70802 5.94544 6.88338
#
# Compressibility (1/GPa) = 0.02348557
#
# Stress axis : x y z
#
# Youngs Moduli (GPa) = -284.06610 -284.29498 92.52548
#
# Poissons Ratio (x) = 4.27504 0.23969
# Poissons Ratio (y) = 4.27160 0.23956
# Poissons Ratio (z) = -0.73587 -0.73606
#
# Static dielectric constant tensor:
#      x y z
#    x 1.929870 0.000000 0.000000 
#    y 0.000000 1.929860 0.000000 
#    z 0.000000 0.000000 1.870980 
# 
# From -- ./inp_files/5412.got.cif
#   From: 2010.05.17/outbox.cif.g08.bks.cpg/sg120_3_cif.got.tgz:5412.got - 2010.05.20 11:28:13.
