data_PCOD9559886
_publ_section_title
;
Structure prediction by ZEFSAII (Michael W. Deem and Ramdas Pophale) SiO2 
 PCOD9559886
Probable space group: I -4 C 2
;
_chemical_formula_sum "Si O2"
_cell_formula_units_Z 80
_cell_length_a 16.732655
_cell_length_b 16.732655
_cell_length_c 13.574645
_cell_angle_alpha 90.000000
_cell_angle_beta 90.000000
_cell_angle_gamma 90.000000
_cell_volume 3800.652772
_symmetry_space_group_name_H-M "I -4 C 2"
_symmetry_group_IT_number 120
_symmetry_cell_setting 'tetragonal'
loop_
_space_group_symop_operation_xyz
x,y,z
y,-x,-z
-x,-y,z
-y,x,-z
y,x,1/2-z
-y,-x,1/2-z
-x,y,1/2+z
x,-y,1/2+z
1/2+x,1/2+y,1/2+z
1/2+y,1/2-x,1/2-z
1/2-x,1/2-y,1/2+z
1/2-y,1/2+x,1/2-z
1/2+y,1/2+x,-z
1/2-y,1/2-x,-z
1/2-x,1/2+y,z
1/2+x,1/2-y,z
loop_
_atom_site_type_symbol
_atom_site_label
_atom_site_fract_x
_atom_site_fract_y
_atom_site_fract_z
Si Si1 0.059076 0.672016 0.557794
Si Si2 0.384773 0.949828 0.276886
Si Si3 0.079729 0.823176 0.456328
Si Si4 0.216933 0.683854 0.674257
Si Si5 0.050840 0.918384 0.860766
O O1 0.099074 0.599074 0.500000
O O2 0.032992 0.745456 0.493524
O O3 0.135243 0.708140 0.618669
O O4 0.986662 0.642066 0.621328
O O5 0.469060 0.903483 0.284726
O O6 0.316506 0.894710 0.230832
O O7 0.158160 0.785725 0.403780
O O8 0.088941 0.886269 0.547421
O O9 0.021420 0.857136 0.373658
O O10 0.252590 0.747411 0.750000
O O11 0.086124 0.913876 0.750000
O O12 0.000000 0.000000 0.870467
#
# Coordination Sequence:
#
# PCOD9559886 Si02
#       5
#    16  16  16  16  16
#     4   9  21  41  62  92 131 167 216 277 324 384
#     4   9  19  40  67  94 125 168 221 266 329 381
#     4  11  22  40  61  89 128 170 216 265 326 391
#     4  10  23  39  65  96 133 167 211 274 333 387
#     4  11  24  39  58  92 128 167 223 270 314 383
#
# _framework density 21.049016000000002
#
# number of rings (size 3 to 8) (size 9 to 14) (size 15 to 20)
#    0.000    2.000    2.000    0.000    8.400    0.800 
#    3.600   17.000    0.000    0.000    0.000    0.000 
#    0.000    0.000    0.000    0.000    0.000    0.000 
#
# Total GULP energy -222924.738349 kJ/mol
# GULP energy per Si atom -5573.118459 kJ/mol
# Density = 2.100111 g / cm^3
# Si number density = 21.049016 Si / 1000 Ang^3
#
#
#
# Elastic Constant Matrix: (Units=GPa)
#
#
# Indices 1 2 3 4 5 6 
#
# 1 40.1210 24.4549 9.6783 0.0000 0.0000 0.0000
# 2 24.4549 40.1185 9.6777 0.0000 0.0000 0.0000
# 3 9.6783 9.6777 62.0049 0.0000 0.0000 0.0000
# 4 0.0000 0.0000 0.0000 5.6309 0.0000 0.0000
# 5 0.0000 0.0000 0.0000 0.0000 5.6292 0.0000
# 6 0.0000 0.0000 0.0000 0.0000 0.0000 21.0330
#
#
#
# Elastic Compliance Matrix: (Units=1/GPa)
#
#
# Indices 1 2 3 4 5 6 
#
# 1 0.040040 -0.023796 -0.002536 0.000000 0.000000 0.000000
# 2 -0.023796 0.040043 -0.002536 0.000000 0.000000 0.000000
# 3 -0.002536 -0.002536 0.016919 0.000000 0.000000 0.000000
# 4 0.000000 0.000000 0.000000 0.177593 0.000000 0.000000
# 5 0.000000 0.000000 0.000000 0.000000 0.177644 0.000000
# 6 0.000000 0.000000 0.000000 0.000000 0.000000 0.047544
#
#
# Mechanical properties :
#
#
# Convention : Reuss Voigt Hill
#
# Bulk Modulus (GPa) = 25.46577 25.54069 25.50323
# Shear Modulus (GPa) = 8.76259 13.02084 10.89172
#
# Velocity S-wave (km/s) = 2.04254 2.48986 2.27721
# Velocity P-wave (km/s) = 4.20562 4.51953 4.36539
#
# Compressibility (1/GPa) = 0.03926839
#
# Stress axis : x y z
#
# Youngs Moduli (GPa) = 24.97475 24.97330 59.10393
#
# Poissons Ratio (x) = 0.59425 0.14988
# Poissons Ratio (y) = 0.59429 0.14986
# Poissons Ratio (z) = 0.06333 0.06332
#
# Static dielectric constant tensor:
#      x y z
#    x 1.795790 0.000000 0.000000 
#    y 0.000000 1.795790 0.000000 
#    z 0.000000 0.000000 1.884260 
# 
# From -- ./inp_files/3446.got.cif
#   From: 2010.05.17/outbox.cif.g08.bks.cpg/sg120_2_cif.got.tgz:3446.got - 2010.05.20 11:28:13.
