data_PCOD9559642
_publ_section_title
;
Structure prediction by ZEFSAII (Michael W. Deem and Ramdas Pophale) SiO2 
 PCOD9559642
Probable space group: I -4 C 2
;
_chemical_formula_sum "Si O2"
_cell_formula_units_Z 96
_cell_length_a 21.674907
_cell_length_b 21.674907
_cell_length_c 11.002816
_cell_angle_alpha 90.000000
_cell_angle_beta 90.000000
_cell_angle_gamma 90.000000
_cell_volume 5169.140489
_symmetry_space_group_name_H-M "I -4 C 2"
_symmetry_group_IT_number 120
_symmetry_cell_setting 'tetragonal'
loop_
_space_group_symop_operation_xyz
x,y,z
y,-x,-z
-x,-y,z
-y,x,-z
y,x,1/2-z
-y,-x,1/2-z
-x,y,1/2+z
x,-y,1/2+z
1/2+x,1/2+y,1/2+z
1/2+y,1/2-x,1/2-z
1/2-x,1/2-y,1/2+z
1/2-y,1/2+x,1/2-z
1/2+y,1/2+x,-z
1/2-y,1/2-x,-z
1/2-x,1/2+y,z
1/2+x,1/2-y,z
loop_
_atom_site_type_symbol
_atom_site_label
_atom_site_fract_x
_atom_site_fract_y
_atom_site_fract_z
Si Si1 0.281942 0.821539 0.783028
Si Si2 0.185104 0.890507 0.911847
Si Si3 0.180993 0.005894 0.207413
Si Si4 0.126016 0.227734 0.716047
Si Si5 0.231384 0.108180 0.068357
Si Si6 0.413135 0.534520 0.548958
O O1 0.233802 0.766199 0.750000
O O2 0.252663 0.858399 0.897553
O O3 0.346235 0.785812 0.789445
O O4 0.280687 0.866097 0.664868
O O5 0.185441 0.942789 0.810501
O O6 0.140913 0.832275 0.890887
O O7 0.147132 0.924314 0.018618
O O8 0.217106 0.036447 0.092584
O O9 0.211806 0.943527 0.251663
O O10 0.109233 0.995282 0.174053
O O11 0.169394 0.169394 0.750000
O O12 0.127477 0.240941 0.570945
O O13 0.475419 0.574093 0.538525
#
# Coordination Sequence:
#
# PCOD9559642 Si02
#       6
#    16  16  16  16  16  16
#     4   8  18  35  56  73  97 136 176 227 277 321
#     4  10  20  37  53  72 107 140 179 221 277 307
#     4  11  22  33  50  73 107 144 179 228 266 306
#     4  11  22  33  52  80  99 132 189 228 268 325
#     4  10  19  37  54  71 104 142 179 224 276 318
#     4  11  23  34  48  71 101 145 194 224 260 305
#
# _framework density 18.571753000000001
#
# number of rings (size 3 to 8) (size 9 to 14) (size 15 to 20)
#    0.000    1.833    1.667    4.000    2.333    0.000 
#    0.000    4.167    0.000    0.000    0.000    0.000 
#    0.000   10.667    0.000   30.667    1.333    0.667 
#
# Total GULP energy -267306.519827 kJ/mol
# GULP energy per Si atom -5568.885830 kJ/mol
# Density = 1.852948 g / cm^3
# Si number density = 18.571753 Si / 1000 Ang^3
#
#
#
# Elastic Constant Matrix: (Units=GPa)
#
#
# Indices 1 2 3 4 5 6 
#
# 1 64.3369 44.2044 16.1632 0.0000 0.0000 0.0000
# 2 44.2044 64.3372 16.1634 0.0000 0.0000 0.0000
# 3 16.1632 16.1634 47.2020 0.0000 0.0000 0.0000
# 4 0.0000 0.0000 0.0000 11.8248 0.0000 0.0000
# 5 0.0000 0.0000 0.0000 0.0000 11.8247 0.0000
# 6 0.0000 0.0000 0.0000 0.0000 0.0000 26.1793
#
#
#
# Elastic Compliance Matrix: (Units=1/GPa)
#
#
# Indices 1 2 3 4 5 6 
#
# 1 0.029965 -0.019706 -0.003513 0.000000 0.000000 0.000000
# 2 -0.019706 0.029965 -0.003513 0.000000 0.000000 0.000000
# 3 -0.003513 -0.003513 0.023591 0.000000 0.000000 0.000000
# 4 0.000000 0.000000 0.000000 0.084568 0.000000 0.000000
# 5 0.000000 0.000000 0.000000 0.000000 0.084569 0.000000
# 6 0.000000 0.000000 0.000000 0.000000 0.000000 0.038198
#
#
# Mechanical properties :
#
#
# Convention : Reuss Voigt Hill
#
# Bulk Modulus (GPa) = 33.26918 36.54868 34.90893
# Shear Modulus (GPa) = 14.11077 16.58877 15.34977
#
# Velocity S-wave (km/s) = 2.75943 2.99193 2.87803
# Velocity P-wave (km/s) = 5.30145 5.62654 5.46641
#
# Compressibility (1/GPa) = 0.03005785
#
# Stress axis : x y z
#
# Youngs Moduli (GPa) = 33.37226 33.37240 42.38818
#
# Poissons Ratio (x) = 0.65762 0.14891
# Poissons Ratio (y) = 0.65762 0.14892
# Poissons Ratio (z) = 0.11724 0.11724
#
# Static dielectric constant tensor:
#      x y z
#    x 1.676180 0.000000 0.000000 
#    y 0.000000 1.676180 0.000000 
#    z 0.000000 0.000000 1.805980 
# 
# From -- ./inp_files/2739.got.cif
#   From: 2010.05.17/outbox.cif.g08.bks.cpg/sg120_2_cif.got.tgz:2739.got - 2010.05.20 11:28:13.
