data_PCOD9559344
_publ_section_title
;
Structure prediction by ZEFSAII (Michael W. Deem and Ramdas Pophale) SiO2 
 PCOD9559344
Probable space group: I -4 M 2
;
_chemical_formula_sum "Si O2"
_cell_formula_units_Z 64
_cell_length_a 19.771210
_cell_length_b 19.771210
_cell_length_c 8.085945
_cell_angle_alpha 90.000000
_cell_angle_beta 90.000000
_cell_angle_gamma 90.000000
_cell_volume 3160.801923
_symmetry_space_group_name_H-M "I -4 M 2"
_symmetry_group_IT_number 119
_symmetry_cell_setting 'tetragonal'
loop_
_space_group_symop_operation_xyz
x,y,z
y,-x,-z
-x,-y,z
-y,x,-z
y,x,-z
-y,-x,-z
-x,y,z
x,-y,z
1/2+x,1/2+y,1/2+z
1/2+y,1/2-x,1/2-z
1/2-x,1/2-y,1/2+z
1/2-y,1/2+x,1/2-z
1/2+y,1/2+x,1/2-z
1/2-y,1/2-x,1/2-z
1/2-x,1/2+y,1/2+z
1/2+x,1/2-y,1/2+z
loop_
_atom_site_type_symbol
_atom_site_label
_atom_site_fract_x
_atom_site_fract_y
_atom_site_fract_z
Si Si1 0.362639 0.422241 0.834175
Si Si2 0.788228 0.318467 0.560231
Si Si3 0.275304 0.925007 0.531317
Si Si4 0.077497 0.804350 0.122049
O O1 0.372845 0.500000 0.789941
O O2 0.386316 0.372375 0.688965
O O3 0.405245 0.405245 0.000000
O O4 0.285432 0.413437 0.898137
O O5 0.748600 0.251401 0.500000
O O6 0.805504 0.305504 0.750000
O O7 0.861356 0.324332 0.475934
O O8 0.620074 0.260198 0.491928
O O9 0.240094 0.924429 0.709880
O O10 0.303816 0.000000 0.501396
O O11 0.000000 0.816584 0.071076
#
# Coordination Sequence:
#
# PCOD9559344 Si02
#       4
#    16  16  16  16
#     4   9  16  29  54  90 130 169 205 240 286 353
#     4  12  23  37  60  84 111 151 198 246 296 352
#     4   9  18  34  58  87 118 151 192 243 297 356
#     4  10  21  36  55  84 121 158 199 247 294 346
#
# _framework density 20.248028000000001
#
# number of rings (size 3 to 8) (size 9 to 14) (size 15 to 20)
#    0.000    2.000    0.000    8.250    0.000    2.750 
#    0.000    1.250    0.000    2.250    0.000    5.250 
#    0.000    0.000    0.000    0.000    0.000    0.000 
#
# Total GULP energy -178796.533169 kJ/mol
# GULP energy per Si atom -5587.391662 kJ/mol
# Density = 2.020194 g / cm^3
# Si number density = 20.248028 Si / 1000 Ang^3
#
#
#
# Elastic Constant Matrix: (Units=GPa)
#
#
# Indices 1 2 3 4 5 6 
#
# 1 128.9683 68.3838 48.6671 0.0000 0.0000 0.0000
# 2 68.3838 128.9683 48.6682 0.0000 0.0000 0.0000
# 3 48.6671 48.6682 115.5443 0.0000 0.0000 0.0000
# 4 0.0000 0.0000 0.0000 30.4461 0.0000 0.0000
# 5 0.0000 0.0000 0.0000 0.0000 30.4509 0.0000
# 6 0.0000 0.0000 0.0000 0.0000 0.0000 20.6142
#
#
#
# Elastic Compliance Matrix: (Units=1/GPa)
#
#
# Indices 1 2 3 4 5 6 
#
# 1 0.011451 -0.005055 -0.002694 0.000000 0.000000 0.000000
# 2 -0.005055 0.011451 -0.002694 0.000000 0.000000 0.000000
# 3 -0.002694 -0.002694 0.010924 0.000000 0.000000 0.000000
# 4 0.000000 0.000000 0.000000 0.032845 0.000000 0.000000
# 5 0.000000 0.000000 0.000000 0.000000 0.032840 0.000000
# 6 0.000000 0.000000 0.000000 0.000000 0.000000 0.048510
#
#
# Mechanical properties :
#
#
# Convention : Reuss Voigt Hill
#
# Bulk Modulus (GPa) = 77.28031 78.32433 77.80232
# Shear Modulus (GPa) = 28.86508 30.15303 29.50905
#
# Velocity S-wave (km/s) = 3.77977 3.86318 3.82170
# Velocity P-wave (km/s) = 7.56958 7.65933 7.61459
#
# Compressibility (1/GPa) = 0.01293991
#
# Stress axis : x y z
#
# Youngs Moduli (GPa) = 87.33047 87.32967 91.54110
#
# Poissons Ratio (x) = 0.44146 0.24659
# Poissons Ratio (y) = 0.44146 0.24661
# Poissons Ratio (z) = 0.23525 0.23527
#
# Static dielectric constant tensor:
#      x y z
#    x 1.681590 0.000000 0.000000 
#    y 0.000000 1.681620 0.000000 
#    z 0.000000 0.000000 1.777690 
# 
# From -- ./inp_files/3772.got.cif
#   From: 2010.05.17/outbox.cif.g08.bks.cpg/sg119_2_cif.got.tgz:3772.got - 2010.05.20 11:21:29.
