data_PCOD9559804
_publ_section_title
;
Structure prediction by ZEFSAII (Michael W. Deem and Ramdas Pophale) SiO2 
 PCOD9559804
Probable space group: I -4 C 2
;
_chemical_formula_sum "Si O2"
_cell_formula_units_Z 116
_cell_length_a 15.776199
_cell_length_b 15.776199
_cell_length_c 17.886633
_cell_angle_alpha 90.000000
_cell_angle_beta 90.000000
_cell_angle_gamma 90.000000
_cell_volume 4451.776451
_symmetry_space_group_name_H-M "I -4 C 2"
_symmetry_group_IT_number 120
_symmetry_cell_setting 'tetragonal'
loop_
_space_group_symop_operation_xyz
x,y,z
y,-x,-z
-x,-y,z
-y,x,-z
y,x,1/2-z
-y,-x,1/2-z
-x,y,1/2+z
x,-y,1/2+z
1/2+x,1/2+y,1/2+z
1/2+y,1/2-x,1/2-z
1/2-x,1/2-y,1/2+z
1/2-y,1/2+x,1/2-z
1/2+y,1/2+x,-z
1/2-y,1/2-x,-z
1/2-x,1/2+y,z
1/2+x,1/2-y,z
loop_
_atom_site_type_symbol
_atom_site_label
_atom_site_fract_x
_atom_site_fract_y
_atom_site_fract_z
Si Si1 0.672253 0.355309 0.838862
Si Si2 0.232896 0.817303 0.887161
Si Si3 0.620053 0.954434 0.391527
Si Si4 0.338971 0.584580 0.514402
Si Si5 0.601076 0.777609 0.815938
Si Si6 0.000000 0.000000 0.000000
Si Si7 0.057207 0.684426 0.223277
Si Si8 0.979938 0.331112 0.957168
O O1 0.650332 0.349669 0.750000
O O2 0.713080 0.266710 0.867715
O O3 0.603161 0.372134 0.901850
O O4 0.742660 0.428295 0.838436
O O5 0.296039 0.896969 0.881922
O O6 0.154593 0.807422 0.829363
O O7 0.195078 0.833222 0.970037
O O8 0.628286 0.019006 0.460698
O O9 0.546568 0.889588 0.412117
O O10 0.609001 0.006884 0.316466
O O11 0.416924 0.547056 0.466917
O O12 0.260887 0.521431 0.526687
O O13 0.652388 0.846551 0.765821
O O14 0.504813 0.776905 0.785681
O O15 0.595986 0.814244 0.900441
#
# Coordination Sequence:
#
# PCOD9559804 Si02
#       8
#    16  16  16  16  16   4  16  16
#     4  11  24  42  70 100 133 178 230 292 343 414
#     4  10  23  41  73  95 127 177 236 285 327 406
#     4  10  22  40  64  98 123 170 218 283 333 389
#     4  11  23  45  67 102 137 182 233 283 342 406
#     4  11  24  42  62  96 132 181 214 276 346 412
#     4  12  28  40  70 104 148 192 228 286 356 412
#     4  11  26  39  63  96 132 169 222 277 340 416
#     4  10  21  41  67  90 131 167 220 273 335 401
#
# _framework density 26.057012
#
# number of rings (size 3 to 8) (size 9 to 14) (size 15 to 20)
#    0.000    1.379    1.379    2.897    9.655    2.483 
#    0.000    1.724    3.034    0.000    0.000    0.000 
#    0.000    0.000    0.000    0.000    0.000    0.000 
#
# Total GULP energy -323902.148362 kJ/mol
# GULP energy per Si atom -5584.519799 kJ/mol
# Density = 2.599771 g / cm^3
# Si number density = 26.057012 Si / 1000 Ang^3
#
#
#
# Elastic Constant Matrix: (Units=GPa)
#
#
# Indices 1 2 3 4 5 6 
#
# 1 74.3670 18.6433 35.5663 0.0000 0.0000 0.0000
# 2 18.6433 74.3670 35.5664 0.0000 0.0000 0.0000
# 3 35.5663 35.5664 127.4998 0.0000 0.0000 0.0000
# 4 0.0000 0.0000 0.0000 34.0638 0.0000 0.0000
# 5 0.0000 0.0000 0.0000 0.0000 34.0638 0.0000
# 6 0.0000 0.0000 0.0000 0.0000 0.0000 37.7979
#
#
#
# Elastic Compliance Matrix: (Units=1/GPa)
#
#
# Indices 1 2 3 4 5 6 
#
# 1 0.015806 -0.002139 -0.003813 0.000000 0.000000 0.000000
# 2 -0.002139 0.015806 -0.003813 0.000000 0.000000 0.000000
# 3 -0.003813 -0.003813 0.009970 0.000000 0.000000 0.000000
# 4 0.000000 0.000000 0.000000 0.029357 0.000000 0.000000
# 5 0.000000 0.000000 0.000000 0.000000 0.029357 0.000000
# 6 0.000000 0.000000 0.000000 0.000000 0.000000 0.026457
#
#
# Mechanical properties :
#
#
# Convention : Reuss Voigt Hill
#
# Bulk Modulus (GPa) = 45.34197 50.64286 47.99242
# Shear Modulus (GPa) = 32.54510 33.61562 33.08036
#
# Velocity S-wave (km/s) = 3.53795 3.59566 3.56692
# Velocity P-wave (km/s) = 5.84194 6.05937 5.95165
#
# Compressibility (1/GPa) = 0.02205462
#
# Stress axis : x y z
#
# Youngs Moduli (GPa) = 63.26529 63.26524 100.29929
#
# Poissons Ratio (x) = 0.13534 0.38239
# Poissons Ratio (y) = 0.13534 0.38239
# Poissons Ratio (z) = 0.24120 0.24120
#
# Static dielectric constant tensor:
#      x y z
#    x 2.086680 0.000000 0.000000 
#    y 0.000000 2.086680 0.000000 
#    z 0.000000 0.000000 2.085770 
# 
# From -- ./inp_files/4575.got.cif
#   From: 2010.05.17/outbox.cif.g08.bks.cpg/sg120_3_cif.got.tgz:4575.got - 2010.05.20 11:28:13.
