data_PCOD9559932
_publ_section_title
;
Structure prediction by ZEFSAII (Michael W. Deem and Ramdas Pophale) SiO2 
 PCOD9559932
Probable space group: I -4 C 2
;
_chemical_formula_sum "Si O2"
_cell_formula_units_Z 52
_cell_length_a 15.788566
_cell_length_b 15.788566
_cell_length_c 9.683532
_cell_angle_alpha 90.000000
_cell_angle_beta 90.000000
_cell_angle_gamma 90.000000
_cell_volume 2413.899395
_symmetry_space_group_name_H-M "I -4 C 2"
_symmetry_group_IT_number 120
_symmetry_cell_setting 'tetragonal'
loop_
_space_group_symop_operation_xyz
x,y,z
y,-x,-z
-x,-y,z
-y,x,-z
y,x,1/2-z
-y,-x,1/2-z
-x,y,1/2+z
x,-y,1/2+z
1/2+x,1/2+y,1/2+z
1/2+y,1/2-x,1/2-z
1/2-x,1/2-y,1/2+z
1/2-y,1/2+x,1/2-z
1/2+y,1/2+x,-z
1/2-y,1/2-x,-z
1/2-x,1/2+y,z
1/2+x,1/2-y,z
loop_
_atom_site_type_symbol
_atom_site_label
_atom_site_fract_x
_atom_site_fract_y
_atom_site_fract_z
Si Si1 0.261868 0.738133 0.750000
Si Si2 0.000000 0.500000 0.750000
Si Si3 0.576536 0.274115 0.578371
Si Si4 0.593824 0.906177 0.000000
Si Si5 0.326387 0.612423 0.385875
O O1 0.357769 0.748814 0.699214
O O2 0.240132 0.810569 0.862568
O O3 0.045421 0.436751 0.639345
O O4 0.581078 0.193819 0.476289
O O5 0.616102 0.358785 0.512922
O O6 0.478863 0.286003 0.609058
O O7 0.383869 0.616131 0.250000
#
# Coordination Sequence:
#
# PCOD9559932 Si02
#       5
#     8   4  16   8  16
#     4  10  24  48  69 111 136 190 244 294 376 430
#     4  10  28  42  68 118 148 198 260 306 388 450
#     4  12  25  48  75 102 150 191 246 306 373 444
#     4  11  24  48  74 108 152 201 246 324 376 449
#     4  10  26  47  70 109 141 185 247 295 369 440
#
# _framework density 21.541907999999999
#
# number of rings (size 3 to 8) (size 9 to 14) (size 15 to 20)
#    0.923    0.308    3.077    0.000   12.923    0.615 
#    5.538    0.000    0.000    0.000    0.000    0.000 
#    0.000    0.000    0.000    0.000    0.000    0.000 
#
# Total GULP energy -144989.204988 kJ/mol
# GULP energy per Si atom -5576.507884 kJ/mol
# Density = 2.149288 g / cm^3
# Si number density = 21.541908 Si / 1000 Ang^3
#
#
#
# Elastic Constant Matrix: (Units=GPa)
#
#
# Indices 1 2 3 4 5 6 
#
# 1 149.3513 44.7200 24.8098 0.0000 0.0000 0.0000
# 2 44.7200 149.3468 24.8096 0.0000 0.0000 0.0000
# 3 24.8098 24.8096 59.2374 0.0000 0.0000 0.0000
# 4 0.0000 0.0000 0.0000 12.4074 0.0000 0.0000
# 5 0.0000 0.0000 0.0000 0.0000 12.4073 0.0000
# 6 0.0000 0.0000 0.0000 0.0000 0.0000 28.8868
#
#
#
# Elastic Compliance Matrix: (Units=1/GPa)
#
#
# Indices 1 2 3 4 5 6 
#
# 1 0.007664 -0.001893 -0.002417 0.000000 0.000000 0.000000
# 2 -0.001893 0.007664 -0.002417 0.000000 0.000000 0.000000
# 3 -0.002417 -0.002417 0.018906 0.000000 0.000000 0.000000
# 4 0.000000 0.000000 0.000000 0.080597 0.000000 0.000000
# 5 0.000000 0.000000 0.000000 0.000000 0.080598 0.000000
# 6 0.000000 0.000000 0.000000 0.000000 0.000000 0.034618
#
#
# Mechanical properties :
#
#
# Convention : Reuss Voigt Hill
#
# Bulk Modulus (GPa) = 48.12406 60.73494 54.42950
# Shear Modulus (GPa) = 19.96584 28.31338 24.13961
#
# Velocity S-wave (km/s) = 3.04770 3.62932 3.35115
# Velocity P-wave (km/s) = 5.89685 6.76887 6.34785
#
# Compressibility (1/GPa) = 0.02077963
#
# Stress axis : x y z
#
# Youngs Moduli (GPa) = 130.47938 130.47534 52.89409
#
# Poissons Ratio (x) = 0.24704 0.12784
# Poissons Ratio (y) = 0.24705 0.12784
# Poissons Ratio (z) = 0.31535 0.31535
#
# Static dielectric constant tensor:
#      x y z
#    x 1.810530 0.000000 0.000000 
#    y 0.000000 1.810530 0.000000 
#    z 0.000000 0.000000 1.828260 
# 
# From -- ./inp_files/2243.got.cif
#   From: 2010.05.17/outbox.cif.g08.bks.cpg/sg120_2_cif.got.tgz:2243.got - 2010.05.20 11:28:13.
