data_PCOD9559209
_publ_section_title
;
Structure prediction by ZEFSAII (Michael W. Deem and Ramdas Pophale) SiO2 
 PCOD9559209
Probable space group: I -4 M 2
;
_chemical_formula_sum "Si O2"
_cell_formula_units_Z 112
_cell_length_a 23.726400
_cell_length_b 23.726400
_cell_length_c 12.032141
_cell_angle_alpha 90.000000
_cell_angle_beta 90.000000
_cell_angle_gamma 90.000000
_cell_volume 6773.398204
_symmetry_space_group_name_H-M "I -4 M 2"
_symmetry_group_IT_number 119
_symmetry_cell_setting 'tetragonal'
loop_
_space_group_symop_operation_xyz
x,y,z
y,-x,-z
-x,-y,z
-y,x,-z
y,x,-z
-y,-x,-z
-x,y,z
x,-y,z
1/2+x,1/2+y,1/2+z
1/2+y,1/2-x,1/2-z
1/2-x,1/2-y,1/2+z
1/2-y,1/2+x,1/2-z
1/2+y,1/2+x,1/2-z
1/2-y,1/2-x,1/2-z
1/2-x,1/2+y,1/2+z
1/2+x,1/2-y,1/2+z
loop_
_atom_site_type_symbol
_atom_site_label
_atom_site_fract_x
_atom_site_fract_y
_atom_site_fract_z
Si Si1 0.936469 0.625756 0.841102
Si Si2 0.751519 0.563860 0.549439
Si Si3 0.715906 0.666217 0.677606
Si Si4 0.182385 0.257947 0.579487
Si Si5 0.321046 0.127765 0.608256
Si Si6 0.758142 0.622391 0.323163
Si Si7 0.937292 0.433548 0.071786
O O1 0.890961 0.609040 0.750000
O O2 0.926885 0.686088 0.898301
O O3 0.000000 0.625624 0.792960
O O4 0.935872 0.580542 0.940689
O O5 0.735154 0.500000 0.570844
O O6 0.712136 0.608913 0.609209
O O7 0.755376 0.575762 0.418272
O O8 0.765375 0.702137 0.616592
O O9 0.733769 0.658590 0.805498
O O10 0.658873 0.701861 0.678232
O O11 0.209974 0.209974 0.500000
O O12 0.134749 0.292351 0.511738
O O13 0.334709 0.192684 0.637640
O O14 0.278532 0.104179 0.701052
O O15 0.381132 0.096633 0.615698
O O16 0.934277 0.500000 0.092194
O O17 0.000000 0.413640 0.111504
#
# Coordination Sequence:
#
# PCOD9559209 Si02
#       7
#    16  16  16  16  16  16  16
#     4  10  20  34  48  65  91 130 181 236 278 311
#     4  11  23  35  51  76 107 139 176 220 274 329
#     4  11  20  32  54  78 108 134 168 222 276 342
#     4  11  17  31  51  81 107 129 174 228 285 343
#     4  11  20  33  52  76 101 132 178 236 289 326
#     4  11  20  34  54  71  99 136 170 218 277 337
#     4  10  21  36  51  68  97 143 197 241 272 308
#
# _framework density 16.535274999999999
#
# number of rings (size 3 to 8) (size 9 to 14) (size 15 to 20)
#    0.000    1.286    5.714    1.714    4.000    1.286 
#    0.000    2.143    0.000    3.429    0.000    0.000 
#    0.000    4.571    0.000    0.000    0.000    0.000 
#
# Total GULP energy -312537.831230 kJ/mol
# GULP energy per Si atom -5581.032701 kJ/mol
# Density = 1.649764 g / cm^3
# Si number density = 16.535275 Si / 1000 Ang^3
#
#
#
# Elastic Constant Matrix: (Units=GPa)
#
#
# Indices 1 2 3 4 5 6 
#
# 1 69.4916 44.3383 32.4542 0.0000 0.0000 0.0000
# 2 44.3383 69.4912 32.4535 0.0000 0.0000 0.0000
# 3 32.4542 32.4535 88.9272 0.0000 0.0000 0.0000
# 4 0.0000 0.0000 0.0000 6.6497 0.0000 0.0000
# 5 0.0000 0.0000 0.0000 0.0000 6.6497 0.0000
# 6 0.0000 0.0000 0.0000 0.0000 0.0000 22.4460
#
#
#
# Elastic Compliance Matrix: (Units=1/GPa)
#
#
# Indices 1 2 3 4 5 6 
#
# 1 0.025425 -0.014331 -0.004049 0.000000 0.000000 0.000000
# 2 -0.014331 0.025425 -0.004048 0.000000 0.000000 0.000000
# 3 -0.004049 -0.004048 0.014200 0.000000 0.000000 0.000000
# 4 0.000000 0.000000 0.000000 0.150383 0.000000 0.000000
# 5 0.000000 0.000000 0.000000 0.000000 0.150383 0.000000
# 6 0.000000 0.000000 0.000000 0.000000 0.000000 0.044551
#
#
# Mechanical properties :
#
#
# Convention : Reuss Voigt Hill
#
# Bulk Modulus (GPa) = 49.52193 49.60022 49.56108
# Shear Modulus (GPa) = 10.82353 15.06000 12.94177
#
# Velocity S-wave (km/s) = 2.56124 3.02119 2.80067
# Velocity P-wave (km/s) = 6.22582 6.49860 6.36367
#
# Compressibility (1/GPa) = 0.02019307
#
# Stress axis : x y z
#
# Youngs Moduli (GPa) = 39.33117 39.33123 70.42146
#
# Poissons Ratio (x) = 0.56367 0.28512
# Poissons Ratio (y) = 0.56367 0.28510
# Poissons Ratio (z) = 0.15924 0.15923
#
# Static dielectric constant tensor:
#      x y z
#    x 1.560200 0.000000 0.000000 
#    y 0.000000 1.560200 0.000000 
#    z 0.000000 0.000000 1.615520 
# 
# From -- ./inp_files/4395.got.cif
#   From: 2010.05.17/outbox.cif.g08.bks.cpg/sg119_3_cif.got.tgz:4395.got - 2010.05.20 11:21:29.
