data_PCOD9559795
_publ_section_title
;
Structure prediction by ZEFSAII (Michael W. Deem and Ramdas Pophale) SiO2 
 PCOD9559795
Probable space group: I -4 C 2
;
_chemical_formula_sum "Si O2"
_cell_formula_units_Z 88
_cell_length_a 14.336529
_cell_length_b 14.336529
_cell_length_c 20.477762
_cell_angle_alpha 90.000000
_cell_angle_beta 90.000000
_cell_angle_gamma 90.000000
_cell_volume 4208.918596
_symmetry_space_group_name_H-M "I -4 C 2"
_symmetry_group_IT_number 120
_symmetry_cell_setting 'tetragonal'
loop_
_space_group_symop_operation_xyz
x,y,z
y,-x,-z
-x,-y,z
-y,x,-z
y,x,1/2-z
-y,-x,1/2-z
-x,y,1/2+z
x,-y,1/2+z
1/2+x,1/2+y,1/2+z
1/2+y,1/2-x,1/2-z
1/2-x,1/2-y,1/2+z
1/2-y,1/2+x,1/2-z
1/2+y,1/2+x,-z
1/2-y,1/2-x,-z
1/2-x,1/2+y,z
1/2+x,1/2-y,z
loop_
_atom_site_type_symbol
_atom_site_label
_atom_site_fract_x
_atom_site_fract_y
_atom_site_fract_z
Si Si1 0.647728 0.795484 0.226347
Si Si2 0.199631 0.552206 0.328568
Si Si3 0.836643 0.479642 0.966187
Si Si4 0.546005 0.647773 0.990383
Si Si5 0.173825 0.203742 0.383430
Si Si6 0.182269 0.317732 0.000000
O O1 0.705504 0.705504 0.250000
O O2 0.542854 0.775296 0.206909
O O3 0.646984 0.875626 0.281560
O O4 0.708658 0.830193 0.164262
O O5 0.143831 0.521508 0.394369
O O6 0.292148 0.610395 0.347137
O O7 0.812513 0.570503 0.009998
O O8 0.913144 0.413144 0.000000
O O9 0.734484 0.433107 0.961870
O O10 0.577659 0.685405 0.920150
O O11 0.610656 0.558766 0.005079
O O12 0.254044 0.211770 0.439186
#
# Coordination Sequence:
#
# PCOD9559795 Si02
#       6
#    16  16  16  16  16   8
#     4  10  23  45  67  91 127 179 226 271 320 388
#     4  10  22  45  62  95 129 170 224 268 321 400
#     4  11  23  41  67  99 139 169 216 281 351 402
#     4  11  22  38  62 101 132 170 211 271 344 406
#     4  10  22  42  67  93 139 167 221 276 327 404
#     4  10  21  40  62 102 130 167 218 282 332 407
#
# _framework density 20.907985
#
# number of rings (size 3 to 8) (size 9 to 14) (size 15 to 20)
#    0.000    1.636    3.636    1.364    3.818    0.364 
#   29.455    0.000    0.000    0.000    0.000    0.000 
#    0.000    0.000    0.000    0.000    0.000    0.000 
#
# Total GULP energy -245539.032997 kJ/mol
# GULP energy per Si atom -5580.432568 kJ/mol
# Density = 2.086040 g / cm^3
# Si number density = 20.907985 Si / 1000 Ang^3
#
#
#
# Elastic Constant Matrix: (Units=GPa)
#
#
# Indices 1 2 3 4 5 6 
#
# 1 107.5312 41.1353 44.3252 0.0000 0.0000 0.0000
# 2 41.1353 107.5320 44.3251 0.0000 0.0000 0.0000
# 3 44.3252 44.3251 95.2519 0.0000 0.0000 0.0000
# 4 0.0000 0.0000 0.0000 25.3233 0.0000 0.0000
# 5 0.0000 0.0000 0.0000 0.0000 25.3233 0.0000
# 6 0.0000 0.0000 0.0000 0.0000 0.0000 8.1510
#
#
#
# Elastic Compliance Matrix: (Units=1/GPa)
#
#
# Indices 1 2 3 4 5 6 
#
# 1 0.012185 -0.002876 -0.004332 0.000000 0.000000 0.000000
# 2 -0.002876 0.012185 -0.004332 0.000000 0.000000 0.000000
# 3 -0.004332 -0.004332 0.014530 0.000000 0.000000 0.000000
# 4 0.000000 0.000000 0.000000 0.039489 0.000000 0.000000
# 5 0.000000 0.000000 0.000000 0.000000 0.039489 0.000000
# 6 0.000000 0.000000 0.000000 0.000000 0.000000 0.122684
#
#
# Mechanical properties :
#
#
# Convention : Reuss Voigt Hill
#
# Bulk Modulus (GPa) = 63.20727 63.32071 63.26399
# Shear Modulus (GPa) = 18.59301 23.79483 21.19392
#
# Velocity S-wave (km/s) = 2.98531 3.37719 3.18728
# Velocity P-wave (km/s) = 6.49458 6.74970 6.62337
#
# Compressibility (1/GPa) = 0.01582096
#
# Stress axis : x y z
#
# Youngs Moduli (GPa) = 82.06477 82.06560 68.82077
#
# Poissons Ratio (x) = 0.23599 0.29815
# Poissons Ratio (y) = 0.23599 0.29815
# Poissons Ratio (z) = 0.35553 0.35553
#
# Static dielectric constant tensor:
#      x y z
#    x 1.795730 0.000000 0.000000 
#    y 0.000000 1.795730 0.000000 
#    z 0.000000 0.000000 1.813420 
# 
# From -- ./inp_files/5274.got.cif
#   From: 2010.05.17/outbox.cif.g08.bks.cpg/sg120_3_cif.got.tgz:5274.got - 2010.05.20 11:28:13.
