data_PCOD9559236
_publ_section_title
;
Structure prediction by ZEFSAII (Michael W. Deem and Ramdas Pophale) SiO2 
 PCOD9559236
Probable space group: I -4 M 2
;
_chemical_formula_sum "Si O2"
_cell_formula_units_Z 96
_cell_length_a 32.019627
_cell_length_b 32.019627
_cell_length_c 5.054333
_cell_angle_alpha 90.000000
_cell_angle_beta 90.000000
_cell_angle_gamma 90.000000
_cell_volume 5181.987828
_symmetry_space_group_name_H-M "I -4 M 2"
_symmetry_group_IT_number 119
_symmetry_cell_setting 'tetragonal'
loop_
_space_group_symop_operation_xyz
x,y,z
y,-x,-z
-x,-y,z
-y,x,-z
y,x,-z
-y,-x,-z
-x,y,z
x,-y,z
1/2+x,1/2+y,1/2+z
1/2+y,1/2-x,1/2-z
1/2-x,1/2-y,1/2+z
1/2-y,1/2+x,1/2-z
1/2+y,1/2+x,1/2-z
1/2-y,1/2-x,1/2-z
1/2-x,1/2+y,1/2+z
1/2+x,1/2-y,1/2+z
loop_
_atom_site_type_symbol
_atom_site_label
_atom_site_fract_x
_atom_site_fract_y
_atom_site_fract_z
Si Si1 0.155747 0.714185 0.915295
Si Si2 0.175908 0.583412 0.304574
Si Si3 0.739021 0.407298 0.975893
Si Si4 0.790342 0.830445 0.750375
Si Si5 0.500000 0.795816 0.454163
Si Si6 0.741628 0.500000 0.032442
Si Si7 0.914565 0.585435 0.250000
Si Si8 0.952405 0.452405 0.750000
O O1 0.192094 0.692094 0.750000
O O2 0.122860 0.745539 0.764174
O O3 0.125820 0.678116 0.026763
O O4 0.174812 0.743149 0.144442
O O5 0.180507 0.542386 0.482075
O O6 0.132814 0.579994 0.153716
O O7 0.217354 0.586042 0.129332
O O8 0.722102 0.454834 0.950057
O O9 0.708401 0.378064 0.146356
O O10 0.801874 0.801874 0.500000
O O11 0.819260 0.819260 0.000000
O O12 0.500000 0.782787 0.150847
O O13 0.500000 0.755703 0.658882
O O14 0.923842 0.556708 0.499028
O O15 0.946755 0.500000 0.840369
#
# Coordination Sequence:
#
# PCOD9559236 Si02
#       8
#    16  16  16  16   8   8   8   8
#     4  11  22  39  61  82 118 154 189 242 300 341
#     4  10  23  36  57  88 113 141 174 232 286 358
#     4  10  21  40  59  85 119 154 188 236 293 344
#     4  11  23  43  61  83 115 156 207 247 282 338
#     4  10  20  34  56  80 109 138 174 220 280 351
#     4  10  20  36  60  84 112 150 183 227 290 352
#     4  12  26  41  66  86 104 135 176 225 294 357
#     4  11  28  50  64  80 106 137 178 229 292 375
#
# _framework density 18.525708000000002
#
# number of rings (size 3 to 8) (size 9 to 14) (size 15 to 20)
#    0.000    1.417    3.333    1.500    5.833    2.667 
#    3.000    0.000    0.000    0.000    0.000    0.000 
#    0.000    0.000    0.000    0.000    0.000    2.500 
#
# Total GULP energy -267794.287861 kJ/mol
# GULP energy per Si atom -5579.047664 kJ/mol
# Density = 1.848354 g / cm^3
# Si number density = 18.525708 Si / 1000 Ang^3
#
#
#
# Elastic Constant Matrix: (Units=GPa)
#
#
# Indices 1 2 3 4 5 6 
#
# 1 71.6510 54.8067 27.5809 0.0000 0.0000 0.0000
# 2 54.8067 71.6516 27.5807 0.0000 0.0000 0.0000
# 3 27.5809 27.5807 75.7252 0.0000 0.0000 0.0000
# 4 0.0000 0.0000 0.0000 34.0904 0.0000 0.0000
# 5 0.0000 0.0000 0.0000 0.0000 34.0932 0.0000
# 6 0.0000 0.0000 0.0000 0.0000 0.0000 15.7490
#
#
#
# Elastic Compliance Matrix: (Units=1/GPa)
#
#
# Indices 1 2 3 4 5 6 
#
# 1 0.034384 -0.024982 -0.003424 0.000000 0.000000 0.000000
# 2 -0.024982 0.034384 -0.003424 0.000000 0.000000 0.000000
# 3 -0.003424 -0.003424 0.015700 0.000000 0.000000 0.000000
# 4 0.000000 0.000000 0.000000 0.029334 0.000000 0.000000
# 5 0.000000 0.000000 0.000000 0.000000 0.029331 0.000000
# 6 0.000000 0.000000 0.000000 0.000000 0.000000 0.063496
#
#
# Mechanical properties :
#
#
# Convention : Reuss Voigt Hill
#
# Bulk Modulus (GPa) = 48.06305 48.77381 48.41843
# Shear Modulus (GPa) = 18.03585 24.05717 21.04651
#
# Velocity S-wave (km/s) = 3.12357 3.60750 3.37422
# Velocity P-wave (km/s) = 6.24574 6.61338 6.43219
#
# Compressibility (1/GPa) = 0.02080600
#
# Stress axis : x y z
#
# Youngs Moduli (GPa) = 29.08328 29.08361 63.69436
#
# Poissons Ratio (x) = 0.72658 0.21811
# Poissons Ratio (y) = 0.72657 0.21809
# Poissons Ratio (z) = 0.09959 0.09958
#
# Static dielectric constant tensor:
#      x y z
#    x 1.669130 0.000000 0.000000 
#    y 0.000000 1.669130 0.000000 
#    z 0.000000 0.000000 1.763890 
# 
# From -- ./inp_files/1186.got.cif
#   From: 2010.05.17/outbox.cif.g08.bks.cpg/sg119_1_cif.got.tgz:1186.got - 2010.05.20 11:21:29.
