data_PCOD9559711
_publ_section_title
;
Structure prediction by ZEFSAII (Michael W. Deem and Ramdas Pophale) SiO2 
 PCOD9559711
Probable space group: I -4 C 2
;
_chemical_formula_sum "Si O2"
_cell_formula_units_Z 108
_cell_length_a 13.867291
_cell_length_b 13.867291
_cell_length_c 24.078523
_cell_angle_alpha 90.000000
_cell_angle_beta 90.000000
_cell_angle_gamma 90.000000
_cell_volume 4630.342343
_symmetry_space_group_name_H-M "I -4 C 2"
_symmetry_group_IT_number 120
_symmetry_cell_setting 'tetragonal'
loop_
_space_group_symop_operation_xyz
x,y,z
y,-x,-z
-x,-y,z
-y,x,-z
y,x,1/2-z
-y,-x,1/2-z
-x,y,1/2+z
x,-y,1/2+z
1/2+x,1/2+y,1/2+z
1/2+y,1/2-x,1/2-z
1/2-x,1/2-y,1/2+z
1/2-y,1/2+x,1/2-z
1/2+y,1/2+x,-z
1/2-y,1/2-x,-z
1/2-x,1/2+y,z
1/2+x,1/2-y,z
loop_
_atom_site_type_symbol
_atom_site_label
_atom_site_fract_x
_atom_site_fract_y
_atom_site_fract_z
Si Si1 0.500000 0.500000 0.500000
Si Si2 0.716565 0.006810 0.520376
Si Si3 0.819740 0.819740 0.750000
Si Si4 0.918041 0.381419 0.088986
Si Si5 0.257965 0.018169 0.224930
Si Si6 0.306308 0.268658 0.846269
Si Si7 0.431715 0.911400 0.182141
Si Si8 0.660722 0.381988 0.451615
O O1 0.590117 0.474804 0.459660
O O2 0.681564 0.053295 0.463284
O O3 0.626517 0.019438 0.562459
O O4 0.797133 0.081799 0.541631
O O5 0.763480 0.904735 0.501719
O O6 0.933506 0.801491 0.746693
O O7 0.776047 0.764261 0.803444
O O8 0.831211 0.334218 0.123353
O O9 0.011673 0.381312 0.127345
O O10 0.327829 0.961461 0.181778
O O11 0.203755 0.101420 0.191727
O O12 0.328316 0.063965 0.271402
O O13 0.290311 0.350453 0.893268
O O14 0.500000 0.000000 0.198094
#
# Coordination Sequence:
#
# PCOD9559711 Si02
#       8
#     4  16   8  16  16  16  16  16
#     4   8  16  40  64  86 112 168 224 252 320 398
#     4   9  20  38  61  85 123 158 214 273 326 397
#     4  12  24  40  62 100 130 172 220 272 342 418
#     4  10  20  37  60  88 123 158 207 272 326 405
#     4  12  22  40  63  92 131 174 217 272 332 419
#     4  11  23  40  61  93 129 163 218 269 331 410
#     4  12  18  37  65  85 121 172 212 260 337 397
#     4   9  19  39  64  83 119 169 212 265 330 397
#
# _framework density 23.324408999999999
#
# number of rings (size 3 to 8) (size 9 to 14) (size 15 to 20)
#    0.000    1.481    5.926    0.000    2.074    0.000 
#   10.667    1.481    6.519    0.000    0.000    0.000 
#    0.000    0.000    0.000    0.000    0.000    0.000 
#
# Total GULP energy -301044.919704 kJ/mol
# GULP energy per Si atom -5574.905920 kJ/mol
# Density = 2.327132 g / cm^3
# Si number density = 23.324409 Si / 1000 Ang^3
#
#
#
# Elastic Constant Matrix: (Units=GPa)
#
#
# Indices 1 2 3 4 5 6 
#
# 1 48.7086 20.2321 10.0918 0.0000 0.0000 0.0000
# 2 20.2321 48.7086 10.0918 0.0000 0.0000 0.0000
# 3 10.0918 10.0918 95.0777 0.0000 0.0000 0.0000
# 4 0.0000 0.0000 0.0000 37.4065 0.0000 0.0000
# 5 0.0000 0.0000 0.0000 0.0000 37.4065 0.0000
# 6 0.0000 0.0000 0.0000 0.0000 0.0000 -47.1160
#
#
#
# Elastic Compliance Matrix: (Units=1/GPa)
#
#
# Indices 1 2 3 4 5 6 
#
# 1 0.025044 -0.010073 -0.001589 0.000000 0.000000 0.000000
# 2 -0.010073 0.025044 -0.001589 0.000000 0.000000 0.000000
# 3 -0.001589 -0.001589 0.010855 0.000000 0.000000 0.000000
# 4 0.000000 0.000000 0.000000 0.026733 0.000000 0.000000
# 5 0.000000 0.000000 0.000000 0.000000 0.026733 0.000000
# 6 0.000000 0.000000 0.000000 0.000000 0.000000 -0.021224
#
#
# Mechanical properties :
#
#
# Convention : Reuss Voigt Hill
#
# Bulk Modulus (GPa) = 29.03610 30.36959 29.70284
# Shear Modulus (GPa) = 38.11944 15.67803 26.89873
#
# Velocity S-wave (km/s) = 4.04705 2.59544 3.39963
# Velocity P-wave (km/s) = 5.85782 4.69367 5.30776
#
# Compressibility (1/GPa) = 0.03443989
#
# Stress axis : x y z
#
# Youngs Moduli (GPa) = 39.93047 39.93047 92.12322
#
# Poissons Ratio (x) = 0.40222 0.14638
# Poissons Ratio (y) = 0.40222 0.14638
# Poissons Ratio (z) = 0.06345 0.06345
#
# Static dielectric constant tensor:
#      x y z
#    x 1.863560 0.000000 0.000000 
#    y 0.000000 1.863560 0.000000 
#    z 0.000000 0.000000 1.669970 
# 
# From -- ./inp_files/5950.got.cif
#   From: 2010.05.17/outbox.cif.g08.bks.cpg/sg120_3_cif.got.tgz:5950.got - 2010.05.20 11:28:13.
