data_PCOD9559949
_publ_section_title
;
Structure prediction by ZEFSAII (Michael W. Deem and Ramdas Pophale) SiO2 
 PCOD9559949
Probable space group: I -4 C 2
;
_chemical_formula_sum "Si O2"
_cell_formula_units_Z 64
_cell_length_a 11.271813
_cell_length_b 11.271813
_cell_length_c 18.979412
_cell_angle_alpha 90.000000
_cell_angle_beta 90.000000
_cell_angle_gamma 90.000000
_cell_volume 2411.405815
_symmetry_space_group_name_H-M "I -4 C 2"
_symmetry_group_IT_number 120
_symmetry_cell_setting 'tetragonal'
loop_
_space_group_symop_operation_xyz
x,y,z
y,-x,-z
-x,-y,z
-y,x,-z
y,x,1/2-z
-y,-x,1/2-z
-x,y,1/2+z
x,-y,1/2+z
1/2+x,1/2+y,1/2+z
1/2+y,1/2-x,1/2-z
1/2-x,1/2-y,1/2+z
1/2-y,1/2+x,1/2-z
1/2+y,1/2+x,-z
1/2-y,1/2-x,-z
1/2-x,1/2+y,z
1/2+x,1/2-y,z
loop_
_atom_site_type_symbol
_atom_site_label
_atom_site_fract_x
_atom_site_fract_y
_atom_site_fract_z
Si Si1 0.521457 0.698658 0.009926
Si Si2 0.445216 0.186155 0.869497
Si Si3 0.095230 0.286970 0.750740
Si Si4 0.049999 0.135378 0.153976
O O1 0.508251 0.717979 0.092965
O O2 0.627258 0.600842 0.006518
O O3 0.538838 0.805792 0.954356
O O4 0.385466 0.101727 0.809909
O O5 0.573689 0.187116 0.832709
O O6 0.378146 0.311751 0.859801
O O7 0.214825 0.214825 0.750000
O O8 0.992809 0.195352 0.725584
O O9 0.000000 0.000000 0.147767
#
# Coordination Sequence:
#
# PCOD9559949 Si02
#       4
#    16  16  16  16
#     4   9  15  34  62  93 119 165 218 280 334 378
#     4  11  24  38  61  95 132 177 223 273 342 408
#     4  12  23  38  60  94 134 177 226 275 337 411
#     4  11  19  38  67  94 126 168 226 288 332 392
#
# _framework density 26.540534000000001
#
# number of rings (size 3 to 8) (size 9 to 14) (size 15 to 20)
#    0.000    1.250    7.500    2.250    0.000    1.500 
#    0.000    0.000    0.000    4.500    0.000   10.500 
#    0.000    0.000    0.000    0.000    0.000    0.000 
#
# Total GULP energy -178460.960696 kJ/mol
# GULP energy per Si atom -5576.905022 kJ/mol
# Density = 2.648013 g / cm^3
# Si number density = 26.540534 Si / 1000 Ang^3
#
#
#
# Elastic Constant Matrix: (Units=GPa)
#
#
# Indices 1 2 3 4 5 6 
#
# 1 38.3157 11.8150 29.2601 0.0000 0.0000 0.0000
# 2 11.8150 38.3157 29.2601 0.0000 0.0000 0.0000
# 3 29.2601 29.2601 195.9694 0.0000 0.0000 0.0000
# 4 0.0000 0.0000 0.0000 35.8149 0.0000 0.0000
# 5 0.0000 0.0000 0.0000 0.0000 35.8149 0.0000
# 6 0.0000 0.0000 0.0000 0.0000 0.0000 27.3788
#
#
#
# Elastic Compliance Matrix: (Units=1/GPa)
#
#
# Indices 1 2 3 4 5 6 
#
# 1 0.030947 -0.006788 -0.003607 0.000000 0.000000 0.000000
# 2 -0.006788 0.030947 -0.003607 0.000000 0.000000 0.000000
# 3 -0.003607 -0.003607 0.006180 0.000000 0.000000 0.000000
# 4 0.000000 0.000000 0.000000 0.027921 0.000000 0.000000
# 5 0.000000 0.000000 0.000000 0.000000 0.027921 0.000000
# 6 0.000000 0.000000 0.000000 0.000000 0.000000 0.036525
#
#
# Mechanical properties :
#
#
# Convention : Reuss Voigt Hill
#
# Bulk Modulus (GPa) = 24.95704 45.91901 35.43802
# Shear Modulus (GPa) = 24.77679 33.28609 29.03144
#
# Velocity S-wave (km/s) = 3.05871 3.54525 3.31093
# Velocity P-wave (km/s) = 4.67954 5.83930 5.29129
#
# Compressibility (1/GPa) = 0.04006886
#
# Stress axis : x y z
#
# Youngs Moduli (GPa) = 32.31356 32.31356 161.81254
#
# Poissons Ratio (x) = 0.21935 0.58368
# Poissons Ratio (y) = 0.21935 0.58368
# Poissons Ratio (z) = 0.11656 0.11656
#
# Static dielectric constant tensor:
#      x y z
#    x 2.064120 0.000000 0.000000 
#    y 0.000000 2.064120 0.000000 
#    z 0.000000 0.000000 2.117920 
# 
# From -- ./inp_files/5018.got.cif
#   From: 2010.05.17/outbox.cif.g08.bks.cpg/sg120_3_cif.got.tgz:5018.got - 2010.05.20 11:28:13.
