data_PCOD9559732
_publ_section_title
;
Structure prediction by ZEFSAII (Michael W. Deem and Ramdas Pophale) SiO2 
 PCOD9559732
Probable space group: I -4 C 2
;
_chemical_formula_sum "Si O2"
_cell_formula_units_Z 96
_cell_length_a 23.779629
_cell_length_b 23.779629
_cell_length_c 8.707767
_cell_angle_alpha 90.000000
_cell_angle_beta 90.000000
_cell_angle_gamma 90.000000
_cell_volume 4923.987583
_symmetry_space_group_name_H-M "I -4 C 2"
_symmetry_group_IT_number 120
_symmetry_cell_setting 'tetragonal'
loop_
_space_group_symop_operation_xyz
x,y,z
y,-x,-z
-x,-y,z
-y,x,-z
y,x,1/2-z
-y,-x,1/2-z
-x,y,1/2+z
x,-y,1/2+z
1/2+x,1/2+y,1/2+z
1/2+y,1/2-x,1/2-z
1/2-x,1/2-y,1/2+z
1/2-y,1/2+x,1/2-z
1/2+y,1/2+x,-z
1/2-y,1/2-x,-z
1/2-x,1/2+y,z
1/2+x,1/2-y,z
loop_
_atom_site_type_symbol
_atom_site_label
_atom_site_fract_x
_atom_site_fract_y
_atom_site_fract_z
Si Si1 0.622434 0.938707 0.115034
Si Si2 0.871812 0.432652 0.619018
Si Si3 0.279728 0.863893 0.578052
Si Si4 0.440853 0.563206 0.567055
Si Si5 0.362117 0.224321 0.550366
Si Si6 0.352800 0.349376 0.936038
O O1 0.606743 0.892896 0.243921
O O2 0.680488 0.917058 0.039369
O O3 0.630877 0.002496 0.165441
O O4 0.570421 0.929580 0.000000
O O5 0.922623 0.422623 0.500000
O O6 0.815700 0.408301 0.535163
O O7 0.311155 0.811155 0.500000
O O8 0.277898 0.863080 0.764157
O O9 0.215583 0.865511 0.525169
O O10 0.503262 0.575846 0.505448
O O11 0.441814 0.558187 0.750000
O O12 0.397841 0.610158 0.511945
O O13 0.303212 0.196789 0.500000
O O14 0.365149 0.289793 0.510236
O O15 0.354986 0.354986 0.750000
#
# Coordination Sequence:
#
# PCOD9559732 Si02
#       6
#    16  16  16  16  16  16
#     4  11  23  37  59  86 120 164 209 269 315 376
#     4  11  22  40  58  85 120 164 216 257 327 370
#     4  10  21  39  60  90 124 161 208 260 316 371
#     4  11  23  43  68  96 129 166 204 254 314 376
#     4  10  20  39  61  87 126 164 202 258 320 374
#     4  10  22  39  65  97 126 164 210 255 311 385
#
# _framework density 19.496393999999999
#
# number of rings (size 3 to 8) (size 9 to 14) (size 15 to 20)
#    0.000    1.500    3.333    3.500    0.000    4.667 
#    0.000    0.000    0.000    0.000    0.000    0.000 
#    0.000    0.000    0.000    0.000    0.000    0.000 
#
# Total GULP energy -267642.482264 kJ/mol
# GULP energy per Si atom -5575.885047 kJ/mol
# Density = 1.945202 g / cm^3
# Si number density = 19.496394 Si / 1000 Ang^3
#
#
#
# Elastic Constant Matrix: (Units=GPa)
#
#
# Indices 1 2 3 4 5 6 
#
# 1 112.6444 142.9213 41.4744 0.0000 0.0000 0.0000
# 2 142.9213 112.6410 41.4743 0.0000 0.0000 0.0000
# 3 41.4744 41.4743 62.9974 0.0000 0.0000 0.0000
# 4 0.0000 0.0000 0.0000 26.4853 0.0000 0.0000
# 5 0.0000 0.0000 0.0000 0.0000 26.4859 0.0000
# 6 0.0000 0.0000 0.0000 0.0000 0.0000 22.7090
#
#
#
# Elastic Compliance Matrix: (Units=1/GPa)
#
#
# Indices 1 2 3 4 5 6 
#
# 1 -0.014025 0.019001 -0.003276 0.000000 0.000000 0.000000
# 2 0.019001 -0.014025 -0.003276 0.000000 0.000000 0.000000
# 3 -0.003276 -0.003276 0.020187 0.000000 0.000000 0.000000
# 4 0.000000 0.000000 0.000000 0.037757 0.000000 0.000000
# 5 0.000000 0.000000 0.000000 0.000000 0.037756 0.000000
# 6 0.000000 0.000000 0.000000 0.000000 0.000000 0.044035
#
#
# Mechanical properties :
#
#
# Convention : Reuss Voigt Hill
#
# Bulk Modulus (GPa) = 58.70141 82.22477 70.46309
# Shear Modulus (GPa) = 54.07456 19.29691 36.68574
#
# Velocity S-wave (km/s) = 5.27218 3.14947 4.34253
# Velocity P-wave (km/s) = 8.19972 7.44926 7.83348
#
# Compressibility (1/GPa) = 0.01703537
#
# Stress axis : x y z
#
# Youngs Moduli (GPa) = -71.30157 -71.29880 49.53602
#
# Poissons Ratio (x) = 1.35478 0.16229
# Poissons Ratio (y) = 1.35483 0.16228
# Poissons Ratio (z) = -0.23360 -0.23357
#
# Static dielectric constant tensor:
#      x y z
#    x 1.669750 0.000000 0.000000 
#    y 0.000000 1.669750 0.000000 
#    z 0.000000 0.000000 2.025740 
# 
# From -- ./inp_files/1557.got.cif
#   From: 2010.05.17/outbox.cif.g08.bks.cpg/sg120_1_cif.got.tgz:1557.got - 2010.05.20 11:28:13.
