data_PCOD9559141
_publ_section_title
;
Structure prediction by ZEFSAII (Michael W. Deem and Ramdas Pophale) SiO2 
 PCOD9559141
Probable space group: I -4 M 2
;
_chemical_formula_sum "Si O2"
_cell_formula_units_Z 80
_cell_length_a 12.271880
_cell_length_b 12.271880
_cell_length_c 31.373258
_cell_angle_alpha 90.000000
_cell_angle_beta 90.000000
_cell_angle_gamma 90.000000
_cell_volume 4724.782497
_symmetry_space_group_name_H-M "I -4 M 2"
_symmetry_group_IT_number 119
_symmetry_cell_setting 'tetragonal'
loop_
_space_group_symop_operation_xyz
x,y,z
y,-x,-z
-x,-y,z
-y,x,-z
y,x,-z
-y,-x,-z
-x,y,z
x,-y,z
1/2+x,1/2+y,1/2+z
1/2+y,1/2-x,1/2-z
1/2-x,1/2-y,1/2+z
1/2-y,1/2+x,1/2-z
1/2+y,1/2+x,1/2-z
1/2-y,1/2-x,1/2-z
1/2-x,1/2+y,1/2+z
1/2+x,1/2-y,1/2+z
loop_
_atom_site_type_symbol
_atom_site_label
_atom_site_fract_x
_atom_site_fract_y
_atom_site_fract_z
Si Si1 0.250575 0.783572 0.821320
Si Si2 0.131977 0.500000 0.357025
Si Si3 0.129282 0.298411 0.513759
Si Si4 0.500000 0.868162 0.542876
Si Si5 0.629921 0.623143 0.758453
Si Si6 0.130618 0.628416 0.888494
O O1 0.314522 0.890725 0.837504
O O2 0.330959 0.705148 0.794927
O O3 0.161652 0.821594 0.786595
O O4 0.194190 0.712014 0.858130
O O5 0.157592 0.500000 0.407452
O O6 0.000000 0.500000 0.351265
O O7 0.190078 0.190078 0.500000
O O8 0.169900 0.393730 0.482362
O O9 0.147644 0.333296 0.562621
O O10 0.000000 0.286817 0.508309
O O11 0.500000 0.000000 0.539627
O O12 0.500000 0.626170 0.755474
O O13 0.665392 0.500000 0.768163
O O14 0.153671 0.500000 0.878525
O O15 0.000000 0.643001 0.885037
#
# Coordination Sequence:
#
# PCOD9559141 Si02
#       6
#    16   8  16   8  16  16
#     4  11  21  36  57  85 108 152 191 243 289 347
#     4  11  22  36  55  85 119 149 200 245 287 351
#     4  10  19  34  56  81 112 151 189 233 288 343
#     4   9  18  34  54  76 108 152 188 226 282 342
#     4  10  21  38  56  78 112 149 188 233 297 352
#     4  10  20  36  58  85 114 147 194 243 293 347
#
# _framework density 16.931996000000002
#
# number of rings (size 3 to 8) (size 9 to 14) (size 15 to 20)
#    0.000    1.800    2.000    3.000    0.000    0.200 
#    0.000    1.000    0.000    7.500    0.000    0.000 
#    0.000    0.000    0.000    0.000    0.000    0.000 
#
# Total GULP energy -223160.423330 kJ/mol
# GULP energy per Si atom -5579.010583 kJ/mol
# Density = 1.689346 g / cm^3
# Si number density = 16.931996 Si / 1000 Ang^3
#
#
#
# Elastic Constant Matrix: (Units=GPa)
#
#
# Indices 1 2 3 4 5 6 
#
# 1 106.2994 65.8513 71.0599 0.0000 0.0000 0.0000
# 2 65.8513 106.2994 71.0599 0.0000 0.0000 0.0000
# 3 71.0599 71.0599 118.4157 0.0000 0.0000 0.0000
# 4 0.0000 0.0000 0.0000 22.7576 0.0000 0.0000
# 5 0.0000 0.0000 0.0000 0.0000 22.7576 0.0000
# 6 0.0000 0.0000 0.0000 0.0000 0.0000 22.6729
#
#
#
# Elastic Compliance Matrix: (Units=1/GPa)
#
#
# Indices 1 2 3 4 5 6 
#
# 1 0.018118 -0.006606 -0.006908 0.000000 0.000000 0.000000
# 2 -0.006606 0.018118 -0.006908 0.000000 0.000000 0.000000
# 3 -0.006908 -0.006908 0.016736 0.000000 0.000000 0.000000
# 4 0.000000 0.000000 0.000000 0.043941 0.000000 0.000000
# 5 0.000000 0.000000 0.000000 0.000000 0.043941 0.000000
# 6 0.000000 0.000000 0.000000 0.000000 0.000000 0.044106
#
#
# Mechanical properties :
#
#
# Convention : Reuss Voigt Hill
#
# Bulk Modulus (GPa) = 82.46048 82.99519 82.72783
# Shear Modulus (GPa) = 21.75375 21.84050 21.79712
#
# Velocity S-wave (km/s) = 3.58826 3.59541 3.59184
# Velocity P-wave (km/s) = 8.12245 8.14611 8.13429
#
# Compressibility (1/GPa) = 0.01212702
#
# Stress axis : x y z
#
# Youngs Moduli (GPa) = 55.19523 55.19523 59.75184
#
# Poissons Ratio (x) = 0.36459 0.41278
# Poissons Ratio (y) = 0.36459 0.41278
# Poissons Ratio (z) = 0.38130 0.38130
#
# Static dielectric constant tensor:
#      x y z
#    x 1.558810 0.000000 0.000000 
#    y 0.000000 1.558810 0.000000 
#    z 0.000000 0.000000 1.554130 
# 
# From -- ./inp_files/10151.got.cif
#   From: 2010.05.17/outbox.cif.g08.bks.cpg/sg119_6_cif.got.tgz:10151.got - 2010.05.20 11:21:29.
