data_PCOD9559495
_publ_section_title
;
Structure prediction by ZEFSAII (Michael W. Deem and Ramdas Pophale) SiO2 
 PCOD9559495
Probable space group: I -4 M 2
;
_chemical_formula_sum "Si O2"
_cell_formula_units_Z 24
_cell_length_a 14.360845
_cell_length_b 14.360845
_cell_length_c 4.584494
_cell_angle_alpha 90.000000
_cell_angle_beta 90.000000
_cell_angle_gamma 90.000000
_cell_volume 945.477936
_symmetry_space_group_name_H-M "I -4 M 2"
_symmetry_group_IT_number 119
_symmetry_cell_setting 'tetragonal'
loop_
_space_group_symop_operation_xyz
x,y,z
y,-x,-z
-x,-y,z
-y,x,-z
y,x,-z
-y,-x,-z
-x,y,z
x,-y,z
1/2+x,1/2+y,1/2+z
1/2+y,1/2-x,1/2-z
1/2-x,1/2-y,1/2+z
1/2-y,1/2+x,1/2-z
1/2+y,1/2+x,1/2-z
1/2-y,1/2-x,1/2-z
1/2-x,1/2+y,1/2+z
1/2+x,1/2-y,1/2+z
loop_
_atom_site_type_symbol
_atom_site_label
_atom_site_fract_x
_atom_site_fract_y
_atom_site_fract_z
Si Si1 0.000000 0.733993 0.446304
Si Si2 0.302875 0.802875 0.250000
Si Si3 0.648081 0.500000 0.573289
O O1 0.902109 0.697048 0.576261
O O2 0.000000 0.753640 0.102440
O O3 0.000000 0.836633 0.583363
O O4 0.272808 0.727192 0.500000
O O5 0.589123 0.410878 0.500000
#
# Coordination Sequence:
#
# PCOD9559495 Si02
#       3
#     8   8   8
#     4  12  24  42  66  96 137 182 235 287 352 429
#     4  12  26  45  70 101 140 188 242 302 364 432
#     4  11  22  38  64  97 131 172 227 297 366 421
#
# _framework density 25.383984999999999
#
# number of rings (size 3 to 8) (size 9 to 14) (size 15 to 20)
#    0.000    0.333    0.000   12.000    0.000    3.333 
#    0.000    3.333    0.000    8.000    0.000    0.000 
#    0.000    0.000    0.000    0.000    0.000    0.000 
#
# Total GULP energy -66873.591106 kJ/mol
# GULP energy per Si atom -5572.799259 kJ/mol
# Density = 2.532621 g / cm^3
# Si number density = 25.383985 Si / 1000 Ang^3
#
#
#
# Elastic Constant Matrix: (Units=GPa)
#
#
# Indices 1 2 3 4 5 6 
#
# 1 130.8154 69.9183 28.8076 0.0000 0.0000 0.0000
# 2 69.9183 130.8189 28.8077 0.0000 0.0000 0.0000
# 3 28.8076 28.8077 121.0968 0.0000 0.0000 0.0000
# 4 0.0000 0.0000 0.0000 41.1871 0.0000 0.0000
# 5 0.0000 0.0000 0.0000 0.0000 41.1875 0.0000
# 6 0.0000 0.0000 0.0000 0.0000 0.0000 67.5063
#
#
#
# Elastic Compliance Matrix: (Units=1/GPa)
#
#
# Indices 1 2 3 4 5 6 
#
# 1 0.010884 -0.005537 -0.001272 0.000000 0.000000 0.000000
# 2 -0.005537 0.010884 -0.001272 0.000000 0.000000 0.000000
# 3 -0.001272 -0.001272 0.008863 0.000000 0.000000 0.000000
# 4 0.000000 0.000000 0.000000 0.024279 0.000000 0.000000
# 5 0.000000 0.000000 0.000000 0.000000 0.024279 0.000000
# 6 0.000000 0.000000 0.000000 0.000000 0.000000 0.014813
#
#
# Mechanical properties :
#
#
# Convention : Reuss Voigt Hill
#
# Bulk Modulus (GPa) = 69.11432 70.86646 69.99039
# Shear Modulus (GPa) = 43.48313 46.98934 45.23623
#
# Velocity S-wave (km/s) = 4.14335 4.30716 4.22605
# Velocity P-wave (km/s) = 7.08353 7.26043 7.17253
#
# Compressibility (1/GPa) = 0.01446878
#
# Stress axis : x y z
#
# Youngs Moduli (GPa) = 91.87911 91.88172 112.82842
#
# Poissons Ratio (x) = 0.50875 0.14351
# Poissons Ratio (y) = 0.50873 0.14351
# Poissons Ratio (z) = 0.11687 0.11686
#
# Static dielectric constant tensor:
#      x y z
#    x 2.042770 0.000000 0.000000 
#    y 0.000000 2.042760 0.000000 
#    z 0.000000 0.000000 1.917790 
# 
# From -- ./inp_files/96.got.cif
#   From: 2010.05.17/outbox.cif.g08.bks.cpg/sg119_1_cif.got.tgz:96.got - 2010.05.20 11:21:29.
