data_PCOD9559098
_publ_section_title
;
Structure prediction by ZEFSAII (Michael W. Deem and Ramdas Pophale) SiO2 
 PCOD9559098
Probable space group: I -4 M 2
;
_chemical_formula_sum "Si O2"
_cell_formula_units_Z 64
_cell_length_a 14.053532
_cell_length_b 14.053532
_cell_length_c 16.813685
_cell_angle_alpha 90.000000
_cell_angle_beta 90.000000
_cell_angle_gamma 90.000000
_cell_volume 3320.732408
_symmetry_space_group_name_H-M "I -4 M 2"
_symmetry_group_IT_number 119
_symmetry_cell_setting 'tetragonal'
loop_
_space_group_symop_operation_xyz
x,y,z
y,-x,-z
-x,-y,z
-y,x,-z
y,x,-z
-y,-x,-z
-x,y,z
x,-y,z
1/2+x,1/2+y,1/2+z
1/2+y,1/2-x,1/2-z
1/2-x,1/2-y,1/2+z
1/2-y,1/2+x,1/2-z
1/2+y,1/2+x,1/2-z
1/2-y,1/2-x,1/2-z
1/2-x,1/2+y,1/2+z
1/2+x,1/2-y,1/2+z
loop_
_atom_site_type_symbol
_atom_site_label
_atom_site_fract_x
_atom_site_fract_y
_atom_site_fract_z
Si Si1 0.386037 0.732454 0.248332
Si Si2 0.288090 0.612565 0.573613
Si Si3 0.609424 0.887611 0.980802
Si Si4 0.886010 0.724957 0.319079
O O1 0.500000 0.735169 0.237937
O O2 0.336231 0.836231 0.250000
O O3 0.361669 0.689050 0.336080
O O4 0.326567 0.666528 0.188185
O O5 0.344071 0.655930 0.500000
O O6 0.300634 0.500000 0.569422
O O7 0.178420 0.634802 0.553529
O O8 0.500000 0.872099 0.001833
O O9 0.633068 0.824909 0.903808
O O10 0.621257 0.000000 0.960760
O O11 0.841288 0.658713 0.250000
O O12 0.000000 0.732872 0.309568
#
# Coordination Sequence:
#
# PCOD9559098 Si02
#       4
#    16  16  16  16
#     4  10  22  37  53  76 105 140 180 217 256 304
#     4  10  20  34  52  74 102 135 170 209 253 303
#     4   9  18  33  54  79 103 129 166 212 260 307
#     4  10  19  32  52  78 108 137 167 209 261 315
#
# _framework density 19.272856000000001
#
# number of rings (size 3 to 8) (size 9 to 14) (size 15 to 20)
#    0.000    2.250    0.000    3.750    0.000    6.250 
#    0.000    5.000    0.000    0.000    0.000    0.000 
#    0.000   10.000    0.000    0.000    0.000    0.000 
#
# Total GULP energy -178503.345190 kJ/mol
# GULP energy per Si atom -5578.229537 kJ/mol
# Density = 1.922899 g / cm^3
# Si number density = 19.272856 Si / 1000 Ang^3
#
#
#
# Elastic Constant Matrix: (Units=GPa)
#
#
# Indices 1 2 3 4 5 6 
#
# 1 62.7238 28.9586 10.6560 0.0000 0.0000 0.0000
# 2 28.9586 62.7328 10.6551 0.0000 0.0000 0.0000
# 3 10.6560 10.6551 38.9017 0.0000 0.0000 0.0000
# 4 0.0000 0.0000 0.0000 20.9342 0.0000 0.0000
# 5 0.0000 0.0000 0.0000 0.0000 20.9337 0.0000
# 6 0.0000 0.0000 0.0000 0.0000 0.0000 26.3659
#
#
#
# Elastic Compliance Matrix: (Units=1/GPa)
#
#
# Indices 1 2 3 4 5 6 
#
# 1 0.020632 -0.008982 -0.003191 0.000000 0.000000 0.000000
# 2 -0.008982 0.020629 -0.003190 0.000000 0.000000 0.000000
# 3 -0.003191 -0.003190 0.027454 0.000000 0.000000 0.000000
# 4 0.000000 0.000000 0.000000 0.047769 0.000000 0.000000
# 5 0.000000 0.000000 0.000000 0.000000 0.047770 0.000000
# 6 0.000000 0.000000 0.000000 0.000000 0.000000 0.037928
#
#
# Mechanical properties :
#
#
# Convention : Reuss Voigt Hill
#
# Bulk Modulus (GPa) = 26.32415 29.43308 27.87861
# Shear Modulus (GPa) = 20.36082 21.25266 20.80674
#
# Velocity S-wave (km/s) = 3.25383 3.32433 3.28927
# Velocity P-wave (km/s) = 5.27304 5.48086 5.37795
#
# Compressibility (1/GPa) = 0.03798794
#
# Stress axis : x y z
#
# Youngs Moduli (GPa) = 48.46856 48.47621 36.42498
#
# Poissons Ratio (x) = 0.43541 0.11624
# Poissons Ratio (y) = 0.43535 0.11619
# Poissons Ratio (z) = 0.15468 0.15463
#
# Static dielectric constant tensor:
#      x y z
#    x 1.684360 0.000000 0.000000 
#    y 0.000000 1.684360 0.000000 
#    z 0.000000 0.000000 1.689880 
# 
# From -- ./inp_files/5048.got.cif
#   From: 2010.05.17/outbox.cif.g08.bks.cpg/sg119_3_cif.got.tgz:5048.got - 2010.05.20 11:21:29.
