data_PCOD9559386
_publ_section_title
;
Structure prediction by ZEFSAII (Michael W. Deem and Ramdas Pophale) SiO2 
 PCOD9559386
Probable space group: I -4 M 2
;
_chemical_formula_sum "Si O2"
_cell_formula_units_Z 96
_cell_length_a 21.748932
_cell_length_b 21.748932
_cell_length_c 10.253778
_cell_angle_alpha 90.000000
_cell_angle_beta 90.000000
_cell_angle_gamma 90.000000
_cell_volume 4850.201497
_symmetry_space_group_name_H-M "I -4 M 2"
_symmetry_group_IT_number 119
_symmetry_cell_setting 'tetragonal'
loop_
_space_group_symop_operation_xyz
x,y,z
y,-x,-z
-x,-y,z
-y,x,-z
y,x,-z
-y,-x,-z
-x,y,z
x,-y,z
1/2+x,1/2+y,1/2+z
1/2+y,1/2-x,1/2-z
1/2-x,1/2-y,1/2+z
1/2-y,1/2+x,1/2-z
1/2+y,1/2+x,1/2-z
1/2-y,1/2-x,1/2-z
1/2-x,1/2+y,1/2+z
1/2+x,1/2-y,1/2+z
loop_
_atom_site_type_symbol
_atom_site_label
_atom_site_fract_x
_atom_site_fract_y
_atom_site_fract_z
Si Si1 0.291114 0.569979 0.229371
Si Si2 0.141606 0.680594 0.390268
Si Si3 0.600062 0.428649 0.851121
Si Si4 0.867587 0.570031 0.876444
Si Si5 0.137800 0.236080 0.009858
Si Si6 0.068016 0.236206 0.746790
O O1 0.275515 0.500000 0.198107
O O2 0.247718 0.611974 0.136277
O O3 0.365374 0.576757 0.216706
O O4 0.270842 0.587654 0.376146
O O5 0.148708 0.648708 0.250000
O O6 0.106795 0.633980 0.488227
O O7 0.210316 0.684279 0.447494
O O8 0.584057 0.500000 0.809091
O O9 0.673578 0.422745 0.832487
O O10 0.578573 0.421428 0.000000
O O11 0.889021 0.500000 0.892573
O O12 0.900665 0.599336 0.750000
O O13 0.795202 0.569886 0.843381
O O14 0.172014 0.172014 0.000000
O O15 0.112853 0.247763 0.866370
O O16 0.000000 0.231458 0.806154
#
# Coordination Sequence:
#
# PCOD9559386 Si02
#       6
#    16  16  16  16  16  16
#     4  11  23  40  63  91 128 169 212 262 321 389
#     4  10  23  41  63  97 130 164 212 267 331 389
#     4  11  23  39  60  87 123 168 219 267 314 375
#     4  11  22  40  66  94 127 168 213 262 319 385
#     4  11  21  40  63  94 126 162 208 266 327 382
#     4  10  21  39  64  91 125 165 209 260 317 385
#
# _framework density 19.792992000000002
#
# number of rings (size 3 to 8) (size 9 to 14) (size 15 to 20)
#    0.000    1.333    3.333    2.500    0.000    4.667 
#    3.000    0.833    0.000    0.000    0.000    0.000 
#    0.000    0.000    0.000    0.000    0.000    0.000 
#
# Total GULP energy -267513.218792 kJ/mol
# GULP energy per Si atom -5573.192058 kJ/mol
# Density = 1.974794 g / cm^3
# Si number density = 19.792992 Si / 1000 Ang^3
#
#
#
# Elastic Constant Matrix: (Units=GPa)
#
#
# Indices 1 2 3 4 5 6 
#
# 1 42.3876 47.4012 19.6492 0.0000 0.0000 0.0000
# 2 47.4012 42.3930 19.6489 0.0000 0.0000 0.0000
# 3 19.6492 19.6489 81.5131 0.0000 0.0000 0.0000
# 4 0.0000 0.0000 0.0000 21.0886 0.0000 0.0000
# 5 0.0000 0.0000 0.0000 0.0000 21.0882 0.0000
# 6 0.0000 0.0000 0.0000 0.0000 0.0000 19.5298
#
#
#
# Elastic Compliance Matrix: (Units=1/GPa)
#
#
# Indices 1 2 3 4 5 6 
#
# 1 -0.093564 0.106008 -0.002999 0.000000 0.000000 0.000000
# 2 0.106008 -0.093550 -0.003003 0.000000 0.000000 0.000000
# 3 -0.002999 -0.003003 0.013715 0.000000 0.000000 0.000000
# 4 0.000000 0.000000 0.000000 0.047419 0.000000 0.000000
# 5 0.000000 0.000000 0.000000 0.000000 0.047420 0.000000
# 6 0.000000 0.000000 0.000000 0.000000 0.000000 0.051204
#
#
# Mechanical properties :
#
#
# Convention : Reuss Voigt Hill
#
# Bulk Modulus (GPa) = 37.57868 37.74360 37.66114
# Shear Modulus (GPa) = -22.88364 17.64762 -2.61801
#
# Velocity S-wave (km/s) = -3.40391 2.98922 -1.15133
# Velocity P-wave (km/s) = 1.89164 5.56996 4.15949
#
# Compressibility (1/GPa) = 0.02661083
#
# Stress axis : x y z
#
# Youngs Moduli (GPa) = -10.68787 -10.68944 72.91354
#
# Poissons Ratio (x) = 1.13316 0.21869
# Poissons Ratio (y) = 1.13300 0.21897
# Poissons Ratio (z) = -0.03206 -0.03210
#
# Static dielectric constant tensor:
#      x y z
#    x 1.725510 0.000000 0.000000 
#    y 0.000000 1.725510 0.000000 
#    z 0.000000 0.000000 1.959860 
# 
# From -- ./inp_files/4182.got.cif
#   From: 2010.05.17/outbox.cif.g08.bks.cpg/sg119_3_cif.got.tgz:4182.got - 2010.05.20 11:21:29.
