data_PCOD9559925
_publ_section_title
;
Structure prediction by ZEFSAII (Michael W. Deem and Ramdas Pophale) SiO2 
 PCOD9559925
Probable space group: I -4 C 2
;
_chemical_formula_sum "Si O2"
_cell_formula_units_Z 88
_cell_length_a 13.805381
_cell_length_b 13.805381
_cell_length_c 20.203283
_cell_angle_alpha 90.000000
_cell_angle_beta 90.000000
_cell_angle_gamma 90.000000
_cell_volume 3850.514302
_symmetry_space_group_name_H-M "I -4 C 2"
_symmetry_group_IT_number 120
_symmetry_cell_setting 'tetragonal'
loop_
_space_group_symop_operation_xyz
x,y,z
y,-x,-z
-x,-y,z
-y,x,-z
y,x,1/2-z
-y,-x,1/2-z
-x,y,1/2+z
x,-y,1/2+z
1/2+x,1/2+y,1/2+z
1/2+y,1/2-x,1/2-z
1/2-x,1/2-y,1/2+z
1/2-y,1/2+x,1/2-z
1/2+y,1/2+x,-z
1/2-y,1/2-x,-z
1/2-x,1/2+y,z
1/2+x,1/2-y,z
loop_
_atom_site_type_symbol
_atom_site_label
_atom_site_fract_x
_atom_site_fract_y
_atom_site_fract_z
Si Si1 0.235250 0.197985 0.387380
Si Si2 0.737448 0.522623 0.403698
Si Si3 0.939515 0.311676 0.337450
Si Si4 0.145613 0.363781 0.305410
Si Si5 0.337587 0.162414 0.000000
Si Si6 0.903862 0.064720 0.173581
O O1 0.352637 0.190398 0.390131
O O2 0.200767 0.263396 0.324666
O O3 0.185412 0.260607 0.443709
O O4 0.204739 0.087675 0.398531
O O5 0.799556 0.546816 0.338877
O O6 0.803244 0.561054 0.465137
O O7 0.642280 0.585605 0.385968
O O8 0.883193 0.348107 0.272021
O O9 0.979980 0.201725 0.334260
O O10 0.039179 0.369227 0.337823
O O11 0.897581 0.102420 0.250000
O O12 0.000000 0.000000 0.171350
#
# Coordination Sequence:
#
# PCOD9559925 Si02
#       6
#    16  16  16  16   8  16
#     4  11  24  44  69  91 133 181 224 293 346 402
#     4  11  23  45  64  96 133 176 229 286 344 410
#     4  12  22  41  66 100 142 175 221 274 359 425
#     4  11  24  40  66 100 138 175 214 285 345 433
#     4  10  24  44  66  90 132 172 234 292 336 402
#     4  11  21  39  67 101 135 175 227 278 345 431
#
# _framework density 22.854091
#
# number of rings (size 3 to 8) (size 9 to 14) (size 15 to 20)
#    0.000    0.909    5.455    2.727    0.000    5.455 
#    3.273    0.000    0.000    0.000    0.000    0.000 
#    0.000    0.000    0.000    0.000    0.000    0.000 
#
# Total GULP energy -245092.079578 kJ/mol
# GULP energy per Si atom -5570.274536 kJ/mol
# Density = 2.280207 g / cm^3
# Si number density = 22.854091 Si / 1000 Ang^3
#
#
#
# Elastic Constant Matrix: (Units=GPa)
#
#
# Indices 1 2 3 4 5 6 
#
# 1 82.3007 -8.5010 2.4692 0.0000 0.0000 0.0000
# 2 -8.5010 82.3007 2.4697 0.0000 0.0000 0.0000
# 3 2.4692 2.4697 42.8731 0.0000 0.0000 0.0000
# 4 0.0000 0.0000 0.0000 15.0528 0.0000 0.0000
# 5 0.0000 0.0000 0.0000 0.0000 15.0527 0.0000
# 6 0.0000 0.0000 0.0000 0.0000 0.0000 28.6954
#
#
#
# Elastic Compliance Matrix: (Units=1/GPa)
#
#
# Indices 1 2 3 4 5 6 
#
# 1 0.012308 0.001295 -0.000783 0.000000 0.000000 0.000000
# 2 0.001295 0.012308 -0.000784 0.000000 0.000000 0.000000
# 3 -0.000783 -0.000784 0.023415 0.000000 0.000000 0.000000
# 4 0.000000 0.000000 0.000000 0.066433 0.000000 0.000000
# 5 0.000000 0.000000 0.000000 0.000000 0.066433 0.000000
# 6 0.000000 0.000000 0.000000 0.000000 0.000000 0.034849
#
#
# Mechanical properties :
#
#
# Convention : Reuss Voigt Hill
#
# Bulk Modulus (GPa) = 21.05879 22.26116 21.65997
# Shear Modulus (GPa) = 21.54073 25.82929 23.68501
#
# Velocity S-wave (km/s) = 3.07340 3.36547 3.22274
# Velocity P-wave (km/s) = 4.67213 4.98633 4.83179
#
# Compressibility (1/GPa) = 0.04748612
#
# Stress axis : x y z
#
# Youngs Moduli (GPa) = 81.24923 81.24917 42.70785
#
# Poissons Ratio (x) = -0.10520 0.03346
# Poissons Ratio (y) = -0.10520 0.03346
# Poissons Ratio (z) = 0.06365 0.06366
#
# Static dielectric constant tensor:
#      x y z
#    x 1.953280 0.000000 0.000000 
#    y 0.000000 1.953290 0.000000 
#    z 0.000000 0.000000 1.922510 
# 
# From -- ./inp_files/5825.got.cif
#   From: 2010.05.17/outbox.cif.g08.bks.cpg/sg120_3_cif.got.tgz:5825.got - 2010.05.20 11:28:13.
