data_PCOD9559550
_publ_section_title
;
Structure prediction by ZEFSAII (Michael W. Deem and Ramdas Pophale) SiO2 
 PCOD9559550
Probable space group: I -4 M 2
;
_chemical_formula_sum "Si O2"
_cell_formula_units_Z 56
_cell_length_a 15.000000
_cell_length_b 15.000000
_cell_length_c 24.000000
_cell_angle_alpha 90.000000
_cell_angle_beta 90.000000
_cell_angle_gamma 90.000000
_cell_volume 5400.000000
_symmetry_space_group_name_H-M "I -4 M 2"
_symmetry_group_IT_number 119
_symmetry_cell_setting 'tetragonal'
loop_
_space_group_symop_operation_xyz
x,y,z
y,-x,-z
-x,-y,z
-y,x,-z
y,x,-z
-y,-x,-z
-x,y,z
x,-y,z
1/2+x,1/2+y,1/2+z
1/2+y,1/2-x,1/2-z
1/2-x,1/2-y,1/2+z
1/2-y,1/2+x,1/2-z
1/2+y,1/2+x,1/2-z
1/2-y,1/2-x,1/2-z
1/2-x,1/2+y,1/2+z
1/2+x,1/2-y,1/2+z
loop_
_atom_site_type_symbol
_atom_site_label
_atom_site_fract_x
_atom_site_fract_y
_atom_site_fract_z
Si Si1 0.207750 0.829039 0.173141
Si Si2 0.343481 0.100000 0.809553
Si Si3 0.604537 0.607710 0.563755
Si Si4 0.231909 0.394052 0.853993
Si Si5 0.597074 0.896513 0.565158
Si Si6 0.894646 0.247043 0.513931
Si Si7 0.898712 0.104872 0.279847
O O1 0.176356 0.729440 0.187182
O O2 0.165510 0.853676 0.113057
O O3 0.315504 0.830938 0.171081
O O4 0.156560 0.880868 0.222530
O O5 0.391998 0.108003 0.750000
O O6 0.394769 0.110097 0.868113
O O7 0.303949 0.000000 0.811595
O O8 0.630929 0.630929 0.500000
O O9 0.500000 0.632637 0.572527
O O10 0.608535 0.500000 0.567028
O O11 0.213582 0.500000 0.841009
O O12 0.229341 0.384262 0.920867
O O13 0.330836 0.371419 0.829911
O O14 0.500000 0.854640 0.553648
O O15 0.676101 0.858575 0.527726
O O16 0.592240 0.000000 0.548742
O O17 0.841736 0.158265 0.500000
O O18 0.000000 0.234925 0.503763
O O19 0.000000 0.145031 0.280244
O O20 0.910651 0.000000 0.285291
#
# Coordination Sequence:
#
# PCOD9559550 Si02
#       7
#    16  16  16  16  16  16  16
#     4  12  22  35  58  87 119 157 204 255 308 372
#     4  11  22  34  53  84 122 162 203 249 307 377
#     4   9  19  37  61  91 127 163 203 259 326 390
#     4  10  23  41  59  83 119 162 203 248 306 372
#     4   9  19  37  59  81 110 154 204 251 300 359
#     4  10  21  38  60  86 117 154 202 258 313 374
#     4  10  21  39  64  90 116 149 194 253 317 376
#
# _framework density 10.370369999999999
#
# number of rings (size 3 to 8) (size 9 to 14) (size 15 to 20)
#    0.000    1.857    0.000    4.714    0.000    4.286 
#    0.000    6.429    0.000    4.286    0.000    6.000 
#    0.000    1.429    0.000    0.000    0.000    0.000 
#
# Total GULP energy -312370.297329 kJ/mol
# GULP energy per Si atom -5578.041024 kJ/mol
# Density = 1.034677 g / cm^3
# Si number density = 10.370370 Si / 1000 Ang^3
#
#
#
# Elastic Constant Matrix: (Units=GPa)
#
#
# Indices 1 2 3 4 5 6 
#
# 1 79.3516 29.5011 42.3521 0.0000 0.0000 0.0000
# 2 29.5011 79.3544 42.3511 0.0000 0.0000 0.0000
# 3 42.3521 42.3511 137.5001 0.0000 0.0000 0.0000
# 4 0.0000 0.0000 0.0000 3.3500 0.0000 0.0000
# 5 0.0000 0.0000 0.0000 0.0000 3.3451 0.0000
# 6 0.0000 0.0000 0.0000 0.0000 0.0000 22.5894
#
#
#
# Elastic Compliance Matrix: (Units=1/GPa)
#
#
# Indices 1 2 3 4 5 6 
#
# 1 0.016071 -0.003988 -0.003722 0.000000 0.000000 0.000000
# 2 -0.003988 0.016071 -0.003721 0.000000 0.000000 0.000000
# 3 -0.003722 -0.003721 0.009565 0.000000 0.000000 0.000000
# 4 0.000000 0.000000 0.000000 0.298511 0.000000 0.000000
# 5 0.000000 0.000000 0.000000 0.000000 0.298942 0.000000
# 6 0.000000 0.000000 0.000000 0.000000 0.000000 0.044269
#
#
# Mechanical properties :
#
#
# Convention : Reuss Voigt Hill
#
# Bulk Modulus (GPa) = 53.06714 58.29053 55.67883
# Shear Modulus (GPa) = 7.01682 17.99034 12.50358
#
# Velocity S-wave (km/s) = 1.84132 2.94835 2.45797
# Velocity P-wave (km/s) = 5.49200 6.30521 5.91260
#
# Compressibility (1/GPa) = 0.01884405
#
# Stress axis : x y z
#
# Youngs Moduli (GPa) = 62.22251 62.22569 104.54477
#
# Poissons Ratio (x) = 0.24819 0.38909
# Poissons Ratio (y) = 0.24817 0.38905
# Poissons Ratio (z) = 0.23158 0.23156
#
# Static dielectric constant tensor:
#      x y z
#    x 1.780250 0.000000 0.000000 
#    y 0.000000 1.780250 0.000000 
#    z 0.000000 0.000000 1.746530 
# 
# From -- ./inp_files/8838.got.cif
#   From: 2010.05.17/outbox.ucp.g08.bks.cvg/sg119_5_cif.got.tgz:8838.got - 2010.06.11 11:34:25.
