data_PCOD9559766
_publ_section_title
;
Structure prediction by ZEFSAII (Michael W. Deem and Ramdas Pophale) SiO2 
 PCOD9559766
Probable space group: I -4 C 2
;
_chemical_formula_sum "Si O2"
_cell_formula_units_Z 112
_cell_length_a 21.758805
_cell_length_b 21.758805
_cell_length_c 10.439799
_cell_angle_alpha 90.000000
_cell_angle_beta 90.000000
_cell_angle_gamma 90.000000
_cell_volume 4942.676850
_symmetry_space_group_name_H-M "I -4 C 2"
_symmetry_group_IT_number 120
_symmetry_cell_setting 'tetragonal'
loop_
_space_group_symop_operation_xyz
x,y,z
y,-x,-z
-x,-y,z
-y,x,-z
y,x,1/2-z
-y,-x,1/2-z
-x,y,1/2+z
x,-y,1/2+z
1/2+x,1/2+y,1/2+z
1/2+y,1/2-x,1/2-z
1/2-x,1/2-y,1/2+z
1/2-y,1/2+x,1/2-z
1/2+y,1/2+x,-z
1/2-y,1/2-x,-z
1/2-x,1/2+y,z
1/2+x,1/2-y,z
loop_
_atom_site_type_symbol
_atom_site_label
_atom_site_fract_x
_atom_site_fract_y
_atom_site_fract_z
Si Si1 0.749999 0.520369 0.606084
Si Si2 0.789903 0.188045 0.942364
Si Si3 0.181997 0.087213 0.889688
Si Si4 0.617405 0.771473 0.335117
Si Si5 0.689012 0.849907 0.137914
Si Si6 0.447447 0.424579 0.475123
Si Si7 0.575404 0.667815 0.686474
O O1 0.724055 0.537635 0.465312
O O2 0.778346 0.452184 0.611149
O O3 0.792220 0.578592 0.644233
O O4 0.695919 0.526996 0.714122
O O5 0.856956 0.183202 0.008917
O O6 0.745500 0.167588 0.057975
O O7 0.754386 0.299734 0.123886
O O8 0.784693 0.130660 0.845418
O O9 0.214042 0.109715 0.761698
O O10 0.110071 0.071410 0.880441
O O11 0.644535 0.826538 0.250139
O O12 0.656815 0.843186 0.000000
O O13 0.434825 0.483130 0.568978
O O14 0.445615 0.361297 0.552487
O O15 0.612242 0.612242 0.750000
#
# Coordination Sequence:
#
# PCOD9559766 Si02
#       7
#    16  16  16  16  16  16  16
#     4  11  24  41  68  96 134 181 235 277 369 430
#     4  10  23  38  64  96 132 171 234 272 366 410
#     4  10  21  40  60  92 126 176 227 288 335 413
#     4  12  25  41  73  99 135 186 231 292 354 447
#     4  11  23  45  68 101 140 177 226 294 364 419
#     4  10  21  36  53  80 121 173 234 285 338 388
#     4  11  20  39  63  86 126 181 223 293 337 412
#
# _framework density 22.659784999999999
#
# number of rings (size 3 to 8) (size 9 to 14) (size 15 to 20)
#    0.000    1.286    7.143    1.286    6.000    2.286 
#    0.000    2.857    0.000    0.429    0.000    1.000 
#    0.000    0.000    0.000    0.000    0.000    0.000 
#
# Total GULP energy -312734.877139 kJ/mol
# GULP energy per Si atom -5584.551377 kJ/mol
# Density = 2.260821 g / cm^3
# Si number density = 22.659785 Si / 1000 Ang^3
#
#
#
# Elastic Constant Matrix: (Units=GPa)
#
#
# Indices 1 2 3 4 5 6 
#
# 1 110.6979 54.6633 33.6314 0.0000 0.0000 0.0000
# 2 54.6633 110.6979 33.6314 0.0000 0.0000 0.0000
# 3 33.6314 33.6314 84.2659 0.0000 0.0000 0.0000
# 4 0.0000 0.0000 0.0000 29.4094 0.0000 0.0000
# 5 0.0000 0.0000 0.0000 0.0000 29.4093 0.0000
# 6 0.0000 0.0000 0.0000 0.0000 0.0000 38.7200
#
#
#
# Elastic Compliance Matrix: (Units=1/GPa)
#
#
# Indices 1 2 3 4 5 6 
#
# 1 0.012533 -0.005313 -0.002881 0.000000 0.000000 0.000000
# 2 -0.005313 0.012533 -0.002881 0.000000 0.000000 0.000000
# 3 -0.002881 -0.002881 0.014167 0.000000 0.000000 0.000000
# 4 0.000000 0.000000 0.000000 0.034003 0.000000 0.000000
# 5 0.000000 0.000000 0.000000 0.000000 0.034003 0.000000
# 6 0.000000 0.000000 0.000000 0.000000 0.000000 0.025826
#
#
# Mechanical properties :
#
#
# Convention : Reuss Voigt Hill
#
# Bulk Modulus (GPa) = 58.54603 61.05711 59.80157
# Shear Modulus (GPa) = 31.07322 31.75678 31.41500
#
# Velocity S-wave (km/s) = 3.70712 3.74767 3.72745
# Velocity P-wave (km/s) = 6.64956 6.76242 6.70623
#
# Compressibility (1/GPa) = 0.01708058
#
# Stress axis : x y z
#
# Youngs Moduli (GPa) = 79.79087 79.79091 70.58583
#
# Poissons Ratio (x) = 0.42396 0.20338
# Poissons Ratio (y) = 0.42396 0.20338
# Poissons Ratio (z) = 0.22990 0.22990
#
# Static dielectric constant tensor:
#      x y z
#    x 1.919040 0.000000 0.000000 
#    y 0.000000 1.919040 0.000000 
#    z 0.000000 0.000000 1.942510 
# 
# From -- ./inp_files/2864.got.cif
#   From: 2010.05.17/outbox.cif.g08.bks.cpg/sg120_2_cif.got.tgz:2864.got - 2010.05.20 11:28:13.
