data_PCOD9559956
_publ_section_title
;
Structure prediction by ZEFSAII (Michael W. Deem and Ramdas Pophale) SiO2 
 PCOD9559956
Probable space group: I -4 C 2
;
_chemical_formula_sum "Si O2"
_cell_formula_units_Z 96
_cell_length_a 21.015768
_cell_length_b 21.015768
_cell_length_c 11.602620
_cell_angle_alpha 90.000000
_cell_angle_beta 90.000000
_cell_angle_gamma 90.000000
_cell_volume 5124.442209
_symmetry_space_group_name_H-M "I -4 C 2"
_symmetry_group_IT_number 120
_symmetry_cell_setting 'tetragonal'
loop_
_space_group_symop_operation_xyz
x,y,z
y,-x,-z
-x,-y,z
-y,x,-z
y,x,1/2-z
-y,-x,1/2-z
-x,y,1/2+z
x,-y,1/2+z
1/2+x,1/2+y,1/2+z
1/2+y,1/2-x,1/2-z
1/2-x,1/2-y,1/2+z
1/2-y,1/2+x,1/2-z
1/2+y,1/2+x,-z
1/2-y,1/2-x,-z
1/2-x,1/2+y,z
1/2+x,1/2-y,z
loop_
_atom_site_type_symbol
_atom_site_label
_atom_site_fract_x
_atom_site_fract_y
_atom_site_fract_z
Si Si1 0.331208 0.951882 0.727172
Si Si2 0.755284 0.571599 0.507917
Si Si3 0.821127 0.734669 0.686491
Si Si4 0.926230 0.739605 0.050771
Si Si5 0.175127 0.186260 0.382054
Si Si6 0.850179 0.405201 0.658930
O O1 0.314607 0.926599 0.599010
O O2 0.275612 0.932867 0.814413
O O3 0.390837 0.921401 0.795153
O O4 0.333967 0.027365 0.716574
O O5 0.764987 0.619165 0.400195
O O6 0.741086 0.497822 0.484098
O O7 0.696571 0.605510 0.568737
O O8 0.799804 0.799804 0.750000
O O9 0.756107 0.709603 0.625989
O O10 0.845651 0.687836 0.786695
O O11 0.865786 0.786158 0.044543
O O12 0.912835 0.677454 0.970687
O O13 0.168007 0.168007 0.250000
#
# Coordination Sequence:
#
# PCOD9559956 Si02
#       6
#    16  16  16  16  16  16
#     4  11  22  39  58  87 123 174 214 265 308 376
#     4  11  22  38  63  88 128 170 198 263 331 378
#     4  11  21  36  62  94 123 158 216 266 317 377
#     4  11  23  41  62  90 130 165 211 262 323 387
#     4  11  21  37  64  96 123 158 210 264 321 379
#     4  11  23  38  59  85 125 170 213 259 313 372
#
# _framework density 18.733747000000001
#
# number of rings (size 3 to 8) (size 9 to 14) (size 15 to 20)
#    0.000    1.000    5.000    3.000    0.000    3.000 
#    0.000    0.000    0.000    2.500    0.000    1.167 
#    0.000    0.000    0.000    0.000    0.000    0.000 
#
# Total GULP energy -267202.436177 kJ/mol
# GULP energy per Si atom -5566.717420 kJ/mol
# Density = 1.869111 g / cm^3
# Si number density = 18.733747 Si / 1000 Ang^3
#
#
#
# Elastic Constant Matrix: (Units=GPa)
#
#
# Indices 1 2 3 4 5 6 
#
# 1 110.5010 54.4516 30.7512 0.0000 0.0000 0.0000
# 2 54.4516 110.5010 30.7512 0.0000 0.0000 0.0000
# 3 30.7512 30.7512 81.0463 0.0000 0.0000 0.0000
# 4 0.0000 0.0000 0.0000 28.6933 0.0000 0.0000
# 5 0.0000 0.0000 0.0000 0.0000 28.6933 0.0000
# 6 0.0000 0.0000 0.0000 0.0000 0.0000 23.3878
#
#
#
# Elastic Compliance Matrix: (Units=1/GPa)
#
#
# Indices 1 2 3 4 5 6 
#
# 1 0.012451 -0.005390 -0.002679 0.000000 0.000000 0.000000
# 2 -0.005390 0.012451 -0.002679 0.000000 0.000000 0.000000
# 3 -0.002679 -0.002679 0.014372 0.000000 0.000000 0.000000
# 4 0.000000 0.000000 0.000000 0.034851 0.000000 0.000000
# 5 0.000000 0.000000 0.000000 0.000000 0.034851 0.000000
# 6 0.000000 0.000000 0.000000 0.000000 0.000000 0.042757
#
#
# Mechanical properties :
#
#
# Convention : Reuss Voigt Hill
#
# Bulk Modulus (GPa) = 56.25122 59.32847 57.78985
# Shear Modulus (GPa) = 27.90842 28.56117 28.23479
#
# Velocity S-wave (km/s) = 3.86390 3.90883 3.88643
# Velocity P-wave (km/s) = 7.07094 7.21872 7.14521
#
# Compressibility (1/GPa) = 0.01777739
#
# Stress axis : x y z
#
# Youngs Moduli (GPa) = 80.31258 80.31258 69.58078
#
# Poissons Ratio (x) = 0.43289 0.18642
# Poissons Ratio (y) = 0.43289 0.18642
# Poissons Ratio (z) = 0.21518 0.21518
#
# Static dielectric constant tensor:
#      x y z
#    x 1.678130 0.000000 0.000000 
#    y 0.000000 1.678130 0.000000 
#    z 0.000000 0.000000 1.756070 
# 
# From -- ./inp_files/2710.got.cif
#   From: 2010.05.17/outbox.cif.g08.bks.cpg/sg120_2_cif.got.tgz:2710.got - 2010.05.20 11:28:13.
