data_PCOD9559311
_publ_section_title
;
Structure prediction by ZEFSAII (Michael W. Deem and Ramdas Pophale) SiO2 
 PCOD9559311
Probable space group: I -4 M 2
;
_chemical_formula_sum "Si O2"
_cell_formula_units_Z 58
_cell_length_a 12.078105
_cell_length_b 12.078105
_cell_length_c 17.327025
_cell_angle_alpha 90.000000
_cell_angle_beta 90.000000
_cell_angle_gamma 90.000000
_cell_volume 2527.677157
_symmetry_space_group_name_H-M "I -4 M 2"
_symmetry_group_IT_number 119
_symmetry_cell_setting 'tetragonal'
loop_
_space_group_symop_operation_xyz
x,y,z
y,-x,-z
-x,-y,z
-y,x,-z
y,x,-z
-y,-x,-z
-x,y,z
x,-y,z
1/2+x,1/2+y,1/2+z
1/2+y,1/2-x,1/2-z
1/2-x,1/2-y,1/2+z
1/2-y,1/2+x,1/2-z
1/2+y,1/2+x,1/2-z
1/2-y,1/2-x,1/2-z
1/2-x,1/2+y,1/2+z
1/2+x,1/2-y,1/2+z
loop_
_atom_site_type_symbol
_atom_site_label
_atom_site_fract_x
_atom_site_fract_y
_atom_site_fract_z
Si Si1 0.000000 0.000000 0.500000
Si Si2 0.878162 0.121839 0.000000
Si Si3 0.366318 0.000000 0.605899
Si Si4 0.246867 0.000000 0.439833
Si Si5 0.376768 0.168226 0.334158
Si Si6 0.625153 0.759093 0.649580
O O1 0.114420 0.000000 0.450883
O O2 0.874249 0.221293 0.059657
O O3 0.000000 0.125080 0.961234
O O4 0.341109 0.887244 0.652066
O O5 0.500000 0.000000 0.591986
O O6 0.301665 0.000000 0.524923
O O7 0.293751 0.104415 0.391308
O O8 0.500000 0.167121 0.368510
O O9 0.383557 0.116444 0.250000
O O10 0.327729 0.289273 0.316953
O O11 0.500000 0.746533 0.677819
#
# Coordination Sequence:
#
# PCOD9559311 Si02
#       6
#     2   8   8   8  16  16
#     4  12  28  48  76 120 140 200 220 310 392 416
#     4   9  16  29  54  87 124 161 210 282 346 396
#     4  10  20  38  68 102 136 186 230 292 369 417
#     4  12  24  44  72 102 146 176 236 288 350 445
#     4  12  25  44  66  95 132 184 239 291 349 425
#     4  10  21  38  61  95 134 172 228 285 349 430
#
# _framework density 22.945968000000001
#
# number of rings (size 3 to 8) (size 9 to 14) (size 15 to 20)
#    0.000    1.241    1.379    5.379    0.000    3.862 
#    4.966    0.000    0.000    0.000    0.000    0.000 
#    0.000    0.000    0.000    0.000    0.000    0.000 
#
# Total GULP energy -162079.344861 kJ/mol
# GULP energy per Si atom -5588.942926 kJ/mol
# Density = 2.289374 g / cm^3
# Si number density = 22.945968 Si / 1000 Ang^3
#
#
#
# Elastic Constant Matrix: (Units=GPa)
#
#
# Indices 1 2 3 4 5 6 
#
# 1 159.3543 59.5193 23.7942 0.0000 0.0000 0.0000
# 2 59.5193 159.3531 23.7946 0.0000 0.0000 0.0000
# 3 23.7942 23.7946 44.3592 0.0000 0.0000 0.0000
# 4 0.0000 0.0000 0.0000 21.8080 0.0000 0.0000
# 5 0.0000 0.0000 0.0000 0.0000 21.8080 0.0000
# 6 0.0000 0.0000 0.0000 0.0000 0.0000 30.4217
#
#
#
# Elastic Compliance Matrix: (Units=1/GPa)
#
#
# Indices 1 2 3 4 5 6 
#
# 1 0.007594 -0.002422 -0.002774 0.000000 0.000000 0.000000
# 2 -0.002422 0.007594 -0.002774 0.000000 0.000000 0.000000
# 3 -0.002774 -0.002774 0.025520 0.000000 0.000000 0.000000
# 4 0.000000 0.000000 0.000000 0.045855 0.000000 0.000000
# 5 0.000000 0.000000 0.000000 0.000000 0.045855 0.000000
# 6 0.000000 0.000000 0.000000 0.000000 0.000000 0.032871
#
#
# Mechanical properties :
#
#
# Convention : Reuss Voigt Hill
#
# Bulk Modulus (GPa) = 40.37728 64.14255 52.25992
# Shear Modulus (GPa) = 26.38716 31.87144 29.12930
#
# Velocity S-wave (km/s) = 3.39480 3.73094 3.56683
# Velocity P-wave (km/s) = 5.74466 6.82454 6.30775
#
# Compressibility (1/GPa) = 0.02476640
#
# Stress axis : x y z
#
# Youngs Moduli (GPa) = 131.67797 131.67641 39.18570
#
# Poissons Ratio (x) = 0.31895 0.10871
# Poissons Ratio (y) = 0.31896 0.10872
# Poissons Ratio (z) = 0.36531 0.36532
#
# Static dielectric constant tensor:
#      x y z
#    x 1.886610 0.000000 0.000000 
#    y 0.000000 1.886610 0.000000 
#    z 0.000000 0.000000 1.868690 
# 
# From -- ./inp_files/7446.got.cif
#   From: 2010.05.17/outbox.cif.g08.bks.cpg/sg119_4_cif.got.tgz:7446.got - 2010.05.20 11:21:29.
