data_PCOD9559272
_publ_section_title
;
Structure prediction by ZEFSAII (Michael W. Deem and Ramdas Pophale) SiO2 
 PCOD9559272
Probable space group: I -4 M 2
;
_chemical_formula_sum "Si O2"
_cell_formula_units_Z 56
_cell_length_a 19.963498
_cell_length_b 19.963498
_cell_length_c 8.008111
_cell_angle_alpha 90.000000
_cell_angle_beta 90.000000
_cell_angle_gamma 90.000000
_cell_volume 3191.562587
_symmetry_space_group_name_H-M "I -4 M 2"
_symmetry_group_IT_number 119
_symmetry_cell_setting 'tetragonal'
loop_
_space_group_symop_operation_xyz
x,y,z
y,-x,-z
-x,-y,z
-y,x,-z
y,x,-z
-y,-x,-z
-x,y,z
x,-y,z
1/2+x,1/2+y,1/2+z
1/2+y,1/2-x,1/2-z
1/2-x,1/2-y,1/2+z
1/2-y,1/2+x,1/2-z
1/2+y,1/2+x,1/2-z
1/2-y,1/2-x,1/2-z
1/2-x,1/2+y,1/2+z
1/2+x,1/2-y,1/2+z
loop_
_atom_site_type_symbol
_atom_site_label
_atom_site_fract_x
_atom_site_fract_y
_atom_site_fract_z
Si Si1 0.790150 0.000000 0.186583
Si Si2 0.500000 0.611481 0.000000
Si Si3 0.790150 0.000000 0.813417
Si Si4 0.749604 0.140827 0.299917
Si Si5 0.250396 0.859173 0.700083
O O1 0.844374 0.000000 0.333944
O O2 0.749594 0.068733 0.213886
O O3 0.818839 0.000000 0.000000
O O4 0.500000 0.655626 0.833945
O O5 0.564887 0.564887 0.000000
O O6 0.749595 0.068733 0.786115
O O7 0.687165 0.187165 0.250000
O O8 0.750592 0.132099 0.500000
O O9 0.816118 0.183881 0.253385
O O10 0.312835 0.812835 0.750000
#
# Coordination Sequence:
#
# PCOD9559272 Si02
#       5
#     8   8   8  16  16
#     4  12  23  37  59  85 117 157 198 242 295 352
#     4  11  24  40  56  80 118 159 198 242 290 351
#     4  12  23  37  59  85 117 157 198 242 295 352
#     4  10  20  36  58  85 116 150 194 247 297 349
#     4  10  20  36  58  85 116 150 194 247 297 349
#
# _framework density 17.546264000000001
#
# number of rings (size 3 to 8) (size 9 to 14) (size 15 to 20)
#    0.000    1.286    2.857    3.429    0.000    6.857 
#    0.000    1.429    0.000    0.857    0.000    6.000 
#    0.000    0.000    0.000    0.000    0.000    0.000 
#
# Total GULP energy -156443.957368 kJ/mol
# GULP energy per Si atom -5587.284192 kJ/mol
# Density = 1.750633 g / cm^3
# Si number density = 17.546264 Si / 1000 Ang^3
#
#
#
# Elastic Constant Matrix: (Units=GPa)
#
#
# Indices 1 2 3 4 5 6 
#
# 1 118.9543 48.9355 39.2476 0.0000 0.0000 0.0000
# 2 48.9355 118.9543 39.2476 0.0000 0.0000 0.0000
# 3 39.2476 39.2476 118.1481 0.0000 0.0000 0.0000
# 4 0.0000 0.0000 0.0000 6.7031 0.0000 0.0000
# 5 0.0000 0.0000 0.0000 0.0000 6.7031 0.0000
# 6 0.0000 0.0000 0.0000 0.0000 0.0000 40.1207
#
#
#
# Elastic Compliance Matrix: (Units=1/GPa)
#
#
# Indices 1 2 3 4 5 6 
#
# 1 0.010667 -0.003615 -0.002342 0.000000 0.000000 0.000000
# 2 -0.003615 0.010667 -0.002342 0.000000 0.000000 0.000000
# 3 -0.002342 -0.002342 0.010020 0.000000 0.000000 0.000000
# 4 0.000000 0.000000 0.000000 0.149184 0.000000 0.000000
# 5 0.000000 0.000000 0.000000 0.000000 0.149184 0.000000
# 6 0.000000 0.000000 0.000000 0.000000 0.000000 0.024925
#
#
# Mechanical properties :
#
#
# Convention : Reuss Voigt Hill
#
# Bulk Modulus (GPa) = 67.78080 67.87980 67.83030
# Shear Modulus (GPa) = 13.29209 25.94713 19.61961
#
# Velocity S-wave (km/s) = 2.75534 3.84967 3.34752
# Velocity P-wave (km/s) = 6.98829 7.65050 7.32688
#
# Compressibility (1/GPa) = 0.01475344
#
# Stress axis : x y z
#
# Youngs Moduli (GPa) = 93.74999 93.74999 99.79828
#
# Poissons Ratio (x) = 0.33893 0.23377
# Poissons Ratio (y) = 0.33893 0.23377
# Poissons Ratio (z) = 0.21960 0.21960
#
# Static dielectric constant tensor:
#      x y z
#    x 1.594040 0.000000 0.000000 
#    y 0.000000 1.594040 0.000000 
#    z 0.000000 0.000000 1.605390 
# 
# From -- ./inp_files/2206.got.cif
#   From: 2010.05.17/outbox.cif.g08.bks.cpg/sg119_2_cif.got.tgz:2206.got - 2010.05.20 11:21:29.
