data_PCOD9559503
_publ_section_title
;
Structure prediction by ZEFSAII (Michael W. Deem and Ramdas Pophale) SiO2 
 PCOD9559503
Probable space group: I -4 M 2
;
_chemical_formula_sum "Si O2"
_cell_formula_units_Z 48
_cell_length_a 7.663269
_cell_length_b 7.663269
_cell_length_c 40.057306
_cell_angle_alpha 90.000000
_cell_angle_beta 90.000000
_cell_angle_gamma 90.000000
_cell_volume 2352.393005
_symmetry_space_group_name_H-M "I -4 M 2"
_symmetry_group_IT_number 119
_symmetry_cell_setting 'tetragonal'
loop_
_space_group_symop_operation_xyz
x,y,z
y,-x,-z
-x,-y,z
-y,x,-z
y,x,-z
-y,-x,-z
-x,y,z
x,-y,z
1/2+x,1/2+y,1/2+z
1/2+y,1/2-x,1/2-z
1/2-x,1/2-y,1/2+z
1/2-y,1/2+x,1/2-z
1/2+y,1/2+x,1/2-z
1/2-y,1/2-x,1/2-z
1/2-x,1/2+y,1/2+z
1/2+x,1/2-y,1/2+z
loop_
_atom_site_type_symbol
_atom_site_label
_atom_site_fract_x
_atom_site_fract_y
_atom_site_fract_z
Si Si1 0.000000 0.285906 0.587039
Si Si2 0.500000 0.793461 0.162630
Si Si3 0.699459 0.712922 0.537224
Si Si4 0.302320 0.791001 0.713664
O O1 0.169734 0.231135 0.566079
O O2 0.000000 0.500000 0.587266
O O3 0.000000 0.221987 0.625032
O O4 0.329863 0.745859 0.184016
O O5 0.500000 0.000000 0.159416
O O6 0.761798 0.761798 0.500000
O O7 0.500000 0.771509 0.542196
O O8 0.696742 0.500000 0.536903
O O9 0.500000 0.724709 0.707882
O O10 0.232130 0.732130 0.750000
O O11 0.313075 0.000000 0.717061
#
# Coordination Sequence:
#
# PCOD9559503 Si02
#       4
#     8   8  16  16
#     4   9  18  31  47  77 117 147 177 227 287 344
#     4  11  23  33  53  89 123 151 181 235 305 357
#     4   8  14  27  50  74  98 140 191 231 272 327
#     4   9  20  39  60  79 104 148 200 241 282 341
#
# _framework density 20.404755000000002
#
# number of rings (size 3 to 8) (size 9 to 14) (size 15 to 20)
#    0.000    3.000    0.000    2.500    2.333    2.000 
#    0.000    3.333    7.333    0.000    0.000    0.000 
#    0.000    0.000    0.000    0.000    0.000    0.000 
#
# Total GULP energy -133913.939948 kJ/mol
# GULP energy per Si atom -5579.747498 kJ/mol
# Density = 2.035831 g / cm^3
# Si number density = 20.404755 Si / 1000 Ang^3
#
#
#
# Elastic Constant Matrix: (Units=GPa)
#
#
# Indices 1 2 3 4 5 6 
#
# 1 76.9910 19.1145 69.7002 0.0000 0.0000 0.0000
# 2 19.1145 76.9910 69.7002 0.0000 0.0000 0.0000
# 3 69.7002 69.7002 237.2045 0.0000 0.0000 0.0000
# 4 0.0000 0.0000 0.0000 128.9361 0.0000 0.0000
# 5 0.0000 0.0000 0.0000 0.0000 128.9359 0.0000
# 6 0.0000 0.0000 0.0000 0.0000 0.0000 16.1264
#
#
#
# Elastic Compliance Matrix: (Units=1/GPa)
#
#
# Indices 1 2 3 4 5 6 
#
# 1 0.017706 0.000428 -0.005329 0.000000 0.000000 0.000000
# 2 0.000428 0.017706 -0.005329 0.000000 0.000000 0.000000
# 3 -0.005329 -0.005329 0.007347 0.000000 0.000000 0.000000
# 4 0.000000 0.000000 0.000000 0.007756 0.000000 0.000000
# 5 0.000000 0.000000 0.000000 0.000000 0.007756 0.000000
# 6 0.000000 0.000000 0.000000 0.000000 0.000000 0.062010
#
#
# Mechanical properties :
#
#
# Convention : Reuss Voigt Hill
#
# Bulk Modulus (GPa) = 44.83991 78.69070 61.76531
# Shear Modulus (GPa) = 33.74417 70.31112 52.02764
#
# Velocity S-wave (km/s) = 4.07103 5.87648 5.05501
# Velocity P-wave (km/s) = 6.64234 9.20286 8.02537
#
# Compressibility (1/GPa) = 0.02230156
#
# Stress axis : x y z
#
# Youngs Moduli (GPa) = 56.47721 56.47722 136.10475
#
# Poissons Ratio (x) = -0.02418 0.72525
# Poissons Ratio (y) = -0.02418 0.72525
# Poissons Ratio (z) = 0.30094 0.30094
#
# Static dielectric constant tensor:
#      x y z
#    x 1.725800 0.000000 0.000000 
#    y 0.000000 1.725800 0.000000 
#    z 0.000000 0.000000 1.729760 
# 
# From -- ./inp_files/9879.got.cif
#   From: 2010.05.17/outbox.cif.g08.bks.cpg/sg119_5_cif.got.tgz:9879.got - 2010.05.20 11:21:29.
