data_PCOD9559470
_publ_section_title
;
Structure prediction by ZEFSAII (Michael W. Deem and Ramdas Pophale) SiO2 
 PCOD9559470
Probable space group: I -4 M 2
;
_chemical_formula_sum "Si O2"
_cell_formula_units_Z 56
_cell_length_a 19.553042
_cell_length_b 19.553042
_cell_length_c 8.936498
_cell_angle_alpha 90.000000
_cell_angle_beta 90.000000
_cell_angle_gamma 90.000000
_cell_volume 3416.614886
_symmetry_space_group_name_H-M "I -4 M 2"
_symmetry_group_IT_number 119
_symmetry_cell_setting 'tetragonal'
loop_
_space_group_symop_operation_xyz
x,y,z
y,-x,-z
-x,-y,z
-y,x,-z
y,x,-z
-y,-x,-z
-x,y,z
x,-y,z
1/2+x,1/2+y,1/2+z
1/2+y,1/2-x,1/2-z
1/2-x,1/2-y,1/2+z
1/2-y,1/2+x,1/2-z
1/2+y,1/2+x,1/2-z
1/2-y,1/2-x,1/2-z
1/2-x,1/2+y,1/2+z
1/2+x,1/2-y,1/2+z
loop_
_atom_site_type_symbol
_atom_site_label
_atom_site_fract_x
_atom_site_fract_y
_atom_site_fract_z
Si Si1 0.702579 0.695001 0.677868
Si Si2 0.077972 0.278642 0.648182
Si Si3 0.576455 0.923546 0.250000
Si Si4 0.919793 0.829301 0.393269
O O1 0.700935 0.700935 0.500000
O O2 0.737954 0.762047 0.750000
O O3 0.749794 0.632010 0.733484
O O4 0.628555 0.679771 0.749935
O O5 0.083921 0.360336 0.637271
O O6 0.089164 0.238840 0.494021
O O7 0.000000 0.263071 0.695729
O O8 0.500000 0.918074 0.316033
O O9 0.889113 0.889113 0.500000
O O10 0.000000 0.839341 0.361729
#
# Coordination Sequence:
#
# PCOD9559470 Si02
#       4
#    16  16   8  16
#     4  11  21  33  52  74 104 138 176 218 261 305
#     4   9  17  31  51  75 102 131 167 208 254 307
#     4   9  16  26  46  74 102 132 166 204 243 294
#     4   9  19  35  55  77 103 136 171 212 263 318
#
# _framework density 16.390491999999998
#
# number of rings (size 3 to 8) (size 9 to 14) (size 15 to 20)
#    0.000    2.429    1.429    2.571    0.000    1.429 
#    0.000    0.000    0.000    0.000    0.000    4.000 
#    0.000    9.143    0.000    0.000    0.000    0.000 
#
# Total GULP energy -155878.579308 kJ/mol
# GULP energy per Si atom -5567.092118 kJ/mol
# Density = 1.635319 g / cm^3
# Si number density = 16.390492 Si / 1000 Ang^3
#
#
#
# Elastic Constant Matrix: (Units=GPa)
#
#
# Indices 1 2 3 4 5 6 
#
# 1 112.5190 45.4985 50.0212 0.0000 0.0000 0.0000
# 2 45.4985 112.5209 50.0200 0.0000 0.0000 0.0000
# 3 50.0212 50.0200 111.3358 0.0000 0.0000 0.0000
# 4 0.0000 0.0000 0.0000 14.6137 0.0000 0.0000
# 5 0.0000 0.0000 0.0000 0.0000 14.6141 0.0000
# 6 0.0000 0.0000 0.0000 0.0000 0.0000 20.4952
#
#
#
# Elastic Compliance Matrix: (Units=1/GPa)
#
#
# Indices 1 2 3 4 5 6 
#
# 1 0.011882 -0.003038 -0.003974 0.000000 0.000000 0.000000
# 2 -0.003038 0.011882 -0.003973 0.000000 0.000000 0.000000
# 3 -0.003974 -0.003973 0.012552 0.000000 0.000000 0.000000
# 4 0.000000 0.000000 0.000000 0.068429 0.000000 0.000000
# 5 0.000000 0.000000 0.000000 0.000000 0.068427 0.000000
# 6 0.000000 0.000000 0.000000 0.000000 0.000000 0.048792
#
#
# Mechanical properties :
#
#
# Convention : Reuss Voigt Hill
#
# Bulk Modulus (GPa) = 69.70352 69.71723 69.71038
# Shear Modulus (GPa) = 20.10319 22.66700 21.38510
#
# Velocity S-wave (km/s) = 3.50596 3.72282 3.61602
# Velocity P-wave (km/s) = 7.68168 7.81708 7.74967
#
# Compressibility (1/GPa) = 0.01434648
#
# Stress axis : x y z
#
# Youngs Moduli (GPa) = 84.15772 84.16052 79.66785
#
# Poissons Ratio (x) = 0.25571 0.31656
# Poissons Ratio (y) = 0.25570 0.31654
# Poissons Ratio (z) = 0.33440 0.33439
#
# Static dielectric constant tensor:
#      x y z
#    x 1.579550 0.000000 0.000000 
#    y 0.000000 1.579550 0.000000 
#    z 0.000000 0.000000 1.508270 
# 
# From -- ./inp_files/1975.got.cif
#   From: 2010.05.17/outbox.cif.g08.bks.cpg/sg119_1_cif.got.tgz:1975.got - 2010.05.20 11:21:29.
