data_PCOD9559909
_publ_section_title
;
Structure prediction by ZEFSAII (Michael W. Deem and Ramdas Pophale) SiO2 
 PCOD9559909
Probable space group: I -4 C 2
;
_chemical_formula_sum "Si O2"
_cell_formula_units_Z 72
_cell_length_a 13.275060
_cell_length_b 13.275060
_cell_length_c 17.174050
_cell_angle_alpha 90.000000
_cell_angle_beta 90.000000
_cell_angle_gamma 90.000000
_cell_volume 3026.535053
_symmetry_space_group_name_H-M "I -4 C 2"
_symmetry_group_IT_number 120
_symmetry_cell_setting 'tetragonal'
loop_
_space_group_symop_operation_xyz
x,y,z
y,-x,-z
-x,-y,z
-y,x,-z
y,x,1/2-z
-y,-x,1/2-z
-x,y,1/2+z
x,-y,1/2+z
1/2+x,1/2+y,1/2+z
1/2+y,1/2-x,1/2-z
1/2-x,1/2-y,1/2+z
1/2-y,1/2+x,1/2-z
1/2+y,1/2+x,-z
1/2-y,1/2-x,-z
1/2-x,1/2+y,z
1/2+x,1/2-y,z
loop_
_atom_site_type_symbol
_atom_site_label
_atom_site_fract_x
_atom_site_fract_y
_atom_site_fract_z
Si Si1 0.388689 0.099171 0.779798
Si Si2 0.156629 0.952657 0.014512
Si Si3 0.521668 0.614501 0.325526
Si Si4 0.316361 0.316361 0.750000
Si Si5 0.987964 0.360401 0.046854
O O1 0.506783 0.126409 0.779192
O O2 0.330819 0.196000 0.747880
O O3 0.368586 0.048752 0.863960
O O4 0.174217 0.926250 0.104930
O O5 0.067751 0.882676 0.985124
O O6 0.254002 0.958022 0.962317
O O7 0.500000 0.500000 0.353869
O O8 0.591704 0.591704 0.250000
O O9 0.411174 0.658805 0.307705
O O10 0.884401 0.384401 0.000000
O O11 0.066381 0.433620 0.000000
#
# Coordination Sequence:
#
# PCOD9559909 Si02
#       5
#    16  16  16   8  16
#     4  11  25  48  73 105 152 201 258 321 387 474
#     4  11  23  42  70 109 147 188 247 311 384 456
#     4   9  19  39  68 103 149 188 235 319 377 442
#     4  10  23  44  74 105 144 196 264 308 400 461
#     4  11  25  48  70 102 147 203 255 313 384 457
#
# _framework density 23.789579
#
# number of rings (size 3 to 8) (size 9 to 14) (size 15 to 20)
#    0.000    1.778    2.222    4.000    3.111    0.889 
#   20.000    0.000    0.000    0.000    0.000    0.000 
#    0.000    0.000    0.000    0.000    0.000    0.000 
#
# Total GULP energy -200476.800556 kJ/mol
# GULP energy per Si atom -5568.800015 kJ/mol
# Density = 2.373543 g / cm^3
# Si number density = 23.789579 Si / 1000 Ang^3
#
#
#
# Elastic Constant Matrix: (Units=GPa)
#
#
# Indices 1 2 3 4 5 6 
#
# 1 113.5398 57.0095 17.9048 0.0000 0.0000 0.0000
# 2 57.0095 113.5396 17.9049 0.0000 0.0000 0.0000
# 3 17.9048 17.9049 139.8099 0.0000 0.0000 0.0000
# 4 0.0000 0.0000 0.0000 15.6262 0.0000 0.0000
# 5 0.0000 0.0000 0.0000 0.0000 15.6255 0.0000
# 6 0.0000 0.0000 0.0000 0.0000 0.0000 21.9829
#
#
#
# Elastic Compliance Matrix: (Units=1/GPa)
#
#
# Indices 1 2 3 4 5 6 
#
# 1 0.011858 -0.005832 -0.000772 0.000000 0.000000 0.000000
# 2 -0.005832 0.011858 -0.000772 0.000000 0.000000 0.000000
# 3 -0.000772 -0.000772 0.007350 0.000000 0.000000 0.000000
# 4 0.000000 0.000000 0.000000 0.063995 0.000000 0.000000
# 5 0.000000 0.000000 0.000000 0.000000 0.063998 0.000000
# 6 0.000000 0.000000 0.000000 0.000000 0.000000 0.045490
#
#
# Mechanical properties :
#
#
# Convention : Reuss Voigt Hill
#
# Bulk Modulus (GPa) = 61.29526 61.39196 61.34361
# Shear Modulus (GPa) = 22.24822 28.91827 25.58324
#
# Velocity S-wave (km/s) = 3.06144 3.49031 3.28288
# Velocity P-wave (km/s) = 6.19016 6.48886 6.34127
#
# Compressibility (1/GPa) = 0.01631448
#
# Stress axis : x y z
#
# Youngs Moduli (GPa) = 84.33457 84.33440 136.05045
#
# Poissons Ratio (x) = 0.49185 0.10498
# Poissons Ratio (y) = 0.49185 0.10498
# Poissons Ratio (z) = 0.06508 0.06508
#
# Static dielectric constant tensor:
#      x y z
#    x 1.962400 0.000000 0.000000 
#    y 0.000000 1.962400 0.000000 
#    z 0.000000 0.000000 1.964910 
# 
# From -- ./inp_files/4246.got.cif
#   From: 2010.05.17/outbox.cif.g08.bks.cpg/sg120_3_cif.got.tgz:4246.got - 2010.05.20 11:28:13.
