data_PCOD9559446
_publ_section_title
;
Structure prediction by ZEFSAII (Michael W. Deem and Ramdas Pophale) SiO2 
 PCOD9559446
Probable space group: I -4 M 2
;
_chemical_formula_sum "Si O2"
_cell_formula_units_Z 112
_cell_length_a 23.268482
_cell_length_b 23.268482
_cell_length_c 12.663304
_cell_angle_alpha 90.000000
_cell_angle_beta 90.000000
_cell_angle_gamma 90.000000
_cell_volume 6856.194602
_symmetry_space_group_name_H-M "I -4 M 2"
_symmetry_group_IT_number 119
_symmetry_cell_setting 'tetragonal'
loop_
_space_group_symop_operation_xyz
x,y,z
y,-x,-z
-x,-y,z
-y,x,-z
y,x,-z
-y,-x,-z
-x,y,z
x,-y,z
1/2+x,1/2+y,1/2+z
1/2+y,1/2-x,1/2-z
1/2-x,1/2-y,1/2+z
1/2-y,1/2+x,1/2-z
1/2+y,1/2+x,1/2-z
1/2-y,1/2-x,1/2-z
1/2-x,1/2+y,1/2+z
1/2+x,1/2-y,1/2+z
loop_
_atom_site_type_symbol
_atom_site_label
_atom_site_fract_x
_atom_site_fract_y
_atom_site_fract_z
Si Si1 0.566188 0.380050 0.895396
Si Si2 0.281099 0.642745 0.211804
Si Si3 0.437391 0.433406 0.675291
Si Si4 0.224433 0.676470 0.012200
Si Si5 0.566519 0.690630 0.363190
Si Si6 0.635214 0.728840 0.543008
Si Si7 0.240309 0.350301 0.786934
O O1 0.500000 0.364023 0.917646
O O2 0.602454 0.328502 0.843690
O O3 0.564769 0.427379 0.802138
O O4 0.596604 0.403397 0.000000
O O5 0.230785 0.646875 0.125594
O O6 0.269775 0.625625 0.331986
O O7 0.304587 0.707712 0.221993
O O8 0.500000 0.407846 0.641975
O O9 0.438745 0.500000 0.643158
O O10 0.375484 0.409806 0.639122
O O11 0.165755 0.712088 0.008312
O O12 0.276132 0.723869 0.000000
O O13 0.232337 0.636127 0.910683
O O14 0.500000 0.687247 0.335575
O O15 0.578155 0.715210 0.478768
O O16 0.598736 0.733737 0.283259
O O17 0.681008 0.681008 0.500000
O O18 0.182844 0.317156 0.750000
#
# Coordination Sequence:
#
# PCOD9559446 Si02
#       7
#    16  16  16  16  16  16  16
#     4  11  21  33  47  66  95 132 179 228 269 309
#     4  11  20  31  50  76  97 128 176 215 269 312
#     4   9  18  33  50  67  92 131 180 225 261 297
#     4   9  18  29  50  77  98 124 160 210 261 320
#     4  11  22  34  52  77 104 138 177 223 267 308
#     4  11  18  33  51  70 100 132 167 211 258 316
#     4  11  17  33  54  76 103 130 165 215 266 326
#
# _framework density 16.335592999999999
#
# number of rings (size 3 to 8) (size 9 to 14) (size 15 to 20)
#    0.000    1.571    4.286    3.857    0.000    1.286 
#    0.000    0.714    0.000    0.000    0.000    6.000 
#    0.000    0.286    0.000    0.000    0.000    0.429 
#
# Total GULP energy -311988.256471 kJ/mol
# GULP energy per Si atom -5571.218866 kJ/mol
# Density = 1.629841 g / cm^3
# Si number density = 16.335593 Si / 1000 Ang^3
#
#
#
# Elastic Constant Matrix: (Units=GPa)
#
#
# Indices 1 2 3 4 5 6 
#
# 1 48.1308 39.1184 28.7023 0.0000 0.0000 0.0000
# 2 39.1184 48.1290 28.7017 0.0000 0.0000 0.0000
# 3 28.7023 28.7017 120.6469 0.0000 0.0000 0.0000
# 4 0.0000 0.0000 0.0000 13.7037 0.0000 0.0000
# 5 0.0000 0.0000 0.0000 0.0000 13.7029 0.0000
# 6 0.0000 0.0000 0.0000 0.0000 0.0000 16.9051
#
#
#
# Elastic Compliance Matrix: (Units=1/GPa)
#
#
# Indices 1 2 3 4 5 6 
#
# 1 0.062277 -0.048690 -0.003233 0.000000 0.000000 0.000000
# 2 -0.048690 0.062280 -0.003233 0.000000 0.000000 0.000000
# 3 -0.003233 -0.003233 0.009827 0.000000 0.000000 0.000000
# 4 0.000000 0.000000 0.000000 0.072973 0.000000 0.000000
# 5 0.000000 0.000000 0.000000 0.000000 0.072977 0.000000
# 6 0.000000 0.000000 0.000000 0.000000 0.000000 0.059154
#
#
# Mechanical properties :
#
#
# Convention : Reuss Voigt Hill
#
# Bulk Modulus (GPa) = 41.54051 45.55015 43.54533
# Shear Modulus (GPa) = 10.92125 16.88799 13.90462
#
# Velocity S-wave (km/s) = 2.58845 3.21879 2.92067
# Velocity P-wave (km/s) = 5.86669 6.46209 6.17158
#
# Compressibility (1/GPa) = 0.02407288
#
# Stress axis : x y z
#
# Youngs Moduli (GPa) = 16.05719 16.05658 101.76275
#
# Poissons Ratio (x) = 0.78180 0.32897
# Poissons Ratio (y) = 0.78183 0.32897
# Poissons Ratio (z) = 0.05191 0.05191
#
# Static dielectric constant tensor:
#      x y z
#    x 1.564000 0.000000 0.000000 
#    y 0.000000 1.564000 0.000000 
#    z 0.000000 0.000000 1.606700 
# 
# From -- ./inp_files/4424.got.cif
#   From: 2010.05.17/outbox.cif.g08.bks.cpg/sg119_3_cif.got.tgz:4424.got - 2010.05.20 11:21:29.
