data_PCOD9559073
_publ_section_title
;
Structure prediction by ZEFSAII (Michael W. Deem and Ramdas Pophale) SiO2 
 PCOD9559073
Probable space group: I -4 M 2
;
_chemical_formula_sum "Si O2"
_cell_formula_units_Z 96
_cell_length_a 14.260700
_cell_length_b 14.260700
_cell_length_c 21.851010
_cell_angle_alpha 90.000000
_cell_angle_beta 90.000000
_cell_angle_gamma 90.000000
_cell_volume 4443.786685
_symmetry_space_group_name_H-M "I -4 M 2"
_symmetry_group_IT_number 119
_symmetry_cell_setting 'tetragonal'
loop_
_space_group_symop_operation_xyz
x,y,z
y,-x,-z
-x,-y,z
-y,x,-z
y,x,-z
-y,-x,-z
-x,y,z
x,-y,z
1/2+x,1/2+y,1/2+z
1/2+y,1/2-x,1/2-z
1/2-x,1/2-y,1/2+z
1/2-y,1/2+x,1/2-z
1/2+y,1/2+x,1/2-z
1/2-y,1/2-x,1/2-z
1/2-x,1/2+y,1/2+z
1/2+x,1/2-y,1/2+z
loop_
_atom_site_type_symbol
_atom_site_label
_atom_site_fract_x
_atom_site_fract_y
_atom_site_fract_z
Si Si1 0.189680 0.887215 0.935751
Si Si2 0.100279 0.113017 0.412833
Si Si3 0.805006 0.391462 0.916518
Si Si4 0.885981 0.102927 0.729703
Si Si5 0.609868 0.736819 0.332970
Si Si6 0.889211 0.396735 0.048523
O O1 0.124624 0.844592 0.883414
O O2 0.298154 0.857562 0.922865
O O3 0.184823 0.000000 0.938963
O O4 0.156299 0.843702 0.000000
O O5 0.201219 0.137766 0.438582
O O6 0.105705 0.140954 0.341417
O O7 0.000000 0.145041 0.439606
O O8 0.096056 0.000000 0.414686
O O9 0.801348 0.500000 0.896424
O O10 0.838940 0.326188 0.861729
O O11 0.870753 0.386139 0.975851
O O12 0.854065 0.189896 0.770413
O O13 0.000000 0.104691 0.731202
O O14 0.856759 0.000000 0.754095
O O15 0.500000 0.759067 0.326475
O O16 0.851575 0.500000 0.067335
O O17 0.000000 0.399980 0.058858
#
# Coordination Sequence:
#
# PCOD9559073 Si02
#       6
#    16  16  16  16  16  16
#     4  11  21  33  50  73 100 130 168 210 251 300
#     4   8  15  30  51  72  94 124 163 204 246 294
#     4  10  19  31  49  70  94 127 169 210 246 294
#     4   8  15  29  48  70  98 130 160 193 242 300
#     4  11  21  32  48  73 104 135 167 205 252 306
#     4   9  18  34  53  71  98 138 174 203 247 308
#
# _framework density 21.603197999999999
#
# number of rings (size 3 to 8) (size 9 to 14) (size 15 to 20)
#    0.000    2.500    1.667    2.500    0.000    3.500 
#    0.000    0.833    0.000    2.000    0.000    9.333 
#    0.000    0.000    0.000    3.667    0.000    0.333 
#
# Total GULP energy -267843.087612 kJ/mol
# GULP energy per Si atom -5580.064325 kJ/mol
# Density = 2.155403 g / cm^3
# Si number density = 21.603198 Si / 1000 Ang^3
#
#
#
# Elastic Constant Matrix: (Units=GPa)
#
#
# Indices 1 2 3 4 5 6 
#
# 1 96.5885 21.1266 5.2913 0.0000 0.0000 0.0000
# 2 21.1266 96.5893 5.2917 0.0000 0.0000 0.0000
# 3 5.2913 5.2917 52.5940 0.0000 0.0000 0.0000
# 4 0.0000 0.0000 0.0000 5.1994 0.0000 0.0000
# 5 0.0000 0.0000 0.0000 0.0000 5.1993 0.0000
# 6 0.0000 0.0000 0.0000 0.0000 0.0000 -17.5532
#
#
#
# Elastic Compliance Matrix: (Units=1/GPa)
#
#
# Indices 1 2 3 4 5 6 
#
# 1 0.010912 -0.002340 -0.000862 0.000000 0.000000 0.000000
# 2 -0.002340 0.010912 -0.000863 0.000000 0.000000 0.000000
# 3 -0.000862 -0.000863 0.019187 0.000000 0.000000 0.000000
# 4 0.000000 0.000000 0.000000 0.192331 0.000000 0.000000
# 5 0.000000 0.000000 0.000000 0.000000 0.192334 0.000000
# 6 0.000000 0.000000 0.000000 0.000000 0.000000 -0.056970
#
#
# Mechanical properties :
#
#
# Convention : Reuss Voigt Hill
#
# Bulk Modulus (GPa) = 30.41142 34.35453 32.38297
# Shear Modulus (GPa) = 12.89337 12.83993 12.86665
#
# Velocity S-wave (km/s) = 2.44565 2.44058 2.44312
# Velocity P-wave (km/s) = 4.69923 4.88661 4.79384
#
# Compressibility (1/GPa) = 0.03288239
#
# Stress axis : x y z
#
# Youngs Moduli (GPa) = 91.64091 91.64155 52.11826
#
# Poissons Ratio (x) = 0.21440 0.04495
# Poissons Ratio (y) = 0.21440 0.04495
# Poissons Ratio (z) = 0.07903 0.07904
#
# Static dielectric constant tensor:
#      x y z
#    x 1.823630 0.000000 0.000000 
#    y 0.000000 1.823630 0.000000 
#    z 0.000000 0.000000 1.770990 
# 
# From -- ./inp_files/7811.got.cif
#   From: 2010.05.17/outbox.cif.g08.bks.cpg/sg119_4_cif.got.tgz:7811.got - 2010.05.20 11:21:29.
