data_PCOD9559704
_publ_section_title
;
Structure prediction by ZEFSAII (Michael W. Deem and Ramdas Pophale) SiO2 
 PCOD9559704
Probable space group: I -4 C 2
;
_chemical_formula_sum "Si O2"
_cell_formula_units_Z 76
_cell_length_a 17.846299
_cell_length_b 17.846299
_cell_length_c 13.625962
_cell_angle_alpha 90.000000
_cell_angle_beta 90.000000
_cell_angle_gamma 90.000000
_cell_volume 4339.737924
_symmetry_space_group_name_H-M "I -4 C 2"
_symmetry_group_IT_number 120
_symmetry_cell_setting 'tetragonal'
loop_
_space_group_symop_operation_xyz
x,y,z
y,-x,-z
-x,-y,z
-y,x,-z
y,x,1/2-z
-y,-x,1/2-z
-x,y,1/2+z
x,-y,1/2+z
1/2+x,1/2+y,1/2+z
1/2+y,1/2-x,1/2-z
1/2-x,1/2-y,1/2+z
1/2-y,1/2+x,1/2-z
1/2+y,1/2+x,-z
1/2-y,1/2-x,-z
1/2-x,1/2+y,z
1/2+x,1/2-y,z
loop_
_atom_site_type_symbol
_atom_site_label
_atom_site_fract_x
_atom_site_fract_y
_atom_site_fract_z
Si Si1 0.785903 0.580882 0.718136
Si Si2 0.120879 0.879122 0.750000
Si Si3 0.565525 0.848048 0.190541
Si Si4 0.903419 0.929577 0.033092
Si Si5 0.000000 0.500000 0.750000
Si Si6 0.876289 0.742121 0.504017
O O1 0.708886 0.607224 0.765487
O O2 0.803337 0.496446 0.749105
O O3 0.855411 0.635230 0.743411
O O4 0.777671 0.587037 0.600804
O O5 0.078870 0.901973 0.849110
O O6 0.530540 0.931873 0.183286
O O7 0.582990 0.803469 0.090893
O O8 0.831444 0.886210 0.988809
O O9 0.982826 0.899296 0.994670
O O10 0.792122 0.707878 0.500000
#
# Coordination Sequence:
#
# PCOD9559704 Si02
#       6
#    16   8  16  16   4  16
#     4   9  18  32  51  74 101 135 167 207 258 301
#     4  10  20  37  54  74 106 133 166 216 262 302
#     4   9  16  32  52  75 105 135 172 208 249 310
#     4  10  21  36  56  79 103 136 175 214 261 311
#     4   8  16  28  50  80 108 138 172 212 254 300
#     4   9  18  34  54  75 104 138 170 211 262 305
#
# _framework density 17.512577
#
# number of rings (size 3 to 8) (size 9 to 14) (size 15 to 20)
#    0.000    2.737    0.000    1.263    0.000    1.684 
#    0.000   35.263    0.000    2.526    0.000    0.000 
#    0.000    0.000    0.000    0.000    0.000    0.000 
#
# Total GULP energy -211559.141952 kJ/mol
# GULP energy per Si atom -5567.345841 kJ/mol
# Density = 1.747272 g / cm^3
# Si number density = 17.512577 Si / 1000 Ang^3
#
#
#
# Elastic Constant Matrix: (Units=GPa)
#
#
# Indices 1 2 3 4 5 6 
#
# 1 124.6881 56.3640 32.3963 0.0000 0.0000 0.0000
# 2 56.3640 124.6866 32.3954 0.0000 0.0000 0.0000
# 3 32.3963 32.3954 44.0739 0.0000 0.0000 0.0000
# 4 0.0000 0.0000 0.0000 24.9843 0.0000 0.0000
# 5 0.0000 0.0000 0.0000 0.0000 24.9852 0.0000
# 6 0.0000 0.0000 0.0000 0.0000 0.0000 19.4940
#
#
#
# Elastic Compliance Matrix: (Units=1/GPa)
#
#
# Indices 1 2 3 4 5 6 
#
# 1 0.011065 -0.003571 -0.005509 0.000000 0.000000 0.000000
# 2 -0.003571 0.011066 -0.005509 0.000000 0.000000 0.000000
# 3 -0.005509 -0.005509 0.030788 0.000000 0.000000 0.000000
# 4 0.000000 0.000000 0.000000 0.040025 0.000000 0.000000
# 5 0.000000 0.000000 0.000000 0.000000 0.040024 0.000000
# 6 0.000000 0.000000 0.000000 0.000000 0.000000 0.051298
#
#
# Mechanical properties :
#
#
# Convention : Reuss Voigt Hill
#
# Bulk Modulus (GPa) = 42.12029 59.52890 50.82459
# Shear Modulus (GPa) = 22.58801 25.37889 23.98345
#
# Velocity S-wave (km/s) = 3.59530 3.81094 3.70469
# Velocity P-wave (km/s) = 6.42951 7.30960 6.88363
#
# Compressibility (1/GPa) = 0.02374153
#
# Stress axis : x y z
#
# Youngs Moduli (GPa) = 90.37104 90.37092 32.48058
#
# Poissons Ratio (x) = 0.32269 0.17894
# Poissons Ratio (y) = 0.32269 0.17893
# Poissons Ratio (z) = 0.49786 0.49783
#
# Static dielectric constant tensor:
#      x y z
#    x 1.618020 0.000000 0.000000 
#    y 0.000000 1.618030 0.000000 
#    z 0.000000 0.000000 1.570250 
# 
# From -- ./inp_files/3492.got.cif
#   From: 2010.05.17/outbox.cif.g08.bks.cpg/sg120_2_cif.got.tgz:3492.got - 2010.05.20 11:28:13.
