data_PCOD9559304
_publ_section_title
;
Structure prediction by ZEFSAII (Michael W. Deem and Ramdas Pophale) SiO2 
 PCOD9559304
Probable space group: I -4 M 2
;
_chemical_formula_sum "Si O2"
_cell_formula_units_Z 80
_cell_length_a 25.700042
_cell_length_b 25.700042
_cell_length_c 5.369740
_cell_angle_alpha 90.000000
_cell_angle_beta 90.000000
_cell_angle_gamma 90.000000
_cell_volume 3546.671165
_symmetry_space_group_name_H-M "I -4 M 2"
_symmetry_group_IT_number 119
_symmetry_cell_setting 'tetragonal'
loop_
_space_group_symop_operation_xyz
x,y,z
y,-x,-z
-x,-y,z
-y,x,-z
y,x,-z
-y,-x,-z
-x,y,z
x,-y,z
1/2+x,1/2+y,1/2+z
1/2+y,1/2-x,1/2-z
1/2-x,1/2-y,1/2+z
1/2-y,1/2+x,1/2-z
1/2+y,1/2+x,1/2-z
1/2-y,1/2-x,1/2-z
1/2-x,1/2+y,1/2+z
1/2+x,1/2-y,1/2+z
loop_
_atom_site_type_symbol
_atom_site_label
_atom_site_fract_x
_atom_site_fract_y
_atom_site_fract_z
Si Si1 0.851795 0.941107 0.501102
Si Si2 0.404706 0.820630 0.200961
Si Si3 0.400874 0.682787 0.501023
Si Si4 0.057505 0.353874 0.204596
Si Si5 0.179598 0.762343 0.697851
O O1 0.899163 0.899163 0.500000
O O2 0.818257 0.934702 0.248944
O O3 0.871608 0.000000 0.519429
O O4 0.814963 0.929035 0.737559
O O5 0.374768 0.874768 0.250000
O O6 0.428708 0.814217 0.477019
O O7 0.359850 0.781620 0.103419
O O8 0.442928 0.825469 0.971076
O O9 0.373957 0.626044 0.500000
O O10 0.352282 0.720362 0.442764
O O11 0.100921 0.399080 0.250000
O O12 0.000000 0.375508 0.149468
O O13 0.191708 0.808293 0.500000
O O14 0.233677 0.733677 0.750000
#
# Coordination Sequence:
#
# PCOD9559304 Si02
#       5
#    16  16  16  16  16
#     4  10  21  39  62  87 120 159 197 241 297 360
#     4   9  21  38  57  85 123 158 193 251 316 356
#     4  10  21  38  58  86 123 156 189 244 311 353
#     4  10  20  38  61  86 120 160 200 246 303 363
#     4  11  23  39  64  92 118 157 213 260 300 364
#
# _framework density 22.556363000000001
#
# number of rings (size 3 to 8) (size 9 to 14) (size 15 to 20)
#    0.000    2.000    0.000    3.600    0.000    7.600 
#    0.000    6.000    0.000    7.200    0.000    0.000 
#    0.000    0.000    0.000    0.000    0.000    0.000 
#
# Total GULP energy -222850.106212 kJ/mol
# GULP energy per Si atom -5571.252655 kJ/mol
# Density = 2.250502 g / cm^3
# Si number density = 22.556363 Si / 1000 Ang^3
#
#
#
# Elastic Constant Matrix: (Units=GPa)
#
#
# Indices 1 2 3 4 5 6 
#
# 1 39.4960 47.7495 49.3517 0.0000 0.0000 0.0000
# 2 47.7495 39.4913 49.3576 0.0000 0.0000 0.0000
# 3 49.3517 49.3576 183.6171 0.0000 0.0000 0.0000
# 4 0.0000 0.0000 0.0000 14.3251 0.0000 0.0000
# 5 0.0000 0.0000 0.0000 0.0000 14.3249 0.0000
# 6 0.0000 0.0000 0.0000 0.0000 0.0000 17.0548
#
#
#
# Elastic Compliance Matrix: (Units=1/GPa)
#
#
# Indices 1 2 3 4 5 6 
#
# 1 -0.052319 0.068798 -0.004431 0.000000 0.000000 0.000000
# 2 0.068798 -0.052335 -0.004423 0.000000 0.000000 0.000000
# 3 -0.004431 -0.004423 0.007826 0.000000 0.000000 0.000000
# 4 0.000000 0.000000 0.000000 0.069808 0.000000 0.000000
# 5 0.000000 0.000000 0.000000 0.000000 0.069808 0.000000
# 6 0.000000 0.000000 0.000000 0.000000 0.000000 0.058635
#
#
# Mechanical properties :
#
#
# Convention : Reuss Voigt Hill
#
# Bulk Modulus (GPa) = 43.36585 61.72468 52.54527
# Shear Modulus (GPa) = -463.93094 16.88398 -223.52348
#
# Velocity S-wave (km/s) = -14.35698 2.73888 -9.96547
# Velocity P-wave (km/s) = 15.98634 6.11768 10.44359
#
# Compressibility (1/GPa) = 0.02305962
#
# Stress axis : x y z
#
# Youngs Moduli (GPa) = -19.11350 -19.10776 127.77584
#
# Poissons Ratio (x) = 1.31458 0.56623
# Poissons Ratio (y) = 1.31498 0.56519
# Poissons Ratio (z) = -0.08470 -0.08452
#
# Static dielectric constant tensor:
#      x y z
#    x 1.883520 0.000000 0.000000 
#    y 0.000000 1.883510 0.000000 
#    z 0.000000 0.000000 1.935250 
# 
# From -- ./inp_files/991.got.cif
#   From: 2010.05.17/outbox.cif.g08.bks.cpg/sg119_1_cif.got.tgz:991.got - 2010.05.20 11:21:29.
