data_PCOD9559389
_publ_section_title
;
Structure prediction by ZEFSAII (Michael W. Deem and Ramdas Pophale) SiO2 
 PCOD9559389
Probable space group: I -4 M 2
;
_chemical_formula_sum "Si O2"
_cell_formula_units_Z 96
_cell_length_a 24.672959
_cell_length_b 24.672959
_cell_length_c 8.518919
_cell_angle_alpha 90.000000
_cell_angle_beta 90.000000
_cell_angle_gamma 90.000000
_cell_volume 5185.933733
_symmetry_space_group_name_H-M "I -4 M 2"
_symmetry_group_IT_number 119
_symmetry_cell_setting 'tetragonal'
loop_
_space_group_symop_operation_xyz
x,y,z
y,-x,-z
-x,-y,z
-y,x,-z
y,x,-z
-y,-x,-z
-x,y,z
x,-y,z
1/2+x,1/2+y,1/2+z
1/2+y,1/2-x,1/2-z
1/2-x,1/2-y,1/2+z
1/2-y,1/2+x,1/2-z
1/2+y,1/2+x,1/2-z
1/2-y,1/2-x,1/2-z
1/2-x,1/2+y,1/2+z
1/2+x,1/2-y,1/2+z
loop_
_atom_site_type_symbol
_atom_site_label
_atom_site_fract_x
_atom_site_fract_y
_atom_site_fract_z
Si Si1 0.274834 0.940160 0.089413
Si Si2 0.137771 0.437097 0.857960
Si Si3 0.064041 0.937995 0.688769
Si Si4 0.242542 0.810701 0.357986
Si Si5 0.832034 0.886693 0.146272
Si Si6 0.341219 0.154033 0.933443
O O1 0.305858 0.934378 0.257675
O O2 0.210023 0.933695 0.097185
O O3 0.288883 0.000000 0.031178
O O4 0.300791 0.894132 0.981359
O O5 0.125246 0.500000 0.881139
O O6 0.093646 0.406355 0.750000
O O7 0.139957 0.402953 0.018370
O O8 0.068457 0.931544 0.500000
O O9 0.093275 0.887502 0.772003
O O10 0.000000 0.935667 0.727514
O O11 0.082719 0.000000 0.728194
O O12 0.205036 0.794965 0.500000
O O13 0.260481 0.760481 0.250000
O O14 0.208213 0.852098 0.255635
O O15 0.297617 0.828724 0.444383
O O16 0.850422 0.850422 0.000000
O O17 0.334389 0.165612 0.750000
#
# Coordination Sequence:
#
# PCOD9559389 Si02
#       6
#    16  16  16  16  16  16
#     4  10  21  40  61  86 122 165 208 255 306 370
#     4   9  18  37  62  88 120 162 209 253 304 370
#     4   9  20  42  67  89 121 164 207 255 312 371
#     4  12  23  39  60  87 123 161 206 251 304 372
#     4  12  24  38  62  92 125 162 206 259 313 367
#     4  11  22  38  62  89 129 169 204 256 316 369
#
# _framework density 18.511613000000001
#
# number of rings (size 3 to 8) (size 9 to 14) (size 15 to 20)
#    0.000    1.500    3.333    3.000    2.333    2.167 
#    0.000    0.833    0.000    0.000    0.000    2.333 
#    0.000    0.000    0.000    0.000    0.000    0.000 
#
# Total GULP energy -267575.795959 kJ/mol
# GULP energy per Si atom -5574.495749 kJ/mol
# Density = 1.846948 g / cm^3
# Si number density = 18.511613 Si / 1000 Ang^3
#
#
#
# Elastic Constant Matrix: (Units=GPa)
#
#
# Indices 1 2 3 4 5 6 
#
# 1 119.5451 52.4118 39.8167 0.0000 0.0000 0.0000
# 2 52.4118 119.5427 39.8162 0.0000 0.0000 0.0000
# 3 39.8167 39.8162 86.1847 0.0000 0.0000 0.0000
# 4 0.0000 0.0000 0.0000 10.7593 0.0000 0.0000
# 5 0.0000 0.0000 0.0000 0.0000 10.7624 0.0000
# 6 0.0000 0.0000 0.0000 0.0000 0.0000 26.9698
#
#
#
# Elastic Compliance Matrix: (Units=1/GPa)
#
#
# Indices 1 2 3 4 5 6 
#
# 1 0.011147 -0.003749 -0.003418 0.000000 0.000000 0.000000
# 2 -0.003749 0.011147 -0.003418 0.000000 0.000000 0.000000
# 3 -0.003418 -0.003418 0.014761 0.000000 0.000000 0.000000
# 4 0.000000 0.000000 0.000000 0.092943 0.000000 0.000000
# 5 0.000000 0.000000 0.000000 0.000000 0.092916 0.000000
# 6 0.000000 0.000000 0.000000 0.000000 0.000000 0.037079
#
#
# Mechanical properties :
#
#
# Convention : Reuss Voigt Hill
#
# Bulk Modulus (GPa) = 62.94874 65.48464 64.21669
# Shear Modulus (GPa) = 17.45461 22.58016 20.01738
#
# Velocity S-wave (km/s) = 3.07400 3.49633 3.29194
# Velocity P-wave (km/s) = 6.83214 7.19380 7.01530
#
# Compressibility (1/GPa) = 0.01588594
#
# Stress axis : x y z
#
# Youngs Moduli (GPa) = 89.70987 89.70811 67.74565
#
# Poissons Ratio (x) = 0.33630 0.23155
# Poissons Ratio (y) = 0.33631 0.23155
# Poissons Ratio (z) = 0.30662 0.30662
#
# Static dielectric constant tensor:
#      x y z
#    x 1.666810 0.000000 0.000000 
#    y 0.000000 1.666800 0.000000 
#    z 0.000000 0.000000 1.605280 
# 
# From -- ./inp_files/2656.got.cif
#   From: 2010.05.17/outbox.cif.g08.bks.cpg/sg119_2_cif.got.tgz:2656.got - 2010.05.20 11:21:29.
