data_PCOD9559751
_publ_section_title
;
Structure prediction by ZEFSAII (Michael W. Deem and Ramdas Pophale) SiO2 
 PCOD9559751
Probable space group: I -4 C 2
;
_chemical_formula_sum "Si O2"
_cell_formula_units_Z 128
_cell_length_a 22.588035
_cell_length_b 22.588035
_cell_length_c 11.997201
_cell_angle_alpha 90.000000
_cell_angle_beta 90.000000
_cell_angle_gamma 90.000000
_cell_volume 6121.203798
_symmetry_space_group_name_H-M "I -4 C 2"
_symmetry_group_IT_number 120
_symmetry_cell_setting 'tetragonal'
loop_
_space_group_symop_operation_xyz
x,y,z
y,-x,-z
-x,-y,z
-y,x,-z
y,x,1/2-z
-y,-x,1/2-z
-x,y,1/2+z
x,-y,1/2+z
1/2+x,1/2+y,1/2+z
1/2+y,1/2-x,1/2-z
1/2-x,1/2-y,1/2+z
1/2-y,1/2+x,1/2-z
1/2+y,1/2+x,-z
1/2-y,1/2-x,-z
1/2-x,1/2+y,z
1/2+x,1/2-y,z
loop_
_atom_site_type_symbol
_atom_site_label
_atom_site_fract_x
_atom_site_fract_y
_atom_site_fract_z
Si Si1 0.702349 0.611898 0.592731
Si Si2 0.279959 0.092621 0.870134
Si Si3 0.089207 0.176791 0.793436
Si Si4 0.325542 0.116625 0.188979
Si Si5 0.693223 0.596343 0.945677
Si Si6 0.124085 0.470839 0.503234
Si Si7 0.092333 0.667882 0.562131
Si Si8 0.968010 0.874756 0.250980
O O1 0.734722 0.597634 0.474993
O O2 0.754916 0.618331 0.681671
O O3 0.662629 0.670597 0.582697
O O4 0.659807 0.560849 0.642488
O O5 0.240850 0.078475 0.762356
O O6 0.319479 0.151209 0.851806
O O7 0.332783 0.047030 0.899602
O O8 0.151385 0.151385 0.750000
O O9 0.037399 0.133585 0.753295
O O10 0.087355 0.177289 0.925708
O O11 0.349795 0.100434 0.309712
O O12 0.346839 0.065381 0.104922
O O13 0.762292 0.582519 0.937860
O O14 0.658123 0.555389 0.859613
O O15 0.058657 0.441344 0.500000
O O16 0.132935 0.540681 0.503455
O O17 0.153013 0.653013 0.500000
O O18 0.939828 0.939828 0.250000
#
# Coordination Sequence:
#
# PCOD9559751 Si02
#       8
#    16  16  16  16  16  16  16  16
#     4  10  20  42  65  90 127 174 222 265 330 413
#     4  10  21  41  64  95 127 172 220 266 337 402
#     4  12  25  41  64  96 134 168 220 276 327 388
#     4  10  22  41  65  93 129 174 216 274 335 406
#     4  11  24  41  62  97 129 176 221 270 336 397
#     4   9  22  42  66  88 123 178 225 259 331 400
#     4  12  25  38  61 101 136 164 221 283 331 388
#     4  10  24  41  66  92 126 175 222 270 331 390
#
# _framework density 20.910920000000001
#
# number of rings (size 3 to 8) (size 9 to 14) (size 15 to 20)
#    0.000    1.500    2.500    2.625    5.250    3.500 
#    2.250    0.000    0.000    4.500    0.000    0.000 
#    0.000    0.000    0.000    0.000    0.000    0.000 
#
# Total GULP energy -357237.894656 kJ/mol
# GULP energy per Si atom -5581.842104 kJ/mol
# Density = 2.086333 g / cm^3
# Si number density = 20.910920 Si / 1000 Ang^3
#
#
#
# Elastic Constant Matrix: (Units=GPa)
#
#
# Indices 1 2 3 4 5 6 
#
# 1 36.4668 36.5802 14.8754 0.0000 0.0000 0.0000
# 2 36.5802 36.4641 14.8732 0.0000 0.0000 0.0000
# 3 14.8754 14.8732 110.3879 0.0000 0.0000 0.0000
# 4 0.0000 0.0000 0.0000 11.8574 0.0000 0.0000
# 5 0.0000 0.0000 0.0000 0.0000 11.8578 0.0000
# 6 0.0000 0.0000 0.0000 0.0000 0.0000 16.5582
#
#
#
# Elastic Compliance Matrix: (Units=1/GPa)
#
#
# Indices 1 2 3 4 5 6 
#
# 1 -4.348617 4.363231 -0.001883 0.000000 0.000000 0.000000
# 2 4.363231 -4.348874 -0.002021 0.000000 0.000000 0.000000
# 3 -0.001883 -0.002021 0.009585 0.000000 0.000000 0.000000
# 4 0.000000 0.000000 0.000000 0.084336 0.000000 0.000000
# 5 0.000000 0.000000 0.000000 0.000000 0.084333 0.000000
# 6 0.000000 0.000000 0.000000 0.000000 0.000000 0.060393
#
#
# Mechanical properties :
#
#
# Convention : Reuss Voigt Hill
#
# Bulk Modulus (GPa) = 32.52274 35.10847 33.81561
# Shear Modulus (GPa) = -0.29125 15.85400 7.78138
#
# Velocity S-wave (km/s) = -0.37361 2.75647 1.93113
# Velocity P-wave (km/s) = 3.92437 5.19200 4.60204
#
# Compressibility (1/GPa) = 0.03074771
#
# Stress axis : x y z
#
# Youngs Moduli (GPa) = -0.22996 -0.22994 104.33020
#
# Poissons Ratio (x) = 1.00330 0.19643
# Poissons Ratio (y) = 1.00336 0.21083
# Poissons Ratio (z) = -0.00043 -0.00046
#
# Static dielectric constant tensor:
#      x y z
#    x 1.756590 0.000000 0.000000 
#    y 0.000000 1.756590 0.000000 
#    z 0.000000 0.000000 1.777230 
# 
# From -- ./inp_files/2900.got.cif
#   From: 2010.05.17/outbox.cif.g08.bks.cpg/sg120_2_cif.got.tgz:2900.got - 2010.05.20 11:28:13.
