data_PCOD9559084
_publ_section_title
;
Structure prediction by ZEFSAII (Michael W. Deem and Ramdas Pophale) SiO2 
 PCOD9559084
Probable space group: I -4 M 2
;
_chemical_formula_sum "Si O2"
_cell_formula_units_Z 88
_cell_length_a 14.429045
_cell_length_b 14.429045
_cell_length_c 21.771470
_cell_angle_alpha 90.000000
_cell_angle_beta 90.000000
_cell_angle_gamma 90.000000
_cell_volume 4532.762133
_symmetry_space_group_name_H-M "I -4 M 2"
_symmetry_group_IT_number 119
_symmetry_cell_setting 'tetragonal'
loop_
_space_group_symop_operation_xyz
x,y,z
y,-x,-z
-x,-y,z
-y,x,-z
y,x,-z
-y,-x,-z
-x,y,z
x,-y,z
1/2+x,1/2+y,1/2+z
1/2+y,1/2-x,1/2-z
1/2-x,1/2-y,1/2+z
1/2-y,1/2+x,1/2-z
1/2+y,1/2+x,1/2-z
1/2-y,1/2-x,1/2-z
1/2-x,1/2+y,1/2+z
1/2+x,1/2-y,1/2+z
loop_
_atom_site_type_symbol
_atom_site_label
_atom_site_fract_x
_atom_site_fract_y
_atom_site_fract_z
Si Si1 0.609530 0.295288 0.442288
Si Si2 0.109635 0.204608 0.441470
Si Si3 0.105316 0.605316 0.750000
Si Si4 0.109466 0.111483 0.684160
Si Si5 0.205212 0.889368 0.190668
Si Si6 0.894892 0.605495 0.498535
O O1 0.658465 0.341535 0.500000
O O2 0.500000 0.317038 0.444960
O O3 0.647586 0.323922 0.375709
O O4 0.618511 0.184659 0.451102
O O5 0.160308 0.160308 0.500000
O O6 0.142393 0.163658 0.376750
O O7 0.119506 0.315148 0.447926
O O8 0.000000 0.182331 0.446520
O O9 0.115580 0.500000 0.773410
O O10 0.119852 0.684574 0.800210
O O11 0.145163 0.156877 0.747271
O O12 0.000000 0.134077 0.676927
O O13 0.116870 0.000000 0.689196
O O14 0.185424 0.000000 0.189126
O O15 0.885892 0.500000 0.475274
O O16 0.000000 0.616654 0.522396
#
# Coordination Sequence:
#
# PCOD9559084 Si02
#       6
#    16  16   8  16  16  16
#     4  10  21  36  54  78 106 136 175 221 264 308
#     4  10  19  31  52  81 110 140 173 212 260 314
#     4   9  18  32  50  74 104 134 164 203 252 306
#     4   9  18  33  53  78 108 138 167 204 255 314
#     4   9  19  34  51  74 104 137 171 207 252 307
#     4   9  19  35  53  75 105 140 177 218 262 306
#
# _framework density 19.414211000000002
#
# number of rings (size 3 to 8) (size 9 to 14) (size 15 to 20)
#    0.000    2.636    0.000    1.091    0.000    5.455 
#    0.000    9.091    0.000    0.000    0.000    1.273 
#    0.000    5.818    0.000    0.000    0.000    0.000 
#
# Total GULP energy -245325.951226 kJ/mol
# GULP energy per Si atom -5575.589801 kJ/mol
# Density = 1.937002 g / cm^3
# Si number density = 19.414211 Si / 1000 Ang^3
#
#
#
# Elastic Constant Matrix: (Units=GPa)
#
#
# Indices 1 2 3 4 5 6 
#
# 1 59.2287 29.4146 60.2831 0.0000 0.0000 0.0000
# 2 29.4146 59.2281 60.2838 0.0000 0.0000 0.0000
# 3 60.2831 60.2838 190.3633 0.0000 0.0000 0.0000
# 4 0.0000 0.0000 0.0000 10.2669 0.0000 0.0000
# 5 0.0000 0.0000 0.0000 0.0000 10.2667 0.0000
# 6 0.0000 0.0000 0.0000 0.0000 0.0000 19.9058
#
#
#
# Elastic Compliance Matrix: (Units=1/GPa)
#
#
# Indices 1 2 3 4 5 6 
#
# 1 0.026679 -0.006862 -0.006275 0.000000 0.000000 0.000000
# 2 -0.006862 0.026680 -0.006276 0.000000 0.000000 0.000000
# 3 -0.006275 -0.006276 0.009228 0.000000 0.000000 0.000000
# 4 0.000000 0.000000 0.000000 0.097401 0.000000 0.000000
# 5 0.000000 0.000000 0.000000 0.000000 0.097402 0.000000
# 6 0.000000 0.000000 0.000000 0.000000 0.000000 0.050237
#
#
# Mechanical properties :
#
#
# Convention : Reuss Voigt Hill
#
# Bulk Modulus (GPa) = 42.08884 67.64257 54.86571
# Shear Modulus (GPa) = 14.10946 18.67710 16.39328
#
# Velocity S-wave (km/s) = 2.69877 3.10503 2.90900
# Velocity P-wave (km/s) = 5.60693 6.91176 6.29325
#
# Compressibility (1/GPa) = 0.02375926
#
# Stress axis : x y z
#
# Youngs Moduli (GPa) = 37.48295 37.48196 108.36929
#
# Poissons Ratio (x) = 0.25722 0.68005
# Poissons Ratio (y) = 0.25722 0.68009
# Poissons Ratio (z) = 0.23522 0.23522
#
# Static dielectric constant tensor:
#      x y z
#    x 1.707180 0.000000 0.000000 
#    y 0.000000 1.707180 0.000000 
#    z 0.000000 0.000000 1.667260 
# 
# From -- ./inp_files/7676.got.cif
#   From: 2010.05.17/outbox.cif.g08.bks.cpg/sg119_4_cif.got.tgz:7676.got - 2010.05.20 11:21:29.
