data_PCOD9559078
_publ_section_title
;
Structure prediction by ZEFSAII (Michael W. Deem and Ramdas Pophale) SiO2 
 PCOD9559078
Probable space group: I -4 M 2
;
_chemical_formula_sum "Si O2"
_cell_formula_units_Z 112
_cell_length_a 14.531611
_cell_length_b 14.531611
_cell_length_c 30.805154
_cell_angle_alpha 90.000000
_cell_angle_beta 90.000000
_cell_angle_gamma 90.000000
_cell_volume 6505.054081
_symmetry_space_group_name_H-M "I -4 M 2"
_symmetry_group_IT_number 119
_symmetry_cell_setting 'tetragonal'
loop_
_space_group_symop_operation_xyz
x,y,z
y,-x,-z
-x,-y,z
-y,x,-z
y,x,-z
-y,-x,-z
-x,y,z
x,-y,z
1/2+x,1/2+y,1/2+z
1/2+y,1/2-x,1/2-z
1/2-x,1/2-y,1/2+z
1/2-y,1/2+x,1/2-z
1/2+y,1/2+x,1/2-z
1/2-y,1/2-x,1/2-z
1/2-x,1/2+y,1/2+z
1/2+x,1/2-y,1/2+z
loop_
_atom_site_type_symbol
_atom_site_label
_atom_site_fract_x
_atom_site_fract_y
_atom_site_fract_z
Si Si1 0.895174 0.389966 0.375554
Si Si2 0.268893 0.891813 0.047428
Si Si3 0.392918 0.393476 0.162311
Si Si4 0.892320 0.244009 0.053148
Si Si5 0.112042 0.606463 0.702387
Si Si6 0.713843 0.109756 0.384212
Si Si7 0.282414 0.892431 0.714664
O O1 0.888808 0.500000 0.368202
O O2 0.819956 0.364947 0.411455
O O3 0.880464 0.337190 0.330579
O O4 0.000000 0.370355 0.390148
O O5 0.169878 0.846343 0.056865
O O6 0.340049 0.833765 0.075924
O O7 0.273122 0.000000 0.057972
O O8 0.283101 0.881284 0.995687
O O9 0.500000 0.379382 0.174409
O O10 0.380353 0.500000 0.149357
O O11 0.372025 0.321696 0.123978
O O12 0.323853 0.376348 0.202084
O O13 0.000000 0.222561 0.058832
O O14 0.140368 0.500000 0.696917
O O15 0.141339 0.641339 0.750000
O O16 0.140213 0.665033 0.660829
O O17 0.000000 0.607234 0.703758
O O18 0.701063 0.000000 0.388508
O O19 0.325556 0.825556 0.750000
O O20 0.293418 0.000000 0.727938
#
# Coordination Sequence:
#
# PCOD9559078 Si02
#       7
#    16  16  16  16  16  16  16
#     4   9  17  30  50  76 105 134 161 196 250 311
#     4  10  20  33  51  75 100 128 167 214 257 298
#     4   9  19  35  52  71  99 138 178 207 239 296
#     4   9  19  35  52  71  99 134 170 205 245 303
#     4   8  14  25  41  64  97 133 164 196 242 301
#     4  10  19  31  50  76 103 130 164 211 260 299
#     4  10  19  31  51  78 104 129 161 207 255 295
#
# _framework density 17.217382000000001
#
# number of rings (size 3 to 8) (size 9 to 14) (size 15 to 20)
#    0.000    2.714    0.000    2.143    0.000    3.000 
#    0.000    2.857    0.000    4.286    0.000    4.000 
#    0.000    4.571    0.000    0.000    0.000    0.000 
#
# Total GULP energy -312159.295430 kJ/mol
# GULP energy per Si atom -5574.273133 kJ/mol
# Density = 1.717819 g / cm^3
# Si number density = 17.217382 Si / 1000 Ang^3
#
#
#
# Elastic Constant Matrix: (Units=GPa)
#
#
# Indices 1 2 3 4 5 6 
#
# 1 84.2697 54.1519 47.5791 0.0000 0.0000 0.0000
# 2 54.1519 84.2697 47.5791 0.0000 0.0000 0.0000
# 3 47.5791 47.5791 57.0601 0.0000 0.0000 0.0000
# 4 0.0000 0.0000 0.0000 25.2700 0.0000 0.0000
# 5 0.0000 0.0000 0.0000 0.0000 25.2700 0.0000
# 6 0.0000 0.0000 0.0000 0.0000 0.0000 21.7745
#
#
#
# Elastic Compliance Matrix: (Units=1/GPa)
#
#
# Indices 1 2 3 4 5 6 
#
# 1 0.025065 -0.008138 -0.014115 0.000000 0.000000 0.000000
# 2 -0.008138 0.025065 -0.014115 0.000000 0.000000 0.000000
# 3 -0.014115 -0.014115 0.041065 0.000000 0.000000 0.000000
# 4 0.000000 0.000000 0.000000 0.039573 0.000000 0.000000
# 5 0.000000 0.000000 0.000000 0.000000 0.039573 0.000000
# 6 0.000000 0.000000 0.000000 0.000000 0.000000 0.045925
#
#
# Mechanical properties :
#
#
# Convention : Reuss Voigt Hill
#
# Bulk Modulus (GPa) = 54.17094 58.24662 56.20878
# Shear Modulus (GPa) = 16.94030 19.54889 18.24460
#
# Velocity S-wave (km/s) = 3.14013 3.37325 3.25878
# Velocity P-wave (km/s) = 6.68420 7.00538 6.84667
#
# Compressibility (1/GPa) = 0.01846008
#
# Stress axis : x y z
#
# Youngs Moduli (GPa) = 39.89580 39.89580 24.35186
#
# Poissons Ratio (x) = 0.32466 0.34373
# Poissons Ratio (y) = 0.32466 0.34373
# Poissons Ratio (z) = 0.56313 0.56313
#
# Static dielectric constant tensor:
#      x y z
#    x 1.598970 0.000000 0.000000 
#    y 0.000000 1.598970 0.000000 
#    z 0.000000 0.000000 1.558900 
# 
# From -- ./inp_files/9595.got.cif
#   From: 2010.05.17/outbox.cif.g08.bks.cpg/sg119_5_cif.got.tgz:9595.got - 2010.05.20 11:21:29.
