data_PCOD9559847
_publ_section_title
;
Structure prediction by ZEFSAII (Michael W. Deem and Ramdas Pophale) SiO2 
 PCOD9559847
Probable space group: I -4 C 2
;
_chemical_formula_sum "Si O2"
_cell_formula_units_Z 120
_cell_length_a 21.335206
_cell_length_b 21.335206
_cell_length_c 13.940810
_cell_angle_alpha 90.000000
_cell_angle_beta 90.000000
_cell_angle_gamma 90.000000
_cell_volume 6345.731455
_symmetry_space_group_name_H-M "I -4 C 2"
_symmetry_group_IT_number 120
_symmetry_cell_setting 'tetragonal'
loop_
_space_group_symop_operation_xyz
x,y,z
y,-x,-z
-x,-y,z
-y,x,-z
y,x,1/2-z
-y,-x,1/2-z
-x,y,1/2+z
x,-y,1/2+z
1/2+x,1/2+y,1/2+z
1/2+y,1/2-x,1/2-z
1/2-x,1/2-y,1/2+z
1/2-y,1/2+x,1/2-z
1/2+y,1/2+x,-z
1/2-y,1/2-x,-z
1/2-x,1/2+y,z
1/2+x,1/2-y,z
loop_
_atom_site_type_symbol
_atom_site_label
_atom_site_fract_x
_atom_site_fract_y
_atom_site_fract_z
Si Si1 0.772533 0.115163 0.868244
Si Si2 0.466795 0.396834 0.885542
Si Si3 0.335493 0.071414 0.056670
Si Si4 0.916468 0.083533 0.250000
Si Si5 0.902064 0.535423 0.751435
Si Si6 0.938821 0.656044 0.046785
Si Si7 0.120797 0.785550 0.851747
Si Si8 0.862837 0.001973 0.394856
O O1 0.713105 0.109555 0.937497
O O2 0.821231 0.171722 0.887503
O O3 0.757458 0.127298 0.755566
O O4 0.806106 0.047334 0.883783
O O5 0.529920 0.412830 0.830673
O O6 0.433968 0.336811 0.838886
O O7 0.422200 0.456711 0.872975
O O8 0.476277 0.376918 0.996373
O O9 0.365400 0.060267 0.160467
O O10 0.268018 0.102711 0.073684
O O11 0.383139 0.116862 0.000000
O O12 0.328810 0.002592 0.009835
O O13 0.939389 0.140232 0.179213
O O14 0.924071 0.464644 0.733843
O O15 0.861893 0.539444 0.846805
O O16 0.902349 0.597652 0.000000
#
# Coordination Sequence:
#
# PCOD9559847 Si02
#       8
#    16  16  16   8  16  16  16  16
#     4  10  22  40  60  84 124 174 215 255 302 367
#     4  11  20  32  52  79 114 158 209 262 317 361
#     4  12  24  40  67  99 126 160 205 257 322 383
#     4  12  21  30  50  86 118 152 212 276 322 360
#     4  11  22  39  64  97 135 156 189 247 319 404
#     4  12  24  40  67  99 126 160 205 257 322 383
#     4  10  22  40  60  84 124 174 215 255 302 367
#     4  11  20  32  52  79 114 158 209 262 317 361
#
# _framework density 18.910349
#
# number of rings (size 3 to 8) (size 9 to 14) (size 15 to 20)
#    0.000    0.933    6.667    2.000    0.000    0.800 
#    0.000    0.000    0.000    0.000    0.000    0.000 
#    0.000    0.000    0.000    0.000    0.000    0.000 
#
# Total GULP energy -334527.692079 kJ/mol
# GULP energy per Si atom -5575.461535 kJ/mol
# Density = 1.886731 g / cm^3
# Si number density = 18.910349 Si / 1000 Ang^3
#
#
#
# Elastic Constant Matrix: (Units=GPa)
#
#
# Indices 1 2 3 4 5 6 
#
# 1 67.0300 33.3996 16.9557 0.0000 0.0000 0.0000
# 2 33.3996 67.0366 16.9565 0.0000 0.0000 0.0000
# 3 16.9557 16.9565 84.8553 0.0000 0.0000 0.0000
# 4 0.0000 0.0000 0.0000 19.6498 0.0000 0.0000
# 5 0.0000 0.0000 0.0000 0.0000 19.6452 0.0000
# 6 0.0000 0.0000 0.0000 0.0000 0.0000 18.1379
#
#
#
# Elastic Compliance Matrix: (Units=1/GPa)
#
#
# Indices 1 2 3 4 5 6 
#
# 1 0.020206 -0.009527 -0.002134 0.000000 0.000000 0.000000
# 2 -0.009527 0.020204 -0.002134 0.000000 0.000000 0.000000
# 3 -0.002134 -0.002134 0.012637 0.000000 0.000000 0.000000
# 4 0.000000 0.000000 0.000000 0.050891 0.000000 0.000000
# 5 0.000000 0.000000 0.000000 0.000000 0.050903 0.000000
# 6 0.000000 0.000000 0.000000 0.000000 0.000000 0.055133
#
#
# Mechanical properties :
#
#
# Convention : Reuss Voigt Hill
#
# Bulk Modulus (GPa) = 39.28076 39.28285 39.28180
# Shear Modulus (GPa) = 20.32115 21.59392 20.95754
#
# Velocity S-wave (km/s) = 3.28167 3.38288 3.33266
# Velocity P-wave (km/s) = 5.93097 6.00640 5.96880
#
# Compressibility (1/GPa) = 0.02545776
#
# Stress axis : x y z
#
# Youngs Moduli (GPa) = 49.49100 49.49589 79.12987
#
# Poissons Ratio (x) = 0.47157 0.16884
# Poissons Ratio (y) = 0.47152 0.16883
# Poissons Ratio (z) = 0.10560 0.10560
#
# Static dielectric constant tensor:
#      x y z
#    x 1.666220 0.000000 0.000000 
#    y 0.000000 1.666220 0.000000 
#    z 0.000000 0.000000 1.682040 
# 
# From -- ./inp_files/3712.got.cif
#   From: 2010.05.17/outbox.cif.g08.bks.cpg/sg120_2_cif.got.tgz:3712.got - 2010.05.20 11:28:13.
