data_PCOD9559234
_publ_section_title
;
Structure prediction by ZEFSAII (Michael W. Deem and Ramdas Pophale) SiO2 
 PCOD9559234
Probable space group: I -4 M 2
;
_chemical_formula_sum "Si O2"
_cell_formula_units_Z 112
_cell_length_a 14.717447
_cell_length_b 14.717447
_cell_length_c 26.250412
_cell_angle_alpha 90.000000
_cell_angle_beta 90.000000
_cell_angle_gamma 90.000000
_cell_volume 5685.924453
_symmetry_space_group_name_H-M "I -4 M 2"
_symmetry_group_IT_number 119
_symmetry_cell_setting 'tetragonal'
loop_
_space_group_symop_operation_xyz
x,y,z
y,-x,-z
-x,-y,z
-y,x,-z
y,x,-z
-y,-x,-z
-x,y,z
x,-y,z
1/2+x,1/2+y,1/2+z
1/2+y,1/2-x,1/2-z
1/2-x,1/2-y,1/2+z
1/2-y,1/2+x,1/2-z
1/2+y,1/2+x,1/2-z
1/2-y,1/2-x,1/2-z
1/2-x,1/2+y,1/2+z
1/2+x,1/2-y,1/2+z
loop_
_atom_site_type_symbol
_atom_site_label
_atom_site_fract_x
_atom_site_fract_y
_atom_site_fract_z
Si Si1 0.285179 0.099911 0.386123
Si Si2 0.601660 0.604131 0.837487
Si Si3 0.195058 0.781566 0.140698
Si Si4 0.133854 0.604531 0.515236
Si Si5 0.659660 0.402786 0.549485
Si Si6 0.896427 0.392234 0.395902
Si Si7 0.258443 0.392134 0.255232
O O1 0.176516 0.106500 0.381544
O O2 0.311211 0.198386 0.361743
O O3 0.326381 0.098398 0.442485
O O4 0.310007 0.000000 0.362774
O O5 0.500000 0.623541 0.855824
O O6 0.603048 0.500000 0.817448
O O7 0.623977 0.674205 0.792351
O O8 0.146662 0.828200 0.092340
O O9 0.173675 0.675001 0.131030
O O10 0.147982 0.804489 0.193795
O O11 0.106214 0.500000 0.526487
O O12 0.241701 0.609401 0.523630
O O13 0.109023 0.623019 0.456929
O O14 0.598176 0.401825 0.500000
O O15 0.656831 0.500000 0.575802
O O16 0.874636 0.500000 0.387367
O O17 0.000000 0.376941 0.378824
O O18 0.242361 0.500000 0.259640
O O19 0.166022 0.333979 0.250000
#
# Coordination Sequence:
#
# PCOD9559234 Si02
#       7
#    16  16  16  16  16  16  16
#     4  10  20  34  58  85 109 144 189 232 281 339
#     4   9  19  38  62  85 112 148 190 234 283 345
#     4  11  22  37  58  83 118 149 191 238 286 338
#     4   9  18  34  56  84 119 155 191 231 277 334
#     4  10  20  35  56  83 119 159 194 231 277 332
#     4  10  20  34  55  83 115 153 192 231 281 339
#     4  11  23  40  61  85 114 148 188 238 293 343
#
# _framework density 19.697765
#
# number of rings (size 3 to 8) (size 9 to 14) (size 15 to 20)
#    0.000    2.000    2.857    0.857    0.000    3.429 
#    0.000    0.000    0.000    1.714    0.000    0.000 
#    0.000    0.000    0.000    0.000    0.000    0.000 
#
# Total GULP energy -312048.501893 kJ/mol
# GULP energy per Si atom -5572.294677 kJ/mol
# Density = 1.965293 g / cm^3
# Si number density = 19.697765 Si / 1000 Ang^3
#
#
#
# Elastic Constant Matrix: (Units=GPa)
#
#
# Indices 1 2 3 4 5 6 
#
# 1 85.6232 26.5193 34.4300 0.0000 0.0000 0.0000
# 2 26.5193 85.6218 34.4286 0.0000 0.0000 0.0000
# 3 34.4300 34.4286 76.3513 0.0000 0.0000 0.0000
# 4 0.0000 0.0000 0.0000 17.7540 0.0000 0.0000
# 5 0.0000 0.0000 0.0000 0.0000 17.7541 0.0000
# 6 0.0000 0.0000 0.0000 0.0000 0.0000 14.6975
#
#
#
# Elastic Compliance Matrix: (Units=1/GPa)
#
#
# Indices 1 2 3 4 5 6 
#
# 1 0.014626 -0.002294 -0.005561 0.000000 0.000000 0.000000
# 2 -0.002294 0.014626 -0.005561 0.000000 0.000000 0.000000
# 3 -0.005561 -0.005561 0.018112 0.000000 0.000000 0.000000
# 4 0.000000 0.000000 0.000000 0.056325 0.000000 0.000000
# 5 0.000000 0.000000 0.000000 0.000000 0.056325 0.000000
# 6 0.000000 0.000000 0.000000 0.000000 0.000000 0.068039
#
#
# Mechanical properties :
#
#
# Convention : Reuss Voigt Hill
#
# Bulk Modulus (GPa) = 48.70254 48.70578 48.70416
# Shear Modulus (GPa) = 19.10380 20.18903 19.64641
#
# Velocity S-wave (km/s) = 3.11761 3.20494 3.16158
# Velocity P-wave (km/s) = 6.14312 6.20288 6.17307
#
# Compressibility (1/GPa) = 0.02053281
#
# Stress axis : x y z
#
# Youngs Moduli (GPa) = 68.37304 68.37290 55.21066
#
# Poissons Ratio (x) = 0.15684 0.30702
# Poissons Ratio (y) = 0.15684 0.30701
# Poissons Ratio (z) = 0.38022 0.38020
#
# Static dielectric constant tensor:
#      x y z
#    x 1.748400 0.000000 0.000000 
#    y 0.000000 1.748400 0.000000 
#    z 0.000000 0.000000 1.658660 
# 
# From -- ./inp_files/9636.got.cif
#   From: 2010.05.17/outbox.cif.g08.bks.cpg/sg119_5_cif.got.tgz:9636.got - 2010.05.20 11:21:29.
