data_PCOD9559730
_publ_section_title
;
Structure prediction by ZEFSAII (Michael W. Deem and Ramdas Pophale) SiO2 
 PCOD9559730
Probable space group: I -4 C 2
;
_chemical_formula_sum "Si O2"
_cell_formula_units_Z 64
_cell_length_a 14.346035
_cell_length_b 14.346035
_cell_length_c 13.555302
_cell_angle_alpha 90.000000
_cell_angle_beta 90.000000
_cell_angle_gamma 90.000000
_cell_volume 2789.799357
_symmetry_space_group_name_H-M "I -4 C 2"
_symmetry_group_IT_number 120
_symmetry_cell_setting 'tetragonal'
loop_
_space_group_symop_operation_xyz
x,y,z
y,-x,-z
-x,-y,z
-y,x,-z
y,x,1/2-z
-y,-x,1/2-z
-x,y,1/2+z
x,-y,1/2+z
1/2+x,1/2+y,1/2+z
1/2+y,1/2-x,1/2-z
1/2-x,1/2-y,1/2+z
1/2-y,1/2+x,1/2-z
1/2+y,1/2+x,-z
1/2-y,1/2-x,-z
1/2-x,1/2+y,z
1/2+x,1/2-y,z
loop_
_atom_site_type_symbol
_atom_site_label
_atom_site_fract_x
_atom_site_fract_y
_atom_site_fract_z
Si Si1 0.812148 0.814871 0.932705
Si Si2 0.964558 0.606937 0.390561
Si Si3 0.242864 0.482824 0.938023
Si Si4 0.349500 0.156569 0.285455
O O1 0.801393 0.924817 0.916073
O O2 0.813349 0.751643 0.834987
O O3 0.731033 0.768968 0.000000
O O4 0.907958 0.794998 0.992790
O O5 0.979716 0.653836 0.497952
O O6 0.872905 0.638711 0.328996
O O7 0.000000 0.500000 0.384712
O O8 0.045787 0.653294 0.325205
O O9 0.208042 0.423693 0.844445
#
# Coordination Sequence:
#
# PCOD9559730 Si02
#       4
#    16  16  16  16
#     4   9  21  40  60  93 128 174 233 279 335 409
#     4  11  20  35  61  99 131 176 216 284 358 408
#     4  10  23  40  63  92 134 182 229 277 340 421
#     4  10  20  39  58  97 138 162 232 275 344 421
#
# _framework density 22.940719000000001
#
# number of rings (size 3 to 8) (size 9 to 14) (size 15 to 20)
#    0.000    2.000    2.500    2.250    3.500    2.500 
#    0.000   20.000    0.000    0.000    0.000   14.000 
#    0.000    0.000    0.000    0.000    0.000    0.000 
#
# Total GULP energy -178737.605997 kJ/mol
# GULP energy per Si atom -5585.550187 kJ/mol
# Density = 2.288850 g / cm^3
# Si number density = 22.940719 Si / 1000 Ang^3
#
#
#
# Elastic Constant Matrix: (Units=GPa)
#
#
# Indices 1 2 3 4 5 6 
#
# 1 126.4069 68.6518 62.7450 0.0000 0.0000 0.0000
# 2 68.6518 126.4057 62.7446 0.0000 0.0000 0.0000
# 3 62.7450 62.7446 185.6288 0.0000 0.0000 0.0000
# 4 0.0000 0.0000 0.0000 32.9641 0.0000 0.0000
# 5 0.0000 0.0000 0.0000 0.0000 32.9639 0.0000
# 6 0.0000 0.0000 0.0000 0.0000 0.0000 46.3275
#
#
#
# Elastic Compliance Matrix: (Units=1/GPa)
#
#
# Indices 1 2 3 4 5 6 
#
# 1 0.011933 -0.005382 -0.002214 0.000000 0.000000 0.000000
# 2 -0.005382 0.011933 -0.002214 0.000000 0.000000 0.000000
# 3 -0.002214 -0.002214 0.006884 0.000000 0.000000 0.000000
# 4 0.000000 0.000000 0.000000 0.030336 0.000000 0.000000
# 5 0.000000 0.000000 0.000000 0.000000 0.030336 0.000000
# 6 0.000000 0.000000 0.000000 0.000000 0.000000 0.021585
#
#
# Mechanical properties :
#
#
# Convention : Reuss Voigt Hill
#
# Bulk Modulus (GPa) = 89.85504 91.85822 90.85663
# Shear Modulus (GPa) = 36.67344 38.73778 37.70561
#
# Velocity S-wave (km/s) = 4.00261 4.11372 4.05855
# Velocity P-wave (km/s) = 7.78554 7.91783 7.85196
#
# Compressibility (1/GPa) = 0.01112904
#
# Stress axis : x y z
#
# Youngs Moduli (GPa) = 83.80175 83.80093 145.26231
#
# Poissons Ratio (x) = 0.45099 0.32167
# Poissons Ratio (y) = 0.45099 0.32167
# Poissons Ratio (z) = 0.18557 0.18557
#
# Static dielectric constant tensor:
#      x y z
#    x 1.901340 0.000000 0.000000 
#    y 0.000000 1.901340 0.000000 
#    z 0.000000 0.000000 1.969760 
# 
# From -- ./inp_files/3300.got.cif
#   From: 2010.05.17/outbox.cif.g08.bks.cpg/sg120_2_cif.got.tgz:3300.got - 2010.05.20 11:28:13.
