data_PCOD9559637
_publ_section_title
;
Structure prediction by ZEFSAII (Michael W. Deem and Ramdas Pophale) SiO2 
 PCOD9559637
Probable space group: I -4 C 2
;
_chemical_formula_sum "Si O2"
_cell_formula_units_Z 116
_cell_length_a 17.668237
_cell_length_b 17.668237
_cell_length_c 19.487981
_cell_angle_alpha 90.000000
_cell_angle_beta 90.000000
_cell_angle_gamma 90.000000
_cell_volume 6083.496744
_symmetry_space_group_name_H-M "I -4 C 2"
_symmetry_group_IT_number 120
_symmetry_cell_setting 'tetragonal'
loop_
_space_group_symop_operation_xyz
x,y,z
y,-x,-z
-x,-y,z
-y,x,-z
y,x,1/2-z
-y,-x,1/2-z
-x,y,1/2+z
x,-y,1/2+z
1/2+x,1/2+y,1/2+z
1/2+y,1/2-x,1/2-z
1/2-x,1/2-y,1/2+z
1/2-y,1/2+x,1/2-z
1/2+y,1/2+x,-z
1/2-y,1/2-x,-z
1/2-x,1/2+y,z
1/2+x,1/2-y,z
loop_
_atom_site_type_symbol
_atom_site_label
_atom_site_fract_x
_atom_site_fract_y
_atom_site_fract_z
Si Si1 0.525678 0.829924 0.382297
Si Si2 0.500000 0.500000 0.000000
Si Si3 0.351177 0.184370 0.286454
Si Si4 0.273999 0.559672 0.488662
Si Si5 0.946436 0.349742 0.623092
Si Si6 0.632185 0.882104 0.920474
Si Si7 0.135128 0.909962 0.447673
Si Si8 0.182937 0.767263 0.144770
O O1 0.562356 0.805091 0.310695
O O2 0.549055 0.771109 0.440760
O O3 0.570111 0.908612 0.398118
O O4 0.437353 0.842561 0.382864
O O5 0.553231 0.449722 0.951228
O O6 0.596334 0.165299 0.195665
O O7 0.301556 0.235383 0.338980
O O8 0.338625 0.219448 0.212505
O O9 0.215005 0.579562 0.429529
O O10 0.339622 0.621498 0.500513
O O11 0.309023 0.477145 0.470492
O O12 0.036495 0.353514 0.615070
O O13 0.706627 0.830426 0.915170
O O14 0.609122 0.890879 0.000000
O O15 0.165055 0.873794 0.376979
#
# Coordination Sequence:
#
# PCOD9559637 Si02
#       8
#    16   4  16  16  16  16  16  16
#     4  10  21  37  54  87 119 158 203 241 304 365
#     4   8  20  32  60 102 120 152 196 248 334 368
#     4   9  24  39  60  81 112 175 199 243 300 364
#     4  11  19  35  59  91 118 158 193 261 316 359
#     4  10  21  37  56  87 124 160 199 243 307 361
#     4  12  23  35  60  93 120 156 200 259 309 367
#     4  10  19  35  60  91 125 150 198 258 313 369
#     4  11  21  42  61  84 120 157 213 250 298 366
#
# _framework density 19.067979999999999
#
# number of rings (size 3 to 8) (size 9 to 14) (size 15 to 20)
#    0.828    0.828    4.138    0.828    0.000    3.862 
#    0.000    0.000    3.034    1.655    0.000    0.000 
#    0.000    0.000    0.000    0.000    0.000    0.000 
#
# Total GULP energy -322883.658812 kJ/mol
# GULP energy per Si atom -5566.959635 kJ/mol
# Density = 1.902458 g / cm^3
# Si number density = 19.067980 Si / 1000 Ang^3
#
#
#
# Elastic Constant Matrix: (Units=GPa)
#
#
# Indices 1 2 3 4 5 6 
#
# 1 65.0107 16.8951 17.3888 0.0000 0.0000 0.0000
# 2 16.8951 65.0105 17.3886 0.0000 0.0000 0.0000
# 3 17.3888 17.3886 52.8989 0.0000 0.0000 0.0000
# 4 0.0000 0.0000 0.0000 26.3199 0.0000 0.0000
# 5 0.0000 0.0000 0.0000 0.0000 26.3199 0.0000
# 6 0.0000 0.0000 0.0000 0.0000 0.0000 20.3251
#
#
#
# Elastic Compliance Matrix: (Units=1/GPa)
#
#
# Indices 1 2 3 4 5 6 
#
# 1 0.017486 -0.003297 -0.004664 0.000000 0.000000 0.000000
# 2 -0.003297 0.017487 -0.004664 0.000000 0.000000 0.000000
# 3 -0.004664 -0.004664 0.021970 0.000000 0.000000 0.000000
# 4 0.000000 0.000000 0.000000 0.037994 0.000000 0.000000
# 5 0.000000 0.000000 0.000000 0.000000 0.037994 0.000000
# 6 0.000000 0.000000 0.000000 0.000000 0.000000 0.049200
#
#
# Mechanical properties :
#
#
# Convention : Reuss Voigt Hill
#
# Bulk Modulus (GPa) = 31.55337 31.80725 31.68031
# Shear Modulus (GPa) = 22.94135 23.34282 23.14208
#
# Velocity S-wave (km/s) = 3.47239 3.50264 3.48754
# Velocity P-wave (km/s) = 5.71493 5.75110 5.73304
#
# Compressibility (1/GPa) = 0.03169233
#
# Stress axis : x y z
#
# Youngs Moduli (GPa) = 57.18699 57.18696 45.51564
#
# Poissons Ratio (x) = 0.18854 0.21230
# Poissons Ratio (y) = 0.18854 0.21230
# Poissons Ratio (z) = 0.26674 0.26674
#
# Static dielectric constant tensor:
#      x y z
#    x 1.678330 0.000000 0.000000 
#    y 0.000000 1.678330 0.000000 
#    z 0.000000 0.000000 1.672490 
# 
# From -- ./inp_files/4600.got.cif
#   From: 2010.05.17/outbox.cif.g08.bks.cpg/sg120_3_cif.got.tgz:4600.got - 2010.05.20 11:28:13.
