data_PCOD9559028
_publ_section_title
;
Structure prediction by ZEFSAII (Michael W. Deem and Ramdas Pophale) SiO2 
 PCOD9559028
Probable space group: I -4 M 2
;
_chemical_formula_sum "Si O2"
_cell_formula_units_Z 96
_cell_length_a 21.751439
_cell_length_b 21.751439
_cell_length_c 11.835897
_cell_angle_alpha 90.000000
_cell_angle_beta 90.000000
_cell_angle_gamma 90.000000
_cell_volume 5599.859935
_symmetry_space_group_name_H-M "I -4 M 2"
_symmetry_group_IT_number 119
_symmetry_cell_setting 'tetragonal'
loop_
_space_group_symop_operation_xyz
x,y,z
y,-x,-z
-x,-y,z
-y,x,-z
y,x,-z
-y,-x,-z
-x,y,z
x,-y,z
1/2+x,1/2+y,1/2+z
1/2+y,1/2-x,1/2-z
1/2-x,1/2-y,1/2+z
1/2-y,1/2+x,1/2-z
1/2+y,1/2+x,1/2-z
1/2-y,1/2-x,1/2-z
1/2-x,1/2+y,1/2+z
1/2+x,1/2-y,1/2+z
loop_
_atom_site_type_symbol
_atom_site_label
_atom_site_fract_x
_atom_site_fract_y
_atom_site_fract_z
Si Si1 0.334962 0.069538 0.250649
Si Si2 0.279038 0.176315 0.405681
Si Si3 0.245200 0.667458 0.160562
Si Si4 0.070890 0.796143 0.177770
Si Si5 0.758063 0.891016 0.072616
Si Si6 0.570503 0.394889 0.372559
O O1 0.404224 0.095777 0.250000
O O2 0.301796 0.119892 0.330341
O O3 0.299597 0.073889 0.129681
O O4 0.331030 0.000000 0.290974
O O5 0.212411 0.197176 0.364342
O O6 0.282923 0.158572 0.536750
O O7 0.321217 0.238140 0.398474
O O8 0.201207 0.701207 0.250000
O O9 0.266384 0.605122 0.217759
O O10 0.077024 0.870143 0.188255
O O11 0.000000 0.779820 0.169712
O O12 0.101720 0.771830 0.060708
O O13 0.821517 0.915920 0.125359
O O14 0.578968 0.421033 0.500000
O O15 0.500000 0.406140 0.336167
#
# Coordination Sequence:
#
# PCOD9559028 Si02
#       6
#    16  16  16  16  16  16
#     4  10  20  34  52  76 106 138 177 218 267 326
#     4  10  21  33  55  79 105 139 175 221 279 330
#     4  11  20  35  54  78 106 138 178 224 271 321
#     4  11  22  33  51  78 109 143 180 221 267 319
#     4  10  18  33  53  80 105 136 172 221 277 325
#     4  10  19  29  46  72 105 140 170 207 257 310
#
# _framework density 17.143284999999999
#
# number of rings (size 3 to 8) (size 9 to 14) (size 15 to 20)
#    0.000    1.667    1.667    6.500    4.667    2.000 
#    0.000    0.000    0.000    1.000    0.000    0.000 
#    0.000    0.333    0.000    0.000    0.000    0.000 
#
# Total GULP energy -267492.341160 kJ/mol
# GULP energy per Si atom -5572.757108 kJ/mol
# Density = 1.710427 g / cm^3
# Si number density = 17.143285 Si / 1000 Ang^3
#
#
#
# Elastic Constant Matrix: (Units=GPa)
#
#
# Indices 1 2 3 4 5 6 
#
# 1 55.8553 28.3861 11.5011 0.0000 0.0000 0.0000
# 2 28.3861 55.8541 11.4999 0.0000 0.0000 0.0000
# 3 11.5011 11.4999 72.1046 0.0000 0.0000 0.0000
# 4 0.0000 0.0000 0.0000 17.1344 0.0000 0.0000
# 5 0.0000 0.0000 0.0000 0.0000 17.1339 0.0000
# 6 0.0000 0.0000 0.0000 0.0000 0.0000 6.0142
#
#
#
# Elastic Compliance Matrix: (Units=1/GPa)
#
#
# Indices 1 2 3 4 5 6 
#
# 1 0.024408 -0.011997 -0.001980 0.000000 0.000000 0.000000
# 2 -0.011997 0.024408 -0.001979 0.000000 0.000000 0.000000
# 3 -0.001980 -0.001979 0.014500 0.000000 0.000000 0.000000
# 4 0.000000 0.000000 0.000000 0.058362 0.000000 0.000000
# 5 0.000000 0.000000 0.000000 0.000000 0.058364 0.000000
# 6 0.000000 0.000000 0.000000 0.000000 0.000000 0.166272
#
#
# Mechanical properties :
#
#
# Convention : Reuss Voigt Hill
#
# Bulk Modulus (GPa) = 31.84265 31.84314 31.84289
# Shear Modulus (GPa) = 12.86358 16.88499 14.87428
#
# Velocity S-wave (km/s) = 2.74224 3.14177 2.94878
# Velocity P-wave (km/s) = 5.35175 5.63702 5.49623
#
# Compressibility (1/GPa) = 0.03140443
#
# Stress axis : x y z
#
# Youngs Moduli (GPa) = 40.97017 40.96952 68.96455
#
# Poissons Ratio (x) = 0.49151 0.13654
# Poissons Ratio (y) = 0.49152 0.13650
# Poissons Ratio (z) = 0.08111 0.08109
#
# Static dielectric constant tensor:
#      x y z
#    x 1.596660 0.000000 0.000000 
#    y 0.000000 1.596660 0.000000 
#    z 0.000000 0.000000 1.590460 
# 
# From -- ./inp_files/4202.got.cif
#   From: 2010.05.17/outbox.cif.g08.bks.cpg/sg119_3_cif.got.tgz:4202.got - 2010.05.20 11:21:29.
