data_PCOD9559600
_publ_section_title
;
Structure prediction by ZEFSAII (Michael W. Deem and Ramdas Pophale) SiO2 
 PCOD9559600
Probable space group: I -4 C 2
;
_chemical_formula_sum "Si O2"
_cell_formula_units_Z 92
_cell_length_a 22.991689
_cell_length_b 22.991689
_cell_length_c 8.915171
_cell_angle_alpha 90.000000
_cell_angle_beta 90.000000
_cell_angle_gamma 90.000000
_cell_volume 4712.717751
_symmetry_space_group_name_H-M "I -4 C 2"
_symmetry_group_IT_number 120
_symmetry_cell_setting 'tetragonal'
loop_
_space_group_symop_operation_xyz
x,y,z
y,-x,-z
-x,-y,z
-y,x,-z
y,x,1/2-z
-y,-x,1/2-z
-x,y,1/2+z
x,-y,1/2+z
1/2+x,1/2+y,1/2+z
1/2+y,1/2-x,1/2-z
1/2-x,1/2-y,1/2+z
1/2-y,1/2+x,1/2-z
1/2+y,1/2+x,-z
1/2-y,1/2-x,-z
1/2-x,1/2+y,z
1/2+x,1/2-y,z
loop_
_atom_site_type_symbol
_atom_site_label
_atom_site_fract_x
_atom_site_fract_y
_atom_site_fract_z
Si Si1 0.684318 0.131869 0.851858
Si Si2 0.959356 0.774364 0.228198
Si Si3 0.889811 0.572242 0.341640
Si Si4 0.265511 0.057610 0.935499
Si Si5 0.677166 0.743545 0.934292
Si Si6 0.141542 0.858459 0.750000
Si Si7 0.000000 0.500000 0.750000
O O1 0.729065 0.077992 0.874830
O O2 0.622058 0.110502 0.784901
O O3 0.718197 0.165428 0.716504
O O4 0.667839 0.167839 0.000000
O O5 0.960687 0.743880 0.391547
O O6 0.923632 0.834610 0.240367
O O7 0.022777 0.781230 0.160604
O O8 0.895919 0.604082 0.500000
O O9 0.826834 0.542952 0.357055
O O10 0.943208 0.527633 0.329119
O O11 0.259705 0.126909 0.947075
O O12 0.738164 0.761837 0.000000
O O13 0.667950 0.677243 0.890518
#
# Coordination Sequence:
#
# PCOD9559600 Si02
#       7
#    16  16  16  16  16   8   4
#     4  10  20  33  54  74 101 138 190 232 274 325
#     4  10  21  36  56  83 107 145 183 226 277 332
#     4  12  21  41  47  71 103 144 192 244 279 315
#     4  10  20  35  59  74 104 142 186 228 274 328
#     4  10  18  38  57  80 110 145 178 230 282 323
#     4   8  20  34  54  80 116 143 176 225 280 332
#     4  12  30  28  48  66 102 144 192 246 290 304
#
# _framework density 19.521643000000001
#
# number of rings (size 3 to 8) (size 9 to 14) (size 15 to 20)
#    0.000    2.087    5.217    1.304    2.435    4.174 
#    0.000    0.000    0.000    3.130    0.000    0.000 
#    0.000   33.391    0.000    0.000    0.000    0.000 
#
# Total GULP energy -256213.267404 kJ/mol
# GULP energy per Si atom -5569.853639 kJ/mol
# Density = 1.947721 g / cm^3
# Si number density = 19.521643 Si / 1000 Ang^3
#
#
#
# Elastic Constant Matrix: (Units=GPa)
#
#
# Indices 1 2 3 4 5 6 
#
# 1 61.0568 40.8469 25.0777 0.0000 0.0000 0.0000
# 2 40.8469 61.0593 25.0781 0.0000 0.0000 0.0000
# 3 25.0777 25.0781 25.6050 0.0000 0.0000 0.0000
# 4 0.0000 0.0000 0.0000 11.2647 0.0000 0.0000
# 5 0.0000 0.0000 0.0000 0.0000 11.2642 0.0000
# 6 0.0000 0.0000 0.0000 0.0000 0.0000 35.2048
#
#
#
# Elastic Compliance Matrix: (Units=1/GPa)
#
#
# Indices 1 2 3 4 5 6 
#
# 1 0.034213 -0.015266 -0.018556 0.000000 0.000000 0.000000
# 2 -0.015266 0.034211 -0.018555 0.000000 0.000000 0.000000
# 3 -0.018556 -0.018555 0.075403 0.000000 0.000000 0.000000
# 4 0.000000 0.000000 0.000000 0.088773 0.000000 0.000000
# 5 0.000000 0.000000 0.000000 0.000000 0.088777 0.000000
# 6 0.000000 0.000000 0.000000 0.000000 0.000000 0.028405
#
#
# Mechanical properties :
#
#
# Convention : Reuss Voigt Hill
#
# Bulk Modulus (GPa) = 25.59449 36.63630 31.11539
# Shear Modulus (GPa) = 10.69380 15.32796 13.01088
#
# Velocity S-wave (km/s) = 2.34304 2.80514 2.58444
# Velocity P-wave (km/s) = 4.52317 5.41290 4.98791
#
# Compressibility (1/GPa) = 0.03907090
#
# Stress axis : x y z
#
# Youngs Moduli (GPa) = 29.22895 29.23038 13.26213
#
# Poissons Ratio (x) = 0.44623 0.24610
# Poissons Ratio (y) = 0.44621 0.24609
# Poissons Ratio (z) = 0.54238 0.54238
#
# Static dielectric constant tensor:
#      x y z
#    x 1.751350 0.000000 0.000000 
#    y 0.000000 1.751350 0.000000 
#    z 0.000000 0.000000 1.717180 
# 
# From -- ./inp_files/1593.got.cif
#   From: 2010.05.17/outbox.cif.g08.bks.cpg/sg120_1_cif.got.tgz:1593.got - 2010.05.20 11:28:13.
