data_PCOD9559318
_publ_section_title
;
Structure prediction by ZEFSAII (Michael W. Deem and Ramdas Pophale) SiO2 
 PCOD9559318
Probable space group: I -4 M 2
;
_chemical_formula_sum "Si O2"
_cell_formula_units_Z 58
_cell_length_a 12.040278
_cell_length_b 12.040278
_cell_length_c 20.004662
_cell_angle_alpha 90.000000
_cell_angle_beta 90.000000
_cell_angle_gamma 90.000000
_cell_volume 2900.041729
_symmetry_space_group_name_H-M "I -4 M 2"
_symmetry_group_IT_number 119
_symmetry_cell_setting 'tetragonal'
loop_
_space_group_symop_operation_xyz
x,y,z
y,-x,-z
-x,-y,z
-y,x,-z
y,x,-z
-y,-x,-z
-x,y,z
x,-y,z
1/2+x,1/2+y,1/2+z
1/2+y,1/2-x,1/2-z
1/2-x,1/2-y,1/2+z
1/2-y,1/2+x,1/2-z
1/2+y,1/2+x,1/2-z
1/2-y,1/2-x,1/2-z
1/2-x,1/2+y,1/2+z
1/2+x,1/2-y,1/2+z
loop_
_atom_site_type_symbol
_atom_site_label
_atom_site_fract_x
_atom_site_fract_y
_atom_site_fract_z
Si Si1 0.500000 0.739396 0.492664
Si Si2 0.374096 0.500000 0.799041
Si Si3 0.000000 0.225420 0.839624
Si Si4 0.747505 0.274462 0.823612
Si Si5 0.500000 0.500000 0.500000
Si Si6 0.785756 0.633602 0.041537
O O1 0.500000 0.695304 0.416874
O O2 0.500000 0.623862 0.533761
O O3 0.607066 0.814978 0.504724
O O4 0.500000 0.500000 0.821777
O O5 0.367297 0.500000 0.718054
O O6 0.309532 0.606496 0.824292
O O7 0.118777 0.285560 0.828979
O O8 0.724242 0.224242 0.750000
O O9 0.692055 0.211874 0.885596
O O10 0.787269 0.500000 0.045376
O O11 0.680239 0.680239 0.000000
#
# Coordination Sequence:
#
# PCOD9559318 Si02
#       6
#     8   8   8  16   2  16
#     4  12  23  44  67 102 133 174 227 292 346 397
#     4  10  22  39  66 101 134 175 221 280 339 418
#     4  10  20  40  66  94 134 170 224 288 338 398
#     4  10  22  43  65  98 133 174 229 279 342 406
#     4  12  20  36  72  96 124 164 228 272 338 400
#     4  12  26  45  68 100 140 182 227 280 345 421
#
# _framework density 19.999714000000001
#
# number of rings (size 3 to 8) (size 9 to 14) (size 15 to 20)
#    0.000    1.103    4.138    1.241    2.897    0.828 
#   14.897    2.759    0.000    0.000    0.000    0.000 
#    0.000    0.000    0.000    0.000    0.000    0.000 
#
# Total GULP energy -161714.947131 kJ/mol
# GULP energy per Si atom -5576.377487 kJ/mol
# Density = 1.995419 g / cm^3
# Si number density = 19.999714 Si / 1000 Ang^3
#
#
#
# Elastic Constant Matrix: (Units=GPa)
#
#
# Indices 1 2 3 4 5 6 
#
# 1 135.9373 41.8474 6.0322 0.0000 0.0000 0.0000
# 2 41.8474 135.9373 6.0322 0.0000 0.0000 0.0000
# 3 6.0322 6.0322 89.9480 0.0000 0.0000 0.0000
# 4 0.0000 0.0000 0.0000 17.7022 0.0000 0.0000
# 5 0.0000 0.0000 0.0000 0.0000 17.7022 0.0000
# 6 0.0000 0.0000 0.0000 0.0000 0.0000 18.3859
#
#
#
# Elastic Compliance Matrix: (Units=1/GPa)
#
#
# Indices 1 2 3 4 5 6 
#
# 1 0.008139 -0.002489 -0.000379 0.000000 0.000000 0.000000
# 2 -0.002489 0.008139 -0.000379 0.000000 0.000000 0.000000
# 3 -0.000379 -0.000379 0.011168 0.000000 0.000000 0.000000
# 4 0.000000 0.000000 0.000000 0.056490 0.000000 0.000000
# 5 0.000000 0.000000 0.000000 0.000000 0.056490 0.000000
# 6 0.000000 0.000000 0.000000 0.000000 0.000000 0.054389
#
#
# Mechanical properties :
#
#
# Convention : Reuss Voigt Hill
#
# Bulk Modulus (GPa) = 47.72452 52.18291 49.95371
# Shear Modulus (GPa) = 24.00444 31.28545 27.64495
#
# Velocity S-wave (km/s) = 3.46821 3.95941 3.72192
# Velocity P-wave (km/s) = 6.32079 6.85937 6.59558
#
# Compressibility (1/GPa) = 0.02095359
#
# Stress axis : x y z
#
# Youngs Moduli (GPa) = 122.86052 122.86052 89.53869
#
# Poissons Ratio (x) = 0.30578 0.03393
# Poissons Ratio (y) = 0.30578 0.03393
# Poissons Ratio (z) = 0.04656 0.04656
#
# Static dielectric constant tensor:
#      x y z
#    x 1.692710 0.000000 0.000000 
#    y 0.000000 1.692710 0.000000 
#    z 0.000000 0.000000 1.779550 
# 
# From -- ./inp_files/7426.got.cif
#   From: 2010.05.17/outbox.cif.g08.bks.cpg/sg119_4_cif.got.tgz:7426.got - 2010.05.20 11:21:29.
