data_PCOD9559061
_publ_section_title
;
Structure prediction by ZEFSAII (Michael W. Deem and Ramdas Pophale) SiO2 
 PCOD9559061
Probable space group: I -4 M 2
;
_chemical_formula_sum "Si O2"
_cell_formula_units_Z 112
_cell_length_a 17.450136
_cell_length_b 17.450136
_cell_length_c 21.434792
_cell_angle_alpha 90.000000
_cell_angle_beta 90.000000
_cell_angle_gamma 90.000000
_cell_volume 6527.049489
_symmetry_space_group_name_H-M "I -4 M 2"
_symmetry_group_IT_number 119
_symmetry_cell_setting 'tetragonal'
loop_
_space_group_symop_operation_xyz
x,y,z
y,-x,-z
-x,-y,z
-y,x,-z
y,x,-z
-y,-x,-z
-x,y,z
x,-y,z
1/2+x,1/2+y,1/2+z
1/2+y,1/2-x,1/2-z
1/2-x,1/2-y,1/2+z
1/2-y,1/2+x,1/2-z
1/2+y,1/2+x,1/2-z
1/2-y,1/2-x,1/2-z
1/2-x,1/2+y,1/2+z
1/2+x,1/2-y,1/2+z
loop_
_atom_site_type_symbol
_atom_site_label
_atom_site_fract_x
_atom_site_fract_y
_atom_site_fract_z
Si Si1 0.799443 0.182099 0.741740
Si Si2 0.291334 0.297294 0.097391
Si Si3 0.733242 0.911596 0.492042
Si Si4 0.087776 0.340011 0.195908
Si Si5 0.634979 0.086375 0.941504
Si Si6 0.410650 0.409095 0.677376
Si Si7 0.698251 0.641748 0.434611
O O1 0.769893 0.269893 0.750000
O O2 0.797855 0.171845 0.667366
O O3 0.734178 0.133116 0.779000
O O4 0.876767 0.149774 0.771829
O O5 0.273069 0.365392 0.048862
O O6 0.221519 0.236120 0.090450
O O7 0.366824 0.255914 0.070700
O O8 0.643872 0.901754 0.509480
O O9 0.754579 0.000000 0.490103
O O10 0.098425 0.401576 0.250000
O O11 0.115033 0.374687 0.130195
O O12 0.000000 0.318175 0.186485
O O13 0.727201 0.089977 0.947398
O O14 0.606743 0.000000 0.946918
O O15 0.500000 0.395731 0.695760
O O16 0.401187 0.500000 0.667395
O O17 0.393149 0.359960 0.615166
O O18 0.658522 0.658522 0.500000
#
# Coordination Sequence:
#
# PCOD9559061 Si02
#       7
#    16  16  16  16  16  16  16
#     4  11  19  34  59  77 103 144 192 232 272 334
#     4  10  20  36  57  82 103 141 196 232 275 336
#     4  10  20  36  54  78 111 139 182 243 284 321
#     4  10  19  30  48  75 106 143 178 214 264 322
#     4  10  19  32  53  78 108 146 179 217 274 332
#     4  11  24  38  54  86 125 151 181 234 289 334
#     4  11  18  36  59  81 108 150 191 227 265 331
#
# _framework density 17.159361000000001
#
# number of rings (size 3 to 8) (size 9 to 14) (size 15 to 20)
#    0.000    1.571    5.714    3.429    0.000    5.000 
#    0.000    2.143    0.000    3.429    0.000    0.000 
#    0.000    0.286    0.000    0.000    0.000    0.000 
#
# Total GULP energy -312121.855828 kJ/mol
# GULP energy per Si atom -5573.604568 kJ/mol
# Density = 1.712031 g / cm^3
# Si number density = 17.159361 Si / 1000 Ang^3
#
#
#
# Elastic Constant Matrix: (Units=GPa)
#
#
# Indices 1 2 3 4 5 6 
#
# 1 84.0258 20.7700 19.0214 0.0000 0.0000 0.0000
# 2 20.7700 84.0253 19.0216 0.0000 0.0000 0.0000
# 3 19.0214 19.0216 71.0036 0.0000 0.0000 0.0000
# 4 0.0000 0.0000 0.0000 21.1947 0.0000 0.0000
# 5 0.0000 0.0000 0.0000 0.0000 21.1948 0.0000
# 6 0.0000 0.0000 0.0000 0.0000 0.0000 14.8061
#
#
#
# Elastic Compliance Matrix: (Units=1/GPa)
#
#
# Indices 1 2 3 4 5 6 
#
# 1 0.013190 -0.002619 -0.002832 0.000000 0.000000 0.000000
# 2 -0.002619 0.013190 -0.002832 0.000000 0.000000 0.000000
# 3 -0.002832 -0.002832 0.015601 0.000000 0.000000 0.000000
# 4 0.000000 0.000000 0.000000 0.047182 0.000000 0.000000
# 5 0.000000 0.000000 0.000000 0.000000 0.047181 0.000000
# 6 0.000000 0.000000 0.000000 0.000000 0.000000 0.067540
#
#
# Mechanical properties :
#
#
# Convention : Reuss Voigt Hill
#
# Bulk Modulus (GPa) = 39.34719 39.63118 39.48919
# Shear Modulus (GPa) = 21.84166 23.45522 22.64844
#
# Velocity S-wave (km/s) = 3.57160 3.70118 3.63697
# Velocity P-wave (km/s) = 6.32366 6.43514 6.37965
#
# Compressibility (1/GPa) = 0.02541477
#
# Stress axis : x y z
#
# Youngs Moduli (GPa) = 75.81746 75.81684 64.09835
#
# Poissons Ratio (x) = 0.19858 0.18151
# Poissons Ratio (y) = 0.19858 0.18151
# Poissons Ratio (z) = 0.21469 0.21470
#
# Static dielectric constant tensor:
#      x y z
#    x 1.610540 0.000000 0.000000 
#    y 0.000000 1.610540 0.000000 
#    z 0.000000 0.000000 1.603050 
# 
# From -- ./inp_files/8038.got.cif
#   From: 2010.05.17/outbox.cif.g08.bks.cpg/sg119_5_cif.got.tgz:8038.got - 2010.05.20 11:21:29.
