data_PCOD9559507
_publ_section_title
;
Structure prediction by ZEFSAII (Michael W. Deem and Ramdas Pophale) SiO2 
 PCOD9559507
Probable space group: I -4 M 2
;
_chemical_formula_sum "Si O2"
_cell_formula_units_Z 80
_cell_length_a 27.336925
_cell_length_b 27.336925
_cell_length_c 5.366838
_cell_angle_alpha 90.000000
_cell_angle_beta 90.000000
_cell_angle_gamma 90.000000
_cell_volume 4010.678119
_symmetry_space_group_name_H-M "I -4 M 2"
_symmetry_group_IT_number 119
_symmetry_cell_setting 'tetragonal'
loop_
_space_group_symop_operation_xyz
x,y,z
y,-x,-z
-x,-y,z
-y,x,-z
y,x,-z
-y,-x,-z
-x,y,z
x,-y,z
1/2+x,1/2+y,1/2+z
1/2+y,1/2-x,1/2-z
1/2-x,1/2-y,1/2+z
1/2-y,1/2+x,1/2-z
1/2+y,1/2+x,1/2-z
1/2-y,1/2-x,1/2-z
1/2-x,1/2+y,1/2+z
1/2+x,1/2-y,1/2+z
loop_
_atom_site_type_symbol
_atom_site_label
_atom_site_fract_x
_atom_site_fract_y
_atom_site_fract_z
Si Si1 0.942829 0.286956 0.694151
Si Si2 0.827075 0.056393 0.396201
Si Si3 0.189050 0.226570 0.249608
Si Si4 0.890288 0.308544 0.206167
Si Si5 0.095635 0.922655 0.751808
O O1 0.933210 0.229091 0.651539
O O2 0.929039 0.310898 0.430137
O O3 0.000000 0.292812 0.748267
O O4 0.912358 0.306849 0.928945
O O5 0.849731 0.060415 0.678712
O O6 0.863182 0.092658 0.250018
O O7 0.835648 0.000000 0.319212
O O8 0.195400 0.195400 0.500000
O O9 0.233432 0.266569 0.250000
O O10 0.140296 0.258444 0.242055
O O11 0.195767 0.195767 0.000000
O O12 0.852281 0.352281 0.250000
O O13 0.065827 0.934174 0.500000
O O14 0.066615 0.933386 0.000000
#
# Coordination Sequence:
#
# PCOD9559507 Si02
#       5
#    16  16  16  16  16
#     4  11  23  39  60  87 115 152 198 240 288 345
#     4   8  19  35  55  77 110 145 188 244 292 338
#     4   9  17  32  51  75 108 153 198 231 271 326
#     4  11  23  40  59  84 120 158 192 240 294 339
#     4   8  18  32  49  77 106 142 187 232 299 346
#
# _framework density 19.946750999999999
#
# number of rings (size 3 to 8) (size 9 to 14) (size 15 to 20)
#    1.200    1.200    0.000    2.400    2.800    4.000 
#   10.800    0.000    0.000    4.800    0.000    5.600 
#    0.000   28.000    0.000    0.000    0.000    0.000 
#
# Total GULP energy -222713.813131 kJ/mol
# GULP energy per Si atom -5567.845328 kJ/mol
# Density = 1.990135 g / cm^3
# Si number density = 19.946751 Si / 1000 Ang^3
#
#
#
# Elastic Constant Matrix: (Units=GPa)
#
#
# Indices 1 2 3 4 5 6 
#
# 1 58.3532 31.9182 19.4505 0.0000 0.0000 0.0000
# 2 31.9182 58.3531 19.4498 0.0000 0.0000 0.0000
# 3 19.4505 19.4498 149.0221 0.0000 0.0000 0.0000
# 4 0.0000 0.0000 0.0000 21.1999 0.0000 0.0000
# 5 0.0000 0.0000 0.0000 0.0000 21.2002 0.0000
# 6 0.0000 0.0000 0.0000 0.0000 0.0000 18.3653
#
#
#
# Elastic Compliance Matrix: (Units=1/GPa)
#
#
# Indices 1 2 3 4 5 6 
#
# 1 0.024783 -0.013045 -0.001532 0.000000 0.000000 0.000000
# 2 -0.013045 0.024783 -0.001532 0.000000 0.000000 0.000000
# 3 -0.001532 -0.001532 0.007110 0.000000 0.000000 0.000000
# 4 0.000000 0.000000 0.000000 0.047170 0.000000 0.000000
# 5 0.000000 0.000000 0.000000 0.000000 0.047169 0.000000
# 6 0.000000 0.000000 0.000000 0.000000 0.000000 0.054451
#
#
# Mechanical properties :
#
#
# Convention : Reuss Voigt Hill
#
# Bulk Modulus (GPa) = 40.88631 45.26283 43.07457
# Shear Modulus (GPa) = 20.33856 25.14707 22.74281
#
# Velocity S-wave (km/s) = 3.19665 3.55450 3.38031
# Velocity P-wave (km/s) = 5.84525 6.29182 6.07264
#
# Compressibility (1/GPa) = 0.02445807
#
# Stress axis : x y z
#
# Youngs Moduli (GPa) = 40.34971 40.34975 140.64048
#
# Poissons Ratio (x) = 0.52638 0.21548
# Poissons Ratio (y) = 0.52638 0.21545
# Poissons Ratio (z) = 0.06182 0.06181
#
# Static dielectric constant tensor:
#      x y z
#    x 1.698460 0.000000 0.000000 
#    y 0.000000 1.698460 0.000000 
#    z 0.000000 0.000000 1.841830 
# 
# From -- ./inp_files/999.got.cif
#   From: 2010.05.17/outbox.cif.g08.bks.cpg/sg119_1_cif.got.tgz:999.got - 2010.05.20 11:21:29.
