data_PCOD9559502
_publ_section_title
;
Structure prediction by ZEFSAII (Michael W. Deem and Ramdas Pophale) SiO2 
 PCOD9559502
Probable space group: I -4 M 2
;
_chemical_formula_sum "Si O2"
_cell_formula_units_Z 52
_cell_length_a 19.682197
_cell_length_b 19.682197
_cell_length_c 6.976140
_cell_angle_alpha 90.000000
_cell_angle_beta 90.000000
_cell_angle_gamma 90.000000
_cell_volume 2702.479053
_symmetry_space_group_name_H-M "I -4 M 2"
_symmetry_group_IT_number 119
_symmetry_cell_setting 'tetragonal'
loop_
_space_group_symop_operation_xyz
x,y,z
y,-x,-z
-x,-y,z
-y,x,-z
y,x,-z
-y,-x,-z
-x,y,z
x,-y,z
1/2+x,1/2+y,1/2+z
1/2+y,1/2-x,1/2-z
1/2-x,1/2-y,1/2+z
1/2-y,1/2+x,1/2-z
1/2+y,1/2+x,1/2-z
1/2-y,1/2-x,1/2-z
1/2-x,1/2+y,1/2+z
1/2+x,1/2-y,1/2+z
loop_
_atom_site_type_symbol
_atom_site_label
_atom_site_fract_x
_atom_site_fract_y
_atom_site_fract_z
Si Si1 0.718435 0.889294 0.689446
Si Si2 0.000000 0.729910 0.983572
Si Si3 0.863207 0.136794 0.500000
Si Si4 0.500000 0.633417 0.249310
Si Si5 0.500000 0.500000 0.500000
Si Si6 0.000000 0.500000 0.750000
Si Si7 0.649544 0.000000 0.411246
O O1 0.675598 0.824403 0.750000
O O2 0.793289 0.868409 0.618811
O O3 0.679320 0.934764 0.527400
O O4 0.722024 0.936064 0.877445
O O5 0.000000 0.804028 0.893177
O O6 0.000000 0.679021 0.804213
O O7 0.863436 0.068296 0.375087
O O8 0.500000 0.564893 0.366598
O O9 0.000000 0.568054 0.617550
#
# Coordination Sequence:
#
# PCOD9559502 Si02
#       7
#    16   8   8   8   2   2   8
#     4  11  25  43  68 100 139 184 235 291 356 432
#     4  11  22  45  72  92 140 185 225 295 361 405
#     4  12  24  45  65  98 142 184 227 299 352 412
#     4  12  23  43  66  97 134 176 230 279 347 409
#     4  12  24  34  68 104 120 170 240 264 322 440
#     4  12  24  40  82  96 132 190 220 288 374 416
#     4  11  23  48  66 105 135 176 235 300 351 431
#
# _framework density 19.241591
#
# number of rings (size 3 to 8) (size 9 to 14) (size 15 to 20)
#    0.000    0.615    3.077    5.538    0.000    3.692 
#    2.769    3.077    0.000    0.000    0.000    0.000 
#    0.000    0.000    0.000    0.000    0.000    0.000 
#
# Total GULP energy -145400.355534 kJ/mol
# GULP energy per Si atom -5592.321367 kJ/mol
# Density = 1.919780 g / cm^3
# Si number density = 19.241591 Si / 1000 Ang^3
#
#
#
# Elastic Constant Matrix: (Units=GPa)
#
#
# Indices 1 2 3 4 5 6 
#
# 1 197.8959 77.9610 93.4732 0.0000 0.0000 0.0000
# 2 77.9610 197.9005 93.4743 0.0000 0.0000 0.0000
# 3 93.4732 93.4743 159.7056 0.0000 0.0000 0.0000
# 4 0.0000 0.0000 0.0000 38.3382 0.0000 0.0000
# 5 0.0000 0.0000 0.0000 0.0000 38.3550 0.0000
# 6 0.0000 0.0000 0.0000 0.0000 0.0000 29.1100
#
#
#
# Elastic Compliance Matrix: (Units=1/GPa)
#
#
# Indices 1 2 3 4 5 6 
#
# 1 0.007173 -0.001165 -0.003517 0.000000 0.000000 0.000000
# 2 -0.001165 0.007173 -0.003516 0.000000 0.000000 0.000000
# 3 -0.003517 -0.003516 0.010378 0.000000 0.000000 0.000000
# 4 0.000000 0.000000 0.000000 0.026084 0.000000 0.000000
# 5 0.000000 0.000000 0.000000 0.000000 0.026072 0.000000
# 6 0.000000 0.000000 0.000000 0.000000 0.000000 0.034353
#
#
# Mechanical properties :
#
#
# Convention : Reuss Voigt Hill
#
# Bulk Modulus (GPa) = 120.07465 120.59099 120.33282
# Shear Modulus (GPa) = 38.34250 40.53354 39.43802
#
# Velocity S-wave (km/s) = 4.46880 4.59471 4.53219
# Velocity P-wave (km/s) = 9.44278 9.53711 9.49006
#
# Compressibility (1/GPa) = 0.00832815
#
# Stress axis : x y z
#
# Youngs Moduli (GPa) = 139.41180 139.41502 96.35922
#
# Poissons Ratio (x) = 0.16239 0.33885
# Poissons Ratio (y) = 0.16238 0.33884
# Poissons Ratio (z) = 0.49024 0.49025
#
# Static dielectric constant tensor:
#      x y z
#    x 1.650850 0.000000 0.000000 
#    y 0.000000 1.650850 0.000000 
#    z 0.000000 0.000000 1.644000 
# 
# From -- ./inp_files/591.got.cif
#   From: 2010.05.17/outbox.cif.g08.bks.cpg/sg119_1_cif.got.tgz:591.got - 2010.05.20 11:21:29.
