data_PCOD9559860
_publ_section_title
;
Structure prediction by ZEFSAII (Michael W. Deem and Ramdas Pophale) SiO2 
 PCOD9559860
Probable space group: I -4 C 2
;
_chemical_formula_sum "Si O2"
_cell_formula_units_Z 44
_cell_length_a 13.796747
_cell_length_b 13.796747
_cell_length_c 11.556410
_cell_angle_alpha 90.000000
_cell_angle_beta 90.000000
_cell_angle_gamma 90.000000
_cell_volume 2199.765276
_symmetry_space_group_name_H-M "I -4 C 2"
_symmetry_group_IT_number 120
_symmetry_cell_setting 'tetragonal'
loop_
_space_group_symop_operation_xyz
x,y,z
y,-x,-z
-x,-y,z
-y,x,-z
y,x,1/2-z
-y,-x,1/2-z
-x,y,1/2+z
x,-y,1/2+z
1/2+x,1/2+y,1/2+z
1/2+y,1/2-x,1/2-z
1/2-x,1/2-y,1/2+z
1/2-y,1/2+x,1/2-z
1/2+y,1/2+x,-z
1/2-y,1/2-x,-z
1/2-x,1/2+y,z
1/2+x,1/2-y,z
loop_
_atom_site_type_symbol
_atom_site_label
_atom_site_fract_x
_atom_site_fract_y
_atom_site_fract_z
Si Si1 0.973830 0.850746 0.531007
Si Si2 0.177974 0.432975 0.100555
Si Si3 0.837397 0.162604 0.250000
Si Si4 0.500000 0.000000 0.750000
O O1 0.993596 0.753025 0.460810
O O2 0.904973 0.923230 0.458829
O O3 0.922689 0.840700 0.654484
O O4 0.239293 0.358175 0.179677
O O5 0.096079 0.487253 0.173439
O O6 0.125949 0.374052 0.000000
#
# Coordination Sequence:
#
# PCOD9559860 Si02
#       4
#    16  16   8   4
#     4   9  20  39  65  94 123 154 201 257 309 370
#     4  11  24  40  61  90 125 167 210 251 306 374
#     4  10  22  41  66  94 122 161 200 256 316 361
#     4  12  26  44  64  86 128 176 210 260 316 362
#
# _framework density 20.002133000000001
#
# number of rings (size 3 to 8) (size 9 to 14) (size 15 to 20)
#    0.000    1.818    0.000    2.727    0.000   17.455 
#    0.000    3.636    0.000    0.000    0.000    0.000 
#    0.000    0.000    0.000    0.000    0.000    0.000 
#
# Total GULP energy -122890.097803 kJ/mol
# GULP energy per Si atom -5585.913536 kJ/mol
# Density = 1.995661 g / cm^3
# Si number density = 20.002133 Si / 1000 Ang^3
#
#
#
# Elastic Constant Matrix: (Units=GPa)
#
#
# Indices 1 2 3 4 5 6 
#
# 1 126.2327 64.4866 69.0580 0.0000 0.0000 0.0000
# 2 64.4866 126.2318 69.0577 0.0000 0.0000 0.0000
# 3 69.0580 69.0577 112.2886 0.0000 0.0000 0.0000
# 4 0.0000 0.0000 0.0000 24.4721 0.0000 0.0000
# 5 0.0000 0.0000 0.0000 0.0000 24.4755 0.0000
# 6 0.0000 0.0000 0.0000 0.0000 0.0000 20.9427
#
#
#
# Elastic Compliance Matrix: (Units=1/GPa)
#
#
# Indices 1 2 3 4 5 6 
#
# 1 0.012825 -0.003371 -0.005814 0.000000 0.000000 0.000000
# 2 -0.003371 0.012825 -0.005814 0.000000 0.000000 0.000000
# 3 -0.005814 -0.005814 0.016057 0.000000 0.000000 0.000000
# 4 0.000000 0.000000 0.000000 0.040863 0.000000 0.000000
# 5 0.000000 0.000000 0.000000 0.000000 0.040857 0.000000
# 6 0.000000 0.000000 0.000000 0.000000 0.000000 0.047749
#
#
# Mechanical properties :
#
#
# Convention : Reuss Voigt Hill
#
# Bulk Modulus (GPa) = 85.41049 85.55086 85.48067
# Shear Modulus (GPa) = 24.38113 24.78811 24.58462
#
# Velocity S-wave (km/s) = 3.49510 3.52415 3.50966
# Velocity P-wave (km/s) = 7.68642 7.70865 7.69754
#
# Compressibility (1/GPa) = 0.01170816
#
# Stress axis : x y z
#
# Youngs Moduli (GPa) = 77.97505 77.97462 62.27793
#
# Poissons Ratio (x) = 0.26284 0.36209
# Poissons Ratio (y) = 0.26284 0.36209
# Poissons Ratio (z) = 0.45336 0.45335
#
# Static dielectric constant tensor:
#      x y z
#    x 1.705520 0.000000 0.000000 
#    y 0.000000 1.705520 0.000000 
#    z 0.000000 0.000000 1.706650 
# 
# From -- ./inp_files/2026.got.cif
#   From: 2010.05.17/outbox.cif.g08.bks.cpg/sg120_2_cif.got.tgz:2026.got - 2010.05.20 11:28:13.
