data_PCOD9559587
_publ_section_title
;
Structure prediction by ZEFSAII (Michael W. Deem and Ramdas Pophale) SiO2 
 PCOD9559587
Probable space group: I -4 C 2
;
_chemical_formula_sum "Si O2"
_cell_formula_units_Z 92
_cell_length_a 24.596813
_cell_length_b 24.596813
_cell_length_c 9.849037
_cell_angle_alpha 90.000000
_cell_angle_beta 90.000000
_cell_angle_gamma 90.000000
_cell_volume 5958.698998
_symmetry_space_group_name_H-M "I -4 C 2"
_symmetry_group_IT_number 120
_symmetry_cell_setting 'tetragonal'
loop_
_space_group_symop_operation_xyz
x,y,z
y,-x,-z
-x,-y,z
-y,x,-z
y,x,1/2-z
-y,-x,1/2-z
-x,y,1/2+z
x,-y,1/2+z
1/2+x,1/2+y,1/2+z
1/2+y,1/2-x,1/2-z
1/2-x,1/2-y,1/2+z
1/2-y,1/2+x,1/2-z
1/2+y,1/2+x,-z
1/2-y,1/2-x,-z
1/2-x,1/2+y,z
1/2+x,1/2-y,z
loop_
_atom_site_type_symbol
_atom_site_label
_atom_site_fract_x
_atom_site_fract_y
_atom_site_fract_z
Si Si1 0.777322 0.704811 0.343425
Si Si2 0.405323 0.269385 0.099169
Si Si3 0.620012 0.379989 0.750000
Si Si4 0.000000 0.000000 0.500000
Si Si5 0.884451 0.014755 0.087986
Si Si6 0.627722 0.717708 0.785442
Si Si7 0.307367 0.482235 0.832393
O O1 0.729121 0.729121 0.250000
O O2 0.773627 0.726374 0.500000
O O3 0.775184 0.639524 0.357164
O O4 0.831897 0.730686 0.281040
O O5 0.388393 0.321589 0.186828
O O6 0.469151 0.264774 0.135748
O O7 0.394918 0.282120 0.940233
O O8 0.608343 0.423125 0.632714
O O9 0.010579 0.055425 0.417081
O O10 0.842435 0.990617 0.196155
O O11 0.853304 0.012949 0.946905
O O12 0.665329 0.665329 0.750000
O O13 0.577030 0.718768 0.683074
#
# Coordination Sequence:
#
# PCOD9559587 Si02
#       7
#    16  16   8   4  16  16  16
#     4   9  18  33  53  75  97 122 159 203 252 297
#     4  10  18  34  51  72  95 127 160 200 250 300
#     4  10  20  33  48  66  90 122 162 206 256 289
#     4  12  24  38  40  58  84 118 184 210 244 266
#     4  11  24  34  49  63  86 130 166 221 249 284
#     4  10  20  33  53  74  98 127 163 207 242 301
#     4  11  22  36  50  69  94 126 165 202 256 291
#
# _framework density 15.439610999999999
#
# number of rings (size 3 to 8) (size 9 to 14) (size 15 to 20)
#    0.000    1.739    2.609    3.130    2.435    2.435 
#    0.000    0.000    0.000    0.000    0.000    0.000 
#    0.000    0.696    0.000    6.261    0.000    0.000 
#
# Total GULP energy -256286.139411 kJ/mol
# GULP energy per Si atom -5571.437813 kJ/mol
# Density = 1.540447 g / cm^3
# Si number density = 15.439611 Si / 1000 Ang^3
#
#
#
# Elastic Constant Matrix: (Units=GPa)
#
#
# Indices 1 2 3 4 5 6 
#
# 1 109.5814 10.9324 22.1499 0.0000 0.0000 0.0000
# 2 10.9324 109.5594 22.1562 0.0000 0.0000 0.0000
# 3 22.1499 22.1562 43.2684 0.0000 0.0000 0.0000
# 4 0.0000 0.0000 0.0000 19.8582 0.0000 0.0000
# 5 0.0000 0.0000 0.0000 0.0000 19.8588 0.0000
# 6 0.0000 0.0000 0.0000 0.0000 0.0000 19.8192
#
#
#
# Elastic Compliance Matrix: (Units=1/GPa)
#
#
# Indices 1 2 3 4 5 6 
#
# 1 0.010179 0.000042 -0.005233 0.000000 0.000000 0.000000
# 2 0.000042 0.010182 -0.005236 0.000000 0.000000 0.000000
# 3 -0.005233 -0.005236 0.028471 0.000000 0.000000 0.000000
# 4 0.000000 0.000000 0.000000 0.050357 0.000000 0.000000
# 5 0.000000 0.000000 0.000000 0.000000 0.050356 0.000000
# 6 0.000000 0.000000 0.000000 0.000000 0.000000 0.050456
#
#
# Mechanical properties :
#
#
# Convention : Reuss Voigt Hill
#
# Bulk Modulus (GPa) = 35.73874 41.43180 38.58527
# Shear Modulus (GPa) = 21.72220 25.71863 23.72041
#
# Velocity S-wave (km/s) = 3.75495 4.08580 3.92386
# Velocity P-wave (km/s) = 6.48053 7.01080 6.75087
#
# Compressibility (1/GPa) = 0.02798084
#
# Stress axis : x y z
#
# Youngs Moduli (GPa) = 98.24080 98.21236 35.12324
#
# Poissons Ratio (x) = -0.00417 0.18379
# Poissons Ratio (y) = -0.00417 0.18389
# Poissons Ratio (z) = 0.51405 0.51420
#
# Static dielectric constant tensor:
#      x y z
#    x 1.544590 0.000000 0.000000 
#    y 0.000000 1.544590 0.000000 
#    z 0.000000 0.000000 1.107530 
# 
# From -- ./inp_files/1584.got.cif
#   From: 2010.05.17/outbox.cif.g08.bks.cpg/sg120_1_cif.got.tgz:1584.got - 2010.05.20 11:28:13.
