data_PCOD9559350
_publ_section_title
;
Structure prediction by ZEFSAII (Michael W. Deem and Ramdas Pophale) SiO2 
 PCOD9559350
Probable space group: I -4 M 2
;
_chemical_formula_sum "Si O2"
_cell_formula_units_Z 96
_cell_length_a 23.836029
_cell_length_b 23.836029
_cell_length_c 9.263118
_cell_angle_alpha 90.000000
_cell_angle_beta 90.000000
_cell_angle_gamma 90.000000
_cell_volume 5262.898650
_symmetry_space_group_name_H-M "I -4 M 2"
_symmetry_group_IT_number 119
_symmetry_cell_setting 'tetragonal'
loop_
_space_group_symop_operation_xyz
x,y,z
y,-x,-z
-x,-y,z
-y,x,-z
y,x,-z
-y,-x,-z
-x,y,z
x,-y,z
1/2+x,1/2+y,1/2+z
1/2+y,1/2-x,1/2-z
1/2-x,1/2-y,1/2+z
1/2-y,1/2+x,1/2-z
1/2+y,1/2+x,1/2-z
1/2-y,1/2-x,1/2-z
1/2-x,1/2+y,1/2+z
1/2+x,1/2-y,1/2+z
loop_
_atom_site_type_symbol
_atom_site_label
_atom_site_fract_x
_atom_site_fract_y
_atom_site_fract_z
Si Si1 0.372449 0.564578 0.622699
Si Si2 0.352489 0.066938 0.163301
Si Si3 0.567780 0.264953 0.187840
Si Si4 0.432297 0.738918 0.855385
Si Si5 0.651287 0.932500 0.822577
Si Si6 0.885441 0.065122 0.640635
O O1 0.393362 0.606639 0.500000
O O2 0.364428 0.500000 0.571905
O O3 0.317540 0.584096 0.712029
O O4 0.421569 0.568077 0.741390
O O5 0.399886 0.100115 0.250000
O O6 0.292788 0.081527 0.233486
O O7 0.360903 0.000000 0.178613
O O8 0.349770 0.079806 0.993170
O O9 0.500000 0.269755 0.178863
O O10 0.588007 0.261666 0.022065
O O11 0.500000 0.744114 0.860039
O O12 0.413718 0.790948 0.756849
O O13 0.420434 0.676342 0.798498
O O14 0.599979 0.900022 0.750000
O O15 0.646329 0.000000 0.805732
O O16 0.898972 0.101029 0.500000
O O17 0.884863 0.000000 0.599105
#
# Coordination Sequence:
#
# PCOD9559350 Si02
#       6
#    16  16  16  16  16  16
#     4  11  23  36  52  79 114 153 192 238 295 349
#     4  10  21  36  58  87 117 151 186 225 276 336
#     4   9  18  35  55  77 108 147 191 230 272 333
#     4   9  18  34  55  79 108 145 190 233 274 330
#     4  10  21  36  58  88 117 148 185 229 280 332
#     4  11  21  34  54  81 112 149 191 237 290 346
#
# _framework density 18.240898999999999
#
# number of rings (size 3 to 8) (size 9 to 14) (size 15 to 20)
#    0.000    2.000    1.667    2.000    2.333    4.333 
#    0.000    1.667    0.000    1.000    0.000    0.000 
#    0.000    0.000    0.000    0.000    0.000    0.000 
#
# Total GULP energy -267563.778974 kJ/mol
# GULP energy per Si atom -5574.245395 kJ/mol
# Density = 1.819938 g / cm^3
# Si number density = 18.240899 Si / 1000 Ang^3
#
#
#
# Elastic Constant Matrix: (Units=GPa)
#
#
# Indices 1 2 3 4 5 6 
#
# 1 65.5267 43.3573 50.7327 0.0000 0.0000 0.0000
# 2 43.3573 65.5270 50.7383 0.0000 0.0000 0.0000
# 3 50.7327 50.7383 112.0856 0.0000 0.0000 0.0000
# 4 0.0000 0.0000 0.0000 31.4338 0.0000 0.0000
# 5 0.0000 0.0000 0.0000 0.0000 31.4349 0.0000
# 6 0.0000 0.0000 0.0000 0.0000 0.0000 2.7587
#
#
#
# Elastic Compliance Matrix: (Units=1/GPa)
#
#
# Indices 1 2 3 4 5 6 
#
# 1 0.030494 -0.014611 -0.007188 0.000000 0.000000 0.000000
# 2 -0.014611 0.030498 -0.007192 0.000000 0.000000 0.000000
# 3 -0.007188 -0.007192 0.015431 0.000000 0.000000 0.000000
# 4 0.000000 0.000000 0.000000 0.031813 0.000000 0.000000
# 5 0.000000 0.000000 0.000000 0.000000 0.031812 0.000000
# 6 0.000000 0.000000 0.000000 0.000000 0.000000 0.362494
#
#
# Mechanical properties :
#
#
# Convention : Reuss Voigt Hill
#
# Bulk Modulus (GPa) = 54.23091 59.19955 56.71523
# Shear Modulus (GPa) = 8.82346 19.67954 14.25150
#
# Velocity S-wave (km/s) = 2.20175 3.28818 2.79820
# Velocity P-wave (km/s) = 6.02150 6.85134 6.44978
#
# Compressibility (1/GPa) = 0.01843967
#
# Stress axis : x y z
#
# Youngs Moduli (GPa) = 32.79315 32.78947 64.80428
#
# Poissons Ratio (x) = 0.47909 0.46584
# Poissons Ratio (y) = 0.47914 0.46608
# Poissons Ratio (z) = 0.23573 0.23583
#
# Static dielectric constant tensor:
#      x y z
#    x 1.628560 0.000000 0.000000 
#    y 0.000000 1.628560 0.000000 
#    z 0.000000 0.000000 1.663060 
# 
# From -- ./inp_files/2706.got.cif
#   From: 2010.05.17/outbox.cif.g08.bks.cpg/sg119_2_cif.got.tgz:2706.got - 2010.05.20 11:21:29.
