data_PCOD9559816
_publ_section_title
;
Structure prediction by ZEFSAII (Michael W. Deem and Ramdas Pophale) SiO2 
 PCOD9559816
Probable space group: I -4 C 2
;
_chemical_formula_sum "Si O2"
_cell_formula_units_Z 120
_cell_length_a 26.281386
_cell_length_b 26.281386
_cell_length_c 9.259085
_cell_angle_alpha 90.000000
_cell_angle_beta 90.000000
_cell_angle_gamma 90.000000
_cell_volume 6395.354175
_symmetry_space_group_name_H-M "I -4 C 2"
_symmetry_group_IT_number 120
_symmetry_cell_setting 'tetragonal'
loop_
_space_group_symop_operation_xyz
x,y,z
y,-x,-z
-x,-y,z
-y,x,-z
y,x,1/2-z
-y,-x,1/2-z
-x,y,1/2+z
x,-y,1/2+z
1/2+x,1/2+y,1/2+z
1/2+y,1/2-x,1/2-z
1/2-x,1/2-y,1/2+z
1/2-y,1/2+x,1/2-z
1/2+y,1/2+x,-z
1/2-y,1/2-x,-z
1/2-x,1/2+y,z
1/2+x,1/2-y,z
loop_
_atom_site_type_symbol
_atom_site_label
_atom_site_fract_x
_atom_site_fract_y
_atom_site_fract_z
Si Si1 0.014929 0.755985 0.284393
Si Si2 0.494545 0.375750 0.323034
Si Si3 0.103572 0.785499 0.073728
Si Si4 0.568414 0.780172 0.577693
Si Si5 0.341689 0.841689 0.000000
Si Si6 0.273141 0.358387 0.729873
Si Si7 0.397898 0.428571 0.444894
Si Si8 0.691020 0.776216 0.232401
O O1 0.001101 0.814783 0.317203
O O2 0.055741 0.762443 0.155794
O O3 0.040110 0.732975 0.428655
O O4 0.970684 0.722601 0.211196
O O5 0.446435 0.393504 0.419926
O O6 0.545757 0.395656 0.397978
O O7 0.476242 0.396893 0.167922
O O8 0.102334 0.846503 0.096152
O O9 0.150217 0.752800 0.135626
O O10 0.104135 0.781112 0.902328
O O11 0.602420 0.830934 0.562771
O O12 0.610826 0.738089 0.624185
O O13 0.333709 0.797725 0.879523
O O14 0.320060 0.320060 0.750000
O O15 0.223426 0.325428 0.684721
O O16 0.734343 0.734343 0.250000
#
# Coordination Sequence:
#
# PCOD9559816 Si02
#       8
#    16  16  16  16   8  16  16  16
#     4  11  22  38  63  83 121 155 202 251 310 369
#     4  10  22  40  53  84 101 148 191 257 306 372
#     4  11  22  37  56  85 111 167 199 254 303 371
#     4  11  22  40  59  89 121 165 200 251 306 370
#     4  10  22  40  58  92 122 167 206 256 300 383
#     4  10  23  36  54  87 124 159 208 248 305 367
#     4  10  23  38  59  75 109 136 205 247 321 364
#     4  10  22  34  57  82 123 159 203 246 303 369
#
# _framework density 18.763622000000002
#
# number of rings (size 3 to 8) (size 9 to 14) (size 15 to 20)
#    0.000    1.600    1.333    3.600   11.200    0.800 
#    0.000    1.333    0.000    0.000    0.000    0.000 
#    0.000    1.600    0.000    0.000    0.000    0.000 
#
# Total GULP energy -334580.125829 kJ/mol
# GULP energy per Si atom -5576.335430 kJ/mol
# Density = 1.872091 g / cm^3
# Si number density = 18.763622 Si / 1000 Ang^3
#
#
#
# Elastic Constant Matrix: (Units=GPa)
#
#
# Indices 1 2 3 4 5 6 
#
# 1 72.9385 55.9509 47.4805 0.0000 0.0000 0.0000
# 2 55.9509 72.9385 47.4805 0.0000 0.0000 0.0000
# 3 47.4805 47.4805 102.8054 0.0000 0.0000 0.0000
# 4 0.0000 0.0000 0.0000 31.1812 0.0000 0.0000
# 5 0.0000 0.0000 0.0000 0.0000 31.1812 0.0000
# 6 0.0000 0.0000 0.0000 0.0000 0.0000 20.2094
#
#
#
# Elastic Compliance Matrix: (Units=1/GPa)
#
#
# Indices 1 2 3 4 5 6 
#
# 1 0.035313 -0.023553 -0.005431 0.000000 0.000000 0.000000
# 2 -0.023553 0.035313 -0.005431 0.000000 0.000000 0.000000
# 3 -0.005431 -0.005431 0.014744 0.000000 0.000000 0.000000
# 4 0.000000 0.000000 0.000000 0.032071 0.000000 0.000000
# 5 0.000000 0.000000 0.000000 0.000000 0.032071 0.000000
# 6 0.000000 0.000000 0.000000 0.000000 0.000000 0.049482
#
#
# Mechanical properties :
#
#
# Convention : Reuss Voigt Hill
#
# Bulk Modulus (GPa) = 60.46369 61.16736 60.81552
# Shear Modulus (GPa) = 18.29230 23.03242 20.66236
#
# Velocity S-wave (km/s) = 3.12570 3.50738 3.32202
# Velocity P-wave (km/s) = 6.73205 7.00514 6.86995
#
# Compressibility (1/GPa) = 0.01653885
#
# Stress axis : x y z
#
# Youngs Moduli (GPa) = 28.31786 28.31786 67.82354
#
# Poissons Ratio (x) = 0.66697 0.36838
# Poissons Ratio (y) = 0.66697 0.36838
# Poissons Ratio (z) = 0.15381 0.15381
#
# Static dielectric constant tensor:
#      x y z
#    x 1.673960 0.000000 0.000000 
#    y 0.000000 1.673960 0.000000 
#    z 0.000000 0.000000 1.755190 
# 
# From -- ./inp_files/1731.got.cif
#   From: 2010.05.17/outbox.cif.g08.bks.cpg/sg120_1_cif.got.tgz:1731.got - 2010.05.20 11:28:13.
