data_PCOD9559894
_publ_section_title
;
Structure prediction by ZEFSAII (Michael W. Deem and Ramdas Pophale) SiO2 
 PCOD9559894
Probable space group: I -4 C 2
;
_chemical_formula_sum "Si O2"
_cell_formula_units_Z 84
_cell_length_a 10.864539
_cell_length_b 10.864539
_cell_length_c 30.588672
_cell_angle_alpha 90.000000
_cell_angle_beta 90.000000
_cell_angle_gamma 90.000000
_cell_volume 3610.632018
_symmetry_space_group_name_H-M "I -4 C 2"
_symmetry_group_IT_number 120
_symmetry_cell_setting 'tetragonal'
loop_
_space_group_symop_operation_xyz
x,y,z
y,-x,-z
-x,-y,z
-y,x,-z
y,x,1/2-z
-y,-x,1/2-z
-x,y,1/2+z
x,-y,1/2+z
1/2+x,1/2+y,1/2+z
1/2+y,1/2-x,1/2-z
1/2-x,1/2-y,1/2+z
1/2-y,1/2+x,1/2-z
1/2+y,1/2+x,-z
1/2-y,1/2-x,-z
1/2-x,1/2+y,z
1/2+x,1/2-y,z
loop_
_atom_site_type_symbol
_atom_site_label
_atom_site_fract_x
_atom_site_fract_y
_atom_site_fract_z
Si Si1 0.913039 0.831913 0.005101
Si Si2 0.368053 0.838763 0.937805
Si Si3 0.646938 0.488912 0.324061
Si Si4 0.000000 0.500000 0.000000
Si Si5 0.742175 0.187103 0.155284
Si Si6 0.529594 0.805701 0.258331
O O1 0.830404 0.780513 0.965648
O O2 0.928229 0.742070 0.046475
O O3 0.039593 0.860485 0.980578
O O4 0.379824 0.809258 0.887919
O O5 0.483434 0.889577 0.965563
O O6 0.500000 0.500000 0.328516
O O7 0.699837 0.355007 0.338697
O O8 0.706740 0.610030 0.347844
O O9 0.693719 0.503022 0.273995
O O10 0.727665 0.099340 0.197498
O O11 0.402913 0.879478 0.265891
#
# Coordination Sequence:
#
# PCOD9559894 Si02
#       6
#    16  16  16   4  16  16
#     4   9  20  40  65  90 131 177 220 286 364 441
#     4  10  23  41  66 101 132 180 238 302 368 453
#     4  11  27  50  74 110 155 206 258 317 393 460
#     4   8  20  44  64 100 134 190 232 306 400 460
#     4  11  26  47  73 111 149 196 256 321 378 462
#     4   9  21  45  75 104 145 197 247 302 378 452
#
# _framework density 23.264627000000001
#
# number of rings (size 3 to 8) (size 9 to 14) (size 15 to 20)
#    0.000    2.286    0.000    0.571    5.333   12.190 
#    3.429    0.000    0.000    0.000    0.000    0.000 
#    0.000    0.000    0.000    0.000    0.000    0.000 
#
# Total GULP energy -233968.262975 kJ/mol
# GULP energy per Si atom -5570.672928 kJ/mol
# Density = 2.321168 g / cm^3
# Si number density = 23.264627 Si / 1000 Ang^3
#
#
#
# Elastic Constant Matrix: (Units=GPa)
#
#
# Indices 1 2 3 4 5 6 
#
# 1 106.0801 47.6990 16.0673 0.0000 0.0000 0.0000
# 2 47.6990 106.0801 16.0673 0.0000 0.0000 0.0000
# 3 16.0673 16.0673 84.5766 0.0000 0.0000 0.0000
# 4 0.0000 0.0000 0.0000 18.0507 0.0000 0.0000
# 5 0.0000 0.0000 0.0000 0.0000 18.0507 0.0000
# 6 0.0000 0.0000 0.0000 0.0000 0.0000 25.8020
#
#
#
# Elastic Compliance Matrix: (Units=1/GPa)
#
#
# Indices 1 2 3 4 5 6 
#
# 1 0.011950 -0.005179 -0.001286 0.000000 0.000000 0.000000
# 2 -0.005179 0.011950 -0.001286 0.000000 0.000000 0.000000
# 3 -0.001286 -0.001286 0.012312 0.000000 0.000000 0.000000
# 4 0.000000 0.000000 0.000000 0.055399 0.000000 0.000000
# 5 0.000000 0.000000 0.000000 0.000000 0.055399 0.000000
# 6 0.000000 0.000000 0.000000 0.000000 0.000000 0.038757
#
#
# Mechanical properties :
#
#
# Convention : Reuss Voigt Hill
#
# Bulk Modulus (GPa) = 48.28598 50.71158 49.49878
# Shear Modulus (GPa) = 24.01831 26.84091 25.42961
#
# Velocity S-wave (km/s) = 3.21658 3.40033 3.30973
# Velocity P-wave (km/s) = 5.88178 6.10421 5.99403
#
# Compressibility (1/GPa) = 0.02070994
#
# Stress axis : x y z
#
# Youngs Moduli (GPa) = 83.68029 83.68028 81.21905
#
# Poissons Ratio (x) = 0.43335 0.10448
# Poissons Ratio (y) = 0.43335 0.10448
# Poissons Ratio (z) = 0.10765 0.10765
#
# Static dielectric constant tensor:
#      x y z
#    x 2.034830 0.000000 0.000000 
#    y 0.000000 2.034830 0.000000 
#    z 0.000000 0.000000 1.821130 
# 
# From -- ./inp_files/6582.got.cif
#   From: 2010.05.17/outbox.cif.g08.bks.cpg/sg120_4_cif.got.tgz:6582.got - 2010.05.20 11:28:13.
