data_PCOD9559002
_publ_section_title
;
Structure prediction by ZEFSAII (Michael W. Deem and Ramdas Pophale) SiO2 
 PCOD9559002
Probable space group: I -4 M 2
;
_chemical_formula_sum "Si O2"
_cell_formula_units_Z 80
_cell_length_a 13.989429
_cell_length_b 13.989429
_cell_length_c 26.367012
_cell_angle_alpha 90.000000
_cell_angle_beta 90.000000
_cell_angle_gamma 90.000000
_cell_volume 5160.132979
_symmetry_space_group_name_H-M "I -4 M 2"
_symmetry_group_IT_number 119
_symmetry_cell_setting 'tetragonal'
loop_
_space_group_symop_operation_xyz
x,y,z
y,-x,-z
-x,-y,z
-y,x,-z
y,x,-z
-y,-x,-z
-x,y,z
x,-y,z
1/2+x,1/2+y,1/2+z
1/2+y,1/2-x,1/2-z
1/2-x,1/2-y,1/2+z
1/2-y,1/2+x,1/2-z
1/2+y,1/2+x,1/2-z
1/2-y,1/2-x,1/2-z
1/2-x,1/2+y,1/2+z
1/2+x,1/2-y,1/2+z
loop_
_atom_site_type_symbol
_atom_site_label
_atom_site_fract_x
_atom_site_fract_y
_atom_site_fract_z
Si Si1 0.886501 0.889093 0.179882
Si Si2 0.888363 0.247876 0.723671
Si Si3 0.259509 0.612127 0.035126
Si Si4 0.110844 0.388102 0.947240
Si Si5 0.236600 0.740486 0.625375
O O1 0.837096 0.880497 0.235167
O O2 0.831918 0.812739 0.144751
O O3 0.000000 0.873550 0.181778
O O4 0.869743 0.000000 0.163403
O O5 0.841131 0.341131 0.750000
O O6 0.825834 0.228427 0.673888
O O7 0.000000 0.262127 0.711848
O O8 0.274578 0.500000 0.044448
O O9 0.249606 0.672628 0.086396
O O10 0.343798 0.656203 0.000000
O O11 0.165591 0.624904 0.000342
O O12 0.120331 0.500000 0.933554
O O13 0.162177 0.324674 0.905286
O O14 0.000000 0.364425 0.951600
#
# Coordination Sequence:
#
# PCOD9559002 Si02
#       5
#    16  16  16  16  16
#     4   9  18  32  48  67  93 123 153 187 231 281
#     4   9  18  31  46  67  94 120 148 185 230 279
#     4   9  19  33  47  67  95 126 159 193 231 276
#     4   9  17  30  48  69  94 120 146 184 234 282
#     4  10  18  30  49  71  92 119 156 195 229 271
#
# _framework density 15.503475
#
# number of rings (size 3 to 8) (size 9 to 14) (size 15 to 20)
#    0.000    2.800    0.000    1.200    0.000    3.600 
#    0.000    0.000    0.000    0.000    0.000    9.800 
#    0.000    0.000    0.000    0.000    0.000    0.000 
#
# Total GULP energy -222862.477530 kJ/mol
# GULP energy per Si atom -5571.561938 kJ/mol
# Density = 1.546819 g / cm^3
# Si number density = 15.503475 Si / 1000 Ang^3
#
#
#
# Elastic Constant Matrix: (Units=GPa)
#
#
# Indices 1 2 3 4 5 6 
#
# 1 106.0279 54.9339 54.4673 0.0000 0.0000 0.0000
# 2 54.9339 106.0288 54.4664 0.0000 0.0000 0.0000
# 3 54.4673 54.4664 85.7934 0.0000 0.0000 0.0000
# 4 0.0000 0.0000 0.0000 15.8961 0.0000 0.0000
# 5 0.0000 0.0000 0.0000 0.0000 15.8961 0.0000
# 6 0.0000 0.0000 0.0000 0.0000 0.0000 20.2483
#
#
#
# Elastic Compliance Matrix: (Units=1/GPa)
#
#
# Indices 1 2 3 4 5 6 
#
# 1 0.015232 -0.004339 -0.006916 0.000000 0.000000 0.000000
# 2 -0.004339 0.015232 -0.006915 0.000000 0.000000 0.000000
# 3 -0.006916 -0.006915 0.020436 0.000000 0.000000 0.000000
# 4 0.000000 0.000000 0.000000 0.062909 0.000000 0.000000
# 5 0.000000 0.000000 0.000000 0.000000 0.062909 0.000000
# 6 0.000000 0.000000 0.000000 0.000000 0.000000 0.049387
#
#
# Mechanical properties :
#
#
# Convention : Reuss Voigt Hill
#
# Bulk Modulus (GPa) = 68.67902 69.50948 69.09425
# Shear Modulus (GPa) = 18.70567 19.34025 19.02296
#
# Velocity S-wave (km/s) = 3.47731 3.53580 3.50667
# Velocity P-wave (km/s) = 7.77930 7.84865 7.81405
#
# Compressibility (1/GPa) = 0.01456049
#
# Stress axis : x y z
#
# Youngs Moduli (GPa) = 65.64964 65.65153 48.93208
#
# Poissons Ratio (x) = 0.28489 0.33839
# Poissons Ratio (y) = 0.28488 0.33837
# Poissons Ratio (z) = 0.45401 0.45399
#
# Static dielectric constant tensor:
#      x y z
#    x 1.502230 0.000000 0.000000 
#    y 0.000000 1.502230 0.000000 
#    z 0.000000 0.000000 1.505320 
# 
# From -- ./inp_files/7591.got.cif
#   From: 2010.05.17/outbox.cif.g08.bks.cpg/sg119_4_cif.got.tgz:7591.got - 2010.05.20 11:21:29.
