data_PCOD9559775
_publ_section_title
;
Structure prediction by ZEFSAII (Michael W. Deem and Ramdas Pophale) SiO2 
 PCOD9559775
Probable space group: I -4 C 2
;
_chemical_formula_sum "Si O2"
_cell_formula_units_Z 112
_cell_length_a 15.262740
_cell_length_b 15.262740
_cell_length_c 25.292082
_cell_angle_alpha 90.000000
_cell_angle_beta 90.000000
_cell_angle_gamma 90.000000
_cell_volume 5891.821670
_symmetry_space_group_name_H-M "I -4 C 2"
_symmetry_group_IT_number 120
_symmetry_cell_setting 'tetragonal'
loop_
_space_group_symop_operation_xyz
x,y,z
y,-x,-z
-x,-y,z
-y,x,-z
y,x,1/2-z
-y,-x,1/2-z
-x,y,1/2+z
x,-y,1/2+z
1/2+x,1/2+y,1/2+z
1/2+y,1/2-x,1/2-z
1/2-x,1/2-y,1/2+z
1/2-y,1/2+x,1/2-z
1/2+y,1/2+x,-z
1/2-y,1/2-x,-z
1/2-x,1/2+y,z
1/2+x,1/2-y,z
loop_
_atom_site_type_symbol
_atom_site_label
_atom_site_fract_x
_atom_site_fract_y
_atom_site_fract_z
Si Si1 0.122373 0.406069 0.199821
Si Si2 0.713876 0.668825 0.810459
Si Si3 0.306363 0.171559 0.099106
Si Si4 0.351540 0.375332 0.436874
Si Si5 0.325351 0.457116 0.549968
Si Si6 0.086266 0.595832 0.182224
Si Si7 0.028496 0.905085 0.637409
O O1 0.157476 0.316802 0.175571
O O2 0.143921 0.505404 0.182714
O O3 0.141625 0.392148 0.262054
O O4 0.018020 0.411361 0.190182
O O5 0.695626 0.695626 0.750000
O O6 0.681121 0.743004 0.850311
O O7 0.659876 0.580236 0.823823
O O8 0.320478 0.263054 0.069798
O O9 0.261317 0.097651 0.063776
O O10 0.395764 0.141829 0.126977
O O11 0.349275 0.433209 0.490073
O O12 0.439225 0.317367 0.441007
O O13 0.362068 0.442019 0.387795
O O14 0.403826 0.426466 0.589201
O O15 0.000000 0.000000 0.660203
#
# Coordination Sequence:
#
# PCOD9559775 Si02
#       7
#    16  16  16  16  16  16  16
#     4   9  18  34  57  72 106 160 199 229 285 353
#     4  11  21  36  53  83 125 157 190 251 306 361
#     4  11  23  34  55  93 118 146 200 254 302 362
#     4  11  20  39  64  84 116 158 202 248 311 377
#     4  10  21  37  61  86 115 154 195 255 306 372
#     4   9  18  35  55  79 105 149 203 242 276 347
#     4   9  20  36  59  86 112 154 205 242 308 376
#
# _framework density 19.009399999999999
#
# number of rings (size 3 to 8) (size 9 to 14) (size 15 to 20)
#    0.000    2.000    2.857    2.143    2.000    0.286 
#    0.000    0.000    0.000    0.000    0.000    4.000 
#    0.000    0.000    0.000    0.000    0.000    0.000 
#
# Total GULP energy -311886.491762 kJ/mol
# GULP energy per Si atom -5569.401639 kJ/mol
# Density = 1.896613 g / cm^3
# Si number density = 19.009400 Si / 1000 Ang^3
#
#
#
# Elastic Constant Matrix: (Units=GPa)
#
#
# Indices 1 2 3 4 5 6 
#
# 1 56.1455 20.5595 16.1814 0.0000 0.0000 0.0000
# 2 20.5595 56.1455 16.1814 0.0000 0.0000 0.0000
# 3 16.1814 16.1814 40.0861 0.0000 0.0000 0.0000
# 4 0.0000 0.0000 0.0000 14.7335 0.0000 0.0000
# 5 0.0000 0.0000 0.0000 0.0000 14.7335 0.0000
# 6 0.0000 0.0000 0.0000 0.0000 0.0000 26.6131
#
#
#
# Elastic Compliance Matrix: (Units=1/GPa)
#
#
# Indices 1 2 3 4 5 6 
#
# 1 0.021907 -0.006194 -0.006343 0.000000 0.000000 0.000000
# 2 -0.006194 0.021907 -0.006343 0.000000 0.000000 0.000000
# 3 -0.006343 -0.006343 0.030067 0.000000 0.000000 0.000000
# 4 0.000000 0.000000 0.000000 0.067873 0.000000 0.000000
# 5 0.000000 0.000000 0.000000 0.000000 0.067873 0.000000
# 6 0.000000 0.000000 0.000000 0.000000 0.000000 0.037576
#
#
# Mechanical properties :
#
#
# Convention : Reuss Voigt Hill
#
# Bulk Modulus (GPa) = 27.68405 28.69131 28.18768
# Shear Modulus (GPa) = 16.83492 17.84633 17.34063
#
# Velocity S-wave (km/s) = 2.97915 3.06733 3.02356
# Velocity P-wave (km/s) = 5.14089 5.26030 5.20093
#
# Compressibility (1/GPa) = 0.03612188
#
# Stress axis : x y z
#
# Youngs Moduli (GPa) = 45.64749 45.64749 33.25891
#
# Poissons Ratio (x) = 0.28274 0.21096
# Poissons Ratio (y) = 0.28274 0.21096
# Poissons Ratio (z) = 0.28954 0.28954
#
# Static dielectric constant tensor:
#      x y z
#    x 1.793270 0.000000 0.000000 
#    y 0.000000 1.793270 0.000000 
#    z 0.000000 0.000000 1.656170 
# 
# From -- ./inp_files/5948.got.cif
#   From: 2010.05.17/outbox.cif.g08.bks.cpg/sg120_3_cif.got.tgz:5948.got - 2010.05.20 11:28:13.
