data_PCOD9559840
_publ_section_title
;
Structure prediction by ZEFSAII (Michael W. Deem and Ramdas Pophale) SiO2 
 PCOD9559840
Probable space group: I -4 C 2
;
_chemical_formula_sum "Si O2"
_cell_formula_units_Z 64
_cell_length_a 19.524320
_cell_length_b 19.524320
_cell_length_c 9.509210
_cell_angle_alpha 90.000000
_cell_angle_beta 90.000000
_cell_angle_gamma 90.000000
_cell_volume 3624.902022
_symmetry_space_group_name_H-M "I -4 C 2"
_symmetry_group_IT_number 120
_symmetry_cell_setting 'tetragonal'
loop_
_space_group_symop_operation_xyz
x,y,z
y,-x,-z
-x,-y,z
-y,x,-z
y,x,1/2-z
-y,-x,1/2-z
-x,y,1/2+z
x,-y,1/2+z
1/2+x,1/2+y,1/2+z
1/2+y,1/2-x,1/2-z
1/2-x,1/2-y,1/2+z
1/2-y,1/2+x,1/2-z
1/2+y,1/2+x,-z
1/2-y,1/2-x,-z
1/2-x,1/2+y,z
1/2+x,1/2-y,z
loop_
_atom_site_type_symbol
_atom_site_label
_atom_site_fract_x
_atom_site_fract_y
_atom_site_fract_z
Si Si1 0.258295 0.856932 0.916620
Si Si2 0.296666 0.503270 0.960522
Si Si3 0.643217 0.242379 0.417724
Si Si4 0.997705 0.890116 0.289719
O O1 0.190096 0.810460 0.935703
O O2 0.271847 0.860203 0.749117
O O3 0.318044 0.818044 0.000000
O O4 0.243954 0.932578 0.973824
O O5 0.256981 0.569241 0.016413
O O6 0.367168 0.499668 0.049737
O O7 0.321538 0.508653 0.800190
O O8 0.682479 0.182479 0.500000
O O9 0.925775 0.925775 0.250000
O O10 0.056209 0.943792 0.250000
#
# Coordination Sequence:
#
# PCOD9559840 Si02
#       4
#    16  16  16  16
#     4  10  22  39  59  85 116 154 202 249 294 348
#     4  12  22  37  58  83 118 158 198 244 292 350
#     4  10  22  39  59  85 116 154 202 249 294 348
#     4  11  22  34  52  82 120 159 194 230 282 353
#
# _framework density 17.655650000000001
#
# number of rings (size 3 to 8) (size 9 to 14) (size 15 to 20)
#    0.000    1.250    2.500    4.500    3.500    2.000 
#    0.000    0.000    0.000    0.750    0.000    3.500 
#    0.000    0.000    0.000    0.000    0.000    0.000 
#
# Total GULP energy -178830.144254 kJ/mol
# GULP energy per Si atom -5588.442008 kJ/mol
# Density = 1.761547 g / cm^3
# Si number density = 17.655650 Si / 1000 Ang^3
#
#
#
# Elastic Constant Matrix: (Units=GPa)
#
#
# Indices 1 2 3 4 5 6 
#
# 1 119.0635 61.0998 41.9472 0.0000 0.0000 0.0000
# 2 61.0998 119.0635 41.9475 0.0000 0.0000 0.0000
# 3 41.9472 41.9475 72.7850 0.0000 0.0000 0.0000
# 4 0.0000 0.0000 0.0000 28.9329 0.0000 0.0000
# 5 0.0000 0.0000 0.0000 0.0000 28.9334 0.0000
# 6 0.0000 0.0000 0.0000 0.0000 0.0000 27.9868
#
#
#
# Elastic Compliance Matrix: (Units=1/GPa)
#
#
# Indices 1 2 3 4 5 6 
#
# 1 0.012419 -0.004833 -0.004372 0.000000 0.000000 0.000000
# 2 -0.004833 0.012419 -0.004372 0.000000 0.000000 0.000000
# 3 -0.004372 -0.004372 0.018779 0.000000 0.000000 0.000000
# 4 0.000000 0.000000 0.000000 0.034563 0.000000 0.000000
# 5 0.000000 0.000000 0.000000 0.000000 0.034562 0.000000
# 6 0.000000 0.000000 0.000000 0.000000 0.000000 0.035731
#
#
# Mechanical properties :
#
#
# Convention : Reuss Voigt Hill
#
# Bulk Modulus (GPa) = 60.74324 66.76675 63.75499
# Shear Modulus (GPa) = 27.60668 28.23178 27.91923
#
# Velocity S-wave (km/s) = 3.95855 4.00312 3.98090
# Velocity P-wave (km/s) = 7.44128 7.69836 7.57091
#
# Compressibility (1/GPa) = 0.01646274
#
# Stress axis : x y z
#
# Youngs Moduli (GPa) = 80.51977 80.51950 53.25191
#
# Poissons Ratio (x) = 0.38914 0.23283
# Poissons Ratio (y) = 0.38914 0.23283
# Poissons Ratio (z) = 0.35205 0.35205
#
# Static dielectric constant tensor:
#      x y z
#    x 1.587300 0.000000 0.000000 
#    y 0.000000 1.587300 0.000000 
#    z 0.000000 0.000000 1.590560 
# 
# From -- ./inp_files/1241.got.cif
#   From: 2010.05.17/outbox.cif.g08.bks.cpg/sg120_1_cif.got.tgz:1241.got - 2010.05.20 11:28:13.
