data_PCOD9559796
_publ_section_title
;
Structure prediction by ZEFSAII (Michael W. Deem and Ramdas Pophale) SiO2 
 PCOD9559796
Probable space group: I -4 C 2
;
_chemical_formula_sum "Si O2"
_cell_formula_units_Z 88
_cell_length_a 16.195535
_cell_length_b 16.195535
_cell_length_c 14.223814
_cell_angle_alpha 90.000000
_cell_angle_beta 90.000000
_cell_angle_gamma 90.000000
_cell_volume 3730.840327
_symmetry_space_group_name_H-M "I -4 C 2"
_symmetry_group_IT_number 120
_symmetry_cell_setting 'tetragonal'
loop_
_space_group_symop_operation_xyz
x,y,z
y,-x,-z
-x,-y,z
-y,x,-z
y,x,1/2-z
-y,-x,1/2-z
-x,y,1/2+z
x,-y,1/2+z
1/2+x,1/2+y,1/2+z
1/2+y,1/2-x,1/2-z
1/2-x,1/2-y,1/2+z
1/2-y,1/2+x,1/2-z
1/2+y,1/2+x,-z
1/2-y,1/2-x,-z
1/2-x,1/2+y,z
1/2+x,1/2-y,z
loop_
_atom_site_type_symbol
_atom_site_label
_atom_site_fract_x
_atom_site_fract_y
_atom_site_fract_z
Si Si1 0.216695 0.907224 0.915965
Si Si2 0.155414 0.459917 0.061049
Si Si3 0.352902 0.852902 0.500000
Si Si4 0.718075 0.225431 0.337622
Si Si5 0.912058 0.043151 0.646256
Si Si6 0.523586 0.241356 0.279950
O O1 0.235371 0.814919 0.881474
O O2 0.118092 0.909668 0.926591
O O3 0.245471 0.971289 0.832867
O O4 0.265817 0.921893 0.009884
O O5 0.170050 0.464583 0.174724
O O6 0.081922 0.418079 0.000000
O O7 0.154466 0.556035 0.038336
O O8 0.283630 0.839608 0.420568
O O9 0.779695 0.220306 0.250000
O O10 0.621758 0.228345 0.303389
O O11 0.915672 0.084329 0.750000
O O12 0.824805 0.998410 0.662320
O O13 0.000000 0.000000 0.634084
#
# Coordination Sequence:
#
# PCOD9559796 Si02
#       6
#    16  16   8  16  16  16
#     4   9  18  36  58  85 117 156 199 245 304 375
#     4  11  23  40  58  84 120 162 210 259 303 360
#     4  10  21  40  62  82 120 153 202 260 302 356
#     4   8  16  35  63  81 107 150 191 238 309 361
#     4   8  14  31  60  87 121 159 190 246 317 375
#     4   8  17  37  56  81 119 157 195 244 304 369
#
# _framework density 23.587178000000002
#
# number of rings (size 3 to 8) (size 9 to 14) (size 15 to 20)
#    0.000    3.091    0.000    2.455    1.273    0.000 
#   19.636    0.000    4.000    0.000    0.000    0.000 
#    0.000    0.000    0.000    0.000    0.000    0.000 
#
# Total GULP energy -244955.664171 kJ/mol
# GULP energy per Si atom -5567.174186 kJ/mol
# Density = 2.353349 g / cm^3
# Si number density = 23.587178 Si / 1000 Ang^3
#
#
#
# Elastic Constant Matrix: (Units=GPa)
#
#
# Indices 1 2 3 4 5 6 
#
# 1 63.7780 -12.4360 18.1465 0.0000 0.0000 0.0000
# 2 -12.4360 63.7734 18.1469 0.0000 0.0000 0.0000
# 3 18.1465 18.1469 52.5388 0.0000 0.0000 0.0000
# 4 0.0000 0.0000 0.0000 20.0301 0.0000 0.0000
# 5 0.0000 0.0000 0.0000 0.0000 20.0293 0.0000
# 6 0.0000 0.0000 0.0000 0.0000 0.0000 32.5709
#
#
#
# Elastic Compliance Matrix: (Units=1/GPa)
#
#
# Indices 1 2 3 4 5 6 
#
# 1 0.019445 0.006325 -0.008901 0.000000 0.000000 0.000000
# 2 0.006325 0.019447 -0.008901 0.000000 0.000000 0.000000
# 3 -0.008901 -0.008901 0.025182 0.000000 0.000000 0.000000
# 4 0.000000 0.000000 0.000000 0.049925 0.000000 0.000000
# 5 0.000000 0.000000 0.000000 0.000000 0.049927 0.000000
# 6 0.000000 0.000000 0.000000 0.000000 0.000000 0.030702
#
#
# Mechanical properties :
#
#
# Convention : Reuss Voigt Hill
#
# Bulk Modulus (GPa) = 24.31958 25.31168 24.81563
# Shear Modulus (GPa) = 21.61793 24.94157 23.27975
#
# Velocity S-wave (km/s) = 3.03068 3.25533 3.14501
# Velocity P-wave (km/s) = 4.75180 4.98838 4.87153
#
# Compressibility (1/GPa) = 0.04111914
#
# Stress axis : x y z
#
# Youngs Moduli (GPa) = 51.42693 51.42253 39.71044
#
# Poissons Ratio (x) = -0.32522 0.35345
# Poissons Ratio (y) = -0.32525 0.35348
# Poissons Ratio (z) = 0.45773 0.45773
#
# Static dielectric constant tensor:
#      x y z
#    x 2.058220 0.000000 0.000000 
#    y 0.000000 2.058200 0.000000 
#    z 0.000000 0.000000 1.993280 
# 
# From -- ./inp_files/3542.got.cif
#   From: 2010.05.17/outbox.cif.g08.bks.cpg/sg120_2_cif.got.tgz:3542.got - 2010.05.20 11:28:13.
