data_PCOD9559387
_publ_section_title
;
Structure prediction by ZEFSAII (Michael W. Deem and Ramdas Pophale) SiO2 
 PCOD9559387
Probable space group: I -4 M 2
;
_chemical_formula_sum "Si O2"
_cell_formula_units_Z 112
_cell_length_a 13.954806
_cell_length_b 13.954806
_cell_length_c 26.608026
_cell_angle_alpha 90.000000
_cell_angle_beta 90.000000
_cell_angle_gamma 90.000000
_cell_volume 5181.556795
_symmetry_space_group_name_H-M "I -4 M 2"
_symmetry_group_IT_number 119
_symmetry_cell_setting 'tetragonal'
loop_
_space_group_symop_operation_xyz
x,y,z
y,-x,-z
-x,-y,z
-y,x,-z
y,x,-z
-y,-x,-z
-x,y,z
x,-y,z
1/2+x,1/2+y,1/2+z
1/2+y,1/2-x,1/2-z
1/2-x,1/2-y,1/2+z
1/2-y,1/2+x,1/2-z
1/2+y,1/2+x,1/2-z
1/2-y,1/2-x,1/2-z
1/2-x,1/2+y,1/2+z
1/2+x,1/2-y,1/2+z
loop_
_atom_site_type_symbol
_atom_site_label
_atom_site_fract_x
_atom_site_fract_y
_atom_site_fract_z
Si Si1 0.288968 0.392750 0.064850
Si Si2 0.884602 0.888543 0.056050
Si Si3 0.895414 0.109545 0.753859
Si Si4 0.799046 0.804092 0.156333
Si Si5 0.711487 0.889141 0.402067
Si Si6 0.384088 0.105176 0.999029
Si Si7 0.396585 0.783019 0.820686
O O1 0.317708 0.500000 0.047768
O O2 0.369524 0.311494 0.068214
O O3 0.252540 0.402190 0.121975
O O4 0.196776 0.356602 0.033951
O O5 0.846970 0.829671 0.103337
O O6 0.000000 0.887079 0.056048
O O7 0.855217 0.000000 0.062000
O O8 0.854939 0.854939 0.000000
O O9 0.880353 0.178365 0.800964
O O10 0.809622 0.116555 0.714447
O O11 0.000000 0.124732 0.730003
O O12 0.893260 0.000000 0.773420
O O13 0.686626 0.794869 0.143029
O O14 0.838663 0.703629 0.179261
O O15 0.629173 0.865394 0.442818
O O16 0.705251 0.000000 0.387611
O O17 0.500000 0.101883 0.993661
O O18 0.346249 0.000000 0.984467
O O19 0.500000 0.828776 0.808269
#
# Coordination Sequence:
#
# PCOD9559387 Si02
#       7
#    16  16  16  16  16  16  16
#     4   9  18  35  60  86 111 146 198 254 300 345
#     4   9  19  37  62  94 129 159 192 243 304 359
#     4  10  21  39  65  92 114 142 190 254 317 368
#     4  11  21  35  59  89 118 155 198 244 296 354
#     4  10  22  37  53  82 124 164 201 240 289 353
#     4   9  18  34  55  79 113 157 198 234 278 343
#     4   9  20  37  54  77 111 148 190 241 292 343
#
# _framework density 21.615124000000002
#
# number of rings (size 3 to 8) (size 9 to 14) (size 15 to 20)
#    0.000    2.429    0.000    2.143    0.000    7.143 
#    0.000   11.429    0.000    6.857    0.000    6.000 
#    0.000    1.143    0.000    0.000    0.000    0.000 
#
# Total GULP energy -312522.990270 kJ/mol
# GULP energy per Si atom -5580.767683 kJ/mol
# Density = 2.156593 g / cm^3
# Si number density = 21.615124 Si / 1000 Ang^3
#
#
#
# Elastic Constant Matrix: (Units=GPa)
#
#
# Indices 1 2 3 4 5 6 
#
# 1 74.0816 7.3296 11.7724 0.0000 0.0000 0.0000
# 2 7.3296 74.0816 11.7724 0.0000 0.0000 0.0000
# 3 11.7724 11.7724 29.9129 0.0000 0.0000 0.0000
# 4 0.0000 0.0000 0.0000 25.9252 0.0000 0.0000
# 5 0.0000 0.0000 0.0000 0.0000 25.9252 0.0000
# 6 0.0000 0.0000 0.0000 0.0000 0.0000 26.6435
#
#
#
# Elastic Compliance Matrix: (Units=1/GPa)
#
#
# Indices 1 2 3 4 5 6 
#
# 1 0.014421 -0.000560 -0.005455 0.000000 0.000000 0.000000
# 2 -0.000560 0.014421 -0.005455 0.000000 0.000000 0.000000
# 3 -0.005455 -0.005455 0.037724 0.000000 0.000000 0.000000
# 4 0.000000 0.000000 0.000000 0.038573 0.000000 0.000000
# 5 0.000000 0.000000 0.000000 0.000000 0.038573 0.000000
# 6 0.000000 0.000000 0.000000 0.000000 0.000000 0.037533
#
#
# Mechanical properties :
#
#
# Convention : Reuss Voigt Hill
#
# Bulk Modulus (GPa) = 22.92220 26.64722 24.78471
# Shear Modulus (GPa) = 22.85968 25.51223 24.18595
#
# Velocity S-wave (km/s) = 3.25557 3.43927 3.34868
# Velocity P-wave (km/s) = 4.97588 5.30342 5.14226
#
# Compressibility (1/GPa) = 0.04362583
#
# Stress axis : x y z
#
# Youngs Moduli (GPa) = 69.34383 69.34383 26.50818
#
# Poissons Ratio (x) = 0.03883 0.14460
# Poissons Ratio (y) = 0.03883 0.14460
# Poissons Ratio (z) = 0.37828 0.37828
#
# Static dielectric constant tensor:
#      x y z
#    x 1.856940 0.000000 0.000000 
#    y 0.000000 1.856940 0.000000 
#    z 0.000000 0.000000 1.756310 
# 
# From -- ./inp_files/8809.got.cif
#   From: 2010.05.17/outbox.cif.g08.bks.cpg/sg119_5_cif.got.tgz:8809.got - 2010.05.20 11:21:29.
