data_PCOD9559323
_publ_section_title
;
Structure prediction by ZEFSAII (Michael W. Deem and Ramdas Pophale) SiO2 
 PCOD9559323
Probable space group: I -4 M 2
;
_chemical_formula_sum "Si O2"
_cell_formula_units_Z 112
_cell_length_a 15.293487
_cell_length_b 15.293487
_cell_length_c 26.566876
_cell_angle_alpha 90.000000
_cell_angle_beta 90.000000
_cell_angle_gamma 90.000000
_cell_volume 6213.746410
_symmetry_space_group_name_H-M "I -4 M 2"
_symmetry_group_IT_number 119
_symmetry_cell_setting 'tetragonal'
loop_
_space_group_symop_operation_xyz
x,y,z
y,-x,-z
-x,-y,z
-y,x,-z
y,x,-z
-y,-x,-z
-x,y,z
x,-y,z
1/2+x,1/2+y,1/2+z
1/2+y,1/2-x,1/2-z
1/2-x,1/2-y,1/2+z
1/2-y,1/2+x,1/2-z
1/2+y,1/2+x,1/2-z
1/2-y,1/2-x,1/2-z
1/2-x,1/2+y,1/2+z
1/2+x,1/2-y,1/2+z
loop_
_atom_site_type_symbol
_atom_site_label
_atom_site_fract_x
_atom_site_fract_y
_atom_site_fract_z
Si Si1 0.897685 0.402708 0.378707
Si Si2 0.894098 0.399354 0.009885
Si Si3 0.602055 0.399851 0.741573
Si Si4 0.894867 0.218818 0.961727
Si Si5 0.848870 0.768985 0.849710
Si Si6 0.336672 0.763427 0.802109
Si Si7 0.597527 0.896985 0.196269
O O1 0.860125 0.500000 0.366970
O O2 0.866455 0.370618 0.433529
O O3 0.889922 0.333917 0.334063
O O4 0.000000 0.413935 0.387790
O O5 0.863026 0.500000 0.000348
O O6 0.000000 0.403979 0.009343
O O7 0.869293 0.320540 0.972796
O O8 0.500000 0.389690 0.726914
O O9 0.615582 0.500000 0.758553
O O10 0.665783 0.383479 0.693885
O O11 0.622599 0.328543 0.784788
O O12 0.869097 0.195763 0.904652
O O13 0.000000 0.211614 0.967827
O O14 0.843829 0.156172 0.000000
O O15 0.748196 0.752613 0.836730
O O16 0.888247 0.671918 0.844674
O O17 0.307988 0.807988 0.750000
O O18 0.500000 0.861527 0.185440
O O19 0.636107 0.863894 0.250000
O O20 0.588503 0.000000 0.205287
#
# Coordination Sequence:
#
# PCOD9559323 Si02
#       7
#    16  16  16  16  16  16  16
#     4   9  17  31  52  75 100 129 158 196 252 312
#     4   8  16  33  55  77 102 134 172 216 268 321
#     4  10  21  37  55  74 103 145 186 220 256 309
#     4  11  23  37  54  77 107 142 182 227 270 318
#     4  11  22  35  53  76 103 138 179 225 271 316
#     4  10  21  33  49  75 103 131 168 215 261 308
#     4   9  17  30  50  76 105 135 166 205 260 324
#
# _framework density 18.024553000000001
#
# number of rings (size 3 to 8) (size 9 to 14) (size 15 to 20)
#    0.000    2.286    0.000    5.143    0.000    5.857 
#    0.000    2.143    0.000    0.000    0.000    0.000 
#    0.000    0.286    0.000    0.714    0.000    0.000 
#
# Total GULP energy -311800.772779 kJ/mol
# GULP energy per Si atom -5567.870942 kJ/mol
# Density = 1.798353 g / cm^3
# Si number density = 18.024553 Si / 1000 Ang^3
#
#
#
# Elastic Constant Matrix: (Units=GPa)
#
#
# Indices 1 2 3 4 5 6 
#
# 1 69.7638 19.5925 22.4810 0.0000 0.0000 0.0000
# 2 19.5925 69.7638 22.4800 0.0000 0.0000 0.0000
# 3 22.4810 22.4800 65.9060 0.0000 0.0000 0.0000
# 4 0.0000 0.0000 0.0000 21.9644 0.0000 0.0000
# 5 0.0000 0.0000 0.0000 0.0000 21.9654 0.0000
# 6 0.0000 0.0000 0.0000 0.0000 0.0000 24.4183
#
#
#
# Elastic Compliance Matrix: (Units=1/GPa)
#
#
# Indices 1 2 3 4 5 6 
#
# 1 0.016721 -0.003211 -0.004608 0.000000 0.000000 0.000000
# 2 -0.003211 0.016721 -0.004608 0.000000 0.000000 0.000000
# 3 -0.004608 -0.004608 0.018317 0.000000 0.000000 0.000000
# 4 0.000000 0.000000 0.000000 0.045528 0.000000 0.000000
# 5 0.000000 0.000000 0.000000 0.000000 0.045526 0.000000
# 6 0.000000 0.000000 0.000000 0.000000 0.000000 0.040953
#
#
# Mechanical properties :
#
#
# Convention : Reuss Voigt Hill
#
# Bulk Modulus (GPa) = 37.16959 37.17118 37.17039
# Shear Modulus (GPa) = 22.97919 23.06163 23.02041
#
# Velocity S-wave (km/s) = 3.57442 3.58083 3.57763
# Velocity P-wave (km/s) = 6.14018 6.14522 6.14270
#
# Compressibility (1/GPa) = 0.02690371
#
# Stress axis : x y z
#
# Youngs Moduli (GPa) = 59.80551 59.80614 54.59456
#
# Poissons Ratio (x) = 0.19203 0.25159
# Poissons Ratio (y) = 0.19203 0.25157
# Poissons Ratio (z) = 0.27561 0.27559
#
# Static dielectric constant tensor:
#      x y z
#    x 1.266710 0.000000 0.000000 
#    y 0.000000 1.266890 0.000000 
#    z 0.000000 0.000000 1.661010 
# 
# From -- ./inp_files/8851.got.cif
#   From: 2010.05.17/outbox.cif.g08.bks.cpg/sg119_5_cif.got.tgz:8851.got - 2010.05.20 11:21:29.
