data_PCOD9559171
_publ_section_title
;
Structure prediction by ZEFSAII (Michael W. Deem and Ramdas Pophale) SiO2 
 PCOD9559171
Probable space group: I -4 M 2
;
_chemical_formula_sum "Si O2"
_cell_formula_units_Z 112
_cell_length_a 15.049496
_cell_length_b 15.049496
_cell_length_c 23.521609
_cell_angle_alpha 90.000000
_cell_angle_beta 90.000000
_cell_angle_gamma 90.000000
_cell_volume 5327.346416
_symmetry_space_group_name_H-M "I -4 M 2"
_symmetry_group_IT_number 119
_symmetry_cell_setting 'tetragonal'
loop_
_space_group_symop_operation_xyz
x,y,z
y,-x,-z
-x,-y,z
-y,x,-z
y,x,-z
-y,-x,-z
-x,y,z
x,-y,z
1/2+x,1/2+y,1/2+z
1/2+y,1/2-x,1/2-z
1/2-x,1/2-y,1/2+z
1/2-y,1/2+x,1/2-z
1/2+y,1/2+x,1/2-z
1/2-y,1/2-x,1/2-z
1/2-x,1/2+y,1/2+z
1/2+x,1/2-y,1/2+z
loop_
_atom_site_type_symbol
_atom_site_label
_atom_site_fract_x
_atom_site_fract_y
_atom_site_fract_z
Si Si1 0.653501 0.601040 0.169735
Si Si2 0.394601 0.399087 0.291074
Si Si3 0.635029 0.099798 0.683330
Si Si4 0.401029 0.654542 0.414740
Si Si5 0.643969 0.095676 0.040018
Si Si6 0.344074 0.707016 0.060740
Si Si7 0.870045 0.713271 0.077932
O O1 0.618380 0.500000 0.169831
O O2 0.632621 0.641910 0.231204
O O3 0.760127 0.596417 0.170027
O O4 0.621042 0.652659 0.114497
O O5 0.500000 0.407740 0.288995
O O6 0.356869 0.500000 0.296264
O O7 0.376761 0.343509 0.347493
O O8 0.620762 0.120762 0.750000
O O9 0.602148 0.174070 0.638832
O O10 0.600378 0.000000 0.672653
O O11 0.500000 0.614494 0.421193
O O12 0.405458 0.753840 0.438315
O O13 0.314670 0.603180 0.437343
O O14 0.613058 0.194630 0.057363
O O15 0.604708 0.000000 0.058177
O O16 0.648720 0.098297 0.971763
O O17 0.237533 0.717096 0.072207
O O18 0.344131 0.655870 0.000000
#
# Coordination Sequence:
#
# PCOD9559171 Si02
#       7
#    16  16  16  16  16  16  16
#     4   9  17  30  48  68  92 126 164 197 240 296
#     4   9  17  28  42  63  94 128 158 191 233 288
#     4  10  20  32  47  68  94 125 164 209 250 288
#     4   9  16  27  44  67  95 125 157 191 229 281
#     4   9  17  29  46  67  91 124 162 196 237 289
#     4   8  15  29  46  65  92 121 156 203 244 285
#     4   9  17  30  46  65  93 128 162 197 240 289
#
# _framework density 21.023599999999998
#
# number of rings (size 3 to 8) (size 9 to 14) (size 15 to 20)
#    0.000    3.000    0.000    2.143    0.000    1.286 
#    0.000    1.429    0.000    1.714    0.000    0.000 
#    0.000    1.143    0.000    3.857    0.000   14.571 
#
# Total GULP energy -311818.294245 kJ/mol
# GULP energy per Si atom -5568.183826 kJ/mol
# Density = 2.097575 g / cm^3
# Si number density = 21.023600 Si / 1000 Ang^3
#
#
#
# Elastic Constant Matrix: (Units=GPa)
#
#
# Indices 1 2 3 4 5 6 
#
# 1 48.1659 7.0177 19.1711 0.0000 0.0000 0.0000
# 2 7.0177 48.1662 19.1711 0.0000 0.0000 0.0000
# 3 19.1711 19.1711 121.0129 0.0000 0.0000 0.0000
# 4 0.0000 0.0000 0.0000 -20.6579 0.0000 0.0000
# 5 0.0000 0.0000 0.0000 0.0000 -20.6575 0.0000
# 6 0.0000 0.0000 0.0000 0.0000 0.0000 -6.9921
#
#
#
# Elastic Compliance Matrix: (Units=1/GPa)
#
#
# Indices 1 2 3 4 5 6 
#
# 1 0.022333 -0.001970 -0.003226 0.000000 0.000000 0.000000
# 2 -0.001970 0.022332 -0.003226 0.000000 0.000000 0.000000
# 3 -0.003226 -0.003226 0.009286 0.000000 0.000000 0.000000
# 4 0.000000 0.000000 0.000000 -0.048408 0.000000 0.000000
# 5 0.000000 0.000000 0.000000 0.000000 -0.048409 0.000000
# 6 0.000000 0.000000 0.000000 0.000000 0.000000 -0.143018
#
#
# Mechanical properties :
#
#
# Convention : Reuss Voigt Hill
#
# Bulk Modulus (GPa) = 26.94877 34.22943 30.58910
# Shear Modulus (GPa) = -31.91389 1.80418 -15.05486
#
# Velocity S-wave (km/s) = -3.90038 0.92738 -2.67889
# Velocity P-wave (km/s) = 2.72724 4.17893 2.23894
#
# Compressibility (1/GPa) = 0.03710744
#
# Stress axis : x y z
#
# Youngs Moduli (GPa) = 44.77771 44.77794 107.69256
#
# Poissons Ratio (x) = 0.08820 0.34741
# Poissons Ratio (y) = 0.08820 0.34740
# Poissons Ratio (z) = 0.14445 0.14445
#
# Static dielectric constant tensor:
#      x y z
#    x 1.807410 0.000000 0.000000 
#    y 0.000000 1.807410 0.000000 
#    z 0.000000 0.000000 1.773300 
# 
# From -- ./inp_files/8035.got.cif
#   From: 2010.05.17/outbox.cif.g08.bks.cpg/sg119_5_cif.got.tgz:8035.got - 2010.05.20 11:21:29.
