data_PCOD9559851
_publ_section_title
;
Structure prediction by ZEFSAII (Michael W. Deem and Ramdas Pophale) SiO2 
 PCOD9559851
Probable space group: I -4 C 2
;
_chemical_formula_sum "Si O2"
_cell_formula_units_Z 72
_cell_length_a 15.410580
_cell_length_b 15.410580
_cell_length_c 14.258722
_cell_angle_alpha 90.000000
_cell_angle_beta 90.000000
_cell_angle_gamma 90.000000
_cell_volume 3386.246510
_symmetry_space_group_name_H-M "I -4 C 2"
_symmetry_group_IT_number 120
_symmetry_cell_setting 'tetragonal'
loop_
_space_group_symop_operation_xyz
x,y,z
y,-x,-z
-x,-y,z
-y,x,-z
y,x,1/2-z
-y,-x,1/2-z
-x,y,1/2+z
x,-y,1/2+z
1/2+x,1/2+y,1/2+z
1/2+y,1/2-x,1/2-z
1/2-x,1/2-y,1/2+z
1/2-y,1/2+x,1/2-z
1/2+y,1/2+x,-z
1/2-y,1/2-x,-z
1/2-x,1/2+y,z
1/2+x,1/2-y,z
loop_
_atom_site_type_symbol
_atom_site_label
_atom_site_fract_x
_atom_site_fract_y
_atom_site_fract_z
Si Si1 0.753257 0.885415 0.846588
Si Si2 0.940707 0.580320 0.387722
Si Si3 0.714881 0.714881 0.750000
Si Si4 0.763850 0.973903 0.202486
Si Si5 0.054885 0.869245 0.983888
O O1 0.656303 0.923854 0.849150
O O2 0.742350 0.782640 0.830875
O O3 0.791139 0.940455 0.759314
O O4 0.803530 0.903935 0.941734
O O5 0.926868 0.573133 0.500000
O O6 0.980448 0.670236 0.348975
O O7 0.000000 0.500000 0.359456
O O8 0.733365 0.613177 0.766612
O O9 0.829576 0.952500 0.118823
O O10 0.108135 0.958024 0.982643
#
# Coordination Sequence:
#
# PCOD9559851 Si02
#       5
#    16  16   8  16  16
#     4  11  23  42  65  97 133 173 223 281 339 417
#     4  10  22  40  62  94 130 171 215 267 344 420
#     4  10  24  40  66  94 132 176 222 276 338 406
#     4  11  23  42  65  97 133 173 223 281 339 417
#     4  11  24  43  66  91 127 176 227 285 339 400
#
# _framework density 21.262481000000001
#
# number of rings (size 3 to 8) (size 9 to 14) (size 15 to 20)
#    0.000    1.333    2.222    2.667    6.222    0.000 
#    0.000    4.444    0.000    0.000    0.000    0.000 
#    0.000    0.000    0.000    0.000    0.000    0.000 
#
# Total GULP energy -201171.777482 kJ/mol
# GULP energy per Si atom -5588.104930 kJ/mol
# Density = 2.121409 g / cm^3
# Si number density = 21.262481 Si / 1000 Ang^3
#
#
#
# Elastic Constant Matrix: (Units=GPa)
#
#
# Indices 1 2 3 4 5 6 
#
# 1 80.6146 31.6881 14.4521 0.0000 0.0000 0.0000
# 2 31.6881 80.6146 14.4520 0.0000 0.0000 0.0000
# 3 14.4521 14.4520 84.3628 0.0000 0.0000 0.0000
# 4 0.0000 0.0000 0.0000 7.4179 0.0000 0.0000
# 5 0.0000 0.0000 0.0000 0.0000 7.4179 0.0000
# 6 0.0000 0.0000 0.0000 0.0000 0.0000 26.4718
#
#
#
# Elastic Compliance Matrix: (Units=1/GPa)
#
#
# Indices 1 2 3 4 5 6 
#
# 1 0.014877 -0.005562 -0.001596 0.000000 0.000000 0.000000
# 2 -0.005562 0.014877 -0.001596 0.000000 0.000000 0.000000
# 3 -0.001596 -0.001596 0.012400 0.000000 0.000000 0.000000
# 4 0.000000 0.000000 0.000000 0.134809 0.000000 0.000000
# 5 0.000000 0.000000 0.000000 0.000000 0.134808 0.000000
# 6 0.000000 0.000000 0.000000 0.000000 0.000000 0.037776
#
#
# Mechanical properties :
#
#
# Convention : Reuss Voigt Hill
#
# Bulk Modulus (GPa) = 40.57181 40.75292 40.66236
# Shear Modulus (GPa) = 13.32373 20.59486 16.95929
#
# Velocity S-wave (km/s) = 2.50598 3.11561 2.82727
# Velocity P-wave (km/s) = 5.24367 5.67018 5.46109
#
# Compressibility (1/GPa) = 0.02464766
#
# Stress axis : x y z
#
# Youngs Moduli (GPa) = 67.21783 67.21780 80.64314
#
# Poissons Ratio (x) = 0.37385 0.12869
# Poissons Ratio (y) = 0.37385 0.12869
# Poissons Ratio (z) = 0.10726 0.10726
#
# Static dielectric constant tensor:
#      x y z
#    x 1.768380 0.000000 0.000000 
#    y 0.000000 1.768380 0.000000 
#    z 0.000000 0.000000 1.789960 
# 
# From -- ./inp_files/4280.got.cif
#   From: 2010.05.17/outbox.cif.g08.bks.cpg/sg120_3_cif.got.tgz:4280.got - 2010.05.20 11:28:13.
