data_PCOD9559868
_publ_section_title
;
Structure prediction by ZEFSAII (Michael W. Deem and Ramdas Pophale) SiO2 
 PCOD9559868
Probable space group: I -4 C 2
;
_chemical_formula_sum "Si O2"
_cell_formula_units_Z 84
_cell_length_a 9.901307
_cell_length_b 9.901307
_cell_length_c 33.064660
_cell_angle_alpha 90.000000
_cell_angle_beta 90.000000
_cell_angle_gamma 90.000000
_cell_volume 3241.523050
_symmetry_space_group_name_H-M "I -4 C 2"
_symmetry_group_IT_number 120
_symmetry_cell_setting 'tetragonal'
loop_
_space_group_symop_operation_xyz
x,y,z
y,-x,-z
-x,-y,z
-y,x,-z
y,x,1/2-z
-y,-x,1/2-z
-x,y,1/2+z
x,-y,1/2+z
1/2+x,1/2+y,1/2+z
1/2+y,1/2-x,1/2-z
1/2-x,1/2-y,1/2+z
1/2-y,1/2+x,1/2-z
1/2+y,1/2+x,-z
1/2-y,1/2-x,-z
1/2-x,1/2+y,z
1/2+x,1/2-y,z
loop_
_atom_site_type_symbol
_atom_site_label
_atom_site_fract_x
_atom_site_fract_y
_atom_site_fract_z
Si Si1 0.803259 0.991567 0.824866
Si Si2 0.654082 0.154082 0.500000
Si Si3 0.414160 0.734214 0.949311
Si Si4 0.000000 0.500000 0.750000
Si Si5 0.928779 0.629442 0.871730
Si Si6 0.732243 0.115109 0.695436
Si Si7 0.000000 0.000000 0.898710
O O1 0.666287 0.067681 0.837489
O O2 0.875571 0.107245 0.798229
O O3 0.878874 0.974209 0.867343
O O4 0.759091 0.847370 0.807308
O O5 0.666884 0.289821 0.527456
O O6 0.513573 0.173179 0.475919
O O7 0.354547 0.803861 0.909037
O O8 0.513060 0.624258 0.929036
O O9 0.033504 0.638000 0.773893
O O10 0.000000 0.500000 0.890677
O O11 0.041620 0.716303 0.848245
#
# Coordination Sequence:
#
# PCOD9559868 Si02
#       7
#    16   8  16   4  16  16   8
#     4  11  23  43  72 109 138 180 258 304 361 446
#     4  12  30  44  66 102 150 186 240 300 392 452
#     4  12  26  45  66 101 141 188 238 305 375 442
#     4  12  24  48  72 104 164 194 228 308 384 456
#     4  10  22  42  71  97 132 183 248 294 361 434
#     4  11  24  45  71 110 139 197 235 303 372 447
#     4  12  24  41  78 101 138 184 250 324 356 429
#
# _framework density 25.913747000000001
#
# number of rings (size 3 to 8) (size 9 to 14) (size 15 to 20)
#    0.000    0.762    4.762    3.429    8.000    0.762 
#    0.000    0.000    0.000    1.143    0.000    0.000 
#    0.000    0.000    0.000    0.000    0.000    0.000 
#
# Total GULP energy -234879.876463 kJ/mol
# GULP energy per Si atom -5592.378011 kJ/mol
# Density = 2.585477 g / cm^3
# Si number density = 25.913747 Si / 1000 Ang^3
#
#
#
# Elastic Constant Matrix: (Units=GPa)
#
#
# Indices 1 2 3 4 5 6 
#
# 1 103.5782 19.0012 26.4762 0.0000 0.0000 0.0000
# 2 19.0012 103.5782 26.4762 0.0000 0.0000 0.0000
# 3 26.4762 26.4762 85.5864 0.0000 0.0000 0.0000
# 4 0.0000 0.0000 0.0000 33.3633 0.0000 0.0000
# 5 0.0000 0.0000 0.0000 0.0000 33.3633 0.0000
# 6 0.0000 0.0000 0.0000 0.0000 0.0000 38.4183
#
#
#
# Elastic Compliance Matrix: (Units=1/GPa)
#
#
# Indices 1 2 3 4 5 6 
#
# 1 0.010620 -0.001204 -0.002913 0.000000 0.000000 0.000000
# 2 -0.001204 0.010620 -0.002913 0.000000 0.000000 0.000000
# 3 -0.002913 -0.002913 0.013486 0.000000 0.000000 0.000000
# 4 0.000000 0.000000 0.000000 0.029973 0.000000 0.000000
# 5 0.000000 0.000000 0.000000 0.000000 0.029973 0.000000
# 6 0.000000 0.000000 0.000000 0.000000 0.000000 0.026029
#
#
# Mechanical properties :
#
#
# Convention : Reuss Voigt Hill
#
# Bulk Modulus (GPa) = 48.38581 48.51665 48.45123
# Shear Modulus (GPa) = 35.29836 35.74826 35.52331
#
# Velocity S-wave (km/s) = 3.69473 3.71820 3.70649
# Velocity P-wave (km/s) = 6.07567 6.09888 6.08729
#
# Compressibility (1/GPa) = 0.02066722
#
# Stress axis : x y z
#
# Youngs Moduli (GPa) = 94.16252 94.16252 74.14909
#
# Poissons Ratio (x) = 0.11334 0.21599
# Poissons Ratio (y) = 0.11334 0.21599
# Poissons Ratio (z) = 0.27429 0.27429
#
# Static dielectric constant tensor:
#      x y z
#    x 2.134050 0.000000 0.000000 
#    y 0.000000 2.134050 0.000000 
#    z 0.000000 0.000000 2.025170 
# 
# From -- ./inp_files/6629.got.cif
#   From: 2010.05.17/outbox.cif.g08.bks.cpg/sg120_4_cif.got.tgz:6629.got - 2010.05.20 11:28:13.
