data_PCOD9559183
_publ_section_title
;
Structure prediction by ZEFSAII (Michael W. Deem and Ramdas Pophale) SiO2 
 PCOD9559183
Probable space group: I -4 M 2
;
_chemical_formula_sum "Si O2"
_cell_formula_units_Z 112
_cell_length_a 15.082495
_cell_length_b 15.082495
_cell_length_c 26.257022
_cell_angle_alpha 90.000000
_cell_angle_beta 90.000000
_cell_angle_gamma 90.000000
_cell_volume 5972.990831
_symmetry_space_group_name_H-M "I -4 M 2"
_symmetry_group_IT_number 119
_symmetry_cell_setting 'tetragonal'
loop_
_space_group_symop_operation_xyz
x,y,z
y,-x,-z
-x,-y,z
-y,x,-z
y,x,-z
-y,-x,-z
-x,y,z
x,-y,z
1/2+x,1/2+y,1/2+z
1/2+y,1/2-x,1/2-z
1/2-x,1/2-y,1/2+z
1/2-y,1/2+x,1/2-z
1/2+y,1/2+x,1/2-z
1/2-y,1/2-x,1/2-z
1/2-x,1/2+y,1/2+z
1/2+x,1/2-y,1/2+z
loop_
_atom_site_type_symbol
_atom_site_label
_atom_site_fract_x
_atom_site_fract_y
_atom_site_fract_z
Si Si1 0.598853 0.602396 0.263147
Si Si2 0.353796 0.224753 0.798008
Si Si3 0.397858 0.601816 0.938073
Si Si4 0.097794 0.605129 0.695354
Si Si5 0.773041 0.267577 0.441862
Si Si6 0.336917 0.733770 0.348790
Si Si7 0.400410 0.102106 0.891381
O O1 0.500000 0.621384 0.241525
O O2 0.600742 0.500000 0.279402
O O3 0.680650 0.612750 0.223451
O O4 0.612457 0.664419 0.312737
O O5 0.339747 0.160254 0.750000
O O6 0.257279 0.242728 0.820802
O O7 0.399534 0.166759 0.841981
O O8 0.500000 0.621609 0.921618
O O9 0.376628 0.500000 0.922022
O O10 0.328180 0.678820 0.923739
O O11 0.398682 0.601319 0.000000
O O12 0.089812 0.500000 0.702572
O O13 0.136216 0.636216 0.750000
O O14 0.169795 0.620504 0.653015
O O15 0.000000 0.642505 0.685621
O O16 0.747905 0.252096 0.500000
O O17 0.688413 0.287315 0.406392
O O18 0.837417 0.350515 0.431988
O O19 0.500000 0.100042 0.911340
O O20 0.374032 0.000000 0.879031
#
# Coordination Sequence:
#
# PCOD9559183 Si02
#       7
#    16  16  16  16  16  16  16
#     4  10  20  35  57  82 110 144 177 217 274 337
#     4   9  19  33  53  83 114 144 178 221 272 334
#     4   8  14  27  49  74  99 131 173 223 282 345
#     4   9  17  30  49  72 100 133 164 199 250 316
#     4  10  21  36  53  75 104 143 190 241 288 327
#     4  10  20  32  50  75 103 138 178 220 268 321
#     4  10  21  37  57  80 109 147 187 228 277 333
#
# _framework density 18.751075
#
# number of rings (size 3 to 8) (size 9 to 14) (size 15 to 20)
#    0.000    2.571    0.000    3.429    0.000    8.571 
#    0.000    4.286    0.000    9.429    0.000    1.000 
#    0.000    0.000    0.000    0.000    0.000    0.000 
#
# Total GULP energy -311754.524211 kJ/mol
# GULP energy per Si atom -5567.045075 kJ/mol
# Density = 1.870840 g / cm^3
# Si number density = 18.751075 Si / 1000 Ang^3
#
#
#
# Elastic Constant Matrix: (Units=GPa)
#
#
# Indices 1 2 3 4 5 6 
#
# 1 84.1710 38.1865 30.4049 0.0000 0.0000 0.0000
# 2 38.1865 84.1722 30.4052 0.0000 0.0000 0.0000
# 3 30.4049 30.4052 73.4511 0.0000 0.0000 0.0000
# 4 0.0000 0.0000 0.0000 9.1979 0.0000 0.0000
# 5 0.0000 0.0000 0.0000 0.0000 9.1966 0.0000
# 6 0.0000 0.0000 0.0000 0.0000 0.0000 27.2303
#
#
#
# Elastic Compliance Matrix: (Units=1/GPa)
#
#
# Indices 1 2 3 4 5 6 
#
# 1 0.016018 -0.005728 -0.004259 0.000000 0.000000 0.000000
# 2 -0.005728 0.016018 -0.004259 0.000000 0.000000 0.000000
# 3 -0.004259 -0.004259 0.017141 0.000000 0.000000 0.000000
# 4 0.000000 0.000000 0.000000 0.108720 0.000000 0.000000
# 5 0.000000 0.000000 0.000000 0.000000 0.108736 0.000000
# 6 0.000000 0.000000 0.000000 0.000000 0.000000 0.036724
#
#
# Mechanical properties :
#
#
# Convention : Reuss Voigt Hill
#
# Bulk Modulus (GPa) = 48.35003 48.86528 48.60766
# Shear Modulus (GPa) = 14.76039 18.64481 16.70260
#
# Velocity S-wave (km/s) = 2.80871 3.15673 2.98779
# Velocity P-wave (km/s) = 6.02990 6.27719 6.15479
#
# Compressibility (1/GPa) = 0.02068251
#
# Stress axis : x y z
#
# Youngs Moduli (GPa) = 62.42987 62.43074 58.34028
#
# Poissons Ratio (x) = 0.35762 0.24849
# Poissons Ratio (y) = 0.35762 0.24849
# Poissons Ratio (z) = 0.26591 0.26591
#
# Static dielectric constant tensor:
#      x y z
#    x 1.710570 0.000000 0.000000 
#    y 0.000000 1.710570 0.000000 
#    z 0.000000 0.000000 1.682300 
# 
# From -- ./inp_files/9652.got.cif
#   From: 2010.05.17/outbox.cif.g08.bks.cpg/sg119_5_cif.got.tgz:9652.got - 2010.05.20 11:21:29.
