data_PCOD9559817
_publ_section_title
;
Structure prediction by ZEFSAII (Michael W. Deem and Ramdas Pophale) SiO2 
 PCOD9559817
Probable space group: I -4 C 2
;
_chemical_formula_sum "Si O2"
_cell_formula_units_Z 84
_cell_length_a 19.971007
_cell_length_b 19.971007
_cell_length_c 10.622975
_cell_angle_alpha 90.000000
_cell_angle_beta 90.000000
_cell_angle_gamma 90.000000
_cell_volume 4236.879253
_symmetry_space_group_name_H-M "I -4 C 2"
_symmetry_group_IT_number 120
_symmetry_cell_setting 'tetragonal'
loop_
_space_group_symop_operation_xyz
x,y,z
y,-x,-z
-x,-y,z
-y,x,-z
y,x,1/2-z
-y,-x,1/2-z
-x,y,1/2+z
x,-y,1/2+z
1/2+x,1/2+y,1/2+z
1/2+y,1/2-x,1/2-z
1/2-x,1/2-y,1/2+z
1/2-y,1/2+x,1/2-z
1/2+y,1/2+x,-z
1/2-y,1/2-x,-z
1/2-x,1/2+y,z
1/2+x,1/2-y,z
loop_
_atom_site_type_symbol
_atom_site_label
_atom_site_fract_x
_atom_site_fract_y
_atom_site_fract_z
Si Si1 0.194471 0.965284 0.742787
Si Si2 0.500000 0.500000 0.000000
Si Si3 0.664879 0.028164 0.618908
Si Si4 0.405872 0.389219 0.566465
Si Si5 0.430893 0.154947 0.150056
Si Si6 0.115872 0.801972 0.163035
O O1 0.261694 0.950393 0.666620
O O2 0.182436 0.926123 0.873950
O O3 0.135204 0.937121 0.659045
O O4 0.188281 0.044301 0.766755
O O5 0.524000 0.429334 0.056700
O O6 0.613775 0.089139 0.638464
O O7 0.661173 0.017007 0.467934
O O8 0.650838 0.967569 0.715135
O O9 0.356432 0.381610 0.448808
O O10 0.387182 0.222883 0.133648
O O11 0.177725 0.822276 0.250000
#
# Coordination Sequence:
#
# PCOD9559817 Si02
#       6
#    16   4  16  16  16  16
#     4  10  22  35  59  80 126 165 210 262 309 370
#     4  12  20  30  52  84 134 160 222 256 292 354
#     4  10  22  45  67  98 124 163 206 257 338 382
#     4  11  21  35  52  88 121 171 214 263 298 357
#     4  10  23  43  71  93 130 161 204 269 316 404
#     4  11  22  37  57  87 124 168 213 257 314 370
#
# _framework density 19.825913
#
# number of rings (size 3 to 8) (size 9 to 14) (size 15 to 20)
#    0.000    1.524    3.810    1.143    0.000    3.429 
#    3.429    1.905    0.000    0.000    0.000    0.000 
#    0.000    0.000    0.000    0.000    0.000    0.000 
#
# Total GULP energy -233834.845070 kJ/mol
# GULP energy per Si atom -5567.496311 kJ/mol
# Density = 1.978079 g / cm^3
# Si number density = 19.825913 Si / 1000 Ang^3
#
#
#
# Elastic Constant Matrix: (Units=GPa)
#
#
# Indices 1 2 3 4 5 6 
#
# 1 21.7153 13.4301 6.2374 0.0000 0.0000 0.0000
# 2 13.4301 21.7166 6.2375 0.0000 0.0000 0.0000
# 3 6.2374 6.2375 69.0934 0.0000 0.0000 0.0000
# 4 0.0000 0.0000 0.0000 28.0127 0.0000 0.0000
# 5 0.0000 0.0000 0.0000 0.0000 28.0126 0.0000
# 6 0.0000 0.0000 0.0000 0.0000 0.0000 17.7083
#
#
#
# Elastic Compliance Matrix: (Units=1/GPa)
#
#
# Indices 1 2 3 4 5 6 
#
# 1 0.075043 -0.045646 -0.002654 0.000000 0.000000 0.000000
# 2 -0.045646 0.075039 -0.002654 0.000000 0.000000 0.000000
# 3 -0.002654 -0.002654 0.014952 0.000000 0.000000 0.000000
# 4 0.000000 0.000000 0.000000 0.035698 0.000000 0.000000
# 5 0.000000 0.000000 0.000000 0.000000 0.035698 0.000000
# 6 0.000000 0.000000 0.000000 0.000000 0.000000 0.056471
#
#
# Mechanical properties :
#
#
# Convention : Reuss Voigt Hill
#
# Bulk Modulus (GPa) = 15.84108 18.25948 17.05028
# Shear Modulus (GPa) = 12.02354 20.52140 16.27247
#
# Velocity S-wave (km/s) = 2.46530 3.22076 2.86801
# Velocity P-wave (km/s) = 4.01386 4.80218 4.42561
#
# Compressibility (1/GPa) = 0.06312702
#
# Stress axis : x y z
#
# Youngs Moduli (GPa) = 13.32567 13.32643 66.87941
#
# Poissons Ratio (x) = 0.60830 0.17748
# Poissons Ratio (y) = 0.60827 0.17747
# Poissons Ratio (z) = 0.03536 0.03536
#
# Static dielectric constant tensor:
#      x y z
#    x 1.705940 0.000000 0.000000 
#    y 0.000000 1.705940 0.000000 
#    z 0.000000 0.000000 1.840810 
# 
# From -- ./inp_files/2663.got.cif
#   From: 2010.05.17/outbox.cif.g08.bks.cpg/sg120_2_cif.got.tgz:2663.got - 2010.05.20 11:28:13.
