data_PCOD9559017
_publ_section_title
;
Structure prediction by ZEFSAII (Michael W. Deem and Ramdas Pophale) SiO2 
 PCOD9559017
Probable space group: I -4 M 2
;
_chemical_formula_sum "Si O2"
_cell_formula_units_Z 112
_cell_length_a 15.228240
_cell_length_b 15.228240
_cell_length_c 27.978572
_cell_angle_alpha 90.000000
_cell_angle_beta 90.000000
_cell_angle_gamma 90.000000
_cell_volume 6488.211080
_symmetry_space_group_name_H-M "I -4 M 2"
_symmetry_group_IT_number 119
_symmetry_cell_setting 'tetragonal'
loop_
_space_group_symop_operation_xyz
x,y,z
y,-x,-z
-x,-y,z
-y,x,-z
y,x,-z
-y,-x,-z
-x,y,z
x,-y,z
1/2+x,1/2+y,1/2+z
1/2+y,1/2-x,1/2-z
1/2-x,1/2-y,1/2+z
1/2-y,1/2+x,1/2-z
1/2+y,1/2+x,1/2-z
1/2-y,1/2-x,1/2-z
1/2-x,1/2+y,1/2+z
1/2+x,1/2-y,1/2+z
loop_
_atom_site_type_symbol
_atom_site_label
_atom_site_fract_x
_atom_site_fract_y
_atom_site_fract_z
Si Si1 0.160269 0.100013 0.412650
Si Si2 0.604126 0.598926 0.805862
Si Si3 0.102585 0.747912 0.122538
Si Si4 0.170460 0.691426 0.524336
Si Si5 0.599283 0.338388 0.448313
Si Si6 0.904262 0.290565 0.426850
Si Si7 0.243993 0.396791 0.265389
O O1 0.156230 0.107440 0.355404
O O2 0.255386 0.117651 0.435704
O O3 0.105019 0.184417 0.430658
O O4 0.131022 0.000000 0.424847
O O5 0.500000 0.607510 0.817904
O O6 0.616973 0.500000 0.787151
O O7 0.626147 0.672825 0.767645
O O8 0.125011 0.831323 0.089705
O O9 0.168222 0.671188 0.105754
O O10 0.115442 0.764758 0.178644
O O11 0.000000 0.723701 0.114956
O O12 0.240460 0.759541 0.500000
O O13 0.234053 0.617171 0.544794
O O14 0.109662 0.668797 0.479543
O O15 0.618433 0.381568 0.500000
O O16 0.500000 0.355766 0.433945
O O17 0.000000 0.311061 0.407452
O O18 0.224700 0.500000 0.258158
O O19 0.162884 0.337117 0.250000
#
# Coordination Sequence:
#
# PCOD9559017 Si02
#       7
#    16  16  16  16  16  16  16
#     4  10  18  31  54  80 108 143 182 220 266 320
#     4   9  18  33  53  78 106 138 179 225 271 321
#     4  11  23  39  56  82 112 143 187 232 275 329
#     4   9  18  34  51  77 110 144 174 221 266 317
#     4  11  21  37  61  83 110 144 184 232 282 329
#     4  11  21  35  54  78 114 152 183 222 273 322
#     4  10  22  37  56  79 110 146 181 224 273 325
#
# _framework density 17.262077000000001
#
# number of rings (size 3 to 8) (size 9 to 14) (size 15 to 20)
#    0.000    1.857    4.286    2.143    0.000    4.571 
#    0.000    3.571    0.000    5.571    0.000    0.000 
#    0.000    0.286    0.000    0.143    0.000    0.000 
#
# Total GULP energy -312199.414290 kJ/mol
# GULP energy per Si atom -5574.989541 kJ/mol
# Density = 1.722279 g / cm^3
# Si number density = 17.262077 Si / 1000 Ang^3
#
#
#
# Elastic Constant Matrix: (Units=GPa)
#
#
# Indices 1 2 3 4 5 6 
#
# 1 64.0884 30.7998 24.3300 0.0000 0.0000 0.0000
# 2 30.7998 64.0857 24.3307 0.0000 0.0000 0.0000
# 3 24.3300 24.3307 73.9598 0.0000 0.0000 0.0000
# 4 0.0000 0.0000 0.0000 4.6489 0.0000 0.0000
# 5 0.0000 0.0000 0.0000 0.0000 4.6493 0.0000
# 6 0.0000 0.0000 0.0000 0.0000 0.0000 13.4504
#
#
#
# Elastic Compliance Matrix: (Units=1/GPa)
#
#
# Indices 1 2 3 4 5 6 
#
# 1 0.021359 -0.008682 -0.004170 0.000000 0.000000 0.000000
# 2 -0.008682 0.021360 -0.004171 0.000000 0.000000 0.000000
# 3 -0.004170 -0.004171 0.016265 0.000000 0.000000 0.000000
# 4 0.000000 0.000000 0.000000 0.215104 0.000000 0.000000
# 5 0.000000 0.000000 0.000000 0.000000 0.215085 0.000000
# 6 0.000000 0.000000 0.000000 0.000000 0.000000 0.074347
#
#
# Mechanical properties :
#
#
# Convention : Reuss Voigt Hill
#
# Bulk Modulus (GPa) = 40.09953 40.11722 40.10837
# Shear Modulus (GPa) = 8.25248 12.72795 10.49022
#
# Velocity S-wave (km/s) = 2.18885 2.71834 2.46784
# Velocity P-wave (km/s) = 5.44687 5.75700 5.60408
#
# Compressibility (1/GPa) = 0.02493795
#
# Stress axis : x y z
#
# Youngs Moduli (GPa) = 46.81870 46.81601 61.48242
#
# Poissons Ratio (x) = 0.40645 0.25639
# Poissons Ratio (y) = 0.40648 0.25644
# Poissons Ratio (z) = 0.19524 0.19526
#
# Static dielectric constant tensor:
#      x y z
#    x 1.602540 0.000000 0.000000 
#    y 0.000000 1.602540 0.000000 
#    z 0.000000 0.000000 1.585640 
# 
# From -- ./inp_files/9623.got.cif
#   From: 2010.05.17/outbox.cif.g08.bks.cpg/sg119_5_cif.got.tgz:9623.got - 2010.05.20 11:21:29.
