data_PCOD9559081
_publ_section_title
;
Structure prediction by ZEFSAII (Michael W. Deem and Ramdas Pophale) SiO2 
 PCOD9559081
Probable space group: I -4 M 2
;
_chemical_formula_sum "Si O2"
_cell_formula_units_Z 112
_cell_length_a 15.456386
_cell_length_b 15.456386
_cell_length_c 24.442677
_cell_angle_alpha 90.000000
_cell_angle_beta 90.000000
_cell_angle_gamma 90.000000
_cell_volume 5839.352313
_symmetry_space_group_name_H-M "I -4 M 2"
_symmetry_group_IT_number 119
_symmetry_cell_setting 'tetragonal'
loop_
_space_group_symop_operation_xyz
x,y,z
y,-x,-z
-x,-y,z
-y,x,-z
y,x,-z
-y,-x,-z
-x,y,z
x,-y,z
1/2+x,1/2+y,1/2+z
1/2+y,1/2-x,1/2-z
1/2-x,1/2-y,1/2+z
1/2-y,1/2+x,1/2-z
1/2+y,1/2+x,1/2-z
1/2-y,1/2-x,1/2-z
1/2-x,1/2+y,1/2+z
1/2+x,1/2-y,1/2+z
loop_
_atom_site_type_symbol
_atom_site_label
_atom_site_fract_x
_atom_site_fract_y
_atom_site_fract_z
Si Si1 0.230275 0.593185 0.768421
Si Si2 0.722246 0.400683 0.465491
Si Si3 0.404135 0.668961 0.746026
Si Si4 0.902555 0.233406 0.371777
Si Si5 0.901193 0.401431 0.974899
Si Si6 0.764281 0.902394 0.398045
Si Si7 0.400073 0.206229 0.646514
O O1 0.192683 0.500000 0.753819
O O2 0.170749 0.670749 0.750000
O O3 0.324463 0.604373 0.741650
O O4 0.241370 0.597896 0.833765
O O5 0.664977 0.335024 0.500000
O O6 0.696181 0.500000 0.476662
O O7 0.823240 0.392780 0.482520
O O8 0.721312 0.385767 0.400447
O O9 0.500000 0.634441 0.732977
O O10 0.404521 0.697892 0.809358
O O11 0.388489 0.749624 0.705529
O O12 0.835864 0.172461 0.405049
O O13 0.866790 0.330010 0.365170
O O14 0.000000 0.230304 0.393839
O O15 0.892826 0.500000 0.996800
O O16 0.823955 0.388937 0.931634
O O17 0.000000 0.395250 0.952245
O O18 0.797017 0.000000 0.410967
O O19 0.500000 0.177202 0.641617
#
# Coordination Sequence:
#
# PCOD9559081 Si02
#       7
#    16  16  16  16  16  16  16
#     4  10  20  32  48  72 103 137 170 206 248 297
#     4  10  21  36  54  75 100 132 169 212 259 303
#     4   9  18  34  54  74 100 135 173 212 253 300
#     4  10  19  31  51  77 106 141 173 201 241 298
#     4   9  18  34  56  78  99 128 168 212 258 306
#     4   9  18  33  52  74 101 132 168 210 251 295
#     4  10  20  34  52  74 102 134 169 213 259 300
#
# _framework density 19.180209000000001
#
# number of rings (size 3 to 8) (size 9 to 14) (size 15 to 20)
#    0.000    2.429    0.000    3.000    0.000    2.286 
#    0.000    7.857    0.000    5.143    0.000    0.000 
#    0.000    3.429    0.000    0.000    0.000    0.000 
#
# Total GULP energy -312175.300657 kJ/mol
# GULP energy per Si atom -5574.558940 kJ/mol
# Density = 1.913655 g / cm^3
# Si number density = 19.180209 Si / 1000 Ang^3
#
#
#
# Elastic Constant Matrix: (Units=GPa)
#
#
# Indices 1 2 3 4 5 6 
#
# 1 64.9749 32.3570 14.3522 0.0000 0.0000 0.0000
# 2 32.3570 64.9734 14.3529 0.0000 0.0000 0.0000
# 3 14.3522 14.3529 24.3963 0.0000 0.0000 0.0000
# 4 0.0000 0.0000 0.0000 15.7802 0.0000 0.0000
# 5 0.0000 0.0000 0.0000 0.0000 15.7799 0.0000
# 6 0.0000 0.0000 0.0000 0.0000 0.0000 14.3347
#
#
#
# Elastic Compliance Matrix: (Units=1/GPa)
#
#
# Indices 1 2 3 4 5 6 
#
# 1 0.021544 -0.009114 -0.007313 0.000000 0.000000 0.000000
# 2 -0.009114 0.021545 -0.007314 0.000000 0.000000 0.000000
# 3 -0.007313 -0.007314 0.049595 0.000000 0.000000 0.000000
# 4 0.000000 0.000000 0.000000 0.063371 0.000000 0.000000
# 5 0.000000 0.000000 0.000000 0.000000 0.063372 0.000000
# 6 0.000000 0.000000 0.000000 0.000000 0.000000 0.069761
#
#
# Mechanical properties :
#
#
# Convention : Reuss Voigt Hill
#
# Bulk Modulus (GPa) = 22.12207 30.71875 26.42041
# Shear Modulus (GPa) = 14.21517 15.39776 14.80647
#
# Velocity S-wave (km/s) = 2.72534 2.83644 2.78144
# Velocity P-wave (km/s) = 4.63272 5.17473 4.91121
#
# Compressibility (1/GPa) = 0.04520373
#
# Stress axis : x y z
#
# Youngs Moduli (GPa) = 46.41558 46.41370 20.16341
#
# Poissons Ratio (x) = 0.42301 0.14745
# Poissons Ratio (y) = 0.42303 0.14747
# Poissons Ratio (z) = 0.33942 0.33947
#
# Static dielectric constant tensor:
#      x y z
#    x 1.671710 0.000000 0.000000 
#    y 0.000000 1.671710 0.000000 
#    z 0.000000 0.000000 1.666760 
# 
# From -- ./inp_files/8800.got.cif
#   From: 2010.05.17/outbox.cif.g08.bks.cpg/sg119_5_cif.got.tgz:8800.got - 2010.05.20 11:21:29.
