data_PCOD9559107
_publ_section_title
;
Structure prediction by ZEFSAII (Michael W. Deem and Ramdas Pophale) SiO2 
 PCOD9559107
Probable space group: I -4 M 2
;
_chemical_formula_sum "Si O2"
_cell_formula_units_Z 112
_cell_length_a 15.200669
_cell_length_b 15.200669
_cell_length_c 23.296938
_cell_angle_alpha 90.000000
_cell_angle_beta 90.000000
_cell_angle_gamma 90.000000
_cell_volume 5382.998370
_symmetry_space_group_name_H-M "I -4 M 2"
_symmetry_group_IT_number 119
_symmetry_cell_setting 'tetragonal'
loop_
_space_group_symop_operation_xyz
x,y,z
y,-x,-z
-x,-y,z
-y,x,-z
y,x,-z
-y,-x,-z
-x,y,z
x,-y,z
1/2+x,1/2+y,1/2+z
1/2+y,1/2-x,1/2-z
1/2-x,1/2-y,1/2+z
1/2-y,1/2+x,1/2-z
1/2+y,1/2+x,1/2-z
1/2-y,1/2-x,1/2-z
1/2-x,1/2+y,1/2+z
1/2+x,1/2-y,1/2+z
loop_
_atom_site_type_symbol
_atom_site_label
_atom_site_fract_x
_atom_site_fract_y
_atom_site_fract_z
Si Si1 0.333199 0.899802 0.139879
Si Si2 0.402639 0.292719 0.146695
Si Si3 0.300028 0.398655 0.052588
Si Si4 0.906498 0.769857 0.978051
Si Si5 0.099987 0.710766 0.205254
Si Si6 0.369153 0.901204 0.921382
Si Si7 0.164307 0.902320 0.219463
O O1 0.391680 0.813096 0.146382
O O2 0.282880 0.886042 0.079653
O O3 0.259765 0.897918 0.189501
O O4 0.371671 0.000000 0.139154
O O5 0.500000 0.313841 0.123974
O O6 0.333326 0.345258 0.108356
O O7 0.396367 0.323860 0.212242
O O8 0.333178 0.500000 0.049447
O O9 0.193744 0.406498 0.058483
O O10 0.339789 0.339789 0.000000
O O11 0.000000 0.814556 0.967120
O O12 0.836563 0.836563 0.000000
O O13 0.912692 0.704100 0.030622
O O14 0.168840 0.668840 0.250000
O O15 0.111868 0.667955 0.142731
O O16 0.112887 0.815689 0.200138
O O17 0.000000 0.692365 0.224983
O O18 0.411617 0.000000 0.920286
O O19 0.127534 0.000000 0.205629
#
# Coordination Sequence:
#
# PCOD9559107 Si02
#       7
#    16  16  16  16  16  16  16
#     4  10  20  36  60  87 117 156 201 252 312 377
#     4  11  23  38  59  87 121 164 211 259 312 370
#     4  12  26  44  67  92 123 164 208 258 313 371
#     4  10  19  32  53  80 111 148 188 234 291 356
#     4  11  23  39  61  89 124 166 211 262 320 382
#     4  10  22  40  64  93 122 157 204 255 311 376
#     4  10  21  37  59  88 122 163 211 260 315 382
#
# _framework density 20.806248
#
# number of rings (size 3 to 8) (size 9 to 14) (size 15 to 20)
#    0.000    1.429    0.000    6.429    0.000    4.429 
#    0.000    2.857    0.000   12.000    0.000    0.000 
#    0.000    0.000    0.000    0.000    0.000    0.000 
#
# Total GULP energy -312188.466680 kJ/mol
# GULP energy per Si atom -5574.794048 kJ/mol
# Density = 2.075889 g / cm^3
# Si number density = 20.806248 Si / 1000 Ang^3
#
#
#
# Elastic Constant Matrix: (Units=GPa)
#
#
# Indices 1 2 3 4 5 6 
#
# 1 93.2948 40.8866 12.6876 0.0000 0.0000 0.0000
# 2 40.8866 93.2948 12.6876 0.0000 0.0000 0.0000
# 3 12.6876 12.6876 81.4312 0.0000 0.0000 0.0000
# 4 0.0000 0.0000 0.0000 -60.8376 0.0000 0.0000
# 5 0.0000 0.0000 0.0000 0.0000 -60.8376 0.0000
# 6 0.0000 0.0000 0.0000 0.0000 0.0000 20.8327
#
#
#
# Elastic Compliance Matrix: (Units=1/GPa)
#
#
# Indices 1 2 3 4 5 6 
#
# 1 0.013380 -0.005701 -0.001196 0.000000 0.000000 0.000000
# 2 -0.005701 0.013380 -0.001196 0.000000 0.000000 0.000000
# 3 -0.001196 -0.001196 0.012653 0.000000 0.000000 0.000000
# 4 0.000000 0.000000 0.000000 -0.016437 0.000000 0.000000
# 5 0.000000 0.000000 0.000000 0.000000 -0.016437 0.000000
# 6 0.000000 0.000000 0.000000 0.000000 0.000000 0.048001
#
#
# Mechanical properties :
#
#
# Convention : Reuss Voigt Hill
#
# Bulk Modulus (GPa) = 43.05680 44.50494 43.78087
# Shear Modulus (GPa) = 63.71894 -6.71791 28.50051
#
# Velocity S-wave (km/s) = 5.53998 -1.79883 3.70510
# Velocity P-wave (km/s) = 7.85245 4.13790 6.27627
#
# Compressibility (1/GPa) = 0.02322514
#
# Stress axis : x y z
#
# Youngs Moduli (GPa) = 74.73887 74.73887 79.03179
#
# Poissons Ratio (x) = 0.42609 0.09456
# Poissons Ratio (y) = 0.42609 0.09456
# Poissons Ratio (z) = 0.08942 0.08942
#
# Static dielectric constant tensor:
#      x y z
#    x 1.767180 0.000000 0.000000 
#    y 0.000000 1.767180 0.000000 
#    z 0.000000 0.000000 1.693830 
# 
# From -- ./inp_files/8813.got.cif
#   From: 2010.05.17/outbox.cif.g08.bks.cpg/sg119_5_cif.got.tgz:8813.got - 2010.05.20 11:21:29.
