data_PCOD9559072
_publ_section_title
;
Structure prediction by ZEFSAII (Michael W. Deem and Ramdas Pophale) SiO2 
 PCOD9559072
Probable space group: I -4 M 2
;
_chemical_formula_sum "Si O2"
_cell_formula_units_Z 128
_cell_length_a 23.785580
_cell_length_b 23.785580
_cell_length_c 11.831825
_cell_angle_alpha 90.000000
_cell_angle_beta 90.000000
_cell_angle_gamma 90.000000
_cell_volume 6693.900143
_symmetry_space_group_name_H-M "I -4 M 2"
_symmetry_group_IT_number 119
_symmetry_cell_setting 'tetragonal'
loop_
_space_group_symop_operation_xyz
x,y,z
y,-x,-z
-x,-y,z
-y,x,-z
y,x,-z
-y,-x,-z
-x,y,z
x,-y,z
1/2+x,1/2+y,1/2+z
1/2+y,1/2-x,1/2-z
1/2-x,1/2-y,1/2+z
1/2-y,1/2+x,1/2-z
1/2+y,1/2+x,1/2-z
1/2-y,1/2-x,1/2-z
1/2-x,1/2+y,1/2+z
1/2+x,1/2-y,1/2+z
loop_
_atom_site_type_symbol
_atom_site_label
_atom_site_fract_x
_atom_site_fract_y
_atom_site_fract_z
Si Si1 0.736347 0.857916 0.458938
Si Si2 0.773568 0.436596 0.761133
Si Si3 0.439072 0.405462 0.615702
Si Si4 0.842009 0.814130 0.342264
Si Si5 0.368879 0.705245 0.583171
Si Si6 0.439523 0.356914 0.194943
Si Si7 0.384149 0.818104 0.463195
Si Si8 0.565622 0.932581 0.115885
O O1 0.716469 0.910869 0.384530
O O2 0.777110 0.820392 0.380073
O O3 0.772190 0.871397 0.570108
O O4 0.681153 0.824833 0.489138
O O5 0.795218 0.500000 0.747491
O O6 0.706071 0.437868 0.755030
O O7 0.797127 0.397532 0.663325
O O8 0.438684 0.438684 0.500000
O O9 0.500000 0.400407 0.667536
O O10 0.415306 0.344011 0.585172
O O11 0.398789 0.436386 0.701681
O O12 0.847596 0.794677 0.213201
O O13 0.863926 0.878235 0.361151
O O14 0.319595 0.680406 0.500000
O O15 0.397251 0.763735 0.542102
O O16 0.500000 0.362644 0.133800
O O17 0.410165 0.881797 0.460171
O O18 0.500000 0.913834 0.093516
O O19 0.578400 0.921601 0.250000
O O20 0.565209 0.000000 0.104011
#
# Coordination Sequence:
#
# PCOD9559072 Si02
#       8
#    16  16  16  16  16  16  16  16
#     4  10  21  36  55  83 113 153 196 237 293 365
#     4  10  20  36  58  81 112 149 194 247 297 358
#     4  10  19  31  48  74 109 146 185 236 294 347
#     4   9  20  40  54  78 121 158 192 238 303 358
#     4  10  22  37  53  79 120 159 194 244 300 361
#     4   9  18  34  54  76 106 148 195 243 288 343
#     4  12  22  32  55  91 117 153 198 242 298 377
#     4   9  19  36  57  84 120 154 190 252 321 370
#
# _framework density 19.121886
#
# number of rings (size 3 to 8) (size 9 to 14) (size 15 to 20)
#    0.000    2.125    0.000    5.250    1.750    4.875 
#    2.250    2.500    0.000    9.750    0.000    5.250 
#    0.000    4.000    0.000    0.125    0.000    0.000 
#
# Total GULP energy -356330.531070 kJ/mol
# GULP energy per Si atom -5567.664548 kJ/mol
# Density = 1.907836 g / cm^3
# Si number density = 19.121886 Si / 1000 Ang^3
#
#
#
# Elastic Constant Matrix: (Units=GPa)
#
#
# Indices 1 2 3 4 5 6 
#
# 1 46.6872 26.6782 16.9287 0.0000 0.0000 0.0000
# 2 26.6782 46.6859 16.9284 0.0000 0.0000 0.0000
# 3 16.9287 16.9284 82.6988 0.0000 0.0000 0.0000
# 4 0.0000 0.0000 0.0000 12.5088 0.0000 0.0000
# 5 0.0000 0.0000 0.0000 0.0000 12.5090 0.0000
# 6 0.0000 0.0000 0.0000 0.0000 0.0000 2.6489
#
#
#
# Elastic Compliance Matrix: (Units=1/GPa)
#
#
# Indices 1 2 3 4 5 6 
#
# 1 0.032515 -0.017463 -0.003081 0.000000 0.000000 0.000000
# 2 -0.017463 0.032516 -0.003081 0.000000 0.000000 0.000000
# 3 -0.003081 -0.003081 0.013354 0.000000 0.000000 0.000000
# 4 0.000000 0.000000 0.000000 0.079944 0.000000 0.000000
# 5 0.000000 0.000000 0.000000 0.000000 0.079943 0.000000
# 6 0.000000 0.000000 0.000000 0.000000 0.000000 0.377514
#
#
# Mechanical properties :
#
#
# Convention : Reuss Voigt Hill
#
# Bulk Modulus (GPa) = 32.11975 33.01583 32.56779
# Shear Modulus (GPa) = 7.42484 13.23577 10.33030
#
# Velocity S-wave (km/s) = 1.97265 2.63378 2.32682
# Velocity P-wave (km/s) = 4.69279 5.15292 4.92823
#
# Compressibility (1/GPa) = 0.03113349
#
# Stress axis : x y z
#
# Youngs Moduli (GPa) = 30.75474 30.75389 74.88644
#
# Poissons Ratio (x) = 0.53706 0.23074
# Poissons Ratio (y) = 0.53708 0.23075
# Poissons Ratio (z) = 0.09476 0.09476
#
# Static dielectric constant tensor:
#      x y z
#    x 1.718700 0.000000 0.000000 
#    y 0.000000 1.718700 0.000000 
#    z 0.000000 0.000000 1.650180 
# 
# From -- ./inp_files/4480.got.cif
#   From: 2010.05.17/outbox.cif.g08.bks.cpg/sg119_3_cif.got.tgz:4480.got - 2010.05.20 11:21:29.
