data_PCOD9559852
_publ_section_title
;
Structure prediction by ZEFSAII (Michael W. Deem and Ramdas Pophale) SiO2 
 PCOD9559852
Probable space group: I -4 C 2
;
_chemical_formula_sum "Si O2"
_cell_formula_units_Z 84
_cell_length_a 21.673080
_cell_length_b 21.673080
_cell_length_c 9.580892
_cell_angle_alpha 90.000000
_cell_angle_beta 90.000000
_cell_angle_gamma 90.000000
_cell_volume 4500.359553
_symmetry_space_group_name_H-M "I -4 C 2"
_symmetry_group_IT_number 120
_symmetry_cell_setting 'tetragonal'
loop_
_space_group_symop_operation_xyz
x,y,z
y,-x,-z
-x,-y,z
-y,x,-z
y,x,1/2-z
-y,-x,1/2-z
-x,y,1/2+z
x,-y,1/2+z
1/2+x,1/2+y,1/2+z
1/2+y,1/2-x,1/2-z
1/2-x,1/2-y,1/2+z
1/2-y,1/2+x,1/2-z
1/2+y,1/2+x,-z
1/2-y,1/2-x,-z
1/2-x,1/2+y,z
1/2+x,1/2-y,z
loop_
_atom_site_type_symbol
_atom_site_label
_atom_site_fract_x
_atom_site_fract_y
_atom_site_fract_z
Si Si1 0.190614 0.309387 0.500000
Si Si2 0.105071 0.014934 0.325437
Si Si3 0.572902 0.261833 0.505890
Si Si4 0.211960 0.045680 0.681082
Si Si5 0.272013 0.272013 0.750000
Si Si6 0.000000 0.000000 0.500000
Si Si7 0.325446 0.631162 0.453252
O O1 0.206631 0.380174 0.524658
O O2 0.216479 0.274298 0.638622
O O3 0.050302 0.050302 0.250000
O O4 0.150046 0.068007 0.382991
O O5 0.065974 0.978051 0.437931
O O6 0.142332 0.972121 0.222887
O O7 0.553744 0.257837 0.667676
O O8 0.512506 0.264386 0.409284
O O9 0.616725 0.322673 0.481319
O O10 0.209195 0.107932 0.591247
O O11 0.332538 0.279794 0.651043
#
# Coordination Sequence:
#
# PCOD9559852 Si02
#       7
#     8  16  16  16   8   4  16
#     4  10  24  40  60  92 118 157 200 255 298 364
#     4  12  20  36  45  72 105 154 200 254 281 329
#     4  11  24  40  60  85 120 158 201 248 297 360
#     4  12  23  38  60  79 113 161 200 247 302 346
#     4  10  22  40  64  81 118 152 199 252 300 356
#     4  12  26  28  44  66 108 150 212 262 292 314
#     4  11  21  39  57  80 114 156 206 244 297 344
#
# _framework density 18.665175000000001
#
# number of rings (size 3 to 8) (size 9 to 14) (size 15 to 20)
#    0.000    0.762    4.762    4.286    5.333    1.524 
#    0.000    0.000    0.000    0.000    0.000    0.000 
#    0.000    2.286    0.000    0.000    0.000    0.000 
#
# Total GULP energy -234502.378123 kJ/mol
# GULP energy per Si atom -5583.389955 kJ/mol
# Density = 1.862269 g / cm^3
# Si number density = 18.665175 Si / 1000 Ang^3
#
#
#
# Elastic Constant Matrix: (Units=GPa)
#
#
# Indices 1 2 3 4 5 6 
#
# 1 40.7161 22.2150 15.0776 0.0000 0.0000 0.0000
# 2 22.2150 40.7172 15.0773 0.0000 0.0000 0.0000
# 3 15.0776 15.0773 95.0797 0.0000 0.0000 0.0000
# 4 0.0000 0.0000 0.0000 28.2660 0.0000 0.0000
# 5 0.0000 0.0000 0.0000 0.0000 28.2662 0.0000
# 6 0.0000 0.0000 0.0000 0.0000 0.0000 21.9129
#
#
#
# Elastic Compliance Matrix: (Units=1/GPa)
#
#
# Indices 1 2 3 4 5 6 
#
# 1 0.035624 -0.018426 -0.002727 0.000000 0.000000 0.000000
# 2 -0.018426 0.035623 -0.002727 0.000000 0.000000 0.000000
# 3 -0.002727 -0.002727 0.011382 0.000000 0.000000 0.000000
# 4 0.000000 0.000000 0.000000 0.035378 0.000000 0.000000
# 5 0.000000 0.000000 0.000000 0.000000 0.035378 0.000000
# 6 0.000000 0.000000 0.000000 0.000000 0.000000 0.045635
#
#
# Mechanical properties :
#
#
# Convention : Reuss Voigt Hill
#
# Bulk Modulus (GPa) = 28.67945 31.25030 29.96488
# Shear Modulus (GPa) = 19.34961 23.96522 21.65741
#
# Velocity S-wave (km/s) = 3.22323 3.58712 3.41003
# Velocity P-wave (km/s) = 5.40840 5.82542 5.62078
#
# Compressibility (1/GPa) = 0.03486817
#
# Stress axis : x y z
#
# Youngs Moduli (GPa) = 28.07123 28.07211 87.85501
#
# Poissons Ratio (x) = 0.51726 0.23960
# Poissons Ratio (y) = 0.51724 0.23957
# Poissons Ratio (z) = 0.07656 0.07655
#
# Static dielectric constant tensor:
#      x y z
#    x 1.652480 0.000000 0.000000 
#    y 0.000000 1.652470 0.000000 
#    z 0.000000 0.000000 2.164110 
# 
# From -- ./inp_files/1490.got.cif
#   From: 2010.05.17/outbox.cif.g08.bks.cpg/sg120_1_cif.got.tgz:1490.got - 2010.05.20 11:28:13.
