data_PCOD9559594
_publ_section_title
;
Structure prediction by ZEFSAII (Michael W. Deem and Ramdas Pophale) SiO2 
 PCOD9559594
Probable space group: I -4 C 2
;
_chemical_formula_sum "Si O2"
_cell_formula_units_Z 112
_cell_length_a 15.816361
_cell_length_b 15.816361
_cell_length_c 24.828529
_cell_angle_alpha 90.000000
_cell_angle_beta 90.000000
_cell_angle_gamma 90.000000
_cell_volume 6211.037164
_symmetry_space_group_name_H-M "I -4 C 2"
_symmetry_group_IT_number 120
_symmetry_cell_setting 'tetragonal'
loop_
_space_group_symop_operation_xyz
x,y,z
y,-x,-z
-x,-y,z
-y,x,-z
y,x,1/2-z
-y,-x,1/2-z
-x,y,1/2+z
x,-y,1/2+z
1/2+x,1/2+y,1/2+z
1/2+y,1/2-x,1/2-z
1/2-x,1/2-y,1/2+z
1/2-y,1/2+x,1/2-z
1/2+y,1/2+x,-z
1/2-y,1/2-x,-z
1/2-x,1/2+y,z
1/2+x,1/2-y,z
loop_
_atom_site_type_symbol
_atom_site_label
_atom_site_fract_x
_atom_site_fract_y
_atom_site_fract_z
Si Si1 0.570059 0.927676 0.391353
Si Si2 0.137498 0.023427 0.131300
Si Si3 0.439703 0.197622 0.066624
Si Si4 0.806581 0.051034 0.749441
Si Si5 0.942425 0.700485 0.439504
Si Si6 0.359959 0.524041 0.860945
Si Si7 0.886630 0.561459 0.771066
O O1 0.525555 0.854115 0.424630
O O2 0.598081 0.904139 0.331109
O O3 0.500000 0.000000 0.383573
O O4 0.644365 0.975021 0.422486
O O5 0.177315 0.014422 0.190642
O O6 0.211913 0.047266 0.091077
O O7 0.067679 0.097970 0.127701
O O8 0.088897 0.934887 0.124894
O O9 0.358726 0.136957 0.078655
O O10 0.449182 0.279317 0.104047
O O11 0.435002 0.215696 0.003151
O O12 0.868023 0.131978 0.750000
O O13 0.709306 0.076961 0.755171
O O14 0.832941 0.987660 0.798026
O O15 0.901111 0.459551 0.767549
#
# Coordination Sequence:
#
# PCOD9559594 Si02
#       7
#    16  16  16  16  16  16  16
#     4  10  18  35  59  84 117 155 191 232 297 356
#     4  10  22  39  62  87 119 155 203 241 293 362
#     4  10  21  39  62  84 119 153 200 245 297 349
#     4  10  21  38  59  85 119 154 196 243 293 357
#     4  10  22  39  59  90 115 153 199 252 292 346
#     4  10  21  41  63  85 116 164 195 240 301 360
#     4  11  20  32  56  90 120 156 188 237 297 357
#
# _framework density 18.032415
#
# number of rings (size 3 to 8) (size 9 to 14) (size 15 to 20)
#    0.000    1.857    2.857    1.714    2.000    4.571 
#    2.571    5.714    0.000    0.000    0.000    0.000 
#    0.000    0.000    0.000    0.000    0.000    0.000 
#
# Total GULP energy -312215.380241 kJ/mol
# GULP energy per Si atom -5575.274647 kJ/mol
# Density = 1.799137 g / cm^3
# Si number density = 18.032415 Si / 1000 Ang^3
#
#
#
# Elastic Constant Matrix: (Units=GPa)
#
#
# Indices 1 2 3 4 5 6 
#
# 1 63.7870 4.9363 47.0910 0.0000 0.0000 0.0000
# 2 4.9363 63.7908 47.0906 0.0000 0.0000 0.0000
# 3 47.0910 47.0906 100.9969 0.0000 0.0000 0.0000
# 4 0.0000 0.0000 0.0000 21.6899 0.0000 0.0000
# 5 0.0000 0.0000 0.0000 0.0000 21.6904 0.0000
# 6 0.0000 0.0000 0.0000 0.0000 0.0000 7.8366
#
#
#
# Elastic Compliance Matrix: (Units=1/GPa)
#
#
# Indices 1 2 3 4 5 6 
#
# 1 0.028649 0.011656 -0.018792 0.000000 0.000000 0.000000
# 2 0.011656 0.028646 -0.018791 0.000000 0.000000 0.000000
# 3 -0.018792 -0.018791 0.027425 0.000000 0.000000 0.000000
# 4 0.000000 0.000000 0.000000 0.046104 0.000000 0.000000
# 5 0.000000 0.000000 0.000000 0.000000 0.046103 0.000000
# 6 0.000000 0.000000 0.000000 0.000000 0.000000 0.127606
#
#
# Mechanical properties :
#
#
# Convention : Reuss Voigt Hill
#
# Bulk Modulus (GPa) = 30.42824 47.42338 38.92581
# Shear Modulus (GPa) = 13.61124 18.87384 16.24254
#
# Velocity S-wave (km/s) = 2.75038 3.23873 3.00449
# Velocity P-wave (km/s) = 5.19586 6.35152 5.80253
#
# Compressibility (1/GPa) = 0.03286420
#
# Stress axis : x y z
#
# Youngs Moduli (GPa) = 34.90558 34.90906 36.46322
#
# Poissons Ratio (x) = -0.40689 0.68523
# Poissons Ratio (y) = -0.40685 0.68518
# Poissons Ratio (z) = 0.65596 0.65597
#
# Static dielectric constant tensor:
#      x y z
#    x 1.628170 0.000000 0.000000 
#    y 0.000000 1.628170 0.000000 
#    z 0.000000 0.000000 1.627090 
# 
# From -- ./inp_files/5937.got.cif
#   From: 2010.05.17/outbox.cif.g08.bks.cpg/sg120_3_cif.got.tgz:5937.got - 2010.05.20 11:28:13.
