data_PCOD9559919
_publ_section_title
;
Structure prediction by ZEFSAII (Michael W. Deem and Ramdas Pophale) SiO2 
 PCOD9559919
Probable space group: I -4 C 2
;
_chemical_formula_sum "Si O2"
_cell_formula_units_Z 52
_cell_length_a 16.823317
_cell_length_b 16.823317
_cell_length_c 8.929149
_cell_angle_alpha 90.000000
_cell_angle_beta 90.000000
_cell_angle_gamma 90.000000
_cell_volume 2527.163421
_symmetry_space_group_name_H-M "I -4 C 2"
_symmetry_group_IT_number 120
_symmetry_cell_setting 'tetragonal'
loop_
_space_group_symop_operation_xyz
x,y,z
y,-x,-z
-x,-y,z
-y,x,-z
y,x,1/2-z
-y,-x,1/2-z
-x,y,1/2+z
x,-y,1/2+z
1/2+x,1/2+y,1/2+z
1/2+y,1/2-x,1/2-z
1/2-x,1/2-y,1/2+z
1/2-y,1/2+x,1/2-z
1/2+y,1/2+x,-z
1/2-y,1/2-x,-z
1/2-x,1/2+y,z
1/2+x,1/2-y,z
loop_
_atom_site_type_symbol
_atom_site_label
_atom_site_fract_x
_atom_site_fract_y
_atom_site_fract_z
Si Si1 0.762725 0.996862 0.286187
Si Si2 0.000000 0.000000 0.250000
Si Si3 0.425999 0.636770 0.954239
Si Si4 0.388514 0.239333 0.978404
O O1 0.834809 0.961548 0.387569
O O2 0.791846 0.061237 0.163912
O O3 0.709609 0.044311 0.404540
O O4 0.731064 0.924247 0.187574
O O5 0.019292 0.928406 0.368289
O O6 0.333330 0.620268 0.982520
O O7 0.307930 0.192071 0.000000
#
# Coordination Sequence:
#
# PCOD9559919 Si02
#       4
#    16   4  16  16
#     4  10  24  40  58  96 129 174 236 282 350 409
#     4  12  24  34  58  88 154 184 234 270 326 438
#     4  11  24  36  60  97 139 191 225 273 343 420
#     4  11  24  45  67  94 137 181 238 295 357 429
#
# _framework density 20.576429999999998
#
# number of rings (size 3 to 8) (size 9 to 14) (size 15 to 20)
#    0.000    1.231    3.077    0.923    8.615    8.615 
#    0.000    6.154    0.000    2.769    0.000    0.000 
#    0.000    0.000    0.000    0.000    0.000    0.000 
#
# Total GULP energy -144882.078396 kJ/mol
# GULP energy per Si atom -5572.387631 kJ/mol
# Density = 2.052960 g / cm^3
# Si number density = 20.576430 Si / 1000 Ang^3
#
#
#
# Elastic Constant Matrix: (Units=GPa)
#
#
# Indices 1 2 3 4 5 6 
#
# 1 76.2476 56.1523 36.0576 0.0000 0.0000 0.0000
# 2 56.1523 76.2386 36.0539 0.0000 0.0000 0.0000
# 3 36.0576 36.0539 156.8464 0.0000 0.0000 0.0000
# 4 0.0000 0.0000 0.0000 13.2737 0.0000 0.0000
# 5 0.0000 0.0000 0.0000 0.0000 13.2755 0.0000
# 6 0.0000 0.0000 0.0000 0.0000 0.0000 34.5372
#
#
#
# Elastic Compliance Matrix: (Units=1/GPa)
#
#
# Indices 1 2 3 4 5 6 
#
# 1 0.029203 -0.020570 -0.001985 0.000000 0.000000 0.000000
# 2 -0.020570 0.029206 -0.001985 0.000000 0.000000 0.000000
# 3 -0.001985 -0.001985 0.007288 0.000000 0.000000 0.000000
# 4 0.000000 0.000000 0.000000 0.075337 0.000000 0.000000
# 5 0.000000 0.000000 0.000000 0.000000 0.075326 0.000000
# 6 0.000000 0.000000 0.000000 0.000000 0.000000 0.028954
#
#
# Mechanical properties :
#
#
# Convention : Reuss Voigt Hill
#
# Bulk Modulus (GPa) = 60.17821 62.87336 61.52579
# Shear Modulus (GPa) = 16.67041 24.28853 20.47947
#
# Velocity S-wave (km/s) = 2.84944 3.43943 3.15824
# Velocity P-wave (km/s) = 6.33525 6.81141 6.57764
#
# Compressibility (1/GPa) = 0.01661731
#
# Stress axis : x y z
#
# Youngs Moduli (GPa) = 34.24348 34.23981 137.20801
#
# Poissons Ratio (x) = 0.70431 0.27237
# Poissons Ratio (y) = 0.70439 0.27230
# Poissons Ratio (z) = 0.06798 0.06795
#
# Static dielectric constant tensor:
#      x y z
#    x 1.783880 0.000000 0.000000 
#    y 0.000000 1.783880 0.000000 
#    z 0.000000 0.000000 1.819380 
# 
# From -- ./inp_files/998.got.cif
#   From: 2010.05.17/outbox.cif.g08.bks.cpg/sg120_1_cif.got.tgz:998.got - 2010.05.20 11:28:13.
