data_PCOD9559429
_publ_section_title
;
Structure prediction by ZEFSAII (Michael W. Deem and Ramdas Pophale) SiO2 
 PCOD9559429
Probable space group: I -4 M 2
;
_chemical_formula_sum "Si O2"
_cell_formula_units_Z 96
_cell_length_a 15.365401
_cell_length_b 15.365401
_cell_length_c 19.510581
_cell_angle_alpha 90.000000
_cell_angle_beta 90.000000
_cell_angle_gamma 90.000000
_cell_volume 4606.361311
_symmetry_space_group_name_H-M "I -4 M 2"
_symmetry_group_IT_number 119
_symmetry_cell_setting 'tetragonal'
loop_
_space_group_symop_operation_xyz
x,y,z
y,-x,-z
-x,-y,z
-y,x,-z
y,x,-z
-y,-x,-z
-x,y,z
x,-y,z
1/2+x,1/2+y,1/2+z
1/2+y,1/2-x,1/2-z
1/2-x,1/2-y,1/2+z
1/2-y,1/2+x,1/2-z
1/2+y,1/2+x,1/2-z
1/2-y,1/2-x,1/2-z
1/2-x,1/2+y,1/2+z
1/2+x,1/2-y,1/2+z
loop_
_atom_site_type_symbol
_atom_site_label
_atom_site_fract_x
_atom_site_fract_y
_atom_site_fract_z
Si Si1 0.287513 0.600383 0.679564
Si Si2 0.900675 0.161288 0.667420
Si Si3 0.904937 0.829614 0.064491
Si Si4 0.903241 0.635006 0.640000
Si Si5 0.789685 0.905025 0.548092
Si Si6 0.130962 0.404290 0.481712
O O1 0.309843 0.500000 0.664756
O O2 0.327738 0.623663 0.752953
O O3 0.328881 0.657288 0.619446
O O4 0.182723 0.606377 0.680707
O O5 0.901659 0.260296 0.639423
O O6 0.833910 0.108078 0.621708
O O7 0.000000 0.127749 0.662995
O O8 0.901716 0.733913 0.031939
O O9 0.000000 0.843118 0.096805
O O10 0.892381 0.892381 0.000000
O O11 0.890444 0.602392 0.562310
O O12 0.000000 0.608733 0.664541
O O13 0.829699 0.829699 0.500000
O O14 0.685372 0.902081 0.550852
O O15 0.815039 0.000000 0.519426
O O16 0.100747 0.500000 0.457379
#
# Coordination Sequence:
#
# PCOD9559429 Si02
#       6
#    16  16  16  16  16  16
#     4  11  23  39  60  91 132 169 211 266 317 378
#     4  10  23  41  61  90 130 172 212 257 311 375
#     4  11  22  38  62  91 125 169 216 262 317 376
#     4  11  21  38  62  90 126 168 211 257 315 380
#     4  12  24  41  67  95 128 169 215 265 316 375
#     4  11  23  40  64  94 128 164 209 268 324 375
#
# _framework density 20.840744999999998
#
# number of rings (size 3 to 8) (size 9 to 14) (size 15 to 20)
#    0.000    1.000    3.333    4.000    0.000    5.333 
#    0.000    2.500    0.000    6.000    0.000    1.167 
#    0.000    5.333    0.000    0.000    0.000    0.000 
#
# Total GULP energy -268251.450179 kJ/mol
# GULP energy per Si atom -5588.571879 kJ/mol
# Density = 2.079331 g / cm^3
# Si number density = 20.840745 Si / 1000 Ang^3
#
#
#
# Elastic Constant Matrix: (Units=GPa)
#
#
# Indices 1 2 3 4 5 6 
#
# 1 103.3230 29.4974 31.8288 0.0000 0.0000 0.0000
# 2 29.4974 103.3230 31.8288 0.0000 0.0000 0.0000
# 3 31.8288 31.8288 87.5463 0.0000 0.0000 0.0000
# 4 0.0000 0.0000 0.0000 19.4408 0.0000 0.0000
# 5 0.0000 0.0000 0.0000 0.0000 19.4408 0.0000
# 6 0.0000 0.0000 0.0000 0.0000 0.0000 -37.0388
#
#
#
# Elastic Compliance Matrix: (Units=1/GPa)
#
#
# Indices 1 2 3 4 5 6 
#
# 1 0.011332 -0.002214 -0.003315 0.000000 0.000000 0.000000
# 2 -0.002214 0.011332 -0.003315 0.000000 0.000000 0.000000
# 3 -0.003315 -0.003315 0.013833 0.000000 0.000000 0.000000
# 4 0.000000 0.000000 0.000000 0.051438 0.000000 0.000000
# 5 0.000000 0.000000 0.000000 0.000000 0.051438 0.000000
# 6 0.000000 0.000000 0.000000 0.000000 0.000000 -0.026999
#
#
# Mechanical properties :
#
#
# Convention : Reuss Voigt Hill
#
# Bulk Modulus (GPa) = 53.16668 53.38912 53.27790
# Shear Modulus (GPa) = 36.67558 13.77105 25.22331
#
# Velocity S-wave (km/s) = 4.19955 2.57334 3.48269
# Velocity P-wave (km/s) = 7.00580 5.87390 6.46467
#
# Compressibility (1/GPa) = 0.01880877
#
# Stress axis : x y z
#
# Youngs Moduli (GPa) = 88.24900 88.24900 72.29154
#
# Poissons Ratio (x) = 0.19537 0.23964
# Poissons Ratio (y) = 0.19537 0.23964
# Poissons Ratio (z) = 0.29253 0.29253
#
# Static dielectric constant tensor:
#      x y z
#    x 1.758980 0.000000 0.000000 
#    y 0.000000 1.758980 0.000000 
#    z 0.000000 0.000000 1.724260 
# 
# From -- ./inp_files/7786.got.cif
#   From: 2010.05.17/outbox.cif.g08.bks.cpg/sg119_4_cif.got.tgz:7786.got - 2010.05.20 11:21:29.
