data_PCOD9559493
_publ_section_title
;
Structure prediction by ZEFSAII (Michael W. Deem and Ramdas Pophale) SiO2 
 PCOD9559493
Probable space group: I -4 M 2
;
_chemical_formula_sum "Si O2"
_cell_formula_units_Z 44
_cell_length_a 15.091879
_cell_length_b 15.091879
_cell_length_c 7.572382
_cell_angle_alpha 90.000000
_cell_angle_beta 90.000000
_cell_angle_gamma 90.000000
_cell_volume 1724.722161
_symmetry_space_group_name_H-M "I -4 M 2"
_symmetry_group_IT_number 119
_symmetry_cell_setting 'tetragonal'
loop_
_space_group_symop_operation_xyz
x,y,z
y,-x,-z
-x,-y,z
-y,x,-z
y,x,-z
-y,-x,-z
-x,y,z
x,-y,z
1/2+x,1/2+y,1/2+z
1/2+y,1/2-x,1/2-z
1/2-x,1/2-y,1/2+z
1/2-y,1/2+x,1/2-z
1/2+y,1/2+x,1/2-z
1/2-y,1/2-x,1/2-z
1/2-x,1/2+y,1/2+z
1/2+x,1/2-y,1/2+z
loop_
_atom_site_type_symbol
_atom_site_label
_atom_site_fract_x
_atom_site_fract_y
_atom_site_fract_z
Si Si1 0.303819 0.000000 0.363058
Si Si2 0.500000 0.000000 0.250000
Si Si3 0.000000 0.000000 0.500000
Si Si4 0.000000 0.648792 0.254264
Si Si5 0.193967 0.166124 0.292883
Si Si6 0.168420 0.000000 0.777373
O O1 0.283679 0.000000 0.574925
O O2 0.263050 0.086298 0.277383
O O3 0.410361 0.000000 0.361614
O O4 0.089470 0.000000 0.618041
O O5 0.084968 0.584968 0.250000
O O6 0.000000 0.729916 0.123529
O O7 0.171424 0.171424 0.500000
O O8 0.242334 0.257667 0.250000
O O9 0.104585 0.152667 0.185973
#
# Coordination Sequence:
#
# PCOD9559493 Si02
#       6
#     8   2   2   8  16   8
#     4  12  24  44  69  96 133 181 220 279 345 404
#     4  12  24  44  62  96 140 160 224 270 336 404
#     4  12  20  40  68  88 126 180 232 276 322 404
#     4  11  22  38  62 101 133 170 217 270 337 397
#     4  12  24  43  68 100 136 177 228 281 342 406
#     4  12  21  38  65  95 130 169 228 285 318 401
#
# _framework density 25.511354000000001
#
# number of rings (size 3 to 8) (size 9 to 14) (size 15 to 20)
#    0.000    0.182    7.273    3.273    0.000    0.000 
#    0.000    1.818    0.000    0.000    0.000    2.545 
#    0.000    0.000    0.000    0.000    0.000    0.000 
#
# Total GULP energy -122471.447708 kJ/mol
# GULP energy per Si atom -5566.883987 kJ/mol
# Density = 2.545329 g / cm^3
# Si number density = 25.511354 Si / 1000 Ang^3
#
#
#
# Elastic Constant Matrix: (Units=GPa)
#
#
# Indices 1 2 3 4 5 6 
#
# 1 130.0780 150.3726 27.5421 0.0000 0.0000 0.0000
# 2 150.3726 130.0821 27.5360 0.0000 0.0000 0.0000
# 3 27.5421 27.5360 59.6115 0.0000 0.0000 0.0000
# 4 0.0000 0.0000 0.0000 32.9191 0.0000 0.0000
# 5 0.0000 0.0000 0.0000 0.0000 32.9209 0.0000
# 6 0.0000 0.0000 0.0000 0.0000 0.0000 59.3060
#
#
#
# Elastic Compliance Matrix: (Units=1/GPa)
#
#
# Indices 1 2 3 4 5 6 
#
# 1 -0.022680 0.026600 -0.001809 0.000000 0.000000 0.000000
# 2 0.026600 -0.022678 -0.001815 0.000000 0.000000 0.000000
# 3 -0.001809 -0.001815 0.018449 0.000000 0.000000 0.000000
# 4 0.000000 0.000000 0.000000 0.030378 0.000000 0.000000
# 5 0.000000 0.000000 0.000000 0.000000 0.030376 0.000000
# 6 0.000000 0.000000 0.000000 0.000000 0.000000 0.016862
#
#
# Mechanical properties :
#
#
# Convention : Reuss Voigt Hill
#
# Bulk Modulus (GPa) = 52.50566 81.18589 66.84578
# Shear Modulus (GPa) = 450.42467 32.65060 241.53763
#
# Velocity S-wave (km/s) = 13.30195 3.58137 9.74084
# Velocity P-wave (km/s) = 16.01713 6.99958 12.36007
#
# Compressibility (1/GPa) = 0.01904557
#
# Stress axis : x y z
#
# Youngs Moduli (GPa) = -44.09200 -44.09568 54.20314
#
# Poissons Ratio (x) = 1.17296 0.09803
# Poissons Ratio (y) = 1.17286 0.09836
# Poissons Ratio (z) = -0.07975 -0.08001
#
# Static dielectric constant tensor:
#      x y z
#    x 1.684310 0.000000 0.000000 
#    y 0.000000 1.684330 0.000000 
#    z 0.000000 0.000000 2.369100 
# 
# From -- ./inp_files/3419.got.cif
#   From: 2010.05.17/outbox.cif.g08.bks.cpg/sg119_2_cif.got.tgz:3419.got - 2010.05.20 11:21:29.
