data_PCOD9559441
_publ_section_title
;
Structure prediction by ZEFSAII (Michael W. Deem and Ramdas Pophale) SiO2 
 PCOD9559441
Probable space group: I -4 M 2
;
_chemical_formula_sum "Si O2"
_cell_formula_units_Z 112
_cell_length_a 31.804020
_cell_length_b 31.804020
_cell_length_c 5.517265
_cell_angle_alpha 90.000000
_cell_angle_beta 90.000000
_cell_angle_gamma 90.000000
_cell_volume 5580.689758
_symmetry_space_group_name_H-M "I -4 M 2"
_symmetry_group_IT_number 119
_symmetry_cell_setting 'tetragonal'
loop_
_space_group_symop_operation_xyz
x,y,z
y,-x,-z
-x,-y,z
-y,x,-z
y,x,-z
-y,-x,-z
-x,y,z
x,-y,z
1/2+x,1/2+y,1/2+z
1/2+y,1/2-x,1/2-z
1/2-x,1/2-y,1/2+z
1/2-y,1/2+x,1/2-z
1/2+y,1/2+x,1/2-z
1/2-y,1/2-x,1/2-z
1/2-x,1/2+y,1/2+z
1/2+x,1/2-y,1/2+z
loop_
_atom_site_type_symbol
_atom_site_label
_atom_site_fract_x
_atom_site_fract_y
_atom_site_fract_z
Si Si1 0.681724 0.046347 0.862649
Si Si2 0.548562 0.318324 0.649409
Si Si3 0.743529 0.104744 0.631886
Si Si4 0.049828 0.412993 0.998710
Si Si5 0.802463 0.230773 0.250527
Si Si6 0.586737 0.449608 0.251632
Si Si7 0.953925 0.242862 0.753968
O O1 0.698922 0.083344 0.694372
O O2 0.637295 0.055766 0.983378
O O3 0.677273 0.000000 0.742100
O O4 0.719672 0.042710 0.052437
O O5 0.500000 0.315779 0.729796
O O6 0.576890 0.282369 0.766712
O O7 0.563676 0.364833 0.704580
O O8 0.547450 0.303515 0.370194
O O9 0.749238 0.151413 0.724480
O O10 0.749214 0.092269 0.353796
O O11 0.067950 0.432051 0.250000
O O12 0.000000 0.421713 0.990727
O O13 0.069886 0.430115 0.750000
O O14 0.795071 0.204930 0.500000
O O15 0.767776 0.267776 0.250000
O O16 0.795005 0.204996 0.000000
O O17 0.562963 0.437038 0.500000
O O18 0.585142 0.500000 0.228719
O O19 0.569577 0.430424 0.000000
O O20 0.000000 0.245866 0.622010
#
# Coordination Sequence:
#
# PCOD9559441 Si02
#       7
#    16  16  16  16  16  16  16
#     4   9  21  39  60  96 136 166 205 266 335 385
#     4   9  21  38  58  92 131 162 201 258 324 381
#     4  11  21  36  69  94 122 167 213 258 311 402
#     4  11  25  44  67  95 133 180 229 281 329 382
#     4  10  25  47  66  88 125 169 211 262 317 364
#     4  11  25  43  65  91 125 168 217 270 320 377
#     4   9  18  35  62  96 131 166 202 252 326 399
#
# _framework density 20.069202000000001
#
# number of rings (size 3 to 8) (size 9 to 14) (size 15 to 20)
#    0.000    2.000    0.000    3.000    8.000    3.429 
#    0.000    0.000    0.000    0.000    0.000    0.000 
#    0.000    0.000    0.000    0.000    0.000    0.000 
#
# Total GULP energy -311764.035201 kJ/mol
# GULP energy per Si atom -5567.214914 kJ/mol
# Density = 2.002352 g / cm^3
# Si number density = 20.069202 Si / 1000 Ang^3
#
#
#
# Elastic Constant Matrix: (Units=GPa)
#
#
# Indices 1 2 3 4 5 6 
#
# 1 97.2694 41.2905 48.3717 0.0000 0.0000 0.0000
# 2 41.2905 97.2683 48.3710 0.0000 0.0000 0.0000
# 3 48.3717 48.3710 107.5974 0.0000 0.0000 0.0000
# 4 0.0000 0.0000 0.0000 33.1938 0.0000 0.0000
# 5 0.0000 0.0000 0.0000 0.0000 33.1929 0.0000
# 6 0.0000 0.0000 0.0000 0.0000 0.0000 20.5893
#
#
#
# Elastic Compliance Matrix: (Units=1/GPa)
#
#
# Indices 1 2 3 4 5 6 
#
# 1 0.014191 -0.003673 -0.004729 0.000000 0.000000 0.000000
# 2 -0.003673 0.014191 -0.004729 0.000000 0.000000 0.000000
# 3 -0.004729 -0.004729 0.013546 0.000000 0.000000 0.000000
# 4 0.000000 0.000000 0.000000 0.030126 0.000000 0.000000
# 5 0.000000 0.000000 0.000000 0.000000 0.030127 0.000000
# 6 0.000000 0.000000 0.000000 0.000000 0.000000 0.048569
#
#
# Mechanical properties :
#
#
# Convention : Reuss Voigt Hill
#
# Bulk Modulus (GPa) = 63.82438 64.24463 64.03450
# Shear Modulus (GPa) = 27.43730 28.33532 27.88631
#
# Velocity S-wave (km/s) = 3.70149 3.76158 3.73165
# Velocity P-wave (km/s) = 7.08091 7.13772 7.10937
#
# Compressibility (1/GPa) = 0.01566799
#
# Stress axis : x y z
#
# Youngs Moduli (GPa) = 70.46523 70.46481 73.82431
#
# Poissons Ratio (x) = 0.25879 0.34911
# Poissons Ratio (y) = 0.25879 0.34910
# Poissons Ratio (z) = 0.33322 0.33321
#
# Static dielectric constant tensor:
#      x y z
#    x 1.700890 0.000000 0.000000 
#    y 0.000000 1.700890 0.000000 
#    z 0.000000 0.000000 1.865220 
# 
# From -- ./inp_files/1235.got.cif
#   From: 2010.05.17/outbox.cif.g08.bks.cpg/sg119_1_cif.got.tgz:1235.got - 2010.05.20 11:21:29.
