data_PCOD9559426
_publ_section_title
;
Structure prediction by ZEFSAII (Michael W. Deem and Ramdas Pophale) SiO2 
 PCOD9559426
Probable space group: I -4 M 2
;
_chemical_formula_sum "Si O2"
_cell_formula_units_Z 80
_cell_length_a 26.660918
_cell_length_b 26.660918
_cell_length_c 5.330512
_cell_angle_alpha 90.000000
_cell_angle_beta 90.000000
_cell_angle_gamma 90.000000
_cell_volume 3788.952176
_symmetry_space_group_name_H-M "I -4 M 2"
_symmetry_group_IT_number 119
_symmetry_cell_setting 'tetragonal'
loop_
_space_group_symop_operation_xyz
x,y,z
y,-x,-z
-x,-y,z
-y,x,-z
y,x,-z
-y,-x,-z
-x,y,z
x,-y,z
1/2+x,1/2+y,1/2+z
1/2+y,1/2-x,1/2-z
1/2-x,1/2-y,1/2+z
1/2-y,1/2+x,1/2-z
1/2+y,1/2+x,1/2-z
1/2-y,1/2-x,1/2-z
1/2-x,1/2+y,1/2+z
1/2+x,1/2-y,1/2+z
loop_
_atom_site_type_symbol
_atom_site_label
_atom_site_fract_x
_atom_site_fract_y
_atom_site_fract_z
Si Si1 0.312394 0.000000 0.371048
Si Si2 0.895973 0.942062 0.251243
Si Si3 0.199230 0.800771 0.000000
Si Si4 0.500000 0.746311 0.633045
Si Si5 0.807165 0.307165 0.250000
Si Si6 0.180534 0.393980 0.893545
Si Si7 0.290222 0.410106 0.665650
O O1 0.269402 0.000000 0.589323
O O2 0.342506 0.948857 0.419475
O O3 0.289516 0.000000 0.087354
O O4 0.924454 0.924454 0.500000
O O5 0.836588 0.935613 0.305767
O O6 0.906991 0.000000 0.197596
O O7 0.910831 0.910831 0.000000
O O8 0.195892 0.743465 0.090386
O O9 0.194668 0.851397 0.160265
O O10 0.448119 0.716287 0.574039
O O11 0.862406 0.305154 0.364289
O O12 0.144102 0.355899 0.750000
O O13 0.234056 0.405984 0.769574
#
# Coordination Sequence:
#
# PCOD9559426 Si02
#       7
#     8  16   8   8   8  16  16
#     4  10  24  40  72  97 130 182 231 282 336 395
#     4  12  28  49  74 102 135 182 240 304 368 427
#     4  12  22  36  62  94 135 188 222 276 347 436
#     4  10  22  44  64  96 133 175 230 294 338 401
#     4  12  24  40  62  94 148 185 232 276 361 428
#     4  11  24  44  65 100 138 187 229 289 346 424
#     4  11  23  42  64  98 136 179 234 286 354 419
#
# _framework density 21.114015999999999
#
# number of rings (size 3 to 8) (size 9 to 14) (size 15 to 20)
#    0.000    0.800    4.000    3.000    5.600    4.400 
#    0.000    0.000    0.000    0.300    0.000    0.000 
#    0.000    0.000    0.000    0.000    0.000    0.000 
#
# Total GULP energy -222740.836619 kJ/mol
# GULP energy per Si atom -5568.520915 kJ/mol
# Density = 2.106596 g / cm^3
# Si number density = 21.114016 Si / 1000 Ang^3
#
#
#
# Elastic Constant Matrix: (Units=GPa)
#
#
# Indices 1 2 3 4 5 6 
#
# 1 148.1079 -20.2414 17.9055 0.0000 0.0000 0.0000
# 2 -20.2414 148.1185 17.9046 0.0000 0.0000 0.0000
# 3 17.9055 17.9046 52.7800 0.0000 0.0000 0.0000
# 4 0.0000 0.0000 0.0000 21.9366 0.0000 0.0000
# 5 0.0000 0.0000 0.0000 0.0000 21.9334 0.0000
# 6 0.0000 0.0000 0.0000 0.0000 0.0000 17.9706
#
#
#
# Elastic Compliance Matrix: (Units=1/GPa)
#
#
# Indices 1 2 3 4 5 6 
#
# 1 0.007291 0.001351 -0.002932 0.000000 0.000000 0.000000
# 2 0.001351 0.007290 -0.002931 0.000000 0.000000 0.000000
# 3 -0.002932 -0.002931 0.020935 0.000000 0.000000 0.000000
# 4 0.000000 0.000000 0.000000 0.045586 0.000000 0.000000
# 5 0.000000 0.000000 0.000000 0.000000 0.045593 0.000000
# 6 0.000000 0.000000 0.000000 0.000000 0.000000 0.055647
#
#
# Mechanical properties :
#
#
# Convention : Reuss Voigt Hill
#
# Bulk Modulus (GPa) = 37.74694 42.23820 39.99257
# Shear Modulus (GPa) = 24.97542 34.59729 29.78636
#
# Velocity S-wave (km/s) = 3.44304 4.05235 3.76005
# Velocity P-wave (km/s) = 5.80711 6.47639 6.15086
#
# Compressibility (1/GPa) = 0.02649221
#
# Stress axis : x y z
#
# Youngs Moduli (GPa) = 137.15829 137.16906 47.76579
#
# Poissons Ratio (x) = -0.18528 0.14003
# Poissons Ratio (y) = -0.18526 0.14002
# Poissons Ratio (z) = 0.40209 0.40208
#
# Static dielectric constant tensor:
#      x y z
#    x 1.924530 0.000000 0.000000 
#    y 0.000000 1.924420 0.000000 
#    z 0.000000 0.000000 1.813810 
# 
# From -- ./inp_files/1061.got.cif
#   From: 2010.05.17/outbox.cif.g08.bks.cpg/sg119_1_cif.got.tgz:1061.got - 2010.05.20 11:21:29.
