data_PCOD9559018
_publ_section_title
;
Structure prediction by ZEFSAII (Michael W. Deem and Ramdas Pophale) SiO2 
 PCOD9559018
Probable space group: I -4 M 2
;
_chemical_formula_sum "Si O2"
_cell_formula_units_Z 112
_cell_length_a 14.798229
_cell_length_b 14.798229
_cell_length_c 28.370056
_cell_angle_alpha 90.000000
_cell_angle_beta 90.000000
_cell_angle_gamma 90.000000
_cell_volume 6212.689951
_symmetry_space_group_name_H-M "I -4 M 2"
_symmetry_group_IT_number 119
_symmetry_cell_setting 'tetragonal'
loop_
_space_group_symop_operation_xyz
x,y,z
y,-x,-z
-x,-y,z
-y,x,-z
y,x,-z
-y,-x,-z
-x,y,z
x,-y,z
1/2+x,1/2+y,1/2+z
1/2+y,1/2-x,1/2-z
1/2-x,1/2-y,1/2+z
1/2-y,1/2+x,1/2-z
1/2+y,1/2+x,1/2-z
1/2-y,1/2-x,1/2-z
1/2-x,1/2+y,1/2+z
1/2+x,1/2-y,1/2+z
loop_
_atom_site_type_symbol
_atom_site_label
_atom_site_fract_x
_atom_site_fract_y
_atom_site_fract_z
Si Si1 0.163606 0.103010 0.393541
Si Si2 0.608376 0.603235 0.788463
Si Si3 0.108728 0.756068 0.110950
Si Si4 0.100715 0.659637 0.547424
Si Si5 0.603517 0.303914 0.455023
Si Si6 0.900312 0.281688 0.441038
Si Si7 0.235027 0.392097 0.279027
O O1 0.153579 0.125103 0.338473
O O2 0.266483 0.104522 0.411272
O O3 0.113949 0.179998 0.423166
O O4 0.129237 0.000000 0.400295
O O5 0.500000 0.608977 0.795831
O O6 0.630152 0.500000 0.775992
O O7 0.632934 0.672466 0.747673
O O8 0.151765 0.847328 0.089939
O O9 0.154689 0.675528 0.081446
O O10 0.130927 0.740680 0.165845
O O11 0.000000 0.756929 0.105100
O O12 0.194712 0.606059 0.548542
O O13 0.104466 0.711996 0.497392
O O14 0.000000 0.615603 0.549046
O O15 0.661022 0.338979 0.500000
O O16 0.500000 0.333116 0.460129
O O17 0.000000 0.313153 0.426336
O O18 0.223818 0.500000 0.276028
O O19 0.156761 0.343240 0.250000
#
# Coordination Sequence:
#
# PCOD9559018 Si02
#       7
#    16  16  16  16  16  16  16
#     4  10  18  31  54  83 115 150 188 228 281 346
#     4   9  18  33  54  80 109 144 188 236 284 340
#     4  11  24  41  59  84 117 153 199 252 299 345
#     4  10  21  37  59  86 119 156 190 234 289 348
#     4  12  24  41  64  88 119 156 201 251 296 346
#     4  11  21  35  56  81 117 157 192 232 286 352
#     4  10  22  38  58  84 115 151 191 239 295 352
#
# _framework density 18.027616999999999
#
# number of rings (size 3 to 8) (size 9 to 14) (size 15 to 20)
#    0.000    1.571    2.857    2.143    0.000    4.857 
#    0.000    5.000    0.000    5.143    0.000    0.000 
#    0.000    0.286    0.000    0.000    0.000    0.000 
#
# Total GULP energy -312473.883466 kJ/mol
# GULP energy per Si atom -5579.890776 kJ/mol
# Density = 1.798659 g / cm^3
# Si number density = 18.027617 Si / 1000 Ang^3
#
#
#
# Elastic Constant Matrix: (Units=GPa)
#
#
# Indices 1 2 3 4 5 6 
#
# 1 77.9742 22.3090 20.2909 0.0000 0.0000 0.0000
# 2 22.3090 77.9699 20.2895 0.0000 0.0000 0.0000
# 3 20.2909 20.2895 69.4745 0.0000 0.0000 0.0000
# 4 0.0000 0.0000 0.0000 20.2824 0.0000 0.0000
# 5 0.0000 0.0000 0.0000 0.0000 20.2829 0.0000
# 6 0.0000 0.0000 0.0000 0.0000 0.0000 12.3025
#
#
#
# Elastic Compliance Matrix: (Units=1/GPa)
#
#
# Indices 1 2 3 4 5 6 
#
# 1 0.014636 -0.003328 -0.003303 0.000000 0.000000 0.000000
# 2 -0.003328 0.014637 -0.003303 0.000000 0.000000 0.000000
# 3 -0.003303 -0.003303 0.016323 0.000000 0.000000 0.000000
# 4 0.000000 0.000000 0.000000 0.049304 0.000000 0.000000
# 5 0.000000 0.000000 0.000000 0.000000 0.049303 0.000000
# 6 0.000000 0.000000 0.000000 0.000000 0.000000 0.081284
#
#
# Mechanical properties :
#
#
# Convention : Reuss Voigt Hill
#
# Bulk Modulus (GPa) = 38.86645 39.02193 38.94419
# Shear Modulus (GPa) = 19.69039 21.40885 20.54962
#
# Velocity S-wave (km/s) = 3.30848 3.44984 3.37990
# Velocity P-wave (km/s) = 6.01672 6.12871 6.07298
#
# Compressibility (1/GPa) = 0.02572913
#
# Stress axis : x y z
#
# Youngs Moduli (GPa) = 68.32235 68.31911 61.26371
#
# Poissons Ratio (x) = 0.22739 0.20234
# Poissons Ratio (y) = 0.22740 0.20233
# Poissons Ratio (z) = 0.22565 0.22563
#
# Static dielectric constant tensor:
#      x y z
#    x 1.624310 0.000000 0.000000 
#    y 0.000000 1.624310 0.000000 
#    z 0.000000 0.000000 1.594810 
# 
# From -- ./inp_files/8832.got.cif
#   From: 2010.05.17/outbox.cif.g08.bks.cpg/sg119_5_cif.got.tgz:8832.got - 2010.05.20 11:21:29.
