data_PCOD9559915
_publ_section_title
;
Structure prediction by ZEFSAII (Michael W. Deem and Ramdas Pophale) SiO2 
 PCOD9559915
Probable space group: I -4 C 2
;
_chemical_formula_sum "Si O2"
_cell_formula_units_Z 104
_cell_length_a 16.817890
_cell_length_b 16.817890
_cell_length_c 19.483290
_cell_angle_alpha 90.000000
_cell_angle_beta 90.000000
_cell_angle_gamma 90.000000
_cell_volume 5510.681489
_symmetry_space_group_name_H-M "I -4 C 2"
_symmetry_group_IT_number 120
_symmetry_cell_setting 'tetragonal'
loop_
_space_group_symop_operation_xyz
x,y,z
y,-x,-z
-x,-y,z
-y,x,-z
y,x,1/2-z
-y,-x,1/2-z
-x,y,1/2+z
x,-y,1/2+z
1/2+x,1/2+y,1/2+z
1/2+y,1/2-x,1/2-z
1/2-x,1/2-y,1/2+z
1/2-y,1/2+x,1/2-z
1/2+y,1/2+x,-z
1/2-y,1/2-x,-z
1/2-x,1/2+y,z
1/2+x,1/2-y,z
loop_
_atom_site_type_symbol
_atom_site_label
_atom_site_fract_x
_atom_site_fract_y
_atom_site_fract_z
Si Si1 0.243342 0.482242 0.990042
Si Si2 0.679745 0.437488 0.353573
Si Si3 0.200489 0.799512 0.750000
Si Si4 0.791488 0.266237 0.114820
Si Si5 0.869067 0.630933 0.500000
Si Si6 0.691714 0.808287 0.500000
Si Si7 0.127082 0.110306 0.826719
Si Si8 0.402722 0.481726 0.578587
O O1 0.256476 0.467261 0.908949
O O2 0.171036 0.543545 0.002004
O O3 0.213599 0.397973 0.018336
O O4 0.332100 0.505135 0.021191
O O5 0.706913 0.381192 0.292392
O O6 0.641664 0.516702 0.322819
O O7 0.608621 0.396681 0.396772
O O8 0.265399 0.792671 0.690064
O O9 0.847979 0.189891 0.123250
O O10 0.835311 0.331301 0.069988
O O11 0.717599 0.242314 0.066471
O O12 0.140024 0.140024 0.750000
O O13 0.040839 0.121077 0.859998
O O14 0.500000 0.500000 0.566810
#
# Coordination Sequence:
#
# PCOD9559915 Si02
#       8
#    16  16   8  16   8   8  16  16
#     4  12  24  42  66  96 131 171 226 281 332 393
#     4  11  24  37  60  94 132 166 214 262 337 406
#     4  12  22  40  61  92 129 180 210 268 330 416
#     4  11  22  39  63  93 130 167 223 271 343 394
#     4  11  26  43  64  96 130 179 225 290 332 396
#     4  11  24  43  66  94 126 173 227 284 322 414
#     4  11  21  38  58  89 130 166 208 261 322 402
#     4  10  24  36  61  99 135 170 207 271 337 403
#
# _framework density 18.872440000000001
#
# number of rings (size 3 to 8) (size 9 to 14) (size 15 to 20)
#    0.000    0.923    5.385    1.846    6.462    2.462 
#    0.000    0.000    0.000    0.000    0.000    0.000 
#    0.000    0.000    0.000    0.000    0.000    0.000 
#
# Total GULP energy -289794.948566 kJ/mol
# GULP energy per Si atom -5572.979780 kJ/mol
# Density = 1.882949 g / cm^3
# Si number density = 18.872440 Si / 1000 Ang^3
#
#
#
# Elastic Constant Matrix: (Units=GPa)
#
#
# Indices 1 2 3 4 5 6 
#
# 1 71.1585 46.7372 23.8564 0.0000 0.0000 0.0000
# 2 46.7372 71.1585 23.8566 0.0000 0.0000 0.0000
# 3 23.8564 23.8566 104.2602 0.0000 0.0000 0.0000
# 4 0.0000 0.0000 0.0000 28.4631 0.0000 0.0000
# 5 0.0000 0.0000 0.0000 0.0000 28.4628 0.0000
# 6 0.0000 0.0000 0.0000 0.0000 0.0000 31.8701
#
#
#
# Elastic Compliance Matrix: (Units=1/GPa)
#
#
# Indices 1 2 3 4 5 6 
#
# 1 0.025148 -0.015800 -0.002139 0.000000 0.000000 0.000000
# 2 -0.015800 0.025148 -0.002139 0.000000 0.000000 0.000000
# 3 -0.002139 -0.002139 0.010570 0.000000 0.000000 0.000000
# 4 0.000000 0.000000 0.000000 0.035133 0.000000 0.000000
# 5 0.000000 0.000000 0.000000 0.000000 0.035134 0.000000
# 6 0.000000 0.000000 0.000000 0.000000 0.000000 0.031377
#
#
# Mechanical properties :
#
#
# Convention : Reuss Voigt Hill
#
# Bulk Modulus (GPa) = 48.28592 48.38642 48.33617
# Shear Modulus (GPa) = 23.85849 27.90099 25.87974
#
# Velocity S-wave (km/s) = 3.55941 3.84917 3.70712
# Velocity P-wave (km/s) = 6.52177 6.74160 6.63259
#
# Compressibility (1/GPa) = 0.02070997
#
# Stress axis : x y z
#
# Youngs Moduli (GPa) = 39.76505 39.76497 94.60534
#
# Poissons Ratio (x) = 0.62829 0.20235
# Poissons Ratio (y) = 0.62829 0.20236
# Poissons Ratio (z) = 0.08505 0.08506
#
# Static dielectric constant tensor:
#      x y z
#    x 1.694540 0.000000 0.000000 
#    y 0.000000 1.694540 0.000000 
#    z 0.000000 0.000000 1.678410 
# 
# From -- ./inp_files/4558.got.cif
#   From: 2010.05.17/outbox.cif.g08.bks.cpg/sg120_3_cif.got.tgz:4558.got - 2010.05.20 11:28:13.
