data_PCOD9559619
_publ_section_title
;
Structure prediction by ZEFSAII (Michael W. Deem and Ramdas Pophale) SiO2 
 PCOD9559619
Probable space group: I -4 C 2
;
_chemical_formula_sum "Si O2"
_cell_formula_units_Z 80
_cell_length_a 14.945565
_cell_length_b 14.945565
_cell_length_c 17.799876
_cell_angle_alpha 90.000000
_cell_angle_beta 90.000000
_cell_angle_gamma 90.000000
_cell_volume 3975.956757
_symmetry_space_group_name_H-M "I -4 C 2"
_symmetry_group_IT_number 120
_symmetry_cell_setting 'tetragonal'
loop_
_space_group_symop_operation_xyz
x,y,z
y,-x,-z
-x,-y,z
-y,x,-z
y,x,1/2-z
-y,-x,1/2-z
-x,y,1/2+z
x,-y,1/2+z
1/2+x,1/2+y,1/2+z
1/2+y,1/2-x,1/2-z
1/2-x,1/2-y,1/2+z
1/2-y,1/2+x,1/2-z
1/2+y,1/2+x,-z
1/2-y,1/2-x,-z
1/2-x,1/2+y,z
1/2+x,1/2-y,z
loop_
_atom_site_type_symbol
_atom_site_label
_atom_site_fract_x
_atom_site_fract_y
_atom_site_fract_z
Si Si1 0.142059 0.509558 0.776867
Si Si2 0.789877 0.786594 0.569819
Si Si3 0.629066 0.552587 0.520454
Si Si4 0.747704 0.530092 0.146407
Si Si5 0.110063 0.379854 0.411905
O O1 0.089956 0.418292 0.758951
O O2 0.237497 0.514453 0.735158
O O3 0.137444 0.533489 0.864255
O O4 0.721742 0.778259 0.500000
O O5 0.884125 0.808060 0.528706
O O6 0.763620 0.866137 0.624998
O O7 0.806929 0.688865 0.604558
O O8 0.606329 0.463408 0.473465
O O9 0.670353 0.520650 0.599287
O O10 0.837566 0.483614 0.113861
O O11 0.104976 0.395025 0.500000
#
# Coordination Sequence:
#
# PCOD9559619 Si02
#       5
#    16  16  16  16  16
#     4   9  20  37  54  79 119 158 194 248 318 371
#     4  10  19  33  55  89 116 151 206 255 297 370
#     4   9  17  32  56  84 116 156 199 251 305 356
#     4  10  19  34  56  82 114 154 195 251 308 362
#     4  10  19  36  57  82 115 151 197 248 300 369
#
# _framework density 20.120943
#
# number of rings (size 3 to 8) (size 9 to 14) (size 15 to 20)
#    0.000    2.400    4.000    0.000    0.000    2.400 
#    0.000    7.000    0.000    1.200    0.000    5.600 
#    0.000    0.000    0.000    0.000    0.000    0.000 
#
# Total GULP energy -222770.823685 kJ/mol
# GULP energy per Si atom -5569.270592 kJ/mol
# Density = 2.007515 g / cm^3
# Si number density = 20.120943 Si / 1000 Ang^3
#
#
#
# Elastic Constant Matrix: (Units=GPa)
#
#
# Indices 1 2 3 4 5 6 
#
# 1 55.1746 12.0677 24.8471 0.0000 0.0000 0.0000
# 2 12.0677 55.1738 24.8473 0.0000 0.0000 0.0000
# 3 24.8471 24.8473 96.0162 0.0000 0.0000 0.0000
# 4 0.0000 0.0000 0.0000 24.9348 0.0000 0.0000
# 5 0.0000 0.0000 0.0000 0.0000 24.9349 0.0000
# 6 0.0000 0.0000 0.0000 0.0000 0.0000 24.1588
#
#
#
# Elastic Compliance Matrix: (Units=1/GPa)
#
#
# Indices 1 2 3 4 5 6 
#
# 1 0.020793 -0.002405 -0.004759 0.000000 0.000000 0.000000
# 2 -0.002405 0.020794 -0.004759 0.000000 0.000000 0.000000
# 3 -0.004759 -0.004759 0.012878 0.000000 0.000000 0.000000
# 4 0.000000 0.000000 0.000000 0.040105 0.000000 0.000000
# 5 0.000000 0.000000 0.000000 0.000000 0.040104 0.000000
# 6 0.000000 0.000000 0.000000 0.000000 0.000000 0.041393
#
#
# Mechanical properties :
#
#
# Convention : Reuss Voigt Hill
#
# Bulk Modulus (GPa) = 32.65803 36.65430 34.65617
# Shear Modulus (GPa) = 23.79622 24.44587 24.12104
#
# Velocity S-wave (km/s) = 3.44271 3.48939 3.46613
# Velocity P-wave (km/s) = 5.66296 5.87290 5.76889
#
# Compressibility (1/GPa) = 0.03062034
#
# Stress axis : x y z
#
# Youngs Moduli (GPa) = 48.09265 48.09173 77.65314
#
# Poissons Ratio (x) = 0.11566 0.36951
# Poissons Ratio (y) = 0.11566 0.36952
# Poissons Ratio (z) = 0.22885 0.22885
#
# Static dielectric constant tensor:
#      x y z
#    x 1.751770 0.000000 0.000000 
#    y 0.000000 1.751770 0.000000 
#    z 0.000000 0.000000 1.755110 
# 
# From -- ./inp_files/5188.got.cif
#   From: 2010.05.17/outbox.cif.g08.bks.cpg/sg120_3_cif.got.tgz:5188.got - 2010.05.20 11:28:13.
