data_PCOD9559373
_publ_section_title
;
Structure prediction by ZEFSAII (Michael W. Deem and Ramdas Pophale) SiO2 
 PCOD9559373
Probable space group: I -4 M 2
;
_chemical_formula_sum "Si O2"
_cell_formula_units_Z 56
_cell_length_a 18.820272
_cell_length_b 18.820272
_cell_length_c 7.309743
_cell_angle_alpha 90.000000
_cell_angle_beta 90.000000
_cell_angle_gamma 90.000000
_cell_volume 2589.130255
_symmetry_space_group_name_H-M "I -4 M 2"
_symmetry_group_IT_number 119
_symmetry_cell_setting 'tetragonal'
loop_
_space_group_symop_operation_xyz
x,y,z
y,-x,-z
-x,-y,z
-y,x,-z
y,x,-z
-y,-x,-z
-x,y,z
x,-y,z
1/2+x,1/2+y,1/2+z
1/2+y,1/2-x,1/2-z
1/2-x,1/2-y,1/2+z
1/2-y,1/2+x,1/2-z
1/2+y,1/2+x,1/2-z
1/2-y,1/2-x,1/2-z
1/2-x,1/2+y,1/2+z
1/2+x,1/2-y,1/2+z
loop_
_atom_site_type_symbol
_atom_site_label
_atom_site_fract_x
_atom_site_fract_y
_atom_site_fract_z
Si Si1 0.420169 0.833271 0.022986
Si Si2 0.175211 0.918139 0.366569
Si Si3 0.849875 0.150126 0.000000
Si Si4 0.706568 0.080395 0.908843
O O1 0.500000 0.856369 0.072718
O O2 0.359880 0.892903 0.028779
O O3 0.421661 0.813299 0.805813
O O4 0.402805 0.759708 0.126391
O O5 0.134413 0.865588 0.500000
O O6 0.143230 0.903819 0.167274
O O7 0.166945 0.000000 0.423281
O O8 0.864513 0.229258 0.071407
O O9 0.727780 0.000000 0.961789
#
# Coordination Sequence:
#
# PCOD9559373 Si02
#       4
#    16  16   8  16
#     4   9  20  39  63  93 130 169 212 266 323 381
#     4  11  24  43  66  93 128 169 214 266 324 385
#     4  12  24  38  66  95 130 164 215 266 316 378
#     4  10  21  37  62  96 130 170 217 263 319 382
#
# _framework density 21.628883999999999
#
# number of rings (size 3 to 8) (size 9 to 14) (size 15 to 20)
#    0.000    1.714    2.857    0.857    2.000    3.143 
#    0.000    2.857    0.000    3.857    0.000    4.000 
#    0.000    0.000    0.000    0.000    0.000    0.000 
#
# Total GULP energy -156501.786637 kJ/mol
# GULP energy per Si atom -5589.349523 kJ/mol
# Density = 2.157966 g / cm^3
# Si number density = 21.628884 Si / 1000 Ang^3
#
#
#
# Elastic Constant Matrix: (Units=GPa)
#
#
# Indices 1 2 3 4 5 6 
#
# 1 91.9559 69.4734 11.4452 0.0000 0.0000 0.0000
# 2 69.4734 91.9583 11.4478 0.0000 0.0000 0.0000
# 3 11.4452 11.4478 58.9816 0.0000 0.0000 0.0000
# 4 0.0000 0.0000 0.0000 26.8138 0.0000 0.0000
# 5 0.0000 0.0000 0.0000 0.0000 26.8136 0.0000
# 6 0.0000 0.0000 0.0000 0.0000 0.0000 15.6608
#
#
#
# Elastic Compliance Matrix: (Units=1/GPa)
#
#
# Indices 1 2 3 4 5 6 
#
# 1 0.025423 -0.019053 -0.001235 0.000000 0.000000 0.000000
# 2 -0.019053 0.025423 -0.001237 0.000000 0.000000 0.000000
# 3 -0.001235 -0.001237 0.017434 0.000000 0.000000 0.000000
# 4 0.000000 0.000000 0.000000 0.037294 0.000000 0.000000
# 5 0.000000 0.000000 0.000000 0.000000 0.037294 0.000000
# 6 0.000000 0.000000 0.000000 0.000000 0.000000 0.063854
#
#
# Mechanical properties :
#
#
# Convention : Reuss Voigt Hill
#
# Bulk Modulus (GPa) = 39.63648 47.51428 43.57538
# Shear Modulus (GPa) = 19.36598 23.89294 21.62946
#
# Velocity S-wave (km/s) = 2.99553 3.32727 3.16575
# Velocity P-wave (km/s) = 5.50725 6.06438 5.79251
#
# Compressibility (1/GPa) = 0.02522928
#
# Stress axis : x y z
#
# Youngs Moduli (GPa) = 39.33370 39.33432 57.35838
#
# Poissons Ratio (x) = 0.74945 0.07085
# Poissons Ratio (y) = 0.74944 0.07096
# Poissons Ratio (z) = 0.04859 0.04866
#
# Static dielectric constant tensor:
#      x y z
#    x 1.746970 0.000000 0.000000 
#    y 0.000000 1.746970 0.000000 
#    z 0.000000 0.000000 1.869340 
# 
# From -- ./inp_files/2001.got.cif
#   From: 2010.05.17/outbox.cif.g08.bks.cpg/sg119_2_cif.got.tgz:2001.got - 2010.05.20 11:21:29.
