data_PCOD9559291
_publ_section_title
;
Structure prediction by ZEFSAII (Michael W. Deem and Ramdas Pophale) SiO2 
 PCOD9559291
Probable space group: I -4 M 2
;
_chemical_formula_sum "Si O2"
_cell_formula_units_Z 58
_cell_length_a 11.770426
_cell_length_b 11.770426
_cell_length_c 23.783512
_cell_angle_alpha 90.000000
_cell_angle_beta 90.000000
_cell_angle_gamma 90.000000
_cell_volume 3295.037396
_symmetry_space_group_name_H-M "I -4 M 2"
_symmetry_group_IT_number 119
_symmetry_cell_setting 'tetragonal'
loop_
_space_group_symop_operation_xyz
x,y,z
y,-x,-z
-x,-y,z
-y,x,-z
y,x,-z
-y,-x,-z
-x,y,z
x,-y,z
1/2+x,1/2+y,1/2+z
1/2+y,1/2-x,1/2-z
1/2-x,1/2-y,1/2+z
1/2-y,1/2+x,1/2-z
1/2+y,1/2+x,1/2-z
1/2-y,1/2-x,1/2-z
1/2-x,1/2+y,1/2+z
1/2+x,1/2-y,1/2+z
loop_
_atom_site_type_symbol
_atom_site_label
_atom_site_fract_x
_atom_site_fract_y
_atom_site_fract_z
Si Si1 0.216911 0.636411 0.464124
Si Si2 0.868411 0.500000 0.966824
Si Si3 0.292909 0.000000 0.341101
Si Si4 0.000000 0.500000 0.750000
Si Si5 0.634785 0.281284 0.858254
Si Si6 0.126259 0.626259 0.250000
O O1 0.326893 0.673108 0.500000
O O2 0.215105 0.500000 0.454930
O O3 0.193982 0.704972 0.406657
O O4 0.113368 0.676794 0.504500
O O5 0.857971 0.500000 0.900433
O O6 0.000000 0.500000 0.981925
O O7 0.209181 0.892167 0.345263
O O8 0.386354 0.000000 0.290362
O O9 0.500000 0.302221 0.872054
O O10 0.637682 0.212282 0.800395
O O11 0.136957 0.500000 0.274647
#
# Coordination Sequence:
#
# PCOD9559291 Si02
#       6
#    16   8   8   2  16   8
#     4  11  22  37  61  90 124 164 205 253 318 381
#     4  10  20  37  59  86 116 155 201 248 305 371
#     4  12  23  40  61  88 120 161 207 261 308 377
#     4  12  28  44  68  88 120 176 224 254 320 392
#     4  11  22  38  60  90 122 155 201 258 317 373
#     4   9  19  36  59  83 112 152 196 245 295 364
#
# _framework density 17.602226999999999
#
# number of rings (size 3 to 8) (size 9 to 14) (size 15 to 20)
#    0.000    1.241    4.828    2.069    0.000    1.379 
#    0.000    0.000    0.000    0.000    0.000    0.000 
#    0.000    0.000    0.000    0.000    0.000    0.000 
#
# Total GULP energy -161530.791851 kJ/mol
# GULP energy per Si atom -5570.027305 kJ/mol
# Density = 1.756216 g / cm^3
# Si number density = 17.602227 Si / 1000 Ang^3
#
#
#
# Elastic Constant Matrix: (Units=GPa)
#
#
# Indices 1 2 3 4 5 6 
#
# 1 110.6985 68.6253 49.6833 0.0000 0.0000 0.0000
# 2 68.6253 110.7006 49.6835 0.0000 0.0000 0.0000
# 3 49.6833 49.6835 92.8609 0.0000 0.0000 0.0000
# 4 0.0000 0.0000 0.0000 21.7628 0.0000 0.0000
# 5 0.0000 0.0000 0.0000 0.0000 21.7620 0.0000
# 6 0.0000 0.0000 0.0000 0.0000 0.0000 25.6122
#
#
#
# Elastic Compliance Matrix: (Units=1/GPa)
#
#
# Indices 1 2 3 4 5 6 
#
# 1 0.015847 -0.007921 -0.004241 0.000000 0.000000 0.000000
# 2 -0.007921 0.015847 -0.004241 0.000000 0.000000 0.000000
# 3 -0.004241 -0.004241 0.015307 0.000000 0.000000 0.000000
# 4 0.000000 0.000000 0.000000 0.045950 0.000000 0.000000
# 5 0.000000 0.000000 0.000000 0.000000 0.045952 0.000000
# 6 0.000000 0.000000 0.000000 0.000000 0.000000 0.039044
#
#
# Mechanical properties :
#
#
# Convention : Reuss Voigt Hill
#
# Bulk Modulus (GPa) = 70.44175 72.24933 71.34554
# Shear Modulus (GPa) = 23.20371 23.57860 23.39115
#
# Velocity S-wave (km/s) = 3.63468 3.66392 3.64933
# Velocity P-wave (km/s) = 7.59737 7.68334 7.64048
#
# Compressibility (1/GPa) = 0.01419613
#
# Stress axis : x y z
#
# Youngs Moduli (GPa) = 63.10291 63.10429 65.33053
#
# Poissons Ratio (x) = 0.49982 0.27706
# Poissons Ratio (y) = 0.49981 0.27705
# Poissons Ratio (z) = 0.26762 0.26761
#
# Static dielectric constant tensor:
#      x y z
#    x 1.638260 0.000000 0.000000 
#    y 0.000000 1.638260 0.000000 
#    z 0.000000 0.000000 1.568330 
# 
# From -- ./inp_files/7444.got.cif
#   From: 2010.05.17/outbox.cif.g08.bks.cpg/sg119_4_cif.got.tgz:7444.got - 2010.05.20 11:21:29.
