data_PCOD9559055
_publ_section_title
;
Structure prediction by ZEFSAII (Michael W. Deem and Ramdas Pophale) SiO2 
 PCOD9559055
Probable space group: I -4 M 2
;
_chemical_formula_sum "Si O2"
_cell_formula_units_Z 64
_cell_length_a 26.154903
_cell_length_b 26.154903
_cell_length_c 4.976375
_cell_angle_alpha 90.000000
_cell_angle_beta 90.000000
_cell_angle_gamma 90.000000
_cell_volume 3404.233389
_symmetry_space_group_name_H-M "I -4 M 2"
_symmetry_group_IT_number 119
_symmetry_cell_setting 'tetragonal'
loop_
_space_group_symop_operation_xyz
x,y,z
y,-x,-z
-x,-y,z
-y,x,-z
y,x,-z
-y,-x,-z
-x,y,z
x,-y,z
1/2+x,1/2+y,1/2+z
1/2+y,1/2-x,1/2-z
1/2-x,1/2-y,1/2+z
1/2-y,1/2+x,1/2-z
1/2+y,1/2+x,1/2-z
1/2-y,1/2-x,1/2-z
1/2-x,1/2+y,1/2+z
1/2+x,1/2-y,1/2+z
loop_
_atom_site_type_symbol
_atom_site_label
_atom_site_fract_x
_atom_site_fract_y
_atom_site_fract_z
Si Si1 0.392938 0.688760 0.533066
Si Si2 0.058612 0.285771 0.777388
Si Si3 0.857105 0.442178 0.214705
Si Si4 0.440911 0.640378 0.037150
O O1 0.336908 0.663093 0.500000
O O2 0.403224 0.744051 0.404826
O O3 0.411648 0.680252 0.838319
O O4 0.429741 0.654778 0.344122
O O5 0.074153 0.314021 0.503058
O O6 0.000000 0.264375 0.741741
O O7 0.055242 0.329407 0.000344
O O8 0.872995 0.500000 0.135896
O O9 0.903666 0.403666 0.250000
O O10 0.500000 0.640979 0.973875
O O11 0.413936 0.586065 0.000000
#
# Coordination Sequence:
#
# PCOD9559055 Si02
#       4
#    16  16  16  16
#     4  10  20  33  51  75 101 133 176 226 272 313
#     4  10  19  33  55  79 106 140 178 220 263 312
#     4  10  21  36  56  83 111 141 174 210 259 317
#     4  10  19  30  45  67  97 132 172 219 271 325
#
# _framework density 18.800121000000001
#
# number of rings (size 3 to 8) (size 9 to 14) (size 15 to 20)
#    0.000    2.000    0.000    4.500    0.000    2.500 
#    0.000    0.000    0.000   12.000    0.000    0.000 
#    0.000    0.000    0.000    0.000    0.000    0.000 
#
# Total GULP energy -178371.559266 kJ/mol
# GULP energy per Si atom -5574.111227 kJ/mol
# Density = 1.875733 g / cm^3
# Si number density = 18.800121 Si / 1000 Ang^3
#
#
#
# Elastic Constant Matrix: (Units=GPa)
#
#
# Indices 1 2 3 4 5 6 
#
# 1 69.5959 48.3234 -10.9002 0.0000 0.0000 0.0000
# 2 48.3234 69.5961 -10.9001 0.0000 0.0000 0.0000
# 3 -10.9002 -10.9001 66.7750 0.0000 0.0000 0.0000
# 4 0.0000 0.0000 0.0000 20.9389 0.0000 0.0000
# 5 0.0000 0.0000 0.0000 0.0000 20.9387 0.0000
# 6 0.0000 0.0000 0.0000 0.0000 0.0000 20.0093
#
#
#
# Elastic Compliance Matrix: (Units=1/GPa)
#
#
# Indices 1 2 3 4 5 6 
#
# 1 0.027877 -0.019132 0.001427 0.000000 0.000000 0.000000
# 2 -0.019132 0.027876 0.001427 0.000000 0.000000 0.000000
# 3 0.001427 0.001427 0.015442 0.000000 0.000000 0.000000
# 4 0.000000 0.000000 0.000000 0.047758 0.000000 0.000000
# 5 0.000000 0.000000 0.000000 0.000000 0.047758 0.000000
# 6 0.000000 0.000000 0.000000 0.000000 0.000000 0.049977
#
#
# Mechanical properties :
#
#
# Convention : Reuss Voigt Hill
#
# Bulk Modulus (GPa) = 25.88009 28.77923 27.32966
# Shear Modulus (GPa) = 19.07501 24.34029 21.70765
#
# Velocity S-wave (km/s) = 3.18877 3.60208 3.40171
# Velocity P-wave (km/s) = 5.23005 5.71325 5.47698
#
# Compressibility (1/GPa) = 0.03863975
#
# Stress axis : x y z
#
# Youngs Moduli (GPa) = 35.87240 35.87252 64.75982
#
# Poissons Ratio (x) = 0.68632 -0.09244
# Poissons Ratio (y) = 0.68632 -0.09244
# Poissons Ratio (z) = -0.05121 -0.05120
#
# Static dielectric constant tensor:
#      x y z
#    x 1.667960 0.000000 0.000000 
#    y 0.000000 1.667960 0.000000 
#    z 0.000000 0.000000 1.646600 
# 
# From -- ./inp_files/751.got.cif
#   From: 2010.05.17/outbox.cif.g08.bks.cpg/sg119_1_cif.got.tgz:751.got - 2010.05.20 11:21:29.
