data_PCOD9559118
_publ_section_title
;
Structure prediction by ZEFSAII (Michael W. Deem and Ramdas Pophale) SiO2 
 PCOD9559118
Probable space group: I -4 M 2
;
_chemical_formula_sum "Si O2"
_cell_formula_units_Z 120
_cell_length_a 15.096686
_cell_length_b 15.096686
_cell_length_c 30.208502
_cell_angle_alpha 90.000000
_cell_angle_beta 90.000000
_cell_angle_gamma 90.000000
_cell_volume 6884.817521
_symmetry_space_group_name_H-M "I -4 M 2"
_symmetry_group_IT_number 119
_symmetry_cell_setting 'tetragonal'
loop_
_space_group_symop_operation_xyz
x,y,z
y,-x,-z
-x,-y,z
-y,x,-z
y,x,-z
-y,-x,-z
-x,y,z
x,-y,z
1/2+x,1/2+y,1/2+z
1/2+y,1/2-x,1/2-z
1/2-x,1/2-y,1/2+z
1/2-y,1/2+x,1/2-z
1/2+y,1/2+x,1/2-z
1/2-y,1/2-x,1/2-z
1/2-x,1/2+y,1/2+z
1/2+x,1/2-y,1/2+z
loop_
_atom_site_type_symbol
_atom_site_label
_atom_site_fract_x
_atom_site_fract_y
_atom_site_fract_z
Si Si1 0.157387 0.215418 0.425266
Si Si2 0.602379 0.167871 0.057853
Si Si3 0.899643 0.779624 0.327945
Si Si4 0.601952 0.101136 0.154025
Si Si5 0.904647 0.904647 0.500000
Si Si6 0.898692 0.606084 0.041063
Si Si7 0.713387 0.744946 0.300305
Si Si8 0.600140 0.397016 0.258687
O O1 0.252497 0.170229 0.432747
O O2 0.116520 0.189182 0.378075
O O3 0.101514 0.173958 0.465310
O O4 0.153923 0.321233 0.431421
O O5 0.500000 0.200476 0.055676
O O6 0.606640 0.105580 0.100722
O O7 0.621140 0.121254 0.011124
O O8 0.811798 0.722062 0.317744
O O9 0.892305 0.854264 0.289827
O O10 0.000000 0.742331 0.324745
O O11 0.500000 0.125630 0.166248
O O12 0.675809 0.167695 0.172622
O O13 0.617820 0.000000 0.168957
O O14 0.000000 0.900278 0.523222
O O15 0.890591 0.500000 0.048837
O O16 0.000000 0.631773 0.051148
O O17 0.721988 0.778013 0.250000
O O18 0.652590 0.659312 0.294905
O O19 0.500000 0.364186 0.255330
O O20 0.600394 0.500000 0.270874
#
# Coordination Sequence:
#
# PCOD9559118 Si02
#       8
#    16  16  16  16   8  16  16  16
#     4  12  20  34  53  76 107 141 183 225 270 316
#     4  10  19  33  53  75 106 145 180 217 267 321
#     4  10  21  35  53  76 109 147 181 220 272 328
#     4  10  20  33  51  77 108 141 176 215 265 327
#     4  11  22  32  46  74 110 146 177 212 264 318
#     4  10  20  34  52  73 102 143 186 225 262 307
#     4  10  20  35  53  77 105 138 177 223 272 321
#     4   9  19  36  58  82 106 138 180 223 273 336
#
# _framework density 17.429656000000001
#
# number of rings (size 3 to 8) (size 9 to 14) (size 15 to 20)
#    0.000    1.800    2.667    2.400    0.000    5.333 
#    0.000    2.667    0.000    2.000    0.000    4.667 
#    0.000    8.533    0.000    0.000    0.000    0.133 
#
# Total GULP energy -334288.583327 kJ/mol
# GULP energy per Si atom -5571.476389 kJ/mol
# Density = 1.738999 g / cm^3
# Si number density = 17.429656 Si / 1000 Ang^3
#
#
#
# Elastic Constant Matrix: (Units=GPa)
#
#
# Indices 1 2 3 4 5 6 
#
# 1 100.4737 44.1042 22.3912 0.0000 0.0000 0.0000
# 2 44.1042 100.4738 22.3911 0.0000 0.0000 0.0000
# 3 22.3912 22.3911 52.1615 0.0000 0.0000 0.0000
# 4 0.0000 0.0000 0.0000 17.4864 0.0000 0.0000
# 5 0.0000 0.0000 0.0000 0.0000 17.4863 0.0000
# 6 0.0000 0.0000 0.0000 0.0000 0.0000 24.1106
#
#
#
# Elastic Compliance Matrix: (Units=1/GPa)
#
#
# Indices 1 2 3 4 5 6 
#
# 1 0.012859 -0.004881 -0.003424 0.000000 0.000000 0.000000
# 2 -0.004881 0.012859 -0.003424 0.000000 0.000000 0.000000
# 3 -0.003424 -0.003424 0.022111 0.000000 0.000000 0.000000
# 4 0.000000 0.000000 0.000000 0.057187 0.000000 0.000000
# 5 0.000000 0.000000 0.000000 0.000000 0.057188 0.000000
# 6 0.000000 0.000000 0.000000 0.000000 0.000000 0.041476
#
#
# Mechanical properties :
#
#
# Convention : Reuss Voigt Hill
#
# Bulk Modulus (GPa) = 41.03690 47.87574 44.45632
# Shear Modulus (GPa) = 21.25286 22.76481 22.00883
#
# Velocity S-wave (km/s) = 3.49571 3.61792 3.55734
# Velocity P-wave (km/s) = 6.31575 6.70672 6.51417
#
# Compressibility (1/GPa) = 0.02436831
#
# Stress axis : x y z
#
# Youngs Moduli (GPa) = 77.76808 77.76828 45.22592
#
# Poissons Ratio (x) = 0.37961 0.15487
# Poissons Ratio (y) = 0.37961 0.15487
# Poissons Ratio (z) = 0.26631 0.26631
#
# Static dielectric constant tensor:
#      x y z
#    x 1.618710 0.000000 0.000000 
#    y 0.000000 1.618700 0.000000 
#    z 0.000000 0.000000 1.592810 
# 
# From -- ./inp_files/10580.got.cif
#   From: 2010.05.17/outbox.cif.g08.bks.cpg/sg119_6_cif.got.tgz:10580.got - 2010.05.20 11:21:29.
