data_PCOD9559033
_publ_section_title
;
Structure prediction by ZEFSAII (Michael W. Deem and Ramdas Pophale) SiO2 
 PCOD9559033
Probable space group: I -4 M 2
;
_chemical_formula_sum "Si O2"
_cell_formula_units_Z 72
_cell_length_a 12.408855
_cell_length_b 12.408855
_cell_length_c 30.143685
_cell_angle_alpha 90.000000
_cell_angle_beta 90.000000
_cell_angle_gamma 90.000000
_cell_volume 4641.515043
_symmetry_space_group_name_H-M "I -4 M 2"
_symmetry_group_IT_number 119
_symmetry_cell_setting 'tetragonal'
loop_
_space_group_symop_operation_xyz
x,y,z
y,-x,-z
-x,-y,z
-y,x,-z
y,x,-z
-y,-x,-z
-x,y,z
x,-y,z
1/2+x,1/2+y,1/2+z
1/2+y,1/2-x,1/2-z
1/2-x,1/2-y,1/2+z
1/2-y,1/2+x,1/2-z
1/2+y,1/2+x,1/2-z
1/2-y,1/2-x,1/2-z
1/2-x,1/2+y,1/2+z
1/2+x,1/2-y,1/2+z
loop_
_atom_site_type_symbol
_atom_site_label
_atom_site_fract_x
_atom_site_fract_y
_atom_site_fract_z
Si Si1 0.000000 0.373570 0.846250
Si Si2 0.201556 0.233993 0.819082
Si Si3 0.769455 0.500000 0.557741
Si Si4 0.126012 0.126755 0.729761
Si Si5 0.378191 0.694806 0.586227
Si Si6 0.500000 0.128426 0.538101
O O1 0.104631 0.318394 0.825324
O O2 0.000000 0.342870 0.898309
O O3 0.000000 0.500000 0.839596
O O4 0.166728 0.155389 0.779215
O O5 0.305640 0.300171 0.803668
O O6 0.214140 0.172057 0.865417
O O7 0.694318 0.393429 0.561127
O O8 0.839485 0.500000 0.513456
O O9 0.000000 0.157432 0.725975
O O10 0.135312 0.000000 0.721953
O O11 0.500000 0.649671 0.591138
O O12 0.399086 0.807418 0.560535
O O13 0.500000 0.000000 0.544827
#
# Coordination Sequence:
#
# PCOD9559033 Si02
#       6
#     8  16   8  16  16   8
#     4  10  19  31  51  78 109 131 168 219 279 335
#     4  10  19  34  50  75 100 139 175 220 274 317
#     4  10  18  34  54  81 106 140 174 220 270 332
#     4  10  20  33  51  71 101 136 180 224 264 321
#     4   9  20  32  54  77 107 136 178 221 267 324
#     4  10  21  34  50  76 110 144 174 212 272 324
#
# _framework density 15.512176999999999
#
# number of rings (size 3 to 8) (size 9 to 14) (size 15 to 20)
#    0.667    1.556    1.111    2.667    0.000    0.889 
#    2.000    0.000    0.000    1.333    0.000    0.000 
#    0.000    8.889    0.000    0.000    0.000    0.000 
#
# Total GULP energy -200564.099054 kJ/mol
# GULP energy per Si atom -5571.224974 kJ/mol
# Density = 1.547687 g / cm^3
# Si number density = 15.512177 Si / 1000 Ang^3
#
#
#
# Elastic Constant Matrix: (Units=GPa)
#
#
# Indices 1 2 3 4 5 6 
#
# 1 77.7916 18.6403 21.9956 0.0000 0.0000 0.0000
# 2 18.6403 77.7916 21.9956 0.0000 0.0000 0.0000
# 3 21.9956 21.9956 52.4717 0.0000 0.0000 0.0000
# 4 0.0000 0.0000 0.0000 17.1320 0.0000 0.0000
# 5 0.0000 0.0000 0.0000 0.0000 17.1320 0.0000
# 6 0.0000 0.0000 0.0000 0.0000 0.0000 22.4835
#
#
#
# Elastic Compliance Matrix: (Units=1/GPa)
#
#
# Indices 1 2 3 4 5 6 
#
# 1 0.014864 -0.002042 -0.005375 0.000000 0.000000 0.000000
# 2 -0.002042 0.014864 -0.005375 0.000000 0.000000 0.000000
# 3 -0.005375 -0.005375 0.023564 0.000000 0.000000 0.000000
# 4 0.000000 0.000000 0.000000 0.058370 0.000000 0.000000
# 5 0.000000 0.000000 0.000000 0.000000 0.058370 0.000000
# 6 0.000000 0.000000 0.000000 0.000000 0.000000 0.044477
#
#
# Mechanical properties :
#
#
# Convention : Reuss Voigt Hill
#
# Bulk Modulus (GPa) = 36.08986 37.03532 36.56259
# Shear Modulus (GPa) = 20.05382 21.04437 20.54909
#
# Velocity S-wave (km/s) = 3.59942 3.68725 3.64360
# Velocity P-wave (km/s) = 6.37107 6.48495 6.42826
#
# Compressibility (1/GPa) = 0.02770862
#
# Stress axis : x y z
#
# Youngs Moduli (GPa) = 67.27716 67.27716 42.43748
#
# Poissons Ratio (x) = 0.13737 0.22810
# Poissons Ratio (y) = 0.13737 0.22810
# Poissons Ratio (z) = 0.36160 0.36160
#
# Static dielectric constant tensor:
#      x y z
#    x 1.499420 0.000000 0.000000 
#    y 0.000000 1.499420 0.000000 
#    z 0.000000 0.000000 1.507340 
# 
# From -- ./inp_files/10072.got.cif
#   From: 2010.05.17/outbox.cif.g08.bks.cpg/sg119_6_cif.got.tgz:10072.got - 2010.05.20 11:21:29.
