data_PCOD9559564
_publ_section_title
;
Structure prediction by ZEFSAII (Michael W. Deem and Ramdas Pophale) SiO2 
 PCOD9559564
Probable space group: I -4 C 2
;
_chemical_formula_sum "Si O2"
_cell_formula_units_Z 112
_cell_length_a 15.261719
_cell_length_b 15.261719
_cell_length_c 30.082989
_cell_angle_alpha 90.000000
_cell_angle_beta 90.000000
_cell_angle_gamma 90.000000
_cell_volume 7006.931808
_symmetry_space_group_name_H-M "I -4 C 2"
_symmetry_group_IT_number 120
_symmetry_cell_setting 'tetragonal'
loop_
_space_group_symop_operation_xyz
x,y,z
y,-x,-z
-x,-y,z
-y,x,-z
y,x,1/2-z
-y,-x,1/2-z
-x,y,1/2+z
x,-y,1/2+z
1/2+x,1/2+y,1/2+z
1/2+y,1/2-x,1/2-z
1/2-x,1/2-y,1/2+z
1/2-y,1/2+x,1/2-z
1/2+y,1/2+x,-z
1/2-y,1/2-x,-z
1/2-x,1/2+y,z
1/2+x,1/2-y,z
loop_
_atom_site_type_symbol
_atom_site_label
_atom_site_fract_x
_atom_site_fract_y
_atom_site_fract_z
Si Si1 0.863388 0.553942 0.301108
Si Si2 0.075265 0.075265 0.301083
Si Si3 0.647245 0.496440 0.451133
Si Si4 0.636612 0.946058 0.698892
Si Si5 0.303222 0.547515 0.857030
Si Si6 0.196778 0.952485 0.142970
Si Si7 0.503560 0.352755 0.451133
O O1 0.890918 0.452242 0.306777
O O2 0.833457 0.565546 0.250000
O O3 0.787021 0.576113 0.335007
O O4 0.952242 0.609082 0.306777
O O5 0.097215 0.097215 0.250000
O O6 0.031407 0.155043 0.327793
O O7 0.155043 0.031407 0.327793
O O8 0.000000 0.000000 0.300123
O O9 0.704318 0.516154 0.407957
O O10 0.594517 0.405483 0.445250
O O11 0.571255 0.571255 0.452198
O O12 0.689663 0.500000 0.500000
O O13 0.712979 0.923887 0.664993
O O14 0.373915 0.626085 0.855819
O O15 0.204318 0.983846 0.092043
#
# Coordination Sequence:
#
# PCOD9559564 Si02
#       7
#    16  16  16  16  16  16  16
#     4   9  19  36  52  64  87 127 165 191 224 278
#     4   9  16  24  38  64 100 127 138 171 237 292
#     4   8  13  23  41  66  96 128 156 185 228 283
#     4   9  19  36  52  64  87 127 165 191 224 278
#     4  10  17  28  47  72  98 120 152 193 237 278
#     4  10  17  28  47  72  98 120 152 193 237 278
#     4   8  13  23  41  66  96 128 156 185 228 283
#
# _framework density 15.984171999999999
#
# number of rings (size 3 to 8) (size 9 to 14) (size 15 to 20)
#    0.000    3.000    1.429    2.571    0.000    1.714 
#    2.571    0.000    0.000    1.714    0.000    8.000 
#    0.000    0.000    0.000    0.000    0.000    0.000 
#
# Total GULP energy -311822.392913 kJ/mol
# GULP energy per Si atom -5568.257016 kJ/mol
# Density = 1.594779 g / cm^3
# Si number density = 15.984172 Si / 1000 Ang^3
#
#
#
# Elastic Constant Matrix: (Units=GPa)
#
#
# Indices 1 2 3 4 5 6 
#
# 1 33.0298 -5.2918 30.2013 0.0000 0.0000 0.0000
# 2 -5.2918 33.0298 30.2013 0.0000 0.0000 0.0000
# 3 30.2013 30.2013 141.9565 0.0000 0.0000 0.0000
# 4 0.0000 0.0000 0.0000 15.9402 0.0000 0.0000
# 5 0.0000 0.0000 0.0000 0.0000 15.9402 0.0000
# 6 0.0000 0.0000 0.0000 0.0000 0.0000 1.9189
#
#
#
# Elastic Compliance Matrix: (Units=1/GPa)
#
#
# Indices 1 2 3 4 5 6 
#
# 1 0.046633 0.020538 -0.014291 0.000000 0.000000 0.000000
# 2 0.020538 0.046633 -0.014291 0.000000 0.000000 0.000000
# 3 -0.014291 -0.014291 0.013125 0.000000 0.000000 0.000000
# 4 0.000000 0.000000 0.000000 0.062734 0.000000 0.000000
# 5 0.000000 0.000000 0.000000 0.000000 0.062734 0.000000
# 6 0.000000 0.000000 0.000000 0.000000 0.000000 0.521138
#
#
# Mechanical properties :
#
#
# Convention : Reuss Voigt Hill
#
# Bulk Modulus (GPa) = 11.07363 35.35976 23.21670
# Shear Modulus (GPa) = 6.25637 16.95355 11.60496
#
# Velocity S-wave (km/s) = 1.98056 3.26029 2.69741
# Velocity P-wave (km/s) = 3.48899 6.02847 4.92521
#
# Compressibility (1/GPa) = 0.09030459
#
# Stress axis : x y z
#
# Youngs Moduli (GPa) = 21.44403 21.44403 76.18987
#
# Poissons Ratio (x) = -0.44042 1.08880
# Poissons Ratio (y) = -0.44042 1.08880
# Poissons Ratio (z) = 0.30645 0.30645
#
# Static dielectric constant tensor:
#      x y z
#    x 1.524190 0.000000 0.000000 
#    y 0.000000 1.524190 0.000000 
#    z 0.000000 0.000000 1.556810 
# 
# From -- ./inp_files/6678.got.cif
#   From: 2010.05.17/outbox.cif.g08.bks.cpg/sg120_4_cif.got.tgz:6678.got - 2010.05.20 11:28:13.
