data_PCOD9559621
_publ_section_title
;
Structure prediction by ZEFSAII (Michael W. Deem and Ramdas Pophale) SiO2 
 PCOD9559621
Probable space group: I -4 C 2
;
_chemical_formula_sum "Si O2"
_cell_formula_units_Z 88
_cell_length_a 35.191035
_cell_length_b 35.191035
_cell_length_c 5.270490
_cell_angle_alpha 90.000000
_cell_angle_beta 90.000000
_cell_angle_gamma 90.000000
_cell_volume 6527.021957
_symmetry_space_group_name_H-M "I -4 C 2"
_symmetry_group_IT_number 120
_symmetry_cell_setting 'tetragonal'
loop_
_space_group_symop_operation_xyz
x,y,z
y,-x,-z
-x,-y,z
-y,x,-z
y,x,1/2-z
-y,-x,1/2-z
-x,y,1/2+z
x,-y,1/2+z
1/2+x,1/2+y,1/2+z
1/2+y,1/2-x,1/2-z
1/2-x,1/2-y,1/2+z
1/2-y,1/2+x,1/2-z
1/2+y,1/2+x,-z
1/2-y,1/2-x,-z
1/2-x,1/2+y,z
1/2+x,1/2-y,z
loop_
_atom_site_type_symbol
_atom_site_label
_atom_site_fract_x
_atom_site_fract_y
_atom_site_fract_z
Si Si1 0.018264 0.895193 0.951990
Si Si2 0.818078 0.098042 0.152179
Si Si3 0.096694 0.903307 0.250000
Si Si4 0.233245 0.298643 0.746715
Si Si5 0.308215 0.488182 0.131378
Si Si6 0.140665 0.796535 0.829261
O O1 0.009975 0.910930 0.671335
O O2 0.006659 0.850424 0.918170
O O3 0.060124 0.901384 0.066083
O O4 0.863464 0.097842 0.102131
O O5 0.809961 0.054852 0.222398
O O6 0.805937 0.124927 0.388607
O O7 0.798860 0.109161 0.888867
O O8 0.265601 0.265601 0.750000
O O9 0.208150 0.291851 0.500000
O O10 0.256947 0.337141 0.706338
O O11 0.208685 0.291316 0.000000
O O12 0.289371 0.511049 0.357250
O O13 0.170832 0.829169 0.750000
#
# Coordination Sequence:
#
# PCOD9559621 Si02
#       6
#    16  16   8  16  16  16
#     4  10  22  35  48  64  74  93 128 143 184 255
#     4  12  22  30  47  67  85  97 120 165 200 219
#     4  12  22  34  54  63  78 102 120 158 202 226
#     4   9  17  30  45  56  80 114 133 142 166 209
#     4  10  19  34  46  61  80 102 125 142 188 255
#     4  11  21  30  42  68  87  98 126 157 184 213
#
# _framework density 13.482412999999999
#
# number of rings (size 3 to 8) (size 9 to 14) (size 15 to 20)
#    0.000    1.455    5.455    2.182    2.545    5.091 
#    0.000    0.000    0.000    1.636    0.000    0.000 
#    0.000    0.000    0.000    0.000    0.000    0.000 
#
# Total GULP energy -245037.129700 kJ/mol
# GULP energy per Si atom -5569.025675 kJ/mol
# Density = 1.345173 g / cm^3
# Si number density = 13.482413 Si / 1000 Ang^3
#
#
#
# Elastic Constant Matrix: (Units=GPa)
#
#
# Indices 1 2 3 4 5 6 
#
# 1 37.6385 22.3381 12.1641 0.0000 0.0000 0.0000
# 2 22.3381 37.6447 12.1669 0.0000 0.0000 0.0000
# 3 12.1641 12.1669 90.1753 0.0000 0.0000 0.0000
# 4 0.0000 0.0000 0.0000 12.6451 0.0000 0.0000
# 5 0.0000 0.0000 0.0000 0.0000 12.6445 0.0000
# 6 0.0000 0.0000 0.0000 0.0000 0.0000 9.7569
#
#
#
# Elastic Compliance Matrix: (Units=1/GPa)
#
#
# Indices 1 2 3 4 5 6 
#
# 1 0.041494 -0.023854 -0.002379 0.000000 0.000000 0.000000
# 2 -0.023854 0.041488 -0.002380 0.000000 0.000000 0.000000
# 3 -0.002379 -0.002380 0.011732 0.000000 0.000000 0.000000
# 4 0.000000 0.000000 0.000000 0.079082 0.000000 0.000000
# 5 0.000000 0.000000 0.000000 0.000000 0.079086 0.000000
# 6 0.000000 0.000000 0.000000 0.000000 0.000000 0.102491
#
#
# Mechanical properties :
#
#
# Convention : Reuss Voigt Hill
#
# Bulk Modulus (GPa) = 26.67469 28.75520 27.71495
# Shear Modulus (GPa) = 11.76210 14.92859 13.34534
#
# Velocity S-wave (km/s) = 2.95685 3.33117 3.14958
# Velocity P-wave (km/s) = 5.61115 6.01413 5.81613
#
# Compressibility (1/GPa) = 0.03748872
#
# Stress axis : x y z
#
# Youngs Moduli (GPa) = 24.09971 24.10337 85.24029
#
# Poissons Ratio (x) = 0.57495 0.20278
# Poissons Ratio (y) = 0.57486 0.20288
# Poissons Ratio (z) = 0.05733 0.05737
#
# Static dielectric constant tensor:
#      x y z
#    x 1.456820 0.000000 0.000000 
#    y 0.000000 1.456820 0.000000 
#    z 0.000000 0.000000 1.401900 
# 
# From -- ./inp_files/479.got.cif
#   From: 2010.05.17/outbox.cif.g08.bks.cpg/sg120_1_cif.got.tgz:479.got - 2010.05.20 11:28:13.
