data_PCOD9559006
_publ_section_title
;
Structure prediction by ZEFSAII (Michael W. Deem and Ramdas Pophale) SiO2 
 PCOD9559006
Probable space group: I -4 M 2
;
_chemical_formula_sum "Si O2"
_cell_formula_units_Z 112
_cell_length_a 14.432889
_cell_length_b 14.432889
_cell_length_c 28.666216
_cell_angle_alpha 90.000000
_cell_angle_beta 90.000000
_cell_angle_gamma 90.000000
_cell_volume 5971.410289
_symmetry_space_group_name_H-M "I -4 M 2"
_symmetry_group_IT_number 119
_symmetry_cell_setting 'tetragonal'
loop_
_space_group_symop_operation_xyz
x,y,z
y,-x,-z
-x,-y,z
-y,x,-z
y,x,-z
-y,-x,-z
-x,y,z
x,-y,z
1/2+x,1/2+y,1/2+z
1/2+y,1/2-x,1/2-z
1/2-x,1/2-y,1/2+z
1/2-y,1/2+x,1/2-z
1/2+y,1/2+x,1/2-z
1/2-y,1/2-x,1/2-z
1/2-x,1/2+y,1/2+z
1/2+x,1/2-y,1/2+z
loop_
_atom_site_type_symbol
_atom_site_label
_atom_site_fract_x
_atom_site_fract_y
_atom_site_fract_z
Si Si1 0.129255 0.398674 0.572970
Si Si2 0.399108 0.697448 0.039701
Si Si3 0.388201 0.390344 0.857517
Si Si4 0.100207 0.605075 0.816431
Si Si5 0.105064 0.887746 0.150841
Si Si6 0.656481 0.604477 0.549626
Si Si7 0.253141 0.254496 0.198120
O O1 0.098988 0.500000 0.555825
O O2 0.096776 0.307144 0.547599
O O3 0.104489 0.391552 0.627335
O O4 0.239302 0.396997 0.568250
O O5 0.500000 0.663724 0.023698
O O6 0.379871 0.649738 0.089549
O O7 0.327023 0.672978 0.000000
O O8 0.500000 0.382830 0.855540
O O9 0.365082 0.500000 0.844050
O O10 0.338701 0.305971 0.829029
O O11 0.101565 0.500000 0.800240
O O12 0.184116 0.661633 0.797504
O O13 0.000000 0.647279 0.805904
O O14 0.102394 0.864125 0.095510
O O15 0.175118 0.811926 0.173407
O O16 0.000000 0.879996 0.169744
O O17 0.130979 0.000000 0.154432
O O18 0.654219 0.654219 0.500000
O O19 0.625664 0.500000 0.539067
O O20 0.219323 0.280678 0.250000
#
# Coordination Sequence:
#
# PCOD9559006 Si02
#       7
#    16  16  16  16  16  16  16
#     4  10  19  32  53  80 114 154 191 231 286 354
#     4  11  21  35  58  86 116 153 199 247 292 345
#     4  10  22  41  63  88 120 157 198 248 308 365
#     4  10  19  33  53  78 110 145 181 223 281 353
#     4  10  21  38  59  85 121 159 193 236 292 354
#     4  10  18  30  51  80 113 149 188 228 273 333
#     4  12  24  38  58  84 113 148 198 248 292 350
#
# _framework density 18.756036999999999
#
# number of rings (size 3 to 8) (size 9 to 14) (size 15 to 20)
#    0.000    1.571    2.857    2.571    0.000    5.143 
#    0.000    2.143    0.000    0.429    0.000    1.000 
#    0.000    0.000    0.000    0.000    0.000    0.000 
#
# Total GULP energy -311853.296905 kJ/mol
# GULP energy per Si atom -5568.808873 kJ/mol
# Density = 1.871335 g / cm^3
# Si number density = 18.756037 Si / 1000 Ang^3
#
#
#
# Elastic Constant Matrix: (Units=GPa)
#
#
# Indices 1 2 3 4 5 6 
#
# 1 107.4193 40.7194 43.0864 0.0000 0.0000 0.0000
# 2 40.7194 107.4182 43.0856 0.0000 0.0000 0.0000
# 3 43.0864 43.0856 94.9420 0.0000 0.0000 0.0000
# 4 0.0000 0.0000 0.0000 22.2801 0.0000 0.0000
# 5 0.0000 0.0000 0.0000 0.0000 22.2802 0.0000
# 6 0.0000 0.0000 0.0000 0.0000 0.0000 23.0872
#
#
#
# Elastic Compliance Matrix: (Units=1/GPa)
#
#
# Indices 1 2 3 4 5 6 
#
# 1 0.012082 -0.002911 -0.004162 0.000000 0.000000 0.000000
# 2 -0.002911 0.012082 -0.004162 0.000000 0.000000 0.000000
# 3 -0.004162 -0.004162 0.014310 0.000000 0.000000 0.000000
# 4 0.000000 0.000000 0.000000 0.044883 0.000000 0.000000
# 5 0.000000 0.000000 0.000000 0.000000 0.044883 0.000000
# 6 0.000000 0.000000 0.000000 0.000000 0.000000 0.043314
#
#
# Mechanical properties :
#
#
# Convention : Reuss Voigt Hill
#
# Bulk Modulus (GPa) = 62.48095 62.61805 62.54950
# Shear Modulus (GPa) = 25.08031 25.72204 25.40117
#
# Velocity S-wave (km/s) = 3.66072 3.70726 3.68406
# Velocity P-wave (km/s) = 7.15909 7.19604 7.17759
#
# Compressibility (1/GPa) = 0.01600488
#
# Stress axis : x y z
#
# Youngs Moduli (GPa) = 82.76699 82.76671 69.87890
#
# Poissons Ratio (x) = 0.24089 0.29085
# Poissons Ratio (y) = 0.24090 0.29085
# Poissons Ratio (z) = 0.34450 0.34449
#
# Static dielectric constant tensor:
#      x y z
#    x 1.685350 0.000000 0.000000 
#    y 0.000000 1.685360 0.000000 
#    z 0.000000 0.000000 1.687300 
# 
# From -- ./inp_files/9573.got.cif
#   From: 2010.05.17/outbox.cif.g08.bks.cpg/sg119_5_cif.got.tgz:9573.got - 2010.05.20 11:21:29.
