data_PCOD9559788
_publ_section_title
;
Structure prediction by ZEFSAII (Michael W. Deem and Ramdas Pophale) SiO2 
 PCOD9559788
Probable space group: I -4 C 2
;
_chemical_formula_sum "Si O2"
_cell_formula_units_Z 88
_cell_length_a 12.758494
_cell_length_b 12.758494
_cell_length_c 25.258505
_cell_angle_alpha 90.000000
_cell_angle_beta 90.000000
_cell_angle_gamma 90.000000
_cell_volume 4111.558458
_symmetry_space_group_name_H-M "I -4 C 2"
_symmetry_group_IT_number 120
_symmetry_cell_setting 'tetragonal'
loop_
_space_group_symop_operation_xyz
x,y,z
y,-x,-z
-x,-y,z
-y,x,-z
y,x,1/2-z
-y,-x,1/2-z
-x,y,1/2+z
x,-y,1/2+z
1/2+x,1/2+y,1/2+z
1/2+y,1/2-x,1/2-z
1/2-x,1/2-y,1/2+z
1/2-y,1/2+x,1/2-z
1/2+y,1/2+x,-z
1/2-y,1/2-x,-z
1/2-x,1/2+y,z
1/2+x,1/2-y,z
loop_
_atom_site_type_symbol
_atom_site_label
_atom_site_fract_x
_atom_site_fract_y
_atom_site_fract_z
Si Si1 0.873542 0.721949 0.346732
Si Si2 0.627274 0.872727 0.000000
Si Si3 0.924264 0.233564 0.623146
Si Si4 0.666390 0.055374 0.760208
Si Si5 0.336456 0.055171 0.579795
Si Si6 0.361619 0.696165 0.589954
O O1 0.845854 0.827499 0.377447
O O2 0.903491 0.740563 0.286532
O O3 0.763345 0.663881 0.356731
O O4 0.970011 0.658543 0.372642
O O5 0.643043 0.781057 0.042975
O O6 0.638607 0.984134 0.029309
O O7 0.936084 0.279280 0.682809
O O8 0.906160 0.341274 0.589696
O O9 0.019266 0.168701 0.599242
O O10 0.562107 0.127256 0.753472
O O11 0.219942 0.104222 0.580343
#
# Coordination Sequence:
#
# PCOD9559788 Si02
#       6
#    16   8  16  16  16  16
#     4  10  21  39  60  90 128 170 207 264 321 384
#     4  10  24  41  68  93 122 162 214 267 336 372
#     4  11  22  38  62  89 129 172 209 261 330 375
#     4  11  20  34  63  92 126 165 218 270 319 384
#     4  10  23  42  63  91 124 160 214 265 317 395
#     4  10  23  41  62  91 124 160 209 266 325 389
#
# _framework density 21.403077
#
# number of rings (size 3 to 8) (size 9 to 14) (size 15 to 20)
#    0.000    1.636    3.636    0.545    0.000    9.455 
#    0.000    0.909    0.000    2.182    0.000    0.000 
#    0.000    0.000    0.000    0.000    0.000    0.000 
#
# Total GULP energy -245594.510956 kJ/mol
# GULP energy per Si atom -5581.693431 kJ/mol
# Density = 2.135436 g / cm^3
# Si number density = 21.403077 Si / 1000 Ang^3
#
#
#
# Elastic Constant Matrix: (Units=GPa)
#
#
# Indices 1 2 3 4 5 6 
#
# 1 64.1202 8.7339 -0.0517 0.0000 0.0000 0.0000
# 2 8.7339 64.1207 -0.0516 0.0000 0.0000 0.0000
# 3 -0.0517 -0.0516 68.4993 0.0000 0.0000 0.0000
# 4 0.0000 0.0000 0.0000 19.5745 0.0000 0.0000
# 5 0.0000 0.0000 0.0000 0.0000 19.5746 0.0000
# 6 0.0000 0.0000 0.0000 0.0000 0.0000 23.7657
#
#
#
# Elastic Compliance Matrix: (Units=1/GPa)
#
#
# Indices 1 2 3 4 5 6 
#
# 1 0.015891 -0.002164 0.000010 0.000000 0.000000 0.000000
# 2 -0.002164 0.015890 0.000010 0.000000 0.000000 0.000000
# 3 0.000010 0.000010 0.014599 0.000000 0.000000 0.000000
# 4 0.000000 0.000000 0.000000 0.051087 0.000000 0.000000
# 5 0.000000 0.000000 0.000000 0.000000 0.051087 0.000000
# 6 0.000000 0.000000 0.000000 0.000000 0.000000 0.042077
#
#
# Mechanical properties :
#
#
# Convention : Reuss Voigt Hill
#
# Bulk Modulus (GPa) = 23.75741 23.77795 23.76768
# Shear Modulus (GPa) = 23.92930 25.12359 24.52645
#
# Velocity S-wave (km/s) = 3.34732 3.42984 3.38883
# Velocity P-wave (km/s) = 5.10525 5.17868 5.14210
#
# Compressibility (1/GPa) = 0.04209214
#
# Stress axis : x y z
#
# Youngs Moduli (GPa) = 62.93051 62.93101 68.49923
#
# Poissons Ratio (x) = 0.13621 -0.00071
# Poissons Ratio (y) = 0.13621 -0.00071
# Poissons Ratio (z) = -0.00065 -0.00065
#
# Static dielectric constant tensor:
#      x y z
#    x 1.813440 0.000000 0.000000 
#    y 0.000000 1.813440 0.000000 
#    z 0.000000 0.000000 1.796690 
# 
# From -- ./inp_files/6565.got.cif
#   From: 2010.05.17/outbox.cif.g08.bks.cpg/sg120_4_cif.got.tgz:6565.got - 2010.05.20 11:28:13.
