data_PCOD9559136
_publ_section_title
;
Structure prediction by ZEFSAII (Michael W. Deem and Ramdas Pophale) SiO2 
 PCOD9559136
Probable space group: I -4 M 2
;
_chemical_formula_sum "Si O2"
_cell_formula_units_Z 104
_cell_length_a 18.253471
_cell_length_b 18.253471
_cell_length_c 17.312407
_cell_angle_alpha 90.000000
_cell_angle_beta 90.000000
_cell_angle_gamma 90.000000
_cell_volume 5768.307100
_symmetry_space_group_name_H-M "I -4 M 2"
_symmetry_group_IT_number 119
_symmetry_cell_setting 'tetragonal'
loop_
_space_group_symop_operation_xyz
x,y,z
y,-x,-z
-x,-y,z
-y,x,-z
y,x,-z
-y,-x,-z
-x,y,z
x,-y,z
1/2+x,1/2+y,1/2+z
1/2+y,1/2-x,1/2-z
1/2-x,1/2-y,1/2+z
1/2-y,1/2+x,1/2-z
1/2+y,1/2+x,1/2-z
1/2-y,1/2-x,1/2-z
1/2-x,1/2+y,1/2+z
1/2+x,1/2-y,1/2+z
loop_
_atom_site_type_symbol
_atom_site_label
_atom_site_fract_x
_atom_site_fract_y
_atom_site_fract_z
Si Si1 0.858858 0.221637 0.829648
Si Si2 0.692179 0.082117 0.031968
Si Si3 0.417182 0.771413 0.848110
Si Si4 0.781096 0.172903 0.335816
Si Si5 0.415118 0.084883 0.750000
Si Si6 0.667277 0.413376 0.431593
Si Si7 0.584484 0.216012 0.031629
O O1 0.913115 0.261261 0.888925
O O2 0.876930 0.230508 0.739846
O O3 0.781866 0.264980 0.839854
O O4 0.848541 0.138881 0.859302
O O5 0.627217 0.139465 0.039454
O O6 0.666350 0.000000 0.017753
O O7 0.751098 0.102553 0.965383
O O8 0.500000 0.752229 0.823960
O O9 0.356276 0.715216 0.820546
O O10 0.403273 0.853415 0.815420
O O11 0.413056 0.767869 0.940704
O O12 0.773577 0.127058 0.414229
O O13 0.500000 0.092660 0.722953
O O14 0.612458 0.387543 0.500000
O O15 0.661498 0.500000 0.417351
O O16 0.500000 0.210815 0.055193
#
# Coordination Sequence:
#
# PCOD9559136 Si02
#       7
#    16  16  16  16   8  16  16
#     4   9  18  31  50  73  97 132 170 205 248 295
#     4   9  18  32  50  74 104 133 162 201 249 303
#     4  10  20  33  51  76 104 135 170 203 242 295
#     4  10  19  34  52  70  97 128 167 216 255 289
#     4   9  18  32  50  78 118 150 164 187 236 298
#     4   9  17  30  49  75 107 139 167 197 241 300
#     4  10  21  35  52  73  96 129 170 209 252 299
#
# _framework density 18.029554000000001
#
# number of rings (size 3 to 8) (size 9 to 14) (size 15 to 20)
#    0.000    2.538    0.000    2.308    0.000    4.769 
#    0.000    5.385    0.000    0.462    0.000    8.615 
#    0.000    0.000    0.000    0.000    0.000    0.000 
#
# Total GULP energy -289842.117711 kJ/mol
# GULP energy per Si atom -5573.886879 kJ/mol
# Density = 1.798852 g / cm^3
# Si number density = 18.029554 Si / 1000 Ang^3
#
#
#
# Elastic Constant Matrix: (Units=GPa)
#
#
# Indices 1 2 3 4 5 6 
#
# 1 48.1124 7.4656 -3.6818 0.0000 0.0000 0.0000
# 2 7.4656 48.1116 -3.6809 0.0000 0.0000 0.0000
# 3 -3.6818 -3.6809 44.0770 0.0000 0.0000 0.0000
# 4 0.0000 0.0000 0.0000 16.6186 0.0000 0.0000
# 5 0.0000 0.0000 0.0000 0.0000 16.6185 0.0000
# 6 0.0000 0.0000 0.0000 0.0000 0.0000 18.7675
#
#
#
# Elastic Compliance Matrix: (Units=1/GPa)
#
#
# Indices 1 2 3 4 5 6 
#
# 1 0.021398 -0.003204 0.001520 0.000000 0.000000 0.000000
# 2 -0.003204 0.021398 0.001519 0.000000 0.000000 0.000000
# 3 0.001520 0.001519 0.022941 0.000000 0.000000 0.000000
# 4 0.000000 0.000000 0.000000 0.060173 0.000000 0.000000
# 5 0.000000 0.000000 0.000000 0.000000 0.060174 0.000000
# 6 0.000000 0.000000 0.000000 0.000000 0.000000 0.053284
#
#
# Mechanical properties :
#
#
# Convention : Reuss Voigt Hill
#
# Bulk Modulus (GPa) = 15.28863 15.61188 15.45026
# Shear Modulus (GPa) = 19.12035 19.74747 19.43391
#
# Velocity S-wave (km/s) = 3.26007 3.31310 3.28669
# Velocity P-wave (km/s) = 4.76118 4.82839 4.79490
#
# Compressibility (1/GPa) = 0.06540807
#
# Stress axis : x y z
#
# Youngs Moduli (GPa) = 46.73301 46.73236 43.58935
#
# Poissons Ratio (x) = 0.14974 -0.06625
# Poissons Ratio (y) = 0.14974 -0.06623
# Poissons Ratio (z) = -0.07103 -0.07100
#
# Static dielectric constant tensor:
#      x y z
#    x 1.610650 0.000000 0.000000 
#    y 0.000000 1.610660 0.000000 
#    z 0.000000 0.000000 1.642870 
# 
# From -- ./inp_files/6733.got.cif
#   From: 2010.05.17/outbox.cif.g08.bks.cpg/sg119_4_cif.got.tgz:6733.got - 2010.05.20 11:21:29.
