data_PCOD9559531
_publ_section_title
;
Structure prediction by ZEFSAII (Michael W. Deem and Ramdas Pophale) SiO2 
 PCOD9559531
Probable space group: I -4 M 2
;
_chemical_formula_sum "Si O2"
_cell_formula_units_Z 40
_cell_length_a 15.154995
_cell_length_b 15.154995
_cell_length_c 7.165573
_cell_angle_alpha 90.000000
_cell_angle_beta 90.000000
_cell_angle_gamma 90.000000
_cell_volume 1645.744906
_symmetry_space_group_name_H-M "I -4 M 2"
_symmetry_group_IT_number 119
_symmetry_cell_setting 'tetragonal'
loop_
_space_group_symop_operation_xyz
x,y,z
y,-x,-z
-x,-y,z
-y,x,-z
y,x,-z
-y,-x,-z
-x,y,z
x,-y,z
1/2+x,1/2+y,1/2+z
1/2+y,1/2-x,1/2-z
1/2-x,1/2-y,1/2+z
1/2-y,1/2+x,1/2-z
1/2+y,1/2+x,1/2-z
1/2-y,1/2-x,1/2-z
1/2-x,1/2+y,1/2+z
1/2+x,1/2-y,1/2+z
loop_
_atom_site_type_symbol
_atom_site_label
_atom_site_fract_x
_atom_site_fract_y
_atom_site_fract_z
Si Si1 0.642766 0.898584 0.045302
Si Si2 0.162997 0.162997 0.000000
Si Si3 0.905746 0.215390 0.388900
O O1 0.600180 0.899821 0.250000
O O2 0.642627 0.000000 0.974255
O O3 0.741577 0.862278 0.081721
O O4 0.602400 0.821385 0.913984
O O5 0.171488 0.101940 0.815968
O O6 0.825841 0.174160 0.500000
O O7 0.000000 0.190106 0.472040
#
# Coordination Sequence:
#
# PCOD9559531 Si02
#       3
#    16   8  16
#     4  12  24  45  80 116 156 206 258 318 389 465
#     4  12  24  48  76 109 151 210 258 308 384 464
#     4  12  27  49  79 113 157 207 260 322 390 461
#
# _framework density 24.305101000000001
#
# number of rings (size 3 to 8) (size 9 to 14) (size 15 to 20)
#    0.000    0.000    6.000    3.600    0.000    4.800 
#    0.000    2.000    0.000   15.000    0.000    0.000 
#    0.000    0.000    0.000    0.000    0.000    0.000 
#
# Total GULP energy -111433.397500 kJ/mol
# GULP energy per Si atom -5571.669875 kJ/mol
# Density = 2.424978 g / cm^3
# Si number density = 24.305101 Si / 1000 Ang^3
#
#
#
# Elastic Constant Matrix: (Units=GPa)
#
#
# Indices 1 2 3 4 5 6 
#
# 1 155.2910 58.2579 26.1273 0.0000 0.0000 0.0000
# 2 58.2579 155.2844 26.1253 0.0000 0.0000 0.0000
# 3 26.1273 26.1253 95.7554 0.0000 0.0000 0.0000
# 4 0.0000 0.0000 0.0000 23.6022 0.0000 0.0000
# 5 0.0000 0.0000 0.0000 0.0000 23.6027 0.0000
# 6 0.0000 0.0000 0.0000 0.0000 0.0000 3.6687
#
#
#
# Elastic Compliance Matrix: (Units=1/GPa)
#
#
# Indices 1 2 3 4 5 6 
#
# 1 0.007662 -0.002644 -0.001369 0.000000 0.000000 0.000000
# 2 -0.002644 0.007662 -0.001369 0.000000 0.000000 0.000000
# 3 -0.001369 -0.001369 0.011190 0.000000 0.000000 0.000000
# 4 0.000000 0.000000 0.000000 0.042369 0.000000 0.000000
# 5 0.000000 0.000000 0.000000 0.000000 0.042368 0.000000
# 6 0.000000 0.000000 0.000000 0.000000 0.000000 0.272575
#
#
# Mechanical properties :
#
#
# Convention : Reuss Voigt Hill
#
# Bulk Modulus (GPa) = 63.49324 69.70573 66.59949
# Shear Modulus (GPa) = 12.50498 29.89607 21.20053
#
# Velocity S-wave (km/s) = 2.27072 3.51099 2.95662
# Velocity P-wave (km/s) = 5.74935 6.72144 6.25431
#
# Compressibility (1/GPa) = 0.01574971
#
# Stress axis : x y z
#
# Youngs Moduli (GPa) = 130.51705 130.51215 89.36252
#
# Poissons Ratio (x) = 0.34509 0.12235
# Poissons Ratio (y) = 0.34510 0.12234
# Poissons Ratio (z) = 0.17870 0.17867
#
# Static dielectric constant tensor:
#      x y z
#    x 1.872280 0.000000 0.000000 
#    y 0.000000 1.872280 0.000000 
#    z 0.000000 0.000000 2.071350 
# 
# From -- ./inp_files/1586.got.cif
#   From: 2010.05.17/outbox.cif.g08.bks.cpg/sg119_1_cif.got.tgz:1586.got - 2010.05.20 11:21:29.
