data_PCOD9559013
_publ_section_title
;
Structure prediction by ZEFSAII (Michael W. Deem and Ramdas Pophale) SiO2 
 PCOD9559013
Probable space group: I -4 M 2
;
_chemical_formula_sum "Si O2"
_cell_formula_units_Z 96
_cell_length_a 22.998363
_cell_length_b 22.998363
_cell_length_c 10.322259
_cell_angle_alpha 90.000000
_cell_angle_beta 90.000000
_cell_angle_gamma 90.000000
_cell_volume 5459.697752
_symmetry_space_group_name_H-M "I -4 M 2"
_symmetry_group_IT_number 119
_symmetry_cell_setting 'tetragonal'
loop_
_space_group_symop_operation_xyz
x,y,z
y,-x,-z
-x,-y,z
-y,x,-z
y,x,-z
-y,-x,-z
-x,y,z
x,-y,z
1/2+x,1/2+y,1/2+z
1/2+y,1/2-x,1/2-z
1/2-x,1/2-y,1/2+z
1/2-y,1/2+x,1/2-z
1/2+y,1/2+x,1/2-z
1/2-y,1/2-x,1/2-z
1/2-x,1/2+y,1/2+z
1/2+x,1/2-y,1/2+z
loop_
_atom_site_type_symbol
_atom_site_label
_atom_site_fract_x
_atom_site_fract_y
_atom_site_fract_z
Si Si1 0.347772 0.432836 0.659652
Si Si2 0.432189 0.667867 0.651815
Si Si3 0.355106 0.931214 0.965096
Si Si4 0.828149 0.431460 0.989894
Si Si5 0.874290 0.282353 0.259816
Si Si6 0.570395 0.778522 0.287040
O O1 0.357734 0.500000 0.695681
O O2 0.334180 0.431656 0.505086
O O3 0.402674 0.392907 0.691070
O O4 0.287996 0.409403 0.720705
O O5 0.500000 0.675443 0.690936
O O6 0.391265 0.719216 0.705703
O O7 0.311775 0.912408 0.081975
O O8 0.363351 0.000000 0.970783
O O9 0.413362 0.894452 0.983109
O O10 0.325412 0.912381 0.831181
O O11 0.818780 0.500000 0.005905
O O12 0.790036 0.396320 0.093804
O O13 0.812314 0.414692 0.843273
O O14 0.808903 0.308903 0.250000
O O15 0.500000 0.775181 0.294157
#
# Coordination Sequence:
#
# PCOD9559013 Si02
#       6
#    16  16  16  16  16  16
#     4   9  18  32  55  82 106 137 176 217 263 323
#     4  10  18  32  56  81 108 141 174 215 270 320
#     4  10  18  31  51  70  96 135 177 220 269 323
#     4  10  20  31  47  73 101 132 174 223 268 313
#     4  10  20  34  52  74 102 137 181 216 254 314
#     4   9  17  32  50  69  97 133 171 206 253 315
#
# _framework density 17.583392
#
# number of rings (size 3 to 8) (size 9 to 14) (size 15 to 20)
#    0.000    2.333    1.667    2.000    0.000    0.667 
#    0.000    4.167    0.000    6.000    0.000    0.000 
#    0.000    4.000    0.000    0.000    0.000    0.000 
#
# Total GULP energy -267407.367114 kJ/mol
# GULP energy per Si atom -5570.986815 kJ/mol
# Density = 1.754337 g / cm^3
# Si number density = 17.583392 Si / 1000 Ang^3
#
#
#
# Elastic Constant Matrix: (Units=GPa)
#
#
# Indices 1 2 3 4 5 6 
#
# 1 65.1423 32.5544 -3.3654 0.0000 0.0000 0.0000
# 2 32.5544 65.1423 -3.3654 0.0000 0.0000 0.0000
# 3 -3.3654 -3.3654 45.6895 0.0000 0.0000 0.0000
# 4 0.0000 0.0000 0.0000 18.3253 0.0000 0.0000
# 5 0.0000 0.0000 0.0000 0.0000 18.3253 0.0000
# 6 0.0000 0.0000 0.0000 0.0000 0.0000 23.7891
#
#
#
# Elastic Compliance Matrix: (Units=1/GPa)
#
#
# Indices 1 2 3 4 5 6 
#
# 1 0.020487 -0.010199 0.000758 0.000000 0.000000 0.000000
# 2 -0.010199 0.020487 0.000758 0.000000 0.000000 0.000000
# 3 0.000758 0.000758 0.021998 0.000000 0.000000 0.000000
# 4 0.000000 0.000000 0.000000 0.054569 0.000000 0.000000
# 5 0.000000 0.000000 0.000000 0.000000 0.054569 0.000000
# 6 0.000000 0.000000 0.000000 0.000000 0.000000 0.042036
#
#
# Mechanical properties :
#
#
# Convention : Reuss Voigt Hill
#
# Bulk Modulus (GPa) = 21.92715 25.29127 23.60921
# Shear Modulus (GPa) = 20.26619 22.09799 21.18209
#
# Velocity S-wave (km/s) = 3.39864 3.54892 3.47459
# Velocity P-wave (km/s) = 5.28190 5.58641 5.43629
#
# Compressibility (1/GPa) = 0.04560557
#
# Stress axis : x y z
#
# Youngs Moduli (GPa) = 48.81117 48.81117 45.45769
#
# Poissons Ratio (x) = 0.49783 -0.03445
# Poissons Ratio (y) = 0.49783 -0.03445
# Poissons Ratio (z) = -0.03699 -0.03699
#
# Static dielectric constant tensor:
#      x y z
#    x 1.605600 0.000000 0.000000 
#    y 0.000000 1.605600 0.000000 
#    z 0.000000 0.000000 1.594550 
# 
# From -- ./inp_files/2715.got.cif
#   From: 2010.05.17/outbox.cif.g08.bks.cpg/sg119_2_cif.got.tgz:2715.got - 2010.05.20 11:21:29.
