data_PCOD9559973
_publ_section_title
;
Structure prediction by ZEFSAII (Michael W. Deem and Ramdas Pophale) SiO2 
 PCOD9559973
Probable space group: I -4 C 2
;
_chemical_formula_sum "Si O2"
_cell_formula_units_Z 96
_cell_length_a 22.970372
_cell_length_b 22.970372
_cell_length_c 9.928320
_cell_angle_alpha 90.000000
_cell_angle_beta 90.000000
_cell_angle_gamma 90.000000
_cell_volume 5238.558807
_symmetry_space_group_name_H-M "I -4 C 2"
_symmetry_group_IT_number 120
_symmetry_cell_setting 'tetragonal'
loop_
_space_group_symop_operation_xyz
x,y,z
y,-x,-z
-x,-y,z
-y,x,-z
y,x,1/2-z
-y,-x,1/2-z
-x,y,1/2+z
x,-y,1/2+z
1/2+x,1/2+y,1/2+z
1/2+y,1/2-x,1/2-z
1/2-x,1/2-y,1/2+z
1/2-y,1/2+x,1/2-z
1/2+y,1/2+x,-z
1/2-y,1/2-x,-z
1/2-x,1/2+y,z
1/2+x,1/2-y,z
loop_
_atom_site_type_symbol
_atom_site_label
_atom_site_fract_x
_atom_site_fract_y
_atom_site_fract_z
Si Si1 0.243429 0.933562 0.254059
Si Si2 0.929709 0.234761 0.753204
Si Si3 0.108381 0.057829 0.368473
Si Si4 0.067575 0.115221 0.618111
Si Si5 0.251732 0.652670 0.501200
Si Si6 0.649238 0.246635 0.514785
O O1 0.178999 0.929725 0.319161
O O2 0.274033 0.891643 0.361557
O O3 0.258105 0.002844 0.245198
O O4 0.246322 0.897652 0.115455
O O5 0.937025 0.166828 0.718208
O O6 0.884637 0.253124 0.636242
O O7 0.895569 0.244101 0.891839
O O8 0.061773 0.061773 0.250000
O O9 0.107811 0.102697 0.491023
O O10 0.105214 0.996215 0.440405
O O11 0.076966 0.076966 0.750000
O O12 0.196454 0.696454 0.500000
O O13 0.307810 0.696070 0.523097
O O14 0.695118 0.195118 0.500000
#
# Coordination Sequence:
#
# PCOD9559973 Si02
#       6
#    16  16  16  16  16  16
#     4  11  22  37  56  79 110 145 182 223 274 335
#     4  11  22  37  56  79 110 145 182 223 274 335
#     4  11  22  34  49  69  98 141 188 233 274 311
#     4  11  22  34  49  69  98 141 188 233 274 311
#     4  11  22  37  59  85 114 147 184 230 280 331
#     4  11  22  37  59  85 114 147 184 230 280 331
#
# _framework density 18.325651000000001
#
# number of rings (size 3 to 8) (size 9 to 14) (size 15 to 20)
#    0.000    1.000    0.000    9.000    0.000   10.000 
#    0.000    0.000    0.000    0.000    0.000    0.000 
#    0.000   46.667    0.000    0.000    0.000    0.000 
#
# Total GULP energy -267374.040214 kJ/mol
# GULP energy per Si atom -5570.292504 kJ/mol
# Density = 1.828394 g / cm^3
# Si number density = 18.325651 Si / 1000 Ang^3
#
#
#
# Elastic Constant Matrix: (Units=GPa)
#
#
# Indices 1 2 3 4 5 6 
#
# 1 54.5668 13.2126 -11.1604 0.0000 0.0000 0.0000
# 2 13.2126 54.5668 -11.1604 0.0000 0.0000 0.0000
# 3 -11.1604 -11.1604 64.0541 0.0000 0.0000 0.0000
# 4 0.0000 0.0000 0.0000 25.4397 0.0000 0.0000
# 5 0.0000 0.0000 0.0000 0.0000 25.4397 0.0000
# 6 0.0000 0.0000 0.0000 0.0000 0.0000 17.4832
#
#
#
# Elastic Compliance Matrix: (Units=1/GPa)
#
#
# Indices 1 2 3 4 5 6 
#
# 1 0.019917 -0.004265 0.002727 0.000000 0.000000 0.000000
# 2 -0.004265 0.019917 0.002727 0.000000 0.000000 0.000000
# 3 0.002727 0.002727 0.016562 0.000000 0.000000 0.000000
# 4 0.000000 0.000000 0.000000 0.039309 0.000000 0.000000
# 5 0.000000 0.000000 0.000000 0.000000 0.039309 0.000000
# 6 0.000000 0.000000 0.000000 0.000000 0.000000 0.057198
#
#
# Mechanical properties :
#
#
# Convention : Reuss Voigt Hill
#
# Bulk Modulus (GPa) = 17.01431 17.21902 17.11666
# Shear Modulus (GPa) = 23.87515 25.82558 24.85037
#
# Velocity S-wave (km/s) = 3.61339 3.75808 3.68644
# Velocity P-wave (km/s) = 5.16849 5.31483 5.24217
#
# Compressibility (1/GPa) = 0.05877407
#
# Stress axis : x y z
#
# Youngs Moduli (GPa) = 50.20946 50.20946 60.37878
#
# Poissons Ratio (x) = 0.21413 -0.16466
# Poissons Ratio (y) = 0.21413 -0.16466
# Poissons Ratio (z) = -0.13693 -0.13693
#
# Static dielectric constant tensor:
#      x y z
#    x 1.609510 0.000000 0.000000 
#    y 0.000000 1.609510 0.000000 
#    z 0.000000 0.000000 1.754990 
# 
# From -- ./inp_files/1514.got.cif
#   From: 2010.05.17/outbox.cif.g08.bks.cpg/sg120_1_cif.got.tgz:1514.got - 2010.05.20 11:28:13.
