data_PCOD9559907
_publ_section_title
;
Structure prediction by ZEFSAII (Michael W. Deem and Ramdas Pophale) SiO2 
 PCOD9559907
Probable space group: I -4 C 2
;
_chemical_formula_sum "Si O2"
_cell_formula_units_Z 80
_cell_length_a 16.939670
_cell_length_b 16.939670
_cell_length_c 13.696281
_cell_angle_alpha 90.000000
_cell_angle_beta 90.000000
_cell_angle_gamma 90.000000
_cell_volume 3930.180974
_symmetry_space_group_name_H-M "I -4 C 2"
_symmetry_group_IT_number 120
_symmetry_cell_setting 'tetragonal'
loop_
_space_group_symop_operation_xyz
x,y,z
y,-x,-z
-x,-y,z
-y,x,-z
y,x,1/2-z
-y,-x,1/2-z
-x,y,1/2+z
x,-y,1/2+z
1/2+x,1/2+y,1/2+z
1/2+y,1/2-x,1/2-z
1/2-x,1/2-y,1/2+z
1/2-y,1/2+x,1/2-z
1/2+y,1/2+x,-z
1/2-y,1/2-x,-z
1/2-x,1/2+y,z
1/2+x,1/2-y,z
loop_
_atom_site_type_symbol
_atom_site_label
_atom_site_fract_x
_atom_site_fract_y
_atom_site_fract_z
Si Si1 0.848421 0.483672 0.368752
Si Si2 0.062156 0.235069 0.962474
Si Si3 0.802196 0.197805 0.750000
Si Si4 0.598941 0.359537 0.436537
Si Si5 0.617249 0.169825 0.772021
Si Si6 0.000000 0.500000 0.500000
Si Si7 0.500000 0.500000 0.000000
O O1 0.786934 0.438776 0.439037
O O2 0.810700 0.559234 0.316891
O O3 0.882118 0.424234 0.287950
O O4 0.922054 0.503773 0.435587
O O5 0.123761 0.162975 0.977875
O O6 0.085727 0.287102 0.869447
O O7 0.972859 0.201436 0.952279
O O8 0.851122 0.165406 0.842557
O O9 0.708463 0.187661 0.755907
O O10 0.554542 0.444280 0.433093
#
# Coordination Sequence:
#
# PCOD9559907 Si02
#       7
#    16  16   8  16  16   4   4
#     4  12  25  45  67  97 139 186 233 283 341 422
#     4  11  24  47  72  99 142 182 232 294 355 419
#     4  12  26  41  70 106 143 176 236 302 350 420
#     4  10  23  44  72 102 135 182 231 293 355 416
#     4  12  26  46  67 103 139 184 235 287 351 421
#     4  12  24  42  68  96 130 196 228 290 330 422
#     4   8  20  46  72 100 136 182 232 284 350 444
#
# _framework density 20.355295999999999
#
# number of rings (size 3 to 8) (size 9 to 14) (size 15 to 20)
#    0.000    0.800    4.000    2.400    5.600    0.400 
#    0.000    0.000    0.000    0.000    0.000    0.000 
#    0.000    0.000    0.000    0.000    0.000    0.000 
#
# Total GULP energy -223395.813570 kJ/mol
# GULP energy per Si atom -5584.895339 kJ/mol
# Density = 2.030897 g / cm^3
# Si number density = 20.355296 Si / 1000 Ang^3
#
#
#
# Elastic Constant Matrix: (Units=GPa)
#
#
# Indices 1 2 3 4 5 6 
#
# 1 98.2114 37.5332 37.4857 0.0000 0.0000 0.0000
# 2 37.5332 98.2123 37.4856 0.0000 0.0000 0.0000
# 3 37.4857 37.4856 80.5458 0.0000 0.0000 0.0000
# 4 0.0000 0.0000 0.0000 135.8533 0.0000 0.0000
# 5 0.0000 0.0000 0.0000 0.0000 135.6590 0.0000
# 6 0.0000 0.0000 0.0000 0.0000 0.0000 31.9485
#
#
#
# Elastic Compliance Matrix: (Units=1/GPa)
#
#
# Indices 1 2 3 4 5 6 
#
# 1 0.013198 -0.003282 -0.004615 0.000000 0.000000 0.000000
# 2 -0.003282 0.013198 -0.004615 0.000000 0.000000 0.000000
# 3 -0.004615 -0.004615 0.016710 0.000000 0.000000 0.000000
# 4 0.000000 0.000000 0.000000 0.007361 0.000000 0.000000
# 5 0.000000 0.000000 0.000000 0.000000 0.007371 0.000000
# 6 0.000000 0.000000 0.000000 0.000000 0.000000 0.031300
#
#
# Mechanical properties :
#
#
# Convention : Reuss Voigt Hill
#
# Bulk Modulus (GPa) = 55.30072 55.77540 55.53806
# Shear Modulus (GPa) = 41.60093 71.65648 56.62870
#
# Velocity S-wave (km/s) = 4.52568 5.93964 5.28020
# Velocity P-wave (km/s) = 7.38483 8.63131 8.03228
#
# Compressibility (1/GPa) = 0.01808295
#
# Stress axis : x y z
#
# Youngs Moduli (GPa) = 75.76966 75.77061 59.84265
#
# Poissons Ratio (x) = 0.24871 0.27615
# Poissons Ratio (y) = 0.24871 0.27614
# Poissons Ratio (z) = 0.34965 0.34964
#
# Static dielectric constant tensor:
#      x y z
#    x 1.707020 0.000000 0.000000 
#    y 0.000000 1.706990 0.000000 
#    z 0.000000 0.000000 1.680710 
# 
# From -- ./inp_files/3500.got.cif
#   From: 2010.05.17/outbox.cif.g08.bks.cpg/sg120_2_cif.got.tgz:3500.got - 2010.05.20 11:28:13.
