data_PCOD9559295
_publ_section_title
;
Structure prediction by ZEFSAII (Michael W. Deem and Ramdas Pophale) SiO2 
 PCOD9559295
Probable space group: I -4 M 2
;
_chemical_formula_sum "Si O2"
_cell_formula_units_Z 96
_cell_length_a 23.146565
_cell_length_b 23.146565
_cell_length_c 10.196394
_cell_angle_alpha 90.000000
_cell_angle_beta 90.000000
_cell_angle_gamma 90.000000
_cell_volume 5462.855444
_symmetry_space_group_name_H-M "I -4 M 2"
_symmetry_group_IT_number 119
_symmetry_cell_setting 'tetragonal'
loop_
_space_group_symop_operation_xyz
x,y,z
y,-x,-z
-x,-y,z
-y,x,-z
y,x,-z
-y,-x,-z
-x,y,z
x,-y,z
1/2+x,1/2+y,1/2+z
1/2+y,1/2-x,1/2-z
1/2-x,1/2-y,1/2+z
1/2-y,1/2+x,1/2-z
1/2+y,1/2+x,1/2-z
1/2-y,1/2-x,1/2-z
1/2-x,1/2+y,1/2+z
1/2+x,1/2-y,1/2+z
loop_
_atom_site_type_symbol
_atom_site_label
_atom_site_fract_x
_atom_site_fract_y
_atom_site_fract_z
Si Si1 0.226171 0.128669 0.002205
Si Si2 0.564463 0.934390 0.409270
Si Si3 0.228330 0.066732 0.479118
Si Si4 0.349839 0.166207 0.092885
Si Si5 0.827431 0.931750 0.763511
Si Si6 0.845924 0.933700 0.219292
O O1 0.288579 0.155716 0.025254
O O2 0.204335 0.087158 0.119775
O O3 0.180934 0.180934 0.000000
O O4 0.217818 0.093377 0.868529
O O5 0.500000 0.917256 0.450644
O O6 0.564737 0.935264 0.250000
O O7 0.613247 0.890521 0.449445
O O8 0.575495 0.000000 0.452609
O O9 0.276476 0.114553 0.444660
O O10 0.197734 0.077984 0.618046
O O11 0.180995 0.068506 0.364198
O O12 0.251637 0.000000 0.480320
O O13 0.338443 0.161558 0.250000
O O14 0.887453 0.897650 0.787051
O O15 0.835666 0.000000 0.782011
O O16 0.862661 0.000000 0.189721
#
# Coordination Sequence:
#
# PCOD9559295 Si02
#       6
#    16  16  16  16  16  16
#     4  10  22  38  54  80 112 146 185 234 279 330
#     4   8  15  27  45  74 109 135 164 219 276 316
#     4  10  21  37  57  83 116 149 185 234 284 333
#     4  11  20  34  56  83 104 147 195 230 274 336
#     4  10  22  39  57  82 117 151 182 227 289 345
#     4  10  20  37  61  85 110 144 189 237 279 327
#
# _framework density 17.573226999999999
#
# number of rings (size 3 to 8) (size 9 to 14) (size 15 to 20)
#    0.000    2.167    1.667    2.000    0.000    4.333 
#    0.000    0.000    0.000    6.000    0.000    0.000 
#    0.000    4.000    0.000    0.000    0.000    0.000 
#
# Total GULP energy -267670.145797 kJ/mol
# GULP energy per Si atom -5576.461371 kJ/mol
# Density = 1.753323 g / cm^3
# Si number density = 17.573227 Si / 1000 Ang^3
#
#
#
# Elastic Constant Matrix: (Units=GPa)
#
#
# Indices 1 2 3 4 5 6 
#
# 1 83.3141 57.5591 14.6100 0.0000 0.0000 0.0000
# 2 57.5591 83.3142 14.6099 0.0000 0.0000 0.0000
# 3 14.6100 14.6099 61.0319 0.0000 0.0000 0.0000
# 4 0.0000 0.0000 0.0000 20.3172 0.0000 0.0000
# 5 0.0000 0.0000 0.0000 0.0000 20.3171 0.0000
# 6 0.0000 0.0000 0.0000 0.0000 0.0000 23.6808
#
#
#
# Elastic Compliance Matrix: (Units=1/GPa)
#
#
# Indices 1 2 3 4 5 6 
#
# 1 0.023148 -0.015679 -0.001788 0.000000 0.000000 0.000000
# 2 -0.015679 0.023148 -0.001788 0.000000 0.000000 0.000000
# 3 -0.001788 -0.001788 0.017241 0.000000 0.000000 0.000000
# 4 0.000000 0.000000 0.000000 0.049219 0.000000 0.000000
# 5 0.000000 0.000000 0.000000 0.000000 0.049220 0.000000
# 6 0.000000 0.000000 0.000000 0.000000 0.000000 0.042228
#
#
# Mechanical properties :
#
#
# Convention : Reuss Voigt Hill
#
# Bulk Modulus (GPa) = 39.95584 44.57978 42.26781
# Shear Modulus (GPa) = 19.91576 22.25512 21.08544
#
# Velocity S-wave (km/s) = 3.37011 3.56254 3.46766
# Velocity P-wave (km/s) = 6.15870 6.50733 6.33542
#
# Compressibility (1/GPa) = 0.02502763
#
# Stress axis : x y z
#
# Youngs Moduli (GPa) = 43.19950 43.19959 58.00155
#
# Poissons Ratio (x) = 0.67732 0.10371
# Poissons Ratio (y) = 0.67732 0.10371
# Poissons Ratio (z) = 0.07724 0.07724
#
# Static dielectric constant tensor:
#      x y z
#    x 1.590200 0.000000 0.000000 
#    y 0.000000 1.590210 0.000000 
#    z 0.000000 0.000000 1.596020 
# 
# From -- ./inp_files/2660.got.cif
#   From: 2010.05.17/outbox.cif.g08.bks.cpg/sg119_2_cif.got.tgz:2660.got - 2010.05.20 11:21:29.
