data_PCOD9559473
_publ_section_title
;
Structure prediction by ZEFSAII (Michael W. Deem and Ramdas Pophale) SiO2 
 PCOD9559473
Probable space group: I -4 M 2
;
_chemical_formula_sum "Si O2"
_cell_formula_units_Z 64
_cell_length_a 17.186768
_cell_length_b 17.186768
_cell_length_c 11.876514
_cell_angle_alpha 90.000000
_cell_angle_beta 90.000000
_cell_angle_gamma 90.000000
_cell_volume 3508.144020
_symmetry_space_group_name_H-M "I -4 M 2"
_symmetry_group_IT_number 119
_symmetry_cell_setting 'tetragonal'
loop_
_space_group_symop_operation_xyz
x,y,z
y,-x,-z
-x,-y,z
-y,x,-z
y,x,-z
-y,-x,-z
-x,y,z
x,-y,z
1/2+x,1/2+y,1/2+z
1/2+y,1/2-x,1/2-z
1/2-x,1/2-y,1/2+z
1/2-y,1/2+x,1/2-z
1/2+y,1/2+x,1/2-z
1/2-y,1/2-x,1/2-z
1/2-x,1/2+y,1/2+z
1/2+x,1/2-y,1/2+z
loop_
_atom_site_type_symbol
_atom_site_label
_atom_site_fract_x
_atom_site_fract_y
_atom_site_fract_z
Si Si1 0.299478 0.319756 0.189601
Si Si2 0.589747 0.230311 0.011731
Si Si3 0.649167 0.090463 0.128804
Si Si4 0.336188 0.408748 0.612240
O O1 0.238871 0.261130 0.250000
O O2 0.254774 0.380284 0.110513
O O3 0.354182 0.358816 0.283126
O O4 0.356022 0.272562 0.104683
O O5 0.500000 0.250631 0.029597
O O6 0.604181 0.139743 0.035651
O O7 0.625291 0.125291 0.250000
O O8 0.741863 0.098218 0.108446
O O9 0.629630 0.000000 0.128313
O O10 0.375106 0.375106 0.500000
O O11 0.354717 0.500000 0.627575
#
# Coordination Sequence:
#
# PCOD9559473 Si02
#       4
#    16  16  16  16
#     4  11  21  38  64  85 117 156 203 242 287 352
#     4  11  22  37  60  90 120 156 195 243 297 348
#     4  11  21  34  59  93 124 154 194 241 293 351
#     4  11  22  38  61  88 119 155 199 250 296 346
#
# _framework density 18.243264
#
# number of rings (size 3 to 8) (size 9 to 14) (size 15 to 20)
#    0.000    1.000    5.000    3.000    0.000    3.000 
#    0.000    1.250    0.000   12.000    0.000    0.000 
#    0.000    0.000    0.000    0.000    0.000    0.000 
#
# Total GULP energy -178752.726176 kJ/mol
# GULP energy per Si atom -5586.022693 kJ/mol
# Density = 1.820174 g / cm^3
# Si number density = 18.243264 Si / 1000 Ang^3
#
#
#
# Elastic Constant Matrix: (Units=GPa)
#
#
# Indices 1 2 3 4 5 6 
#
# 1 65.2228 61.6976 51.5150 0.0000 0.0000 0.0000
# 2 61.6976 65.2193 51.5136 0.0000 0.0000 0.0000
# 3 51.5150 51.5136 131.9313 0.0000 0.0000 0.0000
# 4 0.0000 0.0000 0.0000 23.8772 0.0000 0.0000
# 5 0.0000 0.0000 0.0000 0.0000 23.8771 0.0000
# 6 0.0000 0.0000 0.0000 0.0000 0.0000 17.8630
#
#
#
# Elastic Compliance Matrix: (Units=1/GPa)
#
#
# Indices 1 2 3 4 5 6 
#
# 1 0.147673 -0.136141 -0.004504 0.000000 0.000000 0.000000
# 2 -0.136141 0.147681 -0.004504 0.000000 0.000000 0.000000
# 3 -0.004504 -0.004504 0.011097 0.000000 0.000000 0.000000
# 4 0.000000 0.000000 0.000000 0.041881 0.000000 0.000000
# 5 0.000000 0.000000 0.000000 0.000000 0.041881 0.000000
# 6 0.000000 0.000000 0.000000 0.000000 0.000000 0.055982
#
#
# Mechanical properties :
#
#
# Convention : Reuss Voigt Hill
#
# Bulk Modulus (GPa) = 61.91449 65.75842 63.83646
# Shear Modulus (GPa) = 6.73966 19.63325 13.18645
#
# Velocity S-wave (km/s) = 1.92415 3.28410 2.69143
# Velocity P-wave (km/s) = 6.24087 7.10661 6.68776
#
# Compressibility (1/GPa) = 0.01615131
#
# Stress axis : x y z
#
# Youngs Moduli (GPa) = 6.77173 6.77137 90.11359
#
# Poissons Ratio (x) = 0.92186 0.40589
# Poissons Ratio (y) = 0.92191 0.40588
# Poissons Ratio (z) = 0.03050 0.03050
#
# Static dielectric constant tensor:
#      x y z
#    x 1.632470 0.000000 0.000000 
#    y 0.000000 1.632470 0.000000 
#    z 0.000000 0.000000 1.626500 
# 
# From -- ./inp_files/3730.got.cif
#   From: 2010.05.17/outbox.cif.g08.bks.cpg/sg119_2_cif.got.tgz:3730.got - 2010.05.20 11:21:29.
