data_PCOD9559406
_publ_section_title
;
Structure prediction by ZEFSAII (Michael W. Deem and Ramdas Pophale) SiO2 
 PCOD9559406
Probable space group: I -4 M 2
;
_chemical_formula_sum "Si O2"
_cell_formula_units_Z 96
_cell_length_a 22.595471
_cell_length_b 22.595471
_cell_length_c 9.303153
_cell_angle_alpha 90.000000
_cell_angle_beta 90.000000
_cell_angle_gamma 90.000000
_cell_volume 4749.774161
_symmetry_space_group_name_H-M "I -4 M 2"
_symmetry_group_IT_number 119
_symmetry_cell_setting 'tetragonal'
loop_
_space_group_symop_operation_xyz
x,y,z
y,-x,-z
-x,-y,z
-y,x,-z
y,x,-z
-y,-x,-z
-x,y,z
x,-y,z
1/2+x,1/2+y,1/2+z
1/2+y,1/2-x,1/2-z
1/2-x,1/2-y,1/2+z
1/2-y,1/2+x,1/2-z
1/2+y,1/2+x,1/2-z
1/2-y,1/2-x,1/2-z
1/2-x,1/2+y,1/2+z
1/2+x,1/2-y,1/2+z
loop_
_atom_site_type_symbol
_atom_site_label
_atom_site_fract_x
_atom_site_fract_y
_atom_site_fract_z
Si Si1 0.875756 0.221196 0.854644
Si Si2 0.335087 0.071946 0.310062
Si Si3 0.401260 0.565230 0.654796
Si Si4 0.433563 0.783681 0.882717
Si Si5 0.064234 0.144330 0.410956
Si Si6 0.253989 0.334313 0.322430
O O1 0.901934 0.276895 0.770068
O O2 0.923823 0.169038 0.868991
O O3 0.821108 0.185025 0.783747
O O4 0.849327 0.243355 0.007929
O O5 0.391631 0.108370 0.250000
O O6 0.323136 0.083816 0.480121
O O7 0.338930 0.000000 0.292086
O O8 0.430181 0.569820 0.500000
O O9 0.411461 0.500000 0.716457
O O10 0.427908 0.617451 0.752337
O O11 0.500000 0.800494 0.839518
O O12 0.434505 0.714553 0.928018
O O13 0.389586 0.778965 0.750372
O O14 0.116049 0.116049 0.500000
O O15 0.000000 0.124204 0.463667
O O16 0.219069 0.280932 0.250000
#
# Coordination Sequence:
#
# PCOD9559406 Si02
#       6
#    16  16  16  16  16  16
#     4  11  22  41  59  92 124 160 208 261 320 381
#     4  11  24  42  66  95 126 163 207 261 329 400
#     4  12  23  38  57  82 122 168 215 260 307 363
#     4  10  22  40  61  88 124 163 206 258 313 378
#     4  11  22  37  55  79 114 157 206 257 303 349
#     4  11  22  38  63  91 122 160 204 260 322 381
#
# _framework density 20.211489
#
# number of rings (size 3 to 8) (size 9 to 14) (size 15 to 20)
#    0.000    1.000    3.333    4.000    0.000    7.500 
#    0.000    0.000    0.000    0.000    0.000    0.000 
#    0.000    4.000    0.000    0.000    0.000    0.000 
#
# Total GULP energy -267662.653074 kJ/mol
# GULP energy per Si atom -5576.305272 kJ/mol
# Density = 2.016549 g / cm^3
# Si number density = 20.211489 Si / 1000 Ang^3
#
#
#
# Elastic Constant Matrix: (Units=GPa)
#
#
# Indices 1 2 3 4 5 6 
#
# 1 76.9277 9.1445 20.2842 0.0000 0.0000 0.0000
# 2 9.1445 76.9628 20.2832 0.0000 0.0000 0.0000
# 3 20.2842 20.2832 82.4900 0.0000 0.0000 0.0000
# 4 0.0000 0.0000 0.0000 23.0132 0.0000 0.0000
# 5 0.0000 0.0000 0.0000 0.0000 23.0075 0.0000
# 6 0.0000 0.0000 0.0000 0.0000 0.0000 -129.3482
#
#
#
# Elastic Compliance Matrix: (Units=1/GPa)
#
#
# Indices 1 2 3 4 5 6 
#
# 1 0.013947 -0.000806 -0.003232 0.000000 0.000000 0.000000
# 2 -0.000806 0.013940 -0.003230 0.000000 0.000000 0.000000
# 3 -0.003232 -0.003230 0.013711 0.000000 0.000000 0.000000
# 4 0.000000 0.000000 0.000000 0.043453 0.000000 0.000000
# 5 0.000000 0.000000 0.000000 0.000000 0.043464 0.000000
# 6 0.000000 0.000000 0.000000 0.000000 0.000000 -0.007731
#
#
# Mechanical properties :
#
#
# Convention : Reuss Voigt Hill
#
# Bulk Modulus (GPa) = 36.94759 37.31159 37.12959
# Shear Modulus (GPa) = 34.64044 -4.22092 15.20976
#
# Velocity S-wave (km/s) = 4.14442 -1.44669 2.74621
# Velocity P-wave (km/s) = 6.42042 3.96360 5.33535
#
# Compressibility (1/GPa) = 0.02706537
#
# Stress axis : x y z
#
# Youngs Moduli (GPa) = 71.69971 71.73529 72.93190
#
# Poissons Ratio (x) = 0.05778 0.23568
# Poissons Ratio (y) = 0.05775 0.23554
# Poissons Ratio (z) = 0.23170 0.23168
#
# Static dielectric constant tensor:
#      x y z
#    x 1.752850 0.000000 0.000000 
#    y 0.000000 1.752840 0.000000 
#    z 0.000000 0.000000 1.758360 
# 
# From -- ./inp_files/2728.got.cif
#   From: 2010.05.17/outbox.cif.g08.bks.cpg/sg119_2_cif.got.tgz:2728.got - 2010.05.20 11:21:29.
