data_PCOD9559809
_publ_section_title
;
Structure prediction by ZEFSAII (Michael W. Deem and Ramdas Pophale) SiO2 
 PCOD9559809
Probable space group: I -4 C 2
;
_chemical_formula_sum "Si O2"
_cell_formula_units_Z 96
_cell_length_a 23.004840
_cell_length_b 23.004840
_cell_length_c 8.925182
_cell_angle_alpha 90.000000
_cell_angle_beta 90.000000
_cell_angle_gamma 90.000000
_cell_volume 4723.408590
_symmetry_space_group_name_H-M "I -4 C 2"
_symmetry_group_IT_number 120
_symmetry_cell_setting 'tetragonal'
loop_
_space_group_symop_operation_xyz
x,y,z
y,-x,-z
-x,-y,z
-y,x,-z
y,x,1/2-z
-y,-x,1/2-z
-x,y,1/2+z
x,-y,1/2+z
1/2+x,1/2+y,1/2+z
1/2+y,1/2-x,1/2-z
1/2-x,1/2-y,1/2+z
1/2-y,1/2+x,1/2-z
1/2+y,1/2+x,-z
1/2-y,1/2-x,-z
1/2-x,1/2+y,z
1/2+x,1/2-y,z
loop_
_atom_site_type_symbol
_atom_site_label
_atom_site_fract_x
_atom_site_fract_y
_atom_site_fract_z
Si Si1 0.289168 0.710833 0.750000
Si Si2 0.321535 0.392035 0.066664
Si Si3 0.452644 0.642659 0.222138
Si Si4 0.214248 0.437151 0.263834
Si Si5 0.572740 0.572740 0.250000
Si Si6 0.049719 0.258839 0.385838
Si Si7 0.161419 0.675386 0.822083
O O1 0.322701 0.685966 0.899370
O O2 0.220999 0.701577 0.761829
O O3 0.272577 0.413658 0.182577
O O4 0.387064 0.406814 0.114148
O O5 0.317551 0.430529 0.917232
O O6 0.397574 0.602427 0.250000
O O7 0.507521 0.597220 0.213952
O O8 0.461385 0.690814 0.350732
O O9 0.203679 0.497405 0.182487
O O10 0.230430 0.445676 0.437406
O O11 0.163205 0.389536 0.253406
O O12 0.107493 0.282235 0.303839
O O13 0.167412 0.667412 0.000000
#
# Coordination Sequence:
#
# PCOD9559809 Si02
#       7
#     8  16  16  16   8  16  16
#     4   9  20  38  65  90 129 159 206 277 352 399
#     4  10  23  40  63  84 118 171 206 274 329 379
#     4  12  28  39  60  87 119 166 228 274 322 386
#     4  10  21  43  64  91 128 164 207 259 330 394
#     4  11  25  42  57  76 120 164 224 263 324 352
#     4  11  23  40  66  94 124 169 212 260 326 403
#     4   9  21  37  62  93 127 163 203 264 332 402
#
# _framework density 20.324304999999999
#
# number of rings (size 3 to 8) (size 9 to 14) (size 15 to 20)
#    0.000    1.667    1.667    1.250   12.833    0.000 
#    0.000    6.667    0.000    0.500    0.000    3.500 
#    0.000    0.000    0.000    0.000    0.000    0.000 
#
# Total GULP energy -267391.126455 kJ/mol
# GULP energy per Si atom -5570.648468 kJ/mol
# Density = 2.027805 g / cm^3
# Si number density = 20.324305 Si / 1000 Ang^3
#
#
#
# Elastic Constant Matrix: (Units=GPa)
#
#
# Indices 1 2 3 4 5 6 
#
# 1 130.4397 5.5603 23.2023 0.0000 0.0000 0.0000
# 2 5.5603 130.4486 23.2090 0.0000 0.0000 0.0000
# 3 23.2023 23.2090 69.1752 0.0000 0.0000 0.0000
# 4 0.0000 0.0000 0.0000 13.8469 0.0000 0.0000
# 5 0.0000 0.0000 0.0000 0.0000 13.8466 0.0000
# 6 0.0000 0.0000 0.0000 0.0000 0.0000 38.7398
#
#
#
# Elastic Compliance Matrix: (Units=1/GPa)
#
#
# Indices 1 2 3 4 5 6 
#
# 1 0.008155 0.000148 -0.002785 0.000000 0.000000 0.000000
# 2 0.000148 0.008155 -0.002786 0.000000 0.000000 0.000000
# 3 -0.002785 -0.002786 0.016325 0.000000 0.000000 0.000000
# 4 0.000000 0.000000 0.000000 0.072218 0.000000 0.000000
# 5 0.000000 0.000000 0.000000 0.000000 0.072220 0.000000
# 6 0.000000 0.000000 0.000000 0.000000 0.000000 0.025813
#
#
# Mechanical properties :
#
#
# Convention : Reuss Voigt Hill
#
# Bulk Modulus (GPa) = 45.89338 48.22296 47.05817
# Shear Modulus (GPa) = 22.62482 31.82612 27.22547
#
# Velocity S-wave (km/s) = 3.34007 3.96146 3.66396
# Velocity P-wave (km/s) = 6.12408 6.68599 6.41119
#
# Compressibility (1/GPa) = 0.02178963
#
# Stress axis : x y z
#
# Youngs Moduli (GPa) = 122.61703 122.62141 61.25634
#
# Poissons Ratio (x) = -0.01813 0.17060
# Poissons Ratio (y) = -0.01813 0.17064
# Poissons Ratio (z) = 0.34150 0.34159
#
# Static dielectric constant tensor:
#      x y z
#    x 1.780280 0.000000 0.000000 
#    y 0.000000 1.780270 0.000000 
#    z 0.000000 0.000000 1.833580 
# 
# From -- ./inp_files/1579.got.cif
#   From: 2010.05.17/outbox.cif.g08.bks.cpg/sg120_1_cif.got.tgz:1579.got - 2010.05.20 11:28:13.
