data_PCOD9559199
_publ_section_title
;
Structure prediction by ZEFSAII (Michael W. Deem and Ramdas Pophale) SiO2 
 PCOD9559199
Probable space group: I -4 M 2
;
_chemical_formula_sum "Si O2"
_cell_formula_units_Z 112
_cell_length_a 15.104261
_cell_length_b 15.104261
_cell_length_c 23.255228
_cell_angle_alpha 90.000000
_cell_angle_beta 90.000000
_cell_angle_gamma 90.000000
_cell_volume 5305.417492
_symmetry_space_group_name_H-M "I -4 M 2"
_symmetry_group_IT_number 119
_symmetry_cell_setting 'tetragonal'
loop_
_space_group_symop_operation_xyz
x,y,z
y,-x,-z
-x,-y,z
-y,x,-z
y,x,-z
-y,-x,-z
-x,y,z
x,-y,z
1/2+x,1/2+y,1/2+z
1/2+y,1/2-x,1/2-z
1/2-x,1/2-y,1/2+z
1/2-y,1/2+x,1/2-z
1/2+y,1/2+x,1/2-z
1/2-y,1/2-x,1/2-z
1/2-x,1/2+y,1/2+z
1/2+x,1/2-y,1/2+z
loop_
_atom_site_type_symbol
_atom_site_label
_atom_site_fract_x
_atom_site_fract_y
_atom_site_fract_z
Si Si1 0.097952 0.333194 0.450338
Si Si2 0.103485 0.754979 0.749882
Si Si3 0.596656 0.725962 0.603216
Si Si4 0.594170 0.794463 0.085898
Si Si5 0.604053 0.749468 0.741706
Si Si6 0.742497 0.402239 0.616899
Si Si7 0.128437 0.902593 0.568346
O O1 0.179195 0.386472 0.425285
O O2 0.107287 0.315635 0.518434
O O3 0.100471 0.234219 0.424823
O O4 0.000000 0.371420 0.439804
O O5 0.164152 0.664152 0.750000
O O6 0.170711 0.834862 0.729875
O O7 0.089890 0.781076 0.816418
O O8 0.000000 0.747915 0.727107
O O9 0.500000 0.692783 0.588305
O O10 0.602175 0.736878 0.672389
O O11 0.669806 0.655556 0.584708
O O12 0.500000 0.831694 0.102858
O O13 0.670667 0.843299 0.117791
O O14 0.595005 0.689038 0.094245
O O15 0.500000 0.750424 0.760814
O O16 0.659277 0.840723 0.750000
O O17 0.756444 0.500000 0.592447
O O18 0.104982 0.895019 0.500000
O O19 0.098827 0.000000 0.588111
#
# Coordination Sequence:
#
# PCOD9559199 Si02
#       7
#    16  16  16  16  16  16  16
#     4   9  18  32  50  74 104 139 175 210 254 306
#     4   9  19  36  58  82 105 133 171 215 264 315
#     4  10  20  35  56  78 102 135 175 216 258 303
#     4  10  20  33  51  75 104 139 175 213 261 313
#     4   9  19  35  55  82 110 138 172 212 259 309
#     4  10  21  37  55  76 103 134 170 217 265 305
#     4   9  16  28  48  73 100 131 169 211 253 300
#
# _framework density 21.110496000000001
#
# number of rings (size 3 to 8) (size 9 to 14) (size 15 to 20)
#    0.000    2.571    1.429    1.286    0.000    4.143 
#    0.000    7.143    0.000    0.000    0.000    4.000 
#    0.000    0.000    0.000    0.000    0.000    0.000 
#
# Total GULP energy -311999.024788 kJ/mol
# GULP energy per Si atom -5571.411157 kJ/mol
# Density = 2.106245 g / cm^3
# Si number density = 21.110496 Si / 1000 Ang^3
#
#
#
# Elastic Constant Matrix: (Units=GPa)
#
#
# Indices 1 2 3 4 5 6 
#
# 1 135.1311 63.8754 14.9144 0.0000 0.0000 0.0000
# 2 63.8754 135.1303 14.9150 0.0000 0.0000 0.0000
# 3 14.9144 14.9150 25.7742 0.0000 0.0000 0.0000
# 4 0.0000 0.0000 0.0000 14.4265 0.0000 0.0000
# 5 0.0000 0.0000 0.0000 0.0000 14.4266 0.0000
# 6 0.0000 0.0000 0.0000 0.0000 0.0000 -112.7996
#
#
#
# Elastic Compliance Matrix: (Units=1/GPa)
#
#
# Indices 1 2 3 4 5 6 
#
# 1 0.009768 -0.004266 -0.003184 0.000000 0.000000 0.000000
# 2 -0.004266 0.009768 -0.003184 0.000000 0.000000 0.000000
# 3 -0.003184 -0.003184 0.042483 0.000000 0.000000 0.000000
# 4 0.000000 0.000000 0.000000 0.069317 0.000000 0.000000
# 5 0.000000 0.000000 0.000000 0.000000 0.069317 0.000000
# 6 0.000000 0.000000 0.000000 0.000000 0.000000 -0.008865
#
#
# Mechanical properties :
#
#
# Convention : Reuss Voigt Hill
#
# Bulk Modulus (GPa) = 24.53869 53.71615 39.12742
# Shear Modulus (GPa) = 22.06146 -3.30058 9.38044
#
# Velocity S-wave (km/s) = 3.23623 -1.25175 2.11025
# Velocity P-wave (km/s) = 5.06097 4.83852 4.95099
#
# Compressibility (1/GPa) = 0.04075198
#
# Stress axis : x y z
#
# Youngs Moduli (GPa) = 102.37434 102.37319 23.53862
#
# Poissons Ratio (x) = 0.43671 0.07494
# Poissons Ratio (y) = 0.43672 0.07495
# Poissons Ratio (z) = 0.32594 0.32597
#
# Static dielectric constant tensor:
#      x y z
#    x 1.773590 0.000000 0.000000 
#    y 0.000000 1.773590 0.000000 
#    z 0.000000 0.000000 1.812600 
# 
# From -- ./inp_files/10512.got.cif
#   From: 2010.05.17/outbox.cif.g08.bks.cpg/sg119_6_cif.got.tgz:10512.got - 2010.05.20 11:21:29.
