data_PCOD9559412
_publ_section_title
;
Structure prediction by ZEFSAII (Michael W. Deem and Ramdas Pophale) SiO2 
 PCOD9559412
Probable space group: I -4 M 2
;
_chemical_formula_sum "Si O2"
_cell_formula_units_Z 56
_cell_length_a 15.424045
_cell_length_b 15.424045
_cell_length_c 11.299129
_cell_angle_alpha 90.000000
_cell_angle_beta 90.000000
_cell_angle_gamma 90.000000
_cell_volume 2688.075943
_symmetry_space_group_name_H-M "I -4 M 2"
_symmetry_group_IT_number 119
_symmetry_cell_setting 'tetragonal'
loop_
_space_group_symop_operation_xyz
x,y,z
y,-x,-z
-x,-y,z
-y,x,-z
y,x,-z
-y,-x,-z
-x,y,z
x,-y,z
1/2+x,1/2+y,1/2+z
1/2+y,1/2-x,1/2-z
1/2-x,1/2-y,1/2+z
1/2-y,1/2+x,1/2-z
1/2+y,1/2+x,1/2-z
1/2-y,1/2-x,1/2-z
1/2-x,1/2+y,1/2+z
1/2+x,1/2-y,1/2+z
loop_
_atom_site_type_symbol
_atom_site_label
_atom_site_fract_x
_atom_site_fract_y
_atom_site_fract_z
Si Si1 0.831950 0.500000 0.430788
Si Si2 0.827799 0.000000 0.275782
Si Si3 0.000000 0.360473 0.784321
Si Si4 0.149874 0.649874 0.250000
Si Si5 0.896934 0.174504 0.382358
Si Si6 0.000000 0.855857 0.994646
O O1 0.852924 0.500000 0.570866
O O2 0.864577 0.416879 0.357970
O O3 0.726384 0.500000 0.420269
O O4 0.879717 0.084361 0.315409
O O5 0.725029 0.000000 0.300090
O O6 0.820723 0.000000 0.136127
O O7 0.915834 0.415834 0.750000
O O8 0.134767 0.744972 0.304534
O O9 0.839219 0.160782 0.500000
O O10 0.000000 0.182987 0.409748
O O11 0.083645 0.916356 0.000000
#
# Coordination Sequence:
#
# PCOD9559412 Si02
#       6
#     8   8   8   8  16   8
#     4  11  26  47  69 107 145 194 253 307 376 449
#     4  11  25  41  74 102 144 185 244 302 375 429
#     4  10  26  47  71 103 143 193 254 307 375 453
#     4  12  28  47  76 110 155 200 254 308 388 460
#     4  12  27  47  74 112 153 195 250 312 381 457
#     4  10  22  40  69  97 138 180 230 297 363 434
#
# _framework density 20.832746
#
# number of rings (size 3 to 8) (size 9 to 14) (size 15 to 20)
#    0.000    0.857    2.857    2.143   10.000    6.000 
#    0.000    0.000    0.000    0.000    0.000    0.000 
#    0.000    0.000    0.000    0.000    0.000    0.000 
#
# Total GULP energy -156334.398952 kJ/mol
# GULP energy per Si atom -5583.371391 kJ/mol
# Density = 2.078533 g / cm^3
# Si number density = 20.832746 Si / 1000 Ang^3
#
#
#
# Elastic Constant Matrix: (Units=GPa)
#
#
# Indices 1 2 3 4 5 6 
#
# 1 113.2610 42.9195 36.9579 0.0000 0.0000 0.0000
# 2 42.9195 113.2632 36.9573 0.0000 0.0000 0.0000
# 3 36.9579 36.9573 119.3905 0.0000 0.0000 0.0000
# 4 0.0000 0.0000 0.0000 35.4943 0.0000 0.0000
# 5 0.0000 0.0000 0.0000 0.0000 35.4957 0.0000
# 6 0.0000 0.0000 0.0000 0.0000 0.0000 15.6260
#
#
#
# Elastic Compliance Matrix: (Units=1/GPa)
#
#
# Indices 1 2 3 4 5 6 
#
# 1 0.010859 -0.003357 -0.002322 0.000000 0.000000 0.000000
# 2 -0.003357 0.010859 -0.002322 0.000000 0.000000 0.000000
# 3 -0.002322 -0.002322 0.009814 0.000000 0.000000 0.000000
# 4 0.000000 0.000000 0.000000 0.028174 0.000000 0.000000
# 5 0.000000 0.000000 0.000000 0.000000 0.028172 0.000000
# 6 0.000000 0.000000 0.000000 0.000000 0.000000 0.063996
#
#
# Mechanical properties :
#
#
# Convention : Reuss Voigt Hill
#
# Bulk Modulus (GPa) = 64.39820 64.39822 64.39821
# Shear Modulus (GPa) = 28.89297 32.59522 30.74409
#
# Velocity S-wave (km/s) = 3.72815 3.95981 3.84573
# Velocity P-wave (km/s) = 7.03643 7.20319 7.12030
#
# Compressibility (1/GPa) = 0.01552838
#
# Stress axis : x y z
#
# Youngs Moduli (GPa) = 92.08857 92.09082 101.89982
#
# Poissons Ratio (x) = 0.30916 0.23664
# Poissons Ratio (y) = 0.30916 0.23662
# Poissons Ratio (z) = 0.21386 0.21385
#
# Static dielectric constant tensor:
#      x y z
#    x 1.707110 0.000000 0.000000 
#    y 0.000000 1.707130 0.000000 
#    z 0.000000 0.000000 1.771960 
# 
# From -- ./inp_files/3571.got.cif
#   From: 2010.05.17/outbox.cif.g08.bks.cpg/sg119_2_cif.got.tgz:3571.got - 2010.05.20 11:21:29.
