data_PCOD9559383
_publ_section_title
;
Structure prediction by ZEFSAII (Michael W. Deem and Ramdas Pophale) SiO2 
 PCOD9559383
Probable space group: I -4 M 2
;
_chemical_formula_sum "Si O2"
_cell_formula_units_Z 96
_cell_length_a 15.319336
_cell_length_b 15.319336
_cell_length_c 20.294477
_cell_angle_alpha 90.000000
_cell_angle_beta 90.000000
_cell_angle_gamma 90.000000
_cell_volume 4762.749577
_symmetry_space_group_name_H-M "I -4 M 2"
_symmetry_group_IT_number 119
_symmetry_cell_setting 'tetragonal'
loop_
_space_group_symop_operation_xyz
x,y,z
y,-x,-z
-x,-y,z
-y,x,-z
y,x,-z
-y,-x,-z
-x,y,z
x,-y,z
1/2+x,1/2+y,1/2+z
1/2+y,1/2-x,1/2-z
1/2-x,1/2-y,1/2+z
1/2-y,1/2+x,1/2-z
1/2+y,1/2+x,1/2-z
1/2-y,1/2-x,1/2-z
1/2-x,1/2+y,1/2+z
1/2+x,1/2-y,1/2+z
loop_
_atom_site_type_symbol
_atom_site_label
_atom_site_fract_x
_atom_site_fract_y
_atom_site_fract_z
Si Si1 0.901347 0.768065 0.468978
Si Si2 0.894361 0.404230 0.541103
Si Si3 0.651511 0.726630 0.823588
Si Si4 0.599322 0.606072 0.427574
Si Si5 0.400838 0.741606 0.679806
Si Si6 0.104162 0.321808 0.682176
O O1 0.839413 0.839413 0.500000
O O2 0.867648 0.672781 0.491789
O O3 0.899767 0.782112 0.391097
O O4 0.000000 0.776438 0.494490
O O5 0.858376 0.500000 0.525234
O O6 0.874702 0.377645 0.616493
O O7 0.000000 0.408939 0.536622
O O8 0.601353 0.710977 0.755654
O O9 0.685358 0.826706 0.824185
O O10 0.734297 0.661680 0.822769
O O11 0.632654 0.632654 0.500000
O O12 0.500000 0.637354 0.416980
O O13 0.595472 0.500000 0.430154
O O14 0.664291 0.628385 0.369016
O O15 0.500000 0.768362 0.662836
O O16 0.130115 0.369886 0.750000
O O17 0.000000 0.304540 0.681711
#
# Coordination Sequence:
#
# PCOD9559383 Si02
#       6
#    16  16  16  16  16  16
#     4  11  23  41  66  91 124 164 210 266 316 369
#     4   9  19  37  62  92 124 160 204 255 312 376
#     4  11  23  40  60  89 123 159 211 256 311 365
#     4   8  15  31  56  85 117 152 191 239 298 366
#     4  10  21  39  60  84 119 161 204 250 306 367
#     4  11  21  38  62  91 125 162 198 247 312 385
#
# _framework density 20.156424999999999
#
# number of rings (size 3 to 8) (size 9 to 14) (size 15 to 20)
#    0.000    2.000    3.333    1.500    0.000    3.000 
#    0.000    0.000    0.000   11.000    0.000    0.000 
#    0.000    0.333    0.000    0.000    0.000    0.000 
#
# Total GULP energy -267987.905956 kJ/mol
# GULP energy per Si atom -5583.081374 kJ/mol
# Density = 2.011055 g / cm^3
# Si number density = 20.156425 Si / 1000 Ang^3
#
#
#
# Elastic Constant Matrix: (Units=GPa)
#
#
# Indices 1 2 3 4 5 6 
#
# 1 84.8228 42.9291 26.2537 0.0000 0.0000 0.0000
# 2 42.9291 84.8230 26.2536 0.0000 0.0000 0.0000
# 3 26.2537 26.2536 134.5917 0.0000 0.0000 0.0000
# 4 0.0000 0.0000 0.0000 44.0493 0.0000 0.0000
# 5 0.0000 0.0000 0.0000 0.0000 44.0474 0.0000
# 6 0.0000 0.0000 0.0000 0.0000 0.0000 14.8531
#
#
#
# Elastic Compliance Matrix: (Units=1/GPa)
#
#
# Indices 1 2 3 4 5 6 
#
# 1 0.016190 -0.007680 -0.001660 0.000000 0.000000 0.000000
# 2 -0.007680 0.016190 -0.001660 0.000000 0.000000 0.000000
# 3 -0.001660 -0.001660 0.008077 0.000000 0.000000 0.000000
# 4 0.000000 0.000000 0.000000 0.022702 0.000000 0.000000
# 5 0.000000 0.000000 0.000000 0.000000 0.022703 0.000000
# 6 0.000000 0.000000 0.000000 0.000000 0.000000 0.067326
#
#
# Mechanical properties :
#
#
# Convention : Reuss Voigt Hill
#
# Bulk Modulus (GPa) = 54.17856 55.01226 54.59541
# Shear Modulus (GPa) = 27.57245 34.51002 31.04124
#
# Velocity S-wave (km/s) = 3.70256 4.14225 3.92856
# Velocity P-wave (km/s) = 6.72428 7.08728 6.90817
#
# Compressibility (1/GPa) = 0.01845748
#
# Stress axis : x y z
#
# Youngs Moduli (GPa) = 61.76680 61.76698 123.80118
#
# Poissons Ratio (x) = 0.47437 0.20551
# Poissons Ratio (y) = 0.47437 0.20550
# Poissons Ratio (z) = 0.10253 0.10253
#
# Static dielectric constant tensor:
#      x y z
#    x 1.706890 0.000000 0.000000 
#    y 0.000000 1.706890 0.000000 
#    z 0.000000 0.000000 1.722150 
# 
# From -- ./inp_files/7804.got.cif
#   From: 2010.05.17/outbox.cif.g08.bks.cpg/sg119_4_cif.got.tgz:7804.got - 2010.05.20 11:21:29.
