data_PCOD9559416
_publ_section_title
;
Structure prediction by ZEFSAII (Michael W. Deem and Ramdas Pophale) SiO2 
 PCOD9559416
Probable space group: I -4 M 2
;
_chemical_formula_sum "Si O2"
_cell_formula_units_Z 50
_cell_length_a 14.407271
_cell_length_b 14.407271
_cell_length_c 11.689885
_cell_angle_alpha 90.000000
_cell_angle_beta 90.000000
_cell_angle_gamma 90.000000
_cell_volume 2426.463090
_symmetry_space_group_name_H-M "I -4 M 2"
_symmetry_group_IT_number 119
_symmetry_cell_setting 'tetragonal'
loop_
_space_group_symop_operation_xyz
x,y,z
y,-x,-z
-x,-y,z
-y,x,-z
y,x,-z
-y,-x,-z
-x,y,z
x,-y,z
1/2+x,1/2+y,1/2+z
1/2+y,1/2-x,1/2-z
1/2-x,1/2-y,1/2+z
1/2-y,1/2+x,1/2-z
1/2+y,1/2+x,1/2-z
1/2-y,1/2-x,1/2-z
1/2-x,1/2+y,1/2+z
1/2+x,1/2-y,1/2+z
loop_
_atom_site_type_symbol
_atom_site_label
_atom_site_fract_x
_atom_site_fract_y
_atom_site_fract_z
Si Si1 0.231281 0.651905 0.927567
Si Si2 0.500000 0.184818 0.903033
Si Si3 0.500000 0.000000 0.750000
Si Si4 0.200401 0.898095 0.179508
Si Si5 0.500000 0.388165 0.774127
O O1 0.178106 0.744723 0.891109
O O2 0.258678 0.604539 0.808773
O O3 0.321724 0.678277 0.000000
O O4 0.174856 0.587719 0.012885
O O5 0.500000 0.291747 0.851014
O O6 0.500000 0.098788 0.816879
O O7 0.092058 0.881103 0.197724
O O8 0.215769 0.000000 0.129817
O O9 0.500000 0.500000 0.819130
#
# Coordination Sequence:
#
# PCOD9559416 Si02
#       5
#    16   8   2  16   8
#     4  11  23  40  68  97 133 179 220 284 344 404
#     4  12  26  48  67 103 138 183 240 276 358 422
#     4  12  36  44  72  98 148 208 224 296 336 438
#     4  10  22  42  64 100 131 172 227 283 344 409
#     4  10  22  42  74  98 134 168 221 300 351 400
#
# _framework density 20.606123
#
# number of rings (size 3 to 8) (size 9 to 14) (size 15 to 20)
#    0.000    1.280    4.800    0.000    6.720    0.000 
#    5.760    0.000    0.000    0.000    0.000    0.000 
#    0.000    0.000    0.000    0.000    0.000    0.000 
#
# Total GULP energy -139301.246384 kJ/mol
# GULP energy per Si atom -5572.049855 kJ/mol
# Density = 2.055922 g / cm^3
# Si number density = 20.606123 Si / 1000 Ang^3
#
#
#
# Elastic Constant Matrix: (Units=GPa)
#
#
# Indices 1 2 3 4 5 6 
#
# 1 107.6310 48.6600 38.5820 0.0000 0.0000 0.0000
# 2 48.6600 107.6320 38.5824 0.0000 0.0000 0.0000
# 3 38.5820 38.5824 68.1865 0.0000 0.0000 0.0000
# 4 0.0000 0.0000 0.0000 21.4245 0.0000 0.0000
# 5 0.0000 0.0000 0.0000 0.0000 21.4212 0.0000
# 6 0.0000 0.0000 0.0000 0.0000 0.0000 28.7881
#
#
#
# Elastic Compliance Matrix: (Units=1/GPa)
#
#
# Indices 1 2 3 4 5 6 
#
# 1 0.012918 -0.004039 -0.005024 0.000000 0.000000 0.000000
# 2 -0.004039 0.012918 -0.005024 0.000000 0.000000 0.000000
# 3 -0.005024 -0.005024 0.020351 0.000000 0.000000 0.000000
# 4 0.000000 0.000000 0.000000 0.046675 0.000000 0.000000
# 5 0.000000 0.000000 0.000000 0.000000 0.046683 0.000000
# 6 0.000000 0.000000 0.000000 0.000000 0.000000 0.034737
#
#
# Mechanical properties :
#
#
# Convention : Reuss Voigt Hill
#
# Bulk Modulus (GPa) = 55.51564 59.45535 57.48550
# Shear Modulus (GPa) = 23.98539 24.83510 24.41024
#
# Velocity S-wave (km/s) = 3.41544 3.47541 3.44555
# Velocity P-wave (km/s) = 6.52330 6.70973 6.61717
#
# Compressibility (1/GPa) = 0.01801294
#
# Stress axis : x y z
#
# Youngs Moduli (GPa) = 77.41103 77.41155 49.13768
#
# Poissons Ratio (x) = 0.31269 0.24686
# Poissons Ratio (y) = 0.31269 0.24686
# Poissons Ratio (z) = 0.38890 0.38891
#
# Static dielectric constant tensor:
#      x y z
#    x 1.745490 0.000000 0.000000 
#    y 0.000000 1.745480 0.000000 
#    z 0.000000 0.000000 1.715720 
# 
# From -- ./inp_files/3484.got.cif
#   From: 2010.05.17/outbox.cif.g08.bks.cpg/sg119_2_cif.got.tgz:3484.got - 2010.05.20 11:21:29.
