data_PCOD9559074
_publ_section_title
;
Structure prediction by ZEFSAII (Michael W. Deem and Ramdas Pophale) SiO2 
 PCOD9559074
Probable space group: I -4 M 2
;
_chemical_formula_sum "Si O2"
_cell_formula_units_Z 88
_cell_length_a 14.432044
_cell_length_b 14.432044
_cell_length_c 22.013551
_cell_angle_alpha 90.000000
_cell_angle_beta 90.000000
_cell_angle_gamma 90.000000
_cell_volume 4585.068123
_symmetry_space_group_name_H-M "I -4 M 2"
_symmetry_group_IT_number 119
_symmetry_cell_setting 'tetragonal'
loop_
_space_group_symop_operation_xyz
x,y,z
y,-x,-z
-x,-y,z
-y,x,-z
y,x,-z
-y,-x,-z
-x,y,z
x,-y,z
1/2+x,1/2+y,1/2+z
1/2+y,1/2-x,1/2-z
1/2-x,1/2-y,1/2+z
1/2-y,1/2+x,1/2-z
1/2+y,1/2+x,1/2-z
1/2-y,1/2-x,1/2-z
1/2-x,1/2+y,1/2+z
1/2+x,1/2-y,1/2+z
loop_
_atom_site_type_symbol
_atom_site_label
_atom_site_fract_x
_atom_site_fract_y
_atom_site_fract_z
Si Si1 0.108282 0.893044 0.734392
Si Si2 0.109749 0.890252 0.500000
Si Si3 0.732680 0.610729 0.117468
Si Si4 0.748730 0.390742 0.568011
Si Si5 0.787825 0.608724 0.696553
Si Si6 0.391338 0.229588 0.568045
O O1 0.175596 0.868455 0.678621
O O2 0.121872 0.821058 0.788688
O O3 0.000000 0.885483 0.714940
O O4 0.124409 0.000000 0.751546
O O5 0.134980 0.829977 0.441226
O O6 0.000000 0.877063 0.512364
O O7 0.747364 0.500000 0.116440
O O8 0.828846 0.664516 0.110150
O O9 0.728341 0.500000 0.574270
O O10 0.806102 0.360957 0.627538
O O11 0.798434 0.378749 0.503237
O O12 0.655357 0.330783 0.569354
O O13 0.808949 0.500000 0.700842
O O14 0.840690 0.659311 0.750000
O O15 0.500000 0.229487 0.582171
#
# Coordination Sequence:
#
# PCOD9559074 Si02
#       6
#    16   8  16  16  16  16
#     4   9  18  33  53  77 103 131 165 207 254 299
#     4   9  16  26  44  70  96 125 162 202 246 295
#     4  10  19  31  49  73 103 135 165 201 246 301
#     4   9  19  35  53  74  99 128 169 218 259 293
#     4  10  20  34  53  76 104 136 168 205 248 300
#     4  10  20  34  52  73 101 136 171 210 253 297
#
# _framework density 19.192734999999999
#
# number of rings (size 3 to 8) (size 9 to 14) (size 15 to 20)
#    0.000    2.455    0.000    2.727    0.000    3.818 
#    0.000    6.364    0.000    3.273    0.000    0.000 
#    0.000    4.364    0.000    0.000    0.000    0.182 
#
# Total GULP energy -245447.505705 kJ/mol
# GULP energy per Si atom -5578.352402 kJ/mol
# Density = 1.914905 g / cm^3
# Si number density = 19.192735 Si / 1000 Ang^3
#
#
#
# Elastic Constant Matrix: (Units=GPa)
#
#
# Indices 1 2 3 4 5 6 
#
# 1 35.0210 12.8594 10.2801 0.0000 0.0000 0.0000
# 2 12.8594 35.0222 10.2788 0.0000 0.0000 0.0000
# 3 10.2801 10.2788 62.3949 0.0000 0.0000 0.0000
# 4 0.0000 0.0000 0.0000 18.7221 0.0000 0.0000
# 5 0.0000 0.0000 0.0000 0.0000 18.7219 0.0000
# 6 0.0000 0.0000 0.0000 0.0000 0.0000 20.9587
#
#
#
# Elastic Compliance Matrix: (Units=1/GPa)
#
#
# Indices 1 2 3 4 5 6 
#
# 1 0.033799 -0.011323 -0.003703 0.000000 0.000000 0.000000
# 2 -0.011323 0.033798 -0.003702 0.000000 0.000000 0.000000
# 3 -0.003703 -0.003702 0.017247 0.000000 0.000000 0.000000
# 4 0.000000 0.000000 0.000000 0.053413 0.000000 0.000000
# 5 0.000000 0.000000 0.000000 0.000000 0.053413 0.000000
# 6 0.000000 0.000000 0.000000 0.000000 0.000000 0.047713
#
#
# Mechanical properties :
#
#
# Convention : Reuss Voigt Hill
#
# Bulk Modulus (GPa) = 21.10324 22.14162 21.62243
# Shear Modulus (GPa) = 17.08608 18.28187 17.68397
#
# Velocity S-wave (km/s) = 2.98692 3.08967 3.03873
# Velocity P-wave (km/s) = 4.78695 4.92845 4.85822
#
# Compressibility (1/GPa) = 0.04738610
#
# Stress axis : x y z
#
# Youngs Moduli (GPa) = 29.58644 29.58795 57.98122
#
# Poissons Ratio (x) = 0.33504 0.21472
# Poissons Ratio (y) = 0.33502 0.21465
# Poissons Ratio (z) = 0.10957 0.10954
#
# Static dielectric constant tensor:
#      x y z
#    x 1.664070 0.000000 0.000000 
#    y 0.000000 1.664070 0.000000 
#    z 0.000000 0.000000 1.699160 
# 
# From -- ./inp_files/7705.got.cif
#   From: 2010.05.17/outbox.cif.g08.bks.cpg/sg119_4_cif.got.tgz:7705.got - 2010.05.20 11:21:29.
