data_PCOD9559374
_publ_section_title
;
Structure prediction by ZEFSAII (Michael W. Deem and Ramdas Pophale) SiO2 
 PCOD9559374
Probable space group: I -4 M 2
;
_chemical_formula_sum "Si O2"
_cell_formula_units_Z 48
_cell_length_a 7.959051
_cell_length_b 7.959051
_cell_length_c 38.345809
_cell_angle_alpha 90.000000
_cell_angle_beta 90.000000
_cell_angle_gamma 90.000000
_cell_volume 2429.072515
_symmetry_space_group_name_H-M "I -4 M 2"
_symmetry_group_IT_number 119
_symmetry_cell_setting 'tetragonal'
loop_
_space_group_symop_operation_xyz
x,y,z
y,-x,-z
-x,-y,z
-y,x,-z
y,x,-z
-y,-x,-z
-x,y,z
x,-y,z
1/2+x,1/2+y,1/2+z
1/2+y,1/2-x,1/2-z
1/2-x,1/2-y,1/2+z
1/2-y,1/2+x,1/2-z
1/2+y,1/2+x,1/2-z
1/2-y,1/2-x,1/2-z
1/2-x,1/2+y,1/2+z
1/2+x,1/2-y,1/2+z
loop_
_atom_site_type_symbol
_atom_site_label
_atom_site_fract_x
_atom_site_fract_y
_atom_site_fract_z
Si Si1 0.199859 0.000000 0.867860
Si Si2 0.182298 0.702083 0.674314
Si Si3 0.500000 0.200266 0.552561
Si Si4 0.301422 0.801422 0.750000
Si Si5 0.699593 0.300408 0.000000
O O1 0.269856 0.165667 0.848987
O O2 0.224813 0.000000 0.909020
O O3 0.000000 0.000000 0.861205
O O4 0.180045 0.500000 0.670773
O O5 0.213422 0.741524 0.714813
O O6 0.000000 0.767594 0.663562
O O7 0.668967 0.241813 0.530796
O O8 0.500000 0.000000 0.556581
O O9 0.500000 0.771874 0.745690
O O10 0.500000 0.278027 0.008699
#
# Coordination Sequence:
#
# PCOD9559374 Si02
#       5
#     8  16   8   8   8
#     4  10  22  38  56  86 124 156 198 258 308 365
#     4  10  21  38  58  82 116 158 203 249 308 372
#     4  10  22  38  62  90 120 160 200 249 305 376
#     4  11  22  35  56  84 114 153 206 261 306 364
#     4   9  20  39  60  90 126 157 202 253 300 362
#
# _framework density 19.760628000000001
#
# number of rings (size 3 to 8) (size 9 to 14) (size 15 to 20)
#    0.000    2.000    1.667    1.000    2.333    6.000 
#    0.000    0.000    0.000    0.000    0.000    0.000 
#    0.000    0.000    0.000    0.000    0.000    0.000 
#
# Total GULP energy -133975.885442 kJ/mol
# GULP energy per Si atom -5582.328560 kJ/mol
# Density = 1.971565 g / cm^3
# Si number density = 19.760628 Si / 1000 Ang^3
#
#
#
# Elastic Constant Matrix: (Units=GPa)
#
#
# Indices 1 2 3 4 5 6 
#
# 1 66.3860 69.5997 53.6137 0.0000 0.0000 0.0000
# 2 69.5997 66.3869 53.6135 0.0000 0.0000 0.0000
# 3 53.6137 53.6135 123.2290 0.0000 0.0000 0.0000
# 4 0.0000 0.0000 0.0000 28.7518 0.0000 0.0000
# 5 0.0000 0.0000 0.0000 0.0000 28.7524 0.0000
# 6 0.0000 0.0000 0.0000 0.0000 0.0000 14.2342
#
#
#
# Elastic Compliance Matrix: (Units=1/GPa)
#
#
# Indices 1 2 3 4 5 6 
#
# 1 -0.150010 0.161202 -0.004869 0.000000 0.000000 0.000000
# 2 0.161202 -0.150007 -0.004871 0.000000 0.000000 0.000000
# 3 -0.004869 -0.004871 0.012353 0.000000 0.000000 0.000000
# 4 0.000000 0.000000 0.000000 0.034780 0.000000 0.000000
# 5 0.000000 0.000000 0.000000 0.000000 0.034780 0.000000
# 6 0.000000 0.000000 0.000000 0.000000 0.000000 0.070253
#
#
# Mechanical properties :
#
#
# Convention : Reuss Voigt Hill
#
# Bulk Modulus (GPa) = 65.53140 67.73954 66.63547
# Shear Modulus (GPa) = -11.21859 19.62603 4.20372
#
# Velocity S-wave (km/s) = -2.38528 3.15491 1.46012
# Velocity P-wave (km/s) = 5.06444 6.90114 6.05286
#
# Compressibility (1/GPa) = 0.01525986
#
# Stress axis : x y z
#
# Youngs Moduli (GPa) = -6.66620 -6.66637 80.95386
#
# Poissons Ratio (x) = 1.07463 0.39418
# Poissons Ratio (y) = 1.07461 0.39434
# Poissons Ratio (z) = -0.03246 -0.03247
#
# Static dielectric constant tensor:
#      x y z
#    x 1.711560 0.000000 0.000000 
#    y 0.000000 1.711560 0.000000 
#    z 0.000000 0.000000 1.648550 
# 
# From -- ./inp_files/9895.got.cif
#   From: 2010.05.17/outbox.cif.g08.bks.cpg/sg119_5_cif.got.tgz:9895.got - 2010.05.20 11:21:29.
