data_PCOD9559814
_publ_section_title
;
Structure prediction by ZEFSAII (Michael W. Deem and Ramdas Pophale) SiO2 
 PCOD9559814
Probable space group: I -4 C 2
;
_chemical_formula_sum "Si O2"
_cell_formula_units_Z 88
_cell_length_a 11.735138
_cell_length_b 11.735138
_cell_length_c 26.829043
_cell_angle_alpha 90.000000
_cell_angle_beta 90.000000
_cell_angle_gamma 90.000000
_cell_volume 3694.720444
_symmetry_space_group_name_H-M "I -4 C 2"
_symmetry_group_IT_number 120
_symmetry_cell_setting 'tetragonal'
loop_
_space_group_symop_operation_xyz
x,y,z
y,-x,-z
-x,-y,z
-y,x,-z
y,x,1/2-z
-y,-x,1/2-z
-x,y,1/2+z
x,-y,1/2+z
1/2+x,1/2+y,1/2+z
1/2+y,1/2-x,1/2-z
1/2-x,1/2-y,1/2+z
1/2-y,1/2+x,1/2-z
1/2+y,1/2+x,-z
1/2-y,1/2-x,-z
1/2-x,1/2+y,z
1/2+x,1/2-y,z
loop_
_atom_site_type_symbol
_atom_site_label
_atom_site_fract_x
_atom_site_fract_y
_atom_site_fract_z
Si Si1 0.777222 0.595571 0.902125
Si Si2 0.500000 0.000000 0.865825
Si Si3 0.046733 0.262701 0.508464
Si Si4 0.937099 0.104788 0.828725
Si Si5 0.838864 0.460648 0.222336
Si Si6 0.091740 0.817811 0.419297
O O1 0.762629 0.573028 0.961080
O O2 0.679670 0.581630 0.860260
O O3 0.825260 0.721598 0.898453
O O4 0.881485 0.507847 0.893704
O O5 0.505947 0.890899 0.830791
O O6 0.125225 0.374776 0.500000
O O7 0.107953 0.169663 0.543751
O O8 0.011775 0.226862 0.453236
O O9 0.925949 0.210877 0.790578
O O10 0.029461 0.128721 0.872374
O O11 0.000000 0.000000 0.802876
O O12 0.864167 0.574232 0.255745
#
# Coordination Sequence:
#
# PCOD9559814 Si02
#       6
#    16   8  16  16  16  16
#     4  12  25  42  71 111 154 205 268 318 378 468
#     4  10  21  44  77 104 142 200 252 309 383 472
#     4  12  25  41  64 102 156 214 269 312 374 436
#     4  12  25  46  79 118 152 201 258 324 407 481
#     4   9  22  49  85 109 140 190 246 325 406 482
#     4  12  25  43  64 106 155 211 260 323 375 451
#
# _framework density 23.817768000000001
#
# number of rings (size 3 to 8) (size 9 to 14) (size 15 to 20)
#    0.000    0.909    3.636    4.909    2.545    0.727 
#    0.000    3.636    8.000    8.727    0.000    0.000 
#    0.000    0.000    0.000    0.000    0.000    0.000 
#
# Total GULP energy -245553.287267 kJ/mol
# GULP energy per Si atom -5580.756529 kJ/mol
# Density = 2.376356 g / cm^3
# Si number density = 23.817768 Si / 1000 Ang^3
#
#
#
# Elastic Constant Matrix: (Units=GPa)
#
#
# Indices 1 2 3 4 5 6 
#
# 1 99.0519 42.3059 36.1032 0.0000 0.0000 0.0000
# 2 42.3059 99.0514 36.1032 0.0000 0.0000 0.0000
# 3 36.1032 36.1032 102.7480 0.0000 0.0000 0.0000
# 4 0.0000 0.0000 0.0000 85.1233 0.0000 0.0000
# 5 0.0000 0.0000 0.0000 0.0000 85.0054 0.0000
# 6 0.0000 0.0000 0.0000 0.0000 0.0000 27.3364
#
#
#
# Elastic Compliance Matrix: (Units=1/GPa)
#
#
# Indices 1 2 3 4 5 6 
#
# 1 0.013122 -0.004500 -0.003029 0.000000 0.000000 0.000000
# 2 -0.004500 0.013122 -0.003029 0.000000 0.000000 0.000000
# 3 -0.003029 -0.003029 0.011862 0.000000 0.000000 0.000000
# 4 0.000000 0.000000 0.000000 0.011748 0.000000 0.000000
# 5 0.000000 0.000000 0.000000 0.000000 0.011764 0.000000
# 6 0.000000 0.000000 0.000000 0.000000 0.000000 0.036581
#
#
# Mechanical properties :
#
#
# Convention : Reuss Voigt Hill
#
# Bulk Modulus (GPa) = 58.86821 58.87511 58.87166
# Shear Modulus (GPa) = 40.00651 51.91561 45.96106
#
# Velocity S-wave (km/s) = 4.10285 4.67379 4.39760
# Velocity P-wave (km/s) = 6.87126 7.34155 7.11030
#
# Compressibility (1/GPa) = 0.01698710
#
# Stress axis : x y z
#
# Youngs Moduli (GPa) = 76.20756 76.20713 84.30619
#
# Poissons Ratio (x) = 0.34296 0.25540
# Poissons Ratio (y) = 0.34296 0.25540
# Poissons Ratio (z) = 0.23087 0.23087
#
# Static dielectric constant tensor:
#      x y z
#    x 0.471670 0.000000 0.000000 
#    y 0.000000 0.469210 0.000000 
#    z 0.000000 0.000000 1.900550 
# 
# From -- ./inp_files/6604.got.cif
#   From: 2010.05.17/outbox.cif.g08.bks.cpg/sg120_4_cif.got.tgz:6604.got - 2010.05.20 11:28:13.
