data_PCOD9559114
_publ_section_title
;
Structure prediction by ZEFSAII (Michael W. Deem and Ramdas Pophale) SiO2 
 PCOD9559114
Probable space group: I -4 M 2
;
_chemical_formula_sum "Si O2"
_cell_formula_units_Z 88
_cell_length_a 30.115928
_cell_length_b 30.115928
_cell_length_c 6.139683
_cell_angle_alpha 90.000000
_cell_angle_beta 90.000000
_cell_angle_gamma 90.000000
_cell_volume 5568.502883
_symmetry_space_group_name_H-M "I -4 M 2"
_symmetry_group_IT_number 119
_symmetry_cell_setting 'tetragonal'
loop_
_space_group_symop_operation_xyz
x,y,z
y,-x,-z
-x,-y,z
-y,x,-z
y,x,-z
-y,-x,-z
-x,y,z
x,-y,z
1/2+x,1/2+y,1/2+z
1/2+y,1/2-x,1/2-z
1/2-x,1/2-y,1/2+z
1/2-y,1/2+x,1/2-z
1/2+y,1/2+x,1/2-z
1/2-y,1/2-x,1/2-z
1/2-x,1/2+y,1/2+z
1/2+x,1/2-y,1/2+z
loop_
_atom_site_type_symbol
_atom_site_label
_atom_site_fract_x
_atom_site_fract_y
_atom_site_fract_z
Si Si1 0.551271 0.376729 0.554888
Si Si2 0.747706 0.692252 0.866900
Si Si3 0.751527 0.376722 0.471963
Si Si4 0.789673 0.051478 0.239694
Si Si5 0.319342 0.819342 0.750000
Si Si6 0.109973 0.177213 0.380935
O O1 0.580867 0.419134 0.500000
O O2 0.500000 0.387542 0.590882
O O3 0.553889 0.338857 0.367694
O O4 0.573653 0.353088 0.760546
O O5 0.785821 0.682831 0.043493
O O6 0.710948 0.629776 0.301053
O O7 0.704087 0.704087 0.000000
O O8 0.744136 0.656400 0.676907
O O9 0.762294 0.262294 0.750000
O O10 0.744322 0.425810 0.569380
O O11 0.799057 0.364141 0.363834
O O12 0.792370 0.082872 0.449641
O O13 0.779686 0.000000 0.284516
O O14 0.143045 0.143045 0.500000
#
# Coordination Sequence:
#
# PCOD9559114 Si02
#       6
#    16  16  16  16   8  16
#     4  10  20  36  54  72  91 113 150 204 267 333
#     4  10  19  33  45  66  98 132 161 191 236 292
#     4  10  23  34  49  75  98 131 165 208 246 301
#     4  10  21  37  54  71  94 126 165 209 259 313
#     4  10  20  34  48  68 104 132 160 195 244 296
#     4  11  21  36  52  71  94 123 159 205 259 320
#
# _framework density 15.80317
#
# number of rings (size 3 to 8) (size 9 to 14) (size 15 to 20)
#    0.000    1.818    2.727    1.636    0.000    5.273 
#    3.273    0.000    0.000    0.000    0.000    0.000 
#    0.000    0.000    0.000    0.000    0.000    0.455 
#
# Total GULP energy -245066.500213 kJ/mol
# GULP energy per Si atom -5569.693187 kJ/mol
# Density = 1.576720 g / cm^3
# Si number density = 15.803170 Si / 1000 Ang^3
#
#
#
# Elastic Constant Matrix: (Units=GPa)
#
#
# Indices 1 2 3 4 5 6 
#
# 1 51.9477 53.6435 28.7191 0.0000 0.0000 0.0000
# 2 53.6435 51.9473 28.7190 0.0000 0.0000 0.0000
# 3 28.7191 28.7190 87.7193 0.0000 0.0000 0.0000
# 4 0.0000 0.0000 0.0000 17.2092 0.0000 0.0000
# 5 0.0000 0.0000 0.0000 0.0000 17.2100 0.0000
# 6 0.0000 0.0000 0.0000 0.0000 0.0000 21.6511
#
#
#
# Elastic Compliance Matrix: (Units=1/GPa)
#
#
# Indices 1 2 3 4 5 6 
#
# 1 -0.289048 0.300572 -0.003773 0.000000 0.000000 0.000000
# 2 0.300572 -0.289051 -0.003772 0.000000 0.000000 0.000000
# 3 -0.003773 -0.003772 0.013870 0.000000 0.000000 0.000000
# 4 0.000000 0.000000 0.000000 0.058108 0.000000 0.000000
# 5 0.000000 0.000000 0.000000 0.000000 0.058106 0.000000
# 6 0.000000 0.000000 0.000000 0.000000 0.000000 0.046187
#
#
# Mechanical properties :
#
#
# Convention : Reuss Voigt Hill
#
# Bulk Modulus (GPa) = 45.81790 45.97527 45.89658
# Shear Modulus (GPa) = -5.09888 16.58291 5.74201
#
# Velocity S-wave (km/s) = -1.79819 3.24287 1.90823
# Velocity P-wave (km/s) = 4.97438 6.57093 5.82759
#
# Compressibility (1/GPa) = 0.02182553
#
# Stress axis : x y z
#
# Youngs Moduli (GPa) = -3.45963 -3.45960 72.09709
#
# Poissons Ratio (x) = 1.03986 0.27200
# Poissons Ratio (y) = 1.03987 0.27197
# Poissons Ratio (z) = -0.01305 -0.01305
#
# Static dielectric constant tensor:
#      x y z
#    x 1.542330 0.000000 0.000000 
#    y 0.000000 1.542330 0.000000 
#    z 0.000000 0.000000 1.595210 
# 
# From -- ./inp_files/1108.got.cif
#   From: 2010.05.17/outbox.cif.g08.bks.cpg/sg119_1_cif.got.tgz:1108.got - 2010.05.20 11:21:29.
