data_PCOD9559658
_publ_section_title
;
Structure prediction by ZEFSAII (Michael W. Deem and Ramdas Pophale) SiO2 
 PCOD9559658
Probable space group: I -4 C 2
;
_chemical_formula_sum "Si O2"
_cell_formula_units_Z 72
_cell_length_a 14.788898
_cell_length_b 14.788898
_cell_length_c 11.558335
_cell_angle_alpha 90.000000
_cell_angle_beta 90.000000
_cell_angle_gamma 90.000000
_cell_volume 2527.940832
_symmetry_space_group_name_H-M "I -4 C 2"
_symmetry_group_IT_number 120
_symmetry_cell_setting 'tetragonal'
loop_
_space_group_symop_operation_xyz
x,y,z
y,-x,-z
-x,-y,z
-y,x,-z
y,x,1/2-z
-y,-x,1/2-z
-x,y,1/2+z
x,-y,1/2+z
1/2+x,1/2+y,1/2+z
1/2+y,1/2-x,1/2-z
1/2-x,1/2-y,1/2+z
1/2-y,1/2+x,1/2-z
1/2+y,1/2+x,-z
1/2-y,1/2-x,-z
1/2-x,1/2+y,z
1/2+x,1/2-y,z
loop_
_atom_site_type_symbol
_atom_site_label
_atom_site_fract_x
_atom_site_fract_y
_atom_site_fract_z
Si Si1 0.705893 0.499729 0.968966
Si Si2 0.197405 0.697405 0.000000
Si Si3 0.722375 0.277626 0.750000
Si Si4 0.128773 0.628773 0.500000
Si Si5 0.376948 0.987370 0.702771
Si Si6 0.014730 0.812536 0.281366
O O1 0.767762 0.407560 0.982599
O O2 0.770906 0.589264 0.966607
O O3 0.649824 0.496498 0.848087
O O4 0.649944 0.503007 0.089621
O O5 0.230599 0.738392 0.874953
O O6 0.615748 0.271290 0.779050
O O7 0.056668 0.612725 0.400080
O O8 0.408254 0.051930 0.807498
O O9 0.277161 0.953345 0.720589
#
# Coordination Sequence:
#
# PCOD9559658 Si02
#       6
#    16   8   8   8  16  16
#     4  10  22  34  57  82 114 155 198 232 291 344
#     4  10  24  40  58  81 118 166 210 241 284 358
#     4  10  24  40  54  80 122 164 204 250 282 338
#     4  10  20  28  44  73 106 137 180 239 260 325
#     4  10  20  29  44  74 106 148 186 221 271 329
#     4  10  22  38  53  81 115 158 194 241 283 344
#
# _framework density 28.481680000000001
#
# number of rings (size 3 to 8) (size 9 to 14) (size 15 to 20)
#    0.000    2.000    2.222    0.000   12.444    7.556 
#    0.000    0.000    0.000    0.000    0.000    0.000 
#    0.000   57.778    0.000    0.000    0.000    0.000 
#
# Total GULP energy -200445.640616 kJ/mol
# GULP energy per Si atom -5567.934462 kJ/mol
# Density = 2.841685 g / cm^3
# Si number density = 28.481680 Si / 1000 Ang^3
#
#
#
# Elastic Constant Matrix: (Units=GPa)
#
#
# Indices 1 2 3 4 5 6 
#
# 1 65.9227 40.2290 47.9088 0.0000 0.0000 0.0000
# 2 40.2290 65.9244 47.9087 0.0000 0.0000 0.0000
# 3 47.9088 47.9087 313.7834 0.0000 0.0000 0.0000
# 4 0.0000 0.0000 0.0000 21.9208 0.0000 0.0000
# 5 0.0000 0.0000 0.0000 0.0000 21.9209 0.0000
# 6 0.0000 0.0000 0.0000 0.0000 0.0000 38.2903
#
#
#
# Elastic Compliance Matrix: (Units=1/GPa)
#
#
# Indices 1 2 3 4 5 6 
#
# 1 0.024923 -0.013996 -0.001668 0.000000 0.000000 0.000000
# 2 -0.013996 0.024922 -0.001668 0.000000 0.000000 0.000000
# 3 -0.001668 -0.001668 0.003696 0.000000 0.000000 0.000000
# 4 0.000000 0.000000 0.000000 0.045619 0.000000 0.000000
# 5 0.000000 0.000000 0.000000 0.000000 0.045619 0.000000
# 6 0.000000 0.000000 0.000000 0.000000 0.000000 0.026116
#
#
# Mechanical properties :
#
#
# Convention : Reuss Voigt Hill
#
# Bulk Modulus (GPa) = 52.97777 79.74705 66.36241
# Shear Modulus (GPa) = 23.60134 37.06533 30.33334
#
# Velocity S-wave (km/s) = 2.88175 3.61137 3.26699
# Velocity P-wave (km/s) = 5.45103 6.74163 6.13038
#
# Compressibility (1/GPa) = 0.01887584
#
# Stress axis : x y z
#
# Youngs Moduli (GPa) = 40.12384 40.12502 270.53910
#
# Poissons Ratio (x) = 0.56160 0.45134
# Poissons Ratio (y) = 0.56158 0.45130
# Poissons Ratio (z) = 0.06694 0.06694
#
# Static dielectric constant tensor:
#      x y z
#    x 2.356100 0.000000 0.000000 
#    y 0.000000 2.356100 0.000000 
#    z 0.000000 0.000000 2.446200 
# 
# From -- ./inp_files/2513.got.cif
#   From: 2010.05.17/outbox.cif.g08.bks.cpg/sg120_2_cif.got.tgz:2513.got - 2010.05.20 11:28:13.
