data_PCOD9559215
_publ_section_title
;
Structure prediction by ZEFSAII (Michael W. Deem and Ramdas Pophale) SiO2 
 PCOD9559215
Probable space group: I -4 M 2
;
_chemical_formula_sum "Si O2"
_cell_formula_units_Z 96
_cell_length_a 24.241850
_cell_length_b 24.241850
_cell_length_c 9.377454
_cell_angle_alpha 90.000000
_cell_angle_beta 90.000000
_cell_angle_gamma 90.000000
_cell_volume 5510.822993
_symmetry_space_group_name_H-M "I -4 M 2"
_symmetry_group_IT_number 119
_symmetry_cell_setting 'tetragonal'
loop_
_space_group_symop_operation_xyz
x,y,z
y,-x,-z
-x,-y,z
-y,x,-z
y,x,-z
-y,-x,-z
-x,y,z
x,-y,z
1/2+x,1/2+y,1/2+z
1/2+y,1/2-x,1/2-z
1/2-x,1/2-y,1/2+z
1/2-y,1/2+x,1/2-z
1/2+y,1/2+x,1/2-z
1/2-y,1/2-x,1/2-z
1/2-x,1/2+y,1/2+z
1/2+x,1/2-y,1/2+z
loop_
_atom_site_type_symbol
_atom_site_label
_atom_site_fract_x
_atom_site_fract_y
_atom_site_fract_z
Si Si1 0.273158 0.934375 0.096811
Si Si2 0.134126 0.437536 0.841265
Si Si3 0.063289 0.939213 0.826577
Si Si4 0.235960 0.802642 0.651625
Si Si5 0.836565 0.865262 0.162434
Si Si6 0.350165 0.141771 0.906824
O O1 0.315543 0.932440 0.229410
O O2 0.217981 0.903309 0.149846
O O3 0.264361 0.000000 0.061529
O O4 0.301832 0.898789 0.968164
O O5 0.130065 0.500000 0.890064
O O6 0.081299 0.418702 0.750000
O O7 0.141189 0.396619 0.972783
O O8 0.099209 0.887805 0.780717
O O9 0.000000 0.934240 0.779293
O O10 0.084332 0.000000 0.785312
O O11 0.062370 0.937631 0.000000
O O12 0.212087 0.787914 0.500000
O O13 0.249921 0.749921 0.750000
O O14 0.189596 0.833122 0.742849
O O15 0.295097 0.830057 0.616809
O O16 0.847916 0.847916 0.000000
O O17 0.373198 0.126803 0.750000
#
# Coordination Sequence:
#
# PCOD9559215 Si02
#       6
#    16  16  16  16  16  16
#     4  10  20  35  55  78 105 141 186 230 268 317
#     4   9  19  36  57  78 102 136 176 217 260 312
#     4   8  15  29  49  74 104 137 176 224 272 316
#     4  11  21  34  51  74 105 142 177 217 268 325
#     4  11  20  32  52  79 106 137 179 225 272 325
#     4  10  20  34  51  77 110 141 172 214 272 328
#
# _framework density 17.420265000000001
#
# number of rings (size 3 to 8) (size 9 to 14) (size 15 to 20)
#    0.000    2.167    0.000    5.500    0.000    2.833 
#    0.000    0.833    0.000    2.000    0.000    3.500 
#    0.000    0.000    0.000    0.000    0.000    0.000 
#
# Total GULP energy -267333.657323 kJ/mol
# GULP energy per Si atom -5569.451194 kJ/mol
# Density = 1.738062 g / cm^3
# Si number density = 17.420265 Si / 1000 Ang^3
#
#
#
# Elastic Constant Matrix: (Units=GPa)
#
#
# Indices 1 2 3 4 5 6 
#
# 1 104.1380 64.9789 28.1499 0.0000 0.0000 0.0000
# 2 64.9789 104.1295 28.1479 0.0000 0.0000 0.0000
# 3 28.1499 28.1479 81.0689 0.0000 0.0000 0.0000
# 4 0.0000 0.0000 0.0000 18.9570 0.0000 0.0000
# 5 0.0000 0.0000 0.0000 0.0000 18.9585 0.0000
# 6 0.0000 0.0000 0.0000 0.0000 0.0000 31.1862
#
#
#
# Elastic Compliance Matrix: (Units=1/GPa)
#
#
# Indices 1 2 3 4 5 6 
#
# 1 0.016112 -0.009427 -0.002322 0.000000 0.000000 0.000000
# 2 -0.009427 0.016113 -0.002321 0.000000 0.000000 0.000000
# 3 -0.002322 -0.002321 0.013947 0.000000 0.000000 0.000000
# 4 0.000000 0.000000 0.000000 0.052751 0.000000 0.000000
# 5 0.000000 0.000000 0.000000 0.000000 0.052747 0.000000
# 6 0.000000 0.000000 0.000000 0.000000 0.000000 0.032065
#
#
# Mechanical properties :
#
#
# Convention : Reuss Voigt Hill
#
# Bulk Modulus (GPa) = 55.45294 59.09887 57.27590
# Shear Modulus (GPa) = 22.94765 25.02431 23.98598
#
# Velocity S-wave (km/s) = 3.63339 3.79424 3.71469
# Velocity P-wave (km/s) = 7.03588 7.29342 7.16581
#
# Compressibility (1/GPa) = 0.01803331
#
# Stress axis : x y z
#
# Youngs Moduli (GPa) = 62.06453 62.05985 71.69807
#
# Poissons Ratio (x) = 0.58503 0.16646
# Poissons Ratio (y) = 0.58507 0.16644
# Poissons Ratio (z) = 0.14409 0.14407
#
# Static dielectric constant tensor:
#      x y z
#    x 1.622500 0.000000 0.000000 
#    y 0.000000 1.622490 0.000000 
#    z 0.000000 0.000000 1.573800 
# 
# From -- ./inp_files/2655.got.cif
#   From: 2010.05.17/outbox.cif.g08.bks.cpg/sg119_2_cif.got.tgz:2655.got - 2010.05.20 11:21:29.
