data_PCOD9559563
_publ_section_title
;
Structure prediction by ZEFSAII (Michael W. Deem and Ramdas Pophale) SiO2 
 PCOD9559563
Probable space group: I -4 C 2
;
_chemical_formula_sum "Si O2"
_cell_formula_units_Z 92
_cell_length_a 26.797350
_cell_length_b 26.797350
_cell_length_c 8.444797
_cell_angle_alpha 90.000000
_cell_angle_beta 90.000000
_cell_angle_gamma 90.000000
_cell_volume 6064.191558
_symmetry_space_group_name_H-M "I -4 C 2"
_symmetry_group_IT_number 120
_symmetry_cell_setting 'tetragonal'
loop_
_space_group_symop_operation_xyz
x,y,z
y,-x,-z
-x,-y,z
-y,x,-z
y,x,1/2-z
-y,-x,1/2-z
-x,y,1/2+z
x,-y,1/2+z
1/2+x,1/2+y,1/2+z
1/2+y,1/2-x,1/2-z
1/2-x,1/2-y,1/2+z
1/2-y,1/2+x,1/2-z
1/2+y,1/2+x,-z
1/2-y,1/2-x,-z
1/2-x,1/2+y,z
1/2+x,1/2-y,z
loop_
_atom_site_type_symbol
_atom_site_label
_atom_site_fract_x
_atom_site_fract_y
_atom_site_fract_z
Si Si1 0.500000 0.000000 0.250000
Si Si2 0.945761 0.554240 0.000000
Si Si3 0.157563 0.529358 0.340289
Si Si4 0.268681 0.153394 0.074375
Si Si5 0.801887 0.222403 0.431885
Si Si6 0.659267 0.073230 0.492832
Si Si7 0.373289 0.206228 0.562162
O O1 0.512632 0.954717 0.365282
O O2 0.953476 0.605868 0.083470
O O3 0.158312 0.543832 0.157588
O O4 0.159351 0.469861 0.362351
O O5 0.196723 0.567478 0.423967
O O6 0.289350 0.104291 0.988335
O O7 0.281049 0.146111 0.259336
O O8 0.304141 0.195860 0.000000
O O9 0.213811 0.173840 0.034122
O O10 0.788840 0.211161 0.250000
O O11 0.766798 0.266798 0.500000
O O12 0.856040 0.246839 0.456116
O O13 0.613238 0.113238 0.500000
O O14 0.343258 0.156743 0.500000
#
# Coordination Sequence:
#
# PCOD9559563 Si02
#       7
#     4   8  16  16  16  16  16
#     4  10  24  34  48  54  72  94 140 190 232 262
#     4  11  22  36  44  60  72 100 138 186 228 268
#     4  11  23  34  47  61  82 110 142 181 226 262
#     4   9  17  31  45  63  82 104 131 169 211 259
#     4  10  17  26  45  66  83 103 125 162 208 257
#     4  10  24  36  47  62  83 111 145 185 225 263
#     4  10  18  30  44  63  82 106 133 168 212 260
#
# _framework density 15.171025
#
# number of rings (size 3 to 8) (size 9 to 14) (size 15 to 20)
#    0.000    1.913    0.870    5.739    7.304    2.783 
#    0.000    0.000    0.000    0.000    0.000    0.000 
#    0.000    0.000    0.000    0.000    0.000    0.870 
#
# Total GULP energy -256299.207006 kJ/mol
# GULP energy per Si atom -5571.721891 kJ/mol
# Density = 1.513650 g / cm^3
# Si number density = 15.171025 Si / 1000 Ang^3
#
#
#
# Elastic Constant Matrix: (Units=GPa)
#
#
# Indices 1 2 3 4 5 6 
#
# 1 35.1613 31.7253 3.9932 0.0000 0.0000 0.0000
# 2 31.7253 35.1600 3.9947 0.0000 0.0000 0.0000
# 3 3.9932 3.9947 44.3561 0.0000 0.0000 0.0000
# 4 0.0000 0.0000 0.0000 11.9665 0.0000 0.0000
# 5 0.0000 0.0000 0.0000 0.0000 11.9627 0.0000
# 6 0.0000 0.0000 0.0000 0.0000 0.0000 25.2281
#
#
#
# Elastic Compliance Matrix: (Units=1/GPa)
#
#
# Indices 1 2 3 4 5 6 
#
# 1 0.153097 -0.137987 -0.001356 0.000000 0.000000 0.000000
# 2 -0.137987 0.153104 -0.001366 0.000000 0.000000 0.000000
# 3 -0.001356 -0.001366 0.022790 0.000000 0.000000 0.000000
# 4 0.000000 0.000000 0.000000 0.083566 0.000000 0.000000
# 5 0.000000 0.000000 0.000000 0.000000 0.083593 0.000000
# 6 0.000000 0.000000 0.000000 0.000000 0.000000 0.039638
#
#
# Mechanical properties :
#
#
# Convention : Reuss Voigt Hill
#
# Bulk Modulus (GPa) = 21.02023 21.56707 21.29365
# Shear Modulus (GPa) = 6.00195 14.82909 10.41552
#
# Velocity S-wave (km/s) = 1.99118 3.12983 2.62303
# Velocity P-wave (km/s) = 4.37858 5.22570 4.82078
#
# Compressibility (1/GPa) = 0.04757321
#
# Stress axis : x y z
#
# Youngs Moduli (GPa) = 6.53182 6.53153 43.87913
#
# Poissons Ratio (x) = 0.90126 0.05948
# Poissons Ratio (y) = 0.90131 0.05995
# Poissons Ratio (z) = 0.00885 0.00892
#
# Static dielectric constant tensor:
#      x y z
#    x 1.558140 0.000000 0.000000 
#    y 0.000000 1.558140 0.000000 
#    z 0.000000 0.000000 1.639250 
# 
# From -- ./inp_files/1663.got.cif
#   From: 2010.05.17/outbox.cif.g08.bks.cpg/sg120_1_cif.got.tgz:1663.got - 2010.05.20 11:28:13.
