data_PCOD9559062
_publ_section_title
;
Structure prediction by ZEFSAII (Michael W. Deem and Ramdas Pophale) SiO2 
 PCOD9559062
Probable space group: I -4 M 2
;
_chemical_formula_sum "Si O2"
_cell_formula_units_Z 112
_cell_length_a 15.389668
_cell_length_b 15.389668
_cell_length_c 22.841517
_cell_angle_alpha 90.000000
_cell_angle_beta 90.000000
_cell_angle_gamma 90.000000
_cell_volume 5409.827855
_symmetry_space_group_name_H-M "I -4 M 2"
_symmetry_group_IT_number 119
_symmetry_cell_setting 'tetragonal'
loop_
_space_group_symop_operation_xyz
x,y,z
y,-x,-z
-x,-y,z
-y,x,-z
y,x,-z
-y,-x,-z
-x,y,z
x,-y,z
1/2+x,1/2+y,1/2+z
1/2+y,1/2-x,1/2-z
1/2-x,1/2-y,1/2+z
1/2-y,1/2+x,1/2-z
1/2+y,1/2+x,1/2-z
1/2-y,1/2-x,1/2-z
1/2-x,1/2+y,1/2+z
1/2+x,1/2-y,1/2+z
loop_
_atom_site_type_symbol
_atom_site_label
_atom_site_fract_x
_atom_site_fract_y
_atom_site_fract_z
Si Si1 0.603890 0.149695 0.458093
Si Si2 0.375391 0.406847 0.067208
Si Si3 0.262376 0.212363 0.812420
Si Si4 0.404842 0.396997 0.683181
Si Si5 0.906343 0.264039 0.638866
Si Si6 0.656639 0.400915 0.560082
Si Si7 0.329544 0.100400 0.586351
O O1 0.500000 0.141885 0.448598
O O2 0.658562 0.099017 0.409142
O O3 0.639829 0.248467 0.447880
O O4 0.621476 0.124855 0.525878
O O5 0.401238 0.500000 0.092809
O O6 0.408633 0.325403 0.102676
O O7 0.271397 0.402471 0.068741
O O8 0.402453 0.402453 0.000000
O O9 0.305905 0.194096 0.750000
O O10 0.167652 0.170824 0.800143
O O11 0.244487 0.314569 0.826571
O O12 0.323577 0.170010 0.863542
O O13 0.500000 0.375945 0.707779
O O14 0.390165 0.500000 0.692550
O O15 0.403403 0.376158 0.613604
O O16 0.000000 0.272311 0.671011
O O17 0.608108 0.391893 0.500000
O O18 0.678068 0.500000 0.572008
O O19 0.353546 0.000000 0.604154
#
# Coordination Sequence:
#
# PCOD9559062 Si02
#       7
#    16  16  16  16  16  16  16
#     4  11  22  36  59  92 130 167 202 249 315 392
#     4  10  19  32  54  86 121 154 189 236 299 371
#     4  11  25  43  66  89 121 170 221 276 322 379
#     4  10  21  39  64  93 125 161 206 265 330 386
#     4  11  23  39  60  89 125 164 205 256 318 385
#     4  10  19  30  50  85 125 162 197 240 299 375
#     4  10  22  39  59  87 125 165 208 259 316 380
#
# _framework density 20.703061999999999
#
# number of rings (size 3 to 8) (size 9 to 14) (size 15 to 20)
#    0.000    1.571    2.857    2.143    2.000    5.714 
#    0.000    0.000    0.000    0.000    0.000    2.000 
#    0.000    0.000    0.000    0.000    0.000    0.000 
#
# Total GULP energy -311762.063168 kJ/mol
# GULP energy per Si atom -5567.179699 kJ/mol
# Density = 2.065594 g / cm^3
# Si number density = 20.703062 Si / 1000 Ang^3
#
#
#
# Elastic Constant Matrix: (Units=GPa)
#
#
# Indices 1 2 3 4 5 6 
#
# 1 268.5734 -118.5301 12.0567 0.0000 0.0000 0.0000
# 2 -118.5301 268.5925 12.0529 0.0000 0.0000 0.0000
# 3 12.0567 12.0529 47.3122 0.0000 0.0000 0.0000
# 4 0.0000 0.0000 0.0000 6.5269 0.0000 0.0000
# 5 0.0000 0.0000 0.0000 0.0000 6.5265 0.0000
# 6 0.0000 0.0000 0.0000 0.0000 0.0000 -86.8018
#
#
#
# Elastic Compliance Matrix: (Units=1/GPa)
#
#
# Indices 1 2 3 4 5 6 
#
# 1 0.004766 0.002183 -0.001771 0.000000 0.000000 0.000000
# 2 0.002183 0.004766 -0.001770 0.000000 0.000000 0.000000
# 3 -0.001771 -0.001770 0.022038 0.000000 0.000000 0.000000
# 4 0.000000 0.000000 0.000000 0.153211 0.000000 0.000000
# 5 0.000000 0.000000 0.000000 0.000000 0.153221 0.000000
# 6 0.000000 0.000000 0.000000 0.000000 0.000000 -0.011521
#
#
# Mechanical properties :
#
#
# Convention : Reuss Voigt Hill
#
# Bulk Modulus (GPa) = 34.65724 43.95970 39.30847
# Shear Modulus (GPa) = 14.75726 30.51024 22.63375
#
# Velocity S-wave (km/s) = 2.67274 3.84305 3.31003
# Velocity P-wave (km/s) = 5.12847 6.40091 5.79969
#
# Compressibility (1/GPa) = 0.02885400
#
# Stress axis : x y z
#
# Youngs Moduli (GPa) = 209.81090 209.82747 45.37525
#
# Poissons Ratio (x) = -0.45801 0.08034
# Poissons Ratio (y) = -0.45797 0.08033
# Poissons Ratio (z) = 0.37150 0.37147
#
# Static dielectric constant tensor:
#      x y z
#    x 1.805560 0.000000 0.000000 
#    y 0.000000 1.805570 0.000000 
#    z 0.000000 0.000000 1.737530 
# 
# From -- ./inp_files/9567.got.cif
#   From: 2010.05.17/outbox.cif.g08.bks.cpg/sg119_5_cif.got.tgz:9567.got - 2010.05.20 11:21:29.
