data_PCOD9559322
_publ_section_title
;
Structure prediction by ZEFSAII (Michael W. Deem and Ramdas Pophale) SiO2 
 PCOD9559322
Probable space group: I -4 M 2
;
_chemical_formula_sum "Si O2"
_cell_formula_units_Z 72
_cell_length_a 20.197937
_cell_length_b 20.197937
_cell_length_c 7.974262
_cell_angle_alpha 90.000000
_cell_angle_beta 90.000000
_cell_angle_gamma 90.000000
_cell_volume 3253.153284
_symmetry_space_group_name_H-M "I -4 M 2"
_symmetry_group_IT_number 119
_symmetry_cell_setting 'tetragonal'
loop_
_space_group_symop_operation_xyz
x,y,z
y,-x,-z
-x,-y,z
-y,x,-z
y,x,-z
-y,-x,-z
-x,y,z
x,-y,z
1/2+x,1/2+y,1/2+z
1/2+y,1/2-x,1/2-z
1/2-x,1/2-y,1/2+z
1/2-y,1/2+x,1/2-z
1/2+y,1/2+x,1/2-z
1/2-y,1/2-x,1/2-z
1/2-x,1/2+y,1/2+z
1/2+x,1/2-y,1/2+z
loop_
_atom_site_type_symbol
_atom_site_label
_atom_site_fract_x
_atom_site_fract_y
_atom_site_fract_z
Si Si1 0.856599 0.780053 0.363400
Si Si2 0.749701 0.500000 0.168429
Si Si3 0.244967 0.000000 0.280262
Si Si4 0.639237 0.845380 0.451992
Si Si5 0.302020 0.372012 0.620682
Si Si6 0.500000 0.149334 0.524086
O O1 0.832287 0.832287 0.500000
O O2 0.856641 0.706247 0.442669
O O3 0.805681 0.802096 0.218534
O O4 0.932199 0.790419 0.308557
O O5 0.807965 0.500000 0.305125
O O6 0.770135 0.500000 0.970868
O O7 0.202088 0.935041 0.240561
O O8 0.305358 0.000000 0.146903
O O9 0.646592 0.853409 0.250000
O O10 0.624583 0.767566 0.475019
O O11 0.573067 0.883588 0.513029
O O12 0.364869 0.364869 0.500000
#
# Coordination Sequence:
#
# PCOD9559322 Si02
#       6
#    16   8   8  16  16   8
#     4  12  22  39  63  94 124 167 222 277 331 396
#     4  12  24  40  62  91 138 177 216 277 348 405
#     4  10  20  42  56  85 134 177 210 272 347 407
#     4  11  22  39  65  95 133 166 214 278 337 403
#     4  11  23  37  62  92 128 166 218 279 340 403
#     4  10  24  40  60  96 134 176 212 263 343 420
#
# _framework density 22.132372
#
# number of rings (size 3 to 8) (size 9 to 14) (size 15 to 20)
#    0.000    0.889    4.444    4.667    0.000    4.444 
#    0.000    0.000    0.000    6.333    0.000    3.111 
#    0.000    0.000    0.000    0.000    0.000    0.000 
#
# Total GULP energy -200557.977945 kJ/mol
# GULP energy per Si atom -5571.054943 kJ/mol
# Density = 2.208200 g / cm^3
# Si number density = 22.132372 Si / 1000 Ang^3
#
#
#
# Elastic Constant Matrix: (Units=GPa)
#
#
# Indices 1 2 3 4 5 6 
#
# 1 98.5109 39.0311 11.1561 0.0000 0.0000 0.0000
# 2 39.0311 98.5109 11.1562 0.0000 0.0000 0.0000
# 3 11.1561 11.1562 84.4323 0.0000 0.0000 0.0000
# 4 0.0000 0.0000 0.0000 33.8734 0.0000 0.0000
# 5 0.0000 0.0000 0.0000 0.0000 33.8732 0.0000
# 6 0.0000 0.0000 0.0000 0.0000 0.0000 -2.6415
#
#
#
# Elastic Compliance Matrix: (Units=1/GPa)
#
#
# Indices 1 2 3 4 5 6 
#
# 1 0.012121 -0.004691 -0.000982 0.000000 0.000000 0.000000
# 2 -0.004691 0.012121 -0.000982 0.000000 0.000000 0.000000
# 3 -0.000982 -0.000982 0.012103 0.000000 0.000000 0.000000
# 4 0.000000 0.000000 0.000000 0.029522 0.000000 0.000000
# 5 0.000000 0.000000 0.000000 0.000000 0.029522 0.000000
# 6 0.000000 0.000000 0.000000 0.000000 0.000000 -0.378568
#
#
# Mechanical properties :
#
#
# Convention : Reuss Voigt Hill
#
# Bulk Modulus (GPa) = 43.41044 44.90456 44.15750
# Shear Modulus (GPa) = -19.07009 27.69505 4.31248
#
# Velocity S-wave (km/s) = -2.93855 3.54126 1.39740
# Velocity P-wave (km/s) = 2.85362 6.08719 4.75379
#
# Compressibility (1/GPa) = 0.02303593
#
# Stress axis : x y z
#
# Youngs Moduli (GPa) = 82.50078 82.50079 82.62257
#
# Poissons Ratio (x) = 0.38704 0.08111
# Poissons Ratio (y) = 0.38704 0.08111
# Poissons Ratio (z) = 0.08099 0.08099
#
# Static dielectric constant tensor:
#      x y z
#    x 1.838870 0.000000 0.000000 
#    y 0.000000 1.838870 0.000000 
#    z 0.000000 0.000000 2.017040 
# 
# From -- ./inp_files/2484.got.cif
#   From: 2010.05.17/outbox.cif.g08.bks.cpg/sg119_2_cif.got.tgz:2484.got - 2010.05.20 11:21:29.
