data_PCOD9559713
_publ_section_title
;
Structure prediction by ZEFSAII (Michael W. Deem and Ramdas Pophale) SiO2 
 PCOD9559713
Probable space group: I -4 C 2
;
_chemical_formula_sum "Si O2"
_cell_formula_units_Z 96
_cell_length_a 23.252174
_cell_length_b 23.252174
_cell_length_c 8.186961
_cell_angle_alpha 90.000000
_cell_angle_beta 90.000000
_cell_angle_gamma 90.000000
_cell_volume 4426.391772
_symmetry_space_group_name_H-M "I -4 C 2"
_symmetry_group_IT_number 120
_symmetry_cell_setting 'tetragonal'
loop_
_space_group_symop_operation_xyz
x,y,z
y,-x,-z
-x,-y,z
-y,x,-z
y,x,1/2-z
-y,-x,1/2-z
-x,y,1/2+z
x,-y,1/2+z
1/2+x,1/2+y,1/2+z
1/2+y,1/2-x,1/2-z
1/2-x,1/2-y,1/2+z
1/2-y,1/2+x,1/2-z
1/2+y,1/2+x,-z
1/2-y,1/2-x,-z
1/2-x,1/2+y,z
1/2+x,1/2-y,z
loop_
_atom_site_type_symbol
_atom_site_label
_atom_site_fract_x
_atom_site_fract_y
_atom_site_fract_z
Si Si1 0.861544 0.682045 0.662936
Si Si2 0.981085 0.168827 0.091528
Si Si3 0.309117 0.083970 0.380985
Si Si4 0.391660 0.288620 0.354412
Si Si5 0.121210 0.110982 0.424417
Si Si6 0.199539 0.474040 0.529253
O O1 0.823742 0.676259 0.500000
O O2 0.843526 0.638370 0.807948
O O3 0.861268 0.745696 0.732525
O O4 0.925628 0.673007 0.589447
O O5 0.947316 0.182900 0.262162
O O6 0.044055 0.139678 0.097522
O O7 0.942902 0.125762 0.980865
O O8 0.981597 0.233333 0.017832
O O9 0.252478 0.100631 0.483987
O O10 0.298836 0.048344 0.213748
O O11 0.333296 0.034268 0.501719
O O12 0.360414 0.342326 0.432328
O O13 0.136535 0.136535 0.250000
#
# Coordination Sequence:
#
# PCOD9559713 Si02
#       6
#    16  16  16  16  16  16
#     4   9  21  38  63 101 134 170 225 276 330 406
#     4  11  24  43  64  95 126 174 220 282 341 408
#     4  11  20  36  65  97 130 173 221 269 327 396
#     4  11  22  39  64  93 133 170 222 277 338 402
#     4  12  25  41  67  95 131 172 224 281 349 408
#     4  10  20  37  66  96 131 169 227 270 331 400
#
# _framework density 21.688092000000001
#
# number of rings (size 3 to 8) (size 9 to 14) (size 15 to 20)
#    0.000    1.333    1.667    5.000    0.000    0.333 
#    0.000    0.833    0.000   50.500    0.000    3.500 
#    0.000    0.000    0.000    0.000    0.000    0.000 
#
# Total GULP energy -267366.043668 kJ/mol
# GULP energy per Si atom -5570.125910 kJ/mol
# Density = 2.163873 g / cm^3
# Si number density = 21.688092 Si / 1000 Ang^3
#
#
#
# Elastic Constant Matrix: (Units=GPa)
#
#
# Indices 1 2 3 4 5 6 
#
# 1 92.2860 47.8428 44.4544 0.0000 0.0000 0.0000
# 2 47.8428 92.2834 44.4555 0.0000 0.0000 0.0000
# 3 44.4544 44.4555 132.8827 0.0000 0.0000 0.0000
# 4 0.0000 0.0000 0.0000 41.9086 0.0000 0.0000
# 5 0.0000 0.0000 0.0000 0.0000 41.9087 0.0000
# 6 0.0000 0.0000 0.0000 0.0000 0.0000 41.6418
#
#
#
# Elastic Compliance Matrix: (Units=1/GPa)
#
#
# Indices 1 2 3 4 5 6 
#
# 1 0.015780 -0.006721 -0.003031 0.000000 0.000000 0.000000
# 2 -0.006721 0.015781 -0.003031 0.000000 0.000000 0.000000
# 3 -0.003031 -0.003031 0.009553 0.000000 0.000000 0.000000
# 4 0.000000 0.000000 0.000000 0.023861 0.000000 0.000000
# 5 0.000000 0.000000 0.000000 0.000000 0.023861 0.000000
# 6 0.000000 0.000000 0.000000 0.000000 0.000000 0.024014
#
#
# Mechanical properties :
#
#
# Convention : Reuss Voigt Hill
#
# Bulk Modulus (GPa) = 64.31286 65.66193 64.98739
# Shear Modulus (GPa) = 34.81920 37.13846 35.97883
#
# Velocity S-wave (km/s) = 4.01116 4.14259 4.07740
# Velocity P-wave (km/s) = 7.15335 7.29539 7.22472
#
# Compressibility (1/GPa) = 0.01554899
#
# Stress axis : x y z
#
# Youngs Moduli (GPa) = 63.37147 63.36872 104.67638
#
# Poissons Ratio (x) = 0.42590 0.31722
# Poissons Ratio (y) = 0.42592 0.31727
# Poissons Ratio (z) = 0.19205 0.19207
#
# Static dielectric constant tensor:
#      x y z
#    x 1.838110 0.000000 0.000000 
#    y 0.000000 1.838110 0.000000 
#    z 0.000000 0.000000 1.908600 
# 
# From -- ./inp_files/1523.got.cif
#   From: 2010.05.17/outbox.cif.g08.bks.cpg/sg120_1_cif.got.tgz:1523.got - 2010.05.20 11:28:13.
