data_PCOD9559075
_publ_section_title
;
Structure prediction by ZEFSAII (Michael W. Deem and Ramdas Pophale) SiO2 
 PCOD9559075
Probable space group: I -4 M 2
;
_chemical_formula_sum "Si O2"
_cell_formula_units_Z 80
_cell_length_a 17.975037
_cell_length_b 17.975037
_cell_length_c 15.043267
_cell_angle_alpha 90.000000
_cell_angle_beta 90.000000
_cell_angle_gamma 90.000000
_cell_volume 4860.508980
_symmetry_space_group_name_H-M "I -4 M 2"
_symmetry_group_IT_number 119
_symmetry_cell_setting 'tetragonal'
loop_
_space_group_symop_operation_xyz
x,y,z
y,-x,-z
-x,-y,z
-y,x,-z
y,x,-z
-y,-x,-z
-x,y,z
x,-y,z
1/2+x,1/2+y,1/2+z
1/2+y,1/2-x,1/2-z
1/2-x,1/2-y,1/2+z
1/2-y,1/2+x,1/2-z
1/2+y,1/2+x,1/2-z
1/2-y,1/2-x,1/2-z
1/2-x,1/2+y,1/2+z
1/2+x,1/2-y,1/2+z
loop_
_atom_site_type_symbol
_atom_site_label
_atom_site_fract_x
_atom_site_fract_y
_atom_site_fract_z
Si Si1 0.416422 0.416422 0.000000
Si Si2 0.828167 0.869782 0.669462
Si Si3 0.198716 0.585474 0.292346
Si Si4 0.735729 0.727387 0.393867
Si Si5 0.309843 0.415118 0.669671
Si Si6 0.583323 0.416678 0.500000
O O1 0.360272 0.404497 0.080520
O O2 0.407957 0.500000 0.964754
O O3 0.763077 0.915499 0.717540
O O4 0.787978 0.793068 0.642282
O O5 0.892743 0.854196 0.741386
O O6 0.186165 0.500000 0.322791
O O7 0.125815 0.625815 0.250000
O O8 0.232764 0.645917 0.362659
O O9 0.730559 0.730559 0.500000
O O10 0.655554 0.742631 0.349074
O O11 0.281781 0.500000 0.674773
O O12 0.362156 0.409269 0.582524
O O13 0.500000 0.408034 0.536169
#
# Coordination Sequence:
#
# PCOD9559075 Si02
#       6
#     8  16  16  16  16   8
#     4  11  22  33  50  76 102 135 176 213 250 300
#     4  10  20  36  51  70 105 141 175 209 257 312
#     4   9  19  33  53  78 102 136 177 221 273 321
#     4  10  19  34  53  74 102 140 174 216 260 316
#     4  10  19  31  49  74 100 129 168 211 255 299
#     4   9  18  29  42  66 100 131 156 191 246 302
#
# _framework density 16.459181000000001
#
# number of rings (size 3 to 8) (size 9 to 14) (size 15 to 20)
#    0.000    2.200    2.000    3.000    0.000    5.000 
#    0.000    2.000    0.000    0.000    0.000    0.000 
#    0.000   13.600    0.000    0.000    0.000    0.000 
#
# Total GULP energy -222714.244208 kJ/mol
# GULP energy per Si atom -5567.856105 kJ/mol
# Density = 1.642172 g / cm^3
# Si number density = 16.459181 Si / 1000 Ang^3
#
#
#
# Elastic Constant Matrix: (Units=GPa)
#
#
# Indices 1 2 3 4 5 6 
#
# 1 86.2796 37.0902 17.6729 0.0000 0.0000 0.0000
# 2 37.0902 86.2797 17.6737 0.0000 0.0000 0.0000
# 3 17.6729 17.6737 79.6705 0.0000 0.0000 0.0000
# 4 0.0000 0.0000 0.0000 20.2694 0.0000 0.0000
# 5 0.0000 0.0000 0.0000 0.0000 20.2697 0.0000
# 6 0.0000 0.0000 0.0000 0.0000 0.0000 13.0212
#
#
#
# Elastic Compliance Matrix: (Units=1/GPa)
#
#
# Indices 1 2 3 4 5 6 
#
# 1 0.014493 -0.005837 -0.001920 0.000000 0.000000 0.000000
# 2 -0.005837 0.014493 -0.001920 0.000000 0.000000 0.000000
# 3 -0.001920 -0.001920 0.013404 0.000000 0.000000 0.000000
# 4 0.000000 0.000000 0.000000 0.049335 0.000000 0.000000
# 5 0.000000 0.000000 0.000000 0.000000 0.049335 0.000000
# 6 0.000000 0.000000 0.000000 0.000000 0.000000 0.076798
#
#
# Mechanical properties :
#
#
# Convention : Reuss Voigt Hill
#
# Bulk Modulus (GPa) = 43.41264 44.12259 43.76761
# Shear Modulus (GPa) = 20.41737 22.69827 21.55782
#
# Velocity S-wave (km/s) = 3.52587 3.71760 3.62301
# Velocity P-wave (km/s) = 6.55812 6.73000 6.64462
#
# Compressibility (1/GPa) = 0.02303477
#
# Stress axis : x y z
#
# Youngs Moduli (GPa) = 69.00037 69.00014 74.60698
#
# Poissons Ratio (x) = 0.40274 0.14325
# Poissons Ratio (y) = 0.40275 0.14326
# Poissons Ratio (z) = 0.13248 0.13250
#
# Static dielectric constant tensor:
#      x y z
#    x 1.571000 0.000000 0.000000 
#    y 0.000000 1.570990 0.000000 
#    z 0.000000 0.000000 1.563590 
# 
# From -- ./inp_files/5341.got.cif
#   From: 2010.05.17/outbox.cif.g08.bks.cpg/sg119_3_cif.got.tgz:5341.got - 2010.05.20 11:21:29.
