data_PCOD9559137
_publ_section_title
;
Structure prediction by ZEFSAII (Michael W. Deem and Ramdas Pophale) SiO2 
 PCOD9559137
Probable space group: I -4 M 2
;
_chemical_formula_sum "Si O2"
_cell_formula_units_Z 112
_cell_length_a 14.564362
_cell_length_b 14.564362
_cell_length_c 31.075959
_cell_angle_alpha 90.000000
_cell_angle_beta 90.000000
_cell_angle_gamma 90.000000
_cell_volume 6591.852326
_symmetry_space_group_name_H-M "I -4 M 2"
_symmetry_group_IT_number 119
_symmetry_cell_setting 'tetragonal'
loop_
_space_group_symop_operation_xyz
x,y,z
y,-x,-z
-x,-y,z
-y,x,-z
y,x,-z
-y,-x,-z
-x,y,z
x,-y,z
1/2+x,1/2+y,1/2+z
1/2+y,1/2-x,1/2-z
1/2-x,1/2-y,1/2+z
1/2-y,1/2+x,1/2-z
1/2+y,1/2+x,1/2-z
1/2-y,1/2-x,1/2-z
1/2-x,1/2+y,1/2+z
1/2+x,1/2-y,1/2+z
loop_
_atom_site_type_symbol
_atom_site_label
_atom_site_fract_x
_atom_site_fract_y
_atom_site_fract_z
Si Si1 0.783419 0.391006 0.370301
Si Si2 0.108613 0.775427 0.876939
Si Si3 0.603922 0.602869 0.757831
Si Si4 0.611030 0.896338 0.544636
Si Si5 0.209156 0.394585 0.711712
Si Si6 0.391424 0.199265 0.792164
Si Si7 0.247961 0.108923 0.022551
O O1 0.790684 0.500000 0.364672
O O2 0.678186 0.359703 0.371788
O O3 0.834103 0.363693 0.414568
O O4 0.836724 0.340692 0.332162
O O5 0.132993 0.703606 0.838456
O O6 0.121590 0.744038 0.926216
O O7 0.000000 0.796711 0.871359
O O8 0.500000 0.611147 0.740592
O O9 0.612373 0.500000 0.777223
O O10 0.682153 0.609104 0.722052
O O11 0.617955 0.690343 0.788415
O O12 0.500000 0.901743 0.545364
O O13 0.636007 0.841550 0.501677
O O14 0.646838 0.000000 0.547276
O O15 0.178007 0.500000 0.715665
O O16 0.162048 0.337953 0.750000
O O17 0.500000 0.177821 0.794315
O O18 0.346711 0.153290 0.750000
O O19 0.231474 0.000000 0.014931
O O20 0.167417 0.167417 0.000000
#
# Coordination Sequence:
#
# PCOD9559137 Si02
#       7
#    16  16  16  16  16  16  16
#     4  11  21  33  51  76 107 144 181 217 261 320
#     4  10  21  34  52  78 107 140 182 226 272 324
#     4   9  18  33  52  72  96 132 176 218 263 314
#     4   9  18  33  52  74 102 139 179 216 260 318
#     4  10  20  35  53  74 103 139 176 221 270 322
#     4  11  22  34  50  74 105 140 176 219 267 314
#     4  10  19  34  53  77 108 142 178 222 274 328
#
# _framework density 16.990673000000001
#
# number of rings (size 3 to 8) (size 9 to 14) (size 15 to 20)
#    0.000    2.000    1.429    3.000    0.000    3.857 
#    0.000    3.571    0.000    3.429    0.000    0.000 
#    0.000    0.286    0.000    0.000    0.000    0.571 
#
# Total GULP energy -312047.499878 kJ/mol
# GULP energy per Si atom -5572.276784 kJ/mol
# Density = 1.695200 g / cm^3
# Si number density = 16.990673 Si / 1000 Ang^3
#
#
#
# Elastic Constant Matrix: (Units=GPa)
#
#
# Indices 1 2 3 4 5 6 
#
# 1 78.2885 34.0160 55.1073 0.0000 0.0000 0.0000
# 2 34.0160 78.2889 55.1074 0.0000 0.0000 0.0000
# 3 55.1073 55.1074 139.2505 0.0000 0.0000 0.0000
# 4 0.0000 0.0000 0.0000 19.4433 0.0000 0.0000
# 5 0.0000 0.0000 0.0000 0.0000 19.4435 0.0000
# 6 0.0000 0.0000 0.0000 0.0000 0.0000 17.4419
#
#
#
# Elastic Compliance Matrix: (Units=1/GPa)
#
#
# Indices 1 2 3 4 5 6 
#
# 1 0.018573 -0.004014 -0.005761 0.000000 0.000000 0.000000
# 2 -0.004014 0.018573 -0.005761 0.000000 0.000000 0.000000
# 3 -0.005761 -0.005761 0.011741 0.000000 0.000000 0.000000
# 4 0.000000 0.000000 0.000000 0.051432 0.000000 0.000000
# 5 0.000000 0.000000 0.000000 0.000000 0.051431 0.000000
# 6 0.000000 0.000000 0.000000 0.000000 0.000000 0.057333
#
#
# Mechanical properties :
#
#
# Convention : Reuss Voigt Hill
#
# Bulk Modulus (GPa) = 56.13951 64.92102 60.53026
# Shear Modulus (GPa) = 20.31734 21.37222 20.84478
#
# Velocity S-wave (km/s) = 3.46178 3.55051 3.50642
# Velocity P-wave (km/s) = 7.00654 7.42300 7.21777
#
# Compressibility (1/GPa) = 0.01781277
#
# Stress axis : x y z
#
# Youngs Moduli (GPa) = 53.84166 53.84195 85.16865
#
# Poissons Ratio (x) = 0.21614 0.49070
# Poissons Ratio (y) = 0.21614 0.49069
# Poissons Ratio (z) = 0.31021 0.31021
#
# Static dielectric constant tensor:
#      x y z
#    x 1.584570 0.000000 0.000000 
#    y 0.000000 1.584570 0.000000 
#    z 0.000000 0.000000 1.591850 
# 
# From -- ./inp_files/10472.got.cif
#   From: 2010.05.17/outbox.cif.g08.bks.cpg/sg119_6_cif.got.tgz:10472.got - 2010.05.20 11:21:29.
