data_PCOD9559223
_publ_section_title
;
Structure prediction by ZEFSAII (Michael W. Deem and Ramdas Pophale) SiO2 
 PCOD9559223
Probable space group: I -4 M 2
;
_chemical_formula_sum "Si O2"
_cell_formula_units_Z 72
_cell_length_a 17.397940
_cell_length_b 17.397940
_cell_length_c 9.826961
_cell_angle_alpha 90.000000
_cell_angle_beta 90.000000
_cell_angle_gamma 90.000000
_cell_volume 2974.506279
_symmetry_space_group_name_H-M "I -4 M 2"
_symmetry_group_IT_number 119
_symmetry_cell_setting 'tetragonal'
loop_
_space_group_symop_operation_xyz
x,y,z
y,-x,-z
-x,-y,z
-y,x,-z
y,x,-z
-y,-x,-z
-x,y,z
x,-y,z
1/2+x,1/2+y,1/2+z
1/2+y,1/2-x,1/2-z
1/2-x,1/2-y,1/2+z
1/2-y,1/2+x,1/2-z
1/2+y,1/2+x,1/2-z
1/2-y,1/2-x,1/2-z
1/2-x,1/2+y,1/2+z
1/2+x,1/2-y,1/2+z
loop_
_atom_site_type_symbol
_atom_site_label
_atom_site_fract_x
_atom_site_fract_y
_atom_site_fract_z
Si Si1 0.790935 0.916386 0.525194
Si Si2 0.085661 0.759876 0.871503
Si Si3 0.090193 0.409808 0.250000
Si Si4 0.626430 0.909454 0.435633
Si Si5 0.817548 0.912776 0.822855
O O1 0.850007 0.850007 0.500000
O O2 0.718491 0.909533 0.428020
O O3 0.768037 0.912784 0.685069
O O4 0.827035 0.000000 0.505021
O O5 0.135953 0.831911 0.816041
O O6 0.000000 0.777077 0.826315
O O7 0.097021 0.667150 0.858127
O O8 0.090755 0.774142 0.034730
O O9 0.106016 0.500000 0.252182
O O10 0.110288 0.386946 0.404722
O O11 0.600154 0.000000 0.410703
O O12 0.855875 0.000000 0.823176
#
# Coordination Sequence:
#
# PCOD9559223 Si02
#       5
#    16  16   8  16  16
#     4  10  22  39  59  84 115 152 197 251 310 369
#     4  10  20  35  58  90 123 159 201 245 305 369
#     4   9  16  28  52  84 118 158 198 242 297 352
#     4  10  20  34  53  84 125 161 197 246 302 370
#     4   9  20  38  59  87 121 156 201 257 308 363
#
# _framework density 24.205697000000001
#
# number of rings (size 3 to 8) (size 9 to 14) (size 15 to 20)
#    0.000    2.333    0.000    2.000    3.111    6.444 
#    0.000    4.444    0.000    0.000    0.000    1.556 
#    0.000    7.111    0.000    0.222    0.000    0.000 
#
# Total GULP energy -200481.140304 kJ/mol
# GULP energy per Si atom -5568.920564 kJ/mol
# Density = 2.415060 g / cm^3
# Si number density = 24.205697 Si / 1000 Ang^3
#
#
#
# Elastic Constant Matrix: (Units=GPa)
#
#
# Indices 1 2 3 4 5 6 
#
# 1 108.4625 57.0393 24.5453 0.0000 0.0000 0.0000
# 2 57.0393 108.4625 24.5455 0.0000 0.0000 0.0000
# 3 24.5453 24.5455 99.0780 0.0000 0.0000 0.0000
# 4 0.0000 0.0000 0.0000 36.4205 0.0000 0.0000
# 5 0.0000 0.0000 0.0000 0.0000 36.4205 0.0000
# 6 0.0000 0.0000 0.0000 0.0000 0.0000 165.4931
#
#
#
# Elastic Compliance Matrix: (Units=1/GPa)
#
#
# Indices 1 2 3 4 5 6 
#
# 1 0.012984 -0.006463 -0.001616 0.000000 0.000000 0.000000
# 2 -0.006463 0.012984 -0.001616 0.000000 0.000000 0.000000
# 3 -0.001616 -0.001616 0.010894 0.000000 0.000000 0.000000
# 4 0.000000 0.000000 0.000000 0.027457 0.000000 0.000000
# 5 0.000000 0.000000 0.000000 0.000000 0.027457 0.000000
# 6 0.000000 0.000000 0.000000 0.000000 0.000000 0.006043
#
#
# Mechanical properties :
#
#
# Convention : Reuss Voigt Hill
#
# Bulk Modulus (GPa) = 57.22787 58.69592 57.96189
# Shear Modulus (GPa) = 40.64040 61.65834 51.14937
#
# Velocity S-wave (km/s) = 4.10196 5.05252 4.60185
# Velocity P-wave (km/s) = 6.79179 7.63798 7.22728
#
# Compressibility (1/GPa) = 0.01747400
#
# Stress axis : x y z
#
# Youngs Moduli (GPa) = 77.01816 77.01805 91.79739
#
# Poissons Ratio (x) = 0.49773 0.14831
# Poissons Ratio (y) = 0.49773 0.14831
# Poissons Ratio (z) = 0.12443 0.12443
#
# Static dielectric constant tensor:
#      x y z
#    x 1.918560 0.000000 0.000000 
#    y 0.000000 1.918550 0.000000 
#    z 0.000000 0.000000 2.281880 
# 
# From -- ./inp_files/3892.got.cif
#   From: 2010.05.17/outbox.cif.g08.bks.cpg/sg119_2_cif.got.tgz:3892.got - 2010.05.20 11:21:29.
