data_PCOD9559134
_publ_section_title
;
Structure prediction by ZEFSAII (Michael W. Deem and Ramdas Pophale) SiO2 
 PCOD9559134
Probable space group: I -4 M 2
;
_chemical_formula_sum "Si O2"
_cell_formula_units_Z 112
_cell_length_a 14.687311
_cell_length_b 14.687311
_cell_length_c 28.695178
_cell_angle_alpha 90.000000
_cell_angle_beta 90.000000
_cell_angle_gamma 90.000000
_cell_volume 6190.040709
_symmetry_space_group_name_H-M "I -4 M 2"
_symmetry_group_IT_number 119
_symmetry_cell_setting 'tetragonal'
loop_
_space_group_symop_operation_xyz
x,y,z
y,-x,-z
-x,-y,z
-y,x,-z
y,x,-z
-y,-x,-z
-x,y,z
x,-y,z
1/2+x,1/2+y,1/2+z
1/2+y,1/2-x,1/2-z
1/2-x,1/2-y,1/2+z
1/2-y,1/2+x,1/2-z
1/2+y,1/2+x,1/2-z
1/2-y,1/2-x,1/2-z
1/2-x,1/2+y,1/2+z
1/2+x,1/2-y,1/2+z
loop_
_atom_site_type_symbol
_atom_site_label
_atom_site_fract_x
_atom_site_fract_y
_atom_site_fract_z
Si Si1 0.609388 0.097993 0.454005
Si Si2 0.389306 0.395589 0.052280
Si Si3 0.236594 0.231434 0.804552
Si Si4 0.392186 0.390115 0.638806
Si Si5 0.896643 0.256060 0.627838
Si Si6 0.700582 0.391457 0.541701
Si Si7 0.397459 0.103076 0.693292
O O1 0.500000 0.096684 0.453796
O O2 0.651882 0.099367 0.402507
O O3 0.638983 0.196936 0.472133
O O4 0.640436 0.000000 0.475072
O O5 0.500000 0.397837 0.051499
O O6 0.358316 0.500000 0.060289
O O7 0.365064 0.323941 0.092333
O O8 0.364080 0.364080 0.000000
O O9 0.248967 0.251034 0.750000
O O10 0.154966 0.163403 0.818749
O O11 0.230536 0.326125 0.831222
O O12 0.326015 0.177453 0.821971
O O13 0.500000 0.365803 0.638093
O O14 0.387465 0.500000 0.641210
O O15 0.340189 0.358816 0.591281
O O16 0.000000 0.234456 0.643056
O O17 0.635599 0.364402 0.500000
O O18 0.703975 0.500000 0.546018
O O19 0.500000 0.128855 0.678835
O O20 0.397112 0.102889 0.750000
O O21 0.379637 0.000000 0.678033
#
# Coordination Sequence:
#
# PCOD9559134 Si02
#       7
#    16  16  16  16  16  16  16
#     4   9  18  34  55  77 106 145 185 223 267 327
#     4   8  15  30  52  76 103 135 170 211 260 316
#     4  11  22  35  53  77 107 145 190 236 282 331
#     4  10  21  38  59  84 114 147 185 234 295 352
#     4  10  20  34  51  76 106 140 182 226 272 325
#     4  10  19  33  57  88 118 149 187 232 285 346
#     4   8  15  30  52  74  95 125 170 222 275 334
#
# _framework density 18.093578999999998
#
# number of rings (size 3 to 8) (size 9 to 14) (size 15 to 20)
#    0.000    2.571    1.429    1.714    0.000    3.000 
#    0.000    0.000    0.000    2.571    0.000    3.000 
#    0.000    0.000    0.000    0.000    0.000    0.000 
#
# Total GULP energy -311752.588150 kJ/mol
# GULP energy per Si atom -5567.010503 kJ/mol
# Density = 1.805240 g / cm^3
# Si number density = 18.093579 Si / 1000 Ang^3
#
#
#
# Elastic Constant Matrix: (Units=GPa)
#
#
# Indices 1 2 3 4 5 6 
#
# 1 26.2242 17.6569 2.6430 0.0000 0.0000 0.0000
# 2 17.6569 26.2174 2.6420 0.0000 0.0000 0.0000
# 3 2.6430 2.6420 37.6623 0.0000 0.0000 0.0000
# 4 0.0000 0.0000 0.0000 21.3132 0.0000 0.0000
# 5 0.0000 0.0000 0.0000 0.0000 21.3133 0.0000
# 6 0.0000 0.0000 0.0000 0.0000 0.0000 25.8118
#
#
#
# Elastic Compliance Matrix: (Units=1/GPa)
#
#
# Indices 1 2 3 4 5 6 
#
# 1 0.069868 -0.046893 -0.001614 0.000000 0.000000 0.000000
# 2 -0.046893 0.069886 -0.001612 0.000000 0.000000 0.000000
# 3 -0.001614 -0.001612 0.026778 0.000000 0.000000 0.000000
# 4 0.000000 0.000000 0.000000 0.046919 0.000000 0.000000
# 5 0.000000 0.000000 0.000000 0.000000 0.046919 0.000000
# 6 0.000000 0.000000 0.000000 0.000000 0.000000 0.038742
#
#
# Mechanical properties :
#
#
# Convention : Reuss Voigt Hill
#
# Bulk Modulus (GPa) = 15.08364 15.10976 15.09670
# Shear Modulus (GPa) = 11.86386 18.16513 15.01449
#
# Velocity S-wave (km/s) = 2.56343 3.17196 2.88379
# Velocity P-wave (km/s) = 4.13716 4.66735 4.41023
#
# Compressibility (1/GPa) = 0.06629698
#
# Stress axis : x y z
#
# Youngs Moduli (GPa) = 14.31260 14.30894 37.34398
#
# Poissons Ratio (x) = 0.67098 0.06026
# Poissons Ratio (y) = 0.67115 0.06019
# Poissons Ratio (z) = 0.02310 0.02306
#
# Static dielectric constant tensor:
#      x y z
#    x 1.661670 0.000000 0.000000 
#    y 0.000000 1.661680 0.000000 
#    z 0.000000 0.000000 1.591570 
# 
# From -- ./inp_files/8860.got.cif
#   From: 2010.05.17/outbox.cif.g08.bks.cpg/sg119_5_cif.got.tgz:8860.got - 2010.05.20 11:21:29.
