data_PCOD9559552
_publ_section_title
;
Structure prediction by ZEFSAII (Michael W. Deem and Ramdas Pophale) SiO2 
 PCOD9559552
Probable space group: I -4 M 2
;
_chemical_formula_sum "Si O2"
_cell_formula_units_Z 56
_cell_length_a 15.000000
_cell_length_b 15.000000
_cell_length_c 24.000000
_cell_angle_alpha 90.000000
_cell_angle_beta 90.000000
_cell_angle_gamma 90.000000
_cell_volume 5400.000000
_symmetry_space_group_name_H-M "I -4 M 2"
_symmetry_group_IT_number 119
_symmetry_cell_setting 'tetragonal'
loop_
_space_group_symop_operation_xyz
x,y,z
y,-x,-z
-x,-y,z
-y,x,-z
y,x,-z
-y,-x,-z
-x,y,z
x,-y,z
1/2+x,1/2+y,1/2+z
1/2+y,1/2-x,1/2-z
1/2-x,1/2-y,1/2+z
1/2-y,1/2+x,1/2-z
1/2+y,1/2+x,1/2-z
1/2-y,1/2-x,1/2-z
1/2-x,1/2+y,1/2+z
1/2+x,1/2-y,1/2+z
loop_
_atom_site_type_symbol
_atom_site_label
_atom_site_fract_x
_atom_site_fract_y
_atom_site_fract_z
Si Si1 0.274948 0.103377 0.081607
Si Si2 0.843406 0.898725 0.321744
Si Si3 0.365523 0.097604 0.313675
Si Si4 0.638744 0.893874 0.528676
Si Si5 0.723821 0.600998 0.397166
Si Si6 0.097810 0.845889 0.439927
Si Si7 0.899375 0.252347 0.235580
O O1 0.326435 0.109789 0.141345
O O2 0.186783 0.166974 0.080883
O O3 0.248220 0.000000 0.073603
O O4 0.345174 0.126584 0.031544
O O5 0.740266 0.898169 0.305902
O O6 0.842551 0.871509 0.387313
O O7 0.889004 0.829235 0.279502
O O8 0.878296 0.000000 0.316767
O O9 0.398556 0.101445 0.250000
O O10 0.389835 0.000000 0.337380
O O11 0.601516 0.822608 0.574195
O O12 0.742465 0.895769 0.545084
O O13 0.609613 0.000000 0.528715
O O14 0.687440 0.500000 0.408318
O O15 0.727353 0.611685 0.329806
O O16 0.109577 0.890424 0.500000
O O17 0.000000 0.867705 0.418050
O O18 0.825504 0.325504 0.250000
O O19 0.000000 0.287731 0.241833
#
# Coordination Sequence:
#
# PCOD9559552 Si02
#       7
#    16  16  16  16  16  16  16
#     4  12  25  42  67  96 131 176 223 274 330 394
#     4  11  23  40  64  94 131 175 220 270 331 399
#     4  11  23  39  62  93 131 173 216 268 332 402
#     4  11  24  43  68  96 127 165 211 269 337 402
#     4  11  25  44  67  95 129 172 221 274 332 396
#     4  11  22  36  58  89 127 169 213 265 324 390
#     4  11  24  42  65  93 128 172 223 279 337 400
#
# _framework density 10.370369999999999
#
# number of rings (size 3 to 8) (size 9 to 14) (size 15 to 20)
#    0.000    0.857    0.000    8.143    0.000   10.714 
#    0.000    2.857    0.000    1.714    0.000    0.000 
#    0.000    0.000    0.000    0.000    0.000    0.000 
#
# Total GULP energy -312733.291797 kJ/mol
# GULP energy per Si atom -5584.523068 kJ/mol
# Density = 1.034677 g / cm^3
# Si number density = 10.370370 Si / 1000 Ang^3
#
#
#
# Elastic Constant Matrix: (Units=GPa)
#
#
# Indices 1 2 3 4 5 6 
#
# 1 130.7160 52.6994 37.1929 0.0000 0.0000 0.0000
# 2 52.6994 130.7160 37.1922 0.0000 0.0000 0.0000
# 3 37.1929 37.1922 129.9529 0.0000 0.0000 0.0000
# 4 0.0000 0.0000 0.0000 28.1529 0.0000 0.0000
# 5 0.0000 0.0000 0.0000 0.0000 28.1529 0.0000
# 6 0.0000 0.0000 0.0000 0.0000 0.0000 -14.6898
#
#
#
# Elastic Compliance Matrix: (Units=1/GPa)
#
#
# Indices 1 2 3 4 5 6 
#
# 1 0.009493 -0.003325 -0.001765 0.000000 0.000000 0.000000
# 2 -0.003325 0.009493 -0.001765 0.000000 0.000000 0.000000
# 3 -0.001765 -0.001765 0.008706 0.000000 0.000000 0.000000
# 4 0.000000 0.000000 0.000000 0.035520 0.000000 0.000000
# 5 0.000000 0.000000 0.000000 0.000000 0.035520 0.000000
# 6 0.000000 0.000000 0.000000 0.000000 0.000000 -0.068074
#
#
# Mechanical properties :
#
#
# Convention : Reuss Voigt Hill
#
# Bulk Modulus (GPa) = 71.52852 71.72823 71.62837
# Shear Modulus (GPa) = 101.98129 25.94323 63.96226
#
# Velocity S-wave (km/s) = 7.01971 3.54055 5.55931
# Velocity P-wave (km/s) = 10.01317 7.16745 8.70735
#
# Compressibility (1/GPa) = 0.01398044
#
# Stress axis : x y z
#
# Youngs Moduli (GPa) = 105.34165 105.34199 114.86927
#
# Poissons Ratio (x) = 0.35025 0.20278
# Poissons Ratio (y) = 0.35025 0.20277
# Poissons Ratio (z) = 0.18596 0.18596
#
# Static dielectric constant tensor:
#      x y z
#    x 1.772670 0.000000 0.000000 
#    y 0.000000 1.772660 0.000000 
#    z 0.000000 0.000000 1.715010 
# 
# From -- ./inp_files/8823.got.cif
#   From: 2010.05.17/outbox.ucp.g08.bks.cvg/sg119_5_cif.got.tgz:8823.got - 2010.06.11 11:34:25.
