data_PCOD9559516
_publ_section_title
;
Structure prediction by ZEFSAII (Michael W. Deem and Ramdas Pophale) SiO2 
 PCOD9559516
Probable space group: I -4 M 2
;
_chemical_formula_sum "Si O2"
_cell_formula_units_Z 72
_cell_length_a 19.021348
_cell_length_b 19.021348
_cell_length_c 10.418401
_cell_angle_alpha 90.000000
_cell_angle_beta 90.000000
_cell_angle_gamma 90.000000
_cell_volume 3769.499166
_symmetry_space_group_name_H-M "I -4 M 2"
_symmetry_group_IT_number 119
_symmetry_cell_setting 'tetragonal'
loop_
_space_group_symop_operation_xyz
x,y,z
y,-x,-z
-x,-y,z
-y,x,-z
y,x,-z
-y,-x,-z
-x,y,z
x,-y,z
1/2+x,1/2+y,1/2+z
1/2+y,1/2-x,1/2-z
1/2-x,1/2-y,1/2+z
1/2-y,1/2+x,1/2-z
1/2+y,1/2+x,1/2-z
1/2-y,1/2-x,1/2-z
1/2-x,1/2+y,1/2+z
1/2+x,1/2-y,1/2+z
loop_
_atom_site_type_symbol
_atom_site_label
_atom_site_fract_x
_atom_site_fract_y
_atom_site_fract_z
Si Si1 0.149350 0.083734 0.370669
Si Si2 0.294125 0.705876 0.500000
Si Si3 0.308202 0.418123 0.306547
Si Si4 0.804059 0.352889 0.875525
Si Si5 0.331330 0.917252 0.645417
O O1 0.117536 0.117536 0.500000
O O2 0.106312 0.118370 0.254240
O O3 0.230545 0.106893 0.356007
O O4 0.144034 0.000000 0.376198
O O5 0.366933 0.709766 0.576533
O O6 0.288225 0.770868 0.403070
O O7 0.308374 0.500000 0.341703
O O8 0.248411 0.407634 0.197449
O O9 0.852769 0.352769 0.750000
O O10 0.837580 0.383225 0.005462
O O11 0.380521 0.880521 0.750000
O O12 0.345106 0.000000 0.638481
#
# Coordination Sequence:
#
# PCOD9559516 Si02
#       5
#    16   8  16  16  16
#     4  12  24  39  63  96 134 176 221 270 331 398
#     4  12  22  40  68  93 127 176 226 282 332 386
#     4  11  24  41  62  94 134 178 224 272 329 397
#     4  12  23  40  68 101 131 170 225 282 335 388
#     4  11  23  44  71  99 131 170 222 276 335 405
#
# _framework density 19.100681999999999
#
# number of rings (size 3 to 8) (size 9 to 14) (size 15 to 20)
#    0.000    0.444    7.778    1.333    0.000    2.667 
#    0.000    2.222    0.000    0.000    0.000    0.000 
#    0.000    0.000    0.000    0.000    0.000    0.000 
#
# Total GULP energy -201335.251351 kJ/mol
# GULP energy per Si atom -5592.645871 kJ/mol
# Density = 1.905721 g / cm^3
# Si number density = 19.100682 Si / 1000 Ang^3
#
#
#
# Elastic Constant Matrix: (Units=GPa)
#
#
# Indices 1 2 3 4 5 6 
#
# 1 100.1323 56.7090 53.5417 0.0000 0.0000 0.0000
# 2 56.7090 100.1299 53.5419 0.0000 0.0000 0.0000
# 3 53.5417 53.5419 99.3108 0.0000 0.0000 0.0000
# 4 0.0000 0.0000 0.0000 26.8349 0.0000 0.0000
# 5 0.0000 0.0000 0.0000 0.0000 26.8352 0.0000
# 6 0.0000 0.0000 0.0000 0.0000 0.0000 10.7844
#
#
#
# Elastic Compliance Matrix: (Units=1/GPa)
#
#
# Indices 1 2 3 4 5 6 
#
# 1 0.016560 -0.006470 -0.005440 0.000000 0.000000 0.000000
# 2 -0.006470 0.016560 -0.005440 0.000000 0.000000 0.000000
# 3 -0.005440 -0.005440 0.015935 0.000000 0.000000 0.000000
# 4 0.000000 0.000000 0.000000 0.037265 0.000000 0.000000
# 5 0.000000 0.000000 0.000000 0.000000 0.037265 0.000000
# 6 0.000000 0.000000 0.000000 0.000000 0.000000 0.092727
#
#
# Mechanical properties :
#
#
# Convention : Reuss Voigt Hill
#
# Bulk Modulus (GPa) = 69.65925 69.68425 69.67175
# Shear Modulus (GPa) = 19.54689 21.94293 20.74491
#
# Velocity S-wave (km/s) = 3.20247 3.39308 3.29915
# Velocity P-wave (km/s) = 7.08683 7.20503 7.14617
#
# Compressibility (1/GPa) = 0.01435560
#
# Stress axis : x y z
#
# Youngs Moduli (GPa) = 60.38806 60.38581 62.75471
#
# Poissons Ratio (x) = 0.39069 0.34137
# Poissons Ratio (y) = 0.39070 0.34139
# Poissons Ratio (z) = 0.32849 0.32850
#
# Static dielectric constant tensor:
#      x y z
#    x 1.647780 0.000000 0.000000 
#    y 0.000000 1.647780 0.000000 
#    z 0.000000 0.000000 1.686980 
# 
# From -- ./inp_files/3863.got.cif
#   From: 2010.05.17/outbox.cif.g08.bks.cpg/sg119_2_cif.got.tgz:3863.got - 2010.05.20 11:21:29.
