data_PCOD9559172
_publ_section_title
;
Structure prediction by ZEFSAII (Michael W. Deem and Ramdas Pophale) SiO2 
 PCOD9559172
Probable space group: I -4 M 2
;
_chemical_formula_sum "Si O2"
_cell_formula_units_Z 112
_cell_length_a 15.276687
_cell_length_b 15.276687
_cell_length_c 21.875490
_cell_angle_alpha 90.000000
_cell_angle_beta 90.000000
_cell_angle_gamma 90.000000
_cell_volume 5105.239854
_symmetry_space_group_name_H-M "I -4 M 2"
_symmetry_group_IT_number 119
_symmetry_cell_setting 'tetragonal'
loop_
_space_group_symop_operation_xyz
x,y,z
y,-x,-z
-x,-y,z
-y,x,-z
y,x,-z
-y,-x,-z
-x,y,z
x,-y,z
1/2+x,1/2+y,1/2+z
1/2+y,1/2-x,1/2-z
1/2-x,1/2-y,1/2+z
1/2-y,1/2+x,1/2-z
1/2+y,1/2+x,1/2-z
1/2-y,1/2-x,1/2-z
1/2-x,1/2+y,1/2+z
1/2+x,1/2-y,1/2+z
loop_
_atom_site_type_symbol
_atom_site_label
_atom_site_fract_x
_atom_site_fract_y
_atom_site_fract_z
Si Si1 0.900168 0.399876 0.340326
Si Si2 0.244102 0.901737 0.065536
Si Si3 0.395278 0.406149 0.086517
Si Si4 0.903832 0.227081 0.081220
Si Si5 0.239367 0.600212 0.768302
Si Si6 0.718230 0.096789 0.414601
Si Si7 0.209297 0.903999 0.714451
O O1 0.892722 0.500000 0.313455
O O2 0.823119 0.392559 0.389987
O O3 0.890931 0.312133 0.299680
O O4 0.000000 0.395235 0.364822
O O5 0.174046 0.838197 0.097146
O O6 0.337967 0.859562 0.074360
O O7 0.237115 0.000000 0.088682
O O8 0.230857 0.903378 0.992352
O O9 0.500000 0.402769 0.100567
O O10 0.380873 0.500000 0.053553
O O11 0.374053 0.311907 0.058314
O O12 0.339093 0.409716 0.148587
O O13 0.000000 0.194657 0.100137
O O14 0.245354 0.500000 0.745506
O O15 0.152200 0.652200 0.750000
O O16 0.235093 0.594646 0.841919
O O17 0.323583 0.660884 0.752572
O O18 0.697677 0.000000 0.437048
O O19 0.198702 0.000000 0.744224
#
# Coordination Sequence:
#
# PCOD9559172 Si02
#       7
#    16  16  16  16  16  16  16
#     4   9  17  30  51  79 107 132 159 195 244 306
#     4  10  20  32  47  68  96 131 170 212 253 291
#     4   8  13  23  43  70  94 117 151 194 235 277
#     4   9  18  32  49  70  97 129 166 207 248 293
#     4  10  21  36  53  73  98 130 170 213 254 296
#     4   9  18  32  50  73  99 128 164 204 247 297
#     4   9  16  29  52  77  99 126 159 196 242 295
#
# _framework density 21.938244000000001
#
# number of rings (size 3 to 8) (size 9 to 14) (size 15 to 20)
#    0.000    2.857    0.000    3.000    0.000    2.714 
#    0.000    5.000    0.000    1.714    0.000    2.000 
#    0.000    6.857    0.000    0.000    0.000    0.000 
#
# Total GULP energy -312384.665417 kJ/mol
# GULP energy per Si atom -5578.297597 kJ/mol
# Density = 2.188831 g / cm^3
# Si number density = 21.938244 Si / 1000 Ang^3
#
#
#
# Elastic Constant Matrix: (Units=GPa)
#
#
# Indices 1 2 3 4 5 6 
#
# 1 150.6169 95.1884 27.2893 0.0000 0.0000 0.0000
# 2 95.1884 150.6169 27.2893 0.0000 0.0000 0.0000
# 3 27.2893 27.2893 43.9448 0.0000 0.0000 0.0000
# 4 0.0000 0.0000 0.0000 17.1125 0.0000 0.0000
# 5 0.0000 0.0000 0.0000 0.0000 17.1125 0.0000
# 6 0.0000 0.0000 0.0000 0.0000 0.0000 26.9097
#
#
#
# Elastic Compliance Matrix: (Units=1/GPa)
#
#
# Indices 1 2 3 4 5 6 
#
# 1 0.011380 -0.006661 -0.002930 0.000000 0.000000 0.000000
# 2 -0.006661 0.011380 -0.002930 0.000000 0.000000 0.000000
# 3 -0.002930 -0.002930 0.026395 0.000000 0.000000 0.000000
# 4 0.000000 0.000000 0.000000 0.058437 0.000000 0.000000
# 5 0.000000 0.000000 0.000000 0.000000 0.058437 0.000000
# 6 0.000000 0.000000 0.000000 0.000000 0.000000 0.037161
#
#
# Mechanical properties :
#
#
# Convention : Reuss Voigt Hill
#
# Bulk Modulus (GPa) = 41.47388 71.63471 56.55430
# Shear Modulus (GPa) = 21.16209 25.25439 23.20824
#
# Velocity S-wave (km/s) = 3.10920 3.39655 3.25605
# Velocity P-wave (km/s) = 5.64229 6.93584 6.32223
#
# Compressibility (1/GPa) = 0.02411156
#
# Stress axis : x y z
#
# Youngs Moduli (GPa) = 87.87282 87.87282 37.88550
#
# Poissons Ratio (x) = 0.58533 0.11102
# Poissons Ratio (y) = 0.58533 0.11102
# Poissons Ratio (z) = 0.25750 0.25750
#
# Static dielectric constant tensor:
#      x y z
#    x 1.811220 0.000000 0.000000 
#    y 0.000000 1.811220 0.000000 
#    z 0.000000 0.000000 1.890530 
# 
# From -- ./inp_files/9593.got.cif
#   From: 2010.05.17/outbox.cif.g08.bks.cpg/sg119_5_cif.got.tgz:9593.got - 2010.05.20 11:21:29.
