data_PCOD9559505
_publ_section_title
;
Structure prediction by ZEFSAII (Michael W. Deem and Ramdas Pophale) SiO2 
 PCOD9559505
Probable space group: I -4 M 2
;
_chemical_formula_sum "Si O2"
_cell_formula_units_Z 64
_cell_length_a 16.023578
_cell_length_b 16.023578
_cell_length_c 13.287863
_cell_angle_alpha 90.000000
_cell_angle_beta 90.000000
_cell_angle_gamma 90.000000
_cell_volume 3411.725954
_symmetry_space_group_name_H-M "I -4 M 2"
_symmetry_group_IT_number 119
_symmetry_cell_setting 'tetragonal'
loop_
_space_group_symop_operation_xyz
x,y,z
y,-x,-z
-x,-y,z
-y,x,-z
y,x,-z
-y,-x,-z
-x,y,z
x,-y,z
1/2+x,1/2+y,1/2+z
1/2+y,1/2-x,1/2-z
1/2-x,1/2-y,1/2+z
1/2-y,1/2+x,1/2-z
1/2+y,1/2+x,1/2-z
1/2-y,1/2-x,1/2-z
1/2-x,1/2+y,1/2+z
1/2+x,1/2-y,1/2+z
loop_
_atom_site_type_symbol
_atom_site_label
_atom_site_fract_x
_atom_site_fract_y
_atom_site_fract_z
Si Si1 0.774554 0.405705 0.965985
Si Si2 0.908143 0.323663 0.840052
Si Si3 0.592953 0.652956 0.214235
Si Si4 0.273722 0.093953 0.706134
O O1 0.806825 0.500000 0.944109
O O2 0.837473 0.337882 0.921950
O O3 0.690577 0.400112 0.899375
O O4 0.769610 0.397991 0.085012
O O5 0.887744 0.387744 0.750000
O O6 0.904713 0.233819 0.786865
O O7 0.000000 0.337399 0.881856
O O8 0.500000 0.614442 0.223736
O O9 0.676780 0.603148 0.238233
O O10 0.334343 0.165658 0.750000
O O11 0.303473 0.000000 0.731148
#
# Coordination Sequence:
#
# PCOD9559505 Si02
#       4
#    16  16  16  16
#     4   9  18  31  49  75 105 137 173 212 257 311
#     4   9  16  27  47  75 103 130 165 215 272 319
#     4   9  18  34  56  81 103 124 163 220 276 323
#     4  11  23  37  53  74 105 147 185 213 246 296
#
# _framework density 18.758835000000001
#
# number of rings (size 3 to 8) (size 9 to 14) (size 15 to 20)
#    0.000    2.500    0.000    5.250    0.000    3.500 
#    0.000    2.500    0.000    4.500    0.000    0.000 
#    0.000    4.000    0.000    0.000    0.000    1.000 
#
# Total GULP energy -178253.118994 kJ/mol
# GULP energy per Si atom -5570.409969 kJ/mol
# Density = 1.871614 g / cm^3
# Si number density = 18.758835 Si / 1000 Ang^3
#
#
#
# Elastic Constant Matrix: (Units=GPa)
#
#
# Indices 1 2 3 4 5 6 
#
# 1 75.7200 48.3836 20.2025 0.0000 0.0000 0.0000
# 2 48.3836 75.7168 20.2010 0.0000 0.0000 0.0000
# 3 20.2025 20.2010 31.9811 0.0000 0.0000 0.0000
# 4 0.0000 0.0000 0.0000 15.3835 0.0000 0.0000
# 5 0.0000 0.0000 0.0000 0.0000 15.3837 0.0000
# 6 0.0000 0.0000 0.0000 0.0000 0.0000 7.8042
#
#
#
# Elastic Compliance Matrix: (Units=1/GPa)
#
#
# Indices 1 2 3 4 5 6 
#
# 1 0.023364 -0.013220 -0.006408 0.000000 0.000000 0.000000
# 2 -0.013220 0.023364 -0.006407 0.000000 0.000000 0.000000
# 3 -0.006408 -0.006407 0.039364 0.000000 0.000000 0.000000
# 4 0.000000 0.000000 0.000000 0.065005 0.000000 0.000000
# 5 0.000000 0.000000 0.000000 0.000000 0.065004 0.000000
# 6 0.000000 0.000000 0.000000 0.000000 0.000000 0.128137
#
#
# Mechanical properties :
#
#
# Convention : Reuss Voigt Hill
#
# Bulk Modulus (GPa) = 29.39380 40.11025 34.75202
# Shear Modulus (GPa) = 12.26550 14.02299 13.14425
#
# Velocity S-wave (km/s) = 2.55983 2.73709 2.64994
# Velocity P-wave (km/s) = 4.94371 5.60512 5.28477
#
# Compressibility (1/GPa) = 0.03402078
#
# Stress axis : x y z
#
# Youngs Moduli (GPa) = 42.80177 42.80087 25.40403
#
# Poissons Ratio (x) = 0.56582 0.16280
# Poissons Ratio (y) = 0.56583 0.16277
# Poissons Ratio (z) = 0.27429 0.27423
#
# Static dielectric constant tensor:
#      x y z
#    x 1.672960 0.000000 0.000000 
#    y 0.000000 1.672960 0.000000 
#    z 0.000000 0.000000 1.639200 
# 
# From -- ./inp_files/5051.got.cif
#   From: 2010.05.17/outbox.cif.g08.bks.cpg/sg119_3_cif.got.tgz:5051.got - 2010.05.20 11:21:29.
