data_PCOD9559347
_publ_section_title
;
Structure prediction by ZEFSAII (Michael W. Deem and Ramdas Pophale) SiO2 
 PCOD9559347
Probable space group: I -4 M 2
;
_chemical_formula_sum "Si O2"
_cell_formula_units_Z 80
_cell_length_a 12.769214
_cell_length_b 12.769214
_cell_length_c 27.608856
_cell_angle_alpha 90.000000
_cell_angle_beta 90.000000
_cell_angle_gamma 90.000000
_cell_volume 4501.701998
_symmetry_space_group_name_H-M "I -4 M 2"
_symmetry_group_IT_number 119
_symmetry_cell_setting 'tetragonal'
loop_
_space_group_symop_operation_xyz
x,y,z
y,-x,-z
-x,-y,z
-y,x,-z
y,x,-z
-y,-x,-z
-x,y,z
x,-y,z
1/2+x,1/2+y,1/2+z
1/2+y,1/2-x,1/2-z
1/2-x,1/2-y,1/2+z
1/2-y,1/2+x,1/2-z
1/2+y,1/2+x,1/2-z
1/2-y,1/2-x,1/2-z
1/2-x,1/2+y,1/2+z
1/2+x,1/2-y,1/2+z
loop_
_atom_site_type_symbol
_atom_site_label
_atom_site_fract_x
_atom_site_fract_y
_atom_site_fract_z
Si Si1 0.784633 0.623867 0.022400
Si Si2 0.375839 0.267368 0.867343
Si Si3 0.000000 0.625215 0.859828
Si Si4 0.500000 0.374325 0.153217
Si Si5 0.178609 0.253758 0.802964
Si Si6 0.000000 0.626845 0.971799
Si Si7 0.378031 0.500000 0.736477
O O1 0.769255 0.500000 0.012429
O O2 0.785275 0.635903 0.080485
O O3 0.691383 0.691383 0.000000
O O4 0.894125 0.659085 0.998924
O O5 0.500000 0.258973 0.852700
O O6 0.348124 0.391262 0.872301
O O7 0.288815 0.229514 0.829057
O O8 0.104265 0.669339 0.834034
O O9 0.000000 0.500000 0.857352
O O10 0.000000 0.659461 0.915859
O O11 0.500000 0.500000 0.155610
O O12 0.500000 0.332127 0.208484
O O13 0.199670 0.300331 0.750000
O O14 0.102939 0.156358 0.792176
O O15 0.000000 0.500000 0.972413
O O16 0.500000 0.500000 0.742659
#
# Coordination Sequence:
#
# PCOD9559347 Si02
#       7
#    16  16   8   8  16   8   8
#     4  10  21  36  60  88 118 151 194 244 300 357
#     4  10  21  36  56  85 117 153 190 239 300 360
#     4  10  23  33  54  83 119 152 191 236 293 350
#     4   9  17  31  53  77 114 150 182 222 302 351
#     4  11  22  34  56  86 116 154 201 240 291 361
#     4   9  19  41  59  79 114 160 192 232 293 359
#     4  10  21  39  56  79 115 162 193 244 298 362
#
# _framework density 17.771056999999999
#
# number of rings (size 3 to 8) (size 9 to 14) (size 15 to 20)
#    0.000    2.000    2.000    1.200    5.600    0.200 
#    1.800    0.000    0.000    0.300    0.000    1.400 
#    0.000    0.000    0.000    0.000    0.000    0.000 
#
# Total GULP energy -222971.492037 kJ/mol
# GULP energy per Si atom -5574.287301 kJ/mol
# Density = 1.773061 g / cm^3
# Si number density = 17.771057 Si / 1000 Ang^3
#
#
#
# Elastic Constant Matrix: (Units=GPa)
#
#
# Indices 1 2 3 4 5 6 
#
# 1 82.2820 42.3799 58.6857 0.0000 0.0000 0.0000
# 2 42.3799 82.2818 58.6857 0.0000 0.0000 0.0000
# 3 58.6857 58.6857 127.6782 0.0000 0.0000 0.0000
# 4 0.0000 0.0000 0.0000 24.9059 0.0000 0.0000
# 5 0.0000 0.0000 0.0000 0.0000 24.9070 0.0000
# 6 0.0000 0.0000 0.0000 0.0000 0.0000 9.7981
#
#
#
# Elastic Compliance Matrix: (Units=1/GPa)
#
#
# Indices 1 2 3 4 5 6 
#
# 1 0.019601 -0.005460 -0.006500 0.000000 0.000000 0.000000
# 2 -0.005460 0.019602 -0.006500 0.000000 0.000000 0.000000
# 3 -0.006500 -0.006500 0.013807 0.000000 0.000000 0.000000
# 4 0.000000 0.000000 0.000000 0.040151 0.000000 0.000000
# 5 0.000000 0.000000 0.000000 0.000000 0.040149 0.000000
# 6 0.000000 0.000000 0.000000 0.000000 0.000000 0.102060
#
#
# Mechanical properties :
#
#
# Convention : Reuss Voigt Hill
#
# Bulk Modulus (GPa) = 62.14797 67.97164 65.05980
# Shear Modulus (GPa) = 18.00800 20.75493 19.38146
#
# Velocity S-wave (km/s) = 3.18674 3.42117 3.30604
# Velocity P-wave (km/s) = 6.97050 7.34421 7.15979
#
# Compressibility (1/GPa) = 0.01609063
#
# Stress axis : x y z
#
# Youngs Moduli (GPa) = 51.01662 51.01643 72.42452
#
# Poissons Ratio (x) = 0.27855 0.47076
# Poissons Ratio (y) = 0.27855 0.47076
# Poissons Ratio (z) = 0.33161 0.33161
#
# Static dielectric constant tensor:
#      x y z
#    x 1.608260 0.000000 0.000000 
#    y 0.000000 1.608260 0.000000 
#    z 0.000000 0.000000 1.614350 
# 
# From -- ./inp_files/10221.got.cif
#   From: 2010.05.17/outbox.cif.g08.bks.cpg/sg119_6_cif.got.tgz:10221.got - 2010.05.20 11:21:29.
