data_PCOD9559934
_publ_section_title
;
Structure prediction by ZEFSAII (Michael W. Deem and Ramdas Pophale) SiO2 
 PCOD9559934
Probable space group: I -4 C 2
;
_chemical_formula_sum "Si O2"
_cell_formula_units_Z 64
_cell_length_a 9.857627
_cell_length_b 9.857627
_cell_length_c 24.850683
_cell_angle_alpha 90.000000
_cell_angle_beta 90.000000
_cell_angle_gamma 90.000000
_cell_volume 2414.810699
_symmetry_space_group_name_H-M "I -4 C 2"
_symmetry_group_IT_number 120
_symmetry_cell_setting 'tetragonal'
loop_
_space_group_symop_operation_xyz
x,y,z
y,-x,-z
-x,-y,z
-y,x,-z
y,x,1/2-z
-y,-x,1/2-z
-x,y,1/2+z
x,-y,1/2+z
1/2+x,1/2+y,1/2+z
1/2+y,1/2-x,1/2-z
1/2-x,1/2-y,1/2+z
1/2-y,1/2+x,1/2-z
1/2+y,1/2+x,-z
1/2-y,1/2-x,-z
1/2-x,1/2+y,z
1/2+x,1/2-y,z
loop_
_atom_site_type_symbol
_atom_site_label
_atom_site_fract_x
_atom_site_fract_y
_atom_site_fract_z
Si Si1 0.472930 0.214119 0.236251
Si Si2 0.565160 0.634591 0.337688
Si Si3 0.365409 0.934840 0.587688
Si Si4 0.527070 0.714120 0.013749
O O1 0.612039 0.130967 0.232782
O O2 0.499303 0.328057 0.280323
O O3 0.404156 0.280336 0.183036
O O4 0.500000 0.500000 0.361113
O O5 0.500000 0.750000 0.375000
O O6 0.404157 0.780336 0.566965
O O7 0.328057 0.999303 0.530323
O O8 0.500000 0.000000 0.611113
O O9 0.630967 0.612039 0.982782
#
# Coordination Sequence:
#
# PCOD9559934 Si02
#       4
#    16  16  16  16
#     4  10  24  49  79 113 164 221 281 367 451 508
#     4  11  27  48  76 118 163 224 292 358 430 535
#     4  11  27  48  76 118 163 224 292 358 430 535
#     4  10  24  49  79 113 164 221 281 367 451 508
#
# _framework density 26.503114
#
# number of rings (size 3 to 8) (size 9 to 14) (size 15 to 20)
#    0.000    1.500    0.000    3.000   21.000    2.000 
#    0.000    0.000    0.000    0.000    0.000    0.000 
#    0.000    0.000    0.000    0.000    0.000    0.000 
#
# Total GULP energy -178337.506451 kJ/mol
# GULP energy per Si atom -5573.047077 kJ/mol
# Density = 2.644279 g / cm^3
# Si number density = 26.503114 Si / 1000 Ang^3
#
#
#
# Elastic Constant Matrix: (Units=GPa)
#
#
# Indices 1 2 3 4 5 6 
#
# 1 191.2154 79.6977 66.6463 0.0000 0.0000 0.0000
# 2 79.6977 191.2154 66.6463 0.0000 0.0000 0.0000
# 3 66.6463 66.6463 177.3868 0.0000 0.0000 0.0000
# 4 0.0000 0.0000 0.0000 31.0727 0.0000 0.0000
# 5 0.0000 0.0000 0.0000 0.0000 31.0727 0.0000
# 6 0.0000 0.0000 0.0000 0.0000 0.0000 53.3088
#
#
#
# Elastic Compliance Matrix: (Units=1/GPa)
#
#
# Indices 1 2 3 4 5 6 
#
# 1 0.006748 -0.002219 -0.001701 0.000000 0.000000 0.000000
# 2 -0.002219 0.006748 -0.001701 0.000000 0.000000 0.000000
# 3 -0.001701 -0.001701 0.006916 0.000000 0.000000 0.000000
# 4 0.000000 0.000000 0.000000 0.032183 0.000000 0.000000
# 5 0.000000 0.000000 0.000000 0.000000 0.032183 0.000000
# 6 0.000000 0.000000 0.000000 0.000000 0.000000 0.018759
#
#
# Mechanical properties :
#
#
# Convention : Reuss Voigt Hill
#
# Bulk Modulus (GPa) = 109.08603 109.53316 109.30959
# Shear Modulus (GPa) = 42.43222 46.21267 44.32245
#
# Velocity S-wave (km/s) = 4.00563 4.18026 4.09387
# Velocity P-wave (km/s) = 7.91470 8.04472 7.97997
#
# Compressibility (1/GPa) = 0.00916708
#
# Stress axis : x y z
#
# Youngs Moduli (GPa) = 148.19768 148.19768 144.59596
#
# Poissons Ratio (x) = 0.32892 0.24601
# Poissons Ratio (y) = 0.32892 0.24601
# Poissons Ratio (z) = 0.25213 0.25213
#
# Static dielectric constant tensor:
#      x y z
#    x 2.216920 0.000000 0.000000 
#    y 0.000000 2.216920 0.000000 
#    z 0.000000 0.000000 2.061400 
# 
# From -- ./inp_files/5679.got.cif
#   From: 2010.05.17/outbox.cif.g08.bks.cpg/sg120_3_cif.got.tgz:5679.got - 2010.05.20 11:28:13.
