data_PCOD9559496
_publ_section_title
;
Structure prediction by ZEFSAII (Michael W. Deem and Ramdas Pophale) SiO2 
 PCOD9559496
Probable space group: I -4 M 2
;
_chemical_formula_sum "Si O2"
_cell_formula_units_Z 48
_cell_length_a 10.891030
_cell_length_b 10.891030
_cell_length_c 20.205440
_cell_angle_alpha 90.000000
_cell_angle_beta 90.000000
_cell_angle_gamma 90.000000
_cell_volume 2396.658859
_symmetry_space_group_name_H-M "I -4 M 2"
_symmetry_group_IT_number 119
_symmetry_cell_setting 'tetragonal'
loop_
_space_group_symop_operation_xyz
x,y,z
y,-x,-z
-x,-y,z
-y,x,-z
y,x,-z
-y,-x,-z
-x,y,z
x,-y,z
1/2+x,1/2+y,1/2+z
1/2+y,1/2-x,1/2-z
1/2-x,1/2-y,1/2+z
1/2-y,1/2+x,1/2-z
1/2+y,1/2+x,1/2-z
1/2-y,1/2-x,1/2-z
1/2-x,1/2+y,1/2+z
1/2+x,1/2-y,1/2+z
loop_
_atom_site_type_symbol
_atom_site_label
_atom_site_fract_x
_atom_site_fract_y
_atom_site_fract_z
Si Si1 0.643421 0.143421 0.750000
Si Si2 0.854268 0.000000 0.415747
Si Si3 0.000000 0.360579 0.473837
Si Si4 0.859718 0.140283 0.000000
Si Si5 0.718754 0.766614 0.885232
O O1 0.500000 0.159973 0.768514
O O2 0.726323 0.175295 0.813171
O O3 0.756822 0.000000 0.476767
O O4 0.824982 0.126438 0.378641
O O5 0.000000 0.000000 0.430886
O O6 0.116652 0.341207 0.426687
O O7 0.000000 0.500000 0.501415
O O8 0.775709 0.168518 0.063699
O O9 0.000000 0.156696 0.021270
#
# Coordination Sequence:
#
# PCOD9559496 Si02
#       5
#     8   8   8   8  16
#     4  11  22  40  62  88 121 160 210 266 313 374
#     4  12  24  40  64  98 130 167 204 272 315 384
#     4  12  22  36  64  96 120 157 206 260 309 370
#     4  11  24  42  63  92 128 164 209 262 318 377
#     4  12  24  39  65  92 126 161 212 255 324 371
#
# _framework density 20.027882000000002
#
# number of rings (size 3 to 8) (size 9 to 14) (size 15 to 20)
#    0.000    0.333    6.667    3.000    2.333    0.000 
#    3.000    0.000    0.000    0.000    0.000    0.000 
#    0.000    0.000    0.000    0.000    0.000    0.000 
#
# Total GULP energy -134014.430654 kJ/mol
# GULP energy per Si atom -5583.934611 kJ/mol
# Density = 1.998230 g / cm^3
# Si number density = 20.027882 Si / 1000 Ang^3
#
#
#
# Elastic Constant Matrix: (Units=GPa)
#
#
# Indices 1 2 3 4 5 6 
#
# 1 89.0771 9.8769 5.8186 0.0000 0.0000 0.0000
# 2 9.8769 89.0774 5.8188 0.0000 0.0000 0.0000
# 3 5.8186 5.8188 94.6198 0.0000 0.0000 0.0000
# 4 0.0000 0.0000 0.0000 26.1817 0.0000 0.0000
# 5 0.0000 0.0000 0.0000 0.0000 26.1815 0.0000
# 6 0.0000 0.0000 0.0000 0.0000 0.0000 26.8685
#
#
#
# Elastic Compliance Matrix: (Units=1/GPa)
#
#
# Indices 1 2 3 4 5 6 
#
# 1 0.011403 -0.001223 -0.000626 0.000000 0.000000 0.000000
# 2 -0.001223 0.011403 -0.000626 0.000000 0.000000 0.000000
# 3 -0.000626 -0.000626 0.010646 0.000000 0.000000 0.000000
# 4 0.000000 0.000000 0.000000 0.038195 0.000000 0.000000
# 5 0.000000 0.000000 0.000000 0.000000 0.038195 0.000000
# 6 0.000000 0.000000 0.000000 0.000000 0.000000 0.037218
#
#
# Mechanical properties :
#
#
# Convention : Reuss Voigt Hill
#
# Bulk Modulus (GPa) = 35.08734 35.08919 35.08827
# Shear Modulus (GPa) = 30.95787 32.59701 31.77744
#
# Velocity S-wave (km/s) = 3.93585 4.03871 3.98761
# Velocity P-wave (km/s) = 6.18157 6.26948 6.22568
#
# Compressibility (1/GPa) = 0.02850031
#
# Stress axis : x y z
#
# Youngs Moduli (GPa) = 87.69792 87.69819 93.93547
#
# Poissons Ratio (x) = 0.10729 0.05880
# Poissons Ratio (y) = 0.10729 0.05880
# Poissons Ratio (z) = 0.05490 0.05490
#
# Static dielectric constant tensor:
#      x y z
#    x 1.752900 0.000000 0.000000 
#    y 0.000000 1.752910 0.000000 
#    z 0.000000 0.000000 1.687840 
# 
# From -- ./inp_files/6073.got.cif
#   From: 2010.05.17/outbox.cif.g08.bks.cpg/sg119_4_cif.got.tgz:6073.got - 2010.05.20 11:21:29.
