data_PCOD9559225
_publ_section_title
;
Structure prediction by ZEFSAII (Michael W. Deem and Ramdas Pophale) SiO2 
 PCOD9559225
Probable space group: I -4 M 2
;
_chemical_formula_sum "Si O2"
_cell_formula_units_Z 64
_cell_length_a 14.038894
_cell_length_b 14.038894
_cell_length_c 12.882766
_cell_angle_alpha 90.000000
_cell_angle_beta 90.000000
_cell_angle_gamma 90.000000
_cell_volume 2539.071369
_symmetry_space_group_name_H-M "I -4 M 2"
_symmetry_group_IT_number 119
_symmetry_cell_setting 'tetragonal'
loop_
_space_group_symop_operation_xyz
x,y,z
y,-x,-z
-x,-y,z
-y,x,-z
y,x,-z
-y,-x,-z
-x,y,z
x,-y,z
1/2+x,1/2+y,1/2+z
1/2+y,1/2-x,1/2-z
1/2-x,1/2-y,1/2+z
1/2-y,1/2+x,1/2-z
1/2+y,1/2+x,1/2-z
1/2-y,1/2-x,1/2-z
1/2-x,1/2+y,1/2+z
1/2+x,1/2-y,1/2+z
loop_
_atom_site_type_symbol
_atom_site_label
_atom_site_fract_x
_atom_site_fract_y
_atom_site_fract_z
Si Si1 0.900103 0.887624 0.827573
Si Si2 0.187474 0.182724 0.375721
Si Si3 0.387262 0.104532 0.108075
Si Si4 0.812552 0.393049 0.375904
O O1 0.887109 0.860662 0.706825
O O2 0.800181 0.870065 0.883902
O O3 0.000000 0.845809 0.869280
O O4 0.907773 0.000000 0.834620
O O5 0.169732 0.169732 0.500000
O O6 0.300384 0.166669 0.357222
O O7 0.149763 0.288051 0.342557
O O8 0.500000 0.120556 0.113697
O O9 0.358130 0.097267 0.988576
O O10 0.367735 0.000000 0.157119
O O11 0.825929 0.500000 0.327617
#
# Coordination Sequence:
#
# PCOD9559225 Si02
#       4
#    16  16  16  16
#     4  10  21  36  54  78 109 144 182 224 271 326
#     4  10  20  34  54  80 109 142 178 222 273 328
#     4   9  18  34  57  83 109 139 178 225 276 328
#     4   9  19  36  55  77 108 145 184 225 272 328
#
# _framework density 25.206064999999999
#
# number of rings (size 3 to 8) (size 9 to 14) (size 15 to 20)
#    0.000    2.500    0.000    1.500    0.000    6.000 
#    0.000    6.250    0.000    3.000    0.000    3.500 
#    0.000    0.000    0.000    0.000    0.000    0.000 
#
# Total GULP energy -178437.725819 kJ/mol
# GULP energy per Si atom -5576.178932 kJ/mol
# Density = 2.514870 g / cm^3
# Si number density = 25.206065 Si / 1000 Ang^3
#
#
#
# Elastic Constant Matrix: (Units=GPa)
#
#
# Indices 1 2 3 4 5 6 
#
# 1 138.2041 -0.8071 4.9327 0.0000 0.0000 0.0000
# 2 -0.8071 138.2041 4.9327 0.0000 0.0000 0.0000
# 3 4.9327 4.9327 87.2216 0.0000 0.0000 0.0000
# 4 0.0000 0.0000 0.0000 41.9385 0.0000 0.0000
# 5 0.0000 0.0000 0.0000 0.0000 41.9385 0.0000
# 6 0.0000 0.0000 0.0000 0.0000 0.0000 26.2044
#
#
#
# Elastic Compliance Matrix: (Units=1/GPa)
#
#
# Indices 1 2 3 4 5 6 
#
# 1 0.007251 0.000057 -0.000413 0.000000 0.000000 0.000000
# 2 0.000057 0.007251 -0.000413 0.000000 0.000000 0.000000
# 3 -0.000413 -0.000413 0.011512 0.000000 0.000000 0.000000
# 4 0.000000 0.000000 0.000000 0.023844 0.000000 0.000000
# 5 0.000000 0.000000 0.000000 0.000000 0.023844 0.000000
# 6 0.000000 0.000000 0.000000 0.000000 0.000000 0.038162
#
#
# Mechanical properties :
#
#
# Convention : Reuss Voigt Hill
#
# Bulk Modulus (GPa) = 40.85907 42.41625 41.63766
# Shear Modulus (GPa) = 41.13169 45.65439 43.39304
#
# Velocity S-wave (km/s) = 4.04396 4.26049 4.15364
# Velocity P-wave (km/s) = 6.16847 6.40833 6.28954
#
# Compressibility (1/GPa) = 0.02447437
#
# Stress axis : x y z
#
# Youngs Moduli (GPa) = 137.91656 137.91656 86.86742
#
# Poissons Ratio (x) = -0.00787 0.03590
# Poissons Ratio (y) = -0.00787 0.03590
# Poissons Ratio (z) = 0.05700 0.05700
#
# Static dielectric constant tensor:
#      x y z
#    x 1.959420 0.000000 0.000000 
#    y 0.000000 1.959420 0.000000 
#    z 0.000000 0.000000 1.988080 
# 
# From -- ./inp_files/5060.got.cif
#   From: 2010.05.17/outbox.cif.g08.bks.cpg/sg119_3_cif.got.tgz:5060.got - 2010.05.20 11:21:29.
