data_PCOD9559983
_publ_section_title
;
Structure prediction by ZEFSAII (Michael W. Deem and Ramdas Pophale) SiO2 
 PCOD9559983
Probable space group: I -4 C 2
;
_chemical_formula_sum "Si O2"
_cell_formula_units_Z 96
_cell_length_a 19.542251
_cell_length_b 19.542251
_cell_length_c 12.138470
_cell_angle_alpha 90.000000
_cell_angle_beta 90.000000
_cell_angle_gamma 90.000000
_cell_volume 4635.676524
_symmetry_space_group_name_H-M "I -4 C 2"
_symmetry_group_IT_number 120
_symmetry_cell_setting 'tetragonal'
loop_
_space_group_symop_operation_xyz
x,y,z
y,-x,-z
-x,-y,z
-y,x,-z
y,x,1/2-z
-y,-x,1/2-z
-x,y,1/2+z
x,-y,1/2+z
1/2+x,1/2+y,1/2+z
1/2+y,1/2-x,1/2-z
1/2-x,1/2-y,1/2+z
1/2-y,1/2+x,1/2-z
1/2+y,1/2+x,-z
1/2-y,1/2-x,-z
1/2-x,1/2+y,z
1/2+x,1/2-y,z
loop_
_atom_site_type_symbol
_atom_site_label
_atom_site_fract_x
_atom_site_fract_y
_atom_site_fract_z
Si Si1 0.086325 0.928762 0.021009
Si Si2 0.303999 0.803999 0.000000
Si Si3 0.795121 0.618798 0.221135
Si Si4 0.495611 0.104761 0.280997
Si Si5 0.865942 0.134059 0.250000
Si Si6 0.324090 0.660525 0.120394
Si Si7 0.388187 0.817792 0.397107
O O1 0.102771 0.899877 0.141474
O O2 0.137626 0.893669 0.936445
O O3 0.010036 0.908982 0.984487
O O4 0.305710 0.863844 0.091866
O O5 0.304802 0.733247 0.067243
O O6 0.829389 0.547014 0.257125
O O7 0.715675 0.622570 0.248705
O O8 0.838549 0.673056 0.291571
O O9 0.564002 0.952299 0.300683
O O10 0.544750 0.136177 0.374335
O O11 0.333469 0.666532 0.250000
O O12 0.263687 0.606323 0.090899
O O13 0.349072 0.849072 0.500000
#
# Coordination Sequence:
#
# PCOD9559983 Si02
#       7
#    16   8  16  16   8  16  16
#     4  11  29  48  69 103 140 190 237 290 369 441
#     4  12  22  44  68 111 148 181 242 308 362 420
#     4  11  23  44  67 104 143 183 237 295 359 418
#     4   9  22  46  64  97 143 190 241 285 350 431
#     4  12  24  47  76 100 146 186 236 309 356 438
#     4  12  24  41  74 107 144 183 243 305 364 432
#     4  11  22  40  69 103 139 189 235 297 355 421
#
# _framework density 20.708952
#
# number of rings (size 3 to 8) (size 9 to 14) (size 15 to 20)
#    0.000    1.000    4.167    2.000    4.667    0.667 
#   15.000    0.833    0.000    0.000    0.000    0.000 
#    0.000    0.000    0.000    0.000    0.000    0.000 
#
# Total GULP energy -267949.982542 kJ/mol
# GULP energy per Si atom -5582.291303 kJ/mol
# Density = 2.066182 g / cm^3
# Si number density = 20.708952 Si / 1000 Ang^3
#
#
#
# Elastic Constant Matrix: (Units=GPa)
#
#
# Indices 1 2 3 4 5 6 
#
# 1 3.2941 119.9723 14.6627 0.0000 0.0000 0.0000
# 2 119.9723 3.2893 14.6705 0.0000 0.0000 0.0000
# 3 14.6627 14.6705 87.8961 0.0000 0.0000 0.0000
# 4 0.0000 0.0000 0.0000 18.0533 0.0000 0.0000
# 5 0.0000 0.0000 0.0000 0.0000 18.0535 0.0000
# 6 0.0000 0.0000 0.0000 0.0000 0.0000 -7.2694
#
#
#
# Elastic Compliance Matrix: (Units=1/GPa)
#
#
# Indices 1 2 3 4 5 6 
#
# 1 -0.000061 0.008509 -0.001410 0.000000 0.000000 0.000000
# 2 0.008509 -0.000061 -0.001409 0.000000 0.000000 0.000000
# 3 -0.001410 -0.001409 0.011848 0.000000 0.000000 0.000000
# 4 0.000000 0.000000 0.000000 0.055391 0.000000 0.000000
# 5 0.000000 0.000000 0.000000 0.000000 0.055391 0.000000
# 6 0.000000 0.000000 0.000000 0.000000 0.000000 -0.137563
#
#
# Mechanical properties :
#
#
# Convention : Reuss Voigt Hill
#
# Bulk Modulus (GPa) = 43.28055 43.67671 43.47863
# Shear Modulus (GPa) = -266.89766 2.11241 -132.39263
#
# Velocity S-wave (km/s) = -11.36486 1.01107 -8.00431
# Velocity P-wave (km/s) = 12.29913 4.74337 8.02400
#
# Compressibility (1/GPa) = 0.02310507
#
# Stress axis : x y z
#
# Youngs Moduli (GPa) = -16429.16900 -16285.14726 84.40583
#
# Poissons Ratio (x) = 138.57473 0.11902
# Poissons Ratio (y) = 139.80025 0.11895
# Poissons Ratio (z) = -23.16694 -22.94986
#
# Static dielectric constant tensor:
#      x y z
#    x 1.763770 0.000000 0.000000 
#    y 0.000000 1.763760 0.000000 
#    z 0.000000 0.000000 1.711780 
# 
# From -- ./inp_files/2779.got.cif
#   From: 2010.05.17/outbox.cif.g08.bks.cpg/sg120_2_cif.got.tgz:2779.got - 2010.05.20 11:28:13.
