data_PCOD9559489
_publ_section_title
;
Structure prediction by ZEFSAII (Michael W. Deem and Ramdas Pophale) SiO2 
 PCOD9559489
Probable space group: I -4 M 2
;
_chemical_formula_sum "Si O2"
_cell_formula_units_Z 96
_cell_length_a 20.426998
_cell_length_b 20.426998
_cell_length_c 13.718536
_cell_angle_alpha 90.000000
_cell_angle_beta 90.000000
_cell_angle_gamma 90.000000
_cell_volume 5724.227161
_symmetry_space_group_name_H-M "I -4 M 2"
_symmetry_group_IT_number 119
_symmetry_cell_setting 'tetragonal'
loop_
_space_group_symop_operation_xyz
x,y,z
y,-x,-z
-x,-y,z
-y,x,-z
y,x,-z
-y,-x,-z
-x,y,z
x,-y,z
1/2+x,1/2+y,1/2+z
1/2+y,1/2-x,1/2-z
1/2-x,1/2-y,1/2+z
1/2-y,1/2+x,1/2-z
1/2+y,1/2+x,1/2-z
1/2-y,1/2-x,1/2-z
1/2-x,1/2+y,1/2+z
1/2+x,1/2-y,1/2+z
loop_
_atom_site_type_symbol
_atom_site_label
_atom_site_fract_x
_atom_site_fract_y
_atom_site_fract_z
Si Si1 0.122710 0.311075 0.389857
Si Si2 0.923060 0.423060 0.250000
Si Si3 0.809065 0.219764 0.111184
Si Si4 0.923212 0.275455 0.604776
Si Si5 0.191512 0.924463 0.745952
Si Si6 0.687632 0.812368 0.250000
Si Si7 0.424029 0.618693 0.107283
O O1 0.099163 0.378104 0.340223
O O2 0.201232 0.307059 0.386169
O O3 0.098490 0.302625 0.499859
O O4 0.093710 0.251712 0.325706
O O5 0.912440 0.500000 0.268592
O O6 0.874924 0.196093 0.163940
O O7 0.747806 0.194372 0.174444
O O8 0.802797 0.197204 0.000000
O O9 0.878461 0.305652 0.688737
O O10 0.912193 0.196923 0.604077
O O11 0.000000 0.287106 0.619625
O O12 0.125598 0.912226 0.684474
O O13 0.196654 0.000000 0.774645
O O14 0.500000 0.607151 0.131374
O O15 0.409043 0.590958 0.000000
#
# Coordination Sequence:
#
# PCOD9559489 Si02
#       7
#    16   8  16  16  16   8  16
#     4  12  21  36  63  88 121 153 192 249 299 354
#     4  11  23  38  57  88 126 158 191 236 299 363
#     4  12  23  38  62  91 116 155 203 244 291 344
#     4  11  23  38  61  93 121 153 198 246 296 350
#     4  12  23  38  59  87 122 158 198 243 292 352
#     4  12  21  40  63  83 124 155 197 244 289 352
#     4  11  22  36  57  90 127 157 194 244 299 353
#
# _framework density 16.770823
#
# number of rings (size 3 to 8) (size 9 to 14) (size 15 to 20)
#    0.000    0.417    8.333    2.000    0.000    1.167 
#    0.000    2.500    0.000    1.250    0.000    0.000 
#    0.000    0.000    0.000    0.000    0.000    0.000 
#
# Total GULP energy -268416.550921 kJ/mol
# GULP energy per Si atom -5592.011478 kJ/mol
# Density = 1.673265 g / cm^3
# Si number density = 16.770823 Si / 1000 Ang^3
#
#
#
# Elastic Constant Matrix: (Units=GPa)
#
#
# Indices 1 2 3 4 5 6 
#
# 1 92.9792 45.4555 49.2382 0.0000 0.0000 0.0000
# 2 45.4555 92.9769 49.2382 0.0000 0.0000 0.0000
# 3 49.2382 49.2382 123.0930 0.0000 0.0000 0.0000
# 4 0.0000 0.0000 0.0000 16.4799 0.0000 0.0000
# 5 0.0000 0.0000 0.0000 0.0000 16.4822 0.0000
# 6 0.0000 0.0000 0.0000 0.0000 0.0000 20.0410
#
#
#
# Elastic Compliance Matrix: (Units=1/GPa)
#
#
# Indices 1 2 3 4 5 6 
#
# 1 0.015569 -0.005473 -0.004039 0.000000 0.000000 0.000000
# 2 -0.005473 0.015570 -0.004039 0.000000 0.000000 0.000000
# 3 -0.004039 -0.004039 0.011355 0.000000 0.000000 0.000000
# 4 0.000000 0.000000 0.000000 0.060680 0.000000 0.000000
# 5 0.000000 0.000000 0.000000 0.000000 0.060672 0.000000
# 6 0.000000 0.000000 0.000000 0.000000 0.000000 0.049898
#
#
# Mechanical properties :
#
#
# Convention : Reuss Voigt Hill
#
# Bulk Modulus (GPa) = 64.96303 66.32366 65.64335
# Shear Modulus (GPa) = 20.32722 21.60843 20.96782
#
# Velocity S-wave (km/s) = 3.48524 3.59340 3.53973
# Velocity P-wave (km/s) = 7.41726 7.53987 7.47881
#
# Compressibility (1/GPa) = 0.01539337
#
# Stress axis : x y z
#
# Youngs Moduli (GPa) = 64.22838 64.22643 88.06680
#
# Poissons Ratio (x) = 0.35151 0.35567
# Poissons Ratio (y) = 0.35152 0.35569
# Poissons Ratio (z) = 0.25940 0.25940
#
# Static dielectric constant tensor:
#      x y z
#    x 1.559240 0.000000 0.000000 
#    y 0.000000 1.559230 0.000000 
#    z 0.000000 0.000000 1.533400 
# 
# From -- ./inp_files/4237.got.cif
#   From: 2010.05.17/outbox.cif.g08.bks.cpg/sg119_3_cif.got.tgz:4237.got - 2010.05.20 11:21:29.
