data_PCOD9559401
_publ_section_title
;
Structure prediction by ZEFSAII (Michael W. Deem and Ramdas Pophale) SiO2 
 PCOD9559401
Probable space group: I -4 M 2
;
_chemical_formula_sum "Si O2"
_cell_formula_units_Z 40
_cell_length_a 7.594933
_cell_length_b 7.594933
_cell_length_c 32.905588
_cell_angle_alpha 90.000000
_cell_angle_beta 90.000000
_cell_angle_gamma 90.000000
_cell_volume 1898.093272
_symmetry_space_group_name_H-M "I -4 M 2"
_symmetry_group_IT_number 119
_symmetry_cell_setting 'tetragonal'
loop_
_space_group_symop_operation_xyz
x,y,z
y,-x,-z
-x,-y,z
-y,x,-z
y,x,-z
-y,-x,-z
-x,y,z
x,-y,z
1/2+x,1/2+y,1/2+z
1/2+y,1/2-x,1/2-z
1/2-x,1/2-y,1/2+z
1/2-y,1/2+x,1/2-z
1/2+y,1/2+x,1/2-z
1/2-y,1/2-x,1/2-z
1/2-x,1/2+y,1/2+z
1/2+x,1/2-y,1/2+z
loop_
_atom_site_type_symbol
_atom_site_label
_atom_site_fract_x
_atom_site_fract_y
_atom_site_fract_z
Si Si1 0.299649 0.794847 0.089591
Si Si2 0.307008 0.000000 0.849326
Si Si3 0.791225 0.791225 0.500000
Si Si4 0.000000 0.794663 0.238917
O O1 0.500000 0.722252 0.090371
O O2 0.229702 0.779736 0.043314
O O3 0.168329 0.712414 0.121675
O O4 0.308628 0.000000 0.099375
O O5 0.500000 0.000000 0.831059
O O6 0.187457 0.000000 0.809971
O O7 0.000000 0.757886 0.498607
O O8 0.173874 0.673874 0.250000
O O9 0.000000 0.000000 0.255300
#
# Coordination Sequence:
#
# PCOD9559401 Si02
#       4
#    16   8   8   8
#     4  10  22  38  59  91 129 173 226 283 337 406
#     4  12  24  43  69  96 135 177 228 285 349 416
#     4   9  18  34  53  80 124 174 225 275 334 392
#     4  11  25  50  77 111 148 187 235 300 369 449
#
# _framework density 21.073781
#
# number of rings (size 3 to 8) (size 9 to 14) (size 15 to 20)
#    0.000    1.600    2.000    3.000    2.800    4.400 
#    0.000    0.000    0.000    0.000    0.000    0.000 
#    0.000    0.000    0.000    0.000    0.000    0.000 
#
# Total GULP energy -111555.397986 kJ/mol
# GULP energy per Si atom -5577.769899 kJ/mol
# Density = 2.102582 g / cm^3
# Si number density = 21.073781 Si / 1000 Ang^3
#
#
#
# Elastic Constant Matrix: (Units=GPa)
#
#
# Indices 1 2 3 4 5 6 
#
# 1 116.9826 28.4933 30.4073 0.0000 0.0000 0.0000
# 2 28.4933 116.9826 30.4073 0.0000 0.0000 0.0000
# 3 30.4073 30.4073 111.7235 0.0000 0.0000 0.0000
# 4 0.0000 0.0000 0.0000 16.1612 0.0000 0.0000
# 5 0.0000 0.0000 0.0000 0.0000 16.1612 0.0000
# 6 0.0000 0.0000 0.0000 0.0000 0.0000 16.2770
#
#
#
# Elastic Compliance Matrix: (Units=1/GPa)
#
#
# Indices 1 2 3 4 5 6 
#
# 1 0.009529 -0.001772 -0.002111 0.000000 0.000000 0.000000
# 2 -0.001772 0.009529 -0.002111 0.000000 0.000000 0.000000
# 3 -0.002111 -0.002111 0.010100 0.000000 0.000000 0.000000
# 4 0.000000 0.000000 0.000000 0.061877 0.000000 0.000000
# 5 0.000000 0.000000 0.000000 0.000000 0.061877 0.000000
# 6 0.000000 0.000000 0.000000 0.000000 0.000000 0.061437
#
#
# Mechanical properties :
#
#
# Convention : Reuss Voigt Hill
#
# Bulk Modulus (GPa) = 58.24601 58.25607 58.25104
# Shear Modulus (GPa) = 21.54630 26.81191 24.17911
#
# Velocity S-wave (km/s) = 3.20100 3.57078 3.39094
# Velocity P-wave (km/s) = 6.43125 6.68615 6.55994
#
# Compressibility (1/GPa) = 0.01716856
#
# Stress axis : x y z
#
# Youngs Moduli (GPa) = 104.94671 104.94672 99.01205
#
# Poissons Ratio (x) = 0.18598 0.20902
# Poissons Ratio (y) = 0.18598 0.20902
# Poissons Ratio (z) = 0.22155 0.22155
#
# Static dielectric constant tensor:
#      x y z
#    x 1.805700 0.000000 0.000000 
#    y 0.000000 1.805700 0.000000 
#    z 0.000000 0.000000 1.728460 
# 
# From -- ./inp_files/9148.got.cif
#   From: 2010.05.17/outbox.cif.g08.bks.cpg/sg119_5_cif.got.tgz:9148.got - 2010.05.20 11:21:29.
