data_PCOD9559555
_publ_section_title
;
Structure prediction by ZEFSAII (Michael W. Deem and Ramdas Pophale) SiO2 
 PCOD9559555
Probable space group: I -4 C 2
;
_chemical_formula_sum "Si O2"
_cell_formula_units_Z 92
_cell_length_a 26.612405
_cell_length_b 26.612405
_cell_length_c 8.166816
_cell_angle_alpha 90.000000
_cell_angle_beta 90.000000
_cell_angle_gamma 90.000000
_cell_volume 5783.903243
_symmetry_space_group_name_H-M "I -4 C 2"
_symmetry_group_IT_number 120
_symmetry_cell_setting 'tetragonal'
loop_
_space_group_symop_operation_xyz
x,y,z
y,-x,-z
-x,-y,z
-y,x,-z
y,x,1/2-z
-y,-x,1/2-z
-x,y,1/2+z
x,-y,1/2+z
1/2+x,1/2+y,1/2+z
1/2+y,1/2-x,1/2-z
1/2-x,1/2-y,1/2+z
1/2-y,1/2+x,1/2-z
1/2+y,1/2+x,-z
1/2-y,1/2-x,-z
1/2-x,1/2+y,z
1/2+x,1/2-y,z
loop_
_atom_site_type_symbol
_atom_site_label
_atom_site_fract_x
_atom_site_fract_y
_atom_site_fract_z
Si Si1 0.807381 0.692619 0.500000
Si Si2 0.436503 0.436503 0.750000
Si Si3 0.000000 0.000000 0.000000
Si Si4 0.652420 0.304482 0.009198
Si Si5 0.271054 0.271054 0.250000
Si Si6 0.066731 0.141359 0.799842
Si Si7 0.834715 0.960629 0.067160
Si Si8 0.380084 0.736566 0.347623
O O1 0.779196 0.718292 0.346852
O O2 0.786416 0.636917 0.548329
O O3 0.474298 0.455504 0.606590
O O4 0.380833 0.439238 0.675875
O O5 0.631885 0.269268 0.154235
O O6 0.691028 0.346370 0.077229
O O7 0.685014 0.273358 0.881895
O O8 0.611594 0.333511 0.900738
O O9 0.084957 0.084957 0.750000
O O10 0.054308 0.163574 0.622490
O O11 0.019095 0.153014 0.911725
O O12 0.782459 0.937341 0.130750
#
# Coordination Sequence:
#
# PCOD9559555 Si02
#       8
#     8   8   4  16   8  16  16  16
#     4  10  18  30  50  72  98 118 142 180 262 308
#     4  11  24  37  46  63  82 116 158 224 259 314
#     4  10  24  38  48  62  88 118 172 222 268 318
#     4  10  18  33  51  68  97 113 151 190 253 309
#     4  10  16  27  44  73  90 115 135 182 229 314
#     4  12  24  38  50  68  88 129 162 211 264 311
#     4  12  25  35  51  65  89 118 165 208 258 307
#     4  10  20  34  51  73  92 117 147 201 249 327
#
# _framework density 15.906212999999999
#
# number of rings (size 3 to 8) (size 9 to 14) (size 15 to 20)
#    0.000    1.217    2.609    6.261    7.304    0.000 
#    0.000    0.000    0.000    0.000    0.000    0.000 
#    0.000    0.000    0.000    0.000    0.000    0.000 
#
# Total GULP energy -256320.299712 kJ/mol
# GULP energy per Si atom -5572.180429 kJ/mol
# Density = 1.587001 g / cm^3
# Si number density = 15.906213 Si / 1000 Ang^3
#
#
#
# Elastic Constant Matrix: (Units=GPa)
#
#
# Indices 1 2 3 4 5 6 
#
# 1 40.4789 37.0717 17.5493 0.0000 0.0000 0.0000
# 2 37.0717 40.4780 17.5493 0.0000 0.0000 0.0000
# 3 17.5493 17.5493 95.8382 0.0000 0.0000 0.0000
# 4 0.0000 0.0000 0.0000 19.1003 0.0000 0.0000
# 5 0.0000 0.0000 0.0000 0.0000 19.1006 0.0000
# 6 0.0000 0.0000 0.0000 0.0000 0.0000 25.7784
#
#
#
# Elastic Compliance Matrix: (Units=1/GPa)
#
#
# Indices 1 2 3 4 5 6 
#
# 1 0.153796 -0.139738 -0.002574 0.000000 0.000000 0.000000
# 2 -0.139738 0.153800 -0.002575 0.000000 0.000000 0.000000
# 3 -0.002574 -0.002575 0.011377 0.000000 0.000000 0.000000
# 4 0.000000 0.000000 0.000000 0.052355 0.000000 0.000000
# 5 0.000000 0.000000 0.000000 0.000000 0.052354 0.000000
# 6 0.000000 0.000000 0.000000 0.000000 0.000000 0.038792
#
#
# Mechanical properties :
#
#
# Convention : Reuss Voigt Hill
#
# Bulk Modulus (GPa) = 34.24778 35.68176 34.96477
# Shear Modulus (GPa) = 6.56184 19.77085 13.16635
#
# Velocity S-wave (km/s) = 2.03330 3.52939 2.88018
# Velocity P-wave (km/s) = 5.20482 6.25221 5.75240
#
# Compressibility (1/GPa) = 0.02919897
#
# Stress axis : x y z
#
# Youngs Moduli (GPa) = 6.50212 6.50197 87.89555
#
# Poissons Ratio (x) = 0.90857 0.22628
# Poissons Ratio (y) = 0.90859 0.22632
# Poissons Ratio (z) = 0.01674 0.01674
#
# Static dielectric constant tensor:
#      x y z
#    x 1.598890 0.000000 0.000000 
#    y 0.000000 1.598890 0.000000 
#    z 0.000000 0.000000 1.592960 
# 
# From -- ./inp_files/1668.got.cif
#   From: 2010.05.17/outbox.cif.g08.bks.cpg/sg120_1_cif.got.tgz:1668.got - 2010.05.20 11:28:13.
