data_PCOD9559293
_publ_section_title
;
Structure prediction by ZEFSAII (Michael W. Deem and Ramdas Pophale) SiO2 
 PCOD9559293
Probable space group: I -4 M 2
;
_chemical_formula_sum "Si O2"
_cell_formula_units_Z 112
_cell_length_a 14.865684
_cell_length_b 14.865684
_cell_length_c 26.644885
_cell_angle_alpha 90.000000
_cell_angle_beta 90.000000
_cell_angle_gamma 90.000000
_cell_volume 5888.214789
_symmetry_space_group_name_H-M "I -4 M 2"
_symmetry_group_IT_number 119
_symmetry_cell_setting 'tetragonal'
loop_
_space_group_symop_operation_xyz
x,y,z
y,-x,-z
-x,-y,z
-y,x,-z
y,x,-z
-y,-x,-z
-x,y,z
x,-y,z
1/2+x,1/2+y,1/2+z
1/2+y,1/2-x,1/2-z
1/2-x,1/2-y,1/2+z
1/2-y,1/2+x,1/2-z
1/2+y,1/2+x,1/2-z
1/2-y,1/2-x,1/2-z
1/2-x,1/2+y,1/2+z
1/2+x,1/2-y,1/2+z
loop_
_atom_site_type_symbol
_atom_site_label
_atom_site_fract_x
_atom_site_fract_y
_atom_site_fract_z
Si Si1 0.896292 0.397537 0.477748
Si Si2 0.784000 0.602171 0.856279
Si Si3 0.103099 0.217873 0.851065
Si Si4 0.688896 0.659449 0.759464
Si Si5 0.824119 0.598200 0.201199
Si Si6 0.267096 0.107155 0.883197
Si Si7 0.895146 0.221302 0.538032
O O1 0.885372 0.500000 0.495466
O O2 0.825447 0.380938 0.433478
O O3 0.883998 0.324637 0.520890
O O4 0.000000 0.388377 0.459288
O O5 0.817554 0.500000 0.865743
O O6 0.859301 0.679547 0.851506
O O7 0.726499 0.602020 0.805331
O O8 0.720298 0.628587 0.903269
O O9 0.111024 0.180059 0.793743
O O10 0.171807 0.157638 0.883413
O O11 0.000000 0.214594 0.867316
O O12 0.765808 0.734193 0.750000
O O13 0.608039 0.721673 0.779177
O O14 0.840377 0.500000 0.179378
O O15 0.885332 0.614668 0.250000
O O16 0.848056 0.675454 0.161652
O O17 0.257368 0.000000 0.874323
O O18 0.837753 0.162248 0.500000
O O19 0.000000 0.196814 0.532844
#
# Coordination Sequence:
#
# PCOD9559293 Si02
#       7
#    16  16  16  16  16  16  16
#     4   9  19  36  58  83 111 142 178 226 283 336
#     4  10  20  37  60  83 109 141 185 239 283 322
#     4  11  22  37  57  81 111 150 188 226 278 332
#     4   9  18  36  53  77 110 148 180 225 275 330
#     4  11  20  32  54  80 111 147 184 228 277 326
#     4  11  21  36  55  81 114 148 186 226 272 331
#     4  10  21  36  57  83 113 148 184 225 277 331
#
# _framework density 19.021044
#
# number of rings (size 3 to 8) (size 9 to 14) (size 15 to 20)
#    0.000    1.857    4.286    2.143    0.000    2.857 
#    0.000    1.429    0.000    4.714    0.000    0.000 
#    0.000    3.429    0.000    0.000    0.000    0.000 
#
# Total GULP energy -312342.194731 kJ/mol
# GULP energy per Si atom -5577.539192 kJ/mol
# Density = 1.897775 g / cm^3
# Si number density = 19.021044 Si / 1000 Ang^3
#
#
#
# Elastic Constant Matrix: (Units=GPa)
#
#
# Indices 1 2 3 4 5 6 
#
# 1 71.3693 39.7082 11.6142 0.0000 0.0000 0.0000
# 2 39.7082 71.3689 11.6142 0.0000 0.0000 0.0000
# 3 11.6142 11.6142 57.0765 0.0000 0.0000 0.0000
# 4 0.0000 0.0000 0.0000 18.7033 0.0000 0.0000
# 5 0.0000 0.0000 0.0000 0.0000 18.7031 0.0000
# 6 0.0000 0.0000 0.0000 0.0000 0.0000 17.9579
#
#
#
# Elastic Compliance Matrix: (Units=1/GPa)
#
#
# Indices 1 2 3 4 5 6 
#
# 1 0.020494 -0.011091 -0.001913 0.000000 0.000000 0.000000
# 2 -0.011091 0.020494 -0.001913 0.000000 0.000000 0.000000
# 3 -0.001913 -0.001913 0.018299 0.000000 0.000000 0.000000
# 4 0.000000 0.000000 0.000000 0.053466 0.000000 0.000000
# 5 0.000000 0.000000 0.000000 0.000000 0.053467 0.000000
# 6 0.000000 0.000000 0.000000 0.000000 0.000000 0.055686
#
#
# Mechanical properties :
#
#
# Convention : Reuss Voigt Hill
#
# Bulk Modulus (GPa) = 33.95429 36.18756 35.07092
# Shear Modulus (GPa) = 19.11621 20.19808 19.65715
#
# Velocity S-wave (km/s) = 3.17362 3.26219 3.21821
# Velocity P-wave (km/s) = 5.59632 5.76675 5.68218
#
# Compressibility (1/GPa) = 0.02945136
#
# Stress axis : x y z
#
# Youngs Moduli (GPa) = 48.79549 48.79517 54.64775
#
# Poissons Ratio (x) = 0.54118 0.10456
# Poissons Ratio (y) = 0.54119 0.10456
# Poissons Ratio (z) = 0.09336 0.09336
#
# Static dielectric constant tensor:
#      x y z
#    x 1.679840 0.000000 0.000000 
#    y 0.000000 1.679840 0.000000 
#    z 0.000000 0.000000 1.671270 
# 
# From -- ./inp_files/9639.got.cif
#   From: 2010.05.17/outbox.cif.g08.bks.cpg/sg119_5_cif.got.tgz:9639.got - 2010.05.20 11:21:29.
