data_PCOD9559112
_publ_section_title
;
Structure prediction by ZEFSAII (Michael W. Deem and Ramdas Pophale) SiO2 
 PCOD9559112
Probable space group: I -4 M 2
;
_chemical_formula_sum "Si O2"
_cell_formula_units_Z 80
_cell_length_a 26.848105
_cell_length_b 26.848105
_cell_length_c 6.009285
_cell_angle_alpha 90.000000
_cell_angle_beta 90.000000
_cell_angle_gamma 90.000000
_cell_volume 4331.617273
_symmetry_space_group_name_H-M "I -4 M 2"
_symmetry_group_IT_number 119
_symmetry_cell_setting 'tetragonal'
loop_
_space_group_symop_operation_xyz
x,y,z
y,-x,-z
-x,-y,z
-y,x,-z
y,x,-z
-y,-x,-z
-x,y,z
x,-y,z
1/2+x,1/2+y,1/2+z
1/2+y,1/2-x,1/2-z
1/2-x,1/2-y,1/2+z
1/2-y,1/2+x,1/2-z
1/2+y,1/2+x,1/2-z
1/2-y,1/2-x,1/2-z
1/2-x,1/2+y,1/2+z
1/2+x,1/2-y,1/2+z
loop_
_atom_site_type_symbol
_atom_site_label
_atom_site_fract_x
_atom_site_fract_y
_atom_site_fract_z
Si Si1 0.057871 0.195587 0.275565
Si Si2 0.138609 0.638609 0.250000
Si Si3 0.629432 0.057631 0.130504
Si Si4 0.283744 0.899497 0.423268
Si Si5 0.139738 0.207000 0.888041
Si Si6 0.125406 0.125406 0.500000
O O1 0.070363 0.240317 0.448994
O O2 0.073530 0.142957 0.390918
O O3 0.000000 0.196860 0.215018
O O4 0.094627 0.203115 0.065497
O O5 0.138217 0.590790 0.411787
O O6 0.134003 0.687186 0.399997
O O7 0.581271 0.081271 0.250000
O O8 0.675502 0.066430 0.299898
O O9 0.624131 0.000000 0.078269
O O10 0.258939 0.865394 0.234919
O O11 0.133125 0.165140 0.697598
O O12 0.191709 0.191709 0.000000
#
# Coordination Sequence:
#
# PCOD9559112 Si02
#       6
#    16   8  16  16  16   8
#     4  10  19  32  56  88 112 138 183 232 276 326
#     4  10  22  36  54  83 108 148 178 232 280 334
#     4  10  22  39  57  81 110 144 183 227 281 336
#     4  10  20  35  56  84 109 142 181 230 282 328
#     4   9  18  33  53  82 108 146 180 225 280 323
#     4   8  18  34  50  79 114 150 174 220 276 326
#
# _framework density 18.468851999999998
#
# number of rings (size 3 to 8) (size 9 to 14) (size 15 to 20)
#    0.000    2.400    0.000    1.800    0.000    9.800 
#    0.000    0.000    0.000    0.300  618.800    0.000 
#    0.000    0.000    0.000    0.000    0.000    0.000 
#
# Total GULP energy -222982.287527 kJ/mol
# GULP energy per Si atom -5574.557188 kJ/mol
# Density = 1.842682 g / cm^3
# Si number density = 18.468852 Si / 1000 Ang^3
#
#
#
# Elastic Constant Matrix: (Units=GPa)
#
#
# Indices 1 2 3 4 5 6 
#
# 1 63.1522 70.6182 30.3464 0.0000 0.0000 0.0000
# 2 70.6182 63.1522 30.3464 0.0000 0.0000 0.0000
# 3 30.3464 30.3464 88.0113 0.0000 0.0000 0.0000
# 4 0.0000 0.0000 0.0000 15.4243 0.0000 0.0000
# 5 0.0000 0.0000 0.0000 0.0000 15.4243 0.0000
# 6 0.0000 0.0000 0.0000 0.0000 0.0000 10.5167
#
#
#
# Elastic Compliance Matrix: (Units=1/GPa)
#
#
# Indices 1 2 3 4 5 6 
#
# 1 -0.062539 0.071401 -0.003056 0.000000 0.000000 0.000000
# 2 0.071401 -0.062539 -0.003056 0.000000 0.000000 0.000000
# 3 -0.003056 -0.003056 0.013469 0.000000 0.000000 0.000000
# 4 0.000000 0.000000 0.000000 0.064833 0.000000 0.000000
# 5 0.000000 0.000000 0.000000 0.000000 0.064833 0.000000
# 6 0.000000 0.000000 0.000000 0.000000 0.000000 0.095087
#
#
# Mechanical properties :
#
#
# Convention : Reuss Voigt Hill
#
# Bulk Modulus (GPa) = 52.71292 52.99311 52.85302
# Shear Modulus (GPa) = -449.87802 13.80670 -218.03566
#
# Velocity S-wave (km/s) = -15.62422 2.73713 -10.87714
# Velocity P-wave (km/s) = 17.23035 6.22453 11.36090
#
# Compressibility (1/GPa) = 0.01897068
#
# Stress axis : x y z
#
# Youngs Moduli (GPa) = -15.98990 -15.98990 74.24285
#
# Poissons Ratio (x) = 1.14170 0.22685
# Poissons Ratio (y) = 1.14170 0.22685
# Poissons Ratio (z) = -0.04886 -0.04886
#
# Static dielectric constant tensor:
#      x y z
#    x 1.627030 0.000000 0.000000 
#    y 0.000000 1.627030 0.000000 
#    z 0.000000 0.000000 1.675390 
# 
# From -- ./inp_files/1012.got.cif
#   From: 2010.05.17/outbox.cif.g08.bks.cpg/sg119_1_cif.got.tgz:1012.got - 2010.05.20 11:21:29.
