data_PCOD9559683
_publ_section_title
;
Structure prediction by ZEFSAII (Michael W. Deem and Ramdas Pophale) SiO2 
 PCOD9559683
Probable space group: I -4 C 2
;
_chemical_formula_sum "Si O2"
_cell_formula_units_Z 128
_cell_length_a 18.328662
_cell_length_b 18.328662
_cell_length_c 22.309241
_cell_angle_alpha 90.000000
_cell_angle_beta 90.000000
_cell_angle_gamma 90.000000
_cell_volume 7494.563091
_symmetry_space_group_name_H-M "I -4 C 2"
_symmetry_group_IT_number 120
_symmetry_cell_setting 'tetragonal'
loop_
_space_group_symop_operation_xyz
x,y,z
y,-x,-z
-x,-y,z
-y,x,-z
y,x,1/2-z
-y,-x,1/2-z
-x,y,1/2+z
x,-y,1/2+z
1/2+x,1/2+y,1/2+z
1/2+y,1/2-x,1/2-z
1/2-x,1/2-y,1/2+z
1/2-y,1/2+x,1/2-z
1/2+y,1/2+x,-z
1/2-y,1/2-x,-z
1/2-x,1/2+y,z
1/2+x,1/2-y,z
loop_
_atom_site_type_symbol
_atom_site_label
_atom_site_fract_x
_atom_site_fract_y
_atom_site_fract_z
Si Si1 0.935766 0.553758 0.428440
Si Si2 0.764929 0.806329 0.095692
Si Si3 0.651499 0.301365 0.538705
Si Si4 0.627919 0.811219 0.629661
Si Si5 0.549856 0.108584 0.239807
Si Si6 0.920221 0.734492 0.930117
Si Si7 0.273046 0.001685 0.943721
Si Si8 0.702206 0.049500 0.645283
O O1 0.942891 0.557110 0.500000
O O2 0.852340 0.529351 0.421385
O O3 0.946988 0.630866 0.397364
O O4 0.000000 0.500000 0.405784
O O5 0.692588 0.766225 0.070847
O O6 0.807375 0.747715 0.136697
O O7 0.748273 0.879203 0.131283
O O8 0.801819 0.829978 0.032384
O O9 0.692684 0.372235 0.563497
O O10 0.566813 0.285197 0.551287
O O11 0.594724 0.861063 0.682702
O O12 0.665102 0.867222 0.581983
O O13 0.564103 0.761342 0.602035
O O14 0.464611 0.086589 0.231935
O O15 0.549670 0.172759 0.288005
O O16 0.975489 0.740862 0.874879
O O17 0.965811 0.721606 0.990538
#
# Coordination Sequence:
#
# PCOD9559683 Si02
#       8
#    16  16  16  16  16  16  16  16
#     4  11  21  28  48  83 113 137 177 226 287 353
#     4  10  20  35  57  83 116 149 189 236 290 346
#     4  10  20  35  52  86 122 148 181 238 300 349
#     4  11  23  39  57  82 114 158 197 228 282 351
#     4  11  25  40  55  81 122 157 190 239 285 337
#     4  11  21  35  57  85 116 151 189 232 291 351
#     4  12  20  34  58  83 117 149 184 233 292 355
#     4  12  21  37  57  81 114 155 191 235 285 338
#
# _framework density 17.079048
#
# number of rings (size 3 to 8) (size 9 to 14) (size 15 to 20)
#    0.000    1.000    6.250    1.875    3.500    0.500 
#    0.000    0.000    0.000    3.375    0.000    0.000 
#    0.000    2.000    0.000    0.000    0.000    0.000 
#
# Total GULP energy -356824.045751 kJ/mol
# GULP energy per Si atom -5575.375715 kJ/mol
# Density = 1.704018 g / cm^3
# Si number density = 17.079048 Si / 1000 Ang^3
#
#
#
# Elastic Constant Matrix: (Units=GPa)
#
#
# Indices 1 2 3 4 5 6 
#
# 1 73.5983 54.5750 27.8758 0.0000 0.0000 0.0000
# 2 54.5750 73.5979 27.8758 0.0000 0.0000 0.0000
# 3 27.8758 27.8758 54.4514 0.0000 0.0000 0.0000
# 4 0.0000 0.0000 0.0000 21.9028 0.0000 0.0000
# 5 0.0000 0.0000 0.0000 0.0000 21.9028 0.0000
# 6 0.0000 0.0000 0.0000 0.0000 0.0000 31.4084
#
#
#
# Elastic Compliance Matrix: (Units=1/GPa)
#
#
# Indices 1 2 3 4 5 6 
#
# 1 0.031302 -0.021265 -0.005138 0.000000 0.000000 0.000000
# 2 -0.021265 0.031302 -0.005138 0.000000 0.000000 0.000000
# 3 -0.005138 -0.005138 0.023626 0.000000 0.000000 0.000000
# 4 0.000000 0.000000 0.000000 0.045656 0.000000 0.000000
# 5 0.000000 0.000000 0.000000 0.000000 0.045656 0.000000
# 6 0.000000 0.000000 0.000000 0.000000 0.000000 0.031839
#
#
# Mechanical properties :
#
#
# Convention : Reuss Voigt Hill
#
# Bulk Modulus (GPa) = 43.20273 46.92231 45.06252
# Shear Modulus (GPa) = 17.84557 21.13086 19.48822
#
# Velocity S-wave (km/s) = 3.23597 3.52126 3.38162
# Velocity P-wave (km/s) = 6.26998 6.63819 6.45671
#
# Compressibility (1/GPa) = 0.02314669
#
# Stress axis : x y z
#
# Youngs Moduli (GPa) = 31.94660 31.94638 42.32624
#
# Poissons Ratio (x) = 0.67935 0.21748
# Poissons Ratio (y) = 0.67936 0.21749
# Poissons Ratio (z) = 0.16415 0.16415
#
# Static dielectric constant tensor:
#      x y z
#    x 1.594530 0.000000 0.000000 
#    y 0.000000 1.594530 0.000000 
#    z 0.000000 0.000000 1.595960 
# 
# From -- ./inp_files/6030.got.cif
#   From: 2010.05.17/outbox.cif.g08.bks.cpg/sg120_4_cif.got.tgz:6030.got - 2010.05.20 11:28:13.
