data_PCOD9559799
_publ_section_title
;
Structure prediction by ZEFSAII (Michael W. Deem and Ramdas Pophale) SiO2 
 PCOD9559799
Probable space group: I -4 C 2
;
_chemical_formula_sum "Si O2"
_cell_formula_units_Z 96
_cell_length_a 14.147413
_cell_length_b 14.147413
_cell_length_c 21.352291
_cell_angle_alpha 90.000000
_cell_angle_beta 90.000000
_cell_angle_gamma 90.000000
_cell_volume 4273.645982
_symmetry_space_group_name_H-M "I -4 C 2"
_symmetry_group_IT_number 120
_symmetry_cell_setting 'tetragonal'
loop_
_space_group_symop_operation_xyz
x,y,z
y,-x,-z
-x,-y,z
-y,x,-z
y,x,1/2-z
-y,-x,1/2-z
-x,y,1/2+z
x,-y,1/2+z
1/2+x,1/2+y,1/2+z
1/2+y,1/2-x,1/2-z
1/2-x,1/2-y,1/2+z
1/2-y,1/2+x,1/2-z
1/2+y,1/2+x,-z
1/2-y,1/2-x,-z
1/2-x,1/2+y,z
1/2+x,1/2-y,z
loop_
_atom_site_type_symbol
_atom_site_label
_atom_site_fract_x
_atom_site_fract_y
_atom_site_fract_z
Si Si1 0.175639 0.113127 0.189965
Si Si2 0.265677 0.418942 0.235436
Si Si3 0.120660 0.670698 0.397198
Si Si4 0.409063 0.798129 0.425096
Si Si5 0.512946 0.734033 0.635447
Si Si6 0.289630 0.639018 0.954512
O O1 0.180682 0.180682 0.250000
O O2 0.263970 0.113851 0.144629
O O3 0.087083 0.154645 0.155145
O O4 0.168477 0.005351 0.211389
O O5 0.330623 0.330623 0.250000
O O6 0.198379 0.393791 0.176549
O O7 0.226734 0.460776 0.301513
O O8 0.185077 0.577152 0.397602
O O9 0.171116 0.758834 0.433848
O O10 0.015433 0.663913 0.426258
O O11 0.391403 0.709865 0.473068
O O12 0.323348 0.866752 0.440726
O O13 0.439727 0.676753 0.592533
#
# Coordination Sequence:
#
# PCOD9559799 Si02
#       6
#    16  16  16  16  16  16
#     4   9  20  38  63  93 129 169 214 277 332 395
#     4  10  21  40  64 102 134 172 228 279 348 414
#     4  11  24  44  68  97 140 181 230 294 347 414
#     4  10  24  43  65  99 134 177 230 282 344 416
#     4  11  23  39  68  98 131 185 223 279 353 408
#     4  11  24  43  68  96 136 180 232 281 344 427
#
# _framework density 22.463255
#
# number of rings (size 3 to 8) (size 9 to 14) (size 15 to 20)
#    0.000    1.667    3.333    0.000    2.333   10.333 
#    0.000    1.667    0.000    0.000    0.000    0.000 
#    0.000    0.000    0.000    0.000    0.000    0.000 
#
# Total GULP energy -267631.881911 kJ/mol
# GULP energy per Si atom -5575.664206 kJ/mol
# Density = 2.241213 g / cm^3
# Si number density = 22.463255 Si / 1000 Ang^3
#
#
#
# Elastic Constant Matrix: (Units=GPa)
#
#
# Indices 1 2 3 4 5 6 
#
# 1 61.2058 40.6873 9.7537 0.0000 0.0000 0.0000
# 2 40.6873 61.2058 9.7537 0.0000 0.0000 0.0000
# 3 9.7537 9.7537 64.2524 0.0000 0.0000 0.0000
# 4 0.0000 0.0000 0.0000 26.0707 0.0000 0.0000
# 5 0.0000 0.0000 0.0000 0.0000 26.0707 0.0000
# 6 0.0000 0.0000 0.0000 0.0000 0.0000 9.6875
#
#
#
# Elastic Compliance Matrix: (Units=1/GPa)
#
#
# Indices 1 2 3 4 5 6 
#
# 1 0.029422 -0.019314 -0.001534 0.000000 0.000000 0.000000
# 2 -0.019314 0.029422 -0.001534 0.000000 0.000000 0.000000
# 3 -0.001534 -0.001534 0.016029 0.000000 0.000000 0.000000
# 4 0.000000 0.000000 0.000000 0.038357 0.000000 0.000000
# 5 0.000000 0.000000 0.000000 0.000000 0.038357 0.000000
# 6 0.000000 0.000000 0.000000 0.000000 0.000000 0.103226
#
#
# Mechanical properties :
#
#
# Convention : Reuss Voigt Hill
#
# Bulk Modulus (GPa) = 33.21404 34.11704 33.66554
# Shear Modulus (GPa) = 16.14902 20.79707 18.47304
#
# Velocity S-wave (km/s) = 2.68415 3.04604 2.87081
# Velocity P-wave (km/s) = 4.94209 5.25281 5.09982
#
# Compressibility (1/GPa) = 0.03010775
#
# Stress axis : x y z
#
# Youngs Moduli (GPa) = 33.98790 33.98790 62.38511
#
# Poissons Ratio (x) = 0.65645 0.09572
# Poissons Ratio (y) = 0.65645 0.09572
# Poissons Ratio (z) = 0.05215 0.05215
#
# Static dielectric constant tensor:
#      x y z
#    x 1.821640 0.000000 0.000000 
#    y 0.000000 1.821640 0.000000 
#    z 0.000000 0.000000 2.182400 
# 
# From -- ./inp_files/5349.got.cif
#   From: 2010.05.17/outbox.cif.g08.bks.cpg/sg120_3_cif.got.tgz:5349.got - 2010.05.20 11:28:13.
