data_PCOD9559782
_publ_section_title
;
Structure prediction by ZEFSAII (Michael W. Deem and Ramdas Pophale) SiO2 
 PCOD9559782
Probable space group: I -4 C 2
;
_chemical_formula_sum "Si O2"
_cell_formula_units_Z 112
_cell_length_a 15.313868
_cell_length_b 15.313868
_cell_length_c 25.553510
_cell_angle_alpha 90.000000
_cell_angle_beta 90.000000
_cell_angle_gamma 90.000000
_cell_volume 5992.669978
_symmetry_space_group_name_H-M "I -4 C 2"
_symmetry_group_IT_number 120
_symmetry_cell_setting 'tetragonal'
loop_
_space_group_symop_operation_xyz
x,y,z
y,-x,-z
-x,-y,z
-y,x,-z
y,x,1/2-z
-y,-x,1/2-z
-x,y,1/2+z
x,-y,1/2+z
1/2+x,1/2+y,1/2+z
1/2+y,1/2-x,1/2-z
1/2-x,1/2-y,1/2+z
1/2-y,1/2+x,1/2-z
1/2+y,1/2+x,-z
1/2-y,1/2-x,-z
1/2-x,1/2+y,z
1/2+x,1/2-y,z
loop_
_atom_site_type_symbol
_atom_site_label
_atom_site_fract_x
_atom_site_fract_y
_atom_site_fract_z
Si Si1 0.434054 0.078428 0.062707
Si Si2 0.365131 0.482363 0.013176
Si Si3 0.192650 0.584466 0.457998
Si Si4 0.324821 0.254933 0.801673
Si Si5 0.744613 0.534294 0.611241
Si Si6 0.603950 0.096729 0.760927
Si Si7 0.343612 0.194488 0.359771
O O1 0.494251 0.163247 0.069761
O O2 0.340248 0.065856 0.089555
O O3 0.500000 0.000000 0.078013
O O4 0.421539 0.078462 0.000000
O O5 0.325731 0.528667 0.064659
O O6 0.410905 0.558439 0.978714
O O7 0.283050 0.434501 0.986559
O O8 0.119858 0.619858 0.500000
O O9 0.193678 0.657998 0.413931
O O10 0.315653 0.315653 0.750000
O O11 0.400234 0.280988 0.842338
O O12 0.346474 0.160725 0.778436
O O13 0.232706 0.253222 0.831242
O O14 0.757062 0.434705 0.630359
O O15 0.502942 0.117813 0.754547
O O16 0.633382 0.116336 0.819768
#
# Coordination Sequence:
#
# PCOD9559782 Si02
#       7
#    16  16  16  16  16  16  16
#     4  11  18  33  57  93 136 162 191 258 324 382
#     4  11  25  44  62  87 134 183 220 259 305 391
#     4  12  21  39  62  98 138 164 209 267 322 395
#     4  10  24  42  60  93 129 164 216 275 326 389
#     4  12  22  40  66  93 128 173 216 267 328 391
#     4  10  21  38  64  92 123 161 209 272 335 388
#     4  11  22  38  63  93 128 168 205 269 330 392
#
# _framework density 18.689499000000001
#
# number of rings (size 3 to 8) (size 9 to 14) (size 15 to 20)
#    0.000    1.000    7.143    0.857    2.000    1.143 
#    2.571    0.000    0.000    0.000    0.000    0.000 
#    0.000    0.000    0.000    0.000    0.000    0.000 
#
# Total GULP energy -312445.100912 kJ/mol
# GULP energy per Si atom -5579.376802 kJ/mol
# Density = 1.864696 g / cm^3
# Si number density = 18.689499 Si / 1000 Ang^3
#
#
#
# Elastic Constant Matrix: (Units=GPa)
#
#
# Indices 1 2 3 4 5 6 
#
# 1 86.9634 50.0663 38.9160 0.0000 0.0000 0.0000
# 2 50.0663 86.9632 38.9162 0.0000 0.0000 0.0000
# 3 38.9160 38.9162 91.0386 0.0000 0.0000 0.0000
# 4 0.0000 0.0000 0.0000 18.1628 0.0000 0.0000
# 5 0.0000 0.0000 0.0000 0.0000 18.1627 0.0000
# 6 0.0000 0.0000 0.0000 0.0000 0.0000 26.4232
#
#
#
# Elastic Compliance Matrix: (Units=1/GPa)
#
#
# Indices 1 2 3 4 5 6 
#
# 1 0.018370 -0.008732 -0.004120 0.000000 0.000000 0.000000
# 2 -0.008732 0.018370 -0.004120 0.000000 0.000000 0.000000
# 3 -0.004120 -0.004120 0.014507 0.000000 0.000000 0.000000
# 4 0.000000 0.000000 0.000000 0.055058 0.000000 0.000000
# 5 0.000000 0.000000 0.000000 0.000000 0.055058 0.000000
# 6 0.000000 0.000000 0.000000 0.000000 0.000000 0.037846
#
#
# Mechanical properties :
#
#
# Convention : Reuss Voigt Hill
#
# Bulk Modulus (GPa) = 57.79442 57.86247 57.82845
# Shear Modulus (GPa) = 20.92756 21.68751 21.30753
#
# Velocity S-wave (km/s) = 3.34990 3.41018 3.38017
# Velocity P-wave (km/s) = 6.77887 6.82150 6.80022
#
# Compressibility (1/GPa) = 0.01730271
#
# Stress axis : x y z
#
# Youngs Moduli (GPa) = 54.43644 54.43612 68.93435
#
# Poissons Ratio (x) = 0.47536 0.28399
# Poissons Ratio (y) = 0.47536 0.28400
# Poissons Ratio (z) = 0.22427 0.22427
#
# Static dielectric constant tensor:
#      x y z
#    x 1.650380 0.000000 0.000000 
#    y 0.000000 1.650380 0.000000 
#    z 0.000000 0.000000 1.683560 
# 
# From -- ./inp_files/5929.got.cif
#   From: 2010.05.17/outbox.cif.g08.bks.cpg/sg120_3_cif.got.tgz:5929.got - 2010.05.20 11:28:13.
