data_PCOD9559029
_publ_section_title
;
Structure prediction by ZEFSAII (Michael W. Deem and Ramdas Pophale) SiO2 
 PCOD9559029
Probable space group: I -4 M 2
;
_chemical_formula_sum "Si O2"
_cell_formula_units_Z 112
_cell_length_a 14.983736
_cell_length_b 14.983736
_cell_length_c 25.405182
_cell_angle_alpha 90.000000
_cell_angle_beta 90.000000
_cell_angle_gamma 90.000000
_cell_volume 5703.776974
_symmetry_space_group_name_H-M "I -4 M 2"
_symmetry_group_IT_number 119
_symmetry_cell_setting 'tetragonal'
loop_
_space_group_symop_operation_xyz
x,y,z
y,-x,-z
-x,-y,z
-y,x,-z
y,x,-z
-y,-x,-z
-x,y,z
x,-y,z
1/2+x,1/2+y,1/2+z
1/2+y,1/2-x,1/2-z
1/2-x,1/2-y,1/2+z
1/2-y,1/2+x,1/2-z
1/2+y,1/2+x,1/2-z
1/2-y,1/2-x,1/2-z
1/2-x,1/2+y,1/2+z
1/2+x,1/2-y,1/2+z
loop_
_atom_site_type_symbol
_atom_site_label
_atom_site_fract_x
_atom_site_fract_y
_atom_site_fract_z
Si Si1 0.397315 0.668176 0.332872
Si Si2 0.098283 0.134943 0.714049
Si Si3 0.897709 0.278621 0.115449
Si Si4 0.396115 0.250294 0.495860
Si Si5 0.397284 0.802271 0.799798
Si Si6 0.343881 0.130754 0.306287
Si Si7 0.405903 0.105759 0.076761
O O1 0.500000 0.677090 0.352461
O O2 0.401538 0.618307 0.276962
O O3 0.324812 0.625981 0.371516
O O4 0.357713 0.763979 0.316035
O O5 0.194624 0.100537 0.696508
O O6 0.104084 0.241036 0.701329
O O7 0.000000 0.105017 0.694335
O O8 0.889927 0.294701 0.053326
O O9 0.838198 0.344802 0.149577
O O10 0.000000 0.292422 0.131661
O O11 0.338771 0.338771 0.500000
O O12 0.500000 0.270017 0.485587
O O13 0.359371 0.182824 0.451441
O O14 0.500000 0.833751 0.795603
O O15 0.339242 0.839242 0.750000
O O16 0.389559 0.110442 0.250000
O O17 0.380836 0.093962 0.360709
O O18 0.500000 0.142694 0.055871
O O19 0.404602 0.000000 0.066239
#
# Coordination Sequence:
#
# PCOD9559029 Si02
#       7
#    16  16  16  16  16  16  16
#     4  10  19  33  56  85 123 162 197 240 298 362
#     4  10  20  35  58  88 124 162 196 241 301 364
#     4  11  23  40  60  86 119 159 209 260 309 361
#     4  10  23  41  62  86 116 155 201 253 307 364
#     4  12  24  41  62  89 125 163 208 258 306 359
#     4  10  18  33  55  86 125 160 194 229 286 357
#     4  10  21  36  55  82 116 154 197 244 294 354
#
# _framework density 19.636111
#
# number of rings (size 3 to 8) (size 9 to 14) (size 15 to 20)
#    0.000    1.571    2.857    2.571    0.000    5.714 
#    0.000    5.000    0.000    0.000    0.000    0.000 
#    0.000    0.286    0.000    0.000    0.000    0.000 
#
# Total GULP energy -312300.555909 kJ/mol
# GULP energy per Si atom -5576.795641 kJ/mol
# Density = 1.959142 g / cm^3
# Si number density = 19.636111 Si / 1000 Ang^3
#
#
#
# Elastic Constant Matrix: (Units=GPa)
#
#
# Indices 1 2 3 4 5 6 
#
# 1 107.7184 38.0424 33.3703 0.0000 0.0000 0.0000
# 2 38.0424 107.7185 33.3703 0.0000 0.0000 0.0000
# 3 33.3703 33.3703 80.1232 0.0000 0.0000 0.0000
# 4 0.0000 0.0000 0.0000 10.4252 0.0000 0.0000
# 5 0.0000 0.0000 0.0000 0.0000 10.4253 0.0000
# 6 0.0000 0.0000 0.0000 0.0000 0.0000 1.5475
#
#
#
# Elastic Compliance Matrix: (Units=1/GPa)
#
#
# Indices 1 2 3 4 5 6 
#
# 1 0.011415 -0.002937 -0.003531 0.000000 0.000000 0.000000
# 2 -0.002937 0.011415 -0.003531 0.000000 0.000000 0.000000
# 3 -0.003531 -0.003531 0.015422 0.000000 0.000000 0.000000
# 4 0.000000 0.000000 0.000000 0.095922 0.000000 0.000000
# 5 0.000000 0.000000 0.000000 0.000000 0.095921 0.000000
# 6 0.000000 0.000000 0.000000 0.000000 0.000000 0.646205
#
#
# Mechanical properties :
#
#
# Convention : Reuss Voigt Hill
#
# Bulk Modulus (GPa) = 54.78402 56.12512 55.45457
# Shear Modulus (GPa) = 5.54090 17.19806 11.36948
#
# Velocity S-wave (km/s) = 1.68164 2.96267 2.40887
# Velocity P-wave (km/s) = 5.63301 6.35200 6.00327
#
# Compressibility (1/GPa) = 0.01825350
#
# Stress axis : x y z
#
# Youngs Moduli (GPa) = 87.60677 87.60682 64.84372
#
# Poissons Ratio (x) = 0.25734 0.22894
# Poissons Ratio (y) = 0.25734 0.22894
# Poissons Ratio (z) = 0.30931 0.30931
#
# Static dielectric constant tensor:
#      x y z
#    x 1.727320 0.000000 0.000000 
#    y 0.000000 1.727320 0.000000 
#    z 0.000000 0.000000 1.692460 
# 
# From -- ./inp_files/8817.got.cif
#   From: 2010.05.17/outbox.cif.g08.bks.cpg/sg119_5_cif.got.tgz:8817.got - 2010.05.20 11:21:29.
