data_PCOD9559228
_publ_section_title
;
Structure prediction by ZEFSAII (Michael W. Deem and Ramdas Pophale) SiO2 
 PCOD9559228
Probable space group: I -4 M 2
;
_chemical_formula_sum "Si O2"
_cell_formula_units_Z 56
_cell_length_a 12.419448
_cell_length_b 12.419448
_cell_length_c 19.675015
_cell_angle_alpha 90.000000
_cell_angle_beta 90.000000
_cell_angle_gamma 90.000000
_cell_volume 3034.727212
_symmetry_space_group_name_H-M "I -4 M 2"
_symmetry_group_IT_number 119
_symmetry_cell_setting 'tetragonal'
loop_
_space_group_symop_operation_xyz
x,y,z
y,-x,-z
-x,-y,z
-y,x,-z
y,x,-z
-y,-x,-z
-x,y,z
x,-y,z
1/2+x,1/2+y,1/2+z
1/2+y,1/2-x,1/2-z
1/2-x,1/2-y,1/2+z
1/2-y,1/2+x,1/2-z
1/2+y,1/2+x,1/2-z
1/2-y,1/2-x,1/2-z
1/2-x,1/2+y,1/2+z
1/2+x,1/2-y,1/2+z
loop_
_atom_site_type_symbol
_atom_site_label
_atom_site_fract_x
_atom_site_fract_y
_atom_site_fract_z
Si Si1 0.000000 0.630734 0.424392
Si Si2 0.000000 0.630889 0.581181
Si Si3 0.375263 0.189771 0.676974
Si Si4 0.874786 0.731513 0.868747
Si Si5 0.121104 0.878897 0.000000
O O1 0.000000 0.668103 0.502473
O O2 0.106307 0.661417 0.381757
O O3 0.000000 0.500000 0.425225
O O4 0.108851 0.661188 0.620005
O O5 0.000000 0.500000 0.578056
O O6 0.500000 0.217201 0.664363
O O7 0.366233 0.133768 0.750000
O O8 0.300792 0.294647 0.676474
O O9 0.869648 0.790180 0.942228
O O10 0.000000 0.733909 0.846753
O O11 0.000000 0.870154 0.029502
#
# Coordination Sequence:
#
# PCOD9559228 Si02
#       5
#     8   8  16  16   8
#     4   9  18  32  58  85 111 143 177 230 285 339
#     4   9  18  34  54  81 113 145 183 226 277 335
#     4  11  21  36  57  82 112 145 187 234 282 339
#     4  10  20  34  54  81 113 147 186 230 278 335
#     4   9  16  28  50  82 114 137 174 232 292 335
#
# _framework density 18.453060000000001
#
# number of rings (size 3 to 8) (size 9 to 14) (size 15 to 20)
#    0.000    2.143    1.429    2.571    0.000    6.286 
#    2.571    0.000    0.000    0.857    0.000    2.000 
#    0.000    0.000    0.000    0.000    0.000    0.000 
#
# Total GULP energy -156217.427629 kJ/mol
# GULP energy per Si atom -5579.193844 kJ/mol
# Density = 1.841106 g / cm^3
# Si number density = 18.453060 Si / 1000 Ang^3
#
#
#
# Elastic Constant Matrix: (Units=GPa)
#
#
# Indices 1 2 3 4 5 6 
#
# 1 97.5103 44.5036 17.8035 0.0000 0.0000 0.0000
# 2 44.5036 97.5120 17.8033 0.0000 0.0000 0.0000
# 3 17.8035 17.8033 28.7252 0.0000 0.0000 0.0000
# 4 0.0000 0.0000 0.0000 24.2691 0.0000 0.0000
# 5 0.0000 0.0000 0.0000 0.0000 24.2692 0.0000
# 6 0.0000 0.0000 0.0000 0.0000 0.0000 17.4776
#
#
#
# Elastic Compliance Matrix: (Units=1/GPa)
#
#
# Indices 1 2 3 4 5 6 
#
# 1 0.013601 -0.005264 -0.005167 0.000000 0.000000 0.000000
# 2 -0.005264 0.013601 -0.005167 0.000000 0.000000 0.000000
# 3 -0.005167 -0.005167 0.041218 0.000000 0.000000 0.000000
# 4 0.000000 0.000000 0.000000 0.041205 0.000000 0.000000
# 5 0.000000 0.000000 0.000000 0.000000 0.041204 0.000000
# 6 0.000000 0.000000 0.000000 0.000000 0.000000 0.057216
#
#
# Mechanical properties :
#
#
# Convention : Reuss Voigt Hill
#
# Bulk Modulus (GPa) = 26.86503 42.66315 34.76409
# Shear Modulus (GPa) = 19.86889 22.77900 21.32395
#
# Velocity S-wave (km/s) = 3.28491 3.51726 3.40307
# Velocity P-wave (km/s) = 5.38309 6.29800 5.85843
#
# Compressibility (1/GPa) = 0.03722312
#
# Stress axis : x y z
#
# Youngs Moduli (GPa) = 73.52234 73.52403 24.26143
#
# Poissons Ratio (x) = 0.38704 0.12537
# Poissons Ratio (y) = 0.38703 0.12536
# Poissons Ratio (z) = 0.37992 0.37990
#
# Static dielectric constant tensor:
#      x y z
#    x 1.641980 0.000000 0.000000 
#    y 0.000000 1.641980 0.000000 
#    z 0.000000 0.000000 1.634220 
# 
# From -- ./inp_files/7279.got.cif
#   From: 2010.05.17/outbox.cif.g08.bks.cpg/sg119_4_cif.got.tgz:7279.got - 2010.05.20 11:21:29.
