data_PCOD9559689
_publ_section_title
;
Structure prediction by ZEFSAII (Michael W. Deem and Ramdas Pophale) SiO2 
 PCOD9559689
Probable space group: I -4 C 2
;
_chemical_formula_sum "Si O2"
_cell_formula_units_Z 96
_cell_length_a 15.858161
_cell_length_b 15.858161
_cell_length_c 18.318748
_cell_angle_alpha 90.000000
_cell_angle_beta 90.000000
_cell_angle_gamma 90.000000
_cell_volume 4606.822017
_symmetry_space_group_name_H-M "I -4 C 2"
_symmetry_group_IT_number 120
_symmetry_cell_setting 'tetragonal'
loop_
_space_group_symop_operation_xyz
x,y,z
y,-x,-z
-x,-y,z
-y,x,-z
y,x,1/2-z
-y,-x,1/2-z
-x,y,1/2+z
x,-y,1/2+z
1/2+x,1/2+y,1/2+z
1/2+y,1/2-x,1/2-z
1/2-x,1/2-y,1/2+z
1/2-y,1/2+x,1/2-z
1/2+y,1/2+x,-z
1/2-y,1/2-x,-z
1/2-x,1/2+y,z
1/2+x,1/2-y,z
loop_
_atom_site_type_symbol
_atom_site_label
_atom_site_fract_x
_atom_site_fract_y
_atom_site_fract_z
Si Si1 0.423911 0.302764 0.787527
Si Si2 0.478018 0.870200 0.219546
Si Si3 0.786513 0.256039 0.890411
Si Si4 0.610852 0.300065 0.534571
Si Si5 0.028277 0.800964 0.426513
Si Si6 0.360562 0.876194 0.086803
O O1 0.385409 0.385409 0.750000
O O2 0.470897 0.228881 0.741917
O O3 0.341937 0.256036 0.820096
O O4 0.475913 0.333508 0.857986
O O5 0.569132 0.912515 0.234817
O O6 0.442784 0.879501 0.136827
O O7 0.763406 0.353202 0.905316
O O8 0.704683 0.195930 0.889717
O O9 0.838167 0.223778 0.960847
O O10 0.642900 0.389747 0.561960
O O11 0.516862 0.299264 0.505365
O O12 0.047147 0.704531 0.403433
O O13 0.373963 0.873963 0.000000
#
# Coordination Sequence:
#
# PCOD9559689 Si02
#       6
#    16  16  16  16  16  16
#     4  11  21  35  60  88 120 168 216 248 303 388
#     4  11  24  41  59  87 131 168 201 265 334 381
#     4   9  17  33  56  85 115 155 205 254 292 368
#     4   9  18  34  56  86 122 149 206 258 310 363
#     4  10  20  35  59  91 116 163 206 260 317 374
#     4  11  19  37  64  89 119 158 208 259 319 374
#
# _framework density 20.838660000000001
#
# number of rings (size 3 to 8) (size 9 to 14) (size 15 to 20)
#    0.000    1.833    6.667    0.000    0.000    1.667 
#    0.000    1.667    0.000    0.000    0.000    0.000 
#    0.000    0.000    0.000    0.000    0.000    0.000 
#
# Total GULP energy -267531.362101 kJ/mol
# GULP energy per Si atom -5573.570044 kJ/mol
# Density = 2.079123 g / cm^3
# Si number density = 20.838660 Si / 1000 Ang^3
#
#
#
# Elastic Constant Matrix: (Units=GPa)
#
#
# Indices 1 2 3 4 5 6 
#
# 1 30.1044 -6.9045 3.1798 0.0000 0.0000 0.0000
# 2 -6.9045 30.1044 3.1798 0.0000 0.0000 0.0000
# 3 3.1798 3.1798 52.5715 0.0000 0.0000 0.0000
# 4 0.0000 0.0000 0.0000 22.7432 0.0000 0.0000
# 5 0.0000 0.0000 0.0000 0.0000 22.7432 0.0000
# 6 0.0000 0.0000 0.0000 0.0000 0.0000 14.5936
#
#
#
# Elastic Compliance Matrix: (Units=1/GPa)
#
#
# Indices 1 2 3 4 5 6 
#
# 1 0.035425 0.008405 -0.002651 0.000000 0.000000 0.000000
# 2 0.008405 0.035425 -0.002651 0.000000 0.000000 0.000000
# 3 -0.002651 -0.002651 0.019342 0.000000 0.000000 0.000000
# 4 0.000000 0.000000 0.000000 0.043969 0.000000 0.000000
# 5 0.000000 0.000000 0.000000 0.000000 0.043969 0.000000
# 6 0.000000 0.000000 0.000000 0.000000 0.000000 0.068523
#
#
# Mechanical properties :
#
#
# Convention : Reuss Voigt Hill
#
# Bulk Modulus (GPa) = 10.37359 12.41007 11.39183
# Shear Modulus (GPa) = 18.34309 19.57102 18.95705
#
# Velocity S-wave (km/s) = 2.97011 3.06791 3.01941
# Velocity P-wave (km/s) = 4.09279 4.30322 4.19932
#
# Compressibility (1/GPa) = 0.09639867
#
# Stress axis : x y z
#
# Youngs Moduli (GPa) = 28.22833 28.22832 51.69978
#
# Poissons Ratio (x) = -0.23726 0.13706
# Poissons Ratio (y) = -0.23726 0.13706
# Poissons Ratio (z) = 0.07484 0.07484
#
# Static dielectric constant tensor:
#      x y z
#    x 1.781970 0.000000 0.000000 
#    y 0.000000 1.781970 0.000000 
#    z 0.000000 0.000000 1.781880 
# 
# From -- ./inp_files/4460.got.cif
#   From: 2010.05.17/outbox.cif.g08.bks.cpg/sg120_3_cif.got.tgz:4460.got - 2010.05.20 11:28:13.
