data_PCOD9559103
_publ_section_title
;
Structure prediction by ZEFSAII (Michael W. Deem and Ramdas Pophale) SiO2 
 PCOD9559103
Probable space group: I -4 M 2
;
_chemical_formula_sum "Si O2"
_cell_formula_units_Z 104
_cell_length_a 18.333982
_cell_length_b 18.333982
_cell_length_c 16.610242
_cell_angle_alpha 90.000000
_cell_angle_beta 90.000000
_cell_angle_gamma 90.000000
_cell_volume 5583.281967
_symmetry_space_group_name_H-M "I -4 M 2"
_symmetry_group_IT_number 119
_symmetry_cell_setting 'tetragonal'
loop_
_space_group_symop_operation_xyz
x,y,z
y,-x,-z
-x,-y,z
-y,x,-z
y,x,-z
-y,-x,-z
-x,y,z
x,-y,z
1/2+x,1/2+y,1/2+z
1/2+y,1/2-x,1/2-z
1/2-x,1/2-y,1/2+z
1/2-y,1/2+x,1/2-z
1/2+y,1/2+x,1/2-z
1/2-y,1/2-x,1/2-z
1/2-x,1/2+y,1/2+z
1/2+x,1/2-y,1/2+z
loop_
_atom_site_type_symbol
_atom_site_label
_atom_site_fract_x
_atom_site_fract_y
_atom_site_fract_z
Si Si1 0.915922 0.287735 0.084367
Si Si2 0.715686 0.715686 0.500000
Si Si3 0.915266 0.798285 0.742379
Si Si4 0.301647 0.914563 0.590470
Si Si5 0.143993 0.417572 0.670315
Si Si6 0.583522 0.293595 0.753190
Si Si7 0.362693 0.226761 0.079772
O O1 0.865024 0.234196 0.030622
O O2 0.873101 0.364142 0.085967
O O3 0.915174 0.257370 0.174997
O O4 0.000000 0.291878 0.057173
O O5 0.775408 0.733749 0.569085
O O6 0.904353 0.726911 0.798494
O O7 0.860351 0.862636 0.762670
O O8 0.895397 0.773603 0.651636
O O9 0.000000 0.818641 0.747592
O O10 0.252587 0.894914 0.667801
O O11 0.259637 0.898141 0.506922
O O12 0.318991 0.000000 0.596021
O O13 0.137161 0.500000 0.641751
O O14 0.095667 0.404334 0.750000
O O15 0.123668 0.357141 0.605432
O O16 0.500000 0.318568 0.765533
#
# Coordination Sequence:
#
# PCOD9559103 Si02
#       7
#    16   8  16  16  16  16  16
#     4  10  21  37  57  81 109 141 179 222 267 320
#     4  10  20  34  56  81 106 139 178 218 264 320
#     4  10  19  33  54  78 105 135 173 222 269 317
#     4  10  21  36  55  80 108 139 177 221 270 322
#     4   9  19  33  50  75 104 136 171 208 257 318
#     4  10  21  37  55  75 103 140 179 218 263 316
#     4  10  19  32  53  78 105 137 175 216 261 315
#
# _framework density 18.627037999999999
#
# number of rings (size 3 to 8) (size 9 to 14) (size 15 to 20)
#    0.000    2.154    0.000    3.692    0.000    6.308 
#    0.000    0.769    0.000    3.923    0.000    2.154 
#    0.000    0.000    0.000    0.000    0.000    0.000 
#
# Total GULP energy -290275.990848 kJ/mol
# GULP energy per Si atom -5582.230593 kJ/mol
# Density = 1.858464 g / cm^3
# Si number density = 18.627038 Si / 1000 Ang^3
#
#
#
# Elastic Constant Matrix: (Units=GPa)
#
#
# Indices 1 2 3 4 5 6 
#
# 1 66.7074 20.4248 -3.4558 0.0000 0.0000 0.0000
# 2 20.4248 66.7071 -3.4551 0.0000 0.0000 0.0000
# 3 -3.4558 -3.4551 48.5768 0.0000 0.0000 0.0000
# 4 0.0000 0.0000 0.0000 19.8817 0.0000 0.0000
# 5 0.0000 0.0000 0.0000 0.0000 19.8819 0.0000
# 6 0.0000 0.0000 0.0000 0.0000 0.0000 19.9664
#
#
#
# Elastic Compliance Matrix: (Units=1/GPa)
#
#
# Indices 1 2 3 4 5 6 
#
# 1 0.016574 -0.005032 0.000821 0.000000 0.000000 0.000000
# 2 -0.005032 0.016574 0.000821 0.000000 0.000000 0.000000
# 3 0.000821 0.000821 0.020703 0.000000 0.000000 0.000000
# 4 0.000000 0.000000 0.000000 0.050297 0.000000 0.000000
# 5 0.000000 0.000000 0.000000 0.000000 0.050297 0.000000
# 6 0.000000 0.000000 0.000000 0.000000 0.000000 0.050084
#
#
# Mechanical properties :
#
#
# Convention : Reuss Voigt Hill
#
# Bulk Modulus (GPa) = 21.24461 23.22434 22.23447
# Shear Modulus (GPa) = 22.02640 23.17785 22.60213
#
# Velocity S-wave (km/s) = 3.44248 3.53131 3.48717
# Velocity P-wave (km/s) = 5.21832 5.39648 5.30815
#
# Compressibility (1/GPa) = 0.04707076
#
# Stress axis : x y z
#
# Youngs Moduli (GPa) = 60.33482 60.33463 48.30277
#
# Poissons Ratio (x) = 0.30362 -0.03967
# Poissons Ratio (y) = 0.30362 -0.03965
# Poissons Ratio (z) = -0.04955 -0.04953
#
# Static dielectric constant tensor:
#      x y z
#    x 1.642730 0.000000 0.000000 
#    y 0.000000 1.642730 0.000000 
#    z 0.000000 0.000000 1.666330 
# 
# From -- ./inp_files/6726.got.cif
#   From: 2010.05.17/outbox.cif.g08.bks.cpg/sg119_4_cif.got.tgz:6726.got - 2010.05.20 11:21:29.
