data_PCOD9559655
_publ_section_title
;
Structure prediction by ZEFSAII (Michael W. Deem and Ramdas Pophale) SiO2 
 PCOD9559655
Probable space group: I -4 C 2
;
_chemical_formula_sum "Si O2"
_cell_formula_units_Z 96
_cell_length_a 21.421866
_cell_length_b 21.421866
_cell_length_c 8.997149
_cell_angle_alpha 90.000000
_cell_angle_beta 90.000000
_cell_angle_gamma 90.000000
_cell_volume 4128.758773
_symmetry_space_group_name_H-M "I -4 C 2"
_symmetry_group_IT_number 120
_symmetry_cell_setting 'tetragonal'
loop_
_space_group_symop_operation_xyz
x,y,z
y,-x,-z
-x,-y,z
-y,x,-z
y,x,1/2-z
-y,-x,1/2-z
-x,y,1/2+z
x,-y,1/2+z
1/2+x,1/2+y,1/2+z
1/2+y,1/2-x,1/2-z
1/2-x,1/2-y,1/2+z
1/2-y,1/2+x,1/2-z
1/2+y,1/2+x,-z
1/2-y,1/2-x,-z
1/2-x,1/2+y,z
1/2+x,1/2-y,z
loop_
_atom_site_type_symbol
_atom_site_label
_atom_site_fract_x
_atom_site_fract_y
_atom_site_fract_z
Si Si1 0.195387 0.008922 0.399128
Si Si2 0.750801 0.612952 0.516364
Si Si3 0.082112 0.629589 0.155705
Si Si4 0.928184 0.844296 0.847558
Si Si5 0.556107 0.820818 0.697235
Si Si6 0.192302 0.234329 0.903148
O O1 0.145321 0.050867 0.483389
O O2 0.263097 0.042725 0.413765
O O3 0.202584 0.939425 0.464330
O O4 0.179930 0.990939 0.231492
O O5 0.806151 0.614357 0.395017
O O6 0.783655 0.586572 0.663227
O O7 0.718264 0.679547 0.511991
O O8 0.118638 0.600257 0.294911
O O9 0.012525 0.647919 0.203578
O O10 0.088332 0.588332 0.000000
O O11 0.899578 0.899578 0.750000
O O12 0.875506 0.790321 0.855068
O O13 0.231294 0.231294 0.750000
O O14 0.203450 0.296550 0.000000
#
# Coordination Sequence:
#
# PCOD9559655 Si02
#       6
#    16  16  16  16  16  16
#     4  11  21  42  69  96 138 182 233 283 358 438
#     4  10  19  40  65  94 141 187 224 284 357 432
#     4   9  20  36  59  90 136 189 243 295 341 399
#     4  11  24  45  70 103 136 182 232 293 356 427
#     4  10  20  37  64  94 130 194 238 289 345 407
#     4  11  23  40  66 106 153 182 231 302 362 427
#
# _framework density 23.251539000000001
#
# number of rings (size 3 to 8) (size 9 to 14) (size 15 to 20)
#    0.000    1.667    5.000    1.500    0.000    3.000 
#    0.000   12.500    0.000    1.500    0.000    0.000 
#    0.000    0.000    0.000    0.000    0.000    0.000 
#
# Total GULP energy -267371.582142 kJ/mol
# GULP energy per Si atom -5570.241295 kJ/mol
# Density = 2.319862 g / cm^3
# Si number density = 23.251539 Si / 1000 Ang^3
#
#
#
# Elastic Constant Matrix: (Units=GPa)
#
#
# Indices 1 2 3 4 5 6 
#
# 1 49.9829 55.3809 35.5017 0.0000 0.0000 0.0000
# 2 55.3809 49.9823 35.5008 0.0000 0.0000 0.0000
# 3 35.5017 35.5008 64.4817 0.0000 0.0000 0.0000
# 4 0.0000 0.0000 0.0000 38.9813 0.0000 0.0000
# 5 0.0000 0.0000 0.0000 0.0000 38.9816 0.0000
# 6 0.0000 0.0000 0.0000 0.0000 0.0000 37.8529
#
#
#
# Elastic Compliance Matrix: (Units=1/GPa)
#
#
# Indices 1 2 3 4 5 6 
#
# 1 -0.085078 0.100167 -0.008306 0.000000 0.000000 0.000000
# 2 0.100167 -0.085077 -0.008309 0.000000 0.000000 0.000000
# 3 -0.008306 -0.008309 0.024656 0.000000 0.000000 0.000000
# 4 0.000000 0.000000 0.000000 0.025653 0.000000 0.000000
# 5 0.000000 0.000000 0.000000 0.000000 0.025653 0.000000
# 6 0.000000 0.000000 0.000000 0.000000 0.000000 0.026418
#
#
# Mechanical properties :
#
#
# Convention : Reuss Voigt Hill
#
# Bulk Modulus (GPa) = 46.28741 46.35709 46.32225
# Shear Modulus (GPa) = -21.96101 25.70075 1.86987
#
# Velocity S-wave (km/s) = -3.07660 3.32827 0.89774
# Velocity P-wave (km/s) = 2.70737 5.89494 4.58694
#
# Compressibility (1/GPa) = 0.02160415
#
# Stress axis : x y z
#
# Youngs Moduli (GPa) = -11.75391 -11.75408 40.55809
#
# Poissons Ratio (x) = 1.17737 0.33687
# Poissons Ratio (y) = 1.17735 0.33701
# Poissons Ratio (z) = -0.09763 -0.09767
#
# Static dielectric constant tensor:
#      x y z
#    x 1.920990 0.000000 0.000000 
#    y 0.000000 1.920990 0.000000 
#    z 0.000000 0.000000 1.986050 
# 
# From -- ./inp_files/1526.got.cif
#   From: 2010.05.17/outbox.cif.g08.bks.cpg/sg120_1_cif.got.tgz:1526.got - 2010.05.20 11:28:13.
