data_PCOD9559567
_publ_section_title
;
Structure prediction by ZEFSAII (Michael W. Deem and Ramdas Pophale) SiO2 
 PCOD9559567
Probable space group: I -4 C 2
;
_chemical_formula_sum "Si O2"
_cell_formula_units_Z 112
_cell_length_a 13.346812
_cell_length_b 13.346812
_cell_length_c 28.991634
_cell_angle_alpha 90.000000
_cell_angle_beta 90.000000
_cell_angle_gamma 90.000000
_cell_volume 5164.494029
_symmetry_space_group_name_H-M "I -4 C 2"
_symmetry_group_IT_number 120
_symmetry_cell_setting 'tetragonal'
loop_
_space_group_symop_operation_xyz
x,y,z
y,-x,-z
-x,-y,z
-y,x,-z
y,x,1/2-z
-y,-x,1/2-z
-x,y,1/2+z
x,-y,1/2+z
1/2+x,1/2+y,1/2+z
1/2+y,1/2-x,1/2-z
1/2-x,1/2-y,1/2+z
1/2-y,1/2+x,1/2-z
1/2+y,1/2+x,-z
1/2-y,1/2-x,-z
1/2-x,1/2+y,z
1/2+x,1/2-y,z
loop_
_atom_site_type_symbol
_atom_site_label
_atom_site_fract_x
_atom_site_fract_y
_atom_site_fract_z
Si Si1 0.248449 0.804296 0.376040
Si Si2 0.001478 0.315687 0.090155
Si Si3 0.615909 0.812853 0.451045
Si Si4 0.167815 0.922807 0.296102
Si Si5 0.332493 0.497815 0.995832
Si Si6 0.098399 0.621034 0.249186
Si Si7 0.381198 0.727411 0.177350
O O1 0.187604 0.747650 0.416266
O O2 0.164549 0.858254 0.343006
O O3 0.305027 0.722476 0.344835
O O4 0.324635 0.886201 0.396079
O O5 0.075043 0.398581 0.068649
O O6 0.000382 0.225943 0.052494
O O7 0.057785 0.280640 0.136280
O O8 0.671961 0.828040 0.500000
O O9 0.518360 0.749143 0.463948
O O10 0.115205 0.884796 0.250000
O O11 0.286700 0.913484 0.284758
O O12 0.146296 0.040149 0.304230
O O13 0.401696 0.594334 0.002192
O O14 0.114838 0.511489 0.226999
O O15 0.190063 0.640650 0.283480
#
# Coordination Sequence:
#
# PCOD9559567 Si02
#       7
#    16  16  16  16  16  16  16
#     4  10  17  32  53  79 113 150 208 263 314 400
#     4   9  18  31  53  81 110 155 199 260 326 396
#     4   9  18  32  53  79 113 154 204 259 328 387
#     4  10  18  30  53  82 114 159 205 251 322 387
#     4  10  18  31  55  83 113 153 210 270 327 406
#     4   9  17  31  52  78 106 143 201 255 301 374
#     4   9  18  30  53  80 112 151 201 257 323 384
#
# _framework density 21.686540000000001
#
# number of rings (size 3 to 8) (size 9 to 14) (size 15 to 20)
#    0.000    2.571    2.857    0.000    0.000    0.000 
#    0.000    0.000   18.857    1.714    0.000    4.000 
#    0.000    0.000    0.000    0.000    0.000    0.000 
#
# Total GULP energy -312123.742512 kJ/mol
# GULP energy per Si atom -5573.638259 kJ/mol
# Density = 2.163718 g / cm^3
# Si number density = 21.686540 Si / 1000 Ang^3
#
#
#
# Elastic Constant Matrix: (Units=GPa)
#
#
# Indices 1 2 3 4 5 6 
#
# 1 81.5498 20.9799 30.3645 0.0000 0.0000 0.0000
# 2 20.9799 81.5505 30.3645 0.0000 0.0000 0.0000
# 3 30.3645 30.3645 87.2398 0.0000 0.0000 0.0000
# 4 0.0000 0.0000 0.0000 15.1614 0.0000 0.0000
# 5 0.0000 0.0000 0.0000 0.0000 15.1616 0.0000
# 6 0.0000 0.0000 0.0000 0.0000 0.0000 3.2217
#
#
#
# Elastic Compliance Matrix: (Units=1/GPa)
#
#
# Indices 1 2 3 4 5 6 
#
# 1 0.014398 -0.002112 -0.004276 0.000000 0.000000 0.000000
# 2 -0.002112 0.014398 -0.004276 0.000000 0.000000 0.000000
# 3 -0.004276 -0.004276 0.014439 0.000000 0.000000 0.000000
# 4 0.000000 0.000000 0.000000 0.065957 0.000000 0.000000
# 5 0.000000 0.000000 0.000000 0.000000 0.065956 0.000000
# 6 0.000000 0.000000 0.000000 0.000000 0.000000 0.310397
#
#
# Mechanical properties :
#
#
# Convention : Reuss Voigt Hill
#
# Bulk Modulus (GPa) = 45.64847 45.97310 45.81078
# Shear Modulus (GPa) = 9.72429 17.95101 13.83765
#
# Velocity S-wave (km/s) = 2.11985 2.88018 2.52876
# Velocity P-wave (km/s) = 5.20448 5.68380 5.44941
#
# Compressibility (1/GPa) = 0.02190654
#
# Stress axis : x y z
#
# Youngs Moduli (GPa) = 69.45413 69.45474 69.25477
#
# Poissons Ratio (x) = 0.14668 0.29615
# Poissons Ratio (y) = 0.14668 0.29615
# Poissons Ratio (z) = 0.29701 0.29701
#
# Static dielectric constant tensor:
#      x y z
#    x 1.833100 0.000000 0.000000 
#    y 0.000000 1.833100 0.000000 
#    z 0.000000 0.000000 1.793730 
# 
# From -- ./inp_files/6688.got.cif
#   From: 2010.05.17/outbox.cif.g08.bks.cpg/sg120_4_cif.got.tgz:6688.got - 2010.05.20 11:28:13.
