data_PCOD9559040
_publ_section_title
;
Structure prediction by ZEFSAII (Michael W. Deem and Ramdas Pophale) SiO2 
 PCOD9559040
Probable space group: I -4 M 2
;
_chemical_formula_sum "Si O2"
_cell_formula_units_Z 96
_cell_length_a 23.646288
_cell_length_b 23.646288
_cell_length_c 7.230843
_cell_angle_alpha 90.000000
_cell_angle_beta 90.000000
_cell_angle_gamma 90.000000
_cell_volume 4043.103709
_symmetry_space_group_name_H-M "I -4 M 2"
_symmetry_group_IT_number 119
_symmetry_cell_setting 'tetragonal'
loop_
_space_group_symop_operation_xyz
x,y,z
y,-x,-z
-x,-y,z
-y,x,-z
y,x,-z
-y,-x,-z
-x,y,z
x,-y,z
1/2+x,1/2+y,1/2+z
1/2+y,1/2-x,1/2-z
1/2-x,1/2-y,1/2+z
1/2-y,1/2+x,1/2-z
1/2+y,1/2+x,1/2-z
1/2-y,1/2-x,1/2-z
1/2-x,1/2+y,1/2+z
1/2+x,1/2-y,1/2+z
loop_
_atom_site_type_symbol
_atom_site_label
_atom_site_fract_x
_atom_site_fract_y
_atom_site_fract_z
Si Si1 0.434478 0.366140 0.237096
Si Si2 0.892220 0.252883 0.613771
Si Si3 0.433044 0.149640 0.365623
Si Si4 0.298184 0.937622 0.749924
Si Si5 0.171043 0.917284 0.833139
Si Si6 0.785324 0.204315 0.783065
O O1 0.500000 0.381032 0.212521
O O2 0.419898 0.310053 0.115040
O O3 0.424850 0.343852 0.449925
O O4 0.390241 0.419184 0.229378
O O5 0.922342 0.289631 0.770853
O O6 0.900292 0.289950 0.431269
O O7 0.826763 0.244607 0.667532
O O8 0.500000 0.135770 0.357639
O O9 0.395126 0.104875 0.250000
O O10 0.417955 0.162451 0.580900
O O11 0.232551 0.944914 0.813939
O O12 0.318801 0.000000 0.692101
O O13 0.189947 0.856600 0.752239
O O14 0.721369 0.221369 0.750000
O O15 0.791145 0.208856 0.000000
#
# Coordination Sequence:
#
# PCOD9559040 Si02
#       6
#    16  16  16  16  16  16
#     4  10  18  35  62  87 126 175 221 274 327 396
#     4  11  22  40  64  93 130 177 225 272 337 408
#     4  11  24  44  68  97 134 171 226 288 347 421
#     4  11  23  40  67  97 127 173 228 284 343 416
#     4  10  20  37  57  91 128 169 223 273 336 404
#     4  11  22  37  56  91 135 179 219 270 338 414
#
# _framework density 23.744136000000001
#
# number of rings (size 3 to 8) (size 9 to 14) (size 15 to 20)
#    0.000    1.333    5.000    2.500    2.333    2.833 
#    0.000    0.000    0.000    8.500    0.000    2.333 
#    0.000   21.333    0.000    0.000    0.000    0.000 
#
# Total GULP energy -267500.004950 kJ/mol
# GULP energy per Si atom -5572.916770 kJ/mol
# Density = 2.369009 g / cm^3
# Si number density = 23.744136 Si / 1000 Ang^3
#
#
#
# Elastic Constant Matrix: (Units=GPa)
#
#
# Indices 1 2 3 4 5 6 
#
# 1 95.0044 40.1704 39.4446 0.0000 0.0000 0.0000
# 2 40.1704 95.0057 39.4445 0.0000 0.0000 0.0000
# 3 39.4446 39.4445 127.9758 0.0000 0.0000 0.0000
# 4 0.0000 0.0000 0.0000 -21.2394 0.0000 0.0000
# 5 0.0000 0.0000 0.0000 0.0000 -21.2215 0.0000
# 6 0.0000 0.0000 0.0000 0.0000 0.0000 -17.7201
#
#
#
# Elastic Compliance Matrix: (Units=1/GPa)
#
#
# Indices 1 2 3 4 5 6 
#
# 1 0.013629 -0.004608 -0.002780 0.000000 0.000000 0.000000
# 2 -0.004608 0.013628 -0.002780 0.000000 0.000000 0.000000
# 3 -0.002780 -0.002780 0.009528 0.000000 0.000000 0.000000
# 4 0.000000 0.000000 0.000000 -0.047082 0.000000 0.000000
# 5 0.000000 0.000000 0.000000 0.000000 -0.047122 0.000000
# 6 0.000000 0.000000 0.000000 0.000000 0.000000 -0.056433
#
#
# Mechanical properties :
#
#
# Convention : Reuss Voigt Hill
#
# Bulk Modulus (GPa) = 60.79929 61.78945 61.29437
# Shear Modulus (GPa) = -56.79710 1.22554 -27.78578
#
# Velocity S-wave (km/s) = -4.89616 0.71921 -3.42455
# Velocity P-wave (km/s) = 2.51030 5.17390 3.19903
#
# Compressibility (1/GPa) = 0.01644756
#
# Stress axis : x y z
#
# Youngs Moduli (GPa) = 73.37499 73.37615 104.95579
#
# Poissons Ratio (x) = 0.33813 0.29181
# Poissons Ratio (y) = 0.33812 0.29180
# Poissons Ratio (z) = 0.20400 0.20400
#
# Static dielectric constant tensor:
#      x y z
#    x 2.059920 0.000000 0.000000 
#    y 0.000000 2.059930 0.000000 
#    z 0.000000 0.000000 1.965370 
# 
# From -- ./inp_files/2709.got.cif
#   From: 2010.05.17/outbox.cif.g08.bks.cpg/sg119_2_cif.got.tgz:2709.got - 2010.05.20 11:21:29.
