data_PCOD9559724
_publ_section_title
;
Structure prediction by ZEFSAII (Michael W. Deem and Ramdas Pophale) SiO2 
 PCOD9559724
Probable space group: I -4 C 2
;
_chemical_formula_sum "Si O2"
_cell_formula_units_Z 108
_cell_length_a 14.801204
_cell_length_b 14.801204
_cell_length_c 22.220463
_cell_angle_alpha 90.000000
_cell_angle_beta 90.000000
_cell_angle_gamma 90.000000
_cell_volume 4867.962149
_symmetry_space_group_name_H-M "I -4 C 2"
_symmetry_group_IT_number 120
_symmetry_cell_setting 'tetragonal'
loop_
_space_group_symop_operation_xyz
x,y,z
y,-x,-z
-x,-y,z
-y,x,-z
y,x,1/2-z
-y,-x,1/2-z
-x,y,1/2+z
x,-y,1/2+z
1/2+x,1/2+y,1/2+z
1/2+y,1/2-x,1/2-z
1/2-x,1/2-y,1/2+z
1/2-y,1/2+x,1/2-z
1/2+y,1/2+x,-z
1/2-y,1/2-x,-z
1/2-x,1/2+y,z
1/2+x,1/2-y,z
loop_
_atom_site_type_symbol
_atom_site_label
_atom_site_fract_x
_atom_site_fract_y
_atom_site_fract_z
Si Si1 0.500000 0.500000 0.857450
Si Si2 0.490995 0.164377 0.843036
Si Si3 0.899952 0.833887 0.689973
Si Si4 0.278982 0.582847 0.264809
Si Si5 0.000000 0.500000 0.250000
Si Si6 0.197591 0.717792 0.363705
Si Si7 0.383962 0.536984 0.035313
Si Si8 0.359331 0.782956 0.438621
O O1 0.433458 0.563372 0.822009
O O2 0.555346 0.564833 0.902315
O O3 0.445689 0.239753 0.799716
O O4 0.505912 0.083999 0.795434
O O5 0.590831 0.190073 0.869625
O O6 0.410557 0.150528 0.891648
O O7 0.841246 0.841246 0.750000
O O8 0.826817 0.803642 0.642663
O O9 0.989655 0.776078 0.698048
O O10 0.378048 0.621953 0.250000
O O11 0.230964 0.660121 0.305192
O O12 0.279931 0.716135 0.412231
O O13 0.282111 0.558739 0.042929
O O14 0.434597 0.595545 0.984514
O O15 0.326433 0.826433 0.500000
#
# Coordination Sequence:
#
# PCOD9559724 Si02
#       8
#     8  16  16  16   4  16  16  16
#     4  10  20  38  66 100 136 172 220 298 364 444
#     4  12  27  49  76 107 153 194 263 317 390 469
#     4  12  24  36  67 107 143 183 231 294 386 443
#     4  12  24  43  69 112 150 183 238 310 386 461
#     4  12  28  52  78 108 148 224 252 322 404 456
#     4  12  27  47  73 107 150 197 246 316 383 463
#     4   9  22  45  72  98 135 182 241 303 370 432
#     4  12  29  48  72 109 149 200 260 312 377 465
#
# _framework density 22.185877000000001
#
# number of rings (size 3 to 8) (size 9 to 14) (size 15 to 20)
#    0.000    0.741    4.444    3.333    8.296    0.000 
#    2.667    0.370    0.000    0.000    0.000    0.000 
#    0.000    0.000    0.000    0.000    0.000    0.000 
#
# Total GULP energy -301157.221402 kJ/mol
# GULP energy per Si atom -5576.985582 kJ/mol
# Density = 2.213538 g / cm^3
# Si number density = 22.185877 Si / 1000 Ang^3
#
#
#
# Elastic Constant Matrix: (Units=GPa)
#
#
# Indices 1 2 3 4 5 6 
#
# 1 98.0961 2.5175 25.3277 0.0000 0.0000 0.0000
# 2 2.5175 98.0979 25.3278 0.0000 0.0000 0.0000
# 3 25.3277 25.3278 76.2960 0.0000 0.0000 0.0000
# 4 0.0000 0.0000 0.0000 22.0281 0.0000 0.0000
# 5 0.0000 0.0000 0.0000 0.0000 22.0280 0.0000
# 6 0.0000 0.0000 0.0000 0.0000 0.0000 30.3109
#
#
#
# Elastic Compliance Matrix: (Units=1/GPa)
#
#
# Indices 1 2 3 4 5 6 
#
# 1 0.011198 0.000735 -0.003962 0.000000 0.000000 0.000000
# 2 0.000735 0.011198 -0.003961 0.000000 0.000000 0.000000
# 3 -0.003962 -0.003961 0.015737 0.000000 0.000000 0.000000
# 4 0.000000 0.000000 0.000000 0.045397 0.000000 0.000000
# 5 0.000000 0.000000 0.000000 0.000000 0.045397 0.000000
# 6 0.000000 0.000000 0.000000 0.000000 0.000000 0.032991
#
#
# Mechanical properties :
#
#
# Convention : Reuss Voigt Hill
#
# Bulk Modulus (GPa) = 42.09141 42.09290 42.09216
# Shear Modulus (GPa) = 27.14265 29.49454 28.31859
#
# Velocity S-wave (km/s) = 3.50154 3.65009 3.57658
# Velocity P-wave (km/s) = 5.94651 6.06450 6.00580
#
# Compressibility (1/GPa) = 0.02375782
#
# Stress axis : x y z
#
# Youngs Moduli (GPa) = 89.30123 89.30298 63.54443
#
# Poissons Ratio (x) = -0.06568 0.25173
# Poissons Ratio (y) = -0.06568 0.25173
# Poissons Ratio (z) = 0.35377 0.35377
#
# Static dielectric constant tensor:
#      x y z
#    x 1.814860 0.000000 0.000000 
#    y 0.000000 1.814850 0.000000 
#    z 0.000000 0.000000 1.693430 
# 
# From -- ./inp_files/5962.got.cif
#   From: 2010.05.17/outbox.cif.g08.bks.cpg/sg120_3_cif.got.tgz:5962.got - 2010.05.20 11:28:13.
