data_PCOD9559731
_publ_section_title
;
Structure prediction by ZEFSAII (Michael W. Deem and Ramdas Pophale) SiO2 
 PCOD9559731
Probable space group: I -4 C 2
;
_chemical_formula_sum "Si O2"
_cell_formula_units_Z 112
_cell_length_a 15.055935
_cell_length_b 15.055935
_cell_length_c 25.799899
_cell_angle_alpha 90.000000
_cell_angle_beta 90.000000
_cell_angle_gamma 90.000000
_cell_volume 5848.351516
_symmetry_space_group_name_H-M "I -4 C 2"
_symmetry_group_IT_number 120
_symmetry_cell_setting 'tetragonal'
loop_
_space_group_symop_operation_xyz
x,y,z
y,-x,-z
-x,-y,z
-y,x,-z
y,x,1/2-z
-y,-x,1/2-z
-x,y,1/2+z
x,-y,1/2+z
1/2+x,1/2+y,1/2+z
1/2+y,1/2-x,1/2-z
1/2-x,1/2-y,1/2+z
1/2-y,1/2+x,1/2-z
1/2+y,1/2+x,-z
1/2-y,1/2-x,-z
1/2-x,1/2+y,z
1/2+x,1/2-y,z
loop_
_atom_site_type_symbol
_atom_site_label
_atom_site_fract_x
_atom_site_fract_y
_atom_site_fract_z
Si Si1 0.526898 0.277886 0.581678
Si Si2 0.375103 0.296281 0.299160
Si Si3 0.313049 0.176236 0.853987
Si Si4 0.848610 0.147911 0.580509
Si Si5 0.767094 0.408053 0.506618
Si Si6 0.085375 0.612530 0.243307
Si Si7 0.851884 0.053070 0.096459
O O1 0.590442 0.211523 0.611767
O O2 0.429860 0.297037 0.606794
O O3 0.499920 0.242675 0.524869
O O4 0.576374 0.372526 0.581513
O O5 0.361051 0.361051 0.250000
O O6 0.279487 0.294119 0.327393
O O7 0.398890 0.199263 0.278156
O O8 0.441832 0.333560 0.342327
O O9 0.345832 0.256915 0.889109
O O10 0.377146 0.145204 0.807975
O O11 0.846500 0.195232 0.524317
O O12 0.876047 0.045280 0.578273
O O13 0.860993 0.360993 0.500000
O O14 0.736875 0.419424 0.565222
O O15 0.108582 0.519251 0.270091
#
# Coordination Sequence:
#
# PCOD9559731 Si02
#       7
#    16  16  16  16  16  16  16
#     4   9  22  35  58  85 123 153 203 248 306 379
#     4   9  20  36  58  81 116 158 200 250 306 370
#     4  10  20  39  59  85 119 162 202 257 313 365
#     4  10  22  34  61  89 119 158 203 250 318 369
#     4  10  21  35  57  88 116 157 202 245 305 372
#     4  10  21  35  57  86 116 154 208 257 302 369
#     4  11  19  37  59  86 122 155 200 258 312 368
#
# _framework density 19.150694999999999
#
# number of rings (size 3 to 8) (size 9 to 14) (size 15 to 20)
#    0.857    1.286    0.000    3.857    2.000    0.000 
#    2.571    0.000    0.000    7.714    0.000    0.000 
#    0.000    0.000    0.000    0.000    0.000    0.000 
#
# Total GULP energy -312034.831954 kJ/mol
# GULP energy per Si atom -5572.050571 kJ/mol
# Density = 1.910711 g / cm^3
# Si number density = 19.150695 Si / 1000 Ang^3
#
#
#
# Elastic Constant Matrix: (Units=GPa)
#
#
# Indices 1 2 3 4 5 6 
#
# 1 56.8769 6.5672 18.4376 0.0000 0.0000 0.0000
# 2 6.5672 56.8769 18.4376 0.0000 0.0000 0.0000
# 3 18.4376 18.4376 74.4126 0.0000 0.0000 0.0000
# 4 0.0000 0.0000 0.0000 22.4384 0.0000 0.0000
# 5 0.0000 0.0000 0.0000 0.0000 22.4384 0.0000
# 6 0.0000 0.0000 0.0000 0.0000 0.0000 25.0533
#
#
#
# Elastic Compliance Matrix: (Units=1/GPa)
#
#
# Indices 1 2 3 4 5 6 
#
# 1 0.019145 -0.000732 -0.004562 0.000000 0.000000 0.000000
# 2 -0.000732 0.019145 -0.004562 0.000000 0.000000 0.000000
# 3 -0.004562 -0.004562 0.015700 0.000000 0.000000 0.000000
# 4 0.000000 0.000000 0.000000 0.044566 0.000000 0.000000
# 5 0.000000 0.000000 0.000000 0.000000 0.044566 0.000000
# 6 0.000000 0.000000 0.000000 0.000000 0.000000 0.039915
#
#
# Mechanical properties :
#
#
# Convention : Reuss Voigt Hill
#
# Bulk Modulus (GPa) = 29.17399 30.56123 29.86761
# Shear Modulus (GPa) = 23.34522 23.63430 23.48976
#
# Velocity S-wave (km/s) = 3.49525 3.51682 3.50605
# Velocity P-wave (km/s) = 5.61747 5.69944 5.65860
#
# Compressibility (1/GPa) = 0.03427711
#
# Stress axis : x y z
#
# Youngs Moduli (GPa) = 52.23210 52.23210 63.69624
#
# Poissons Ratio (x) = 0.03821 0.29061
# Poissons Ratio (y) = 0.03821 0.29061
# Poissons Ratio (z) = 0.23831 0.23831
#
# Static dielectric constant tensor:
#      x y z
#    x 1.662980 0.000000 0.000000 
#    y 0.000000 1.662980 0.000000 
#    z 0.000000 0.000000 1.683750 
# 
# From -- ./inp_files/6265.got.cif
#   From: 2010.05.17/outbox.cif.g08.bks.cpg/sg120_4_cif.got.tgz:6265.got - 2010.05.20 11:28:13.
