data_PCOD9559233
_publ_section_title
;
Structure prediction by ZEFSAII (Michael W. Deem and Ramdas Pophale) SiO2 
 PCOD9559233
Probable space group: I -4 M 2
;
_chemical_formula_sum "Si O2"
_cell_formula_units_Z 96
_cell_length_a 23.133662
_cell_length_b 23.133662
_cell_length_c 9.408898
_cell_angle_alpha 90.000000
_cell_angle_beta 90.000000
_cell_angle_gamma 90.000000
_cell_volume 5035.325295
_symmetry_space_group_name_H-M "I -4 M 2"
_symmetry_group_IT_number 119
_symmetry_cell_setting 'tetragonal'
loop_
_space_group_symop_operation_xyz
x,y,z
y,-x,-z
-x,-y,z
-y,x,-z
y,x,-z
-y,-x,-z
-x,y,z
x,-y,z
1/2+x,1/2+y,1/2+z
1/2+y,1/2-x,1/2-z
1/2-x,1/2-y,1/2+z
1/2-y,1/2+x,1/2-z
1/2+y,1/2+x,1/2-z
1/2-y,1/2-x,1/2-z
1/2-x,1/2+y,1/2+z
1/2+x,1/2-y,1/2+z
loop_
_atom_site_type_symbol
_atom_site_label
_atom_site_fract_x
_atom_site_fract_y
_atom_site_fract_z
Si Si1 0.767602 0.136932 0.758928
Si Si2 0.237255 0.155373 0.145000
Si Si3 0.930828 0.161111 0.042042
Si Si4 0.664758 0.939017 0.847354
Si Si5 0.936463 0.383332 0.472616
Si Si6 0.283197 0.144060 0.445867
O O1 0.790312 0.193908 0.837597
O O2 0.708610 0.113099 0.827426
O O3 0.752518 0.146847 0.593442
O O4 0.816515 0.089503 0.800984
O O5 0.207464 0.103258 0.058677
O O6 0.244669 0.135518 0.307475
O O7 0.297791 0.179967 0.086775
O O8 0.000000 0.160036 0.027574
O O9 0.899205 0.100796 0.000000
O O10 0.635322 0.942564 0.692554
O O11 0.695578 0.000000 0.874013
O O12 0.615248 0.929335 0.963785
O O13 0.909515 0.327480 0.546430
O O14 0.000000 0.400971 0.523648
#
# Coordination Sequence:
#
# PCOD9559233 Si02
#       6
#    16  16  16  16  16  16
#     4  10  20  34  55  83 112 145 184 225 273 340
#     4  10  22  35  54  83 115 149 182 224 281 341
#     4  10  22  39  58  82 111 145 188 237 287 339
#     4   9  17  29  47  72 102 133 168 220 274 312
#     4   9  18  30  45  69  99 135 180 221 260 311
#     4  10  21  35  53  80 116 152 182 220 274 335
#
# _framework density 19.065301000000002
#
# number of rings (size 3 to 8) (size 9 to 14) (size 15 to 20)
#    0.000    2.333    0.000    2.000    0.000   18.500 
#    0.000    1.667    0.000    1.000    0.000    0.000 
#    0.000    5.333    0.000    0.000    0.000    0.000 
#
# Total GULP energy -267426.632633 kJ/mol
# GULP energy per Si atom -5571.388180 kJ/mol
# Density = 1.902191 g / cm^3
# Si number density = 19.065301 Si / 1000 Ang^3
#
#
#
# Elastic Constant Matrix: (Units=GPa)
#
#
# Indices 1 2 3 4 5 6 
#
# 1 106.9154 32.8235 41.4892 0.0000 0.0000 0.0000
# 2 32.8235 106.9153 41.4891 0.0000 0.0000 0.0000
# 3 41.4892 41.4891 98.9477 0.0000 0.0000 0.0000
# 4 0.0000 0.0000 0.0000 11.1813 0.0000 0.0000
# 5 0.0000 0.0000 0.0000 0.0000 11.1806 0.0000
# 6 0.0000 0.0000 0.0000 0.0000 0.0000 12.1175
#
#
#
# Elastic Compliance Matrix: (Units=1/GPa)
#
#
# Indices 1 2 3 4 5 6 
#
# 1 0.011513 -0.001984 -0.003995 0.000000 0.000000 0.000000
# 2 -0.001984 0.011513 -0.003995 0.000000 0.000000 0.000000
# 3 -0.003995 -0.003995 0.013457 0.000000 0.000000 0.000000
# 4 0.000000 0.000000 0.000000 0.089435 0.000000 0.000000
# 5 0.000000 0.000000 0.000000 0.000000 0.089440 0.000000
# 6 0.000000 0.000000 0.000000 0.000000 0.000000 0.082525
#
#
# Mechanical properties :
#
#
# Convention : Reuss Voigt Hill
#
# Bulk Modulus (GPa) = 60.48625 60.48688 60.48657
# Shear Modulus (GPa) = 15.46340 20.02765 17.74552
#
# Velocity S-wave (km/s) = 2.85103 3.24462 3.05417
# Velocity P-wave (km/s) = 6.52936 6.76992 6.65073
#
# Compressibility (1/GPa) = 0.01653268
#
# Stress axis : x y z
#
# Youngs Moduli (GPa) = 86.86025 86.86023 74.31106
#
# Poissons Ratio (x) = 0.17233 0.29690
# Poissons Ratio (y) = 0.17233 0.29690
# Poissons Ratio (z) = 0.34704 0.34704
#
# Static dielectric constant tensor:
#      x y z
#    x 1.710680 0.000000 0.000000 
#    y 0.000000 1.710680 0.000000 
#    z 0.000000 0.000000 1.712360 
# 
# From -- ./inp_files/4303.got.cif
#   From: 2010.05.17/outbox.cif.g08.bks.cpg/sg119_3_cif.got.tgz:4303.got - 2010.05.20 11:21:29.
