data_PCOD9559926
_publ_section_title
;
Structure prediction by ZEFSAII (Michael W. Deem and Ramdas Pophale) SiO2 
 PCOD9559926
Probable space group: I -4 C 2
;
_chemical_formula_sum "Si O2"
_cell_formula_units_Z 40
_cell_length_a 9.137526
_cell_length_b 9.137526
_cell_length_c 20.361286
_cell_angle_alpha 90.000000
_cell_angle_beta 90.000000
_cell_angle_gamma 90.000000
_cell_volume 1700.052979
_symmetry_space_group_name_H-M "I -4 C 2"
_symmetry_group_IT_number 120
_symmetry_cell_setting 'tetragonal'
loop_
_space_group_symop_operation_xyz
x,y,z
y,-x,-z
-x,-y,z
-y,x,-z
y,x,1/2-z
-y,-x,1/2-z
-x,y,1/2+z
x,-y,1/2+z
1/2+x,1/2+y,1/2+z
1/2+y,1/2-x,1/2-z
1/2-x,1/2-y,1/2+z
1/2-y,1/2+x,1/2-z
1/2+y,1/2+x,-z
1/2-y,1/2-x,-z
1/2-x,1/2+y,z
1/2+x,1/2-y,z
loop_
_atom_site_type_symbol
_atom_site_label
_atom_site_fract_x
_atom_site_fract_y
_atom_site_fract_z
Si Si1 0.848403 0.651598 0.500000
Si Si2 0.709370 0.120278 0.092520
Si Si3 0.393100 0.361498 0.823915
O O1 0.830631 0.787783 0.550823
O O2 0.837696 0.502234 0.540092
O O3 0.624844 0.256232 0.126373
O O4 0.741447 0.009177 0.152219
O O5 0.500000 0.500000 0.825703
O O6 0.338416 0.338416 0.750000
#
# Coordination Sequence:
#
# PCOD9559926 Si02
#       3
#     8  16  16
#     4  10  24  44  72 108 148 192 251 302 375 438
#     4  10  24  46  72 107 148 197 247 308 369 440
#     4  10  24  47  75 103 145 195 249 305 367 435
#
# _framework density 23.528680999999999
#
# number of rings (size 3 to 8) (size 9 to 14) (size 15 to 20)
#    0.000    2.000    0.000    0.000   16.800    0.800 
#    7.200    0.000    0.000    0.000    0.000    0.000 
#    0.000    0.000    0.000    0.000    0.000    0.000 
#
# Total GULP energy -111338.104568 kJ/mol
# GULP energy per Si atom -5566.905228 kJ/mol
# Density = 2.347513 g / cm^3
# Si number density = 23.528681 Si / 1000 Ang^3
#
#
#
# Elastic Constant Matrix: (Units=GPa)
#
#
# Indices 1 2 3 4 5 6 
#
# 1 126.5207 72.5688 81.0779 0.0000 0.0000 0.0000
# 2 72.5688 126.5208 81.0772 0.0000 0.0000 0.0000
# 3 81.0779 81.0772 180.9683 0.0000 0.0000 0.0000
# 4 0.0000 0.0000 0.0000 54.6806 0.0000 0.0000
# 5 0.0000 0.0000 0.0000 0.0000 54.6798 0.0000
# 6 0.0000 0.0000 0.0000 0.0000 0.0000 18.3872
#
#
#
# Elastic Compliance Matrix: (Units=1/GPa)
#
#
# Indices 1 2 3 4 5 6 
#
# 1 0.013222 -0.005313 -0.003543 0.000000 0.000000 0.000000
# 2 -0.005313 0.013222 -0.003543 0.000000 0.000000 0.000000
# 3 -0.003543 -0.003543 0.008701 0.000000 0.000000 0.000000
# 4 0.000000 0.000000 0.000000 0.018288 0.000000 0.000000
# 5 0.000000 0.000000 0.000000 0.000000 0.018288 0.000000
# 6 0.000000 0.000000 0.000000 0.000000 0.000000 0.054386
#
#
# Mechanical properties :
#
#
# Convention : Reuss Voigt Hill
#
# Bulk Modulus (GPa) = 96.66336 100.38418 98.52377
# Shear Modulus (GPa) = 32.39298 38.83526 35.61412
#
# Velocity S-wave (km/s) = 3.71448 4.06710 3.89478
# Velocity P-wave (km/s) = 7.71808 8.05061 7.88610
#
# Compressibility (1/GPa) = 0.01034518
#
# Stress axis : x y z
#
# Youngs Moduli (GPa) = 75.63169 75.63226 114.93190
#
# Poissons Ratio (x) = 0.40184 0.40725
# Poissons Ratio (y) = 0.40184 0.40724
# Poissons Ratio (z) = 0.26799 0.26799
#
# Static dielectric constant tensor:
#      x y z
#    x 1.819130 0.000000 0.000000 
#    y 0.000000 1.819130 0.000000 
#    z 0.000000 0.000000 2.003450 
# 
# From -- ./inp_files/5584.got.cif
#   From: 2010.05.17/outbox.cif.g08.bks.cpg/sg120_3_cif.got.tgz:5584.got - 2010.05.20 11:28:13.
