data_PCOD9559431
_publ_section_title
;
Structure prediction by ZEFSAII (Michael W. Deem and Ramdas Pophale) SiO2 
 PCOD9559431
Probable space group: I -4 M 2
;
_chemical_formula_sum "Si O2"
_cell_formula_units_Z 52
_cell_length_a 14.856779
_cell_length_b 14.856779
_cell_length_c 10.527924
_cell_angle_alpha 90.000000
_cell_angle_beta 90.000000
_cell_angle_gamma 90.000000
_cell_volume 2323.764257
_symmetry_space_group_name_H-M "I -4 M 2"
_symmetry_group_IT_number 119
_symmetry_cell_setting 'tetragonal'
loop_
_space_group_symop_operation_xyz
x,y,z
y,-x,-z
-x,-y,z
-y,x,-z
y,x,-z
-y,-x,-z
-x,y,z
x,-y,z
1/2+x,1/2+y,1/2+z
1/2+y,1/2-x,1/2-z
1/2-x,1/2-y,1/2+z
1/2-y,1/2+x,1/2-z
1/2+y,1/2+x,1/2-z
1/2-y,1/2-x,1/2-z
1/2-x,1/2+y,1/2+z
1/2+x,1/2-y,1/2+z
loop_
_atom_site_type_symbol
_atom_site_label
_atom_site_fract_x
_atom_site_fract_y
_atom_site_fract_z
Si Si1 0.808665 0.839140 0.260358
Si Si2 0.000000 0.500000 0.559843
Si Si3 0.500000 0.286499 0.838572
Si Si4 0.394936 0.394936 0.500000
Si Si5 0.500000 0.126642 0.675159
Si Si6 0.000000 0.700326 0.612198
O O1 0.755593 0.744408 0.250000
O O2 0.904100 0.836206 0.335202
O O3 0.833357 0.870936 0.119175
O O4 0.744825 0.911848 0.326912
O O5 0.087275 0.500000 0.465396
O O6 0.000000 0.593795 0.631067
O O7 0.500000 0.229927 0.707154
O O8 0.500000 0.222080 0.961518
O O9 0.384091 0.500000 0.467483
O O10 0.415685 0.084316 0.750000
#
# Coordination Sequence:
#
# PCOD9559431 Si02
#       6
#    16   4   8   8   8   8
#     4  12  29  47  76 113 150 199 261 319 394 459
#     4  10  23  42  79 110 166 204 246 308 388 474
#     4  12  24  45  73 112 153 197 262 326 373 451
#     4  11  24  54  82 104 148 207 268 322 376 473
#     4   9  16  36  67 104 140 199 257 295 360 446
#     4  12  27  49  71 113 161 204 249 319 398 458
#
# _framework density 22.377485
#
# number of rings (size 3 to 8) (size 9 to 14) (size 15 to 20)
#    0.000    0.923    6.154    1.846    4.308    1.846 
#    0.000    1.538    0.000    0.000    0.000    0.000 
#    0.000    0.000    0.000    0.000    0.000    0.000 
#
# Total GULP energy -145479.517601 kJ/mol
# GULP energy per Si atom -5595.366062 kJ/mol
# Density = 2.232655 g / cm^3
# Si number density = 22.377485 Si / 1000 Ang^3
#
#
#
# Elastic Constant Matrix: (Units=GPa)
#
#
# Indices 1 2 3 4 5 6 
#
# 1 148.7287 83.0795 52.1013 0.0000 0.0000 0.0000
# 2 83.0795 148.7303 52.1004 0.0000 0.0000 0.0000
# 3 52.1013 52.1004 94.2472 0.0000 0.0000 0.0000
# 4 0.0000 0.0000 0.0000 25.6440 0.0000 0.0000
# 5 0.0000 0.0000 0.0000 0.0000 25.6388 0.0000
# 6 0.0000 0.0000 0.0000 0.0000 0.0000 140.8012
#
#
#
# Elastic Compliance Matrix: (Units=1/GPa)
#
#
# Indices 1 2 3 4 5 6 
#
# 1 0.010486 -0.004746 -0.003173 0.000000 0.000000 0.000000
# 2 -0.004746 0.010486 -0.003173 0.000000 0.000000 0.000000
# 3 -0.003173 -0.003173 0.014119 0.000000 0.000000 0.000000
# 4 0.000000 0.000000 0.000000 0.038995 0.000000 0.000000
# 5 0.000000 0.000000 0.000000 0.000000 0.039003 0.000000
# 6 0.000000 0.000000 0.000000 0.000000 0.000000 0.007102
#
#
# Mechanical properties :
#
#
# Convention : Reuss Voigt Hill
#
# Bulk Modulus (GPa) = 77.48161 85.14098 81.31129
# Shear Modulus (GPa) = 34.08781 52.04512 43.06647
#
# Velocity S-wave (km/s) = 3.90719 4.82787 4.39172
# Velocity P-wave (km/s) = 7.41990 8.31913 7.88235
#
# Compressibility (1/GPa) = 0.01290629
#
# Stress axis : x y z
#
# Youngs Moduli (GPa) = 95.36123 95.36331 70.82701
#
# Poissons Ratio (x) = 0.45259 0.22477
# Poissons Ratio (y) = 0.45258 0.22475
# Poissons Ratio (z) = 0.30263 0.30261
#
# Static dielectric constant tensor:
#      x y z
#    x 1.846870 0.000000 0.000000 
#    y 0.000000 1.846870 0.000000 
#    z 0.000000 0.000000 1.825560 
# 
# From -- ./inp_files/3577.got.cif
#   From: 2010.05.17/outbox.cif.g08.bks.cpg/sg119_2_cif.got.tgz:3577.got - 2010.05.20 11:21:29.
