data_PCOD9559005
_publ_section_title
;
Structure prediction by ZEFSAII (Michael W. Deem and Ramdas Pophale) SiO2 
 PCOD9559005
Probable space group: I -4 M 2
;
_chemical_formula_sum "Si O2"
_cell_formula_units_Z 72
_cell_length_a 18.326523
_cell_length_b 18.326523
_cell_length_c 11.706012
_cell_angle_alpha 90.000000
_cell_angle_beta 90.000000
_cell_angle_gamma 90.000000
_cell_volume 3931.598109
_symmetry_space_group_name_H-M "I -4 M 2"
_symmetry_group_IT_number 119
_symmetry_cell_setting 'tetragonal'
loop_
_space_group_symop_operation_xyz
x,y,z
y,-x,-z
-x,-y,z
-y,x,-z
y,x,-z
-y,-x,-z
-x,y,z
x,-y,z
1/2+x,1/2+y,1/2+z
1/2+y,1/2-x,1/2-z
1/2-x,1/2-y,1/2+z
1/2-y,1/2+x,1/2-z
1/2+y,1/2+x,1/2-z
1/2-y,1/2-x,1/2-z
1/2-x,1/2+y,1/2+z
1/2+x,1/2-y,1/2+z
loop_
_atom_site_type_symbol
_atom_site_label
_atom_site_fract_x
_atom_site_fract_y
_atom_site_fract_z
Si Si1 0.915299 0.584702 0.250000
Si Si2 0.756013 0.162630 0.163783
Si Si3 0.142728 0.920140 0.324263
Si Si4 0.341524 0.196420 0.585002
Si Si5 0.078451 0.215743 0.425841
O O1 0.908082 0.500000 0.211234
O O2 0.852538 0.600811 0.345288
O O3 0.696857 0.196857 0.250000
O O4 0.800484 0.098857 0.225131
O O5 0.814586 0.227691 0.140239
O O6 0.717353 0.140672 0.045503
O O7 0.186261 0.920535 0.444608
O O8 0.087993 0.853308 0.342791
O O9 0.109266 0.000000 0.309244
O O10 0.269835 0.145361 0.586419
O O11 0.000000 0.251183 0.404925
#
# Coordination Sequence:
#
# PCOD9559005 Si02
#       5
#     8  16  16  16  16
#     4  11  24  40  56  78 114 156 192 229 274 326
#     4  11  18  33  56  82 108 140 180 233 285 325
#     4  10  19  31  48  77 113 145 179 223 276 331
#     4  11  20  34  60  81 107 141 189 240 274 324
#     4  10  18  30  51  79 109 146 182 220 274 331
#
# _framework density 18.313162999999999
#
# number of rings (size 3 to 8) (size 9 to 14) (size 15 to 20)
#    0.000    1.444    5.556    2.000    0.000    1.333 
#    0.000    2.222    0.000    1.333    0.000    1.556 
#    0.000    0.000    0.000    0.000    0.000    0.000 
#
# Total GULP energy -200711.633668 kJ/mol
# GULP energy per Si atom -5575.323157 kJ/mol
# Density = 1.827148 g / cm^3
# Si number density = 18.313163 Si / 1000 Ang^3
#
#
#
# Elastic Constant Matrix: (Units=GPa)
#
#
# Indices 1 2 3 4 5 6 
#
# 1 65.9687 21.1078 22.5909 0.0000 0.0000 0.0000
# 2 21.1078 65.9693 22.5911 0.0000 0.0000 0.0000
# 3 22.5909 22.5911 105.7793 0.0000 0.0000 0.0000
# 4 0.0000 0.0000 0.0000 13.5053 0.0000 0.0000
# 5 0.0000 0.0000 0.0000 0.0000 13.5046 0.0000
# 6 0.0000 0.0000 0.0000 0.0000 0.0000 19.8426
#
#
#
# Elastic Compliance Matrix: (Units=1/GPa)
#
#
# Indices 1 2 3 4 5 6 
#
# 1 0.017603 -0.004688 -0.002758 0.000000 0.000000 0.000000
# 2 -0.004688 0.017603 -0.002758 0.000000 0.000000 0.000000
# 3 -0.002758 -0.002758 0.010632 0.000000 0.000000 0.000000
# 4 0.000000 0.000000 0.000000 0.074045 0.000000 0.000000
# 5 0.000000 0.000000 0.000000 0.000000 0.074049 0.000000
# 6 0.000000 0.000000 0.000000 0.000000 0.000000 0.050397
#
#
# Mechanical properties :
#
#
# Convention : Reuss Voigt Hill
#
# Bulk Modulus (GPa) = 39.32472 41.14408 40.23440
# Shear Modulus (GPa) = 18.30067 20.79899 19.54983
#
# Velocity S-wave (km/s) = 3.16463 3.37373 3.27085
# Velocity P-wave (km/s) = 5.90536 6.13936 6.02350
#
# Compressibility (1/GPa) = 0.02542930
#
# Stress axis : x y z
#
# Youngs Moduli (GPa) = 56.80778 56.80827 94.05739
#
# Poissons Ratio (x) = 0.26631 0.25944
# Poissons Ratio (y) = 0.26630 0.25944
# Poissons Ratio (z) = 0.15669 0.15669
#
# Static dielectric constant tensor:
#      x y z
#    x 1.640150 0.000000 0.000000 
#    y 0.000000 1.640150 0.000000 
#    z 0.000000 0.000000 1.651650 
# 
# From -- ./inp_files/3899.got.cif
#   From: 2010.05.17/outbox.cif.g08.bks.cpg/sg119_2_cif.got.tgz:3899.got - 2010.05.20 11:21:29.
