data_PCOD9559930
_publ_section_title
;
Structure prediction by ZEFSAII (Michael W. Deem and Ramdas Pophale) SiO2 
 PCOD9559930
Probable space group: I -4 C 2
;
_chemical_formula_sum "Si O2"
_cell_formula_units_Z 96
_cell_length_a 22.977961
_cell_length_b 22.977961
_cell_length_c 9.093663
_cell_angle_alpha 90.000000
_cell_angle_beta 90.000000
_cell_angle_gamma 90.000000
_cell_volume 4801.333043
_symmetry_space_group_name_H-M "I -4 C 2"
_symmetry_group_IT_number 120
_symmetry_cell_setting 'tetragonal'
loop_
_space_group_symop_operation_xyz
x,y,z
y,-x,-z
-x,-y,z
-y,x,-z
y,x,1/2-z
-y,-x,1/2-z
-x,y,1/2+z
x,-y,1/2+z
1/2+x,1/2+y,1/2+z
1/2+y,1/2-x,1/2-z
1/2-x,1/2-y,1/2+z
1/2-y,1/2+x,1/2-z
1/2+y,1/2+x,-z
1/2-y,1/2-x,-z
1/2-x,1/2+y,z
1/2+x,1/2-y,z
loop_
_atom_site_type_symbol
_atom_site_label
_atom_site_fract_x
_atom_site_fract_y
_atom_site_fract_z
Si Si1 0.993024 0.592253 0.702591
Si Si2 0.829396 0.504286 0.047624
Si Si3 0.151320 0.152583 0.425899
Si Si4 0.876313 0.713019 0.424816
Si Si5 0.624912 0.214360 0.074084
Si Si6 0.436729 0.562510 0.928449
O O1 0.939773 0.550980 0.742646
O O2 0.999341 0.608043 0.533282
O O3 0.986094 0.653763 0.783362
O O4 0.797838 0.560225 0.984177
O O5 0.798217 0.442902 0.030237
O O6 0.142186 0.142186 0.250000
O O7 0.139596 0.220343 0.457890
O O8 0.218902 0.140480 0.457736
O O9 0.109197 0.110804 0.518466
O O10 0.832774 0.667227 0.500000
O O11 0.872729 0.705055 0.249057
O O12 0.669744 0.169744 0.000000
O O13 0.440714 0.559287 0.750000
O O14 0.499399 0.578059 0.000773
#
# Coordination Sequence:
#
# PCOD9559930 Si02
#       6
#    16  16  16  16  16  16
#     4  11  22  38  60  88 126 168 215 268 326 384
#     4  12  24  39  62  92 125 170 222 270 330 388
#     4  10  24  46  69 101 137 171 220 274 335 402
#     4  11  25  44  68  95 132 175 222 278 335 397
#     4  11  25  44  68  95 132 175 222 278 335 397
#     4  11  23  43  72 103 137 177 215 269 336 403
#
# _framework density 19.994446
#
# number of rings (size 3 to 8) (size 9 to 14) (size 15 to 20)
#    0.000    1.000    1.667    5.500    4.667    2.667 
#    0.000    0.000    0.000    0.000    0.000    0.000 
#    0.000    0.000    0.000    0.000    0.000    0.000 
#
# Total GULP energy -268418.634210 kJ/mol
# GULP energy per Si atom -5592.054879 kJ/mol
# Density = 1.994894 g / cm^3
# Si number density = 19.994446 Si / 1000 Ang^3
#
#
#
# Elastic Constant Matrix: (Units=GPa)
#
#
# Indices 1 2 3 4 5 6 
#
# 1 143.1554 134.9281 76.1482 0.0000 0.0000 0.0000
# 2 134.9281 143.1567 76.1468 0.0000 0.0000 0.0000
# 3 76.1482 76.1468 107.4824 0.0000 0.0000 0.0000
# 4 0.0000 0.0000 0.0000 25.5338 0.0000 0.0000
# 5 0.0000 0.0000 0.0000 0.0000 25.5334 0.0000
# 6 0.0000 0.0000 0.0000 0.0000 0.0000 33.7027
#
#
#
# Elastic Compliance Matrix: (Units=1/GPa)
#
#
# Indices 1 2 3 4 5 6 
#
# 1 0.063708 -0.057831 -0.004164 0.000000 0.000000 0.000000
# 2 -0.057831 0.063705 -0.004161 0.000000 0.000000 0.000000
# 3 -0.004164 -0.004161 0.015202 0.000000 0.000000 0.000000
# 4 0.000000 0.000000 0.000000 0.039164 0.000000 0.000000
# 5 0.000000 0.000000 0.000000 0.000000 0.039164 0.000000
# 6 0.000000 0.000000 0.000000 0.000000 0.000000 0.029671
#
#
# Mechanical properties :
#
#
# Convention : Reuss Voigt Hill
#
# Bulk Modulus (GPa) = 97.06235 107.58232 102.32234
# Shear Modulus (GPa) = 12.94126 24.05874 18.50000
#
# Velocity S-wave (km/s) = 2.54686 3.47258 3.04510
# Velocity P-wave (km/s) = 7.56959 8.36668 7.97810
#
# Compressibility (1/GPa) = 0.01030266
#
# Stress axis : x y z
#
# Youngs Moduli (GPa) = 15.69672 15.69729 65.77957
#
# Poissons Ratio (x) = 0.90778 0.27394
# Poissons Ratio (y) = 0.90775 0.27372
# Poissons Ratio (z) = 0.06537 0.06532
#
# Static dielectric constant tensor:
#      x y z
#    x 1.684640 0.000000 0.000000 
#    y 0.000000 1.684640 0.000000 
#    z 0.000000 0.000000 1.709020 
# 
# From -- ./inp_files/1519.got.cif
#   From: 2010.05.17/outbox.cif.g08.bks.cpg/sg120_1_cif.got.tgz:1519.got - 2010.05.20 11:28:13.
