data_PCOD9559867
_publ_section_title
;
Structure prediction by ZEFSAII (Michael W. Deem and Ramdas Pophale) SiO2 
 PCOD9559867
Probable space group: I -4 C 2
;
_chemical_formula_sum "Si O2"
_cell_formula_units_Z 96
_cell_length_a 22.354814
_cell_length_b 22.354814
_cell_length_c 8.819198
_cell_angle_alpha 90.000000
_cell_angle_beta 90.000000
_cell_angle_gamma 90.000000
_cell_volume 4407.285804
_symmetry_space_group_name_H-M "I -4 C 2"
_symmetry_group_IT_number 120
_symmetry_cell_setting 'tetragonal'
loop_
_space_group_symop_operation_xyz
x,y,z
y,-x,-z
-x,-y,z
-y,x,-z
y,x,1/2-z
-y,-x,1/2-z
-x,y,1/2+z
x,-y,1/2+z
1/2+x,1/2+y,1/2+z
1/2+y,1/2-x,1/2-z
1/2-x,1/2-y,1/2+z
1/2-y,1/2+x,1/2-z
1/2+y,1/2+x,-z
1/2-y,1/2-x,-z
1/2-x,1/2+y,z
1/2+x,1/2-y,z
loop_
_atom_site_type_symbol
_atom_site_label
_atom_site_fract_x
_atom_site_fract_y
_atom_site_fract_z
Si Si1 0.984402 0.590109 0.710254
Si Si2 0.826339 0.525846 0.046563
Si Si3 0.150406 0.176054 0.573983
Si Si4 0.887688 0.702223 0.431529
Si Si5 0.638972 0.228974 0.083988
Si Si6 0.428804 0.556013 0.929152
O O1 0.036142 0.560875 0.816207
O O2 0.019431 0.619892 0.573688
O O3 0.952128 0.643540 0.798361
O O4 0.779311 0.572052 0.981340
O O5 0.802929 0.459246 0.075136
O O6 0.169075 0.169075 0.750000
O O7 0.129255 0.242777 0.539435
O O8 0.206210 0.162093 0.464766
O O9 0.097636 0.128429 0.542837
O O10 0.857046 0.642955 0.500000
O O11 0.863323 0.716337 0.263063
O O12 0.680333 0.180333 0.000000
O O13 0.442328 0.557673 0.750000
O O14 0.487922 0.579703 0.015568
#
# Coordination Sequence:
#
# PCOD9559867 Si02
#       6
#    16  16  16  16  16  16
#     4  11  22  40  64  96 138 182 231 284 346 404
#     4  12  26  41  68 100 135 184 236 290 346 412
#     4  11  27  47  73 105 141 178 227 281 347 420
#     4  12  27  47  72 100 139 185 234 290 349 412
#     4  12  27  47  72 100 139 185 234 290 349 412
#     4  10  22  42  71 103 138 178 216 272 338 409
#
# _framework density 21.782114
#
# number of rings (size 3 to 8) (size 9 to 14) (size 15 to 20)
#    0.000    0.667    1.667    6.000    7.000    4.000 
#    0.000    0.000    0.000    0.000    0.000    0.000 
#    0.000    0.000    0.000    0.000    0.000    0.000 
#
# Total GULP energy -268731.208832 kJ/mol
# GULP energy per Si atom -5598.566851 kJ/mol
# Density = 2.173254 g / cm^3
# Si number density = 21.782114 Si / 1000 Ang^3
#
#
#
# Elastic Constant Matrix: (Units=GPa)
#
#
# Indices 1 2 3 4 5 6 
#
# 1 67.4813 22.4990 6.6483 0.0000 0.0000 0.0000
# 2 22.4990 67.4862 6.6492 0.0000 0.0000 0.0000
# 3 6.6483 6.6492 54.2254 0.0000 0.0000 0.0000
# 4 0.0000 0.0000 0.0000 29.2772 0.0000 0.0000
# 5 0.0000 0.0000 0.0000 0.0000 29.2771 0.0000
# 6 0.0000 0.0000 0.0000 0.0000 0.0000 37.6485
#
#
#
# Elastic Compliance Matrix: (Units=1/GPa)
#
#
# Indices 1 2 3 4 5 6 
#
# 1 0.016775 -0.005456 -0.001388 0.000000 0.000000 0.000000
# 2 -0.005456 0.016773 -0.001388 0.000000 0.000000 0.000000
# 3 -0.001388 -0.001388 0.018782 0.000000 0.000000 0.000000
# 4 0.000000 0.000000 0.000000 0.034156 0.000000 0.000000
# 5 0.000000 0.000000 0.000000 0.000000 0.034156 0.000000
# 6 0.000000 0.000000 0.000000 0.000000 0.000000 0.026561
#
#
# Mechanical properties :
#
#
# Convention : Reuss Voigt Hill
#
# Bulk Modulus (GPa) = 27.88047 28.97622 28.42835
# Shear Modulus (GPa) = 28.47017 29.46699 28.96858
#
# Velocity S-wave (km/s) = 3.61923 3.68204 3.65077
# Velocity P-wave (km/s) = 5.50387 5.60430 5.55431
#
# Compressibility (1/GPa) = 0.03586740
#
# Stress axis : x y z
#
# Youngs Moduli (GPa) = 59.61385 59.61801 53.24282
#
# Poissons Ratio (x) = 0.32526 0.07388
# Poissons Ratio (y) = 0.32524 0.07390
# Poissons Ratio (z) = 0.08272 0.08274
#
# Static dielectric constant tensor:
#      x y z
#    x 1.762190 0.000000 0.000000 
#    y 0.000000 1.762180 0.000000 
#    z 0.000000 0.000000 1.800030 
# 
# From -- ./inp_files/1550.got.cif
#   From: 2010.05.17/outbox.cif.g08.bks.cpg/sg120_1_cif.got.tgz:1550.got - 2010.05.20 11:28:13.
