data_PCOD9559512
_publ_section_title
;
Structure prediction by ZEFSAII (Michael W. Deem and Ramdas Pophale) SiO2 
 PCOD9559512
Probable space group: I -4 M 2
;
_chemical_formula_sum "Si O2"
_cell_formula_units_Z 48
_cell_length_a 13.690449
_cell_length_b 13.690449
_cell_length_c 12.474060
_cell_angle_alpha 90.000000
_cell_angle_beta 90.000000
_cell_angle_gamma 90.000000
_cell_volume 2337.993030
_symmetry_space_group_name_H-M "I -4 M 2"
_symmetry_group_IT_number 119
_symmetry_cell_setting 'tetragonal'
loop_
_space_group_symop_operation_xyz
x,y,z
y,-x,-z
-x,-y,z
-y,x,-z
y,x,-z
-y,-x,-z
-x,y,z
x,-y,z
1/2+x,1/2+y,1/2+z
1/2+y,1/2-x,1/2-z
1/2-x,1/2-y,1/2+z
1/2-y,1/2+x,1/2-z
1/2+y,1/2+x,1/2-z
1/2-y,1/2-x,1/2-z
1/2-x,1/2+y,1/2+z
1/2+x,1/2-y,1/2+z
loop_
_atom_site_type_symbol
_atom_site_label
_atom_site_fract_x
_atom_site_fract_y
_atom_site_fract_z
Si Si1 0.792582 0.114213 0.601117
Si Si2 0.114276 0.114276 0.000000
Si Si3 0.386913 0.113088 0.750000
Si Si4 0.887395 0.771983 0.782224
O O1 0.820894 0.179106 0.500000
O O2 0.685915 0.133194 0.652056
O O3 0.865783 0.142507 0.696884
O O4 0.799386 0.000000 0.573019
O O5 0.132469 0.184367 0.899580
O O6 0.000000 0.126261 0.032048
O O7 0.500000 0.127158 0.718873
O O8 0.815521 0.684480 0.750000
O O9 0.000000 0.741916 0.776476
#
# Coordination Sequence:
#
# PCOD9559512 Si02
#       4
#    16   8   8  16
#     4  11  23  41  67  98 134 170 213 269 328 388
#     4   9  20  42  70  96 122 159 212 270 322 381
#     4   9  20  42  72 100 127 168 222 270 315 382
#     4  11  24  41  64  93 128 170 218 269 325 386
#
# _framework density 20.530429000000002
#
# number of rings (size 3 to 8) (size 9 to 14) (size 15 to 20)
#    0.000    1.667    1.667    2.000    2.333    4.000 
#    0.000    1.667    0.000    4.000    0.000    0.000 
#    0.000    0.000    0.000    0.000    0.000    0.000 
#
# Total GULP energy -134218.774333 kJ/mol
# GULP energy per Si atom -5592.448931 kJ/mol
# Density = 2.048370 g / cm^3
# Si number density = 20.530429 Si / 1000 Ang^3
#
#
#
# Elastic Constant Matrix: (Units=GPa)
#
#
# Indices 1 2 3 4 5 6 
#
# 1 137.7371 96.4636 78.4485 0.0000 0.0000 0.0000
# 2 96.4636 137.7330 78.4491 0.0000 0.0000 0.0000
# 3 78.4485 78.4491 148.4843 0.0000 0.0000 0.0000
# 4 0.0000 0.0000 0.0000 30.6736 0.0000 0.0000
# 5 0.0000 0.0000 0.0000 0.0000 30.6747 0.0000
# 6 0.0000 0.0000 0.0000 0.0000 0.0000 34.7194
#
#
#
# Elastic Compliance Matrix: (Units=1/GPa)
#
#
# Indices 1 2 3 4 5 6 
#
# 1 0.015419 -0.008810 -0.003492 0.000000 0.000000 0.000000
# 2 -0.008810 0.015420 -0.003492 0.000000 0.000000 0.000000
# 3 -0.003492 -0.003492 0.010424 0.000000 0.000000 0.000000
# 4 0.000000 0.000000 0.000000 0.032601 0.000000 0.000000
# 5 0.000000 0.000000 0.000000 0.000000 0.032600 0.000000
# 6 0.000000 0.000000 0.000000 0.000000 0.000000 0.028802
#
#
# Mechanical properties :
#
#
# Convention : Reuss Voigt Hill
#
# Bulk Modulus (GPa) = 103.35455 103.40852 103.38154
# Shear Modulus (GPa) = 29.39788 30.58642 29.99215
#
# Velocity S-wave (km/s) = 3.78817 3.86399 3.82627
# Velocity P-wave (km/s) = 8.34177 8.38958 8.36571
#
# Compressibility (1/GPa) = 0.00967543
#
# Stress axis : x y z
#
# Youngs Moduli (GPa) = 64.85459 64.85140 95.92882
#
# Poissons Ratio (x) = 0.57136 0.33494
# Poissons Ratio (y) = 0.57139 0.33499
# Poissons Ratio (z) = 0.22644 0.22647
#
# Static dielectric constant tensor:
#      x y z
#    x 1.743340 0.000000 0.000000 
#    y 0.000000 1.743340 0.000000 
#    z 0.000000 0.000000 1.704210 
# 
# From -- ./inp_files/3458.got.cif
#   From: 2010.05.17/outbox.cif.g08.bks.cpg/sg119_2_cif.got.tgz:3458.got - 2010.05.20 11:21:29.
