data_PCOD9559884
_publ_section_title
;
Structure prediction by ZEFSAII (Michael W. Deem and Ramdas Pophale) SiO2 
 PCOD9559884
Probable space group: I -4 C 2
;
_chemical_formula_sum "Si O2"
_cell_formula_units_Z 88
_cell_length_a 14.034179
_cell_length_b 14.034179
_cell_length_c 17.953009
_cell_angle_alpha 90.000000
_cell_angle_beta 90.000000
_cell_angle_gamma 90.000000
_cell_volume 3535.991982
_symmetry_space_group_name_H-M "I -4 C 2"
_symmetry_group_IT_number 120
_symmetry_cell_setting 'tetragonal'
loop_
_space_group_symop_operation_xyz
x,y,z
y,-x,-z
-x,-y,z
-y,x,-z
y,x,1/2-z
-y,-x,1/2-z
-x,y,1/2+z
x,-y,1/2+z
1/2+x,1/2+y,1/2+z
1/2+y,1/2-x,1/2-z
1/2-x,1/2-y,1/2+z
1/2-y,1/2+x,1/2-z
1/2+y,1/2+x,-z
1/2-y,1/2-x,-z
1/2-x,1/2+y,z
1/2+x,1/2-y,z
loop_
_atom_site_type_symbol
_atom_site_label
_atom_site_fract_x
_atom_site_fract_y
_atom_site_fract_z
Si Si1 0.580643 0.875340 0.279520
Si Si2 0.973248 0.358963 0.443835
Si Si3 0.656518 0.685633 0.475351
Si Si4 0.253439 0.746562 0.250000
Si Si5 0.440524 0.402771 0.336476
Si Si6 0.722672 0.606429 0.615863
O O1 0.472468 0.873525 0.251639
O O2 0.578683 0.884688 0.367595
O O3 0.645672 0.787127 0.257850
O O4 0.938457 0.438457 0.500000
O O5 0.927731 0.262161 0.475382
O O6 0.079326 0.327304 0.418087
O O7 0.750091 0.749910 0.500000
O O8 0.641495 0.627478 0.397503
O O9 0.652724 0.617859 0.546001
O O10 0.306826 0.715969 0.326459
O O11 0.500000 0.500000 0.355474
O O12 0.412929 0.412929 0.250000
O O13 0.515118 0.315754 0.340550
#
# Coordination Sequence:
#
# PCOD9559884 Si02
#       6
#    16  16  16   8  16  16
#     4  11  25  51  79 114 158 213 273 340 425 507
#     4  10  22  49  70 107 157 200 267 337 409 505
#     4  10  23  45  70 108 154 204 275 334 429 507
#     4  12  22  46  81 109 164 202 282 346 414 522
#     4  10  23  44  71 109 158 209 267 341 436 515
#     4  11  24  44  71 117 150 210 275 340 422 503
#
# _framework density 24.886935000000001
#
# number of rings (size 3 to 8) (size 9 to 14) (size 15 to 20)
#    0.000    1.455    1.818    3.273    5.091    0.000 
#   24.545    1.818    0.000    0.000    0.000    0.000 
#    0.000    0.000    0.000    0.000    0.000    0.000 
#
# Total GULP energy -245727.150526 kJ/mol
# GULP energy per Si atom -5584.707967 kJ/mol
# Density = 2.483029 g / cm^3
# Si number density = 24.886935 Si / 1000 Ang^3
#
#
#
# Elastic Constant Matrix: (Units=GPa)
#
#
# Indices 1 2 3 4 5 6 
#
# 1 124.5876 55.5418 55.3917 0.0000 0.0000 0.0000
# 2 55.5418 124.5893 55.3911 0.0000 0.0000 0.0000
# 3 55.3917 55.3911 177.9047 0.0000 0.0000 0.0000
# 4 0.0000 0.0000 0.0000 17.7690 0.0000 0.0000
# 5 0.0000 0.0000 0.0000 0.0000 17.7684 0.0000
# 6 0.0000 0.0000 0.0000 0.0000 0.0000 47.3911
#
#
#
# Elastic Compliance Matrix: (Units=1/GPa)
#
#
# Indices 1 2 3 4 5 6 
#
# 1 0.010675 -0.003808 -0.002138 0.000000 0.000000 0.000000
# 2 -0.003808 0.010675 -0.002138 0.000000 0.000000 0.000000
# 3 -0.002138 -0.002138 0.006952 0.000000 0.000000 0.000000
# 4 0.000000 0.000000 0.000000 0.056278 0.000000 0.000000
# 5 0.000000 0.000000 0.000000 0.000000 0.056280 0.000000
# 6 0.000000 0.000000 0.000000 0.000000 0.000000 0.021101
#
#
# Mechanical properties :
#
#
# Convention : Reuss Voigt Hill
#
# Bulk Modulus (GPa) = 82.41651 84.41455 83.41553
# Shear Modulus (GPa) = 27.44647 33.96949 30.70798
#
# Velocity S-wave (km/s) = 3.32452 3.69853 3.51650
# Velocity P-wave (km/s) = 6.92277 7.22715 7.07660
#
# Compressibility (1/GPa) = 0.01213349
#
# Stress axis : x y z
#
# Youngs Moduli (GPa) = 93.67890 93.68068 143.83814
#
# Poissons Ratio (x) = 0.35676 0.30752
# Poissons Ratio (y) = 0.35676 0.30750
# Poissons Ratio (z) = 0.20028 0.20027
#
# Static dielectric constant tensor:
#      x y z
#    x 2.049600 0.000000 0.000000 
#    y 0.000000 2.049600 0.000000 
#    z 0.000000 0.000000 1.920980 
# 
# From -- ./inp_files/5281.got.cif
#   From: 2010.05.17/outbox.cif.g08.bks.cpg/sg120_3_cif.got.tgz:5281.got - 2010.05.20 11:28:13.
