data_PCOD9559940
_publ_section_title
;
Structure prediction by ZEFSAII (Michael W. Deem and Ramdas Pophale) SiO2 
 PCOD9559940
Probable space group: I -4 C 2
;
_chemical_formula_sum "Si O2"
_cell_formula_units_Z 48
_cell_length_a 14.048997
_cell_length_b 14.048997
_cell_length_c 9.381521
_cell_angle_alpha 90.000000
_cell_angle_beta 90.000000
_cell_angle_gamma 90.000000
_cell_volume 1851.671297
_symmetry_space_group_name_H-M "I -4 C 2"
_symmetry_group_IT_number 120
_symmetry_cell_setting 'tetragonal'
loop_
_space_group_symop_operation_xyz
x,y,z
y,-x,-z
-x,-y,z
-y,x,-z
y,x,1/2-z
-y,-x,1/2-z
-x,y,1/2+z
x,-y,1/2+z
1/2+x,1/2+y,1/2+z
1/2+y,1/2-x,1/2-z
1/2-x,1/2-y,1/2+z
1/2-y,1/2+x,1/2-z
1/2+y,1/2+x,-z
1/2-y,1/2-x,-z
1/2-x,1/2+y,z
1/2+x,1/2-y,z
loop_
_atom_site_type_symbol
_atom_site_label
_atom_site_fract_x
_atom_site_fract_y
_atom_site_fract_z
Si Si1 0.000000 0.000000 0.500000
Si Si2 0.702629 0.444975 0.543345
Si Si3 0.500000 0.000000 0.500000
Si Si4 0.276564 0.776564 0.500000
Si Si5 0.682377 0.054881 0.322260
O O1 0.978124 0.097084 0.413335
O O2 0.704329 0.334982 0.498741
O O3 0.785674 0.456477 0.660813
O O4 0.732107 0.508501 0.410566
O O5 0.410371 0.993034 0.392024
O O6 0.319030 0.833690 0.364767
#
# Coordination Sequence:
#
# PCOD9559940 Si02
#       5
#     4  16   4   8  16
#     4  12  28  54  84 130 168 222 276 358 424 514
#     4  12  27  50  83 120 165 216 282 344 430 507
#     4  10  26  50  80 122 170 216 288 350 428 502
#     4  11  25  49  74 113 165 215 270 338 420 508
#     4  11  27  49  80 120 162 219 272 349 424 509
#
# _framework density 25.922526999999999
#
# number of rings (size 3 to 8) (size 9 to 14) (size 15 to 20)
#    0.000    0.667    3.333    2.000    0.000   17.333 
#    0.000    0.000    0.000    0.000    0.000    0.000 
#    0.000    0.000    0.000    0.000    0.000    0.000 
#
# Total GULP energy -134526.097159 kJ/mol
# GULP energy per Si atom -5605.254048 kJ/mol
# Density = 2.586353 g / cm^3
# Si number density = 25.922527 Si / 1000 Ang^3
#
#
#
# Elastic Constant Matrix: (Units=GPa)
#
#
# Indices 1 2 3 4 5 6 
#
# 1 184.9638 47.5146 24.9709 0.0000 0.0000 0.0000
# 2 47.5146 184.9638 24.9709 0.0000 0.0000 0.0000
# 3 24.9709 24.9709 94.1387 0.0000 0.0000 0.0000
# 4 0.0000 0.0000 0.0000 21.6691 0.0000 0.0000
# 5 0.0000 0.0000 0.0000 0.0000 21.6691 0.0000
# 6 0.0000 0.0000 0.0000 0.0000 0.0000 48.4322
#
#
#
# Elastic Compliance Matrix: (Units=1/GPa)
#
#
# Indices 1 2 3 4 5 6 
#
# 1 0.005918 -0.001357 -0.001210 0.000000 0.000000 0.000000
# 2 -0.001357 0.005918 -0.001210 0.000000 0.000000 0.000000
# 3 -0.001210 -0.001210 0.011265 0.000000 0.000000 0.000000
# 4 0.000000 0.000000 0.000000 0.046149 0.000000 0.000000
# 5 0.000000 0.000000 0.000000 0.000000 0.046149 0.000000
# 6 0.000000 0.000000 0.000000 0.000000 0.000000 0.020647
#
#
# Mechanical properties :
#
#
# Convention : Reuss Voigt Hill
#
# Bulk Modulus (GPa) = 64.31884 73.21991 68.76938
# Shear Modulus (GPa) = 33.60611 42.79474 38.20042
#
# Velocity S-wave (km/s) = 3.60447 4.06750 3.84296
# Velocity P-wave (km/s) = 6.49529 7.09693 6.80276
#
# Compressibility (1/GPa) = 0.01554754
#
# Stress axis : x y z
#
# Youngs Moduli (GPa) = 168.96440 168.96440 88.77435
#
# Poissons Ratio (x) = 0.22929 0.10741
# Poissons Ratio (y) = 0.22929 0.10741
# Poissons Ratio (z) = 0.20444 0.20444
#
# Static dielectric constant tensor:
#      x y z
#    x 2.037020 0.000000 0.000000 
#    y 0.000000 2.037020 0.000000 
#    z 0.000000 0.000000 1.962240 
# 
# From -- ./inp_files/2073.got.cif
#   From: 2010.05.17/outbox.cif.g08.bks.cpg/sg120_2_cif.got.tgz:2073.got - 2010.05.20 11:28:13.
