data_PCOD9559193
_publ_section_title
;
Structure prediction by ZEFSAII (Michael W. Deem and Ramdas Pophale) SiO2 
 PCOD9559193
Probable space group: I -4 M 2
;
_chemical_formula_sum "Si O2"
_cell_formula_units_Z 112
_cell_length_a 14.730301
_cell_length_b 14.730301
_cell_length_c 29.389789
_cell_angle_alpha 90.000000
_cell_angle_beta 90.000000
_cell_angle_gamma 90.000000
_cell_volume 6377.048365
_symmetry_space_group_name_H-M "I -4 M 2"
_symmetry_group_IT_number 119
_symmetry_cell_setting 'tetragonal'
loop_
_space_group_symop_operation_xyz
x,y,z
y,-x,-z
-x,-y,z
-y,x,-z
y,x,-z
-y,-x,-z
-x,y,z
x,-y,z
1/2+x,1/2+y,1/2+z
1/2+y,1/2-x,1/2-z
1/2-x,1/2-y,1/2+z
1/2-y,1/2+x,1/2-z
1/2+y,1/2+x,1/2-z
1/2-y,1/2-x,1/2-z
1/2-x,1/2+y,1/2+z
1/2+x,1/2-y,1/2+z
loop_
_atom_site_type_symbol
_atom_site_label
_atom_site_fract_x
_atom_site_fract_y
_atom_site_fract_z
Si Si1 0.605344 0.605344 0.000000
Si Si2 0.780251 0.607072 0.937903
Si Si3 0.740513 0.891722 0.331778
Si Si4 0.766102 0.396117 0.308085
Si Si5 0.391967 0.108034 0.250000
Si Si6 0.601612 0.606858 0.374886
Si Si7 0.734803 0.395682 0.200340
Si Si8 0.894553 0.774931 0.966089
O O1 0.680728 0.619880 0.960789
O O2 0.615382 0.500000 0.015571
O O3 0.803172 0.500000 0.942873
O O4 0.780665 0.629913 0.884209
O O5 0.850189 0.675741 0.961350
O O6 0.664909 0.863177 0.294548
O O7 0.834480 0.846043 0.317963
O O8 0.747111 0.000000 0.328988
O O9 0.792934 0.500000 0.317330
O O10 0.679979 0.372908 0.338987
O O11 0.737718 0.390728 0.255242
O O12 0.847744 0.327122 0.316094
O O13 0.500000 0.121791 0.257383
O O14 0.500000 0.617556 0.355234
O O15 0.610225 0.500000 0.388328
O O16 0.609125 0.672319 0.417948
O O17 0.728620 0.500000 0.186710
O O18 0.000000 0.770107 0.979982
O O19 0.834993 0.834993 0.000000
#
# Coordination Sequence:
#
# PCOD9559193 Si02
#       8
#     8  16  16  16   8  16  16  16
#     4   9  18  36  62  84 105 140 188 242 295 342
#     4  10  21  38  58  82 110 143 187 232 279 333
#     4  10  21  35  54  81 113 147 185 226 269 327
#     4   9  18  33  52  73 101 138 182 227 269 319
#     4   9  18  34  56  82 116 155 186 218 268 331
#     4   9  18  33  54  79 105 136 175 217 262 320
#     4  10  20  33  49  72 104 141 180 225 275 319
#     4  11  22  36  56  82 111 142 174 214 270 325
#
# _framework density 17.562982999999999
#
# number of rings (size 3 to 8) (size 9 to 14) (size 15 to 20)
#    0.000    2.286    0.714    2.143    0.000    3.286 
#    0.000    9.286    0.000    0.000    0.000    2.000 
#    0.000    0.000    0.000    0.000    0.000    0.000 
#
# Total GULP energy -312361.852937 kJ/mol
# GULP energy per Si atom -5577.890231 kJ/mol
# Density = 1.752301 g / cm^3
# Si number density = 17.562983 Si / 1000 Ang^3
#
#
#
# Elastic Constant Matrix: (Units=GPa)
#
#
# Indices 1 2 3 4 5 6 
#
# 1 90.5847 63.9402 54.1585 0.0000 0.0000 0.0000
# 2 63.9402 90.5840 54.1586 0.0000 0.0000 0.0000
# 3 54.1585 54.1586 72.5743 0.0000 0.0000 0.0000
# 4 0.0000 0.0000 0.0000 27.5871 0.0000 0.0000
# 5 0.0000 0.0000 0.0000 0.0000 27.5870 0.0000
# 6 0.0000 0.0000 0.0000 0.0000 0.0000 31.5418
#
#
#
# Elastic Compliance Matrix: (Units=1/GPa)
#
#
# Indices 1 2 3 4 5 6 
#
# 1 0.025550 -0.011981 -0.010126 0.000000 0.000000 0.000000
# 2 -0.011981 0.025551 -0.010127 0.000000 0.000000 0.000000
# 3 -0.010126 -0.010127 0.028893 0.000000 0.000000 0.000000
# 4 0.000000 0.000000 0.000000 0.036249 0.000000 0.000000
# 5 0.000000 0.000000 0.000000 0.000000 0.036249 0.000000
# 6 0.000000 0.000000 0.000000 0.000000 0.000000 0.031704
#
#
# Mechanical properties :
#
#
# Convention : Reuss Voigt Hill
#
# Bulk Modulus (GPa) = 64.40610 66.47307 65.43958
# Shear Modulus (GPa) = 19.69751 22.77555 21.23653
#
# Velocity S-wave (km/s) = 3.35257 3.60501 3.48108
# Velocity P-wave (km/s) = 7.19287 7.43362 7.31423
#
# Compressibility (1/GPa) = 0.01552648
#
# Stress axis : x y z
#
# Youngs Moduli (GPa) = 39.13818 39.13746 34.61077
#
# Poissons Ratio (x) = 0.46890 0.35048
# Poissons Ratio (y) = 0.46891 0.35049
# Poissons Ratio (z) = 0.39632 0.39633
#
# Static dielectric constant tensor:
#      x y z
#    x 1.592040 0.000000 0.000000 
#    y 0.000000 1.592040 0.000000 
#    z 0.000000 0.000000 1.584250 
# 
# From -- ./inp_files/9661.got.cif
#   From: 2010.05.17/outbox.cif.g08.bks.cpg/sg119_5_cif.got.tgz:9661.got - 2010.05.20 11:21:29.
