data_PCOD9559603
_publ_section_title
;
Structure prediction by ZEFSAII (Michael W. Deem and Ramdas Pophale) SiO2 
 PCOD9559603
Probable space group: I -4 C 2
;
_chemical_formula_sum "Si O2"
_cell_formula_units_Z 120
_cell_length_a 29.012654
_cell_length_b 29.012654
_cell_length_c 7.774430
_cell_angle_alpha 90.000000
_cell_angle_beta 90.000000
_cell_angle_gamma 90.000000
_cell_volume 6544.002778
_symmetry_space_group_name_H-M "I -4 C 2"
_symmetry_group_IT_number 120
_symmetry_cell_setting 'tetragonal'
loop_
_space_group_symop_operation_xyz
x,y,z
y,-x,-z
-x,-y,z
-y,x,-z
y,x,1/2-z
-y,-x,1/2-z
-x,y,1/2+z
x,-y,1/2+z
1/2+x,1/2+y,1/2+z
1/2+y,1/2-x,1/2-z
1/2-x,1/2-y,1/2+z
1/2-y,1/2+x,1/2-z
1/2+y,1/2+x,-z
1/2-y,1/2-x,-z
1/2-x,1/2+y,z
1/2+x,1/2-y,z
loop_
_atom_site_type_symbol
_atom_site_label
_atom_site_fract_x
_atom_site_fract_y
_atom_site_fract_z
Si Si1 0.793654 0.544665 0.010970
Si Si2 0.643860 0.359864 0.450274
Si Si3 0.954180 0.812018 0.040627
Si Si4 0.187286 0.363412 0.144700
Si Si5 0.802275 0.228433 0.436649
Si Si6 0.056548 0.805010 0.951961
Si Si7 0.351445 0.148556 0.000000
Si Si8 0.057586 0.301588 0.398198
O O1 0.738741 0.545303 0.042847
O O2 0.799405 0.558499 0.810616
O O3 0.813665 0.581792 0.142313
O O4 0.813070 0.494158 0.044699
O O5 0.632665 0.367336 0.250000
O O6 0.659070 0.409816 0.523705
O O7 0.685610 0.322956 0.459245
O O8 0.598805 0.334783 0.524415
O O9 0.945986 0.807525 0.244612
O O10 0.007756 0.825163 0.016897
O O11 0.235521 0.344113 0.077161
O O12 0.176842 0.340387 0.327386
O O13 0.151486 0.348515 0.000000
O O14 0.790320 0.209681 0.250000
O O15 0.758103 0.258103 0.500000
O O16 0.065145 0.750000 0.978614
O O17 0.403685 0.162602 0.956996
#
# Coordination Sequence:
#
# PCOD9559603 Si02
#       8
#    16  16  16  16  16  16   8  16
#     4  10  18  39  57  83 114 157 189 251 288 339
#     4  10  20  37  57  79 110 146 188 235 290 348
#     4   9  18  35  56  79 109 142 192 235 291 339
#     4  11  23  39  58  80 121 155 199 245 287 338
#     4  11  25  37  52  78 112 159 192 235 279 343
#     4   9  20  33  56  80 108 149 183 240 288 343
#     4  12  24  36  58  90 115 158 196 242 294 358
#     4  10  21  34  59  84 119 148 197 239 297 347
#
# _framework density 18.337399000000001
#
# number of rings (size 3 to 8) (size 9 to 14) (size 15 to 20)
#    0.000    1.867    2.667    1.200    2.800    2.133 
#    0.000    0.000    0.000    0.400    0.000    3.267 
#    0.000    0.000    0.000    0.000    0.000    0.000 
#
# Total GULP energy -334442.677644 kJ/mol
# GULP energy per Si atom -5574.044627 kJ/mol
# Density = 1.829566 g / cm^3
# Si number density = 18.337399 Si / 1000 Ang^3
#
#
#
# Elastic Constant Matrix: (Units=GPa)
#
#
# Indices 1 2 3 4 5 6 
#
# 1 143.2354 12.0203 7.0579 0.0000 0.0000 0.0000
# 2 12.0203 143.2437 7.0547 0.0000 0.0000 0.0000
# 3 7.0579 7.0547 44.1168 0.0000 0.0000 0.0000
# 4 0.0000 0.0000 0.0000 11.7331 0.0000 0.0000
# 5 0.0000 0.0000 0.0000 0.0000 11.7411 0.0000
# 6 0.0000 0.0000 0.0000 0.0000 0.0000 25.6106
#
#
#
# Elastic Compliance Matrix: (Units=1/GPa)
#
#
# Indices 1 2 3 4 5 6 
#
# 1 0.007079 -0.000542 -0.001046 0.000000 0.000000 0.000000
# 2 -0.000542 0.007078 -0.001045 0.000000 0.000000 0.000000
# 3 -0.001046 -0.001045 0.023001 0.000000 0.000000 0.000000
# 4 0.000000 0.000000 0.000000 0.085229 0.000000 0.000000
# 5 0.000000 0.000000 0.000000 0.000000 0.085171 0.000000
# 6 0.000000 0.000000 0.000000 0.000000 0.000000 0.039046
#
#
# Mechanical properties :
#
#
# Convention : Reuss Voigt Hill
#
# Bulk Modulus (GPa) = 31.35616 42.54018 36.94817
# Shear Modulus (GPa) = 19.04748 30.11449 24.58099
#
# Velocity S-wave (km/s) = 3.22642 4.05686 3.66523
# Velocity P-wave (km/s) = 5.56924 6.72258 6.17290
#
# Compressibility (1/GPa) = 0.03189166
#
# Stress axis : x y z
#
# Youngs Moduli (GPa) = 141.27154 141.28084 43.47544
#
# Poissons Ratio (x) = 0.07664 0.04546
# Poissons Ratio (y) = 0.07664 0.04543
# Poissons Ratio (z) = 0.14773 0.14765
#
# Static dielectric constant tensor:
#      x y z
#    x 1.697610 0.000000 0.000000 
#    y 0.000000 1.697630 0.000000 
#    z 0.000000 0.000000 1.659470 
# 
# From -- ./inp_files/1722.got.cif
#   From: 2010.05.17/outbox.cif.g08.bks.cpg/sg120_1_cif.got.tgz:1722.got - 2010.05.20 11:28:13.
