data_PCOD9559501
_publ_section_title
;
Structure prediction by ZEFSAII (Michael W. Deem and Ramdas Pophale) SiO2 
 PCOD9559501
Probable space group: I -4 M 2
;
_chemical_formula_sum "Si O2"
_cell_formula_units_Z 58
_cell_length_a 10.762653
_cell_length_b 10.762653
_cell_length_c 22.083934
_cell_angle_alpha 90.000000
_cell_angle_beta 90.000000
_cell_angle_gamma 90.000000
_cell_volume 2558.085861
_symmetry_space_group_name_H-M "I -4 M 2"
_symmetry_group_IT_number 119
_symmetry_cell_setting 'tetragonal'
loop_
_space_group_symop_operation_xyz
x,y,z
y,-x,-z
-x,-y,z
-y,x,-z
y,x,-z
-y,-x,-z
-x,y,z
x,-y,z
1/2+x,1/2+y,1/2+z
1/2+y,1/2-x,1/2-z
1/2-x,1/2-y,1/2+z
1/2-y,1/2+x,1/2-z
1/2+y,1/2+x,1/2-z
1/2-y,1/2-x,1/2-z
1/2-x,1/2+y,1/2+z
1/2+x,1/2-y,1/2+z
loop_
_atom_site_type_symbol
_atom_site_label
_atom_site_fract_x
_atom_site_fract_y
_atom_site_fract_z
Si Si1 0.000000 0.691772 0.229638
Si Si2 0.768929 0.725469 0.620895
Si Si3 0.711611 0.000000 0.907777
Si Si4 0.000000 0.000000 0.000000
Si Si5 0.500000 0.646908 0.843900
Si Si6 0.500000 0.205425 0.459559
Si Si7 0.645017 0.854983 0.250000
O O1 0.877493 0.622508 0.250000
O O2 0.000000 0.814205 0.272131
O O3 0.000000 0.654936 0.158870
O O4 0.628580 0.716765 0.597809
O O5 0.833884 0.623587 0.577693
O O6 0.781043 0.678166 0.689608
O O7 0.806514 0.871540 0.624217
O O8 0.649020 0.000000 0.972929
O O9 0.000000 0.857421 0.971526
O O10 0.500000 0.500000 0.847234
O O11 0.500000 0.834879 0.235503
#
# Coordination Sequence:
#
# PCOD9559501 Si02
#       7
#     8  16   8   2   8   8   8
#     4  11  22  44  77 110 141 186 250 323 384 452
#     4  12  24  46  75 113 151 206 256 324 401 461
#     4  12  23  42  79 107 149 193 262 318 383 477
#     4  12  20  44  72 124 144 196 268 336 370 468
#     4  12  27  49  78 112 160 203 259 326 401 477
#     4  12  24  45  77 108 158 199 257 325 395 469
#     4  11  24  44  74 109 162 206 260 323 390 476
#
# _framework density 22.673203000000001
#
# number of rings (size 3 to 8) (size 9 to 14) (size 15 to 20)
#    0.000    0.276    6.897    2.483    0.000    0.552 
#    3.724    0.000   42.483    0.000    0.000    0.000 
#    0.000    0.000    0.000    0.000    0.000    0.000 
#
# Total GULP energy -161454.074781 kJ/mol
# GULP energy per Si atom -5567.381889 kJ/mol
# Density = 2.262160 g / cm^3
# Si number density = 22.673203 Si / 1000 Ang^3
#
#
#
# Elastic Constant Matrix: (Units=GPa)
#
#
# Indices 1 2 3 4 5 6 
#
# 1 125.8127 34.5476 47.3187 0.0000 0.0000 0.0000
# 2 34.5476 125.8127 47.3185 0.0000 0.0000 0.0000
# 3 47.3187 47.3185 205.9913 0.0000 0.0000 0.0000
# 4 0.0000 0.0000 0.0000 -256.7873 0.0000 0.0000
# 5 0.0000 0.0000 0.0000 0.0000 -257.2357 0.0000
# 6 0.0000 0.0000 0.0000 0.0000 0.0000 -16.1598
#
#
#
# Elastic Compliance Matrix: (Units=1/GPa)
#
#
# Indices 1 2 3 4 5 6 
#
# 1 0.009086 -0.001872 -0.001657 0.000000 0.000000 0.000000
# 2 -0.001872 0.009085 -0.001657 0.000000 0.000000 0.000000
# 3 -0.001657 -0.001657 0.005616 0.000000 0.000000 0.000000
# 4 0.000000 0.000000 0.000000 -0.003894 0.000000 0.000000
# 5 0.000000 0.000000 0.000000 0.000000 -0.003887 0.000000
# 6 0.000000 0.000000 0.000000 0.000000 0.000000 -0.061882
#
#
# Mechanical properties :
#
#
# Convention : Reuss Voigt Hill
#
# Bulk Modulus (GPa) = 74.54208 79.55402 77.04805
# Shear Modulus (GPa) = -161.11651 -84.14109 -122.62880
#
# Velocity S-wave (km/s) = -8.43887 -6.09844 -7.36225
# Velocity P-wave (km/s) = 7.87431 3.79796 6.18179
#
# Compressibility (1/GPa) = 0.01341524
#
# Stress axis : x y z
#
# Youngs Moduli (GPa) = 110.06541 110.06550 178.06612
#
# Poissons Ratio (x) = 0.20600 0.29508
# Poissons Ratio (y) = 0.20600 0.29508
# Poissons Ratio (z) = 0.18239 0.18239
#
# Static dielectric constant tensor:
#      x y z
#    x 1.920690 0.000000 0.000000 
#    y 0.000000 1.920630 0.000000 
#    z 0.000000 0.000000 1.928800 
# 
# From -- ./inp_files/7461.got.cif
#   From: 2010.05.17/outbox.cif.g08.bks.cpg/sg119_4_cif.got.tgz:7461.got - 2010.05.20 11:21:29.
