data_PCOD9559480
_publ_section_title
;
Structure prediction by ZEFSAII (Michael W. Deem and Ramdas Pophale) SiO2 
 PCOD9559480
Probable space group: I -4 M 2
;
_chemical_formula_sum "Si O2"
_cell_formula_units_Z 64
_cell_length_a 13.908095
_cell_length_b 13.908095
_cell_length_c 17.342378
_cell_angle_alpha 90.000000
_cell_angle_beta 90.000000
_cell_angle_gamma 90.000000
_cell_volume 3354.624736
_symmetry_space_group_name_H-M "I -4 M 2"
_symmetry_group_IT_number 119
_symmetry_cell_setting 'tetragonal'
loop_
_space_group_symop_operation_xyz
x,y,z
y,-x,-z
-x,-y,z
-y,x,-z
y,x,-z
-y,-x,-z
-x,y,z
x,-y,z
1/2+x,1/2+y,1/2+z
1/2+y,1/2-x,1/2-z
1/2-x,1/2-y,1/2+z
1/2-y,1/2+x,1/2-z
1/2+y,1/2+x,1/2-z
1/2-y,1/2-x,1/2-z
1/2-x,1/2+y,1/2+z
1/2+x,1/2-y,1/2+z
loop_
_atom_site_type_symbol
_atom_site_label
_atom_site_fract_x
_atom_site_fract_y
_atom_site_fract_z
Si Si1 0.200730 0.888112 0.073910
Si Si2 0.114874 0.394722 0.015439
Si Si3 0.300482 0.793635 0.837877
Si Si4 0.614743 0.387178 0.909503
O O1 0.181257 0.809410 0.139219
O O2 0.195283 0.000000 0.096004
O O3 0.132895 0.867106 0.000000
O O4 0.307743 0.863648 0.042290
O O5 0.151551 0.500000 0.992091
O O6 0.153258 0.366480 0.099312
O O7 0.000000 0.398201 0.019163
O O8 0.319437 0.819437 0.750000
O O9 0.324879 0.682100 0.854710
O O10 0.500000 0.371278 0.898526
O O11 0.632827 0.500000 0.897275
O O12 0.635390 0.364611 0.000000
#
# Coordination Sequence:
#
# PCOD9559480 Si02
#       4
#    16  16  16  16
#     4   9  19  36  55  74  96 130 178 219 248 287
#     4   9  18  34  56  77  96 124 165 211 254 296
#     4  11  22  32  48  76 109 139 163 198 251 310
#     4   9  18  34  57  81 101 127 168 213 256 303
#
# _framework density 19.078139
#
# number of rings (size 3 to 8) (size 9 to 14) (size 15 to 20)
#    0.000    2.500    0.000    3.750    0.000    6.250 
#    0.000    1.250    0.000    0.000    0.000    1.750 
#    0.000    0.000    0.000    0.000    0.000    0.000 
#
# Total GULP energy -178573.271623 kJ/mol
# GULP energy per Si atom -5580.414738 kJ/mol
# Density = 1.903472 g / cm^3
# Si number density = 19.078139 Si / 1000 Ang^3
#
#
#
# Elastic Constant Matrix: (Units=GPa)
#
#
# Indices 1 2 3 4 5 6 
#
# 1 50.4750 -7.1352 -16.5932 0.0000 0.0000 0.0000
# 2 -7.1352 50.4731 -16.5923 0.0000 0.0000 0.0000
# 3 -16.5932 -16.5923 23.3854 0.0000 0.0000 0.0000
# 4 0.0000 0.0000 0.0000 10.6991 0.0000 0.0000
# 5 0.0000 0.0000 0.0000 0.0000 10.6993 0.0000
# 6 0.0000 0.0000 0.0000 0.0000 0.0000 28.2607
#
#
#
# Elastic Compliance Matrix: (Units=1/GPa)
#
#
# Indices 1 2 3 4 5 6 
#
# 1 0.033941 0.016583 0.035848 0.000000 0.000000 0.000000
# 2 0.016583 0.033941 0.035848 0.000000 0.000000 0.000000
# 3 0.035848 0.035848 0.093633 0.000000 0.000000 0.000000
# 4 0.000000 0.000000 0.000000 0.093466 0.000000 0.000000
# 5 0.000000 0.000000 0.000000 0.000000 0.093464 0.000000
# 6 0.000000 0.000000 0.000000 0.000000 0.000000 0.035385
#
#
# Mechanical properties :
#
#
# Convention : Reuss Voigt Hill
#
# Bulk Modulus (GPa) = 2.95793 4.85469 3.90631
# Shear Modulus (GPa) = 15.62684 20.90875 18.26780
#
# Velocity S-wave (km/s) = 2.86509 3.31411 3.09775
# Velocity P-wave (km/s) = 3.53536 4.14664 3.85314
#
# Compressibility (1/GPa) = 0.33807422
#
# Stress axis : x y z
#
# Youngs Moduli (GPa) = 29.46309 29.46255 10.67999
#
# Poissons Ratio (x) = -0.48857 -0.38286
# Poissons Ratio (y) = -0.48858 -0.38286
# Poissons Ratio (z) = -1.05621 -1.05618
#
# Static dielectric constant tensor:
#      x y z
#    x 1.702430 0.000000 0.000000 
#    y 0.000000 1.702430 0.000000 
#    z 0.000000 0.000000 1.622420 
# 
# From -- ./inp_files/5063.got.cif
#   From: 2010.05.17/outbox.cif.g08.bks.cpg/sg119_3_cif.got.tgz:5063.got - 2010.05.20 11:21:29.
