data_PCOD9559467
_publ_section_title
;
Structure prediction by ZEFSAII (Michael W. Deem and Ramdas Pophale) SiO2 
 PCOD9559467
Probable space group: I -4 M 2
;
_chemical_formula_sum "Si O2"
_cell_formula_units_Z 48
_cell_length_a 15.656796
_cell_length_b 15.656796
_cell_length_c 9.371992
_cell_angle_alpha 90.000000
_cell_angle_beta 90.000000
_cell_angle_gamma 90.000000
_cell_volume 2297.405705
_symmetry_space_group_name_H-M "I -4 M 2"
_symmetry_group_IT_number 119
_symmetry_cell_setting 'tetragonal'
loop_
_space_group_symop_operation_xyz
x,y,z
y,-x,-z
-x,-y,z
-y,x,-z
y,x,-z
-y,-x,-z
-x,y,z
x,-y,z
1/2+x,1/2+y,1/2+z
1/2+y,1/2-x,1/2-z
1/2-x,1/2-y,1/2+z
1/2-y,1/2+x,1/2-z
1/2+y,1/2+x,1/2-z
1/2-y,1/2-x,1/2-z
1/2-x,1/2+y,1/2+z
1/2+x,1/2-y,1/2+z
loop_
_atom_site_type_symbol
_atom_site_label
_atom_site_fract_x
_atom_site_fract_y
_atom_site_fract_z
Si Si1 0.629980 0.500000 0.793439
Si Si2 0.318081 0.812960 0.077064
Si Si3 0.500000 0.245160 0.444982
Si Si4 0.642949 0.500000 0.292917
Si Si5 0.744818 0.500000 0.028827
O O1 0.720686 0.500000 0.715991
O O2 0.580323 0.416093 0.744660
O O3 0.649588 0.500000 0.959914
O O4 0.307849 0.807849 0.250000
O O5 0.302667 0.911193 0.032714
O O6 0.412405 0.786971 0.024095
O O7 0.249337 0.750664 0.000000
O O8 0.500000 0.328697 0.544558
O O9 0.727926 0.500000 0.197342
#
# Coordination Sequence:
#
# PCOD9559467 Si02
#       5
#     8  16   8   8   8
#     4  11  20  42  64 101 134 180 224 295 358 413
#     4  12  26  47  73 102 142 189 235 290 351 417
#     4  12  26  42  69 102 139 185 235 285 343 421
#     4  11  24  38  68  99 142 174 228 297 362 413
#     4  12  26  42  69 102 139 185 235 285 343 421
#
# _framework density 20.893132000000001
#
# number of rings (size 3 to 8) (size 9 to 14) (size 15 to 20)
#    0.000    0.333    3.333    6.000    4.667    3.333 
#    0.000    1.667    0.000    2.000    0.000    0.000 
#    0.000    0.000    0.000    0.000    0.000    0.000 
#
# Total GULP energy -134212.210254 kJ/mol
# GULP energy per Si atom -5592.175427 kJ/mol
# Density = 2.084558 g / cm^3
# Si number density = 20.893132 Si / 1000 Ang^3
#
#
#
# Elastic Constant Matrix: (Units=GPa)
#
#
# Indices 1 2 3 4 5 6 
#
# 1 148.1624 79.6418 25.1582 0.0000 0.0000 0.0000
# 2 79.6418 148.1616 25.1593 0.0000 0.0000 0.0000
# 3 25.1582 25.1593 64.9677 0.0000 0.0000 0.0000
# 4 0.0000 0.0000 0.0000 28.6008 0.0000 0.0000
# 5 0.0000 0.0000 0.0000 0.0000 28.6005 0.0000
# 6 0.0000 0.0000 0.0000 0.0000 0.0000 -7.8370
#
#
#
# Elastic Compliance Matrix: (Units=1/GPa)
#
#
# Indices 1 2 3 4 5 6 
#
# 1 0.009697 -0.004897 -0.001859 0.000000 0.000000 0.000000
# 2 -0.004897 0.009697 -0.001859 0.000000 0.000000 0.000000
# 3 -0.001859 -0.001859 0.016832 0.000000 0.000000 0.000000
# 4 0.000000 0.000000 0.000000 0.034964 0.000000 0.000000
# 5 0.000000 0.000000 0.000000 0.000000 0.034964 0.000000
# 6 0.000000 0.000000 0.000000 0.000000 0.000000 -0.127601
#
#
# Mechanical properties :
#
#
# Convention : Reuss Voigt Hill
#
# Bulk Modulus (GPa) = 52.64001 69.02339 60.83170
# Shear Modulus (GPa) = 2362.46239 25.29504 1193.87872
#
# Velocity S-wave (km/s) = 33.66290 3.48327 23.93036
# Velocity P-wave (km/s) = 39.19402 7.02037 28.15543
#
# Compressibility (1/GPa) = 0.01899696
#
# Stress axis : x y z
#
# Youngs Moduli (GPa) = 103.12218 103.12094 59.41061
#
# Poissons Ratio (x) = 0.50498 0.11043
# Poissons Ratio (y) = 0.50498 0.11045
# Poissons Ratio (z) = 0.19168 0.19171
#
# Static dielectric constant tensor:
#      x y z
#    x 1.740330 0.000000 0.000000 
#    y 0.000000 1.740320 0.000000 
#    z 0.000000 0.000000 1.714970 
# 
# From -- ./inp_files/3487.got.cif
#   From: 2010.05.17/outbox.cif.g08.bks.cpg/sg119_2_cif.got.tgz:3487.got - 2010.05.20 11:21:29.
