data_PCOD9559517
_publ_section_title
;
Structure prediction by ZEFSAII (Michael W. Deem and Ramdas Pophale) SiO2 
 PCOD9559517
Probable space group: I -4 M 2
;
_chemical_formula_sum "Si O2"
_cell_formula_units_Z 52
_cell_length_a 19.507900
_cell_length_b 19.507900
_cell_length_c 6.634690
_cell_angle_alpha 90.000000
_cell_angle_beta 90.000000
_cell_angle_gamma 90.000000
_cell_volume 2524.885435
_symmetry_space_group_name_H-M "I -4 M 2"
_symmetry_group_IT_number 119
_symmetry_cell_setting 'tetragonal'
loop_
_space_group_symop_operation_xyz
x,y,z
y,-x,-z
-x,-y,z
-y,x,-z
y,x,-z
-y,-x,-z
-x,y,z
x,-y,z
1/2+x,1/2+y,1/2+z
1/2+y,1/2-x,1/2-z
1/2-x,1/2-y,1/2+z
1/2-y,1/2+x,1/2-z
1/2+y,1/2+x,1/2-z
1/2-y,1/2-x,1/2-z
1/2-x,1/2+y,1/2+z
1/2+x,1/2-y,1/2+z
loop_
_atom_site_type_symbol
_atom_site_label
_atom_site_fract_x
_atom_site_fract_y
_atom_site_fract_z
Si Si1 0.000000 0.500000 0.250000
Si Si2 0.279865 0.611991 0.539863
Si Si3 0.140952 0.500000 0.005901
Si Si4 0.291601 0.500000 0.195396
Si Si5 0.500000 0.500000 0.500000
Si Si6 0.363181 0.136820 0.250000
Si Si7 0.000000 0.138898 0.717699
O O1 0.000000 0.427341 0.362355
O O2 0.318057 0.681944 0.500000
O O3 0.291583 0.565634 0.341738
O O4 0.203190 0.629811 0.607146
O O5 0.318355 0.566758 0.710323
O O6 0.137625 0.568293 0.877419
O O7 0.215888 0.500000 0.102928
O O8 0.352301 0.500000 0.026949
O O9 0.500000 0.567090 0.348000
#
# Coordination Sequence:
#
# PCOD9559517 Si02
#       7
#     2  16   8   8   2   8   8
#     4  12  24  34  68 104 128 170 252 280 326 468
#     4  11  25  46  69 107 146 188 250 305 369 453
#     4  12  23  43  66 100 134 184 236 287 365 427
#     4  11  24  47  75  96 151 192 235 309 381 429
#     4  12  24  48  86 108 150 200 252 306 404 468
#     4  12  24  45  71  98 148 192 237 313 370 432
#     4  11  23  50  72 111 148 188 244 314 368 455
#
# _framework density 20.594995000000001
#
# number of rings (size 3 to 8) (size 9 to 14) (size 15 to 20)
#    0.000    0.615    4.615    3.692    0.000    3.692 
#    0.000    4.615    0.000    0.000    0.000    0.000 
#    0.000    0.000    0.000    0.000    0.000    0.000 
#
# Total GULP energy -145201.727738 kJ/mol
# GULP energy per Si atom -5584.681836 kJ/mol
# Density = 2.054812 g / cm^3
# Si number density = 20.594995 Si / 1000 Ang^3
#
#
#
# Elastic Constant Matrix: (Units=GPa)
#
#
# Indices 1 2 3 4 5 6 
#
# 1 149.1199 65.5563 64.6475 0.0000 0.0000 0.0000
# 2 65.5563 149.1081 64.6470 0.0000 0.0000 0.0000
# 3 64.6475 64.6470 132.5497 0.0000 0.0000 0.0000
# 4 0.0000 0.0000 0.0000 21.0222 0.0000 0.0000
# 5 0.0000 0.0000 0.0000 0.0000 20.9940 0.0000
# 6 0.0000 0.0000 0.0000 0.0000 0.0000 22.5719
#
#
#
# Elastic Compliance Matrix: (Units=1/GPa)
#
#
# Indices 1 2 3 4 5 6 
#
# 1 0.009281 -0.002686 -0.003217 0.000000 0.000000 0.000000
# 2 -0.002686 0.009282 -0.003217 0.000000 0.000000 0.000000
# 3 -0.003217 -0.003217 0.010682 0.000000 0.000000 0.000000
# 4 0.000000 0.000000 0.000000 0.047569 0.000000 0.000000
# 5 0.000000 0.000000 0.000000 0.000000 0.047633 0.000000
# 6 0.000000 0.000000 0.000000 0.000000 0.000000 0.044303
#
#
# Mechanical properties :
#
#
# Convention : Reuss Voigt Hill
#
# Bulk Modulus (GPa) = 90.85762 91.16438 91.01100
# Shear Modulus (GPa) = 26.22486 28.64606 27.43546
#
# Velocity S-wave (km/s) = 3.57229 3.73355 3.65381
# Velocity P-wave (km/s) = 7.82478 7.93393 7.87954
#
# Compressibility (1/GPa) = 0.01100623
#
# Stress axis : x y z
#
# Youngs Moduli (GPa) = 107.74274 107.73235 93.61308
#
# Poissons Ratio (x) = 0.28937 0.30113
# Poissons Ratio (y) = 0.28939 0.30117
# Poissons Ratio (z) = 0.34658 0.34659
#
# Static dielectric constant tensor:
#      x y z
#    x 1.655840 0.000000 0.000000 
#    y 0.000000 1.655840 0.000000 
#    z 0.000000 0.000000 1.773220 
# 
# From -- ./inp_files/590.got.cif
#   From: 2010.05.17/outbox.cif.g08.bks.cpg/sg119_1_cif.got.tgz:590.got - 2010.05.20 11:21:29.
