data_PCOD9559248
_publ_section_title
;
Structure prediction by ZEFSAII (Michael W. Deem and Ramdas Pophale) SiO2 
 PCOD9559248
Probable space group: I -4 M 2
;
_chemical_formula_sum "Si O2"
_cell_formula_units_Z 72
_cell_length_a 18.084662
_cell_length_b 18.084662
_cell_length_c 11.222030
_cell_angle_alpha 90.000000
_cell_angle_beta 90.000000
_cell_angle_gamma 90.000000
_cell_volume 3670.221018
_symmetry_space_group_name_H-M "I -4 M 2"
_symmetry_group_IT_number 119
_symmetry_cell_setting 'tetragonal'
loop_
_space_group_symop_operation_xyz
x,y,z
y,-x,-z
-x,-y,z
-y,x,-z
y,x,-z
-y,-x,-z
-x,y,z
x,-y,z
1/2+x,1/2+y,1/2+z
1/2+y,1/2-x,1/2-z
1/2-x,1/2-y,1/2+z
1/2-y,1/2+x,1/2-z
1/2+y,1/2+x,1/2-z
1/2-y,1/2-x,1/2-z
1/2-x,1/2+y,1/2+z
1/2+x,1/2-y,1/2+z
loop_
_atom_site_type_symbol
_atom_site_label
_atom_site_fract_x
_atom_site_fract_y
_atom_site_fract_z
Si Si1 0.911876 0.247500 0.556847
Si Si2 0.416857 0.414318 0.843406
Si Si3 0.915023 0.702908 0.288308
Si Si4 0.304526 0.804526 0.250000
Si Si5 0.856529 0.832818 0.137712
O O1 0.895444 0.162428 0.595142
O O2 0.892664 0.264029 0.418377
O O3 0.866651 0.300790 0.646575
O O4 0.000000 0.258245 0.571433
O O5 0.500000 0.380205 0.867940
O O6 0.425362 0.500000 0.869797
O O7 0.395700 0.399818 0.706962
O O8 0.864332 0.635668 0.250000
O O9 0.904146 0.764040 0.185827
O O10 0.000000 0.681534 0.297894
O O11 0.225754 0.813944 0.185090
O O12 0.849244 0.849244 0.000000
#
# Coordination Sequence:
#
# PCOD9559248 Si02
#       5
#    16  16  16   8  16
#     4   9  20  39  62  92 125 162 214 266 317 383
#     4   9  19  36  58  86 123 163 200 246 305 373
#     4  11  23  41  64  90 121 160 211 269 326 385
#     4  10  20  34  62  87 119 160 204 260 316 368
#     4  11  22  36  57  86 120 160 207 256 310 370
#
# _framework density 19.617348
#
# number of rings (size 3 to 8) (size 9 to 14) (size 15 to 20)
#    0.000    2.000    1.111    2.000    0.000    4.667 
#    0.000   10.000    0.000    8.333    0.000    0.000 
#    0.000    0.000    0.000    0.000    0.000    0.000 
#
# Total GULP energy -200692.451866 kJ/mol
# GULP energy per Si atom -5574.790330 kJ/mol
# Density = 1.957270 g / cm^3
# Si number density = 19.617348 Si / 1000 Ang^3
#
#
#
# Elastic Constant Matrix: (Units=GPa)
#
#
# Indices 1 2 3 4 5 6 
#
# 1 90.1577 50.3803 65.5849 0.0000 0.0000 0.0000
# 2 50.3803 90.1577 65.5839 0.0000 0.0000 0.0000
# 3 65.5849 65.5839 178.1531 0.0000 0.0000 0.0000
# 4 0.0000 0.0000 0.0000 24.6586 0.0000 0.0000
# 5 0.0000 0.0000 0.0000 0.0000 24.6601 0.0000
# 6 0.0000 0.0000 0.0000 0.0000 0.0000 32.5389
#
#
#
# Elastic Compliance Matrix: (Units=1/GPa)
#
#
# Indices 1 2 3 4 5 6 
#
# 1 0.017990 -0.007150 -0.003991 0.000000 0.000000 0.000000
# 2 -0.007150 0.017990 -0.003990 0.000000 0.000000 0.000000
# 3 -0.003991 -0.003990 0.008551 0.000000 0.000000 0.000000
# 4 0.000000 0.000000 0.000000 0.040554 0.000000 0.000000
# 5 0.000000 0.000000 0.000000 0.000000 0.040551 0.000000
# 6 0.000000 0.000000 0.000000 0.000000 0.000000 0.030732
#
#
# Mechanical properties :
#
#
# Convention : Reuss Voigt Hill
#
# Bulk Modulus (GPa) = 70.08186 80.17409 75.12797
# Shear Modulus (GPa) = 26.12500 28.16615 27.14557
#
# Velocity S-wave (km/s) = 3.65325 3.79328 3.72392
# Velocity P-wave (km/s) = 7.32099 7.75519 7.54122
#
# Compressibility (1/GPa) = 0.01426903
#
# Stress axis : x y z
#
# Youngs Moduli (GPa) = 55.58606 55.58677 116.94097
#
# Poissons Ratio (x) = 0.39744 0.46668
# Poissons Ratio (y) = 0.39744 0.46665
# Poissons Ratio (z) = 0.22183 0.22182
#
# Static dielectric constant tensor:
#      x y z
#    x 1.711740 0.000000 0.000000 
#    y 0.000000 1.711740 0.000000 
#    z 0.000000 0.000000 1.738550 
# 
# From -- ./inp_files/3884.got.cif
#   From: 2010.05.17/outbox.cif.g08.bks.cpg/sg119_2_cif.got.tgz:3884.got - 2010.05.20 11:21:29.
