data_PCOD9559889
_publ_section_title
;
Structure prediction by ZEFSAII (Michael W. Deem and Ramdas Pophale) SiO2 
 PCOD9559889
Probable space group: I -4 C 2
;
_chemical_formula_sum "Si O2"
_cell_formula_units_Z 104
_cell_length_a 17.520165
_cell_length_b 17.520165
_cell_length_c 16.691203
_cell_angle_alpha 90.000000
_cell_angle_beta 90.000000
_cell_angle_gamma 90.000000
_cell_volume 5123.467940
_symmetry_space_group_name_H-M "I -4 C 2"
_symmetry_group_IT_number 120
_symmetry_cell_setting 'tetragonal'
loop_
_space_group_symop_operation_xyz
x,y,z
y,-x,-z
-x,-y,z
-y,x,-z
y,x,1/2-z
-y,-x,1/2-z
-x,y,1/2+z
x,-y,1/2+z
1/2+x,1/2+y,1/2+z
1/2+y,1/2-x,1/2-z
1/2-x,1/2-y,1/2+z
1/2-y,1/2+x,1/2-z
1/2+y,1/2+x,-z
1/2-y,1/2-x,-z
1/2-x,1/2+y,z
1/2+x,1/2-y,z
loop_
_atom_site_type_symbol
_atom_site_label
_atom_site_fract_x
_atom_site_fract_y
_atom_site_fract_z
Si Si1 0.152456 0.306803 0.910464
Si Si2 0.700588 0.213602 0.414717
Si Si3 0.117858 0.882143 0.250000
Si Si4 0.019759 0.910648 0.095991
Si Si5 0.141330 0.905565 0.566494
Si Si6 0.979372 0.233120 0.329579
Si Si7 0.861021 0.730014 0.250705
O O1 0.209011 0.232034 0.913980
O O2 0.064332 0.290111 0.889122
O O3 0.188552 0.351939 0.834590
O O4 0.159296 0.340705 0.000000
O O5 0.676725 0.176725 0.500000
O O6 0.655994 0.293659 0.422668
O O7 0.674001 0.184053 0.328067
O O8 0.092160 0.799847 0.279802
O O9 0.061707 0.899889 0.177954
O O10 0.937183 0.872010 0.099433
O O11 0.000000 0.000000 0.083704
O O12 0.068375 0.876415 0.023573
O O13 0.168504 0.979975 0.615750
O O14 0.050121 0.258335 0.274114
O O15 0.807865 0.807865 0.250000
#
# Coordination Sequence:
#
# PCOD9559889 Si02
#       7
#    16  16   8  16  16  16  16
#     4  10  23  40  65  88 128 167 219 269 329 381
#     4   9  21  35  62  81 121 171 215 264 322 370
#     4  12  27  30  54  80 130 152 226 247 308 386
#     4  12  22  34  50  79 125 171 208 252 302 373
#     4  11  22  37  55  82 123 171 214 249 316 388
#     4  11  25  38  60  94 118 171 217 263 320 397
#     4   9  21  42  64  89 134 170 210 264 334 385
#
# _framework density 20.298749999999998
#
# number of rings (size 3 to 8) (size 9 to 14) (size 15 to 20)
#    0.000    1.538    3.077    0.231   18.308    0.000 
#    0.000    1.538    0.000    0.462    0.000    1.077 
#    0.000    0.000    0.000    0.000    0.000    0.000 
#
# Total GULP energy -289889.100266 kJ/mol
# GULP energy per Si atom -5574.790390 kJ/mol
# Density = 2.025255 g / cm^3
# Si number density = 20.298750 Si / 1000 Ang^3
#
#
#
# Elastic Constant Matrix: (Units=GPa)
#
#
# Indices 1 2 3 4 5 6 
#
# 1 51.9446 23.6628 35.1325 0.0000 0.0000 0.0000
# 2 23.6628 51.9442 35.1339 0.0000 0.0000 0.0000
# 3 35.1325 35.1339 191.2003 0.0000 0.0000 0.0000
# 4 0.0000 0.0000 0.0000 18.6412 0.0000 0.0000
# 5 0.0000 0.0000 0.0000 0.0000 18.6507 0.0000
# 6 0.0000 0.0000 0.0000 0.0000 0.0000 25.7865
#
#
#
# Elastic Compliance Matrix: (Units=1/GPa)
#
#
# Indices 1 2 3 4 5 6 
#
# 1 0.025654 -0.009704 -0.002931 0.000000 0.000000 0.000000
# 2 -0.009704 0.025655 -0.002931 0.000000 0.000000 0.000000
# 3 -0.002931 -0.002931 0.006307 0.000000 0.000000 0.000000
# 4 0.000000 0.000000 0.000000 0.053645 0.000000 0.000000
# 5 0.000000 0.000000 0.000000 0.000000 0.053617 0.000000
# 6 0.000000 0.000000 0.000000 0.000000 0.000000 0.038780
#
#
# Mechanical properties :
#
#
# Convention : Reuss Voigt Hill
#
# Bulk Modulus (GPa) = 37.75865 53.66082 45.70974
# Shear Modulus (GPa) = 20.52396 26.02633 23.27515
#
# Velocity S-wave (km/s) = 3.18322 3.58462 3.38987
# Velocity P-wave (km/s) = 5.67031 6.60496 6.15540
#
# Compressibility (1/GPa) = 0.02648400
#
# Stress axis : x y z
#
# Youngs Moduli (GPa) = 38.98010 38.97937 158.54880
#
# Poissons Ratio (x) = 0.37827 0.46465
# Poissons Ratio (y) = 0.37827 0.46471
# Poissons Ratio (z) = 0.11424 0.11425
#
# Static dielectric constant tensor:
#      x y z
#    x 1.760910 0.000000 0.000000 
#    y 0.000000 1.760910 0.000000 
#    z 0.000000 0.000000 1.800400 
# 
# From -- ./inp_files/4531.got.cif
#   From: 2010.05.17/outbox.cif.g08.bks.cpg/sg120_3_cif.got.tgz:4531.got - 2010.05.20 11:28:13.
