data_PCOD9559251
_publ_section_title
;
Structure prediction by ZEFSAII (Michael W. Deem and Ramdas Pophale) SiO2 
 PCOD9559251
Probable space group: I -4 M 2
;
_chemical_formula_sum "Si O2"
_cell_formula_units_Z 96
_cell_length_a 23.615618
_cell_length_b 23.615618
_cell_length_c 9.356323
_cell_angle_alpha 90.000000
_cell_angle_beta 90.000000
_cell_angle_gamma 90.000000
_cell_volume 5217.997137
_symmetry_space_group_name_H-M "I -4 M 2"
_symmetry_group_IT_number 119
_symmetry_cell_setting 'tetragonal'
loop_
_space_group_symop_operation_xyz
x,y,z
y,-x,-z
-x,-y,z
-y,x,-z
y,x,-z
-y,-x,-z
-x,y,z
x,-y,z
1/2+x,1/2+y,1/2+z
1/2+y,1/2-x,1/2-z
1/2-x,1/2-y,1/2+z
1/2-y,1/2+x,1/2-z
1/2+y,1/2+x,1/2-z
1/2-y,1/2-x,1/2-z
1/2-x,1/2+y,1/2+z
1/2+x,1/2-y,1/2+z
loop_
_atom_site_type_symbol
_atom_site_label
_atom_site_fract_x
_atom_site_fract_y
_atom_site_fract_z
Si Si1 0.369016 0.937405 0.365989
Si Si2 0.355732 0.266013 0.993322
Si Si3 0.934085 0.255995 0.242334
Si Si4 0.596660 0.240354 0.292322
Si Si5 0.161033 0.064533 0.003066
Si Si6 0.352980 0.827554 0.554119
O O1 0.413647 0.913647 0.250000
O O2 0.310128 0.940149 0.276751
O O3 0.362647 0.891421 0.493570
O O4 0.383296 0.000000 0.418044
O O5 0.411983 0.263577 0.896981
O O6 0.319725 0.214228 0.925781
O O7 0.325355 0.325355 0.000000
O O8 0.364366 0.253400 0.158748
O O9 0.928012 0.203269 0.132689
O O10 0.894304 0.306421 0.179939
O O11 0.000000 0.272641 0.244522
O O12 0.570048 0.296883 0.359695
O O13 0.630193 0.211635 0.420884
O O14 0.138694 0.000000 0.999080
O O15 0.112331 0.112331 0.000000
#
# Coordination Sequence:
#
# PCOD9559251 Si02
#       6
#    16  16  16  16  16  16
#     4   9  17  30  49  75 104 133 175 226 267 307
#     4  11  21  33  53  82 110 135 173 227 277 318
#     4  10  22  38  54  76 110 148 180 212 263 330
#     4   9  19  35  52  73 101 138 175 209 257 319
#     4  10  20  35  55  77 102 134 171 212 260 315
#     4   9  20  35  52  76 105 141 177 215 267 316
#
# _framework density 18.397863000000001
#
# number of rings (size 3 to 8) (size 9 to 14) (size 15 to 20)
#    0.000    2.333    0.000    3.500    0.000   13.000 
#    0.000    0.000    0.000    0.000    0.000    0.000 
#    0.000    4.000    0.000    0.000    0.000    0.000 
#
# Total GULP energy -267281.465693 kJ/mol
# GULP energy per Si atom -5568.363869 kJ/mol
# Density = 1.835599 g / cm^3
# Si number density = 18.397863 Si / 1000 Ang^3
#
#
#
# Elastic Constant Matrix: (Units=GPa)
#
#
# Indices 1 2 3 4 5 6 
#
# 1 66.4043 43.9461 12.6368 0.0000 0.0000 0.0000
# 2 43.9461 66.4043 12.6368 0.0000 0.0000 0.0000
# 3 12.6368 12.6368 63.4623 0.0000 0.0000 0.0000
# 4 0.0000 0.0000 0.0000 8.6220 0.0000 0.0000
# 5 0.0000 0.0000 0.0000 0.0000 8.6220 0.0000
# 6 0.0000 0.0000 0.0000 0.0000 0.0000 10.8415
#
#
#
# Elastic Compliance Matrix: (Units=1/GPa)
#
#
# Indices 1 2 3 4 5 6 
#
# 1 0.027011 -0.017516 -0.001891 0.000000 0.000000 0.000000
# 2 -0.017516 0.027011 -0.001891 0.000000 0.000000 0.000000
# 3 -0.001891 -0.001891 0.016510 0.000000 0.000000 0.000000
# 4 0.000000 0.000000 0.000000 0.115983 0.000000 0.000000
# 5 0.000000 0.000000 0.000000 0.000000 0.115983 0.000000
# 6 0.000000 0.000000 0.000000 0.000000 0.000000 0.092238
#
#
# Mechanical properties :
#
#
# Convention : Reuss Voigt Hill
#
# Bulk Modulus (GPa) = 35.79386 37.19001 36.49193
# Shear Modulus (GPa) = 11.19461 14.08717 12.64089
#
# Velocity S-wave (km/s) = 2.46940 2.77012 2.62407
# Velocity P-wave (km/s) = 5.25626 5.52174 5.39064
#
# Compressibility (1/GPa) = 0.02793775
#
# Stress axis : x y z
#
# Youngs Moduli (GPa) = 37.02180 37.02180 60.56804
#
# Poissons Ratio (x) = 0.64848 0.11452
# Poissons Ratio (y) = 0.64848 0.11452
# Poissons Ratio (z) = 0.07000 0.07000
#
# Static dielectric constant tensor:
#      x y z
#    x 1.662700 0.000000 0.000000 
#    y 0.000000 1.662700 0.000000 
#    z 0.000000 0.000000 1.657000 
# 
# From -- ./inp_files/2681.got.cif
#   From: 2010.05.17/outbox.cif.g08.bks.cpg/sg119_2_cif.got.tgz:2681.got - 2010.05.20 11:21:29.
