data_PCOD9559513
_publ_section_title
;
Structure prediction by ZEFSAII (Michael W. Deem and Ramdas Pophale) SiO2 
 PCOD9559513
Probable space group: I -4 M 2
;
_chemical_formula_sum "Si O2"
_cell_formula_units_Z 52
_cell_length_a 14.930968
_cell_length_b 14.930968
_cell_length_c 11.667700
_cell_angle_alpha 90.000000
_cell_angle_beta 90.000000
_cell_angle_gamma 90.000000
_cell_volume 2601.124761
_symmetry_space_group_name_H-M "I -4 M 2"
_symmetry_group_IT_number 119
_symmetry_cell_setting 'tetragonal'
loop_
_space_group_symop_operation_xyz
x,y,z
y,-x,-z
-x,-y,z
-y,x,-z
y,x,-z
-y,-x,-z
-x,y,z
x,-y,z
1/2+x,1/2+y,1/2+z
1/2+y,1/2-x,1/2-z
1/2-x,1/2-y,1/2+z
1/2-y,1/2+x,1/2-z
1/2+y,1/2+x,1/2-z
1/2-y,1/2-x,1/2-z
1/2-x,1/2+y,1/2+z
1/2+x,1/2-y,1/2+z
loop_
_atom_site_type_symbol
_atom_site_label
_atom_site_fract_x
_atom_site_fract_y
_atom_site_fract_z
Si Si1 0.000000 0.853141 0.702803
Si Si2 0.500000 0.500000 0.000000
Si Si3 0.281047 0.161310 0.572453
Si Si4 0.397359 0.691302 0.694152
Si Si5 0.500000 0.163670 0.078360
Si Si6 0.500000 0.000000 0.250000
O O1 0.910688 0.869070 0.778250
O O2 0.000000 0.754486 0.651448
O O3 0.000000 0.917768 0.590328
O O4 0.197230 0.197230 0.500000
O O5 0.336623 0.249118 0.610161
O O6 0.242830 0.113058 0.684786
O O7 0.335723 0.089038 0.499617
O O8 0.500000 0.691657 0.656062
O O9 0.500000 0.084352 0.167279
#
# Coordination Sequence:
#
# PCOD9559513 Si02
#       6
#     8   2  16  16   8   2
#     4  12  22  38  74 100 138 161 226 297 332 401
#     4  12  20  36  72 112 126 168 216 276 372 396
#     4  11  24  42  70  98 136 180 221 283 342 397
#     4  11  23  42  66 105 135 174 226 278 343 408
#     4  12  26  48  67  99 135 182 236 275 341 398
#     4  12  36  44  68  94 136 196 240 280 316 418
#
# _framework density 19.991351999999999
#
# number of rings (size 3 to 8) (size 9 to 14) (size 15 to 20)
#    0.000    0.615    6.154    1.846    6.462    0.000 
#    2.769    0.000    0.000    0.000    0.000    0.000 
#    0.000    0.000    0.000    0.000    0.000    0.000 
#
# Total GULP energy -145368.559234 kJ/mol
# GULP energy per Si atom -5591.098432 kJ/mol
# Density = 1.994585 g / cm^3
# Si number density = 19.991352 Si / 1000 Ang^3
#
#
#
# Elastic Constant Matrix: (Units=GPa)
#
#
# Indices 1 2 3 4 5 6 
#
# 1 127.3531 59.2881 43.5663 0.0000 0.0000 0.0000
# 2 59.2881 127.3531 43.5663 0.0000 0.0000 0.0000
# 3 43.5663 43.5663 74.9176 0.0000 0.0000 0.0000
# 4 0.0000 0.0000 0.0000 29.7080 0.0000 0.0000
# 5 0.0000 0.0000 0.0000 0.0000 29.7080 0.0000
# 6 0.0000 0.0000 0.0000 0.0000 0.0000 24.7309
#
#
#
# Elastic Compliance Matrix: (Units=1/GPa)
#
#
# Indices 1 2 3 4 5 6 
#
# 1 0.011023 -0.003669 -0.004277 0.000000 0.000000 0.000000
# 2 -0.003669 0.011023 -0.004277 0.000000 0.000000 0.000000
# 3 -0.004277 -0.004277 0.018322 0.000000 0.000000 0.000000
# 4 0.000000 0.000000 0.000000 0.033661 0.000000 0.000000
# 5 0.000000 0.000000 0.000000 0.000000 0.033661 0.000000
# 6 0.000000 0.000000 0.000000 0.000000 0.000000 0.040435
#
#
# Mechanical properties :
#
#
# Convention : Reuss Voigt Hill
#
# Bulk Modulus (GPa) = 62.79881 69.16281 65.98081
# Shear Modulus (GPa) = 28.10912 29.04291 28.57602
#
# Velocity S-wave (km/s) = 3.75382 3.81566 3.78487
# Velocity P-wave (km/s) = 7.09009 7.35417 7.22334
#
# Compressibility (1/GPa) = 0.01592387
#
# Stress axis : x y z
#
# Youngs Moduli (GPa) = 90.71806 90.71806 54.57888
#
# Poissons Ratio (x) = 0.33282 0.23342
# Poissons Ratio (y) = 0.33282 0.23342
# Poissons Ratio (z) = 0.38798 0.38798
#
# Static dielectric constant tensor:
#      x y z
#    x 1.680410 0.000000 0.000000 
#    y 0.000000 1.680410 0.000000 
#    z 0.000000 0.000000 1.678330 
# 
# From -- ./inp_files/3579.got.cif
#   From: 2010.05.17/outbox.cif.g08.bks.cpg/sg119_2_cif.got.tgz:3579.got - 2010.05.20 11:21:29.
