data_PCOD9559365
_publ_section_title
;
Structure prediction by ZEFSAII (Michael W. Deem and Ramdas Pophale) SiO2 
 PCOD9559365
Probable space group: I -4 M 2
;
_chemical_formula_sum "Si O2"
_cell_formula_units_Z 64
_cell_length_a 14.607616
_cell_length_b 14.607616
_cell_length_c 15.721667
_cell_angle_alpha 90.000000
_cell_angle_beta 90.000000
_cell_angle_gamma 90.000000
_cell_volume 3354.727747
_symmetry_space_group_name_H-M "I -4 M 2"
_symmetry_group_IT_number 119
_symmetry_cell_setting 'tetragonal'
loop_
_space_group_symop_operation_xyz
x,y,z
y,-x,-z
-x,-y,z
-y,x,-z
y,x,-z
-y,-x,-z
-x,y,z
x,-y,z
1/2+x,1/2+y,1/2+z
1/2+y,1/2-x,1/2-z
1/2-x,1/2-y,1/2+z
1/2-y,1/2+x,1/2-z
1/2+y,1/2+x,1/2-z
1/2-y,1/2-x,1/2-z
1/2-x,1/2+y,1/2+z
1/2+x,1/2-y,1/2+z
loop_
_atom_site_type_symbol
_atom_site_label
_atom_site_fract_x
_atom_site_fract_y
_atom_site_fract_z
Si Si1 0.289288 0.282384 0.592743
Si Si2 0.395776 0.107641 0.852277
Si Si3 0.897135 0.108372 0.232206
Si Si4 0.810595 0.105951 0.415982
O O1 0.318412 0.318412 0.500000
O O2 0.330931 0.180822 0.604801
O O3 0.327542 0.341076 0.670069
O O4 0.179841 0.270631 0.591399
O O5 0.500000 0.134704 0.873572
O O6 0.385051 0.114950 0.750000
O O7 0.384423 0.000000 0.873482
O O8 0.870260 0.119443 0.330603
O O9 0.000000 0.144266 0.217756
O O10 0.895992 0.000000 0.214521
O O11 0.867437 0.132564 0.500000
O O12 0.782343 0.000000 0.419611
#
# Coordination Sequence:
#
# PCOD9559365 Si02
#       4
#    16  16  16  16
#     4  11  23  35  53  79 112 153 188 220 262 320
#     4   9  18  34  58  85 108 132 169 224 289 343
#     4  10  21  37  58  83 111 145 184 227 275 325
#     4  10  21  37  58  84 112 142 179 229 287 337
#
# _framework density 19.077553999999999
#
# number of rings (size 3 to 8) (size 9 to 14) (size 15 to 20)
#    0.000    2.000    0.000    4.500    0.000   10.250 
#    0.000    1.250    0.000    0.750    0.000    3.500 
#    0.000    0.000    0.000    0.000    0.000    0.000 
#
# Total GULP energy -178768.975521 kJ/mol
# GULP energy per Si atom -5586.530485 kJ/mol
# Density = 1.903413 g / cm^3
# Si number density = 19.077554 Si / 1000 Ang^3
#
#
#
# Elastic Constant Matrix: (Units=GPa)
#
#
# Indices 1 2 3 4 5 6 
#
# 1 68.1679 43.4356 60.2476 0.0000 0.0000 0.0000
# 2 43.4356 68.1683 60.2476 0.0000 0.0000 0.0000
# 3 60.2476 60.2476 124.3060 0.0000 0.0000 0.0000
# 4 0.0000 0.0000 0.0000 12.6905 0.0000 0.0000
# 5 0.0000 0.0000 0.0000 0.0000 12.6915 0.0000
# 6 0.0000 0.0000 0.0000 0.0000 0.0000 21.7980
#
#
#
# Elastic Compliance Matrix: (Units=1/GPa)
#
#
# Indices 1 2 3 4 5 6 
#
# 1 0.029614 -0.010818 -0.009110 0.000000 0.000000 0.000000
# 2 -0.010818 0.029614 -0.009110 0.000000 0.000000 0.000000
# 3 -0.009110 -0.009110 0.016875 0.000000 0.000000 0.000000
# 4 0.000000 0.000000 0.000000 0.078799 0.000000 0.000000
# 5 0.000000 0.000000 0.000000 0.000000 0.078793 0.000000
# 6 0.000000 0.000000 0.000000 0.000000 0.000000 0.045876
#
#
# Mechanical properties :
#
#
# Convention : Reuss Voigt Hill
#
# Bulk Modulus (GPa) = 55.47030 65.38931 60.42980
# Shear Modulus (GPa) = 14.54940 15.88342 15.21641
#
# Velocity S-wave (km/s) = 2.76460 2.88856 2.82726
# Velocity P-wave (km/s) = 6.27136 6.74351 6.51172
#
# Compressibility (1/GPa) = 0.01802767
#
# Stress axis : x y z
#
# Youngs Moduli (GPa) = 33.76740 33.76774 59.25841
#
# Poissons Ratio (x) = 0.36531 0.53984
# Poissons Ratio (y) = 0.36531 0.53983
# Poissons Ratio (z) = 0.30762 0.30762
#
# Static dielectric constant tensor:
#      x y z
#    x 1.672190 0.000000 0.000000 
#    y 0.000000 1.672190 0.000000 
#    z 0.000000 0.000000 1.657450 
# 
# From -- ./inp_files/5052.got.cif
#   From: 2010.05.17/outbox.cif.g08.bks.cpg/sg119_3_cif.got.tgz:5052.got - 2010.05.20 11:21:29.
