data_PCOD9559967
_publ_section_title
;
Structure prediction by ZEFSAII (Michael W. Deem and Ramdas Pophale) SiO2 
 PCOD9559967
Probable space group: I -4 C 2
;
_chemical_formula_sum "Si O2"
_cell_formula_units_Z 40
_cell_length_a 14.251519
_cell_length_b 14.251519
_cell_length_c 7.790625
_cell_angle_alpha 90.000000
_cell_angle_beta 90.000000
_cell_angle_gamma 90.000000
_cell_volume 1582.321075
_symmetry_space_group_name_H-M "I -4 C 2"
_symmetry_group_IT_number 120
_symmetry_cell_setting 'tetragonal'
loop_
_space_group_symop_operation_xyz
x,y,z
y,-x,-z
-x,-y,z
-y,x,-z
y,x,1/2-z
-y,-x,1/2-z
-x,y,1/2+z
x,-y,1/2+z
1/2+x,1/2+y,1/2+z
1/2+y,1/2-x,1/2-z
1/2-x,1/2-y,1/2+z
1/2-y,1/2+x,1/2-z
1/2+y,1/2+x,-z
1/2-y,1/2-x,-z
1/2-x,1/2+y,z
1/2+x,1/2-y,z
loop_
_atom_site_type_symbol
_atom_site_label
_atom_site_fract_x
_atom_site_fract_y
_atom_site_fract_z
Si Si1 0.888657 0.896269 0.952039
Si Si2 0.104262 0.387460 0.703710
Si Si3 0.284011 0.784011 0.000000
O O1 0.886671 0.886671 0.750000
O O2 0.814756 0.823281 0.027614
O O3 0.994849 0.871582 0.006980
O O4 0.127385 0.493717 0.760971
O O5 0.119461 0.380540 0.500000
O O6 0.160043 0.319748 0.831709
#
# Coordination Sequence:
#
# PCOD9559967 Si02
#       3
#    16  16   8
#     4  11  28  56  83 118 169 219 268 346 416 489
#     4  11  21  41  69 113 169 213 260 340 420 476
#     4  12  28  49  84 123 150 220 284 336 400 510
#
# _framework density 25.279319000000001
#
# number of rings (size 3 to 8) (size 9 to 14) (size 15 to 20)
#    0.000    0.800    4.000    3.600    5.600    3.200 
#   10.800    0.000    0.000    0.000    0.000    0.000 
#    0.000    0.000    0.000    0.000    0.000    0.000 
#
# Total GULP energy -112338.312011 kJ/mol
# GULP energy per Si atom -5616.915601 kJ/mol
# Density = 2.522178 g / cm^3
# Si number density = 25.279319 Si / 1000 Ang^3
#
#
#
# Elastic Constant Matrix: (Units=GPa)
#
#
# Indices 1 2 3 4 5 6 
#
# 1 145.4330 111.0121 39.3705 0.0000 0.0000 0.0000
# 2 111.0121 145.4322 39.3695 0.0000 0.0000 0.0000
# 3 39.3705 39.3695 190.1930 0.0000 0.0000 0.0000
# 4 0.0000 0.0000 0.0000 9.5543 0.0000 0.0000
# 5 0.0000 0.0000 0.0000 0.0000 9.5540 0.0000
# 6 0.0000 0.0000 0.0000 0.0000 0.0000 37.6576
#
#
#
# Elastic Compliance Matrix: (Units=1/GPa)
#
#
# Indices 1 2 3 4 5 6 
#
# 1 0.016608 -0.012444 -0.000862 0.000000 0.000000 0.000000
# 2 -0.012444 0.016608 -0.000862 0.000000 0.000000 0.000000
# 3 -0.000862 -0.000862 0.005615 0.000000 0.000000 0.000000
# 4 0.000000 0.000000 0.000000 0.104665 0.000000 0.000000
# 5 0.000000 0.000000 0.000000 0.000000 0.104668 0.000000
# 6 0.000000 0.000000 0.000000 0.000000 0.000000 0.026555
#
#
# Mechanical properties :
#
#
# Convention : Reuss Voigt Hill
#
# Bulk Modulus (GPa) = 95.28306 95.61806 95.45056
# Shear Modulus (GPa) = 16.31032 30.77358 23.54195
#
# Velocity S-wave (km/s) = 2.54284 3.49283 3.05499
# Velocity P-wave (km/s) = 6.81141 7.36024 7.09114
#
# Compressibility (1/GPa) = 0.01049505
#
# Stress axis : x y z
#
# Youngs Moduli (GPa) = 60.21089 60.21073 178.10469
#
# Poissons Ratio (x) = 0.74927 0.15354
# Poissons Ratio (y) = 0.74927 0.15351
# Poissons Ratio (z) = 0.05190 0.05190
#
# Static dielectric constant tensor:
#      x y z
#    x 2.069160 0.000000 0.000000 
#    y 0.000000 2.069160 0.000000 
#    z 0.000000 0.000000 1.920420 
# 
# From -- ./inp_files/704.got.cif
#   From: 2010.05.17/outbox.cif.g08.bks.cpg/sg120_1_cif.got.tgz:704.got - 2010.05.20 11:28:13.
