data_PCOD9559839
_publ_section_title
;
Structure prediction by ZEFSAII (Michael W. Deem and Ramdas Pophale) SiO2 
 PCOD9559839
Probable space group: I -4 C 2
;
_chemical_formula_sum "Si O2"
_cell_formula_units_Z 64
_cell_length_a 19.503760
_cell_length_b 19.503760
_cell_length_c 9.717020
_cell_angle_alpha 90.000000
_cell_angle_beta 90.000000
_cell_angle_gamma 90.000000
_cell_volume 3696.321896
_symmetry_space_group_name_H-M "I -4 C 2"
_symmetry_group_IT_number 120
_symmetry_cell_setting 'tetragonal'
loop_
_space_group_symop_operation_xyz
x,y,z
y,-x,-z
-x,-y,z
-y,x,-z
y,x,1/2-z
-y,-x,1/2-z
-x,y,1/2+z
x,-y,1/2+z
1/2+x,1/2+y,1/2+z
1/2+y,1/2-x,1/2-z
1/2-x,1/2-y,1/2+z
1/2-y,1/2+x,1/2-z
1/2+y,1/2+x,-z
1/2-y,1/2-x,-z
1/2-x,1/2+y,z
1/2+x,1/2-y,z
loop_
_atom_site_type_symbol
_atom_site_label
_atom_site_fract_x
_atom_site_fract_y
_atom_site_fract_z
Si Si1 0.854055 0.242946 0.336671
Si Si2 0.794615 0.006411 0.283043
Si Si3 0.144274 0.759185 0.661962
Si Si4 0.514990 0.611370 0.968383
O O1 0.816288 0.183713 0.250000
O O2 0.931520 0.247000 0.283916
O O3 0.852409 0.225738 0.498737
O O4 0.809727 0.311718 0.314995
O O5 0.755353 0.934781 0.295832
O O6 0.824624 0.027048 0.431181
O O7 0.860318 0.993798 0.184553
O O8 0.181769 0.818232 0.750000
O O9 0.574205 0.555316 0.985552
#
# Coordination Sequence:
#
# PCOD9559839 Si02
#       4
#    16  16  16  16
#     4  10  22  39  59  83 112 148 193 239 281 332
#     4  12  22  35  56  81 110 154 186 228 280 332
#     4  10  22  39  59  83 112 148 193 239 281 332
#     4  11  22  34  50  78 116 151 186 218 264 335
#
# _framework density 17.314508
#
# number of rings (size 3 to 8) (size 9 to 14) (size 15 to 20)
#    0.000    1.250    2.500    4.500    3.500    2.000 
#    0.000    0.000    0.000    0.750    0.000    3.500 
#    0.000    0.000    0.000    0.000    0.000    0.000 
#
# Total GULP energy -178858.396133 kJ/mol
# GULP energy per Si atom -5589.324879 kJ/mol
# Density = 1.727510 g / cm^3
# Si number density = 17.314508 Si / 1000 Ang^3
#
#
#
# Elastic Constant Matrix: (Units=GPa)
#
#
# Indices 1 2 3 4 5 6 
#
# 1 101.7428 50.2853 35.1348 0.0000 0.0000 0.0000
# 2 50.2853 101.7420 35.1356 0.0000 0.0000 0.0000
# 3 35.1348 35.1356 68.8750 0.0000 0.0000 0.0000
# 4 0.0000 0.0000 0.0000 27.2379 0.0000 0.0000
# 5 0.0000 0.0000 0.0000 0.0000 27.2379 0.0000
# 6 0.0000 0.0000 0.0000 0.0000 0.0000 22.6515
#
#
#
# Elastic Compliance Matrix: (Units=1/GPa)
#
#
# Indices 1 2 3 4 5 6 
#
# 1 0.014020 -0.005413 -0.004391 0.000000 0.000000 0.000000
# 2 -0.005413 0.014021 -0.004391 0.000000 0.000000 0.000000
# 3 -0.004391 -0.004391 0.018999 0.000000 0.000000 0.000000
# 4 0.000000 0.000000 0.000000 0.036714 0.000000 0.000000
# 5 0.000000 0.000000 0.000000 0.000000 0.036714 0.000000
# 6 0.000000 0.000000 0.000000 0.000000 0.000000 0.044147
#
#
# Mechanical properties :
#
#
# Convention : Reuss Voigt Hill
#
# Bulk Modulus (GPa) = 53.61910 57.05238 55.33574
# Shear Modulus (GPa) = 25.09782 25.54574 25.32178
#
# Velocity S-wave (km/s) = 3.81139 3.84525 3.82836
# Velocity P-wave (km/s) = 7.09957 7.26201 7.18125
#
# Compressibility (1/GPa) = 0.01865007
#
# Stress axis : x y z
#
# Youngs Moduli (GPa) = 71.32489 71.32352 52.63478
#
# Poissons Ratio (x) = 0.38609 0.23110
# Poissons Ratio (y) = 0.38610 0.23112
# Poissons Ratio (z) = 0.31316 0.31318
#
# Static dielectric constant tensor:
#      x y z
#    x 1.584020 0.000000 0.000000 
#    y 0.000000 1.584010 0.000000 
#    z 0.000000 0.000000 1.591770 
# 
# From -- ./inp_files/1245.got.cif
#   From: 2010.05.17/outbox.cif.g08.bks.cpg/sg120_1_cif.got.tgz:1245.got - 2010.05.20 11:28:13.
