data_PCOD9559959
_publ_section_title
;
Structure prediction by ZEFSAII (Michael W. Deem and Ramdas Pophale) SiO2 
 PCOD9559959
Probable space group: I -4 C 2
;
_chemical_formula_sum "Si O2"
_cell_formula_units_Z 112
_cell_length_a 13.878352
_cell_length_b 13.878352
_cell_length_c 27.643326
_cell_angle_alpha 90.000000
_cell_angle_beta 90.000000
_cell_angle_gamma 90.000000
_cell_volume 5324.343819
_symmetry_space_group_name_H-M "I -4 C 2"
_symmetry_group_IT_number 120
_symmetry_cell_setting 'tetragonal'
loop_
_space_group_symop_operation_xyz
x,y,z
y,-x,-z
-x,-y,z
-y,x,-z
y,x,1/2-z
-y,-x,1/2-z
-x,y,1/2+z
x,-y,1/2+z
1/2+x,1/2+y,1/2+z
1/2+y,1/2-x,1/2-z
1/2-x,1/2-y,1/2+z
1/2-y,1/2+x,1/2-z
1/2+y,1/2+x,-z
1/2-y,1/2-x,-z
1/2-x,1/2+y,z
1/2+x,1/2-y,z
loop_
_atom_site_type_symbol
_atom_site_label
_atom_site_fract_x
_atom_site_fract_y
_atom_site_fract_z
Si Si1 0.225792 0.664173 0.653312
Si Si2 0.500382 0.752164 0.921322
Si Si3 0.848173 0.885917 0.383634
Si Si4 0.900062 0.548243 0.406058
Si Si5 0.852620 0.542369 0.241882
Si Si6 0.223655 0.057376 0.830601
Si Si7 0.223855 0.576937 0.477735
O O1 0.221900 0.599599 0.605064
O O2 0.176153 0.766755 0.644235
O O3 0.173907 0.601622 0.694363
O O4 0.335114 0.684548 0.667691
O O5 0.552566 0.668960 0.891268
O O6 0.571689 0.843550 0.919830
O O7 0.478533 0.730233 0.976944
O O8 0.802169 0.901392 0.436808
O O9 0.852641 0.984148 0.353630
O O10 0.817235 0.547679 0.365714
O O11 0.857644 0.488471 0.451379
O O12 0.000000 0.500000 0.389292
O O13 0.897132 0.437534 0.231694
O O14 0.761984 0.532961 0.277360
O O15 0.170014 0.670014 0.500000
#
# Coordination Sequence:
#
# PCOD9559959 Si02
#       7
#    16  16  16  16  16  16  16
#     4  12  24  45  68  97 137 182 219 278 348 414
#     4  12  24  41  67  95 132 182 227 277 342 409
#     4  11  25  45  65  98 138 178 228 282 339 412
#     4  11  21  36  66  99 130 168 221 288 341 385
#     4  11  24  40  72 107 135 169 223 290 348 404
#     4  11  24  44  66  96 138 179 221 274 337 421
#     4  11  22  37  63  99 133 169 224 288 339 408
#
# _framework density 21.035454999999999
#
# number of rings (size 3 to 8) (size 9 to 14) (size 15 to 20)
#    0.000    0.714    5.714    2.571    2.000    4.000 
#    0.000    0.714    0.000    1.714    0.000    0.000 
#    0.000    0.000    0.000    0.000    0.000    0.000 
#
# Total GULP energy -313350.965277 kJ/mol
# GULP energy per Si atom -5595.552951 kJ/mol
# Density = 2.098758 g / cm^3
# Si number density = 21.035455 Si / 1000 Ang^3
#
#
#
# Elastic Constant Matrix: (Units=GPa)
#
#
# Indices 1 2 3 4 5 6 
#
# 1 50.2791 14.3213 5.7191 0.0000 0.0000 0.0000
# 2 14.3213 50.2791 5.7191 0.0000 0.0000 0.0000
# 3 5.7191 5.7191 73.2415 0.0000 0.0000 0.0000
# 4 0.0000 0.0000 0.0000 24.3137 0.0000 0.0000
# 5 0.0000 0.0000 0.0000 0.0000 24.3137 0.0000
# 6 0.0000 0.0000 0.0000 0.0000 0.0000 33.3119
#
#
#
# Elastic Compliance Matrix: (Units=1/GPa)
#
#
# Indices 1 2 3 4 5 6 
#
# 1 0.021754 -0.006057 -0.001226 0.000000 0.000000 0.000000
# 2 -0.006057 0.021754 -0.001226 0.000000 0.000000 0.000000
# 3 -0.001226 -0.001226 0.013845 0.000000 0.000000 0.000000
# 4 0.000000 0.000000 0.000000 0.041129 0.000000 0.000000
# 5 0.000000 0.000000 0.000000 0.000000 0.041129 0.000000
# 6 0.000000 0.000000 0.000000 0.000000 0.000000 0.030019
#
#
# Mechanical properties :
#
#
# Convention : Reuss Voigt Hill
#
# Bulk Modulus (GPa) = 24.79190 25.03539 24.91365
# Shear Modulus (GPa) = 24.98865 26.25722 25.62293
#
# Velocity S-wave (km/s) = 3.45038 3.53687 3.49389
# Velocity P-wave (km/s) = 5.26164 5.34852 5.30525
#
# Compressibility (1/GPa) = 0.04033575
#
# Stress axis : x y z
#
# Youngs Moduli (GPa) = 45.96949 45.96949 72.22888
#
# Poissons Ratio (x) = 0.27843 0.08853
# Poissons Ratio (y) = 0.27843 0.08853
# Poissons Ratio (z) = 0.05634 0.05634
#
# Static dielectric constant tensor:
#      x y z
#    x 1.756300 0.000000 0.000000 
#    y 0.000000 1.756300 0.000000 
#    z 0.000000 0.000000 1.744290 
# 
# From -- ./inp_files/6281.got.cif
#   From: 2010.05.17/outbox.cif.g08.bks.cpg/sg120_4_cif.got.tgz:6281.got - 2010.05.20 11:28:13.
