data_PCOD9559411
_publ_section_title
;
Structure prediction by ZEFSAII (Michael W. Deem and Ramdas Pophale) SiO2 
 PCOD9559411
Probable space group: I -4 M 2
;
_chemical_formula_sum "Si O2"
_cell_formula_units_Z 40
_cell_length_a 15.057795
_cell_length_b 15.057795
_cell_length_c 8.153674
_cell_angle_alpha 90.000000
_cell_angle_beta 90.000000
_cell_angle_gamma 90.000000
_cell_volume 1848.741133
_symmetry_space_group_name_H-M "I -4 M 2"
_symmetry_group_IT_number 119
_symmetry_cell_setting 'tetragonal'
loop_
_space_group_symop_operation_xyz
x,y,z
y,-x,-z
-x,-y,z
-y,x,-z
y,x,-z
-y,-x,-z
-x,y,z
x,-y,z
1/2+x,1/2+y,1/2+z
1/2+y,1/2-x,1/2-z
1/2-x,1/2-y,1/2+z
1/2-y,1/2+x,1/2-z
1/2+y,1/2+x,1/2-z
1/2-y,1/2-x,1/2-z
1/2-x,1/2+y,1/2+z
1/2+x,1/2-y,1/2+z
loop_
_atom_site_type_symbol
_atom_site_label
_atom_site_fract_x
_atom_site_fract_y
_atom_site_fract_z
Si Si1 0.806271 0.833394 0.308503
Si Si2 0.000000 0.364460 0.182807
Si Si3 0.230607 0.500000 0.645114
Si Si4 0.830385 0.000000 0.817649
O O1 0.821854 0.821854 0.500000
O O2 0.758409 0.741592 0.250000
O O3 0.740605 0.912483 0.253766
O O4 0.902638 0.862320 0.234588
O O5 0.083665 0.416336 0.250000
O O6 0.000000 0.267955 0.259839
O O7 0.000000 0.350796 0.985605
O O8 0.311319 0.500000 0.511550
#
# Coordination Sequence:
#
# PCOD9559411 Si02
#       4
#    16   8   8   8
#     4  12  25  43  68 100 139 186 239 296 364 437
#     4   9  20  38  69 103 138 181 229 289 367 430
#     4  10  24  42  66 102 132 181 234 290 349 432
#     4  10  22  40  69  94 136 180 231 288 356 427
#
# _framework density 21.636344000000001
#
# number of rings (size 3 to 8) (size 9 to 14) (size 15 to 20)
#    1.200    0.200    0.000    6.000    5.600    0.800 
#    0.000    4.000    0.000    0.000    0.000    0.000 
#    0.000    0.000    0.000    0.000    0.000    0.000 
#
# Total GULP energy -111337.051093 kJ/mol
# GULP energy per Si atom -5566.852555 kJ/mol
# Density = 2.158710 g / cm^3
# Si number density = 21.636344 Si / 1000 Ang^3
#
#
#
# Elastic Constant Matrix: (Units=GPa)
#
#
# Indices 1 2 3 4 5 6 
#
# 1 104.7890 38.1609 39.3224 0.0000 0.0000 0.0000
# 2 38.1609 104.7945 39.3230 0.0000 0.0000 0.0000
# 3 39.3224 39.3230 158.7556 0.0000 0.0000 0.0000
# 4 0.0000 0.0000 0.0000 39.7149 0.0000 0.0000
# 5 0.0000 0.0000 0.0000 0.0000 39.7173 0.0000
# 6 0.0000 0.0000 0.0000 0.0000 0.0000 36.9777
#
#
#
# Elastic Compliance Matrix: (Units=1/GPa)
#
#
# Indices 1 2 3 4 5 6 
#
# 1 0.011554 -0.003455 -0.002006 0.000000 0.000000 0.000000
# 2 -0.003455 0.011553 -0.002006 0.000000 0.000000 0.000000
# 3 -0.002006 -0.002006 0.007293 0.000000 0.000000 0.000000
# 4 0.000000 0.000000 0.000000 0.025179 0.000000 0.000000
# 5 0.000000 0.000000 0.000000 0.000000 0.025178 0.000000
# 6 0.000000 0.000000 0.000000 0.000000 0.000000 0.027043
#
#
# Mechanical properties :
#
#
# Convention : Reuss Voigt Hill
#
# Bulk Modulus (GPa) = 64.65610 66.88353 65.76981
# Shear Modulus (GPa) = 39.09631 40.05085 39.57358
#
# Velocity S-wave (km/s) = 4.25546 4.30710 4.28136
# Velocity P-wave (km/s) = 7.35481 7.46421 7.40972
#
# Compressibility (1/GPa) = 0.01546644
#
# Stress axis : x y z
#
# Youngs Moduli (GPa) = 86.55142 86.55615 137.12220
#
# Poissons Ratio (x) = 0.29901 0.27508
# Poissons Ratio (y) = 0.29900 0.27507
# Poissons Ratio (z) = 0.17363 0.17363
#
# Static dielectric constant tensor:
#      x y z
#    x 1.906700 0.000000 0.000000 
#    y 0.000000 1.906760 0.000000 
#    z 0.000000 0.000000 1.756660 
# 
# From -- ./inp_files/1614.got.cif
#   From: 2010.05.17/outbox.cif.g08.bks.cpg/sg119_1_cif.got.tgz:1614.got - 2010.05.20 11:21:29.
