data_PCOD9559486
_publ_section_title
;
Structure prediction by ZEFSAII (Michael W. Deem and Ramdas Pophale) SiO2 
 PCOD9559486
Probable space group: I -4 M 2
;
_chemical_formula_sum "Si O2"
_cell_formula_units_Z 58
_cell_length_a 18.095537
_cell_length_b 18.095537
_cell_length_c 8.237183
_cell_angle_alpha 90.000000
_cell_angle_beta 90.000000
_cell_angle_gamma 90.000000
_cell_volume 2697.252882
_symmetry_space_group_name_H-M "I -4 M 2"
_symmetry_group_IT_number 119
_symmetry_cell_setting 'tetragonal'
loop_
_space_group_symop_operation_xyz
x,y,z
y,-x,-z
-x,-y,z
-y,x,-z
y,x,-z
-y,-x,-z
-x,y,z
x,-y,z
1/2+x,1/2+y,1/2+z
1/2+y,1/2-x,1/2-z
1/2-x,1/2-y,1/2+z
1/2-y,1/2+x,1/2-z
1/2+y,1/2+x,1/2-z
1/2-y,1/2-x,1/2-z
1/2-x,1/2+y,1/2+z
1/2+x,1/2-y,1/2+z
loop_
_atom_site_type_symbol
_atom_site_label
_atom_site_fract_x
_atom_site_fract_y
_atom_site_fract_z
Si Si1 0.851071 0.000000 0.665707
Si Si2 0.377001 0.123000 0.750000
Si Si3 0.741012 0.376028 0.015762
Si Si4 0.500000 0.911754 0.483919
Si Si5 0.500000 0.626359 0.483406
Si Si6 0.000000 0.269693 0.746457
Si Si7 0.000000 0.000000 0.500000
O O1 0.823635 0.072226 0.578110
O O2 0.935927 0.000000 0.630550
O O3 0.827618 0.000000 0.850550
O O4 0.299104 0.119262 0.660996
O O5 0.431759 0.104359 0.603262
O O6 0.769981 0.423775 0.860718
O O7 0.705884 0.294117 0.000000
O O8 0.500000 0.846487 0.348896
O O9 0.500000 0.000000 0.437652
O O10 0.571869 0.571869 0.500000
O O11 0.500000 0.689849 0.343463
#
# Coordination Sequence:
#
# PCOD9559486 Si02
#       7
#     8   8  16   8   8   8   2
#     4  11  22  40  67 103 148 197 238 286 349 423
#     4  12  25  50  74  98 138 190 241 304 388 426
#     4  11  25  45  71 103 148 191 238 295 363 439
#     4  12  26  50  76 101 134 181 253 318 376 431
#     4  11  22  35  65 110 159 201 244 289 349 435
#     4  11  26  45  70 111 146 192 248 309 355 429
#     4  12  20  36  78 108 148 204 250 272 336 440
#
# _framework density 21.503357999999999
#
# number of rings (size 3 to 8) (size 9 to 14) (size 15 to 20)
#    0.000    0.690    2.759    5.793    3.862    3.310 
#    2.483    1.379    0.000    0.000    0.000    0.000 
#    0.000    0.000    0.000    0.000    0.000    0.000 
#
# Total GULP energy -161622.378192 kJ/mol
# GULP energy per Si atom -5573.185455 kJ/mol
# Density = 2.145442 g / cm^3
# Si number density = 21.503358 Si / 1000 Ang^3
#
#
#
# Elastic Constant Matrix: (Units=GPa)
#
#
# Indices 1 2 3 4 5 6 
#
# 1 136.4334 57.6162 51.4164 0.0000 0.0000 0.0000
# 2 57.6162 136.4379 51.4171 0.0000 0.0000 0.0000
# 3 51.4164 51.4171 129.4120 0.0000 0.0000 0.0000
# 4 0.0000 0.0000 0.0000 37.6313 0.0000 0.0000
# 5 0.0000 0.0000 0.0000 0.0000 37.6296 0.0000
# 6 0.0000 0.0000 0.0000 0.0000 0.0000 42.1456
#
#
#
# Elastic Compliance Matrix: (Units=1/GPa)
#
#
# Indices 1 2 3 4 5 6 
#
# 1 0.009608 -0.003080 -0.002594 0.000000 0.000000 0.000000
# 2 -0.003080 0.009607 -0.002593 0.000000 0.000000 0.000000
# 3 -0.002594 -0.002593 0.009788 0.000000 0.000000 0.000000
# 4 0.000000 0.000000 0.000000 0.026574 0.000000 0.000000
# 5 0.000000 0.000000 0.000000 0.000000 0.026575 0.000000
# 6 0.000000 0.000000 0.000000 0.000000 0.000000 0.023727
#
#
# Mechanical properties :
#
#
# Convention : Reuss Voigt Hill
#
# Bulk Modulus (GPa) = 80.19648 80.35366 80.27507
# Shear Modulus (GPa) = 39.50423 39.60353 39.55388
#
# Velocity S-wave (km/s) = 4.29081 4.29620 4.29351
# Velocity P-wave (km/s) = 7.86918 7.87775 7.87346
#
# Compressibility (1/GPa) = 0.01246938
#
# Stress axis : x y z
#
# Youngs Moduli (GPa) = 104.08434 104.08790 102.16479
#
# Poissons Ratio (x) = 0.32057 0.26497
# Poissons Ratio (y) = 0.32056 0.26496
# Poissons Ratio (z) = 0.26995 0.26995
#
# Static dielectric constant tensor:
#      x y z
#    x 1.887470 0.000000 0.000000 
#    y 0.000000 1.887480 0.000000 
#    z 0.000000 0.000000 1.841550 
# 
# From -- ./inp_files/2072.got.cif
#   From: 2010.05.17/outbox.cif.g08.bks.cpg/sg119_2_cif.got.tgz:2072.got - 2010.05.20 11:21:29.
