data_PCOD9559518
_publ_section_title
;
Structure prediction by ZEFSAII (Michael W. Deem and Ramdas Pophale) SiO2 
 PCOD9559518
Probable space group: I -4 M 2
;
_chemical_formula_sum "Si O2"
_cell_formula_units_Z 52
_cell_length_a 12.137016
_cell_length_b 12.137016
_cell_length_c 16.664902
_cell_angle_alpha 90.000000
_cell_angle_beta 90.000000
_cell_angle_gamma 90.000000
_cell_volume 2454.859342
_symmetry_space_group_name_H-M "I -4 M 2"
_symmetry_group_IT_number 119
_symmetry_cell_setting 'tetragonal'
loop_
_space_group_symop_operation_xyz
x,y,z
y,-x,-z
-x,-y,z
-y,x,-z
y,x,-z
-y,-x,-z
-x,y,z
x,-y,z
1/2+x,1/2+y,1/2+z
1/2+y,1/2-x,1/2-z
1/2-x,1/2-y,1/2+z
1/2-y,1/2+x,1/2-z
1/2+y,1/2+x,1/2-z
1/2-y,1/2-x,1/2-z
1/2-x,1/2+y,1/2+z
1/2+x,1/2-y,1/2+z
loop_
_atom_site_type_symbol
_atom_site_label
_atom_site_fract_x
_atom_site_fract_y
_atom_site_fract_z
Si Si1 0.128842 0.801216 0.088890
Si Si2 0.266938 0.000000 0.144960
Si Si3 0.232734 0.500000 0.825191
Si Si4 0.129074 0.811973 0.408076
Si Si5 0.000000 0.500000 0.589791
O O1 0.191220 0.892481 0.141000
O O2 0.192834 0.686292 0.096838
O O3 0.000000 0.794176 0.105328
O O4 0.151230 0.848771 0.000000
O O5 0.312678 0.000000 0.234925
O O6 0.362521 0.000000 0.076512
O O7 0.305967 0.605363 0.849416
O O8 0.124577 0.500000 0.879078
O O9 0.146841 0.853160 0.500000
O O10 0.000000 0.809953 0.390714
#
# Coordination Sequence:
#
# PCOD9559518 Si02
#       5
#    16   8   8  16   4
#     4  11  24  42  63  94 133 174 218 269 327 394
#     4  12  24  42  69  97 130 172 219 276 334 386
#     4  12  24  42  69  97 130 172 219 276 334 386
#     4  11  24  42  63  94 133 174 218 269 327 394
#     4  12  25  44  68 104 140 164 217 286 325 372
#
# _framework density 21.182473999999999
#
# number of rings (size 3 to 8) (size 9 to 14) (size 15 to 20)
#    0.000    0.615    6.154    2.308    0.000    3.077 
#    0.000    0.000    0.000    0.000    0.000    4.308 
#    0.000    0.000    0.000    0.000    0.000    0.000 
#
# Total GULP energy -145060.642908 kJ/mol
# GULP energy per Si atom -5579.255496 kJ/mol
# Density = 2.113426 g / cm^3
# Si number density = 21.182474 Si / 1000 Ang^3
#
#
#
# Elastic Constant Matrix: (Units=GPa)
#
#
# Indices 1 2 3 4 5 6 
#
# 1 167.6730 52.8741 -1.6662 0.0000 0.0000 0.0000
# 2 52.8741 167.6721 -1.6665 0.0000 0.0000 0.0000
# 3 -1.6662 -1.6665 24.2016 0.0000 0.0000 0.0000
# 4 0.0000 0.0000 0.0000 1.3132 0.0000 0.0000
# 5 0.0000 0.0000 0.0000 0.0000 1.3117 0.0000
# 6 0.0000 0.0000 0.0000 0.0000 0.0000 22.9687
#
#
#
# Elastic Compliance Matrix: (Units=1/GPa)
#
#
# Indices 1 2 3 4 5 6 
#
# 1 0.006625 -0.002086 0.000312 0.000000 0.000000 0.000000
# 2 -0.002086 0.006625 0.000313 0.000000 0.000000 0.000000
# 3 0.000312 0.000313 0.041363 0.000000 0.000000 0.000000
# 4 0.000000 0.000000 0.000000 0.761499 0.000000 0.000000
# 5 0.000000 0.000000 0.000000 0.000000 0.762341 0.000000
# 6 0.000000 0.000000 0.000000 0.000000 0.000000 0.043538
#
#
# Mechanical properties :
#
#
# Convention : Reuss Voigt Hill
#
# Bulk Modulus (GPa) = 19.34589 50.95884 35.15237
# Shear Modulus (GPa) = 3.04480 25.78574 14.41527
#
# Velocity S-wave (km/s) = 1.20022 3.49279 2.61152
# Velocity P-wave (km/s) = 3.32769 6.35416 5.07193
#
# Compressibility (1/GPa) = 0.05169057
#
# Stress axis : x y z
#
# Youngs Moduli (GPa) = 150.94575 150.94490 24.17638
#
# Poissons Ratio (x) = 0.31487 -0.00755
# Poissons Ratio (y) = 0.31487 -0.00756
# Poissons Ratio (z) = -0.04716 -0.04718
#
# Static dielectric constant tensor:
#      x y z
#    x 1.790170 0.000000 0.000000 
#    y 0.000000 1.790170 0.000000 
#    z 0.000000 0.000000 1.817330 
# 
# From -- ./inp_files/7321.got.cif
#   From: 2010.05.17/outbox.cif.g08.bks.cpg/sg119_4_cif.got.tgz:7321.got - 2010.05.20 11:21:29.
