data_PCOD9559569
_publ_section_title
;
Structure prediction by ZEFSAII (Michael W. Deem and Ramdas Pophale) SiO2 
 PCOD9559569
Probable space group: I -4 C 2
;
_chemical_formula_sum "Si O2"
_cell_formula_units_Z 120
_cell_length_a 23.942983
_cell_length_b 23.942983
_cell_length_c 14.105980
_cell_angle_alpha 90.000000
_cell_angle_beta 90.000000
_cell_angle_gamma 90.000000
_cell_volume 8086.484866
_symmetry_space_group_name_H-M "I -4 C 2"
_symmetry_group_IT_number 120
_symmetry_cell_setting 'tetragonal'
loop_
_space_group_symop_operation_xyz
x,y,z
y,-x,-z
-x,-y,z
-y,x,-z
y,x,1/2-z
-y,-x,1/2-z
-x,y,1/2+z
x,-y,1/2+z
1/2+x,1/2+y,1/2+z
1/2+y,1/2-x,1/2-z
1/2-x,1/2-y,1/2+z
1/2-y,1/2+x,1/2-z
1/2+y,1/2+x,-z
1/2-y,1/2-x,-z
1/2-x,1/2+y,z
1/2+x,1/2-y,z
loop_
_atom_site_type_symbol
_atom_site_label
_atom_site_fract_x
_atom_site_fract_y
_atom_site_fract_z
Si Si1 0.345206 0.174361 0.751692
Si Si2 0.793404 0.204326 0.541413
Si Si3 0.380066 0.945433 0.289757
Si Si4 0.235391 0.764610 0.750000
Si Si5 0.492698 0.066705 0.888875
Si Si6 0.382762 0.205916 0.957161
Si Si7 0.707867 0.120166 0.955936
Si Si8 0.164170 0.500079 0.465960
O O1 0.344917 0.107831 0.757876
O O2 0.282974 0.200435 0.751538
O O3 0.376847 0.197838 0.844171
O O4 0.374179 0.196435 0.656597
O O5 0.748742 0.248742 0.500000
O O6 0.790088 0.209272 0.655149
O O7 0.766090 0.144683 0.515779
O O8 0.852838 0.232203 0.516209
O O9 0.428637 0.923441 0.359637
O O10 0.347407 0.989731 0.354371
O O11 0.410416 0.971331 0.198961
O O12 0.500000 0.000000 0.896366
O O13 0.505849 0.104653 0.979578
O O14 0.341639 0.158362 0.000000
O O15 0.444657 0.194283 0.994426
O O16 0.698055 0.056471 0.983867
O O17 0.659850 0.159850 0.000000
#
# Coordination Sequence:
#
# PCOD9559569 Si02
#       8
#    16  16  16   8  16  16  16  16
#     4  10  18  33  48  65  87 112 156 190 233 267
#     4   8  16  30  52  65  86 111 146 185 234 275
#     4  12  21  35  45  61  85 122 158 192 224 262
#     4   8  16  28  50  68  80 106 142 199 229 270
#     4  12  24  36  43  58  85 126 162 193 224 256
#     4  10  17  33  49  70  87 115 153 193 225 273
#     4  10  21  35  46  68  90 120 148 191 234 275
#     4  12  24  32  48  67  90 115 157 195 230 266
#
# _framework density 14.839575
#
# number of rings (size 3 to 8) (size 9 to 14) (size 15 to 20)
#    0.000    1.600    4.000    2.000    1.867    1.067 
#    0.000    0.000    0.000    0.000    0.000    0.000 
#    0.000    0.533    0.000    0.000    0.000   22.133 
#
# Total GULP energy -334418.053093 kJ/mol
# GULP energy per Si atom -5573.634218 kJ/mol
# Density = 1.480580 g / cm^3
# Si number density = 14.839575 Si / 1000 Ang^3
#
#
#
# Elastic Constant Matrix: (Units=GPa)
#
#
# Indices 1 2 3 4 5 6 
#
# 1 88.2614 62.9123 19.9447 0.0000 0.0000 0.0000
# 2 62.9123 88.2608 19.9444 0.0000 0.0000 0.0000
# 3 19.9447 19.9444 62.6998 0.0000 0.0000 0.0000
# 4 0.0000 0.0000 0.0000 14.4325 0.0000 0.0000
# 5 0.0000 0.0000 0.0000 0.0000 14.4328 0.0000
# 6 0.0000 0.0000 0.0000 0.0000 0.0000 30.3596
#
#
#
# Elastic Compliance Matrix: (Units=1/GPa)
#
#
# Indices 1 2 3 4 5 6 
#
# 1 0.023335 -0.016114 -0.002297 0.000000 0.000000 0.000000
# 2 -0.016114 0.023335 -0.002297 0.000000 0.000000 0.000000
# 3 -0.002297 -0.002297 0.017410 0.000000 0.000000 0.000000
# 4 0.000000 0.000000 0.000000 0.069288 0.000000 0.000000
# 5 0.000000 0.000000 0.000000 0.000000 0.069287 0.000000
# 6 0.000000 0.000000 0.000000 0.000000 0.000000 0.032939
#
#
# Mechanical properties :
#
#
# Convention : Reuss Voigt Hill
#
# Bulk Modulus (GPa) = 44.12196 49.42497 46.77347
# Shear Modulus (GPa) = 17.57064 20.93968 19.25516
#
# Velocity S-wave (km/s) = 3.44472 3.76050 3.60607
# Velocity P-wave (km/s) = 6.75416 7.22728 6.99472
#
# Compressibility (1/GPa) = 0.02266445
#
# Stress axis : x y z
#
# Youngs Moduli (GPa) = 42.85373 42.85349 57.43715
#
# Poissons Ratio (x) = 0.69055 0.13194
# Poissons Ratio (y) = 0.69056 0.13193
# Poissons Ratio (z) = 0.09844 0.09843
#
# Static dielectric constant tensor:
#      x y z
#    x 1.509510 0.000000 0.000000 
#    y 0.000000 1.509510 0.000000 
#    z 0.000000 0.000000 1.562890 
# 
# From -- ./inp_files/3749.got.cif
#   From: 2010.05.17/outbox.cif.g08.bks.cpg/sg120_2_cif.got.tgz:3749.got - 2010.05.20 11:28:13.
