data_PCOD9559274
_publ_section_title
;
Structure prediction by ZEFSAII (Michael W. Deem and Ramdas Pophale) SiO2 
 PCOD9559274
Probable space group: I -4 M 2
;
_chemical_formula_sum "Si O2"
_cell_formula_units_Z 82
_cell_length_a 11.937206
_cell_length_b 11.937206
_cell_length_c 30.907482
_cell_angle_alpha 90.000000
_cell_angle_beta 90.000000
_cell_angle_gamma 90.000000
_cell_volume 4404.219973
_symmetry_space_group_name_H-M "I -4 M 2"
_symmetry_group_IT_number 119
_symmetry_cell_setting 'tetragonal'
loop_
_space_group_symop_operation_xyz
x,y,z
y,-x,-z
-x,-y,z
-y,x,-z
y,x,-z
-y,-x,-z
-x,y,z
x,-y,z
1/2+x,1/2+y,1/2+z
1/2+y,1/2-x,1/2-z
1/2-x,1/2-y,1/2+z
1/2-y,1/2+x,1/2-z
1/2+y,1/2+x,1/2-z
1/2-y,1/2-x,1/2-z
1/2-x,1/2+y,1/2+z
1/2+x,1/2-y,1/2+z
loop_
_atom_site_type_symbol
_atom_site_label
_atom_site_fract_x
_atom_site_fract_y
_atom_site_fract_z
Si Si1 0.633338 0.626938 0.777419
Si Si2 0.360790 0.500000 0.371026
Si Si3 0.311517 0.279769 0.315783
Si Si4 0.129280 0.374726 0.892679
Si Si5 0.000000 0.000000 0.000000
Si Si6 0.365685 0.201199 0.014983
Si Si7 0.752804 0.000000 0.962983
O O1 0.500000 0.643424 0.772381
O O2 0.650890 0.500000 0.794487
O O3 0.693598 0.634263 0.730640
O O4 0.689949 0.725558 0.805425
O O5 0.500000 0.500000 0.379159
O O6 0.327932 0.392440 0.342839
O O7 0.274882 0.500000 0.411659
O O8 0.364579 0.188724 0.347672
O O9 0.173359 0.500000 0.886555
O O10 0.186614 0.324492 0.935273
O O11 0.000000 0.380103 0.905807
O O12 0.000000 0.117768 0.023613
O O13 0.500000 0.188775 0.014301
O O14 0.321140 0.321140 0.000000
O O15 0.309262 0.107126 0.984267
#
# Coordination Sequence:
#
# PCOD9559274 Si02
#       7
#    16   8  16  16   2  16   8
#     4  10  21  41  63  87 121 161 204 254 321 380
#     4  12  24  39  61  94 130 164 207 267 332 384
#     4  11  22  36  62  91 120 160 205 256 313 385
#     4  10  20  36  59  88 120 156 203 259 326 373
#     4  12  24  36  64 104 124 168 196 272 328 392
#     4  11  23  40  62  87 126 174 214 263 319 381
#     4  12  23  40  63  98 132 163 210 263 338 394
#
# _framework density 18.618507000000001
#
# number of rings (size 3 to 8) (size 9 to 14) (size 15 to 20)
#    0.000    1.171    3.415    3.805    0.000    0.195 
#    0.000    5.366    0.000    8.195    0.000    0.000 
#    0.000    0.000    0.000    0.000    0.000    0.000 
#
# Total GULP energy -228340.932913 kJ/mol
# GULP energy per Si atom -5569.291047 kJ/mol
# Density = 1.857613 g / cm^3
# Si number density = 18.618507 Si / 1000 Ang^3
#
#
#
# Elastic Constant Matrix: (Units=GPa)
#
#
# Indices 1 2 3 4 5 6 
#
# 1 88.6648 35.2738 27.4890 0.0000 0.0000 0.0000
# 2 35.2738 88.6648 27.4890 0.0000 0.0000 0.0000
# 3 27.4890 27.4890 73.6595 0.0000 0.0000 0.0000
# 4 0.0000 0.0000 0.0000 56.0345 0.0000 0.0000
# 5 0.0000 0.0000 0.0000 0.0000 56.0345 0.0000
# 6 0.0000 0.0000 0.0000 0.0000 0.0000 -202.2309
#
#
#
# Elastic Compliance Matrix: (Units=1/GPa)
#
#
# Indices 1 2 3 4 5 6 
#
# 1 0.014199 -0.004530 -0.003608 0.000000 0.000000 0.000000
# 2 -0.004530 0.014199 -0.003608 0.000000 0.000000 0.000000
# 3 -0.003608 -0.003608 0.016269 0.000000 0.000000 0.000000
# 4 0.000000 0.000000 0.000000 0.017846 0.000000 0.000000
# 5 0.000000 0.000000 0.000000 0.000000 0.017846 0.000000
# 6 0.000000 0.000000 0.000000 0.000000 0.000000 -0.004945
#
#
# Mechanical properties :
#
#
# Convention : Reuss Voigt Hill
#
# Bulk Modulus (GPa) = 47.22808 47.94363 47.58585
# Shear Modulus (GPa) = 47.18410 -7.31655 19.93377
#
# Velocity S-wave (km/s) = 5.03960 -1.98450 3.27562
# Velocity P-wave (km/s) = 7.69966 4.53381 6.31823
#
# Compressibility (1/GPa) = 0.02117385
#
# Stress axis : x y z
#
# Youngs Moduli (GPa) = 70.42521 70.42521 61.46565
#
# Poissons Ratio (x) = 0.31905 0.22180
# Poissons Ratio (y) = 0.31905 0.22180
# Poissons Ratio (z) = 0.25413 0.25413
#
# Static dielectric constant tensor:
#      x y z
#    x 1.635670 0.000000 0.000000 
#    y 0.000000 1.635670 0.000000 
#    z 0.000000 0.000000 1.684220 
# 
# From -- ./inp_files/10279.got.cif
#   From: 2010.05.17/outbox.cif.g08.bks.cpg/sg119_6_cif.got.tgz:10279.got - 2010.05.20 11:21:29.
