data_PCOD9559545
_publ_section_title
;
Structure prediction by ZEFSAII (Michael W. Deem and Ramdas Pophale) SiO2 
 PCOD9559545
Probable space group: I -4 M 2
;
_chemical_formula_sum "Si O2"
_cell_formula_units_Z 56
_cell_length_a 18.000000
_cell_length_b 18.000000
_cell_length_c 21.000000
_cell_angle_alpha 90.000000
_cell_angle_beta 90.000000
_cell_angle_gamma 90.000000
_cell_volume 6804.000000
_symmetry_space_group_name_H-M "I -4 M 2"
_symmetry_group_IT_number 119
_symmetry_cell_setting 'tetragonal'
loop_
_space_group_symop_operation_xyz
x,y,z
y,-x,-z
-x,-y,z
-y,x,-z
y,x,-z
-y,-x,-z
-x,y,z
x,-y,z
1/2+x,1/2+y,1/2+z
1/2+y,1/2-x,1/2-z
1/2-x,1/2-y,1/2+z
1/2-y,1/2+x,1/2-z
1/2+y,1/2+x,1/2-z
1/2-y,1/2-x,1/2-z
1/2-x,1/2+y,1/2+z
1/2+x,1/2-y,1/2+z
loop_
_atom_site_type_symbol
_atom_site_label
_atom_site_fract_x
_atom_site_fract_y
_atom_site_fract_z
Si Si1 0.672728 0.910521 0.932858
Si Si2 0.088856 0.339075 0.313601
Si Si3 0.846348 0.089153 0.934592
Si Si4 0.678204 0.587898 0.681017
Si Si5 0.588441 0.085429 0.441215
Si Si6 0.660061 0.837213 0.325900
Si Si7 0.686024 0.295705 0.789467
O O1 0.625583 0.877551 0.874958
O O2 0.759407 0.890109 0.926877
O O3 0.667819 0.000000 0.929828
O O4 0.639099 0.887522 0.001131
O O5 0.119903 0.380098 0.250000
O O6 0.118755 0.254010 0.314030
O O7 0.000000 0.342768 0.314503
O O8 0.891788 0.122376 0.875579
O O9 0.851594 0.000000 0.936329
O O10 0.877576 0.122424 0.000000
O O11 0.679263 0.500000 0.693501
O O12 0.760155 0.616850 0.660946
O O13 0.660640 0.638360 0.742831
O O14 0.500000 0.095949 0.431997
O O15 0.628579 0.103881 0.375168
O O16 0.600822 0.000000 0.460009
O O17 0.647368 0.852633 0.250000
O O18 0.749076 0.827371 0.334950
O O19 0.735978 0.235978 0.750000
#
# Coordination Sequence:
#
# PCOD9559545 Si02
#       7
#    16  16  16  16  16  16  16
#     4  10  21  36  52  72 102 137 168 204 253 307
#     4  11  21  34  54  77 101 130 168 212 257 310
#     4  11  22  34  50  72 100 136 176 212 245 292
#     4  10  19  32  50  71  99 133 168 208 255 299
#     4  10  20  32  48  75 109 138 166 209 266 316
#     4   9  18  33  53  73  98 135 177 212 246 300
#     4   8  18  34  50  72  99 129 165 208 250 295
#
# _framework density 8.2304530000000007
#
# number of rings (size 3 to 8) (size 9 to 14) (size 15 to 20)
#    0.000    2.429    0.000    5.143    0.000    8.286 
#    0.000    0.714    0.000    0.000    0.000    0.000 
#    0.000    0.000    0.000    0.857    0.000    0.000 
#
# Total GULP energy -312210.805979 kJ/mol
# GULP energy per Si atom -5575.192964 kJ/mol
# Density = 0.821172 g / cm^3
# Si number density = 8.230453 Si / 1000 Ang^3
#
#
#
# Elastic Constant Matrix: (Units=GPa)
#
#
# Indices 1 2 3 4 5 6 
#
# 1 77.4856 45.3896 40.5202 0.0000 0.0000 0.0000
# 2 45.3896 77.4881 40.5206 0.0000 0.0000 0.0000
# 3 40.5202 40.5206 75.9989 0.0000 0.0000 0.0000
# 4 0.0000 0.0000 0.0000 26.5986 0.0000 0.0000
# 5 0.0000 0.0000 0.0000 0.0000 26.5991 0.0000
# 6 0.0000 0.0000 0.0000 0.0000 0.0000 22.8163
#
#
#
# Elastic Compliance Matrix: (Units=1/GPa)
#
#
# Indices 1 2 3 4 5 6 
#
# 1 0.021854 -0.009302 -0.006693 0.000000 0.000000 0.000000
# 2 -0.009302 0.021853 -0.006692 0.000000 0.000000 0.000000
# 3 -0.006693 -0.006692 0.020294 0.000000 0.000000 0.000000
# 4 0.000000 0.000000 0.000000 0.037596 0.000000 0.000000
# 5 0.000000 0.000000 0.000000 0.000000 0.037595 0.000000
# 6 0.000000 0.000000 0.000000 0.000000 0.000000 0.043828
#
#
# Mechanical properties :
#
#
# Convention : Reuss Voigt Hill
#
# Bulk Modulus (GPa) = 53.67964 53.75926 53.71945
# Shear Modulus (GPa) = 21.31252 22.17229 21.74240
#
# Velocity S-wave (km/s) = 3.60215 3.67409 3.63829
# Velocity P-wave (km/s) = 7.06978 7.12237 7.09613
#
# Compressibility (1/GPa) = 0.01862904
#
# Stress axis : x y z
#
# Youngs Moduli (GPa) = 45.75801 45.75972 49.27453
#
# Poissons Ratio (x) = 0.42564 0.32977
# Poissons Ratio (y) = 0.42562 0.32976
# Poissons Ratio (z) = 0.30624 0.30624
#
# Static dielectric constant tensor:
#      x y z
#    x 1.559420 0.000000 0.000000 
#    y 0.000000 1.559420 0.000000 
#    z 0.000000 0.000000 1.548150 
# 
# From -- ./inp_files/7999.got.cif
#   From: 2010.05.17/outbox.ucp.g08.bks.cvg/sg119_4_cif.got.tgz:7999.got - 2010.06.11 11:34:25.
