data_PCOD9559106
_publ_section_title
;
Structure prediction by ZEFSAII (Michael W. Deem and Ramdas Pophale) SiO2 
 PCOD9559106
Probable space group: I -4 M 2
;
_chemical_formula_sum "Si O2"
_cell_formula_units_Z 112
_cell_length_a 15.460045
_cell_length_b 15.460045
_cell_length_c 24.088357
_cell_angle_alpha 90.000000
_cell_angle_beta 90.000000
_cell_angle_gamma 90.000000
_cell_volume 5757.430265
_symmetry_space_group_name_H-M "I -4 M 2"
_symmetry_group_IT_number 119
_symmetry_cell_setting 'tetragonal'
loop_
_space_group_symop_operation_xyz
x,y,z
y,-x,-z
-x,-y,z
-y,x,-z
y,x,-z
-y,-x,-z
-x,y,z
x,-y,z
1/2+x,1/2+y,1/2+z
1/2+y,1/2-x,1/2-z
1/2-x,1/2-y,1/2+z
1/2-y,1/2+x,1/2-z
1/2+y,1/2+x,1/2-z
1/2-y,1/2-x,1/2-z
1/2-x,1/2+y,1/2+z
1/2+x,1/2-y,1/2+z
loop_
_atom_site_type_symbol
_atom_site_label
_atom_site_fract_x
_atom_site_fract_y
_atom_site_fract_z
Si Si1 0.897961 0.324244 0.692659
Si Si2 0.246806 0.102038 0.509136
Si Si3 0.394394 0.098824 0.075384
Si Si4 0.313105 0.095172 0.635253
Si Si5 0.105930 0.901046 0.061462
Si Si6 0.101279 0.221166 0.156298
Si Si7 0.698320 0.662334 0.226906
O O1 0.866268 0.366268 0.750000
O O2 0.864452 0.370110 0.636632
O O3 0.869448 0.224594 0.696978
O O4 0.000000 0.331090 0.690815
O O5 0.165980 0.165980 0.500000
O O6 0.328151 0.128425 0.469925
O O7 0.276750 0.105981 0.573261
O O8 0.226824 0.000000 0.497083
O O9 0.500000 0.096626 0.075994
O O10 0.365621 0.000000 0.063497
O O11 0.368080 0.179908 0.650544
O O12 0.238015 0.099218 0.681500
O O13 0.355958 0.000000 0.638450
O O14 0.140963 0.837343 0.107917
O O15 0.000000 0.902294 0.062114
O O16 0.133758 0.000000 0.070269
O O17 0.129604 0.870397 0.000000
O O18 0.117858 0.175065 0.215341
O O19 0.000000 0.223417 0.147619
O O20 0.772247 0.727753 0.250000
#
# Coordination Sequence:
#
# PCOD9559106 Si02
#       7
#    16  16  16  16  16  16  16
#     4  10  19  32  53  80 111 147 184 224 274 337
#     4  10  21  37  59  85 114 150 192 243 302 362
#     4   9  18  33  54  82 116 152 191 238 291 348
#     4  10  21  37  56  76 103 142 185 235 294 351
#     4   8  15  30  52  79 114 153 188 225 274 336
#     4  10  20  34  55  82 110 145 190 239 292 347
#     4   9  19  35  52  73 105 141 178 225 279 337
#
# _framework density 19.453123000000001
#
# number of rings (size 3 to 8) (size 9 to 14) (size 15 to 20)
#    0.000    2.571    0.000    2.143    0.000    2.857 
#    0.000    1.429    0.000   12.429    0.000    0.000 
#    0.000    0.286    0.000    0.286    0.000    0.000 
#
# Total GULP energy -312046.680791 kJ/mol
# GULP energy per Si atom -5572.262157 kJ/mol
# Density = 1.940885 g / cm^3
# Si number density = 19.453123 Si / 1000 Ang^3
#
#
#
# Elastic Constant Matrix: (Units=GPa)
#
#
# Indices 1 2 3 4 5 6 
#
# 1 81.0730 26.3967 39.7300 0.0000 0.0000 0.0000
# 2 26.3967 81.0705 39.7277 0.0000 0.0000 0.0000
# 3 39.7300 39.7277 141.4575 0.0000 0.0000 0.0000
# 4 0.0000 0.0000 0.0000 23.3308 0.0000 0.0000
# 5 0.0000 0.0000 0.0000 0.0000 23.3313 0.0000
# 6 0.0000 0.0000 0.0000 0.0000 0.0000 20.9631
#
#
#
# Elastic Compliance Matrix: (Units=1/GPa)
#
#
# Indices 1 2 3 4 5 6 
#
# 1 0.015017 -0.003273 -0.003298 0.000000 0.000000 0.000000
# 2 -0.003273 0.015017 -0.003298 0.000000 0.000000 0.000000
# 3 -0.003298 -0.003298 0.008922 0.000000 0.000000 0.000000
# 4 0.000000 0.000000 0.000000 0.042862 0.000000 0.000000
# 5 0.000000 0.000000 0.000000 0.000000 0.042861 0.000000
# 6 0.000000 0.000000 0.000000 0.000000 0.000000 0.047703
#
#
# Mechanical properties :
#
#
# Convention : Reuss Voigt Hill
#
# Bulk Modulus (GPa) = 52.03937 57.25664 54.64801
# Shear Modulus (GPa) = 25.18567 26.70815 25.94691
#
# Velocity S-wave (km/s) = 3.60208 3.70935 3.65611
# Velocity P-wave (km/s) = 6.64147 6.91685 6.78056
#
# Compressibility (1/GPa) = 0.01921622
#
# Stress axis : x y z
#
# Youngs Moduli (GPa) = 66.59285 66.59171 112.08369
#
# Poissons Ratio (x) = 0.21796 0.36969
# Poissons Ratio (y) = 0.21797 0.36967
# Poissons Ratio (z) = 0.21965 0.21963
#
# Static dielectric constant tensor:
#      x y z
#    x 1.709390 0.000000 0.000000 
#    y 0.000000 1.709390 0.000000 
#    z 0.000000 0.000000 1.710370 
# 
# From -- ./inp_files/8842.got.cif
#   From: 2010.05.17/outbox.cif.g08.bks.cpg/sg119_5_cif.got.tgz:8842.got - 2010.05.20 11:21:29.
