data_PCOD9559813
_publ_section_title
;
Structure prediction by ZEFSAII (Michael W. Deem and Ramdas Pophale) SiO2 
 PCOD9559813
Probable space group: I -4 C 2
;
_chemical_formula_sum "Si O2"
_cell_formula_units_Z 112
_cell_length_a 13.776254
_cell_length_b 13.776254
_cell_length_c 28.409578
_cell_angle_alpha 90.000000
_cell_angle_beta 90.000000
_cell_angle_gamma 90.000000
_cell_volume 5391.716712
_symmetry_space_group_name_H-M "I -4 C 2"
_symmetry_group_IT_number 120
_symmetry_cell_setting 'tetragonal'
loop_
_space_group_symop_operation_xyz
x,y,z
y,-x,-z
-x,-y,z
-y,x,-z
y,x,1/2-z
-y,-x,1/2-z
-x,y,1/2+z
x,-y,1/2+z
1/2+x,1/2+y,1/2+z
1/2+y,1/2-x,1/2-z
1/2-x,1/2-y,1/2+z
1/2-y,1/2+x,1/2-z
1/2+y,1/2+x,-z
1/2-y,1/2-x,-z
1/2-x,1/2+y,z
1/2+x,1/2-y,z
loop_
_atom_site_type_symbol
_atom_site_label
_atom_site_fract_x
_atom_site_fract_y
_atom_site_fract_z
Si Si1 0.776797 0.323144 0.667713
Si Si2 0.826026 0.826026 0.250000
Si Si3 0.097400 0.438875 0.897601
Si Si4 0.500000 0.500000 0.103365
Si Si5 0.746573 0.660891 0.598153
Si Si6 0.179910 0.982276 0.672879
Si Si7 0.978478 0.662869 0.475399
Si Si8 0.028310 0.204789 0.061442
O O1 0.810935 0.255303 0.710147
O O2 0.869555 0.375997 0.645240
O O3 0.728937 0.258787 0.626144
O O4 0.705674 0.407632 0.682517
O O5 0.925653 0.824034 0.278543
O O6 0.197639 0.496759 0.908219
O O7 0.000000 0.500000 0.889097
O O8 0.068256 0.372293 0.942978
O O9 0.586692 0.478852 0.139348
O O10 0.518837 0.599295 0.073265
O O11 0.751577 0.578663 0.638961
O O12 0.803675 0.611925 0.556329
O O13 0.640335 0.684361 0.575865
O O14 0.930408 0.569593 0.500000
O O15 0.009443 0.752020 0.509330
#
# Coordination Sequence:
#
# PCOD9559813 Si02
#       8
#    16   8  16   8  16  16  16  16
#     4  10  22  43  70  92 136 178 222 291 357 434
#     4  10  24  45  66 105 132 166 234 294 354 436
#     4  11  22  42  66  98 141 187 228 296 371 425
#     4  10  24  43  69 100 136 190 238 289 367 420
#     4   9  22  40  59  94 133 181 227 280 352 406
#     4  10  21  44  66  92 132 168 221 286 349 426
#     4  12  23  36  66 103 139 187 242 289 343 427
#     4  10  23  40  62  96 143 185 240 299 335 426
#
# _framework density 20.772604000000001
#
# number of rings (size 3 to 8) (size 9 to 14) (size 15 to 20)
#    0.000    1.714    2.857    1.286    2.000    6.000 
#    2.571    0.714    0.000    0.000    0.000    0.000 
#    0.000    0.000    0.000    0.000    0.000    0.000 
#
# Total GULP energy -312157.788850 kJ/mol
# GULP energy per Si atom -5574.246229 kJ/mol
# Density = 2.072532 g / cm^3
# Si number density = 20.772604 Si / 1000 Ang^3
#
#
#
# Elastic Constant Matrix: (Units=GPa)
#
#
# Indices 1 2 3 4 5 6 
#
# 1 268.4480 -123.0101 49.8314 0.0000 0.0000 0.0000
# 2 -123.0101 268.4508 49.8326 0.0000 0.0000 0.0000
# 3 49.8314 49.8326 116.7296 0.0000 0.0000 0.0000
# 4 0.0000 0.0000 0.0000 28.1504 0.0000 0.0000
# 5 0.0000 0.0000 0.0000 0.0000 28.1501 0.0000
# 6 0.0000 0.0000 0.0000 0.0000 0.0000 34.8498
#
#
#
# Elastic Compliance Matrix: (Units=1/GPa)
#
#
# Indices 1 2 3 4 5 6 
#
# 1 0.006137 0.003582 -0.004149 0.000000 0.000000 0.000000
# 2 0.003582 0.006137 -0.004149 0.000000 0.000000 0.000000
# 3 -0.004149 -0.004149 0.012109 0.000000 0.000000 0.000000
# 4 0.000000 0.000000 0.000000 0.035523 0.000000 0.000000
# 5 0.000000 0.000000 0.000000 0.000000 0.035524 0.000000
# 6 0.000000 0.000000 0.000000 0.000000 0.000000 0.028695
#
#
# Mechanical properties :
#
#
# Convention : Reuss Voigt Hill
#
# Bulk Modulus (GPa) = 66.88524 67.43736 67.16130
# Shear Modulus (GPa) = 36.09071 63.36170 49.72620
#
# Velocity S-wave (km/s) = 4.17276 5.52890 4.89799
# Velocity P-wave (km/s) = 7.44879 8.56116 8.02427
#
# Compressibility (1/GPa) = 0.01495098
#
# Stress axis : x y z
#
# Youngs Moduli (GPa) = 162.95313 162.95429 82.58153
#
# Poissons Ratio (x) = -0.58373 0.34263
# Poissons Ratio (y) = -0.58373 0.34263
# Poissons Ratio (z) = 0.67609 0.67610
#
# Static dielectric constant tensor:
#      x y z
#    x 1.815620 0.000000 0.000000 
#    y 0.000000 1.815620 0.000000 
#    z 0.000000 0.000000 1.052730 
# 
# From -- ./inp_files/6323.got.cif
#   From: 2010.05.17/outbox.cif.g08.bks.cpg/sg120_4_cif.got.tgz:6323.got - 2010.05.20 11:28:13.
