data_PCOD9559301
_publ_section_title
;
Structure prediction by ZEFSAII (Michael W. Deem and Ramdas Pophale) SiO2 
 PCOD9559301
Probable space group: I -4 M 2
;
_chemical_formula_sum "Si O2"
_cell_formula_units_Z 96
_cell_length_a 15.242828
_cell_length_b 15.242828
_cell_length_c 21.713861
_cell_angle_alpha 90.000000
_cell_angle_beta 90.000000
_cell_angle_gamma 90.000000
_cell_volume 5045.081095
_symmetry_space_group_name_H-M "I -4 M 2"
_symmetry_group_IT_number 119
_symmetry_cell_setting 'tetragonal'
loop_
_space_group_symop_operation_xyz
x,y,z
y,-x,-z
-x,-y,z
-y,x,-z
y,x,-z
-y,-x,-z
-x,y,z
x,-y,z
1/2+x,1/2+y,1/2+z
1/2+y,1/2-x,1/2-z
1/2-x,1/2-y,1/2+z
1/2-y,1/2+x,1/2-z
1/2+y,1/2+x,1/2-z
1/2-y,1/2-x,1/2-z
1/2-x,1/2+y,1/2+z
1/2+x,1/2-y,1/2+z
loop_
_atom_site_type_symbol
_atom_site_label
_atom_site_fract_x
_atom_site_fract_y
_atom_site_fract_z
Si Si1 0.899353 0.796065 0.233992
Si Si2 0.333685 0.794297 0.854802
Si Si3 0.826856 0.718161 0.911672
Si Si4 0.272334 0.902074 0.215763
Si Si5 0.396413 0.104068 0.974932
Si Si6 0.594685 0.401890 0.572966
O O1 0.863365 0.724820 0.184709
O O2 0.889624 0.753711 0.301971
O O3 0.829199 0.874439 0.224714
O O4 0.000000 0.819995 0.224746
O O5 0.271741 0.718950 0.885549
O O6 0.379703 0.846645 0.910137
O O7 0.892073 0.698550 0.855291
O O8 0.841615 0.822028 0.920517
O O9 0.850925 0.662752 0.971683
O O10 0.329108 0.829108 0.250000
O O11 0.287939 0.000000 0.238061
O O12 0.500000 0.110280 0.990060
O O13 0.373460 0.000000 0.970864
O O14 0.587850 0.412150 0.500000
O O15 0.500000 0.368577 0.594438
O O16 0.609771 0.500000 0.599015
#
# Coordination Sequence:
#
# PCOD9559301 Si02
#       6
#    16  16  16  16  16  16
#     4  10  20  39  64  89 121 158 200 251 307 359
#     4  10  20  38  58  87 117 161 199 247 303 361
#     4  11  21  37  57  80 115 157 195 243 304 350
#     4  11  23  42  62  87 119 156 203 247 300 362
#     4  11  23  36  54  86 122 159 206 250 291 349
#     4   9  17  28  45  75 112 147 182 221 276 350
#
# _framework density 19.028435000000002
#
# number of rings (size 3 to 8) (size 9 to 14) (size 15 to 20)
#    0.000    1.667    3.333    4.500    0.000    5.833 
#    0.000    0.000    0.000    4.000    0.000    0.000 
#    0.000    1.333    0.000    0.000    0.000    0.000 
#
# Total GULP energy -267649.666223 kJ/mol
# GULP energy per Si atom -5576.034713 kJ/mol
# Density = 1.898513 g / cm^3
# Si number density = 19.028435 Si / 1000 Ang^3
#
#
#
# Elastic Constant Matrix: (Units=GPa)
#
#
# Indices 1 2 3 4 5 6 
#
# 1 78.4485 26.4426 38.7489 0.0000 0.0000 0.0000
# 2 26.4426 78.4486 38.7490 0.0000 0.0000 0.0000
# 3 38.7489 38.7490 137.1320 0.0000 0.0000 0.0000
# 4 0.0000 0.0000 0.0000 6.5413 0.0000 0.0000
# 5 0.0000 0.0000 0.0000 0.0000 6.5416 0.0000
# 6 0.0000 0.0000 0.0000 0.0000 0.0000 -0.7168
#
#
#
# Elastic Compliance Matrix: (Units=1/GPa)
#
#
# Indices 1 2 3 4 5 6 
#
# 1 0.015639 -0.003590 -0.003405 0.000000 0.000000 0.000000
# 2 -0.003590 0.015639 -0.003405 0.000000 0.000000 0.000000
# 3 -0.003405 -0.003405 0.009216 0.000000 0.000000 0.000000
# 4 0.000000 0.000000 0.000000 0.152875 0.000000 0.000000
# 5 0.000000 0.000000 0.000000 0.000000 0.152867 0.000000
# 6 0.000000 0.000000 0.000000 0.000000 0.000000 -1.395183
#
#
# Mechanical properties :
#
#
# Convention : Reuss Voigt Hill
#
# Bulk Modulus (GPa) = 50.77180 55.76780 53.26980
# Shear Modulus (GPa) = -4.89436 15.14581 5.12572
#
# Velocity S-wave (km/s) = -1.60553 2.82433 1.64304
# Velocity P-wave (km/s) = 4.82732 6.32511 5.62628
#
# Compressibility (1/GPa) = 0.01969597
#
# Stress axis : x y z
#
# Youngs Moduli (GPa) = 63.94304 63.94313 108.50275
#
# Poissons Ratio (x) = 0.22954 0.36942
# Poissons Ratio (y) = 0.22954 0.36942
# Poissons Ratio (z) = 0.21771 0.21771
#
# Static dielectric constant tensor:
#      x y z
#    x 1.688020 0.000000 0.000000 
#    y 0.000000 1.688020 0.000000 
#    z 0.000000 0.000000 1.699860 
# 
# From -- ./inp_files/7805.got.cif
#   From: 2010.05.17/outbox.cif.g08.bks.cpg/sg119_4_cif.got.tgz:7805.got - 2010.05.20 11:21:29.
