data_PCOD9559325
_publ_section_title
;
Structure prediction by ZEFSAII (Michael W. Deem and Ramdas Pophale) SiO2 
 PCOD9559325
Probable space group: I -4 M 2
;
_chemical_formula_sum "Si O2"
_cell_formula_units_Z 88
_cell_length_a 15.929548
_cell_length_b 15.929548
_cell_length_c 21.594838
_cell_angle_alpha 90.000000
_cell_angle_beta 90.000000
_cell_angle_gamma 90.000000
_cell_volume 5479.700929
_symmetry_space_group_name_H-M "I -4 M 2"
_symmetry_group_IT_number 119
_symmetry_cell_setting 'tetragonal'
loop_
_space_group_symop_operation_xyz
x,y,z
y,-x,-z
-x,-y,z
-y,x,-z
y,x,-z
-y,-x,-z
-x,y,z
x,-y,z
1/2+x,1/2+y,1/2+z
1/2+y,1/2-x,1/2-z
1/2-x,1/2-y,1/2+z
1/2-y,1/2+x,1/2-z
1/2+y,1/2+x,1/2-z
1/2-y,1/2-x,1/2-z
1/2-x,1/2+y,1/2+z
1/2+x,1/2-y,1/2+z
loop_
_atom_site_type_symbol
_atom_site_label
_atom_site_fract_x
_atom_site_fract_y
_atom_site_fract_z
Si Si1 0.346418 0.153583 0.750000
Si Si2 0.898494 0.316557 0.480011
Si Si3 0.500000 0.099206 0.668354
Si Si4 0.224148 0.898364 0.647402
Si Si5 0.599648 0.093908 0.175921
Si Si6 0.500000 0.901652 0.520082
Si Si7 0.899378 0.761879 0.606511
O O1 0.419751 0.140345 0.699790
O O2 0.263033 0.137522 0.710793
O O3 0.877730 0.285081 0.411265
O O4 0.865575 0.409417 0.497882
O O5 0.877470 0.252337 0.534453
O O6 0.000000 0.324047 0.479592
O O7 0.500000 0.103399 0.594684
O O8 0.500000 0.000000 0.682556
O O9 0.140784 0.846393 0.632585
O O10 0.216228 0.000000 0.650572
O O11 0.500000 0.090443 0.161474
O O12 0.606033 0.106033 0.250000
O O13 0.631664 0.177194 0.141668
O O14 0.633449 0.000000 0.160287
O O15 0.500000 0.000000 0.500741
O O16 0.000000 0.765350 0.612316
#
# Coordination Sequence:
#
# PCOD9559325 Si02
#       7
#     8  16   8  16  16   8  16
#     4  12  19  30  48  74 102 131 164 200 250 308
#     4   9  18  31  47  70  97 129 166 205 250 302
#     4  11  16  26  48  74 103 131 154 188 244 311
#     4  11  22  34  49  69 100 138 175 209 250 304
#     4   8  15  29  48  69  92 118 152 197 252 309
#     4   9  16  26  46  74 104 129 152 196 253 311
#     4  10  21  34  50  70  96 131 173 215 252 297
#
# _framework density 16.059270999999999
#
# number of rings (size 3 to 8) (size 9 to 14) (size 15 to 20)
#    0.000    2.182    3.636    1.091    2.545    0.364 
#    0.000    0.000    0.000    3.273    0.000    0.000 
#    0.000    0.000    0.000    0.000    2.545    0.000 
#
# Total GULP energy -244941.822674 kJ/mol
# GULP energy per Si atom -5566.859606 kJ/mol
# Density = 1.602272 g / cm^3
# Si number density = 16.059271 Si / 1000 Ang^3
#
#
#
# Elastic Constant Matrix: (Units=GPa)
#
#
# Indices 1 2 3 4 5 6 
#
# 1 54.4255 37.0172 32.4975 0.0000 0.0000 0.0000
# 2 37.0172 54.4258 32.4978 0.0000 0.0000 0.0000
# 3 32.4975 32.4978 60.4817 0.0000 0.0000 0.0000
# 4 0.0000 0.0000 0.0000 26.5237 0.0000 0.0000
# 5 0.0000 0.0000 0.0000 0.0000 26.5238 0.0000
# 6 0.0000 0.0000 0.0000 0.0000 0.0000 18.0594
#
#
#
# Elastic Compliance Matrix: (Units=1/GPa)
#
#
# Indices 1 2 3 4 5 6 
#
# 1 0.037568 -0.019875 -0.009507 0.000000 0.000000 0.000000
# 2 -0.019875 0.037568 -0.009507 0.000000 0.000000 0.000000
# 3 -0.009507 -0.009507 0.026750 0.000000 0.000000 0.000000
# 4 0.000000 0.000000 0.000000 0.037702 0.000000 0.000000
# 5 0.000000 0.000000 0.000000 0.000000 0.037702 0.000000
# 6 0.000000 0.000000 0.000000 0.000000 0.000000 0.055373
#
#
# Mechanical properties :
#
#
# Convention : Reuss Voigt Hill
#
# Bulk Modulus (GPa) = 41.47786 41.48423 41.48105
# Shear Modulus (GPa) = 15.69974 18.70941 17.20458
#
# Velocity S-wave (km/s) = 3.13007 3.41695 3.27665
# Velocity P-wave (km/s) = 6.24077 6.43859 6.34045
#
# Compressibility (1/GPa) = 0.02410925
#
# Stress axis : x y z
#
# Youngs Moduli (GPa) = 26.61834 26.61834 37.38312
#
# Poissons Ratio (x) = 0.52904 0.35538
# Poissons Ratio (y) = 0.52904 0.35539
# Poissons Ratio (z) = 0.25305 0.25305
#
# Static dielectric constant tensor:
#      x y z
#    x 1.550530 0.000000 0.000000 
#    y 0.000000 1.550520 0.000000 
#    z 0.000000 0.000000 1.569910 
# 
# From -- ./inp_files/8731.got.cif
#   From: 2010.05.17/outbox.cif.g08.bks.cpg/sg119_5_cif.got.tgz:8731.got - 2010.05.20 11:21:29.
