data_PCOD9559629
_publ_section_title
;
Structure prediction by ZEFSAII (Michael W. Deem and Ramdas Pophale) SiO2 
 PCOD9559629
Probable space group: I -4 C 2
;
_chemical_formula_sum "Si O2"
_cell_formula_units_Z 96
_cell_length_a 20.646658
_cell_length_b 20.646658
_cell_length_c 11.779222
_cell_angle_alpha 90.000000
_cell_angle_beta 90.000000
_cell_angle_gamma 90.000000
_cell_volume 5021.299602
_symmetry_space_group_name_H-M "I -4 C 2"
_symmetry_group_IT_number 120
_symmetry_cell_setting 'tetragonal'
loop_
_space_group_symop_operation_xyz
x,y,z
y,-x,-z
-x,-y,z
-y,x,-z
y,x,1/2-z
-y,-x,1/2-z
-x,y,1/2+z
x,-y,1/2+z
1/2+x,1/2+y,1/2+z
1/2+y,1/2-x,1/2-z
1/2-x,1/2-y,1/2+z
1/2-y,1/2+x,1/2-z
1/2+y,1/2+x,-z
1/2-y,1/2-x,-z
1/2-x,1/2+y,z
1/2+x,1/2-y,z
loop_
_atom_site_type_symbol
_atom_site_label
_atom_site_fract_x
_atom_site_fract_y
_atom_site_fract_z
Si Si1 0.808717 0.583985 0.151101
Si Si2 0.467326 0.876240 0.441818
Si Si3 0.804719 0.377425 0.233704
Si Si4 0.681261 0.717510 0.963159
Si Si5 0.575048 0.279922 0.068937
Si Si6 0.442948 0.247075 0.105151
O O1 0.868856 0.538065 0.113535
O O2 0.831510 0.654897 0.184269
O O3 0.771753 0.559432 0.263159
O O4 0.761529 0.583044 0.045021
O O5 0.441641 0.941641 0.500000
O O6 0.417765 0.855321 0.342158
O O7 0.459973 0.818684 0.534988
O O8 0.758313 0.340769 0.146693
O O9 0.762950 0.420627 0.317527
O O10 0.679675 0.641488 0.932783
O O11 0.749735 0.750266 0.000000
O O12 0.627364 0.731373 0.059804
O O13 0.499100 0.299071 0.073316
#
# Coordination Sequence:
#
# PCOD9559629 Si02
#       6
#    16  16  16  16  16  16
#     4  11  20  35  58  80 122 156 202 255 304 377
#     4  10  19  34  58  77 110 159 203 245 300 364
#     4  11  19  36  57  85 114 154 201 254 309 365
#     4  11  21  38  62  88 126 155 199 262 322 383
#     4  11  24  34  55  92 116 155 201 254 321 371
#     4  10  20  38  57  83 117 162 198 248 317 378
#
# _framework density 19.118556999999999
#
# number of rings (size 3 to 8) (size 9 to 14) (size 15 to 20)
#    0.000    1.333    5.000    3.000    0.000    0.667 
#    0.000    0.000    0.000   20.000    0.000    0.000 
#    0.000    0.000    0.000    0.000    0.000    0.000 
#
# Total GULP energy -267592.763233 kJ/mol
# GULP energy per Si atom -5574.849234 kJ/mol
# Density = 1.907504 g / cm^3
# Si number density = 19.118557 Si / 1000 Ang^3
#
#
#
# Elastic Constant Matrix: (Units=GPa)
#
#
# Indices 1 2 3 4 5 6 
#
# 1 61.4101 31.6456 10.0191 0.0000 0.0000 0.0000
# 2 31.6456 61.4137 10.0203 0.0000 0.0000 0.0000
# 3 10.0191 10.0203 86.3305 0.0000 0.0000 0.0000
# 4 0.0000 0.0000 0.0000 10.3834 0.0000 0.0000
# 5 0.0000 0.0000 0.0000 0.0000 10.3831 0.0000
# 6 0.0000 0.0000 0.0000 0.0000 0.0000 -33.7529
#
#
#
# Elastic Compliance Matrix: (Units=1/GPa)
#
#
# Indices 1 2 3 4 5 6 
#
# 1 0.022309 -0.011287 -0.001279 0.000000 0.000000 0.000000
# 2 -0.011287 0.022308 -0.001279 0.000000 0.000000 0.000000
# 3 -0.001279 -0.001279 0.011880 0.000000 0.000000 0.000000
# 4 0.000000 0.000000 0.000000 0.096308 0.000000 0.000000
# 5 0.000000 0.000000 0.000000 0.000000 0.096310 0.000000
# 6 0.000000 0.000000 0.000000 0.000000 0.000000 -0.029627
#
#
# Mechanical properties :
#
#
# Convention : Reuss Voigt Hill
#
# Bulk Modulus (GPa) = 34.71426 34.72493 34.71960
# Shear Modulus (GPa) = 19.47190 7.90067 13.68629
#
# Velocity S-wave (km/s) = 3.19483 2.03505 2.67847
# Velocity P-wave (km/s) = 5.63968 4.87076 5.26927
#
# Compressibility (1/GPa) = 0.02880661
#
# Stress axis : x y z
#
# Youngs Moduli (GPa) = 44.82516 44.82761 84.17282
#
# Poissons Ratio (x) = 0.50596 0.10766
# Poissons Ratio (y) = 0.50593 0.10769
# Poissons Ratio (z) = 0.05733 0.05735
#
# Static dielectric constant tensor:
#      x y z
#    x 1.733020 0.000000 0.000000 
#    y 0.000000 1.733010 0.000000 
#    z 0.000000 0.000000 1.652410 
# 
# From -- ./inp_files/2756.got.cif
#   From: 2010.05.17/outbox.cif.g08.bks.cpg/sg120_2_cif.got.tgz:2756.got - 2010.05.20 11:28:13.
