data_PCOD9559288
_publ_section_title
;
Structure prediction by ZEFSAII (Michael W. Deem and Ramdas Pophale) SiO2 
 PCOD9559288
Probable space group: I -4 M 2
;
_chemical_formula_sum "Si O2"
_cell_formula_units_Z 96
_cell_length_a 18.659621
_cell_length_b 18.659621
_cell_length_c 15.597582
_cell_angle_alpha 90.000000
_cell_angle_beta 90.000000
_cell_angle_gamma 90.000000
_cell_volume 5430.788809
_symmetry_space_group_name_H-M "I -4 M 2"
_symmetry_group_IT_number 119
_symmetry_cell_setting 'tetragonal'
loop_
_space_group_symop_operation_xyz
x,y,z
y,-x,-z
-x,-y,z
-y,x,-z
y,x,-z
-y,-x,-z
-x,y,z
x,-y,z
1/2+x,1/2+y,1/2+z
1/2+y,1/2-x,1/2-z
1/2-x,1/2-y,1/2+z
1/2-y,1/2+x,1/2-z
1/2+y,1/2+x,1/2-z
1/2-y,1/2-x,1/2-z
1/2-x,1/2+y,1/2+z
1/2+x,1/2-y,1/2+z
loop_
_atom_site_type_symbol
_atom_site_label
_atom_site_fract_x
_atom_site_fract_y
_atom_site_fract_z
Si Si1 0.169146 0.294100 0.917516
Si Si2 0.760690 0.912882 0.732579
Si Si3 0.309068 0.794725 0.621106
Si Si4 0.839402 0.079880 0.072254
Si Si5 0.420271 0.081417 0.352873
Si Si6 0.585457 0.577687 0.752558
O O1 0.239838 0.258512 0.876414
O O2 0.106227 0.237528 0.897061
O O3 0.144266 0.369543 0.882551
O O4 0.174417 0.299453 0.020508
O O5 0.712722 0.870504 0.663076
O O6 0.739003 0.874138 0.822687
O O7 0.844147 0.894380 0.711998
O O8 0.752475 0.000000 0.735132
O O9 0.891901 0.080462 0.153112
O O10 0.837033 0.000000 0.036279
O O11 0.866429 0.133572 0.000000
O O12 0.500000 0.107208 0.380285
O O13 0.420053 0.079948 0.250000
O O14 0.412512 0.000000 0.383640
O O15 0.500000 0.575225 0.759264
O O16 0.613345 0.500000 0.786261
#
# Coordination Sequence:
#
# PCOD9559288 Si02
#       6
#    16  16  16  16  16  16
#     4  11  20  36  54  80 111 146 184 233 273 333
#     4  10  20  37  57  76 109 147 183 233 280 321
#     4  10  22  36  54  81 107 141 192 232 277 333
#     4  11  19  28  45  75 109 145 176 209 267 328
#     4   9  20  37  56  81 112 145 181 225 278 332
#     4   9  17  29  47  74 107 140 176 213 258 324
#
# _framework density 17.676988999999999
#
# number of rings (size 3 to 8) (size 9 to 14) (size 15 to 20)
#    0.000    2.000    3.333    1.500    2.333    4.167 
#    0.000    0.833    0.000    5.000    0.000    0.000 
#    0.000    0.000    0.000    0.000    0.000    0.000 
#
# Total GULP energy -267293.434323 kJ/mol
# GULP energy per Si atom -5568.613215 kJ/mol
# Density = 1.763676 g / cm^3
# Si number density = 17.676989 Si / 1000 Ang^3
#
#
#
# Elastic Constant Matrix: (Units=GPa)
#
#
# Indices 1 2 3 4 5 6 
#
# 1 77.5969 44.0005 13.4069 0.0000 0.0000 0.0000
# 2 44.0005 77.5949 13.4061 0.0000 0.0000 0.0000
# 3 13.4069 13.4061 28.0307 0.0000 0.0000 0.0000
# 4 0.0000 0.0000 0.0000 17.9340 0.0000 0.0000
# 5 0.0000 0.0000 0.0000 0.0000 17.9341 0.0000
# 6 0.0000 0.0000 0.0000 0.0000 0.0000 30.2472
#
#
#
# Elastic Compliance Matrix: (Units=1/GPa)
#
#
# Indices 1 2 3 4 5 6 
#
# 1 0.019480 -0.010286 -0.004397 0.000000 0.000000 0.000000
# 2 -0.010286 0.019480 -0.004397 0.000000 0.000000 0.000000
# 3 -0.004397 -0.004397 0.039881 0.000000 0.000000 0.000000
# 4 0.000000 0.000000 0.000000 0.055760 0.000000 0.000000
# 5 0.000000 0.000000 0.000000 0.000000 0.055760 0.000000
# 6 0.000000 0.000000 0.000000 0.000000 0.000000 0.033061
#
#
# Mechanical properties :
#
#
# Convention : Reuss Voigt Hill
#
# Bulk Modulus (GPa) = 24.58212 36.09439 30.33826
# Shear Modulus (GPa) = 18.17242 20.71698 19.44470
#
# Velocity S-wave (km/s) = 3.20976 3.42713 3.32022
# Velocity P-wave (km/s) = 5.26054 6.01028 5.64786
#
# Compressibility (1/GPa) = 0.04067997
#
# Stress axis : x y z
#
# Youngs Moduli (GPa) = 51.33580 51.33492 25.07445
#
# Poissons Ratio (x) = 0.52804 0.11026
# Poissons Ratio (y) = 0.52805 0.11025
# Poissons Ratio (z) = 0.22574 0.22571
#
# Static dielectric constant tensor:
#      x y z
#    x 1.656440 0.000000 0.000000 
#    y 0.000000 1.656440 0.000000 
#    z 0.000000 0.000000 1.582770 
# 
# From -- ./inp_files/6601.got.cif
#   From: 2010.05.17/outbox.cif.g08.bks.cpg/sg119_4_cif.got.tgz:6601.got - 2010.05.20 11:21:29.
