data_PCOD9559306
_publ_section_title
;
Structure prediction by ZEFSAII (Michael W. Deem and Ramdas Pophale) SiO2 
 PCOD9559306
Probable space group: I -4 M 2
;
_chemical_formula_sum "Si O2"
_cell_formula_units_Z 56
_cell_length_a 12.228919
_cell_length_b 12.228919
_cell_length_c 20.345793
_cell_angle_alpha 90.000000
_cell_angle_beta 90.000000
_cell_angle_gamma 90.000000
_cell_volume 3042.641317
_symmetry_space_group_name_H-M "I -4 M 2"
_symmetry_group_IT_number 119
_symmetry_cell_setting 'tetragonal'
loop_
_space_group_symop_operation_xyz
x,y,z
y,-x,-z
-x,-y,z
-y,x,-z
y,x,-z
-y,-x,-z
-x,y,z
x,-y,z
1/2+x,1/2+y,1/2+z
1/2+y,1/2-x,1/2-z
1/2-x,1/2-y,1/2+z
1/2-y,1/2+x,1/2-z
1/2+y,1/2+x,1/2-z
1/2-y,1/2-x,1/2-z
1/2-x,1/2+y,1/2+z
1/2+x,1/2-y,1/2+z
loop_
_atom_site_type_symbol
_atom_site_label
_atom_site_fract_x
_atom_site_fract_y
_atom_site_fract_z
Si Si1 0.712565 0.249255 0.929998
Si Si2 0.372905 0.000000 0.529352
Si Si3 0.000000 0.766620 0.592554
Si Si4 0.371375 0.729880 0.699808
Si Si5 0.124201 0.000000 0.274829
O O1 0.602310 0.182332 0.936436
O O2 0.686919 0.379557 0.926049
O O3 0.771336 0.202406 0.865937
O O4 0.771033 0.228968 0.000000
O O5 0.343226 0.000000 0.451389
O O6 0.500000 0.000000 0.538403
O O7 0.000000 0.781111 0.670547
O O8 0.500000 0.754854 0.686815
O O9 0.317127 0.817127 0.750000
O O10 0.367370 0.610335 0.732964
O O11 0.000000 0.000000 0.305164
#
# Coordination Sequence:
#
# PCOD9559306 Si02
#       5
#    16   8   8  16   8
#     4  10  22  40  61  91 122 161 207 254 313 371
#     4  10  22  39  61  94 129 157 202 264 320 373
#     4  10  20  38  62  89 122 160 209 250 313 372
#     4  11  23  40  63  91 123 162 207 256 317 374
#     4  10  22  40  62  86 126 162 211 263 302 378
#
# _framework density 18.405061
#
# number of rings (size 3 to 8) (size 9 to 14) (size 15 to 20)
#    0.000    1.714    2.857    0.857    4.000    0.286 
#   15.429    0.000    3.143    0.000    0.000    0.000 
#    0.000    0.000    0.000    0.000    0.000    0.000 
#
# Total GULP energy -155875.802135 kJ/mol
# GULP energy per Si atom -5566.992933 kJ/mol
# Density = 1.836317 g / cm^3
# Si number density = 18.405061 Si / 1000 Ang^3
#
#
#
# Elastic Constant Matrix: (Units=GPa)
#
#
# Indices 1 2 3 4 5 6 
#
# 1 94.7945 50.4793 20.4906 0.0000 0.0000 0.0000
# 2 50.4793 94.7964 20.4914 0.0000 0.0000 0.0000
# 3 20.4906 20.4914 98.3955 0.0000 0.0000 0.0000
# 4 0.0000 0.0000 0.0000 19.6007 0.0000 0.0000
# 5 0.0000 0.0000 0.0000 0.0000 19.6009 0.0000
# 6 0.0000 0.0000 0.0000 0.0000 0.0000 21.5013
#
#
#
# Elastic Compliance Matrix: (Units=1/GPa)
#
#
# Indices 1 2 3 4 5 6 
#
# 1 0.014939 -0.007626 -0.001523 0.000000 0.000000 0.000000
# 2 -0.007626 0.014939 -0.001523 0.000000 0.000000 0.000000
# 3 -0.001523 -0.001523 0.010797 0.000000 0.000000 0.000000
# 4 0.000000 0.000000 0.000000 0.051018 0.000000 0.000000
# 5 0.000000 0.000000 0.000000 0.000000 0.051018 0.000000
# 6 0.000000 0.000000 0.000000 0.000000 0.000000 0.046509
#
#
# Mechanical properties :
#
#
# Convention : Reuss Voigt Hill
#
# Bulk Modulus (GPa) = 51.72830 52.32323 52.02576
# Shear Modulus (GPa) = 23.04051 25.24224 24.14138
#
# Velocity S-wave (km/s) = 3.54200 3.70737 3.62563
# Velocity P-wave (km/s) = 6.70031 6.84226 6.77166
#
# Compressibility (1/GPa) = 0.01933178
#
# Stress axis : x y z
#
# Youngs Moduli (GPa) = 66.93766 66.93878 92.61495
#
# Poissons Ratio (x) = 0.51048 0.14104
# Poissons Ratio (y) = 0.51047 0.14106
# Poissons Ratio (z) = 0.10194 0.10195
#
# Static dielectric constant tensor:
#      x y z
#    x 1.469100 0.000000 0.000000 
#    y 0.000000 1.469100 0.000000 
#    z 0.000000 0.000000 1.677340 
# 
# From -- ./inp_files/7272.got.cif
#   From: 2010.05.17/outbox.cif.g08.bks.cpg/sg119_4_cif.got.tgz:7272.got - 2010.05.20 11:21:29.
