data_PCOD9559541
_publ_section_title
;
Structure prediction by ZEFSAII (Michael W. Deem and Ramdas Pophale) SiO2 
 PCOD9559541
Probable space group: I -4 M 2
;
_chemical_formula_sum "Si O2"
_cell_formula_units_Z 56
_cell_length_a 9.567803
_cell_length_b 9.567803
_cell_length_c 37.408439
_cell_angle_alpha 90.000000
_cell_angle_beta 90.000000
_cell_angle_gamma 90.000000
_cell_volume 3424.475279
_symmetry_space_group_name_H-M "I -4 M 2"
_symmetry_group_IT_number 119
_symmetry_cell_setting 'tetragonal'
loop_
_space_group_symop_operation_xyz
x,y,z
y,-x,-z
-x,-y,z
-y,x,-z
y,x,-z
-y,-x,-z
-x,y,z
x,-y,z
1/2+x,1/2+y,1/2+z
1/2+y,1/2-x,1/2-z
1/2-x,1/2-y,1/2+z
1/2-y,1/2+x,1/2-z
1/2+y,1/2+x,1/2-z
1/2-y,1/2-x,1/2-z
1/2-x,1/2+y,1/2+z
1/2+x,1/2-y,1/2+z
loop_
_atom_site_type_symbol
_atom_site_label
_atom_site_fract_x
_atom_site_fract_y
_atom_site_fract_z
Si Si1 0.165873 0.165873 0.500000
Si Si2 0.834085 0.833734 0.858645
Si Si3 0.665859 0.833951 0.929249
Si Si4 0.661272 0.170250 0.210628
O O1 0.208116 0.250340 0.464693
O O2 0.000000 0.188107 0.505623
O O3 0.750786 0.790734 0.894076
O O4 0.786744 0.753169 0.823092
O O5 0.000000 0.808224 0.863534
O O6 0.814770 0.000000 0.853793
O O7 0.500000 0.811470 0.923636
O O8 0.687874 0.000000 0.934644
O O9 0.500000 0.214144 0.206075
O O10 0.713796 0.213796 0.250000
O O11 0.661831 0.000000 0.211668
#
# Coordination Sequence:
#
# PCOD9559541 Si02
#       4
#     8  16  16  16
#     4   9  18  32  48  65  86 112 142 177 214 250
#     4   9  17  29  45  65  88 113 142 177 214 250
#     4   9  18  32  47  63  87 117 143 170 211 259
#     4   8  14  26  44  64  86 113 144 177 213 252
#
# _framework density 16.352871
#
# number of rings (size 3 to 8) (size 9 to 14) (size 15 to 20)
#    0.000    3.286    0.000    0.857    0.000    2.286 
#    0.000    1.429    0.000    1.714    0.000    0.000 
#    0.000    0.000    0.000    0.000    0.000    0.000 
#
# Total GULP energy -155914.184766 kJ/mol
# GULP energy per Si atom -5568.363742 kJ/mol
# Density = 1.631565 g / cm^3
# Si number density = 16.352871 Si / 1000 Ang^3
#
#
#
# Elastic Constant Matrix: (Units=GPa)
#
#
# Indices 1 2 3 4 5 6 
#
# 1 31.6374 30.6917 71.5651 0.0000 0.0000 0.0000
# 2 30.6917 31.6374 71.5651 0.0000 0.0000 0.0000
# 3 71.5651 71.5651 219.9470 0.0000 0.0000 0.0000
# 4 0.0000 0.0000 0.0000 33.3540 0.0000 0.0000
# 5 0.0000 0.0000 0.0000 0.0000 33.3540 0.0000
# 6 0.0000 0.0000 0.0000 0.0000 0.0000 14.1437
#
#
#
# Elastic Compliance Matrix: (Units=1/GPa)
#
#
# Indices 1 2 3 4 5 6 
#
# 1 0.560455 -0.496997 -0.020648 0.000000 0.000000 0.000000
# 2 -0.496997 0.560456 -0.020648 0.000000 0.000000 0.000000
# 3 -0.020648 -0.020648 0.017983 0.000000 0.000000 0.000000
# 4 0.000000 0.000000 0.000000 0.029981 0.000000 0.000000
# 5 0.000000 0.000000 0.000000 0.000000 0.029981 0.000000
# 6 0.000000 0.000000 0.000000 0.000000 0.000000 0.070703
#
#
# Mechanical properties :
#
#
# Convention : Reuss Voigt Hill
#
# Bulk Modulus (GPa) = 16.04903 70.09617 43.07260
# Shear Modulus (GPa) = 2.11246 23.46367 12.78807
#
# Velocity S-wave (km/s) = 1.13780 3.79203 2.79947
# Velocity P-wave (km/s) = 3.40024 7.88229 6.07009
#
# Compressibility (1/GPa) = 0.06230907
#
# Stress axis : x y z
#
# Youngs Moduli (GPa) = 1.78426 1.78426 55.60789
#
# Poissons Ratio (x) = 0.88677 1.14817
# Poissons Ratio (y) = 0.88677 1.14818
# Poissons Ratio (z) = 0.03684 0.03684
#
# Static dielectric constant tensor:
#      x y z
#    x 1.543930 0.000000 0.000000 
#    y 0.000000 1.543930 0.000000 
#    z 0.000000 0.000000 1.539580 
# 
# From -- ./inp_files/7249.got.cif
#   From: 2010.05.17/outbox.cif.g08.bks.cpg/sg119_4_cif.got.tgz:7249.got - 2010.05.20 11:21:29.
