data_PCOD9559007
_publ_section_title
;
Structure prediction by ZEFSAII (Michael W. Deem and Ramdas Pophale) SiO2 
 PCOD9559007
Probable space group: I -4 M 2
;
_chemical_formula_sum "Si O2"
_cell_formula_units_Z 128
_cell_length_a 19.398715
_cell_length_b 19.398715
_cell_length_c 20.779253
_cell_angle_alpha 90.000000
_cell_angle_beta 90.000000
_cell_angle_gamma 90.000000
_cell_volume 7819.443681
_symmetry_space_group_name_H-M "I -4 M 2"
_symmetry_group_IT_number 119
_symmetry_cell_setting 'tetragonal'
loop_
_space_group_symop_operation_xyz
x,y,z
y,-x,-z
-x,-y,z
-y,x,-z
y,x,-z
-y,-x,-z
-x,y,z
x,-y,z
1/2+x,1/2+y,1/2+z
1/2+y,1/2-x,1/2-z
1/2-x,1/2-y,1/2+z
1/2-y,1/2+x,1/2-z
1/2+y,1/2+x,1/2-z
1/2-y,1/2-x,1/2-z
1/2-x,1/2+y,1/2+z
1/2+x,1/2-y,1/2+z
loop_
_atom_site_type_symbol
_atom_site_label
_atom_site_fract_x
_atom_site_fract_y
_atom_site_fract_z
Si Si1 0.224003 0.663646 0.012975
Si Si2 0.703494 0.918055 0.379313
Si Si3 0.418408 0.648069 0.182031
Si Si4 0.923564 0.135260 0.062588
Si Si5 0.330502 0.583018 0.675964
Si Si6 0.153285 0.081424 0.561536
Si Si7 0.423927 0.207644 0.514549
Si Si8 0.678027 0.078658 0.138876
O O1 0.273829 0.620399 0.058650
O O2 0.146501 0.672764 0.037992
O O3 0.263306 0.736695 0.000000
O O4 0.219874 0.620457 0.946577
O O5 0.771505 0.908476 0.336332
O O6 0.635389 0.880945 0.351976
O O7 0.693042 0.000000 0.388725
O O8 0.500000 0.634894 0.179184
O O9 0.395771 0.638101 0.255509
O O10 0.383021 0.602390 0.127709
O O11 0.867433 0.119352 0.116526
O O12 0.919733 0.213197 0.036249
O O13 0.000000 0.123075 0.089199
O O14 0.911141 0.088860 0.000000
O O15 0.337958 0.500000 0.668230
O O16 0.248618 0.596585 0.675309
O O17 0.110934 0.110934 0.500000
O O18 0.160460 0.000000 0.554803
O O19 0.500000 0.181161 0.534718
O O20 0.421231 0.199391 0.437002
O O21 0.657455 0.000000 0.155116
#
# Coordination Sequence:
#
# PCOD9559007 Si02
#       8
#    16  16  16  16  16  16  16  16
#     4  10  18  30  53  78 104 136 172 215 261 307
#     4  10  19  33  52  76 105 135 172 217 260 304
#     4  10  21  36  50  70 103 140 173 212 261 312
#     4  11  20  31  50  75 101 131 172 218 253 298
#     4  10  21  35  49  68 102 142 176 209 258 312
#     4  11  21  34  54  79 102 131 175 221 265 313
#     4   9  18  31  50  76 103 133 169 211 259 304
#     4   9  18  33  52  74 102 137 174 213 258 308
#
# _framework density 16.369451000000002
#
# number of rings (size 3 to 8) (size 9 to 14) (size 15 to 20)
#    0.000    2.000    3.750    1.500    1.750    3.000 
#    0.000    1.250    0.000    1.125    0.000    3.500 
#    0.000    0.000    0.000    0.000    0.000   27.875 
#
# Total GULP energy -356809.159677 kJ/mol
# GULP energy per Si atom -5575.143120 kJ/mol
# Density = 1.633219 g / cm^3
# Si number density = 16.369451 Si / 1000 Ang^3
#
#
#
# Elastic Constant Matrix: (Units=GPa)
#
#
# Indices 1 2 3 4 5 6 
#
# 1 78.3649 34.2174 13.0302 0.0000 0.0000 0.0000
# 2 34.2174 78.3635 13.0311 0.0000 0.0000 0.0000
# 3 13.0302 13.0311 45.3233 0.0000 0.0000 0.0000
# 4 0.0000 0.0000 0.0000 12.7240 0.0000 0.0000
# 5 0.0000 0.0000 0.0000 0.0000 12.7241 0.0000
# 6 0.0000 0.0000 0.0000 0.0000 0.0000 17.4542
#
#
#
# Elastic Compliance Matrix: (Units=1/GPa)
#
#
# Indices 1 2 3 4 5 6 
#
# 1 0.016084 -0.006568 -0.002736 0.000000 0.000000 0.000000
# 2 -0.006568 0.016084 -0.002736 0.000000 0.000000 0.000000
# 3 -0.002736 -0.002736 0.023637 0.000000 0.000000 0.000000
# 4 0.000000 0.000000 0.000000 0.078591 0.000000 0.000000
# 5 0.000000 0.000000 0.000000 0.000000 0.078591 0.000000
# 6 0.000000 0.000000 0.000000 0.000000 0.000000 0.057293
#
#
# Mechanical properties :
#
#
# Convention : Reuss Voigt Hill
#
# Bulk Modulus (GPa) = 31.52081 35.84543 33.68312
# Shear Modulus (GPa) = 16.39699 18.03199 17.21449
#
# Velocity S-wave (km/s) = 3.16837 3.32258 3.24639
# Velocity P-wave (km/s) = 5.71686 6.05514 5.88843
#
# Compressibility (1/GPa) = 0.03172507
#
# Stress axis : x y z
#
# Youngs Moduli (GPa) = 62.17541 62.17386 42.30683
#
# Poissons Ratio (x) = 0.40836 0.11573
# Poissons Ratio (y) = 0.40837 0.11576
# Poissons Ratio (z) = 0.17008 0.17011
#
# Static dielectric constant tensor:
#      x y z
#    x 1.559550 0.000000 0.000000 
#    y 0.000000 1.559560 0.000000 
#    z 0.000000 0.000000 1.545650 
# 
# From -- ./inp_files/6901.got.cif
#   From: 2010.05.17/outbox.cif.g08.bks.cpg/sg119_4_cif.got.tgz:6901.got - 2010.05.20 11:21:29.
