data_PCOD9559644
_publ_section_title
;
Structure prediction by ZEFSAII (Michael W. Deem and Ramdas Pophale) SiO2 
 PCOD9559644
Probable space group: I -4 C 2
;
_chemical_formula_sum "Si O2"
_cell_formula_units_Z 76
_cell_length_a 14.142923
_cell_length_b 14.142923
_cell_length_c 19.660160
_cell_angle_alpha 90.000000
_cell_angle_beta 90.000000
_cell_angle_gamma 90.000000
_cell_volume 3932.469851
_symmetry_space_group_name_H-M "I -4 C 2"
_symmetry_group_IT_number 120
_symmetry_cell_setting 'tetragonal'
loop_
_space_group_symop_operation_xyz
x,y,z
y,-x,-z
-x,-y,z
-y,x,-z
y,x,1/2-z
-y,-x,1/2-z
-x,y,1/2+z
x,-y,1/2+z
1/2+x,1/2+y,1/2+z
1/2+y,1/2-x,1/2-z
1/2-x,1/2-y,1/2+z
1/2-y,1/2+x,1/2-z
1/2+y,1/2+x,-z
1/2-y,1/2-x,-z
1/2-x,1/2+y,z
1/2+x,1/2-y,z
loop_
_atom_site_type_symbol
_atom_site_label
_atom_site_fract_x
_atom_site_fract_y
_atom_site_fract_z
Si Si1 0.061303 0.856082 0.901283
Si Si2 0.374861 0.374861 0.250000
Si Si3 0.900152 0.099849 0.750000
Si Si4 0.666026 0.668260 0.393808
Si Si5 0.000000 0.000000 0.000000
Si Si6 0.702149 0.051807 0.488082
Si Si7 0.667135 0.832866 0.500000
O O1 0.112214 0.861326 0.828141
O O2 0.079192 0.763136 0.944884
O O3 0.946081 0.859038 0.896208
O O4 0.075194 0.944773 0.952386
O O5 0.370367 0.489165 0.258794
O O6 0.325347 0.325696 0.313645
O O7 0.737149 0.592866 0.425935
O O8 0.684204 0.762347 0.437223
O O9 0.603656 0.103656 0.500000
O O10 0.686019 0.940953 0.480625
#
# Coordination Sequence:
#
# PCOD9559644 Si02
#       7
#    16   8   8  16   4  16   8
#     4  10  20  31  56  89 121 157 197 249 312 366
#     4   9  18  32  57  87 129 159 187 252 316 380
#     4   9  18  32  51  91 127 159 190 247 328 372
#     4  10  19  37  59  87 121 156 206 250 306 362
#     4  12  16  26  52  88 120 150 184 244 300 350
#     4  11  22  39  61  87 121 164 210 255 303 369
#     4  10  23  38  64  91 118 160 212 258 302 371
#
# _framework density 19.326276
#
# number of rings (size 3 to 8) (size 9 to 14) (size 15 to 20)
#    0.000    1.895    3.158    2.842    0.000    0.000 
#    0.000    1.053    9.263    1.263    0.000    0.000 
#    0.000    0.000    0.000    0.000    0.000    0.000 
#
# Total GULP energy -211591.651733 kJ/mol
# GULP energy per Si atom -5568.201361 kJ/mol
# Density = 1.928229 g / cm^3
# Si number density = 19.326276 Si / 1000 Ang^3
#
#
#
# Elastic Constant Matrix: (Units=GPa)
#
#
# Indices 1 2 3 4 5 6 
#
# 1 110.4128 17.0687 53.4935 0.0000 0.0000 0.0000
# 2 17.0687 110.4128 53.4916 0.0000 0.0000 0.0000
# 3 53.4935 53.4916 193.4959 0.0000 0.0000 0.0000
# 4 0.0000 0.0000 0.0000 24.6117 0.0000 0.0000
# 5 0.0000 0.0000 0.0000 0.0000 24.6118 0.0000
# 6 0.0000 0.0000 0.0000 0.0000 0.0000 26.3414
#
#
#
# Elastic Compliance Matrix: (Units=1/GPa)
#
#
# Indices 1 2 3 4 5 6 
#
# 1 0.010464 -0.000250 -0.002824 0.000000 0.000000 0.000000
# 2 -0.000250 0.010463 -0.002824 0.000000 0.000000 0.000000
# 3 -0.002824 -0.002824 0.006729 0.000000 0.000000 0.000000
# 4 0.000000 0.000000 0.000000 0.040631 0.000000 0.000000
# 5 0.000000 0.000000 0.000000 0.000000 0.040631 0.000000
# 6 0.000000 0.000000 0.000000 0.000000 0.000000 0.037963
#
#
# Mechanical properties :
#
#
# Convention : Reuss Voigt Hill
#
# Bulk Modulus (GPa) = 63.04176 73.60323 68.32249
# Shear Modulus (GPa) = 30.49475 34.46416 32.47946
#
# Velocity S-wave (km/s) = 3.97658 4.22747 4.10394
# Velocity P-wave (km/s) = 7.33313 7.87375 7.60824
#
# Compressibility (1/GPa) = 0.01586250
#
# Stress axis : x y z
#
# Youngs Moduli (GPa) = 95.56974 95.57072 148.60385
#
# Poissons Ratio (x) = 0.02385 0.41962
# Poissons Ratio (y) = 0.02385 0.41960
# Poissons Ratio (z) = 0.26986 0.26986
#
# Static dielectric constant tensor:
#      x y z
#    x 1.718620 0.000000 0.000000 
#    y 0.000000 1.718620 0.000000 
#    z 0.000000 0.000000 1.758220 
# 
# From -- ./inp_files/5232.got.cif
#   From: 2010.05.17/outbox.cif.g08.bks.cpg/sg120_3_cif.got.tgz:5232.got - 2010.05.20 11:28:13.
