data_PCOD9559019
_publ_section_title
;
Structure prediction by ZEFSAII (Michael W. Deem and Ramdas Pophale) SiO2 
 PCOD9559019
Probable space group: I -4 M 2
;
_chemical_formula_sum "Si O2"
_cell_formula_units_Z 80
_cell_length_a 11.669005
_cell_length_b 11.669005
_cell_length_c 33.345005
_cell_angle_alpha 90.000000
_cell_angle_beta 90.000000
_cell_angle_gamma 90.000000
_cell_volume 4540.445203
_symmetry_space_group_name_H-M "I -4 M 2"
_symmetry_group_IT_number 119
_symmetry_cell_setting 'tetragonal'
loop_
_space_group_symop_operation_xyz
x,y,z
y,-x,-z
-x,-y,z
-y,x,-z
y,x,-z
-y,-x,-z
-x,y,z
x,-y,z
1/2+x,1/2+y,1/2+z
1/2+y,1/2-x,1/2-z
1/2-x,1/2-y,1/2+z
1/2-y,1/2+x,1/2-z
1/2+y,1/2+x,1/2-z
1/2-y,1/2-x,1/2-z
1/2-x,1/2+y,1/2+z
1/2+x,1/2-y,1/2+z
loop_
_atom_site_type_symbol
_atom_site_label
_atom_site_fract_x
_atom_site_fract_y
_atom_site_fract_z
Si Si1 0.868874 0.233298 0.962776
Si Si2 0.632502 0.000000 0.859869
Si Si3 0.216936 0.727431 0.319350
Si Si4 0.370771 0.500000 0.411169
Si Si5 0.374489 0.632332 0.249199
Si Si6 0.635184 0.135688 0.116011
O O1 0.840274 0.329441 0.930035
O O2 0.000000 0.252235 0.977105
O O3 0.869380 0.113611 0.938296
O O4 0.784537 0.215464 0.000000
O O5 0.648423 0.883704 0.834334
O O6 0.750849 0.000000 0.886579
O O7 0.500000 0.000000 0.876553
O O8 0.307071 0.689648 0.285405
O O9 0.140484 0.814360 0.293858
O O10 0.284559 0.789361 0.355202
O O11 0.500000 0.500000 0.390612
O O12 0.500000 0.684873 0.245974
O O13 0.381558 0.500000 0.260113
O O14 0.500000 0.152778 0.122501
O O15 0.661330 0.000000 0.122875
#
# Coordination Sequence:
#
# PCOD9559019 Si02
#       6
#    16   8  16   8  16  16
#     4  10  18  31  56  86 116 148 189 240 299 350
#     4  12  24  38  56  88 124 156 198 242 304 370
#     4  11  21  37  56  80 111 157 188 243 294 353
#     4  10  20  34  58  90 116 152 194 242 294 352
#     4  10  21  36  55  80 106 141 193 242 286 343
#     4  10  21  36  56  84 117 153 197 245 296 354
#
# _framework density 17.619419000000001
#
# number of rings (size 3 to 8) (size 9 to 14) (size 15 to 20)
#    0.000    1.600    4.000    1.800    0.000    0.800 
#    0.000    1.000    0.000    4.800    0.000    0.000 
#    0.000    0.000    0.000    0.000    0.000    0.000 
#
# Total GULP energy -222838.571964 kJ/mol
# GULP energy per Si atom -5570.964299 kJ/mol
# Density = 1.757932 g / cm^3
# Si number density = 17.619419 Si / 1000 Ang^3
#
#
#
# Elastic Constant Matrix: (Units=GPa)
#
#
# Indices 1 2 3 4 5 6 
#
# 1 82.8428 12.6841 25.0058 0.0000 0.0000 0.0000
# 2 12.6841 82.8425 25.0056 0.0000 0.0000 0.0000
# 3 25.0058 25.0056 72.1075 0.0000 0.0000 0.0000
# 4 0.0000 0.0000 0.0000 23.8964 0.0000 0.0000
# 5 0.0000 0.0000 0.0000 0.0000 23.8968 0.0000
# 6 0.0000 0.0000 0.0000 0.0000 0.0000 15.4302
#
#
#
# Elastic Compliance Matrix: (Units=1/GPa)
#
#
# Indices 1 2 3 4 5 6 
#
# 1 0.013522 -0.000732 -0.004436 0.000000 0.000000 0.000000
# 2 -0.000732 0.013522 -0.004435 0.000000 0.000000 0.000000
# 3 -0.004436 -0.004435 0.016945 0.000000 0.000000 0.000000
# 4 0.000000 0.000000 0.000000 0.041847 0.000000 0.000000
# 5 0.000000 0.000000 0.000000 0.000000 0.041847 0.000000
# 6 0.000000 0.000000 0.000000 0.000000 0.000000 0.064808
#
#
# Mechanical properties :
#
#
# Convention : Reuss Voigt Hill
#
# Bulk Modulus (GPa) = 40.34976 40.35376 40.35176
# Shear Modulus (GPa) = 22.73178 24.31784 23.52481
#
# Velocity S-wave (km/s) = 3.59577 3.71910 3.65795
# Velocity P-wave (km/s) = 6.33955 6.43389 6.38689
#
# Compressibility (1/GPa) = 0.02478329
#
# Stress axis : x y z
#
# Youngs Moduli (GPa) = 73.95412 73.95396 59.01613
#
# Poissons Ratio (x) = 0.05410 0.26177
# Poissons Ratio (y) = 0.05410 0.26177
# Poissons Ratio (z) = 0.32803 0.32802
#
# Static dielectric constant tensor:
#      x y z
#    x 1.641320 0.000000 0.000000 
#    y 0.000000 1.641320 0.000000 
#    z 0.000000 0.000000 1.594150 
# 
# From -- ./inp_files/10148.got.cif
#   From: 2010.05.17/outbox.cif.g08.bks.cpg/sg119_6_cif.got.tgz:10148.got - 2010.05.20 11:21:29.
