data_PCOD9559096
_publ_section_title
;
Structure prediction by ZEFSAII (Michael W. Deem and Ramdas Pophale) SiO2 
 PCOD9559096
Probable space group: I -4 M 2
;
_chemical_formula_sum "Si O2"
_cell_formula_units_Z 96
_cell_length_a 31.541134
_cell_length_b 31.541134
_cell_length_c 5.203413
_cell_angle_alpha 90.000000
_cell_angle_beta 90.000000
_cell_angle_gamma 90.000000
_cell_volume 5176.579696
_symmetry_space_group_name_H-M "I -4 M 2"
_symmetry_group_IT_number 119
_symmetry_cell_setting 'tetragonal'
loop_
_space_group_symop_operation_xyz
x,y,z
y,-x,-z
-x,-y,z
-y,x,-z
y,x,-z
-y,-x,-z
-x,y,z
x,-y,z
1/2+x,1/2+y,1/2+z
1/2+y,1/2-x,1/2-z
1/2-x,1/2-y,1/2+z
1/2-y,1/2+x,1/2-z
1/2+y,1/2+x,1/2-z
1/2-y,1/2-x,1/2-z
1/2-x,1/2+y,1/2+z
1/2+x,1/2-y,1/2+z
loop_
_atom_site_type_symbol
_atom_site_label
_atom_site_fract_x
_atom_site_fract_y
_atom_site_fract_z
Si Si1 0.570564 0.000000 0.212683
Si Si2 0.546952 0.619259 0.972232
Si Si3 0.160281 0.200168 0.761597
Si Si4 0.419917 0.350807 0.471408
Si Si5 0.407352 0.165078 0.747668
Si Si6 0.367631 0.203777 0.245720
Si Si7 0.000000 0.626783 0.284818
O O1 0.541000 0.959001 0.250000
O O2 0.606602 0.000000 0.430598
O O3 0.589909 0.000000 0.929220
O O4 0.500000 0.603204 0.908889
O O5 0.560960 0.653097 0.754007
O O6 0.581059 0.581059 0.000000
O O7 0.547290 0.643001 0.244178
O O8 0.176687 0.176687 0.500000
O O9 0.116364 0.180490 0.870209
O O10 0.150402 0.249133 0.716992
O O11 0.192488 0.192488 0.000000
O O12 0.395089 0.395089 0.500000
O O13 0.377437 0.122564 0.750000
O O14 0.393314 0.193584 0.505710
O O15 0.456469 0.152347 0.742993
O O16 0.396220 0.190534 0.004921
O O17 0.327898 0.172103 0.250000
#
# Coordination Sequence:
#
# PCOD9559096 Si02
#       7
#     8  16  16  16  16  16   8
#     4  11  22  34  52  86 122 144 184 262 320 334
#     4  10  19  32  52  75 107 142 182 228 274 330
#     4  11  21  36  62  88 111 145 187 235 293 353
#     4   9  18  33  52  76 103 138 178 217 266 331
#     4  10  21  38  59  83 114 159 199 234 289 348
#     4  10  22  39  59  85 120 151 184 235 292 354
#     4  12  22  37  62  82 112 160 214 244 278 362
#
# _framework density 18.545064
#
# number of rings (size 3 to 8) (size 9 to 14) (size 15 to 20)
#    0.000    1.750    0.000    6.500    0.000    2.833 
#    0.000    0.000   11.000    3.000    0.000    0.000 
#    0.000    0.000    0.000    0.000    0.000    0.000 
#
# Total GULP energy -267604.745059 kJ/mol
# GULP energy per Si atom -5575.098855 kJ/mol
# Density = 1.850285 g / cm^3
# Si number density = 18.545064 Si / 1000 Ang^3
#
#
#
# Elastic Constant Matrix: (Units=GPa)
#
#
# Indices 1 2 3 4 5 6 
#
# 1 84.8126 40.3368 34.0373 0.0000 0.0000 0.0000
# 2 40.3368 84.8086 34.0345 0.0000 0.0000 0.0000
# 3 34.0373 34.0345 111.4594 0.0000 0.0000 0.0000
# 4 0.0000 0.0000 0.0000 18.2620 0.0000 0.0000
# 5 0.0000 0.0000 0.0000 0.0000 18.2634 0.0000
# 6 0.0000 0.0000 0.0000 0.0000 0.0000 6.4597
#
#
#
# Elastic Compliance Matrix: (Units=1/GPa)
#
#
# Indices 1 2 3 4 5 6 
#
# 1 0.016033 -0.006451 -0.002926 0.000000 0.000000 0.000000
# 2 -0.006451 0.016034 -0.002926 0.000000 0.000000 0.000000
# 3 -0.002926 -0.002926 0.010759 0.000000 0.000000 0.000000
# 4 0.000000 0.000000 0.000000 0.054759 0.000000 0.000000
# 5 0.000000 0.000000 0.000000 0.000000 0.054754 0.000000
# 6 0.000000 0.000000 0.000000 0.000000 0.000000 0.154807
#
#
# Mechanical properties :
#
#
# Convention : Reuss Voigt Hill
#
# Bulk Modulus (GPa) = 54.88781 55.32197 55.10489
# Shear Modulus (GPa) = 14.80053 20.10848 17.45450
#
# Velocity S-wave (km/s) = 2.82810 3.29645 3.07122
# Velocity P-wave (km/s) = 6.35023 6.66218 6.50808
#
# Compressibility (1/GPa) = 0.01821898
#
# Stress axis : x y z
#
# Youngs Moduli (GPa) = 62.36973 62.36789 92.94618
#
# Poissons Ratio (x) = 0.40237 0.27199
# Poissons Ratio (y) = 0.40238 0.27195
# Poissons Ratio (z) = 0.18251 0.18248
#
# Static dielectric constant tensor:
#      x y z
#    x 1.647200 0.000000 0.000000 
#    y 0.000000 1.647210 0.000000 
#    z 0.000000 0.000000 1.681070 
# 
# From -- ./inp_files/1166.got.cif
#   From: 2010.05.17/outbox.cif.g08.bks.cpg/sg119_1_cif.got.tgz:1166.got - 2010.05.20 11:21:29.
