data_PCOD9559554
_publ_section_title
;
Structure prediction by ZEFSAII (Michael W. Deem and Ramdas Pophale) SiO2 
 PCOD9559554
Probable space group: I -4 C 2
;
_chemical_formula_sum "Si O2"
_cell_formula_units_Z 80
_cell_length_a 33.074058
_cell_length_b 33.074058
_cell_length_c 5.451061
_cell_angle_alpha 90.000000
_cell_angle_beta 90.000000
_cell_angle_gamma 90.000000
_cell_volume 5962.879174
_symmetry_space_group_name_H-M "I -4 C 2"
_symmetry_group_IT_number 120
_symmetry_cell_setting 'tetragonal'
loop_
_space_group_symop_operation_xyz
x,y,z
y,-x,-z
-x,-y,z
-y,x,-z
y,x,1/2-z
-y,-x,1/2-z
-x,y,1/2+z
x,-y,1/2+z
1/2+x,1/2+y,1/2+z
1/2+y,1/2-x,1/2-z
1/2-x,1/2-y,1/2+z
1/2-y,1/2+x,1/2-z
1/2+y,1/2+x,-z
1/2-y,1/2-x,-z
1/2-x,1/2+y,z
1/2+x,1/2-y,z
loop_
_atom_site_type_symbol
_atom_site_label
_atom_site_fract_x
_atom_site_fract_y
_atom_site_fract_z
Si Si1 0.642920 0.893291 0.253114
Si Si2 0.839250 0.276545 0.747037
Si Si3 0.987002 0.333411 0.677908
Si Si4 0.817740 0.749656 0.748554
Si Si5 0.077108 0.519194 0.900580
O O1 0.617810 0.882191 0.500000
O O2 0.684642 0.867984 0.261516
O O3 0.654186 0.940594 0.274549
O O4 0.621570 0.878431 0.000000
O O5 0.843117 0.251161 0.498654
O O6 0.792963 0.293165 0.749461
O O7 0.843401 0.252144 0.999322
O O8 0.993900 0.312322 0.415803
O O9 0.012140 0.375260 0.632840
O O10 0.785770 0.785770 0.750000
O O11 0.062228 0.508454 0.628412
O O12 0.062206 0.562206 0.000000
#
# Coordination Sequence:
#
# PCOD9559554 Si02
#       5
#    16  16  16  16  16
#     4  12  21  35  51  64  80  99 121 155 181 233
#     4  10  16  27  39  62  84 106 133 138 164 197
#     4  10  23  37  48  62  74  90 117 149 196 239
#     4  10  16  25  41  63  93 112 125 141 154 188
#     4  10  21  35  48  59  70  80  95 128 178 242
#
# _framework density 13.416338
#
# number of rings (size 3 to 8) (size 9 to 14) (size 15 to 20)
#    0.000    1.600    4.000    4.800    0.000   10.800 
#    0.000    0.000    0.000    0.000    0.000    0.000 
#    0.000    0.000    0.000    0.000    0.000    0.000 
#
# Total GULP energy -222774.178703 kJ/mol
# GULP energy per Si atom -5569.354468 kJ/mol
# Density = 1.338580 g / cm^3
# Si number density = 13.416338 Si / 1000 Ang^3
#
#
#
# Elastic Constant Matrix: (Units=GPa)
#
#
# Indices 1 2 3 4 5 6 
#
# 1 30.2437 27.9429 20.0808 0.0000 0.0000 0.0000
# 2 27.9429 30.2461 20.0810 0.0000 0.0000 0.0000
# 3 20.0808 20.0810 158.4991 0.0000 0.0000 0.0000
# 4 0.0000 0.0000 0.0000 8.4368 0.0000 0.0000
# 5 0.0000 0.0000 0.0000 0.0000 8.4353 0.0000
# 6 0.0000 0.0000 0.0000 0.0000 0.0000 18.9738
#
#
#
# Elastic Compliance Matrix: (Units=1/GPa)
#
#
# Indices 1 2 3 4 5 6 
#
# 1 0.226632 -0.207789 -0.002387 0.000000 0.000000 0.000000
# 2 -0.207789 0.226612 -0.002385 0.000000 0.000000 0.000000
# 3 -0.002387 -0.002385 0.006914 0.000000 0.000000 0.000000
# 4 0.000000 0.000000 0.000000 0.118528 0.000000 0.000000
# 5 0.000000 0.000000 0.000000 0.000000 0.118549 0.000000
# 6 0.000000 0.000000 0.000000 0.000000 0.000000 0.052704
#
#
# Mechanical properties :
#
#
# Convention : Reuss Voigt Hill
#
# Bulk Modulus (GPa) = 28.54290 39.46646 34.00468
# Shear Modulus (GPa) = 4.21322 17.22813 10.72068
#
# Velocity S-wave (km/s) = 1.77403 3.58734 2.82986
# Velocity P-wave (km/s) = 5.05145 6.82930 6.00652
#
# Compressibility (1/GPa) = 0.03503499
#
# Stress axis : x y z
#
# Youngs Moduli (GPa) = 4.41245 4.41282 144.63905
#
# Poissons Ratio (x) = 0.91694 0.34524
# Poissons Ratio (y) = 0.91686 0.34497
# Poissons Ratio (z) = 0.01053 0.01052
#
# Static dielectric constant tensor:
#      x y z
#    x 1.428680 0.000000 0.000000 
#    y 0.000000 1.428680 0.000000 
#    z 0.000000 0.000000 1.625210 
# 
# From -- ./inp_files/465.got.cif
#   From: 2010.05.17/outbox.cif.g08.bks.cpg/sg120_1_cif.got.tgz:465.got - 2010.05.20 11:28:13.
