data_PCOD9559026
_publ_section_title
;
Structure prediction by ZEFSAII (Michael W. Deem and Ramdas Pophale) SiO2 
 PCOD9559026
Probable space group: I -4 M 2
;
_chemical_formula_sum "Si O2"
_cell_formula_units_Z 120
_cell_length_a 13.397535
_cell_length_b 13.397535
_cell_length_c 32.002661
_cell_angle_alpha 90.000000
_cell_angle_beta 90.000000
_cell_angle_gamma 90.000000
_cell_volume 5744.283844
_symmetry_space_group_name_H-M "I -4 M 2"
_symmetry_group_IT_number 119
_symmetry_cell_setting 'tetragonal'
loop_
_space_group_symop_operation_xyz
x,y,z
y,-x,-z
-x,-y,z
-y,x,-z
y,x,-z
-y,-x,-z
-x,y,z
x,-y,z
1/2+x,1/2+y,1/2+z
1/2+y,1/2-x,1/2-z
1/2-x,1/2-y,1/2+z
1/2-y,1/2+x,1/2-z
1/2+y,1/2+x,1/2-z
1/2-y,1/2-x,1/2-z
1/2-x,1/2+y,1/2+z
1/2+x,1/2-y,1/2+z
loop_
_atom_site_type_symbol
_atom_site_label
_atom_site_fract_x
_atom_site_fract_y
_atom_site_fract_z
Si Si1 0.310604 0.889569 0.540293
Si Si2 0.887441 0.381707 0.134673
Si Si3 0.885430 0.814487 0.576671
Si Si4 0.176878 0.181302 0.667236
Si Si5 0.318084 0.681917 0.500000
Si Si6 0.886471 0.730469 0.825869
Si Si7 0.107384 0.880388 0.242997
Si Si8 0.889238 0.258391 0.920509
O O1 0.363742 0.874175 0.585120
O O2 0.192185 0.878253 0.549380
O O3 0.338248 0.797755 0.511161
O O4 0.334467 0.000000 0.524707
O O5 0.882999 0.500000 0.144640
O O6 0.795066 0.330115 0.157707
O O7 0.000000 0.346158 0.143239
O O8 0.875996 0.852779 0.624574
O O9 0.835869 0.703245 0.576293
O O10 0.000000 0.814756 0.563362
O O11 0.150366 0.298098 0.673175
O O12 0.152503 0.126301 0.709716
O O13 0.373651 0.673031 0.455735
O O14 0.856130 0.805581 0.789204
O O15 0.885291 0.778424 0.872446
O O16 0.000000 0.695274 0.818883
O O17 0.000000 0.841102 0.228742
O O18 0.104194 0.000000 0.243093
O O19 0.000000 0.302497 0.926252
#
# Coordination Sequence:
#
# PCOD9559026 Si02
#       8
#    16  16  16  16   8  16  16  16
#     4   9  19  34  50  72 106 144 178 213 257 316
#     4   9  18  33  53  78 109 144 179 213 256 315
#     4   9  18  32  51  77 108 142 177 211 255 311
#     4  10  18  32  54  80 109 141 177 219 261 301
#     4  10  20  34  54  80 104 130 172 224 270 318
#     4   9  19  36  54  72 100 139 178 215 259 309
#     4  10  20  33  52  80 111 142 176 213 254 306
#     4   9  19  36  55  74 100 135 174 220 271 319
#
# _framework density 20.890332999999998
#
# number of rings (size 3 to 8) (size 9 to 14) (size 15 to 20)
#    0.000    2.667    0.000    2.000    0.000    4.267 
#    0.000    0.667    0.000    2.200    0.000   11.200 
#    0.000    0.000    0.000    0.000    0.000    0.000 
#
# Total GULP energy -334315.469817 kJ/mol
# GULP energy per Si atom -5571.924497 kJ/mol
# Density = 2.084279 g / cm^3
# Si number density = 20.890333 Si / 1000 Ang^3
#
#
#
# Elastic Constant Matrix: (Units=GPa)
#
#
# Indices 1 2 3 4 5 6 
#
# 1 34.5351 -8.8240 -11.1725 0.0000 0.0000 0.0000
# 2 -8.8240 34.5357 -11.1725 0.0000 0.0000 0.0000
# 3 -11.1725 -11.1725 53.3896 0.0000 0.0000 0.0000
# 4 0.0000 0.0000 0.0000 9.4943 0.0000 0.0000
# 5 0.0000 0.0000 0.0000 0.0000 9.4941 0.0000
# 6 0.0000 0.0000 0.0000 0.0000 0.0000 9.1023
#
#
#
# Elastic Compliance Matrix: (Units=1/GPa)
#
#
# Indices 1 2 3 4 5 6 
#
# 1 0.035301 0.012238 0.009948 0.000000 0.000000 0.000000
# 2 0.012238 0.035301 0.009948 0.000000 0.000000 0.000000
# 3 0.009948 0.009948 0.022894 0.000000 0.000000 0.000000
# 4 0.000000 0.000000 0.000000 0.105327 0.000000 0.000000
# 5 0.000000 0.000000 0.000000 0.000000 0.105328 0.000000
# 6 0.000000 0.000000 0.000000 0.000000 0.000000 0.109862
#
#
# Mechanical properties :
#
#
# Convention : Reuss Voigt Hill
#
# Bulk Modulus (GPa) = 6.33858 6.68027 6.50942
# Shear Modulus (GPa) = 12.42752 15.86010 14.14381
#
# Velocity S-wave (km/s) = 2.44169 2.75836 2.60484
# Velocity P-wave (km/s) = 3.31511 3.65369 3.48851
#
# Compressibility (1/GPa) = 0.15776409
#
# Stress axis : x y z
#
# Youngs Moduli (GPa) = 28.32757 28.32814 43.67991
#
# Poissons Ratio (x) = -0.34668 -0.43454
# Poissons Ratio (y) = -0.34667 -0.43453
# Poissons Ratio (z) = -0.28181 -0.28181
#
# Static dielectric constant tensor:
#      x y z
#    x 1.769500 0.000000 0.000000 
#    y 0.000000 1.769500 0.000000 
#    z 0.000000 0.000000 1.808510 
# 
# From -- ./inp_files/10532.got.cif
#   From: 2010.05.17/outbox.cif.g08.bks.cpg/sg119_6_cif.got.tgz:10532.got - 2010.05.20 11:21:29.
