data_PCOD9559419
_publ_section_title
;
Structure prediction by ZEFSAII (Michael W. Deem and Ramdas Pophale) SiO2 
 PCOD9559419
Probable space group: I -4 M 2
;
_chemical_formula_sum "Si O2"
_cell_formula_units_Z 72
_cell_length_a 11.882396
_cell_length_b 11.882396
_cell_length_c 27.293939
_cell_angle_alpha 90.000000
_cell_angle_beta 90.000000
_cell_angle_gamma 90.000000
_cell_volume 3853.667677
_symmetry_space_group_name_H-M "I -4 M 2"
_symmetry_group_IT_number 119
_symmetry_cell_setting 'tetragonal'
loop_
_space_group_symop_operation_xyz
x,y,z
y,-x,-z
-x,-y,z
-y,x,-z
y,x,-z
-y,-x,-z
-x,y,z
x,-y,z
1/2+x,1/2+y,1/2+z
1/2+y,1/2-x,1/2-z
1/2-x,1/2-y,1/2+z
1/2-y,1/2+x,1/2-z
1/2+y,1/2+x,1/2-z
1/2-y,1/2-x,1/2-z
1/2-x,1/2+y,1/2+z
1/2+x,1/2-y,1/2+z
loop_
_atom_site_type_symbol
_atom_site_label
_atom_site_fract_x
_atom_site_fract_y
_atom_site_fract_z
Si Si1 0.626836 0.747822 0.631440
Si Si2 0.000000 0.312161 0.388819
Si Si3 0.365926 0.303026 0.266918
Si Si4 0.000000 0.132184 0.309405
Si Si5 0.634544 0.243394 0.455759
Si Si6 0.500000 0.134998 0.000875
O O1 0.500000 0.711752 0.617995
O O2 0.656177 0.698422 0.684528
O O3 0.714514 0.697088 0.592704
O O4 0.631156 0.883228 0.628099
O O5 0.000000 0.194509 0.360656
O O6 0.000000 0.308036 0.447595
O O7 0.500000 0.302067 0.275124
O O8 0.316104 0.183897 0.250000
O O9 0.339812 0.391567 0.223636
O O10 0.000000 0.000000 0.317209
O O11 0.679545 0.320456 0.500000
O O12 0.500000 0.253741 0.450398
O O13 0.660928 0.114093 0.469909
O O14 0.500000 0.000000 0.991263
#
# Coordination Sequence:
#
# PCOD9559419 Si02
#       6
#    16   8  16   8  16   8
#     4  12  24  40  66  97 127 168 213 269 329 386
#     4  12  22  40  66  92 126 171 216 262 331 390
#     4  11  23  42  65  94 131 168 211 265 324 389
#     4  10  22  42  66  92 130 170 207 266 323 386
#     4  11  23  40  63  91 125 165 213 261 324 385
#     4  10  22  44  64  88 128 172 208 273 325 373
#
# _framework density 18.683499000000001
#
# number of rings (size 3 to 8) (size 9 to 14) (size 15 to 20)
#    0.000    0.889    5.556    2.333    0.000    2.667 
#    4.000    0.000    2.444    0.000    0.000    0.000 
#    0.000    0.000    0.000    0.000    0.000    0.000 
#
# Total GULP energy -201118.461019 kJ/mol
# GULP energy per Si atom -5586.623917 kJ/mol
# Density = 1.864097 g / cm^3
# Si number density = 18.683499 Si / 1000 Ang^3
#
#
#
# Elastic Constant Matrix: (Units=GPa)
#
#
# Indices 1 2 3 4 5 6 
#
# 1 112.2927 55.4822 57.6271 0.0000 0.0000 0.0000
# 2 55.4822 112.2943 57.6278 0.0000 0.0000 0.0000
# 3 57.6271 57.6278 108.5705 0.0000 0.0000 0.0000
# 4 0.0000 0.0000 0.0000 33.3301 0.0000 0.0000
# 5 0.0000 0.0000 0.0000 0.0000 33.3297 0.0000
# 6 0.0000 0.0000 0.0000 0.0000 0.0000 26.6332
#
#
#
# Elastic Compliance Matrix: (Units=1/GPa)
#
#
# Indices 1 2 3 4 5 6 
#
# 1 0.013492 -0.004111 -0.004979 0.000000 0.000000 0.000000
# 2 -0.004111 0.013491 -0.004979 0.000000 0.000000 0.000000
# 3 -0.004979 -0.004979 0.014496 0.000000 0.000000 0.000000
# 4 0.000000 0.000000 0.000000 0.030003 0.000000 0.000000
# 5 0.000000 0.000000 0.000000 0.000000 0.030003 0.000000
# 6 0.000000 0.000000 0.000000 0.000000 0.000000 0.037547
#
#
# Mechanical properties :
#
#
# Convention : Reuss Voigt Hill
#
# Bulk Modulus (GPa) = 74.95550 74.95908 74.95729
# Shear Modulus (GPa) = 29.13452 29.48664 29.31058
#
# Velocity S-wave (km/s) = 3.95317 3.97699 3.96510
# Velocity P-wave (km/s) = 7.81296 7.82919 7.82108
#
# Compressibility (1/GPa) = 0.01334125
#
# Stress axis : x y z
#
# Youngs Moduli (GPa) = 74.12046 74.12125 68.98293
#
# Poissons Ratio (x) = 0.30469 0.34348
# Poissons Ratio (y) = 0.30468 0.34348
# Poissons Ratio (z) = 0.36906 0.36906
#
# Static dielectric constant tensor:
#      x y z
#    x 1.644390 0.000000 0.000000 
#    y 0.000000 1.644390 0.000000 
#    z 0.000000 0.000000 1.616450 
# 
# From -- ./inp_files/9416.got.cif
#   From: 2010.05.17/outbox.cif.g08.bks.cpg/sg119_5_cif.got.tgz:9416.got - 2010.05.20 11:21:29.
