data_PCOD9559682
_publ_section_title
;
Structure prediction by ZEFSAII (Michael W. Deem and Ramdas Pophale) SiO2 
 PCOD9559682
Probable space group: I -4 C 2
;
_chemical_formula_sum "Si O2"
_cell_formula_units_Z 88
_cell_length_a 31.878568
_cell_length_b 31.878568
_cell_length_c 5.449717
_cell_angle_alpha 90.000000
_cell_angle_beta 90.000000
_cell_angle_gamma 90.000000
_cell_volume 5538.237286
_symmetry_space_group_name_H-M "I -4 C 2"
_symmetry_group_IT_number 120
_symmetry_cell_setting 'tetragonal'
loop_
_space_group_symop_operation_xyz
x,y,z
y,-x,-z
-x,-y,z
-y,x,-z
y,x,1/2-z
-y,-x,1/2-z
-x,y,1/2+z
x,-y,1/2+z
1/2+x,1/2+y,1/2+z
1/2+y,1/2-x,1/2-z
1/2-x,1/2-y,1/2+z
1/2-y,1/2+x,1/2-z
1/2+y,1/2+x,-z
1/2-y,1/2-x,-z
1/2-x,1/2+y,z
1/2+x,1/2-y,z
loop_
_atom_site_type_symbol
_atom_site_label
_atom_site_fract_x
_atom_site_fract_y
_atom_site_fract_z
Si Si1 0.374503 0.874503 0.000000
Si Si2 0.768213 0.513265 0.787420
Si Si3 0.803665 0.265517 0.750189
Si Si4 0.908256 0.475420 0.082523
Si Si5 0.165395 0.560009 0.820958
Si Si6 0.292806 0.891891 0.694742
O O1 0.418610 0.866563 0.866349
O O2 0.335871 0.873957 0.810876
O O3 0.745960 0.504114 0.529076
O O4 0.808546 0.481440 0.755210
O O5 0.779761 0.562542 0.804559
O O6 0.777836 0.222165 0.750000
O O7 0.789491 0.289491 0.500000
O O8 0.853897 0.261176 0.764190
O O9 0.789817 0.289817 0.000000
O O10 0.910709 0.509181 0.860739
O O11 0.864056 0.452312 0.047509
O O12 0.944383 0.444383 0.000000
O O13 0.197225 0.595783 0.912899
#
# Coordination Sequence:
#
# PCOD9559682 Si02
#       6
#     8  16  16  16  16  16
#     4  12  20  32  54  72  91 118 154 184 236 294
#     4  10  20  35  49  70  96 117 145 191 235 274
#     4  10  21  36  53  76 103 127 153 188 231 288
#     4  12  27  43  58  68  84 110 145 190 240 295
#     4  11  24  35  51  75  93 116 148 194 239 285
#     4  11  21  34  52  75  98 123 158 188 240 292
#
# _framework density 15.889533999999999
#
# number of rings (size 3 to 8) (size 9 to 14) (size 15 to 20)
#    0.000    1.091    2.727    5.455    5.091    1.091 
#    0.000    0.000    0.000    0.000    0.000    0.000 
#    0.000    0.000    0.000    0.000    0.000    0.000 
#
# Total GULP energy -245366.428335 kJ/mol
# GULP energy per Si atom -5576.509735 kJ/mol
# Density = 1.585337 g / cm^3
# Si number density = 15.889534 Si / 1000 Ang^3
#
#
#
# Elastic Constant Matrix: (Units=GPa)
#
#
# Indices 1 2 3 4 5 6 
#
# 1 64.4690 38.2139 22.5737 0.0000 0.0000 0.0000
# 2 38.2139 64.4648 22.5743 0.0000 0.0000 0.0000
# 3 22.5737 22.5743 82.7511 0.0000 0.0000 0.0000
# 4 0.0000 0.0000 0.0000 15.2362 0.0000 0.0000
# 5 0.0000 0.0000 0.0000 0.0000 15.2361 0.0000
# 6 0.0000 0.0000 0.0000 0.0000 0.0000 30.1130
#
#
#
# Elastic Compliance Matrix: (Units=1/GPa)
#
#
# Indices 1 2 3 4 5 6 
#
# 1 0.024578 -0.013512 -0.003018 0.000000 0.000000 0.000000
# 2 -0.013512 0.024580 -0.003019 0.000000 0.000000 0.000000
# 3 -0.003018 -0.003019 0.013731 0.000000 0.000000 0.000000
# 4 0.000000 0.000000 0.000000 0.065633 0.000000 0.000000
# 5 0.000000 0.000000 0.000000 0.000000 0.065634 0.000000
# 6 0.000000 0.000000 0.000000 0.000000 0.000000 0.033208
#
#
# Mechanical properties :
#
#
# Convention : Reuss Voigt Hill
#
# Bulk Modulus (GPa) = 42.03668 42.04541 42.04105
# Shear Modulus (GPa) = 18.22202 20.67191 19.44696
#
# Velocity S-wave (km/s) = 3.39011 3.61082 3.50220
# Velocity P-wave (km/s) = 6.46814 6.62590 6.54749
#
# Compressibility (1/GPa) = 0.02378875
#
# Stress axis : x y z
#
# Youngs Moduli (GPa) = 40.68740 40.68425 72.82545
#
# Poissons Ratio (x) = 0.54974 0.21982
# Poissons Ratio (y) = 0.54978 0.21988
# Poissons Ratio (z) = 0.12281 0.12283
#
# Static dielectric constant tensor:
#      x y z
#    x 1.544060 0.000000 0.000000 
#    y 0.000000 1.544050 0.000000 
#    z 0.000000 0.000000 1.732040 
# 
# From -- ./inp_files/480.got.cif
#   From: 2010.05.17/outbox.cif.g08.bks.cpg/sg120_1_cif.got.tgz:480.got - 2010.05.20 11:28:13.
