data_PCOD9559662
_publ_section_title
;
Structure prediction by ZEFSAII (Michael W. Deem and Ramdas Pophale) SiO2 
 PCOD9559662
Probable space group: I -4 C 2
;
_chemical_formula_sum "Si O2"
_cell_formula_units_Z 96
_cell_length_a 25.941405
_cell_length_b 25.941405
_cell_length_c 8.780067
_cell_angle_alpha 90.000000
_cell_angle_beta 90.000000
_cell_angle_gamma 90.000000
_cell_volume 5908.603100
_symmetry_space_group_name_H-M "I -4 C 2"
_symmetry_group_IT_number 120
_symmetry_cell_setting 'tetragonal'
loop_
_space_group_symop_operation_xyz
x,y,z
y,-x,-z
-x,-y,z
-y,x,-z
y,x,1/2-z
-y,-x,1/2-z
-x,y,1/2+z
x,-y,1/2+z
1/2+x,1/2+y,1/2+z
1/2+y,1/2-x,1/2-z
1/2-x,1/2-y,1/2+z
1/2-y,1/2+x,1/2-z
1/2+y,1/2+x,-z
1/2-y,1/2-x,-z
1/2-x,1/2+y,z
1/2+x,1/2-y,z
loop_
_atom_site_type_symbol
_atom_site_label
_atom_site_fract_x
_atom_site_fract_y
_atom_site_fract_z
Si Si1 0.358139 0.442583 0.932302
Si Si2 0.942315 0.752697 0.932167
Si Si3 0.141861 0.942585 0.567700
Si Si4 0.942357 0.637925 0.567507
Si Si5 0.557683 0.747302 0.067836
Si Si6 0.137925 0.557644 0.567506
O O1 0.405618 0.405618 0.972597
O O2 0.354737 0.446597 0.750001
O O3 0.304386 0.419377 0.995587
O O4 0.364771 0.499999 0.000002
O O5 0.944301 0.758259 0.750002
O O6 0.921335 0.695712 0.968263
O O7 0.999999 0.751538 0.000004
O O8 0.195614 0.919379 0.504414
O O9 0.905211 0.594790 0.500000
O O10 0.921336 0.695712 0.531738
O O11 0.945468 0.633351 0.750000
O O12 0.000000 0.633283 0.500001
O O13 0.094790 0.594790 0.500000
#
# Coordination Sequence:
#
# PCOD9559662 Si02
#       6
#    16  16  16  16  16  16
#     4  10  20  32  48  71  97 126 159 195 236 281
#     4   9  17  30  49  70  92 122 159 196 233 276
#     4  10  20  32  48  71  97 126 159 195 236 281
#     4  10  20  33  50  73  99 127 159 195 236 282
#     4   9  17  30  49  70  92 122 159 196 233 276
#     4  10  20  33  50  73  99 127 159 195 236 282
#
# _framework density 16.247496000000002
#
# number of rings (size 3 to 8) (size 9 to 14) (size 15 to 20)
#    0.000    2.333    0.000    5.000    0.000    7.333 
#    0.000    3.333    0.000    1.000    0.000    0.000 
#    0.000    0.000    0.000    0.000    0.000    0.000 
#
# Total GULP energy -267388.539143 kJ/mol
# GULP energy per Si atom -5570.594565 kJ/mol
# Density = 1.621052 g / cm^3
# Si number density = 16.247496 Si / 1000 Ang^3
#
#
#
# Elastic Constant Matrix: (Units=GPa)
#
#
# Indices 1 2 3 4 5 6 
#
# 1 108.9888 69.3386 47.2158 0.0000 0.0000 0.0000
# 2 69.3386 108.9913 47.2175 0.0000 0.0000 0.0000
# 3 47.2158 47.2175 69.4704 0.0000 0.0000 0.0000
# 4 0.0000 0.0000 0.0000 20.1971 0.0000 0.0000
# 5 0.0000 0.0000 0.0000 0.0000 20.1965 0.0000
# 6 0.0000 0.0000 0.0000 0.0000 0.0000 1.1719
#
#
#
# Elastic Compliance Matrix: (Units=1/GPa)
#
#
# Indices 1 2 3 4 5 6 
#
# 1 0.016990 -0.008230 -0.005954 0.000000 0.000000 0.000000
# 2 -0.008230 0.016990 -0.005955 0.000000 0.000000 0.000000
# 3 -0.005954 -0.005955 0.022489 0.000000 0.000000 0.000000
# 4 0.000000 0.000000 0.000000 0.049512 0.000000 0.000000
# 5 0.000000 0.000000 0.000000 0.000000 0.049513 0.000000
# 6 0.000000 0.000000 0.000000 0.000000 0.000000 0.853339
#
#
# Mechanical properties :
#
#
# Convention : Reuss Voigt Hill
#
# Bulk Modulus (GPa) = 61.75670 68.33270 65.04470
# Shear Modulus (GPa) = 4.74155 16.55833 10.64994
#
# Velocity S-wave (km/s) = 1.71016 3.19585 2.56302
# Velocity P-wave (km/s) = 6.48013 7.46770 6.99137
#
# Compressibility (1/GPa) = 0.01619257
#
# Stress axis : x y z
#
# Youngs Moduli (GPa) = 58.85721 58.85740 44.46697
#
# Poissons Ratio (x) = 0.48437 0.26476
# Poissons Ratio (y) = 0.48437 0.26479
# Poissons Ratio (z) = 0.35044 0.35048
#
# Static dielectric constant tensor:
#      x y z
#    x 1.543210 0.000000 0.000000 
#    y 0.000000 1.543210 0.000000 
#    z 0.000000 0.000000 1.542490 
# 
# From -- ./inp_files/1640.got.cif
#   From: 2010.05.17/outbox.cif.g08.bks.cpg/sg120_1_cif.got.tgz:1640.got - 2010.05.20 11:28:13.
