data_PCOD9559645
_publ_section_title
;
Structure prediction by ZEFSAII (Michael W. Deem and Ramdas Pophale) SiO2 
 PCOD9559645
Probable space group: I -4 C 2
;
_chemical_formula_sum "Si O2"
_cell_formula_units_Z 96
_cell_length_a 22.751149
_cell_length_b 22.751149
_cell_length_c 7.945426
_cell_angle_alpha 90.000000
_cell_angle_beta 90.000000
_cell_angle_gamma 90.000000
_cell_volume 4112.669938
_symmetry_space_group_name_H-M "I -4 C 2"
_symmetry_group_IT_number 120
_symmetry_cell_setting 'tetragonal'
loop_
_space_group_symop_operation_xyz
x,y,z
y,-x,-z
-x,-y,z
-y,x,-z
y,x,1/2-z
-y,-x,1/2-z
-x,y,1/2+z
x,-y,1/2+z
1/2+x,1/2+y,1/2+z
1/2+y,1/2-x,1/2-z
1/2-x,1/2-y,1/2+z
1/2-y,1/2+x,1/2-z
1/2+y,1/2+x,-z
1/2-y,1/2-x,-z
1/2-x,1/2+y,z
1/2+x,1/2-y,z
loop_
_atom_site_type_symbol
_atom_site_label
_atom_site_fract_x
_atom_site_fract_y
_atom_site_fract_z
Si Si1 0.649504 0.983061 0.407989
Si Si2 0.198953 0.087735 0.898855
Si Si3 0.314617 0.637948 0.424530
Si Si4 0.025744 0.222468 0.252496
Si Si5 0.593562 0.124520 0.762866
Si Si6 0.726151 0.180325 0.200170
O O1 0.712388 0.977867 0.320189
O O2 0.604428 0.943799 0.298951
O O3 0.648815 0.948345 0.585066
O O4 0.635005 0.052376 0.399272
O O5 0.245317 0.134873 0.833370
O O6 0.192855 0.037845 0.759610
O O7 0.146274 0.129453 0.955211
O O8 0.220960 0.053279 0.063220
O O9 0.328056 0.671945 0.250000
O O10 0.308872 0.571586 0.368992
O O11 0.256602 0.662604 0.520766
O O12 0.656337 0.159066 0.781278
O O13 0.757588 0.242413 0.250000
#
# Coordination Sequence:
#
# PCOD9559645 Si02
#       6
#    16  16  16  16  16  16
#     4  11  24  41  66  88 126 166 220 270 329 386
#     4  10  20  31  58  88 120 165 211 263 314 389
#     4   9  19  33  56  91 124 161 215 261 326 394
#     4  11  18  35  57  86 122 163 211 261 321 389
#     4  11  24  43  64  94 125 173 217 275 327 390
#     4  10  19  37  60  91 129 163 210 262 326 385
#
# _framework density 23.342500999999999
#
# number of rings (size 3 to 8) (size 9 to 14) (size 15 to 20)
#    0.000    1.667    3.333    2.000    0.000    1.000 
#    0.000    4.167    0.000    0.500    0.000    3.500 
#    0.000    0.000    0.000    0.000    0.000    0.000 
#
# Total GULP energy -268204.528544 kJ/mol
# GULP energy per Si atom -5587.594345 kJ/mol
# Density = 2.328937 g / cm^3
# Si number density = 23.342501 Si / 1000 Ang^3
#
#
#
# Elastic Constant Matrix: (Units=GPa)
#
#
# Indices 1 2 3 4 5 6 
#
# 1 71.2262 74.3132 9.4235 0.0000 0.0000 0.0000
# 2 74.3132 71.2219 9.4246 0.0000 0.0000 0.0000
# 3 9.4235 9.4246 86.7108 0.0000 0.0000 0.0000
# 4 0.0000 0.0000 0.0000 29.0201 0.0000 0.0000
# 5 0.0000 0.0000 0.0000 0.0000 29.0203 0.0000
# 6 0.0000 0.0000 0.0000 0.0000 0.0000 27.7114
#
#
#
# Elastic Compliance Matrix: (Units=1/GPa)
#
#
# Indices 1 2 3 4 5 6 
#
# 1 -0.158366 0.165340 -0.000760 0.000000 0.000000 0.000000
# 2 0.165340 -0.158376 -0.000755 0.000000 0.000000 0.000000
# 3 -0.000760 -0.000755 0.011697 0.000000 0.000000 0.000000
# 4 0.000000 0.000000 0.000000 0.034459 0.000000 0.000000
# 5 0.000000 0.000000 0.000000 0.000000 0.034459 0.000000
# 6 0.000000 0.000000 0.000000 0.000000 0.000000 0.036086
#
#
# Mechanical properties :
#
#
# Convention : Reuss Voigt Hill
#
# Bulk Modulus (GPa) = 44.23634 46.16463 45.20048
# Shear Modulus (GPa) = -9.61249 26.21686 8.30219
#
# Velocity S-wave (km/s) = -2.03149 3.35496 1.88796
# Velocity P-wave (km/s) = 3.67281 5.90150 4.91514
#
# Compressibility (1/GPa) = 0.02260585
#
# Stress axis : x y z
#
# Youngs Moduli (GPa) = -6.31449 -6.31408 85.49032
#
# Poissons Ratio (x) = 1.04397 0.06498
# Poissons Ratio (y) = 1.04404 0.06452
# Poissons Ratio (z) = -0.00480 -0.00477
#
# Static dielectric constant tensor:
#      x y z
#    x 1.911810 0.000000 0.000000 
#    y 0.000000 1.911820 0.000000 
#    z 0.000000 0.000000 2.070190 
# 
# From -- ./inp_files/1528.got.cif
#   From: 2010.05.17/outbox.cif.g08.bks.cpg/sg120_1_cif.got.tgz:1528.got - 2010.05.20 11:28:13.
