data_PCOD9559354
_publ_section_title
;
Structure prediction by ZEFSAII (Michael W. Deem and Ramdas Pophale) SiO2 
 PCOD9559354
Probable space group: I -4 M 2
;
_chemical_formula_sum "Si O2"
_cell_formula_units_Z 88
_cell_length_a 18.637217
_cell_length_b 18.637217
_cell_length_c 14.718142
_cell_angle_alpha 90.000000
_cell_angle_beta 90.000000
_cell_angle_gamma 90.000000
_cell_volume 5112.285654
_symmetry_space_group_name_H-M "I -4 M 2"
_symmetry_group_IT_number 119
_symmetry_cell_setting 'tetragonal'
loop_
_space_group_symop_operation_xyz
x,y,z
y,-x,-z
-x,-y,z
-y,x,-z
y,x,-z
-y,-x,-z
-x,y,z
x,-y,z
1/2+x,1/2+y,1/2+z
1/2+y,1/2-x,1/2-z
1/2-x,1/2-y,1/2+z
1/2-y,1/2+x,1/2-z
1/2+y,1/2+x,1/2-z
1/2-y,1/2-x,1/2-z
1/2-x,1/2+y,1/2+z
1/2+x,1/2-y,1/2+z
loop_
_atom_site_type_symbol
_atom_site_label
_atom_site_fract_x
_atom_site_fract_y
_atom_site_fract_z
Si Si1 0.663986 0.156994 0.409789
Si Si2 0.082837 0.582837 0.750000
Si Si3 0.583576 0.201751 0.902123
Si Si4 0.303745 0.703137 0.807601
Si Si5 0.419721 0.919721 0.750000
Si Si6 0.582425 0.417576 0.500000
Si Si7 0.084649 0.201971 0.847864
O O1 0.634016 0.102290 0.333905
O O2 0.671815 0.122331 0.508018
O O3 0.742699 0.182079 0.379367
O O4 0.612250 0.225902 0.398129
O O5 0.092912 0.500000 0.723282
O O6 0.500000 0.217850 0.920656
O O7 0.626119 0.268918 0.858960
O O8 0.587278 0.139355 0.827018
O O9 0.268666 0.768666 0.750000
O O10 0.310861 0.636157 0.738707
O O11 0.500000 0.913342 0.710215
O O12 0.500000 0.408621 0.530720
O O13 0.636848 0.405426 0.582057
O O14 0.000000 0.208106 0.824793
#
# Coordination Sequence:
#
# PCOD9559354 Si02
#       7
#    16   8  16  16   8   8  16
#     4  11  22  37  59  83 119 152 196 247 295 354
#     4  11  22  37  58  88 124 157 196 245 300 368
#     4  11  23  38  59  84 116 157 197 239 296 353
#     4  10  21  38  57  82 115 149 195 249 287 343
#     4   9  20  37  54  78 114 151 188 229 274 340
#     4   9  20  36  54  86 122 148 190 250 303 358
#     4  10  21  36  60  85 113 157 197 242 304 355
#
# _framework density 17.213436000000002
#
# number of rings (size 3 to 8) (size 9 to 14) (size 15 to 20)
#    0.000    1.727    3.636    1.636    5.091    2.909 
#    0.000    5.455    0.000    0.000    0.000    0.000 
#    0.000    0.000    0.000    0.000    0.000    0.000 
#
# Total GULP energy -245488.879187 kJ/mol
# GULP energy per Si atom -5579.292709 kJ/mol
# Density = 1.717426 g / cm^3
# Si number density = 17.213436 Si / 1000 Ang^3
#
#
#
# Elastic Constant Matrix: (Units=GPa)
#
#
# Indices 1 2 3 4 5 6 
#
# 1 91.1126 62.3558 47.3996 0.0000 0.0000 0.0000
# 2 62.3558 91.1145 47.3992 0.0000 0.0000 0.0000
# 3 47.3996 47.3992 83.9791 0.0000 0.0000 0.0000
# 4 0.0000 0.0000 0.0000 19.4724 0.0000 0.0000
# 5 0.0000 0.0000 0.0000 0.0000 19.4725 0.0000
# 6 0.0000 0.0000 0.0000 0.0000 0.0000 28.4832
#
#
#
# Elastic Compliance Matrix: (Units=1/GPa)
#
#
# Indices 1 2 3 4 5 6 
#
# 1 0.022389 -0.012385 -0.005647 0.000000 0.000000 0.000000
# 2 -0.012385 0.022388 -0.005646 0.000000 0.000000 0.000000
# 3 -0.005647 -0.005646 0.018281 0.000000 0.000000 0.000000
# 4 0.000000 0.000000 0.000000 0.051355 0.000000 0.000000
# 5 0.000000 0.000000 0.000000 0.000000 0.051354 0.000000
# 6 0.000000 0.000000 0.000000 0.000000 0.000000 0.035108
#
#
# Mechanical properties :
#
#
# Convention : Reuss Voigt Hill
#
# Bulk Modulus (GPa) = 63.67911 64.50172 64.09042
# Shear Modulus (GPa) = 19.72658 20.75574 20.24116
#
# Velocity S-wave (km/s) = 3.38893 3.47621 3.43285
# Velocity P-wave (km/s) = 7.23791 7.32565 7.28191
#
# Compressibility (1/GPa) = 0.01570374
#
# Stress axis : x y z
#
# Youngs Moduli (GPa) = 44.66504 44.66669 54.70025
#
# Poissons Ratio (x) = 0.55319 0.30887
# Poissons Ratio (y) = 0.55317 0.30884
# Poissons Ratio (z) = 0.25221 0.25219
#
# Static dielectric constant tensor:
#      x y z
#    x 1.599030 0.000000 0.000000 
#    y 0.000000 1.599030 0.000000 
#    z 0.000000 0.000000 1.560830 
# 
# From -- ./inp_files/5431.got.cif
#   From: 2010.05.17/outbox.cif.g08.bks.cpg/sg119_3_cif.got.tgz:5431.got - 2010.05.20 11:21:29.
