data_PCOD9559357
_publ_section_title
;
Structure prediction by ZEFSAII (Michael W. Deem and Ramdas Pophale) SiO2 
 PCOD9559357
Probable space group: I -4 M 2
;
_chemical_formula_sum "Si O2"
_cell_formula_units_Z 96
_cell_length_a 26.933189
_cell_length_b 26.933189
_cell_length_c 7.453051
_cell_angle_alpha 90.000000
_cell_angle_beta 90.000000
_cell_angle_gamma 90.000000
_cell_volume 5406.418375
_symmetry_space_group_name_H-M "I -4 M 2"
_symmetry_group_IT_number 119
_symmetry_cell_setting 'tetragonal'
loop_
_space_group_symop_operation_xyz
x,y,z
y,-x,-z
-x,-y,z
-y,x,-z
y,x,-z
-y,-x,-z
-x,y,z
x,-y,z
1/2+x,1/2+y,1/2+z
1/2+y,1/2-x,1/2-z
1/2-x,1/2-y,1/2+z
1/2-y,1/2+x,1/2-z
1/2+y,1/2+x,1/2-z
1/2-y,1/2-x,1/2-z
1/2-x,1/2+y,1/2+z
1/2+x,1/2-y,1/2+z
loop_
_atom_site_type_symbol
_atom_site_label
_atom_site_fract_x
_atom_site_fract_y
_atom_site_fract_z
Si Si1 0.174626 0.394496 0.140481
Si Si2 0.056920 0.362382 0.702419
Si Si3 0.557521 0.730287 0.836139
Si Si4 0.792821 0.287948 0.534760
Si Si5 0.057696 0.749952 0.762793
Si Si6 0.368695 0.289442 0.553956
O O1 0.132120 0.367881 0.250000
O O2 0.215410 0.427363 0.241597
O O3 0.149872 0.432699 0.004112
O O4 0.203222 0.348119 0.041915
O O5 0.095177 0.404824 0.750000
O O6 0.068320 0.308737 0.789268
O O7 0.000000 0.375176 0.737715
O O8 0.500000 0.717998 0.799946
O O9 0.599575 0.699471 0.733291
O O10 0.563526 0.735560 0.051825
O O11 0.764913 0.235088 0.500000
O O12 0.794604 0.294604 0.750000
O O13 0.757199 0.329735 0.443224
O O14 0.093276 0.779000 0.893565
O O15 0.000000 0.758049 0.805858
O O16 0.335272 0.335272 0.500000
#
# Coordination Sequence:
#
# PCOD9559357 Si02
#       6
#    16  16  16  16  16  16
#     4  11  19  34  54  76 104 136 183 227 270 328
#     4  10  21  37  56  76  98 133 181 234 287 335
#     4  10  21  37  56  78 107 146 190 232 273 322
#     4  11  22  33  49  75 112 149 182 224 270 329
#     4   9  19  37  57  79 109 146 187 231 276 329
#     4  11  22  34  52  82 113 149 187 224 275 332
#
# _framework density 17.756672999999999
#
# number of rings (size 3 to 8) (size 9 to 14) (size 15 to 20)
#    0.000    1.667    1.667    6.000    2.333    0.833 
#    0.000    0.833    0.000    0.000    0.000    0.000 
#    0.000    5.333    0.000   14.667    0.667    0.000 
#
# Total GULP energy -267730.609932 kJ/mol
# GULP energy per Si atom -5577.721040 kJ/mol
# Density = 1.771626 g / cm^3
# Si number density = 17.756673 Si / 1000 Ang^3
#
#
#
# Elastic Constant Matrix: (Units=GPa)
#
#
# Indices 1 2 3 4 5 6 
#
# 1 62.6132 71.2834 20.9104 0.0000 0.0000 0.0000
# 2 71.2834 62.6115 20.9064 0.0000 0.0000 0.0000
# 3 20.9104 20.9064 41.5371 0.0000 0.0000 0.0000
# 4 0.0000 0.0000 0.0000 12.0626 0.0000 0.0000
# 5 0.0000 0.0000 0.0000 0.0000 12.0602 0.0000
# 6 0.0000 0.0000 0.0000 0.0000 0.0000 26.0223
#
#
#
# Elastic Compliance Matrix: (Units=1/GPa)
#
#
# Indices 1 2 3 4 5 6 
#
# 1 -0.053234 0.062094 -0.004455 0.000000 0.000000 0.000000
# 2 0.062094 -0.053231 -0.004467 0.000000 0.000000 0.000000
# 3 -0.004455 -0.004467 0.028566 0.000000 0.000000 0.000000
# 4 0.000000 0.000000 0.000000 0.082901 0.000000 0.000000
# 5 0.000000 0.000000 0.000000 0.000000 0.082917 0.000000
# 6 0.000000 0.000000 0.000000 0.000000 0.000000 0.038429
#
#
# Mechanical properties :
#
#
# Convention : Reuss Voigt Hill
#
# Bulk Modulus (GPa) = 35.15410 43.66246 39.40828
# Shear Modulus (GPa) = 169.58470 13.60647 91.59558
#
# Velocity S-wave (km/s) = 9.78326 2.77117 7.18997
# Velocity P-wave (km/s) = 12.14318 5.90609 9.54826
#
# Compressibility (1/GPa) = 0.02844619
#
# Stress axis : x y z
#
# Youngs Moduli (GPa) = -18.78513 -18.78595 35.00724
#
# Poissons Ratio (x) = 1.16650 0.15594
# Poissons Ratio (y) = 1.16644 0.15637
# Poissons Ratio (z) = -0.08368 -0.08391
#
# Static dielectric constant tensor:
#      x y z
#    x 1.637790 0.000000 0.000000 
#    y 0.000000 1.637760 0.000000 
#    z 0.000000 0.000000 1.724150 
# 
# From -- ./inp_files/2725.got.cif
#   From: 2010.05.17/outbox.cif.g08.bks.cpg/sg119_2_cif.got.tgz:2725.got - 2010.05.20 11:21:29.
