data_PCOD9559052
_publ_section_title
;
Structure prediction by ZEFSAII (Michael W. Deem and Ramdas Pophale) SiO2 
 PCOD9559052
Probable space group: I -4 M 2
;
_chemical_formula_sum "Si O2"
_cell_formula_units_Z 52
_cell_length_a 16.358476
_cell_length_b 16.358476
_cell_length_c 7.930978
_cell_angle_alpha 90.000000
_cell_angle_beta 90.000000
_cell_angle_gamma 90.000000
_cell_volume 2122.327627
_symmetry_space_group_name_H-M "I -4 M 2"
_symmetry_group_IT_number 119
_symmetry_cell_setting 'tetragonal'
loop_
_space_group_symop_operation_xyz
x,y,z
y,-x,-z
-x,-y,z
-y,x,-z
y,x,-z
-y,-x,-z
-x,y,z
x,-y,z
1/2+x,1/2+y,1/2+z
1/2+y,1/2-x,1/2-z
1/2-x,1/2-y,1/2+z
1/2-y,1/2+x,1/2-z
1/2+y,1/2+x,1/2-z
1/2-y,1/2-x,1/2-z
1/2-x,1/2+y,1/2+z
1/2+x,1/2-y,1/2+z
loop_
_atom_site_type_symbol
_atom_site_label
_atom_site_fract_x
_atom_site_fract_y
_atom_site_fract_z
Si Si1 0.672931 0.093321 0.582250
Si Si2 0.386469 0.662110 0.743326
Si Si3 0.764717 0.592903 0.604080
Si Si4 0.500000 0.500000 0.762875
O O1 0.629651 0.129651 0.750000
O O2 0.770426 0.096249 0.615334
O O3 0.638681 0.152826 0.441368
O O4 0.648987 0.000000 0.558214
O O5 0.410451 0.708189 0.567990
O O6 0.291442 0.643146 0.729884
O O7 0.430707 0.574327 0.760541
O O8 0.778645 0.500000 0.658330
#
# Coordination Sequence:
#
# PCOD9559052 Si02
#       4
#    16  16  16   4
#     4  10  19  33  48  78 108 141 182 229 276 324
#     4  10  19  29  49  85 112 138 169 235 285 323
#     4  10  19  29  48  81 108 138 179 231 279 322
#     4  12  16  29  56  84 120 127 172 233 300 332
#
# _framework density 24.5014
#
# number of rings (size 3 to 8) (size 9 to 14) (size 15 to 20)
#    0.000    1.846    4.615    2.769    0.000    4.615 
#    0.000    0.000    0.000    0.000  108.000    0.000 
#    0.000    0.000    0.000    0.000    0.000    0.000 
#
# Total GULP energy -145054.818470 kJ/mol
# GULP energy per Si atom -5579.031480 kJ/mol
# Density = 2.444563 g / cm^3
# Si number density = 24.501400 Si / 1000 Ang^3
#
#
#
# Elastic Constant Matrix: (Units=GPa)
#
#
# Indices 1 2 3 4 5 6 
#
# 1 214.0638 80.4691 14.5940 0.0000 0.0000 0.0000
# 2 80.4691 214.0638 14.5940 0.0000 0.0000 0.0000
# 3 14.5940 14.5940 66.1822 0.0000 0.0000 0.0000
# 4 0.0000 0.0000 0.0000 -4.1798 0.0000 0.0000
# 5 0.0000 0.0000 0.0000 0.0000 -4.1798 0.0000
# 6 0.0000 0.0000 0.0000 0.0000 0.0000 46.6311
#
#
#
# Elastic Compliance Matrix: (Units=1/GPa)
#
#
# Indices 1 2 3 4 5 6 
#
# 1 0.005478 -0.002007 -0.000765 0.000000 0.000000 0.000000
# 2 -0.002007 0.005478 -0.000765 0.000000 0.000000 0.000000
# 3 -0.000765 -0.000765 0.015447 0.000000 0.000000 0.000000
# 4 0.000000 0.000000 0.000000 -0.239244 0.000000 0.000000
# 5 0.000000 0.000000 0.000000 0.000000 -0.239244 0.000000
# 6 0.000000 0.000000 0.000000 0.000000 0.000000 0.021445
#
#
# Mechanical properties :
#
#
# Convention : Reuss Voigt Hill
#
# Bulk Modulus (GPa) = 51.73881 79.29154 65.51517
# Shear Modulus (GPa) = -11.98694 33.29779 10.65542
#
# Velocity S-wave (km/s) = -2.21427 3.69048 2.08767
# Velocity P-wave (km/s) = 3.82429 7.11279 5.71039
#
# Compressibility (1/GPa) = 0.01932785
#
# Stress axis : x y z
#
# Youngs Moduli (GPa) = 182.54194 182.54194 64.73591
#
# Poissons Ratio (x) = 0.36639 0.04955
# Poissons Ratio (y) = 0.36639 0.04955
# Poissons Ratio (z) = 0.13972 0.13972
#
# Static dielectric constant tensor:
#      x y z
#    x 1.881090 0.000000 0.000000 
#    y 0.000000 1.881090 0.000000 
#    z 0.000000 0.000000 2.103000 
# 
# From -- ./inp_files/3539.got.cif
#   From: 2010.05.17/outbox.cif.g08.bks.cpg/sg119_2_cif.got.tgz:3539.got - 2010.05.20 11:21:29.
