data_PCOD9559975
_publ_section_title
;
Structure prediction by ZEFSAII (Michael W. Deem and Ramdas Pophale) SiO2 
 PCOD9559975
Probable space group: I -4 C 2
;
_chemical_formula_sum "Si O2"
_cell_formula_units_Z 120
_cell_length_a 25.824190
_cell_length_b 25.824190
_cell_length_c 9.109069
_cell_angle_alpha 90.000000
_cell_angle_beta 90.000000
_cell_angle_gamma 90.000000
_cell_volume 6074.735996
_symmetry_space_group_name_H-M "I -4 C 2"
_symmetry_group_IT_number 120
_symmetry_cell_setting 'tetragonal'
loop_
_space_group_symop_operation_xyz
x,y,z
y,-x,-z
-x,-y,z
-y,x,-z
y,x,1/2-z
-y,-x,1/2-z
-x,y,1/2+z
x,-y,1/2+z
1/2+x,1/2+y,1/2+z
1/2+y,1/2-x,1/2-z
1/2-x,1/2-y,1/2+z
1/2-y,1/2+x,1/2-z
1/2+y,1/2+x,-z
1/2-y,1/2-x,-z
1/2-x,1/2+y,z
1/2+x,1/2-y,z
loop_
_atom_site_type_symbol
_atom_site_label
_atom_site_fract_x
_atom_site_fract_y
_atom_site_fract_z
Si Si1 0.933866 0.277800 0.940723
Si Si2 0.979926 0.147551 0.230546
Si Si3 0.294335 0.214191 0.280246
Si Si4 0.129515 0.259807 0.999934
Si Si5 0.597215 0.315702 0.246145
Si Si6 0.457890 0.236612 0.282032
Si Si7 0.579205 0.504367 0.523832
Si Si8 0.663242 0.163242 0.500000
O O1 0.950645 0.276029 0.110974
O O2 0.903939 0.226677 0.878384
O O3 0.893245 0.324864 0.935907
O O4 0.985557 0.279488 0.841547
O O5 0.041318 0.158238 0.241834
O O6 0.970923 0.102425 0.345697
O O7 0.953738 0.200698 0.279005
O O8 0.970819 0.126016 0.068212
O O9 0.237888 0.237888 0.250000
O O10 0.291177 0.161157 0.374572
O O11 0.325297 0.253976 0.384148
O O12 0.324236 0.203191 0.130875
O O13 0.103376 0.215187 0.093811
O O14 0.085476 0.284316 0.895206
O O15 0.642672 0.357329 0.250000
O O16 0.547029 0.462518 0.428945
#
# Coordination Sequence:
#
# PCOD9559975 Si02
#       8
#    16  16  16  16  16  16  16   8
#     4  11  24  40  64  88 127 164 212 266 314 390
#     4  11  22  38  56  78 111 144 198 261 314 383
#     4  11  24  39  61  92 134 173 213 260 309 384
#     4  11  22  38  61  87 123 172 209 256 308 380
#     4  11  22  36  56  84 120 163 209 264 327 382
#     4  11  23  42  61  89 121 167 204 257 327 377
#     4  11  22  37  56  74  98 140 196 264 333 381
#     4  12  22  42  62  94 122 169 212 258 316 375
#
# _framework density 19.753945000000002
#
# number of rings (size 3 to 8) (size 9 to 14) (size 15 to 20)
#    0.000    0.933    2.667    6.800    1.867    1.067 
#    0.000    2.667    0.000    0.000    0.000    0.000 
#    0.000    8.000    0.000    0.000    0.000    0.000 
#
# Total GULP energy -334762.310095 kJ/mol
# GULP energy per Si atom -5579.371835 kJ/mol
# Density = 1.970898 g / cm^3
# Si number density = 19.753945 Si / 1000 Ang^3
#
#
#
# Elastic Constant Matrix: (Units=GPa)
#
#
# Indices 1 2 3 4 5 6 
#
# 1 54.9207 30.6110 21.5695 0.0000 0.0000 0.0000
# 2 30.6110 54.9197 21.5676 0.0000 0.0000 0.0000
# 3 21.5695 21.5676 120.8984 0.0000 0.0000 0.0000
# 4 0.0000 0.0000 0.0000 33.2835 0.0000 0.0000
# 5 0.0000 0.0000 0.0000 0.0000 33.2839 0.0000
# 6 0.0000 0.0000 0.0000 0.0000 0.0000 25.1924
#
#
#
# Elastic Compliance Matrix: (Units=1/GPa)
#
#
# Indices 1 2 3 4 5 6 
#
# 1 0.026992 -0.014145 -0.002292 0.000000 0.000000 0.000000
# 2 -0.014145 0.026992 -0.002292 0.000000 0.000000 0.000000
# 3 -0.002292 -0.002292 0.009089 0.000000 0.000000 0.000000
# 4 0.000000 0.000000 0.000000 0.030045 0.000000 0.000000
# 5 0.000000 0.000000 0.000000 0.000000 0.030045 0.000000
# 6 0.000000 0.000000 0.000000 0.000000 0.000000 0.039694
#
#
# Mechanical properties :
#
#
# Convention : Reuss Voigt Hill
#
# Bulk Modulus (GPa) = 39.03768 42.02611 40.53189
# Shear Modulus (GPa) = 23.94023 28.81800 26.37912
#
# Velocity S-wave (km/s) = 3.48504 3.82363 3.65826
# Velocity P-wave (km/s) = 5.99991 6.38862 6.19731
#
# Compressibility (1/GPa) = 0.02561628
#
# Stress axis : x y z
#
# Youngs Moduli (GPa) = 37.04794 37.04770 110.02040
#
# Poissons Ratio (x) = 0.52402 0.25221
# Poissons Ratio (y) = 0.52403 0.25214
# Poissons Ratio (z) = 0.08493 0.08490
#
# Static dielectric constant tensor:
#      x y z
#    x 1.730050 0.000000 0.000000 
#    y 0.000000 1.730050 0.000000 
#    z 0.000000 0.000000 1.737890 
# 
# From -- ./inp_files/1729.got.cif
#   From: 2010.05.17/outbox.cif.g08.bks.cpg/sg120_1_cif.got.tgz:1729.got - 2010.05.20 11:28:13.
