data_PCOD9559168
_publ_section_title
;
Structure prediction by ZEFSAII (Michael W. Deem and Ramdas Pophale) SiO2 
 PCOD9559168
Probable space group: I -4 M 2
;
_chemical_formula_sum "Si O2"
_cell_formula_units_Z 96
_cell_length_a 25.983689
_cell_length_b 25.983689
_cell_length_c 9.137471
_cell_angle_alpha 90.000000
_cell_angle_beta 90.000000
_cell_angle_gamma 90.000000
_cell_volume 6169.182680
_symmetry_space_group_name_H-M "I -4 M 2"
_symmetry_group_IT_number 119
_symmetry_cell_setting 'tetragonal'
loop_
_space_group_symop_operation_xyz
x,y,z
y,-x,-z
-x,-y,z
-y,x,-z
y,x,-z
-y,-x,-z
-x,y,z
x,-y,z
1/2+x,1/2+y,1/2+z
1/2+y,1/2-x,1/2-z
1/2-x,1/2-y,1/2+z
1/2-y,1/2+x,1/2-z
1/2+y,1/2+x,1/2-z
1/2-y,1/2-x,1/2-z
1/2-x,1/2+y,1/2+z
1/2+x,1/2-y,1/2+z
loop_
_atom_site_type_symbol
_atom_site_label
_atom_site_fract_x
_atom_site_fract_y
_atom_site_fract_z
Si Si1 0.057698 0.592640 0.595747
Si Si2 0.837726 0.237696 0.091645
Si Si3 0.325622 0.753622 0.930728
Si Si4 0.440035 0.224482 0.461072
Si Si5 0.191969 0.380769 0.827880
Si Si6 0.878964 0.556092 0.347256
O O1 0.064852 0.564852 0.750000
O O2 0.095524 0.641301 0.598859
O O3 0.076059 0.556241 0.467214
O O4 0.000000 0.610607 0.580029
O O5 0.806043 0.291349 0.073502
O O6 0.839946 0.234295 0.268426
O O7 0.804310 0.195691 0.000000
O O8 0.895197 0.239706 0.026899
O O9 0.289033 0.710968 0.000000
O O10 0.370136 0.766649 0.046682
O O11 0.500000 0.241524 0.457711
O O12 0.419644 0.209433 0.299587
O O13 0.438368 0.173871 0.564520
O O14 0.172300 0.327701 0.750000
O O15 0.877980 0.500000 0.271439
O O16 0.895122 0.604879 0.250000
#
# Coordination Sequence:
#
# PCOD9559168 Si02
#       6
#    16  16  16  16  16  16
#     4  11  21  33  48  63  84 120 170 221 270 308
#     4  10  20  34  54  78 104 130 166 210 259 315
#     4  10  20  31  54  80 101 128 166 210 260 314
#     4  11  22  36  52  71 100 135 170 210 262 314
#     4  11  19  33  49  67  97 125 166 208 255 303
#     4  11  23  35  46  63  88 125 171 223 273 313
#
# _framework density 15.561218999999999
#
# number of rings (size 3 to 8) (size 9 to 14) (size 15 to 20)
#    0.000    1.333    5.000    2.500    7.000    2.000 
#    0.000    0.833    0.000    0.000    0.000    0.000 
#    0.000    0.333    0.000    0.000    0.000    3.667 
#
# Total GULP energy -267569.589220 kJ/mol
# GULP energy per Si atom -5574.366442 kJ/mol
# Density = 1.552580 g / cm^3
# Si number density = 15.561219 Si / 1000 Ang^3
#
#
#
# Elastic Constant Matrix: (Units=GPa)
#
#
# Indices 1 2 3 4 5 6 
#
# 1 57.4883 33.5029 36.1276 0.0000 0.0000 0.0000
# 2 33.5029 57.4822 36.1259 0.0000 0.0000 0.0000
# 3 36.1276 36.1259 95.0032 0.0000 0.0000 0.0000
# 4 0.0000 0.0000 0.0000 16.8651 0.0000 0.0000
# 5 0.0000 0.0000 0.0000 0.0000 16.8655 0.0000
# 6 0.0000 0.0000 0.0000 0.0000 0.0000 10.7628
#
#
#
# Elastic Compliance Matrix: (Units=1/GPa)
#
#
# Indices 1 2 3 4 5 6 
#
# 1 0.028720 -0.012976 -0.005987 0.000000 0.000000 0.000000
# 2 -0.012976 0.028723 -0.005988 0.000000 0.000000 0.000000
# 3 -0.005987 -0.005988 0.015080 0.000000 0.000000 0.000000
# 4 0.000000 0.000000 0.000000 0.059294 0.000000 0.000000
# 5 0.000000 0.000000 0.000000 0.000000 0.059293 0.000000
# 6 0.000000 0.000000 0.000000 0.000000 0.000000 0.092913
#
#
# Mechanical properties :
#
#
# Convention : Reuss Voigt Hill
#
# Bulk Modulus (GPa) = 44.20828 46.83183 45.52006
# Shear Modulus (GPa) = 14.64288 15.84649 15.24469
#
# Velocity S-wave (km/s) = 3.07088 3.19459 3.13335
# Velocity P-wave (km/s) = 6.40661 6.61572 6.51201
#
# Compressibility (1/GPa) = 0.02262019
#
# Stress axis : x y z
#
# Youngs Moduli (GPa) = 34.81954 34.81562 66.31503
#
# Poissons Ratio (x) = 0.45177 0.39703
# Poissons Ratio (y) = 0.45182 0.39707
# Poissons Ratio (z) = 0.20847 0.20846
#
# Static dielectric constant tensor:
#      x y z
#    x 1.522130 0.000000 0.000000 
#    y 0.000000 1.522130 0.000000 
#    z 0.000000 0.000000 1.595450 
# 
# From -- ./inp_files/2806.got.cif
#   From: 2010.05.17/outbox.cif.g08.bks.cpg/sg119_2_cif.got.tgz:2806.got - 2010.05.20 11:21:29.
