data_PCOD9559647
_publ_section_title
;
Structure prediction by ZEFSAII (Michael W. Deem and Ramdas Pophale) SiO2 
 PCOD9559647
Probable space group: I -4 C 2
;
_chemical_formula_sum "Si O2"
_cell_formula_units_Z 112
_cell_length_a 15.807444
_cell_length_b 15.807444
_cell_length_c 22.103144
_cell_angle_alpha 90.000000
_cell_angle_beta 90.000000
_cell_angle_gamma 90.000000
_cell_volume 5523.029424
_symmetry_space_group_name_H-M "I -4 C 2"
_symmetry_group_IT_number 120
_symmetry_cell_setting 'tetragonal'
loop_
_space_group_symop_operation_xyz
x,y,z
y,-x,-z
-x,-y,z
-y,x,-z
y,x,1/2-z
-y,-x,1/2-z
-x,y,1/2+z
x,-y,1/2+z
1/2+x,1/2+y,1/2+z
1/2+y,1/2-x,1/2-z
1/2-x,1/2-y,1/2+z
1/2-y,1/2+x,1/2-z
1/2+y,1/2+x,-z
1/2-y,1/2-x,-z
1/2-x,1/2+y,z
1/2+x,1/2-y,z
loop_
_atom_site_type_symbol
_atom_site_label
_atom_site_fract_x
_atom_site_fract_y
_atom_site_fract_z
Si Si1 0.598828 0.322013 0.569097
Si Si2 0.804970 0.704770 0.203121
Si Si3 0.872944 0.545109 0.734732
Si Si4 0.754748 0.470632 0.119029
Si Si5 0.783586 0.933823 0.503221
Si Si6 0.781232 0.230528 0.925987
Si Si7 0.411437 0.644790 0.810406
O O1 0.511328 0.288755 0.543013
O O2 0.625972 0.405086 0.530908
O O3 0.675768 0.254998 0.558842
O O4 0.603126 0.350414 0.639017
O O5 0.774041 0.774041 0.250000
O O6 0.899729 0.684209 0.220994
O O7 0.793097 0.738331 0.136838
O O8 0.736675 0.628300 0.208290
O O9 0.899416 0.458450 0.766809
O O10 0.829673 0.535120 0.668890
O O11 0.738466 0.381266 0.086652
O O12 0.672401 0.502264 0.156660
O O13 0.767197 0.537949 0.063958
O O14 0.758071 0.849466 0.467727
O O15 0.410738 0.589263 0.750000
#
# Coordination Sequence:
#
# PCOD9559647 Si02
#       7
#    16  16  16  16  16  16  16
#     4  10  23  42  67  98 134 182 233 296 355 424
#     4  10  19  37  64  91 125 174 225 279 351 428
#     4  11  23  40  64  99 139 178 227 293 369 440
#     4  11  22  40  67  97 133 180 235 291 344 443
#     4  11  23  42  66  97 131 183 236 290 351 419
#     4  11  23  41  67  97 135 179 234 293 357 424
#     4   9  20  39  63  93 131 174 221 283 350 417
#
# _framework density 20.278727
#
# number of rings (size 3 to 8) (size 9 to 14) (size 15 to 20)
#    0.000    1.571    4.286    0.429    0.000    2.571 
#    0.000    0.000    0.000    0.857    0.000    0.000 
#    0.000    0.000    0.000    0.000    0.000    0.000 
#
# Total GULP energy -312147.899976 kJ/mol
# GULP energy per Si atom -5574.069642 kJ/mol
# Density = 2.023257 g / cm^3
# Si number density = 20.278727 Si / 1000 Ang^3
#
#
#
# Elastic Constant Matrix: (Units=GPa)
#
#
# Indices 1 2 3 4 5 6 
#
# 1 108.4138 32.3969 58.5876 0.0000 0.0000 0.0000
# 2 32.3969 108.4145 58.5875 0.0000 0.0000 0.0000
# 3 58.5876 58.5875 115.2906 0.0000 0.0000 0.0000
# 4 0.0000 0.0000 0.0000 34.2254 0.0000 0.0000
# 5 0.0000 0.0000 0.0000 0.0000 34.2254 0.0000
# 6 0.0000 0.0000 0.0000 0.0000 0.0000 18.3416
#
#
#
# Elastic Compliance Matrix: (Units=1/GPa)
#
#
# Indices 1 2 3 4 5 6 
#
# 1 0.012730 -0.000425 -0.006253 0.000000 0.000000 0.000000
# 2 -0.000425 0.012730 -0.006253 0.000000 0.000000 0.000000
# 3 -0.006253 -0.006253 0.015029 0.000000 0.000000 0.000000
# 4 0.000000 0.000000 0.000000 0.029218 0.000000 0.000000
# 5 0.000000 0.000000 0.000000 0.000000 0.029218 0.000000
# 6 0.000000 0.000000 0.000000 0.000000 0.000000 0.054521
#
#
# Mechanical properties :
#
#
# Convention : Reuss Voigt Hill
#
# Bulk Modulus (GPa) = 68.36726 70.14033 69.25379
# Shear Modulus (GPa) = 27.14668 29.52826 28.33747
#
# Velocity S-wave (km/s) = 3.66276 3.82005 3.74224
# Velocity P-wave (km/s) = 7.18852 7.35665 7.27307
#
# Compressibility (1/GPa) = 0.01462688
#
# Stress axis : x y z
#
# Youngs Moduli (GPa) = 78.55353 78.55432 66.53725
#
# Poissons Ratio (x) = 0.03337 0.41607
# Poissons Ratio (y) = 0.03337 0.41607
# Poissons Ratio (z) = 0.49122 0.49121
#
# Static dielectric constant tensor:
#      x y z
#    x 1.740780 0.000000 0.000000 
#    y 0.000000 1.740780 0.000000 
#    z 0.000000 0.000000 1.757380 
# 
# From -- ./inp_files/5909.got.cif
#   From: 2010.05.17/outbox.cif.g08.bks.cpg/sg120_3_cif.got.tgz:5909.got - 2010.05.20 11:28:13.
