data_PCOD9559009
_publ_section_title
;
Structure prediction by ZEFSAII (Michael W. Deem and Ramdas Pophale) SiO2 
 PCOD9559009
Probable space group: I -4 M 2
;
_chemical_formula_sum "Si O2"
_cell_formula_units_Z 60
_cell_length_a 10.543373
_cell_length_b 10.543373
_cell_length_c 22.457273
_cell_angle_alpha 90.000000
_cell_angle_beta 90.000000
_cell_angle_gamma 90.000000
_cell_volume 2496.411421
_symmetry_space_group_name_H-M "I -4 M 2"
_symmetry_group_IT_number 119
_symmetry_cell_setting 'tetragonal'
loop_
_space_group_symop_operation_xyz
x,y,z
y,-x,-z
-x,-y,z
-y,x,-z
y,x,-z
-y,-x,-z
-x,y,z
x,-y,z
1/2+x,1/2+y,1/2+z
1/2+y,1/2-x,1/2-z
1/2-x,1/2-y,1/2+z
1/2-y,1/2+x,1/2-z
1/2+y,1/2+x,1/2-z
1/2-y,1/2-x,1/2-z
1/2-x,1/2+y,1/2+z
1/2+x,1/2-y,1/2+z
loop_
_atom_site_type_symbol
_atom_site_label
_atom_site_fract_x
_atom_site_fract_y
_atom_site_fract_z
Si Si1 0.286020 0.217827 0.114388
Si Si2 0.223483 0.000000 0.772611
Si Si3 0.636884 0.000000 0.472296
Si Si4 0.358850 0.500000 0.400856
Si Si5 0.221005 0.278996 0.750000
Si Si6 0.000000 0.500000 0.165494
Si Si7 0.500000 0.735749 0.905990
O O1 0.377734 0.147100 0.069528
O O2 0.302784 0.167915 0.183094
O O3 0.324237 0.365624 0.110579
O O4 0.138876 0.205859 0.090797
O O5 0.134897 0.000000 0.829498
O O6 0.201532 0.129474 0.739495
O O7 0.367800 0.000000 0.798095
O O8 0.500000 0.000000 0.502718
O O9 0.740876 0.000000 0.523440
O O10 0.500000 0.500000 0.427125
O O11 0.128426 0.500000 0.128022
#
# Coordination Sequence:
#
# PCOD9559009 Si02
#       7
#    16   8   8   8   8   4   8
#     4  11  24  44  67 105 131 189 230 293 356 417
#     4  10  18  30  60 100 127 170 203 296 351 414
#     4  12  28  46  68  94 145 195 238 278 343 434
#     4  10  20  38  66  91 137 163 231 286 340 410
#     4  10  18  35  61  94 138 164 234 286 351 411
#     4  12  16  35  68 104 134 155 224 284 374 412
#     4  12  21  44  73  98 139 170 238 290 350 423
#
# _framework density 24.034500999999999
#
# number of rings (size 3 to 8) (size 9 to 14) (size 15 to 20)
#    0.000    1.067    6.000    3.200    0.000    0.533 
#   12.000    1.333    0.000    0.000    0.000    0.000 
#    0.000    0.000    0.000    0.000    0.000    0.000 
#
# Total GULP energy -167401.055843 kJ/mol
# GULP energy per Si atom -5580.035195 kJ/mol
# Density = 2.397980 g / cm^3
# Si number density = 24.034501 Si / 1000 Ang^3
#
#
#
# Elastic Constant Matrix: (Units=GPa)
#
#
# Indices 1 2 3 4 5 6 
#
# 1 71.1904 10.0295 10.2263 0.0000 0.0000 0.0000
# 2 10.0295 71.1897 10.2263 0.0000 0.0000 0.0000
# 3 10.2263 10.2263 138.6449 0.0000 0.0000 0.0000
# 4 0.0000 0.0000 0.0000 20.3386 0.0000 0.0000
# 5 0.0000 0.0000 0.0000 0.0000 20.3388 0.0000
# 6 0.0000 0.0000 0.0000 0.0000 0.0000 19.5304
#
#
#
# Elastic Compliance Matrix: (Units=1/GPa)
#
#
# Indices 1 2 3 4 5 6 
#
# 1 0.014448 -0.001903 -0.000925 0.000000 0.000000 0.000000
# 2 -0.001903 0.014448 -0.000925 0.000000 0.000000 0.000000
# 3 -0.000925 -0.000925 0.007349 0.000000 0.000000 0.000000
# 4 0.000000 0.000000 0.000000 0.049168 0.000000 0.000000
# 5 0.000000 0.000000 0.000000 0.000000 0.049167 0.000000
# 6 0.000000 0.000000 0.000000 0.000000 0.000000 0.051202
#
#
# Mechanical properties :
#
#
# Convention : Reuss Voigt Hill
#
# Bulk Modulus (GPa) = 34.79654 37.99880 36.39767
# Shear Modulus (GPa) = 24.64660 28.74442 26.69551
#
# Velocity S-wave (km/s) = 3.20577 3.46202 3.33636
# Velocity P-wave (km/s) = 5.31147 5.64139 5.47891
#
# Compressibility (1/GPa) = 0.02873849
#
# Stress axis : x y z
#
# Youngs Moduli (GPa) = 69.21470 69.21407 136.06972
#
# Poissons Ratio (x) = 0.13168 0.12591
# Poissons Ratio (y) = 0.13168 0.12591
# Poissons Ratio (z) = 0.06405 0.06405
#
# Static dielectric constant tensor:
#      x y z
#    x 1.956080 0.000000 0.000000 
#    y 0.000000 1.956080 0.000000 
#    z 0.000000 0.000000 1.918600 
# 
# From -- ./inp_files/8581.got.cif
#   From: 2010.05.17/outbox.cif.g08.bks.cpg/sg119_5_cif.got.tgz:8581.got - 2010.05.20 11:21:29.
