data_PCOD9559349
_publ_section_title
;
Structure prediction by ZEFSAII (Michael W. Deem and Ramdas Pophale) SiO2 
 PCOD9559349
Probable space group: I -4 M 2
;
_chemical_formula_sum "Si O2"
_cell_formula_units_Z 112
_cell_length_a 14.416059
_cell_length_b 14.416059
_cell_length_c 23.126565
_cell_angle_alpha 90.000000
_cell_angle_beta 90.000000
_cell_angle_gamma 90.000000
_cell_volume 4806.226500
_symmetry_space_group_name_H-M "I -4 M 2"
_symmetry_group_IT_number 119
_symmetry_cell_setting 'tetragonal'
loop_
_space_group_symop_operation_xyz
x,y,z
y,-x,-z
-x,-y,z
-y,x,-z
y,x,-z
-y,-x,-z
-x,y,z
x,-y,z
1/2+x,1/2+y,1/2+z
1/2+y,1/2-x,1/2-z
1/2-x,1/2-y,1/2+z
1/2-y,1/2+x,1/2-z
1/2+y,1/2+x,1/2-z
1/2-y,1/2-x,1/2-z
1/2-x,1/2+y,1/2+z
1/2+x,1/2-y,1/2+z
loop_
_atom_site_type_symbol
_atom_site_label
_atom_site_fract_x
_atom_site_fract_y
_atom_site_fract_z
Si Si1 0.801228 0.110824 0.556400
Si Si2 0.296514 0.891682 0.104241
Si Si3 0.708660 0.713099 0.169910
Si Si4 0.604414 0.894301 0.680609
Si Si5 0.603239 0.609967 0.733290
Si Si6 0.098641 0.889879 0.094155
Si Si7 0.890838 0.397872 0.487026
O O1 0.856831 0.143170 0.500000
O O2 0.835515 0.158802 0.615121
O O3 0.693912 0.141003 0.545704
O O4 0.805260 0.000000 0.561792
O O5 0.307703 0.820666 0.156482
O O6 0.199652 0.861696 0.073057
O O7 0.373169 0.883276 0.055143
O O8 0.289463 0.000000 0.121836
O O9 0.815591 0.678994 0.168140
O O10 0.665671 0.677115 0.229527
O O11 0.500000 0.870471 0.660511
O O12 0.600543 0.899458 0.750000
O O13 0.626317 0.000000 0.660250
O O14 0.500000 0.641281 0.752259
O O15 0.612121 0.500000 0.744112
O O16 0.604942 0.620987 0.663964
O O17 0.000000 0.850182 0.074104
O O18 0.094020 0.000000 0.082473
O O19 0.851262 0.500000 0.473091
O O20 0.000000 0.402583 0.476731
#
# Coordination Sequence:
#
# PCOD9559349 Si02
#       7
#    16  16  16  16  16  16  16
#     4  11  23  40  59  86 118 148 189 241 296 354
#     4  10  21  36  57  83 112 147 193 241 287 342
#     4  12  23  35  59  87 116 151 199 240 291 348
#     4   9  20  38  57  84 125 165 200 242 292 346
#     4   9  19  35  55  83 119 156 192 232 282 344
#     4   8  16  33  55  81 116 153 188 227 273 333
#     4   9  19  39  64  84 110 151 194 239 291 347
#
# _framework density 23.303106
#
# number of rings (size 3 to 8) (size 9 to 14) (size 15 to 20)
#    0.000    2.286    1.429    2.571    2.000    2.429 
#    0.000    1.429    0.000    1.714    0.000    2.000 
#    0.000    0.000    0.000    0.000    0.000    0.000 
#
# Total GULP energy -312981.422834 kJ/mol
# GULP energy per Si atom -5588.953979 kJ/mol
# Density = 2.325007 g / cm^3
# Si number density = 23.303106 Si / 1000 Ang^3
#
#
#
# Elastic Constant Matrix: (Units=GPa)
#
#
# Indices 1 2 3 4 5 6 
#
# 1 87.9761 19.8324 20.1466 0.0000 0.0000 0.0000
# 2 19.8324 87.9765 20.1469 0.0000 0.0000 0.0000
# 3 20.1466 20.1469 67.6697 0.0000 0.0000 0.0000
# 4 0.0000 0.0000 0.0000 15.9750 0.0000 0.0000
# 5 0.0000 0.0000 0.0000 0.0000 15.9746 0.0000
# 6 0.0000 0.0000 0.0000 0.0000 0.0000 22.8219
#
#
#
# Elastic Compliance Matrix: (Units=1/GPa)
#
#
# Indices 1 2 3 4 5 6 
#
# 1 0.012556 -0.002119 -0.003107 0.000000 0.000000 0.000000
# 2 -0.002119 0.012556 -0.003107 0.000000 0.000000 0.000000
# 3 -0.003107 -0.003107 0.016628 0.000000 0.000000 0.000000
# 4 0.000000 0.000000 0.000000 0.062598 0.000000 0.000000
# 5 0.000000 0.000000 0.000000 0.000000 0.062599 0.000000
# 6 0.000000 0.000000 0.000000 0.000000 0.000000 0.043818
#
#
# Mechanical properties :
#
#
# Convention : Reuss Voigt Hill
#
# Bulk Modulus (GPa) = 39.88408 40.43046 40.15727
# Shear Modulus (GPa) = 21.20628 23.18740 22.19684
#
# Velocity S-wave (km/s) = 3.01993 3.15784 3.08965
# Velocity P-wave (km/s) = 5.41410 5.53926 5.47704
#
# Compressibility (1/GPa) = 0.02507266
#
# Stress axis : x y z
#
# Youngs Moduli (GPa) = 79.64351 79.64363 60.13992
#
# Poissons Ratio (x) = 0.16876 0.18687
# Poissons Ratio (y) = 0.16876 0.18688
# Poissons Ratio (z) = 0.24748 0.24748
#
# Static dielectric constant tensor:
#      x y z
#    x 1.910840 0.000000 0.000000 
#    y 0.000000 1.910840 0.000000 
#    z 0.000000 0.000000 1.878700 
# 
# From -- ./inp_files/9647.got.cif
#   From: 2010.05.17/outbox.cif.g08.bks.cpg/sg119_5_cif.got.tgz:9647.got - 2010.05.20 11:21:29.
