data_PCOD9559987
_publ_section_title
;
Structure prediction by ZEFSAII (Michael W. Deem and Ramdas Pophale) SiO2 
 PCOD9559987
Probable space group: I -4 C 2
;
_chemical_formula_sum "Si O2"
_cell_formula_units_Z 96
_cell_length_a 15.773741
_cell_length_b 15.773741
_cell_length_c 16.916645
_cell_angle_alpha 90.000000
_cell_angle_beta 90.000000
_cell_angle_gamma 90.000000
_cell_volume 4209.045754
_symmetry_space_group_name_H-M "I -4 C 2"
_symmetry_group_IT_number 120
_symmetry_cell_setting 'tetragonal'
loop_
_space_group_symop_operation_xyz
x,y,z
y,-x,-z
-x,-y,z
-y,x,-z
y,x,1/2-z
-y,-x,1/2-z
-x,y,1/2+z
x,-y,1/2+z
1/2+x,1/2+y,1/2+z
1/2+y,1/2-x,1/2-z
1/2-x,1/2-y,1/2+z
1/2-y,1/2+x,1/2-z
1/2+y,1/2+x,-z
1/2-y,1/2-x,-z
1/2-x,1/2+y,z
1/2+x,1/2-y,z
loop_
_atom_site_type_symbol
_atom_site_label
_atom_site_fract_x
_atom_site_fract_y
_atom_site_fract_z
Si Si1 0.604209 0.688908 0.173675
Si Si2 0.937545 0.579174 0.149404
Si Si3 0.742686 0.307753 0.162046
Si Si4 0.607639 0.554868 0.032926
Si Si5 0.891561 0.271894 0.547697
Si Si6 0.014489 0.704555 0.783810
O O1 0.646511 0.646511 0.250000
O O2 0.670076 0.758941 0.139029
O O3 0.590591 0.616555 0.107423
O O4 0.525242 0.735149 0.216515
O O5 0.947693 0.653322 0.085249
O O6 0.952821 0.623818 0.233759
O O7 0.838719 0.551552 0.155724
O O8 0.000000 0.500000 0.135153
O O9 0.723431 0.276570 0.250000
O O10 0.661740 0.279345 0.112812
O O11 0.756244 0.408016 0.168479
O O12 0.585396 0.455654 0.037652
O O13 0.703927 0.561705 0.005718
O O14 0.819650 0.319650 0.500000
#
# Coordination Sequence:
#
# PCOD9559987 Si02
#       6
#    16  16  16  16  16  16
#     4  11  23  43  70 103 140 194 254 307 373 454
#     4  12  22  41  70 111 149 190 233 313 378 443
#     4  11  22  41  70 106 142 194 245 299 372 451
#     4  11  27  49  69  98 148 200 250 320 377 439
#     4  12  26  45  73 104 150 200 251 302 380 464
#     4  12  21  39  72 108 148 184 247 308 373 446
#
# _framework density 22.808019999999999
#
# number of rings (size 3 to 8) (size 9 to 14) (size 15 to 20)
#    0.000    0.500    6.667    2.000    2.333    0.333 
#    0.000    1.667    0.000    0.000    0.000    0.000 
#    0.000    0.000    0.000    0.000    0.000    0.000 
#
# Total GULP energy -268237.293839 kJ/mol
# GULP energy per Si atom -5588.276955 kJ/mol
# Density = 2.275611 g / cm^3
# Si number density = 22.808020 Si / 1000 Ang^3
#
#
#
# Elastic Constant Matrix: (Units=GPa)
#
#
# Indices 1 2 3 4 5 6 
#
# 1 106.9562 35.9234 32.4221 0.0000 0.0000 0.0000
# 2 35.9234 106.9571 32.4220 0.0000 0.0000 0.0000
# 3 32.4221 32.4220 54.4717 0.0000 0.0000 0.0000
# 4 0.0000 0.0000 0.0000 24.1326 0.0000 0.0000
# 5 0.0000 0.0000 0.0000 0.0000 24.1336 0.0000
# 6 0.0000 0.0000 0.0000 0.0000 0.0000 51.2198
#
#
#
# Elastic Compliance Matrix: (Units=1/GPa)
#
#
# Indices 1 2 3 4 5 6 
#
# 1 0.011834 -0.002244 -0.005708 0.000000 0.000000 0.000000
# 2 -0.002244 0.011833 -0.005708 0.000000 0.000000 0.000000
# 3 -0.005708 -0.005708 0.025153 0.000000 0.000000 0.000000
# 4 0.000000 0.000000 0.000000 0.041438 0.000000 0.000000
# 5 0.000000 0.000000 0.000000 0.000000 0.041436 0.000000
# 6 0.000000 0.000000 0.000000 0.000000 0.000000 0.019524
#
#
# Mechanical properties :
#
#
# Convention : Reuss Voigt Hill
#
# Bulk Modulus (GPa) = 46.51026 52.21333 49.36179
# Shear Modulus (GPa) = 26.92473 31.07171 28.99822
#
# Velocity S-wave (km/s) = 3.43956 3.69496 3.56954
# Velocity P-wave (km/s) = 6.01751 6.41450 6.21918
#
# Compressibility (1/GPa) = 0.02150063
#
# Stress axis : x y z
#
# Youngs Moduli (GPa) = 84.50508 84.50601 39.75743
#
# Poissons Ratio (x) = 0.18966 0.22692
# Poissons Ratio (y) = 0.18966 0.22692
# Poissons Ratio (z) = 0.48232 0.48232
#
# Static dielectric constant tensor:
#      x y z
#    x 1.995920 0.000000 0.000000 
#    y 0.000000 1.995930 0.000000 
#    z 0.000000 0.000000 1.904810 
# 
# From -- ./inp_files/5342.got.cif
#   From: 2010.05.17/outbox.cif.g08.bks.cpg/sg120_3_cif.got.tgz:5342.got - 2010.05.20 11:28:13.
