data_PCOD9559739
_publ_section_title
;
Structure prediction by ZEFSAII (Michael W. Deem and Ramdas Pophale) SiO2 
 PCOD9559739
Probable space group: I -4 C 2
;
_chemical_formula_sum "Si O2"
_cell_formula_units_Z 96
_cell_length_a 14.491846
_cell_length_b 14.491846
_cell_length_c 23.171128
_cell_angle_alpha 90.000000
_cell_angle_beta 90.000000
_cell_angle_gamma 90.000000
_cell_volume 4866.252019
_symmetry_space_group_name_H-M "I -4 C 2"
_symmetry_group_IT_number 120
_symmetry_cell_setting 'tetragonal'
loop_
_space_group_symop_operation_xyz
x,y,z
y,-x,-z
-x,-y,z
-y,x,-z
y,x,1/2-z
-y,-x,1/2-z
-x,y,1/2+z
x,-y,1/2+z
1/2+x,1/2+y,1/2+z
1/2+y,1/2-x,1/2-z
1/2-x,1/2-y,1/2+z
1/2-y,1/2+x,1/2-z
1/2+y,1/2+x,-z
1/2-y,1/2-x,-z
1/2-x,1/2+y,z
1/2+x,1/2-y,z
loop_
_atom_site_type_symbol
_atom_site_label
_atom_site_fract_x
_atom_site_fract_y
_atom_site_fract_z
Si Si1 0.100420 0.100420 0.250000
Si Si2 0.769634 0.022717 0.317188
Si Si3 0.101086 0.398915 0.000000
Si Si4 0.457683 0.903184 0.599594
Si Si5 0.907353 0.963005 0.642234
Si Si6 0.135903 0.438772 0.229374
Si Si7 0.794796 0.528799 0.102889
O O1 0.073046 0.190086 0.211011
O O2 0.018756 0.098846 0.297194
O O3 0.685370 0.017991 0.362544
O O4 0.856427 0.073883 0.344826
O O5 0.725784 0.083745 0.266473
O O6 0.106869 0.491277 0.961301
O O7 0.093231 0.321501 0.951093
O O8 0.350737 0.932071 0.595272
O O9 0.500000 0.000000 0.624740
O O10 0.813532 0.981707 0.609138
O O11 0.000000 0.000000 0.612184
O O12 0.114241 0.546227 0.246705
O O13 0.166077 0.430334 0.163245
#
# Coordination Sequence:
#
# PCOD9559739 Si02
#       7
#     8  16   8  16  16  16  16
#     4  10  21  40  64  94 136 180 212 263 334 419
#     4  11  20  37  65  96 133 171 217 264 335 407
#     4  10  23  42  70  96 124 170 221 272 345 396
#     4  10  20  40  65  97 129 169 216 278 338 394
#     4  10  22  40  66  88 134 179 219 264 333 409
#     4  11  21  33  55  95 137 164 204 263 331 395
#     4  11  20  37  65  92 129 176 212 272 325 388
#
# _framework density 19.727709000000001
#
# number of rings (size 3 to 8) (size 9 to 14) (size 15 to 20)
#    0.000    1.500    3.333    6.500    2.333    0.000 
#    0.000   15.000   18.333    0.000    0.000    0.000 
#    0.000    0.000    0.000    0.000    0.000    0.000 
#
# Total GULP energy -267324.761677 kJ/mol
# GULP energy per Si atom -5569.265868 kJ/mol
# Density = 1.968281 g / cm^3
# Si number density = 19.727709 Si / 1000 Ang^3
#
#
#
# Elastic Constant Matrix: (Units=GPa)
#
#
# Indices 1 2 3 4 5 6 
#
# 1 144.6983 33.6774 46.6160 0.0000 0.0000 0.0000
# 2 33.6774 144.6987 46.6159 0.0000 0.0000 0.0000
# 3 46.6160 46.6159 131.1388 0.0000 0.0000 0.0000
# 4 0.0000 0.0000 0.0000 23.3908 0.0000 0.0000
# 5 0.0000 0.0000 0.0000 0.0000 23.3908 0.0000
# 6 0.0000 0.0000 0.0000 0.0000 0.0000 10.2968
#
#
#
# Elastic Compliance Matrix: (Units=1/GPa)
#
#
# Indices 1 2 3 4 5 6 
#
# 1 0.007946 -0.001061 -0.002448 0.000000 0.000000 0.000000
# 2 -0.001061 0.007946 -0.002448 0.000000 0.000000 0.000000
# 3 -0.002448 -0.002448 0.009366 0.000000 0.000000 0.000000
# 4 0.000000 0.000000 0.000000 0.042752 0.000000 0.000000
# 5 0.000000 0.000000 0.000000 0.000000 0.042752 0.000000
# 6 0.000000 0.000000 0.000000 0.000000 0.000000 0.097118
#
#
# Mechanical properties :
#
#
# Convention : Reuss Voigt Hill
#
# Bulk Modulus (GPa) = 74.92791 74.92825 74.92808
# Shear Modulus (GPa) = 22.29749 30.99077 26.64413
#
# Velocity S-wave (km/s) = 3.36559 3.96779 3.67903
# Velocity P-wave (km/s) = 7.29153 7.68471 7.49070
#
# Compressibility (1/GPa) = 0.01334616
#
# Stress axis : x y z
#
# Youngs Moduli (GPa) = 125.84368 125.84411 106.77402
#
# Poissons Ratio (x) = 0.13351 0.26134
# Poissons Ratio (y) = 0.13351 0.26133
# Poissons Ratio (z) = 0.30801 0.30801
#
# Static dielectric constant tensor:
#      x y z
#    x 1.745650 0.000000 0.000000 
#    y 0.000000 1.745650 0.000000 
#    z 0.000000 0.000000 1.750310 
# 
# From -- ./inp_files/5846.got.cif
#   From: 2010.05.17/outbox.cif.g08.bks.cpg/sg120_3_cif.got.tgz:5846.got - 2010.05.20 11:28:13.
