data_PCOD9559705
_publ_section_title
;
Structure prediction by ZEFSAII (Michael W. Deem and Ramdas Pophale) SiO2 
 PCOD9559705
Probable space group: I -4 C 2
;
_chemical_formula_sum "Si O2"
_cell_formula_units_Z 100
_cell_length_a 12.936322
_cell_length_b 12.936322
_cell_length_c 26.102452
_cell_angle_alpha 90.000000
_cell_angle_beta 90.000000
_cell_angle_gamma 90.000000
_cell_volume 4368.204280
_symmetry_space_group_name_H-M "I -4 C 2"
_symmetry_group_IT_number 120
_symmetry_cell_setting 'tetragonal'
loop_
_space_group_symop_operation_xyz
x,y,z
y,-x,-z
-x,-y,z
-y,x,-z
y,x,1/2-z
-y,-x,1/2-z
-x,y,1/2+z
x,-y,1/2+z
1/2+x,1/2+y,1/2+z
1/2+y,1/2-x,1/2-z
1/2-x,1/2-y,1/2+z
1/2-y,1/2+x,1/2-z
1/2+y,1/2+x,-z
1/2-y,1/2-x,-z
1/2-x,1/2+y,z
1/2+x,1/2-y,z
loop_
_atom_site_type_symbol
_atom_site_label
_atom_site_fract_x
_atom_site_fract_y
_atom_site_fract_z
Si Si1 0.665151 0.066196 0.076323
Si Si2 0.118637 0.959483 0.198588
Si Si3 0.086139 0.218145 0.628816
Si Si4 0.000000 0.500000 0.500000
Si Si5 0.092645 0.293338 0.342789
Si Si6 0.669960 0.337707 0.980005
Si Si7 0.307125 0.378310 0.912057
O O1 0.775935 0.080866 0.050301
O O2 0.625346 0.183857 0.078611
O O3 0.598103 0.002361 0.036294
O O4 0.659371 0.007346 0.129580
O O5 0.108277 0.891724 0.250000
O O6 0.145568 0.878734 0.153458
O O7 0.208815 0.047332 0.197758
O O8 0.000000 0.000000 0.192107
O O9 0.117199 0.319937 0.661246
O O10 0.099786 0.222673 0.566567
O O11 0.967597 0.183683 0.629731
O O12 0.151525 0.223684 0.385000
O O13 0.758975 0.258975 0.000000
O O14 0.616006 0.367571 0.033806
#
# Coordination Sequence:
#
# PCOD9559705 Si02
#       7
#    16  16  16   4  16  16  16
#     4  11  22  37  56  92 137 183 232 266 328 401
#     4  11  25  50  72  94 129 169 228 296 361 413
#     4  12  24  42  69  98 133 182 233 280 343 417
#     4  12  20  36  56  92 144 206 234 274 340 400
#     4  12  23  41  69  95 131 173 223 287 338 412
#     4  10  20  37  55  91 140 179 218 264 320 410
#     4  11  23  39  59  95 139 183 230 273 333 410
#
# _framework density 22.892703000000001
#
# number of rings (size 3 to 8) (size 9 to 14) (size 15 to 20)
#    0.000    0.800    8.800    0.960    2.240    0.000 
#    4.320    0.000    0.000    0.000    0.000    0.000 
#    0.000    0.000    0.000    0.000    0.000    0.000 
#
# Total GULP energy -278392.074743 kJ/mol
# GULP energy per Si atom -5567.841495 kJ/mol
# Density = 2.284060 g / cm^3
# Si number density = 22.892703 Si / 1000 Ang^3
#
#
#
# Elastic Constant Matrix: (Units=GPa)
#
#
# Indices 1 2 3 4 5 6 
#
# 1 36.8650 18.8947 16.9278 0.0000 0.0000 0.0000
# 2 18.8947 36.8649 16.9278 0.0000 0.0000 0.0000
# 3 16.9278 16.9278 75.0894 0.0000 0.0000 0.0000
# 4 0.0000 0.0000 0.0000 27.8399 0.0000 0.0000
# 5 0.0000 0.0000 0.0000 0.0000 27.8395 0.0000
# 6 0.0000 0.0000 0.0000 0.0000 0.0000 29.4024
#
#
#
# Elastic Compliance Matrix: (Units=1/GPa)
#
#
# Indices 1 2 3 4 5 6 
#
# 1 0.038213 -0.017435 -0.004684 0.000000 0.000000 0.000000
# 2 -0.017435 0.038213 -0.004684 0.000000 0.000000 0.000000
# 3 -0.004684 -0.004684 0.015429 0.000000 0.000000 0.000000
# 4 0.000000 0.000000 0.000000 0.035920 0.000000 0.000000
# 5 0.000000 0.000000 0.000000 0.000000 0.035920 0.000000
# 6 0.000000 0.000000 0.000000 0.000000 0.000000 0.034011
#
#
# Mechanical properties :
#
#
# Convention : Reuss Voigt Hill
#
# Bulk Modulus (GPa) = 26.14434 28.25777 27.20105
# Shear Modulus (GPa) = 18.93500 23.42095 21.17798
#
# Velocity S-wave (km/s) = 2.87909 3.20202 3.04484
# Velocity P-wave (km/s) = 4.74314 5.10304 4.92638
#
# Compressibility (1/GPa) = 0.03824920
#
# Stress axis : x y z
#
# Youngs Moduli (GPa) = 26.16928 26.16921 64.81133
#
# Poissons Ratio (x) = 0.45625 0.30358
# Poissons Ratio (y) = 0.45625 0.30358
# Poissons Ratio (z) = 0.12258 0.12258
#
# Static dielectric constant tensor:
#      x y z
#    x 1.823580 0.000000 0.000000 
#    y 0.000000 1.823580 0.000000 
#    z 0.000000 0.000000 1.939670 
# 
# From -- ./inp_files/5864.got.cif
#   From: 2010.05.17/outbox.cif.g08.bks.cpg/sg120_3_cif.got.tgz:5864.got - 2010.05.20 11:28:13.
