data_PCOD9559178
_publ_section_title
;
Structure prediction by ZEFSAII (Michael W. Deem and Ramdas Pophale) SiO2 
 PCOD9559178
Probable space group: I -4 M 2
;
_chemical_formula_sum "Si O2"
_cell_formula_units_Z 72
_cell_length_a 13.654171
_cell_length_b 13.654171
_cell_length_c 21.855477
_cell_angle_alpha 90.000000
_cell_angle_beta 90.000000
_cell_angle_gamma 90.000000
_cell_volume 4074.656140
_symmetry_space_group_name_H-M "I -4 M 2"
_symmetry_group_IT_number 119
_symmetry_cell_setting 'tetragonal'
loop_
_space_group_symop_operation_xyz
x,y,z
y,-x,-z
-x,-y,z
-y,x,-z
y,x,-z
-y,-x,-z
-x,y,z
x,-y,z
1/2+x,1/2+y,1/2+z
1/2+y,1/2-x,1/2-z
1/2-x,1/2-y,1/2+z
1/2-y,1/2+x,1/2-z
1/2+y,1/2+x,1/2-z
1/2-y,1/2-x,1/2-z
1/2-x,1/2+y,1/2+z
1/2+x,1/2-y,1/2+z
loop_
_atom_site_type_symbol
_atom_site_label
_atom_site_fract_x
_atom_site_fract_y
_atom_site_fract_z
Si Si1 0.891860 0.117108 0.572203
Si Si2 0.886692 0.882298 0.809333
Si Si3 0.805635 0.694366 0.250000
Si Si4 0.612017 0.298613 0.558420
Si Si5 0.385811 0.814558 0.880002
O O1 0.870619 0.129382 0.500000
O O2 0.797931 0.149869 0.609771
O O3 0.000000 0.158338 0.586142
O O4 0.898047 0.000000 0.581959
O O5 0.806906 0.828022 0.767604
O O6 0.859486 0.861163 0.880297
O O7 0.000000 0.858652 0.796764
O O8 0.873902 0.000000 0.800918
O O9 0.836956 0.632839 0.190728
O O10 0.676980 0.323021 0.500000
O O11 0.500000 0.322927 0.543031
O O12 0.621696 0.185720 0.578426
O O13 0.500000 0.822468 0.895758
#
# Coordination Sequence:
#
# PCOD9559178 Si02
#       5
#    16  16   8  16  16
#     4   8  14  26  46  72  99 125 155 195 245 298
#     4   9  18  33  53  76 101 131 170 214 256 300
#     4  10  20  32  48  74 106 138 174 212 250 292
#     4  10  20  34  53  76  99 126 165 211 257 302
#     4  10  20  33  49  72 103 136 169 206 250 302
#
# _framework density 17.670203999999998
#
# number of rings (size 3 to 8) (size 9 to 14) (size 15 to 20)
#    0.000    2.667    0.000    2.667    0.000    3.333 
#    0.000    2.222    0.000    6.000    0.000    0.000 
#    0.000    0.000    0.000    0.000    0.000    0.000 
#
# Total GULP energy -200639.624736 kJ/mol
# GULP energy per Si atom -5573.322909 kJ/mol
# Density = 1.762999 g / cm^3
# Si number density = 17.670204 Si / 1000 Ang^3
#
#
#
# Elastic Constant Matrix: (Units=GPa)
#
#
# Indices 1 2 3 4 5 6 
#
# 1 57.3529 26.4556 22.5601 0.0000 0.0000 0.0000
# 2 26.4556 57.3546 22.5611 0.0000 0.0000 0.0000
# 3 22.5601 22.5611 55.7957 0.0000 0.0000 0.0000
# 4 0.0000 0.0000 0.0000 15.8101 0.0000 0.0000
# 5 0.0000 0.0000 0.0000 0.0000 15.8088 0.0000
# 6 0.0000 0.0000 0.0000 0.0000 0.0000 23.4894
#
#
#
# Elastic Compliance Matrix: (Units=1/GPa)
#
#
# Indices 1 2 3 4 5 6 
#
# 1 0.023808 -0.008556 -0.006167 0.000000 0.000000 0.000000
# 2 -0.008556 0.023808 -0.006167 0.000000 0.000000 0.000000
# 3 -0.006167 -0.006167 0.022910 0.000000 0.000000 0.000000
# 4 0.000000 0.000000 0.000000 0.063251 0.000000 0.000000
# 5 0.000000 0.000000 0.000000 0.000000 0.063256 0.000000
# 6 0.000000 0.000000 0.000000 0.000000 0.000000 0.042572
#
#
# Mechanical properties :
#
#
# Convention : Reuss Voigt Hill
#
# Bulk Modulus (GPa) = 34.78792 34.85076 34.81934
# Shear Modulus (GPa) = 17.18403 17.61674 17.40038
#
# Velocity S-wave (km/s) = 3.12185 3.16092 3.14145
# Velocity P-wave (km/s) = 5.72055 5.75218 5.73639
#
# Compressibility (1/GPa) = 0.02874561
#
# Stress axis : x y z
#
# Youngs Moduli (GPa) = 42.00188 42.00270 43.64946
#
# Poissons Ratio (x) = 0.35938 0.26918
# Poissons Ratio (y) = 0.35937 0.26920
# Poissons Ratio (z) = 0.25902 0.25904
#
# Static dielectric constant tensor:
#      x y z
#    x 1.640020 0.000000 0.000000 
#    y 0.000000 1.640020 0.000000 
#    z 0.000000 0.000000 1.611390 
# 
# From -- ./inp_files/6396.got.cif
#   From: 2010.05.17/outbox.cif.g08.bks.cpg/sg119_4_cif.got.tgz:6396.got - 2010.05.20 11:21:29.
