data_PCOD9559879
_publ_section_title
;
Structure prediction by ZEFSAII (Michael W. Deem and Ramdas Pophale) SiO2 
 PCOD9559879
Probable space group: I -4 C 2
;
_chemical_formula_sum "Si O2"
_cell_formula_units_Z 96
_cell_length_a 14.384634
_cell_length_b 14.384634
_cell_length_c 21.571986
_cell_angle_alpha 90.000000
_cell_angle_beta 90.000000
_cell_angle_gamma 90.000000
_cell_volume 4463.625626
_symmetry_space_group_name_H-M "I -4 C 2"
_symmetry_group_IT_number 120
_symmetry_cell_setting 'tetragonal'
loop_
_space_group_symop_operation_xyz
x,y,z
y,-x,-z
-x,-y,z
-y,x,-z
y,x,1/2-z
-y,-x,1/2-z
-x,y,1/2+z
x,-y,1/2+z
1/2+x,1/2+y,1/2+z
1/2+y,1/2-x,1/2-z
1/2-x,1/2-y,1/2+z
1/2-y,1/2+x,1/2-z
1/2+y,1/2+x,-z
1/2-y,1/2-x,-z
1/2-x,1/2+y,z
1/2+x,1/2-y,z
loop_
_atom_site_type_symbol
_atom_site_label
_atom_site_fract_x
_atom_site_fract_y
_atom_site_fract_z
Si Si1 0.500000 0.000000 0.750000
Si Si2 0.569738 0.665264 0.500954
Si Si3 0.264143 0.399897 0.288132
Si Si4 0.000000 0.500000 0.500000
Si Si5 0.773234 0.726767 0.500000
Si Si6 0.449220 0.189989 0.936673
Si Si7 0.023411 0.902495 0.110068
Si Si8 0.313914 0.945592 0.700873
O O1 0.411583 0.998920 0.706670
O O2 0.666216 0.713906 0.487840
O O3 0.487319 0.735874 0.485569
O O4 0.565016 0.638811 0.573254
O O5 0.567446 0.584395 0.449907
O O6 0.331795 0.331795 0.250000
O O7 0.323254 0.427926 0.349260
O O8 0.163928 0.344958 0.294283
O O9 0.245465 0.499312 0.252784
O O10 0.091172 0.492309 0.543547
O O11 0.810014 0.661692 0.555371
O O12 0.468522 0.222664 0.867332
O O13 0.000000 0.000000 0.143895
#
# Coordination Sequence:
#
# PCOD9559879 Si02
#       8
#     4  16  16   4   8  16  16  16
#     4   8  18  40  68  90 132 182 236 288 362 420
#     4  12  22  43  65 103 140 183 227 297 369 440
#     4  11  26  49  71 106 143 192 251 306 367 448
#     4  10  24  36  60 110 138 180 240 300 370 430
#     4  11  23  39  62  97 137 179 222 276 358 427
#     4  11  22  40  64  97 140 178 232 293 351 438
#     4  12  23  46  74 101 145 185 238 300 375 448
#     4  10  22  45  69  99 139 191 240 302 367 437
#
# _framework density 21.507179000000001
#
# number of rings (size 3 to 8) (size 9 to 14) (size 15 to 20)
#    0.000    1.000    3.333    3.000    2.333    0.333 
#   21.000    0.000    0.000    0.000    0.000    0.000 
#    0.000    0.000    0.000    0.000    0.000    0.000 
#
# Total GULP energy -267559.936973 kJ/mol
# GULP energy per Si atom -5574.165354 kJ/mol
# Density = 2.145823 g / cm^3
# Si number density = 21.507179 Si / 1000 Ang^3
#
#
#
# Elastic Constant Matrix: (Units=GPa)
#
#
# Indices 1 2 3 4 5 6 
#
# 1 98.3498 25.8006 27.3770 0.0000 0.0000 0.0000
# 2 25.8006 98.3505 27.3769 0.0000 0.0000 0.0000
# 3 27.3770 27.3769 90.2674 0.0000 0.0000 0.0000
# 4 0.0000 0.0000 0.0000 24.4310 0.0000 0.0000
# 5 0.0000 0.0000 0.0000 0.0000 24.4314 0.0000
# 6 0.0000 0.0000 0.0000 0.0000 0.0000 36.7707
#
#
#
# Elastic Compliance Matrix: (Units=1/GPa)
#
#
# Indices 1 2 3 4 5 6 
#
# 1 0.011541 -0.002243 -0.002820 0.000000 0.000000 0.000000
# 2 -0.002243 0.011541 -0.002820 0.000000 0.000000 0.000000
# 3 -0.002820 -0.002820 0.012789 0.000000 0.000000 0.000000
# 4 0.000000 0.000000 0.000000 0.040932 0.000000 0.000000
# 5 0.000000 0.000000 0.000000 0.000000 0.040931 0.000000
# 6 0.000000 0.000000 0.000000 0.000000 0.000000 0.027196
#
#
# Mechanical properties :
#
#
# Convention : Reuss Voigt Hill
#
# Bulk Modulus (GPa) = 49.73809 49.78629 49.76219
# Shear Modulus (GPa) = 29.86921 30.88750 30.37836
#
# Velocity S-wave (km/s) = 3.73071 3.79377 3.76237
# Velocity P-wave (km/s) = 6.46019 6.51070 6.48549
#
# Compressibility (1/GPa) = 0.02010531
#
# Stress axis : x y z
#
# Youngs Moduli (GPa) = 86.64667 86.64743 78.19341
#
# Poissons Ratio (x) = 0.19432 0.22052
# Poissons Ratio (y) = 0.19431 0.22051
# Poissons Ratio (z) = 0.24435 0.24435
#
# Static dielectric constant tensor:
#      x y z
#    x 1.836240 0.000000 0.000000 
#    y 0.000000 1.836230 0.000000 
#    z 0.000000 0.000000 1.835620 
# 
# From -- ./inp_files/5422.got.cif
#   From: 2010.05.17/outbox.cif.g08.bks.cpg/sg120_3_cif.got.tgz:5422.got - 2010.05.20 11:28:13.
