data_PCOD9559877
_publ_section_title
;
Structure prediction by ZEFSAII (Michael W. Deem and Ramdas Pophale) SiO2 
 PCOD9559877
Probable space group: I -4 C 2
;
_chemical_formula_sum "Si O2"
_cell_formula_units_Z 80
_cell_length_a 11.905983
_cell_length_b 11.905983
_cell_length_c 27.946541
_cell_angle_alpha 90.000000
_cell_angle_beta 90.000000
_cell_angle_gamma 90.000000
_cell_volume 3961.490130
_symmetry_space_group_name_H-M "I -4 C 2"
_symmetry_group_IT_number 120
_symmetry_cell_setting 'tetragonal'
loop_
_space_group_symop_operation_xyz
x,y,z
y,-x,-z
-x,-y,z
-y,x,-z
y,x,1/2-z
-y,-x,1/2-z
-x,y,1/2+z
x,-y,1/2+z
1/2+x,1/2+y,1/2+z
1/2+y,1/2-x,1/2-z
1/2-x,1/2-y,1/2+z
1/2-y,1/2+x,1/2-z
1/2+y,1/2+x,-z
1/2-y,1/2-x,-z
1/2-x,1/2+y,z
1/2+x,1/2-y,z
loop_
_atom_site_type_symbol
_atom_site_label
_atom_site_fract_x
_atom_site_fract_y
_atom_site_fract_z
Si Si1 0.125778 0.966169 0.298372
Si Si2 0.500000 0.000000 0.375799
Si Si3 0.331235 0.579134 0.504171
Si Si4 0.174018 0.317760 0.081007
Si Si5 0.310094 0.310094 0.750000
Si Si6 0.803680 0.331803 0.843988
O O1 0.107056 0.892945 0.250000
O O2 0.193931 0.910306 0.340545
O O3 0.191185 0.074428 0.279604
O O4 0.000000 0.000000 0.313228
O O5 0.408740 0.083412 0.400471
O O6 0.585652 0.092891 0.352728
O O7 0.447815 0.644147 0.498102
O O8 0.272047 0.614916 0.553360
O O9 0.253888 0.613340 0.459870
O O10 0.232592 0.232925 0.119388
O O11 0.216580 0.312051 0.709611
#
# Coordination Sequence:
#
# PCOD9559877 Si02
#       6
#    16   8  16  16   8  16
#     4   9  21  41  63  91 126 187 230 282 346 403
#     4  12  28  41  69 110 134 186 236 285 355 422
#     4  10  22  44  70  98 129 177 225 279 353 426
#     4  11  25  44  68 100 140 175 224 292 349 422
#     4  10  23  38  65  92 136 178 232 284 337 406
#     4  12  24  44  66 101 141 182 233 292 352 410
#
# _framework density 20.194421999999999
#
# number of rings (size 3 to 8) (size 9 to 14) (size 15 to 20)
#    0.000    1.600    1.000    3.600    5.600    4.800 
#    7.200    1.000    0.000    0.000    0.000    0.000 
#    0.000    0.000    0.000    0.000    0.000    0.000 
#
# Total GULP energy -222981.836903 kJ/mol
# GULP energy per Si atom -5574.545923 kJ/mol
# Density = 2.014846 g / cm^3
# Si number density = 20.194422 Si / 1000 Ang^3
#
#
#
# Elastic Constant Matrix: (Units=GPa)
#
#
# Indices 1 2 3 4 5 6 
#
# 1 102.4832 80.3783 57.7544 0.0000 0.0000 0.0000
# 2 80.3783 102.4853 57.7545 0.0000 0.0000 0.0000
# 3 57.7544 57.7545 85.0133 0.0000 0.0000 0.0000
# 4 0.0000 0.0000 0.0000 27.4837 0.0000 0.0000
# 5 0.0000 0.0000 0.0000 0.0000 27.4804 0.0000
# 6 0.0000 0.0000 0.0000 0.0000 0.0000 165.4520
#
#
#
# Elastic Compliance Matrix: (Units=1/GPa)
#
#
# Indices 1 2 3 4 5 6 
#
# 1 0.027408 -0.017829 -0.006508 0.000000 0.000000 0.000000
# 2 -0.017829 0.027408 -0.006508 0.000000 0.000000 0.000000
# 3 -0.006508 -0.006508 0.020605 0.000000 0.000000 0.000000
# 4 0.000000 0.000000 0.000000 0.036385 0.000000 0.000000
# 5 0.000000 0.000000 0.000000 0.000000 0.036390 0.000000
# 6 0.000000 0.000000 0.000000 0.000000 0.000000 0.006044
#
#
# Mechanical properties :
#
#
# Convention : Reuss Voigt Hill
#
# Bulk Modulus (GPa) = 72.81939 75.75069 74.28504
# Shear Modulus (GPa) = 22.67512 50.35621 36.51567
#
# Velocity S-wave (km/s) = 3.35452 4.99898 4.25691
# Velocity P-wave (km/s) = 7.15130 8.42092 7.81195
#
# Compressibility (1/GPa) = 0.01373261
#
# Stress axis : x y z
#
# Youngs Moduli (GPa) = 36.48516 36.48627 48.53155
#
# Poissons Ratio (x) = 0.65050 0.31585
# Poissons Ratio (y) = 0.65048 0.31582
# Poissons Ratio (z) = 0.23745 0.23744
#
# Static dielectric constant tensor:
#      x y z
#    x 1.767620 0.000000 0.000000 
#    y 0.000000 1.767620 0.000000 
#    z 0.000000 0.000000 1.695250 
# 
# From -- ./inp_files/6524.got.cif
#   From: 2010.05.17/outbox.cif.g08.bks.cpg/sg120_4_cif.got.tgz:6524.got - 2010.05.20 11:28:13.
