data_PCOD9559366
_publ_section_title
;
Structure prediction by ZEFSAII (Michael W. Deem and Ramdas Pophale) SiO2 
 PCOD9559366
Probable space group: I -4 M 2
;
_chemical_formula_sum "Si O2"
_cell_formula_units_Z 64
_cell_length_a 14.112794
_cell_length_b 14.112794
_cell_length_c 16.019170
_cell_angle_alpha 90.000000
_cell_angle_beta 90.000000
_cell_angle_gamma 90.000000
_cell_volume 3190.553379
_symmetry_space_group_name_H-M "I -4 M 2"
_symmetry_group_IT_number 119
_symmetry_cell_setting 'tetragonal'
loop_
_space_group_symop_operation_xyz
x,y,z
y,-x,-z
-x,-y,z
-y,x,-z
y,x,-z
-y,-x,-z
-x,y,z
x,-y,z
1/2+x,1/2+y,1/2+z
1/2+y,1/2-x,1/2-z
1/2-x,1/2-y,1/2+z
1/2-y,1/2+x,1/2-z
1/2+y,1/2+x,1/2-z
1/2-y,1/2-x,1/2-z
1/2-x,1/2+y,1/2+z
1/2+x,1/2-y,1/2+z
loop_
_atom_site_type_symbol
_atom_site_label
_atom_site_fract_x
_atom_site_fract_y
_atom_site_fract_z
Si Si1 0.767060 0.386367 0.990913
Si Si2 0.887877 0.307507 0.837191
Si Si3 0.391068 0.607080 0.263689
Si Si4 0.294332 0.109323 0.671789
O O1 0.756989 0.500000 0.987535
O O2 0.826466 0.349290 0.912354
O O3 0.667771 0.332230 0.000000
O O4 0.819141 0.360390 0.078568
O O5 0.853946 0.353946 0.750000
O O6 0.873134 0.194113 0.826230
O O7 0.000000 0.324853 0.848887
O O8 0.500000 0.616017 0.236262
O O9 0.377893 0.500000 0.298143
O O10 0.318567 0.616566 0.187400
O O11 0.337343 0.162658 0.750000
O O12 0.321586 0.000000 0.679700
#
# Coordination Sequence:
#
# PCOD9559366 Si02
#       4
#    16  16  16  16
#     4  11  24  40  60  89 121 156 203 253 306 371
#     4  11  23  40  64  92 125 164 205 255 315 378
#     4   9  18  35  62  92 119 153 197 245 303 369
#     4  10  21  37  58  83 113 150 192 239 291 349
#
# _framework density 20.059214999999998
#
# number of rings (size 3 to 8) (size 9 to 14) (size 15 to 20)
#    0.000    1.750    0.000    4.500    0.000    6.250 
#    0.000    6.250    0.000    1.500    0.000    7.000 
#    0.000    0.000    0.000    0.000    0.000    0.000 
#
# Total GULP energy -178613.759498 kJ/mol
# GULP energy per Si atom -5581.679984 kJ/mol
# Density = 2.001356 g / cm^3
# Si number density = 20.059215 Si / 1000 Ang^3
#
#
#
# Elastic Constant Matrix: (Units=GPa)
#
#
# Indices 1 2 3 4 5 6 
#
# 1 105.2920 54.4373 77.5366 0.0000 0.0000 0.0000
# 2 54.4373 105.2921 77.5338 0.0000 0.0000 0.0000
# 3 77.5366 77.5338 178.6483 0.0000 0.0000 0.0000
# 4 0.0000 0.0000 0.0000 21.5278 0.0000 0.0000
# 5 0.0000 0.0000 0.0000 0.0000 21.5281 0.0000
# 6 0.0000 0.0000 0.0000 0.0000 0.0000 26.8534
#
#
#
# Elastic Compliance Matrix: (Units=1/GPa)
#
#
# Indices 1 2 3 4 5 6 
#
# 1 0.015242 -0.004422 -0.004696 0.000000 0.000000 0.000000
# 2 -0.004422 0.015241 -0.004695 0.000000 0.000000 0.000000
# 3 -0.004696 -0.004695 0.009674 0.000000 0.000000 0.000000
# 4 0.000000 0.000000 0.000000 0.046452 0.000000 0.000000
# 5 0.000000 0.000000 0.000000 0.000000 0.046451 0.000000
# 6 0.000000 0.000000 0.000000 0.000000 0.000000 0.037239
#
#
# Mechanical properties :
#
#
# Convention : Reuss Voigt Hill
#
# Bulk Modulus (GPa) = 79.81222 89.80531 84.80877
# Shear Modulus (GPa) = 24.73998 25.96353 25.35175
#
# Velocity S-wave (km/s) = 3.51571 3.60160 3.55892
# Velocity P-wave (km/s) = 7.50700 7.88433 7.69798
#
# Compressibility (1/GPa) = 0.01252941
#
# Stress axis : x y z
#
# Youngs Moduli (GPa) = 65.60879 65.61109 103.37472
#
# Poissons Ratio (x) = 0.29015 0.48544
# Poissons Ratio (y) = 0.29014 0.48539
# Poissons Ratio (z) = 0.30810 0.30807
#
# Static dielectric constant tensor:
#      x y z
#    x 1.736590 0.000000 0.000000 
#    y 0.000000 1.736590 0.000000 
#    z 0.000000 0.000000 1.699240 
# 
# From -- ./inp_files/5067.got.cif
#   From: 2010.05.17/outbox.cif.g08.bks.cpg/sg119_3_cif.got.tgz:5067.got - 2010.05.20 11:21:29.
