data_PCOD9559205
_publ_section_title
;
Structure prediction by ZEFSAII (Michael W. Deem and Ramdas Pophale) SiO2 
 PCOD9559205
Probable space group: I -4 M 2
;
_chemical_formula_sum "Si O2"
_cell_formula_units_Z 112
_cell_length_a 14.124427
_cell_length_b 14.124427
_cell_length_c 32.090519
_cell_angle_alpha 90.000000
_cell_angle_beta 90.000000
_cell_angle_gamma 90.000000
_cell_volume 6402.040508
_symmetry_space_group_name_H-M "I -4 M 2"
_symmetry_group_IT_number 119
_symmetry_cell_setting 'tetragonal'
loop_
_space_group_symop_operation_xyz
x,y,z
y,-x,-z
-x,-y,z
-y,x,-z
y,x,-z
-y,-x,-z
-x,y,z
x,-y,z
1/2+x,1/2+y,1/2+z
1/2+y,1/2-x,1/2-z
1/2-x,1/2-y,1/2+z
1/2-y,1/2+x,1/2-z
1/2+y,1/2+x,1/2-z
1/2-y,1/2-x,1/2-z
1/2-x,1/2+y,1/2+z
1/2+x,1/2-y,1/2+z
loop_
_atom_site_type_symbol
_atom_site_label
_atom_site_fract_x
_atom_site_fract_y
_atom_site_fract_z
Si Si1 0.885833 0.609186 0.795225
Si Si2 0.209313 0.611522 0.133981
Si Si3 0.606648 0.885846 0.546697
Si Si4 0.613570 0.886890 0.454948
Si Si5 0.389508 0.793262 0.711571
Si Si6 0.889129 0.110718 0.840480
Si Si7 0.788219 0.302608 0.624934
O O1 0.855623 0.500000 0.799392
O O2 0.853393 0.646608 0.750000
O O3 0.852597 0.664511 0.835413
O O4 0.000000 0.610169 0.793780
O O5 0.232097 0.500000 0.137721
O O6 0.163617 0.630189 0.088667
O O7 0.139798 0.643864 0.171303
O O8 0.290839 0.690670 0.134551
O O9 0.500000 0.849109 0.551954
O O10 0.643492 0.854239 0.501441
O O11 0.600635 0.000000 0.542965
O O12 0.500000 0.870338 0.451253
O O13 0.668406 0.837091 0.417762
O O14 0.627498 0.000000 0.451479
O O15 0.500000 0.808528 0.721310
O O16 0.326071 0.826071 0.750000
O O17 0.377023 0.683300 0.698331
O O18 0.844244 0.181264 0.874378
O O19 0.000000 0.132709 0.832376
O O20 0.883277 0.000000 0.852377
#
# Coordination Sequence:
#
# PCOD9559205 Si02
#       7
#    16  16  16  16  16  16  16
#     4   9  18  33  54  80 106 129 156 197 254 314
#     4  10  21  34  47  66  98 139 176 207 244 292
#     4   8  15  30  51  73  98 127 159 201 255 307
#     4   9  17  30  52  82 106 121 150 204 263 309
#     4  10  20  33  53  79 100 123 164 217 262 294
#     4   9  19  35  51  70 101 139 172 197 233 298
#     4  11  20  30  51  76 101 132 168 206 248 289
#
# _framework density 17.494420999999999
#
# number of rings (size 3 to 8) (size 9 to 14) (size 15 to 20)
#    0.000    2.571    0.000    3.857    0.000    6.143 
#    0.000    0.000    0.000    5.143    0.000    1.000 
#    0.000   21.714    0.000    0.000    0.000    0.000 
#
# Total GULP energy -311881.381177 kJ/mol
# GULP energy per Si atom -5569.310378 kJ/mol
# Density = 1.745460 g / cm^3
# Si number density = 17.494421 Si / 1000 Ang^3
#
#
#
# Elastic Constant Matrix: (Units=GPa)
#
#
# Indices 1 2 3 4 5 6 
#
# 1 67.1989 22.1512 27.0750 0.0000 0.0000 0.0000
# 2 22.1512 67.1991 27.0751 0.0000 0.0000 0.0000
# 3 27.0750 27.0751 95.7467 0.0000 0.0000 0.0000
# 4 0.0000 0.0000 0.0000 11.4747 0.0000 0.0000
# 5 0.0000 0.0000 0.0000 0.0000 11.4749 0.0000
# 6 0.0000 0.0000 0.0000 0.0000 0.0000 20.5803
#
#
#
# Elastic Compliance Matrix: (Units=1/GPa)
#
#
# Indices 1 2 3 4 5 6 
#
# 1 0.017853 -0.004346 -0.003819 0.000000 0.000000 0.000000
# 2 -0.004346 0.017853 -0.003819 0.000000 0.000000 0.000000
# 3 -0.003819 -0.003819 0.012604 0.000000 0.000000 0.000000
# 4 0.000000 0.000000 0.000000 0.087148 0.000000 0.000000
# 5 0.000000 0.000000 0.000000 0.000000 0.087147 0.000000
# 6 0.000000 0.000000 0.000000 0.000000 0.000000 0.048590
#
#
# Mechanical properties :
#
#
# Convention : Reuss Voigt Hill
#
# Bulk Modulus (GPa) = 41.08458 42.52749 41.80603
# Shear Modulus (GPa) = 16.48656 18.96222 17.72439
#
# Velocity S-wave (km/s) = 3.07317 3.29584 3.18645
# Velocity P-wave (km/s) = 6.01064 6.23260 6.12263
#
# Compressibility (1/GPa) = 0.02434003
#
# Stress axis : x y z
#
# Youngs Moduli (GPa) = 56.01409 56.01424 79.33812
#
# Poissons Ratio (x) = 0.24344 0.30302
# Poissons Ratio (y) = 0.24344 0.30302
# Poissons Ratio (z) = 0.21394 0.21394
#
# Static dielectric constant tensor:
#      x y z
#    x 1.610850 0.000000 0.000000 
#    y 0.000000 1.610850 0.000000 
#    z 0.000000 0.000000 1.599990 
# 
# From -- ./inp_files/9598.got.cif
#   From: 2010.05.17/outbox.cif.g08.bks.cpg/sg119_5_cif.got.tgz:9598.got - 2010.05.20 11:21:29.
