data_PCOD9559363
_publ_section_title
;
Structure prediction by ZEFSAII (Michael W. Deem and Ramdas Pophale) SiO2 
 PCOD9559363
Probable space group: I -4 M 2
;
_chemical_formula_sum "Si O2"
_cell_formula_units_Z 96
_cell_length_a 23.784684
_cell_length_b 23.784684
_cell_length_c 9.017183
_cell_angle_alpha 90.000000
_cell_angle_beta 90.000000
_cell_angle_gamma 90.000000
_cell_volume 5101.121352
_symmetry_space_group_name_H-M "I -4 M 2"
_symmetry_group_IT_number 119
_symmetry_cell_setting 'tetragonal'
loop_
_space_group_symop_operation_xyz
x,y,z
y,-x,-z
-x,-y,z
-y,x,-z
y,x,-z
-y,-x,-z
-x,y,z
x,-y,z
1/2+x,1/2+y,1/2+z
1/2+y,1/2-x,1/2-z
1/2-x,1/2-y,1/2+z
1/2-y,1/2+x,1/2-z
1/2+y,1/2+x,1/2-z
1/2-y,1/2-x,1/2-z
1/2-x,1/2+y,1/2+z
1/2+x,1/2-y,1/2+z
loop_
_atom_site_type_symbol
_atom_site_label
_atom_site_fract_x
_atom_site_fract_y
_atom_site_fract_z
Si Si1 0.228521 0.143820 0.049372
Si Si2 0.566931 0.934666 0.580273
Si Si3 0.250475 0.062115 0.527121
Si Si4 0.356222 0.151190 0.074414
Si Si5 0.825563 0.934319 0.807512
Si Si6 0.830847 0.874736 0.351874
O O1 0.293789 0.142668 0.012439
O O2 0.212843 0.140580 0.222742
O O3 0.202768 0.202768 0.000000
O O4 0.194935 0.095289 0.959038
O O5 0.500000 0.930159 0.565624
O O6 0.581253 0.918748 0.750000
O O7 0.598932 0.894717 0.469843
O O8 0.581928 0.000000 0.558783
O O9 0.294457 0.110520 0.486179
O O10 0.227218 0.066980 0.693890
O O11 0.195239 0.069189 0.422937
O O12 0.275157 0.000000 0.505482
O O13 0.347882 0.152118 0.250000
O O14 0.870427 0.891836 0.728499
O O15 0.842280 0.000000 0.823970
O O16 0.835731 0.835731 0.500000
#
# Coordination Sequence:
#
# PCOD9559363 Si02
#       6
#    16  16  16  16  16  16
#     4  10  22  39  56  86 121 159 200 243 304 352
#     4   9  21  42  63  82 111 156 208 263 317 365
#     4  10  21  37  57  85 119 159 199 253 307 361
#     4  12  24  38  54  86 119 154 210 252 305 367
#     4   9  20  37  61  89 119 154 199 243 299 364
#     4   9  18  38  62  85 120 161 195 238 300 365
#
# _framework density 18.819391
#
# number of rings (size 3 to 8) (size 9 to 14) (size 15 to 20)
#    0.000    2.167    1.667    1.000    2.333    4.667 
#    0.000    0.833    0.000    0.500    0.000    3.500 
#    0.000    0.000    0.000    0.000    0.000    0.000 
#
# Total GULP energy -267329.627302 kJ/mol
# GULP energy per Si atom -5569.367235 kJ/mol
# Density = 1.877656 g / cm^3
# Si number density = 18.819391 Si / 1000 Ang^3
#
#
#
# Elastic Constant Matrix: (Units=GPa)
#
#
# Indices 1 2 3 4 5 6 
#
# 1 63.3613 19.4740 20.5107 0.0000 0.0000 0.0000
# 2 19.4740 63.3581 20.5101 0.0000 0.0000 0.0000
# 3 20.5107 20.5101 74.2450 0.0000 0.0000 0.0000
# 4 0.0000 0.0000 0.0000 15.9486 0.0000 0.0000
# 5 0.0000 0.0000 0.0000 0.0000 15.9482 0.0000
# 6 0.0000 0.0000 0.0000 0.0000 0.0000 26.8921
#
#
#
# Elastic Compliance Matrix: (Units=1/GPa)
#
#
# Indices 1 2 3 4 5 6 
#
# 1 0.018386 -0.004400 -0.003864 0.000000 0.000000 0.000000
# 2 -0.004400 0.018387 -0.003864 0.000000 0.000000 0.000000
# 3 -0.003864 -0.003864 0.015604 0.000000 0.000000 0.000000
# 4 0.000000 0.000000 0.000000 0.062701 0.000000 0.000000
# 5 0.000000 0.000000 0.000000 0.000000 0.062703 0.000000
# 6 0.000000 0.000000 0.000000 0.000000 0.000000 0.037186
#
#
# Mechanical properties :
#
#
# Convention : Reuss Voigt Hill
#
# Bulk Modulus (GPa) = 35.56109 35.77266 35.66687
# Shear Modulus (GPa) = 20.11307 21.12241 20.61774
#
# Velocity S-wave (km/s) = 3.27271 3.35382 3.31351
# Velocity P-wave (km/s) = 5.76349 5.83499 5.79935
#
# Compressibility (1/GPa) = 0.02812063
#
# Stress axis : x y z
#
# Youngs Moduli (GPa) = 54.39025 54.38760 64.08783
#
# Poissons Ratio (x) = 0.23933 0.24761
# Poissons Ratio (y) = 0.23934 0.24761
# Poissons Ratio (z) = 0.21014 0.21013
#
# Static dielectric constant tensor:
#      x y z
#    x 1.659420 0.000000 0.000000 
#    y 0.000000 1.659420 0.000000 
#    z 0.000000 0.000000 1.694620 
# 
# From -- ./inp_files/2704.got.cif
#   From: 2010.05.17/outbox.cif.g08.bks.cpg/sg119_2_cif.got.tgz:2704.got - 2010.05.20 11:21:29.
