data_PCOD9559747
_publ_section_title
;
Structure prediction by ZEFSAII (Michael W. Deem and Ramdas Pophale) SiO2 
 PCOD9559747
Probable space group: I -4 C 2
;
_chemical_formula_sum "Si O2"
_cell_formula_units_Z 96
_cell_length_a 23.661165
_cell_length_b 23.661165
_cell_length_c 8.310987
_cell_angle_alpha 90.000000
_cell_angle_beta 90.000000
_cell_angle_gamma 90.000000
_cell_volume 4652.912132
_symmetry_space_group_name_H-M "I -4 C 2"
_symmetry_group_IT_number 120
_symmetry_cell_setting 'tetragonal'
loop_
_space_group_symop_operation_xyz
x,y,z
y,-x,-z
-x,-y,z
-y,x,-z
y,x,1/2-z
-y,-x,1/2-z
-x,y,1/2+z
x,-y,1/2+z
1/2+x,1/2+y,1/2+z
1/2+y,1/2-x,1/2-z
1/2-x,1/2-y,1/2+z
1/2-y,1/2+x,1/2-z
1/2+y,1/2+x,-z
1/2-y,1/2-x,-z
1/2-x,1/2+y,z
1/2+x,1/2-y,z
loop_
_atom_site_type_symbol
_atom_site_label
_atom_site_fract_x
_atom_site_fract_y
_atom_site_fract_z
Si Si1 0.172430 0.278493 0.832624
Si Si2 0.356022 0.928840 0.273978
Si Si3 0.068124 0.939455 0.944394
Si Si4 0.334266 0.647392 0.505424
Si Si5 0.253891 0.637912 0.196479
Si Si6 0.553473 0.153978 0.345212
O O1 0.115540 0.311443 0.793073
O O2 0.218031 0.303422 0.705160
O O3 0.198714 0.301287 0.000000
O O4 0.155682 0.213807 0.861080
O O5 0.416835 0.899008 0.257382
O O6 0.348466 0.936451 0.464473
O O7 0.347507 0.988041 0.190271
O O8 0.067911 0.932090 0.750000
O O9 0.117256 0.899852 0.019273
O O10 0.005608 0.923591 0.010702
O O11 0.296741 0.633522 0.346017
O O12 0.362366 0.707833 0.462387
O O13 0.209527 0.587350 0.209497
#
# Coordination Sequence:
#
# PCOD9559747 Si02
#       6
#    16  16  16  16  16  16
#     4   9  20  39  63  91 127 174 208 256 328 380
#     4  10  23  41  62  93 126 171 213 265 321 371
#     4  11  23  44  70  90 127 166 210 270 329 376
#     4  10  20  41  66  94 123 169 212 256 313 386
#     4   9  19  41  61  88 131 166 201 264 317 372
#     4  10  23  41  63  91 128 168 215 265 318 377
#
# _framework density 20.632239999999999
#
# number of rings (size 3 to 8) (size 9 to 14) (size 15 to 20)
#    0.000    2.167    1.667    1.000    7.000    1.667 
#   33.000    3.333    0.000    0.000    0.000    0.000 
#    0.000    0.000    0.000    0.000    0.000    0.000 
#
# Total GULP energy -268064.530265 kJ/mol
# GULP energy per Si atom -5584.677714 kJ/mol
# Density = 2.058528 g / cm^3
# Si number density = 20.632240 Si / 1000 Ang^3
#
#
#
# Elastic Constant Matrix: (Units=GPa)
#
#
# Indices 1 2 3 4 5 6 
#
# 1 159.2315 93.2113 21.7121 0.0000 0.0000 0.0000
# 2 93.2113 159.2330 21.7131 0.0000 0.0000 0.0000
# 3 21.7121 21.7131 45.8902 0.0000 0.0000 0.0000
# 4 0.0000 0.0000 0.0000 34.4745 0.0000 0.0000
# 5 0.0000 0.0000 0.0000 0.0000 34.4749 0.0000
# 6 0.0000 0.0000 0.0000 0.0000 0.0000 36.8838
#
#
#
# Elastic Compliance Matrix: (Units=1/GPa)
#
#
# Indices 1 2 3 4 5 6 
#
# 1 0.009730 -0.005417 -0.002040 0.000000 0.000000 0.000000
# 2 -0.005417 0.009729 -0.002040 0.000000 0.000000 0.000000
# 3 -0.002040 -0.002040 0.023722 0.000000 0.000000 0.000000
# 4 0.000000 0.000000 0.000000 0.029007 0.000000 0.000000
# 5 0.000000 0.000000 0.000000 0.000000 0.029007 0.000000
# 6 0.000000 0.000000 0.000000 0.000000 0.000000 0.027112
#
#
# Mechanical properties :
#
#
# Convention : Reuss Voigt Hill
#
# Bulk Modulus (GPa) = 41.34772 70.84753 56.09763
# Shear Modulus (GPa) = 32.18248 36.34784 34.26516
#
# Velocity S-wave (km/s) = 3.95373 4.20182 4.07966
# Velocity P-wave (km/s) = 6.39739 7.61270 7.03135
#
# Compressibility (1/GPa) = 0.02418513
#
# Stress axis : x y z
#
# Youngs Moduli (GPa) = 102.78011 102.78050 42.15519
#
# Poissons Ratio (x) = 0.55679 0.08600
# Poissons Ratio (y) = 0.55678 0.08602
# Poissons Ratio (z) = 0.20969 0.20972
#
# Static dielectric constant tensor:
#      x y z
#    x 1.728020 0.000000 0.000000 
#    y 0.000000 1.728020 0.000000 
#    z 0.000000 0.000000 1.791610 
# 
# From -- ./inp_files/1534.got.cif
#   From: 2010.05.17/outbox.cif.g08.bks.cpg/sg120_1_cif.got.tgz:1534.got - 2010.05.20 11:28:13.
