data_PCOD9559494
_publ_section_title
;
Structure prediction by ZEFSAII (Michael W. Deem and Ramdas Pophale) SiO2 
 PCOD9559494
Probable space group: I -4 M 2
;
_chemical_formula_sum "Si O2"
_cell_formula_units_Z 96
_cell_length_a 15.465533
_cell_length_b 15.465533
_cell_length_c 19.845837
_cell_angle_alpha 90.000000
_cell_angle_beta 90.000000
_cell_angle_gamma 90.000000
_cell_volume 4746.781095
_symmetry_space_group_name_H-M "I -4 M 2"
_symmetry_group_IT_number 119
_symmetry_cell_setting 'tetragonal'
loop_
_space_group_symop_operation_xyz
x,y,z
y,-x,-z
-x,-y,z
-y,x,-z
y,x,-z
-y,-x,-z
-x,y,z
x,-y,z
1/2+x,1/2+y,1/2+z
1/2+y,1/2-x,1/2-z
1/2-x,1/2-y,1/2+z
1/2-y,1/2+x,1/2-z
1/2+y,1/2+x,1/2-z
1/2-y,1/2-x,1/2-z
1/2-x,1/2+y,1/2+z
1/2+x,1/2-y,1/2+z
loop_
_atom_site_type_symbol
_atom_site_label
_atom_site_fract_x
_atom_site_fract_y
_atom_site_fract_z
Si Si1 0.403970 0.754690 0.427685
Si Si2 0.599395 0.352223 0.201528
Si Si3 0.267947 0.904609 0.777687
Si Si4 0.353114 0.903463 0.323708
Si Si5 0.348683 0.226842 0.575406
Si Si6 0.901039 0.814278 0.435250
O O1 0.500000 0.718745 0.415898
O O2 0.386979 0.831375 0.374695
O O3 0.324536 0.688688 0.421677
O O4 0.396447 0.786902 0.504795
O O5 0.500000 0.370912 0.219725
O O6 0.670207 0.380600 0.256206
O O7 0.607851 0.249462 0.188426
O O8 0.625938 0.395481 0.130857
O O9 0.331178 0.831178 0.750000
O O10 0.281788 0.903428 0.857453
O O11 0.287190 0.000000 0.749708
O O12 0.394359 0.894359 0.250000
O O13 0.368430 0.000000 0.350408
O O14 0.267443 0.161423 0.576902
O O15 0.864841 0.864841 0.500000
O O16 0.000000 0.787726 0.446603
#
# Coordination Sequence:
#
# PCOD9559494 Si02
#       6
#    16  16  16  16  16  16
#     4  11  22  40  66  92 124 171 216 263 326 391
#     4  11  23  41  66  97 133 171 214 269 333 399
#     4  12  25  43  67  94 128 172 223 276 326 378
#     4  11  22  38  62  96 135 173 214 264 326 400
#     4  11  23  44  65  92 127 168 221 270 323 384
#     4  12  23  40  66  95 130 169 209 263 331 403
#
# _framework density 20.224232000000001
#
# number of rings (size 3 to 8) (size 9 to 14) (size 15 to 20)
#    0.000    0.667    5.000    3.500    0.000    7.500 
#    0.000    0.000    0.000   11.000    0.000    0.000 
#    0.000    0.000    0.000    0.000    0.000    0.000 
#
# Total GULP energy -268406.246627 kJ/mol
# GULP energy per Si atom -5591.796805 kJ/mol
# Density = 2.017820 g / cm^3
# Si number density = 20.224232 Si / 1000 Ang^3
#
#
#
# Elastic Constant Matrix: (Units=GPa)
#
#
# Indices 1 2 3 4 5 6 
#
# 1 111.7040 51.5917 18.9578 0.0000 0.0000 0.0000
# 2 51.5917 111.7040 18.9578 0.0000 0.0000 0.0000
# 3 18.9578 18.9578 109.4455 0.0000 0.0000 0.0000
# 4 0.0000 0.0000 0.0000 4.1315 0.0000 0.0000
# 5 0.0000 0.0000 0.0000 0.0000 4.1315 0.0000
# 6 0.0000 0.0000 0.0000 0.0000 0.0000 3.8379
#
#
#
# Elastic Compliance Matrix: (Units=1/GPa)
#
#
# Indices 1 2 3 4 5 6 
#
# 1 0.011508 -0.005128 -0.001105 0.000000 0.000000 0.000000
# 2 -0.005128 0.011508 -0.001105 0.000000 0.000000 0.000000
# 3 -0.001105 -0.001105 0.009520 0.000000 0.000000 0.000000
# 4 0.000000 0.000000 0.000000 0.242041 0.000000 0.000000
# 5 0.000000 0.000000 0.000000 0.000000 0.242041 0.000000
# 6 0.000000 0.000000 0.000000 0.000000 0.000000 0.260560
#
#
# Mechanical properties :
#
#
# Convention : Reuss Voigt Hill
#
# Bulk Modulus (GPa) = 55.99112 56.87424 56.43268
# Shear Modulus (GPa) = 6.26718 18.64326 12.45522
#
# Velocity S-wave (km/s) = 1.76226 3.03946 2.48434
# Velocity P-wave (km/s) = 5.64677 6.36401 6.01609
#
# Compressibility (1/GPa) = 0.01785998
#
# Stress axis : x y z
#
# Youngs Moduli (GPa) = 86.89596 86.89596 105.04370
#
# Poissons Ratio (x) = 0.44556 0.11610
# Poissons Ratio (y) = 0.44556 0.11610
# Poissons Ratio (z) = 0.09604 0.09604
#
# Static dielectric constant tensor:
#      x y z
#    x 1.707580 0.000000 0.000000 
#    y 0.000000 1.707580 0.000000 
#    z 0.000000 0.000000 1.719940 
# 
# From -- ./inp_files/7755.got.cif
#   From: 2010.05.17/outbox.cif.g08.bks.cpg/sg119_4_cif.got.tgz:7755.got - 2010.05.20 11:21:29.
