data_PCOD9559811
_publ_section_title
;
Structure prediction by ZEFSAII (Michael W. Deem and Ramdas Pophale) SiO2 
 PCOD9559811
Probable space group: I -4 C 2
;
_chemical_formula_sum "Si O2"
_cell_formula_units_Z 60
_cell_length_a 10.922976
_cell_length_b 10.922976
_cell_length_c 19.548746
_cell_angle_alpha 90.000000
_cell_angle_beta 90.000000
_cell_angle_gamma 90.000000
_cell_volume 2332.388345
_symmetry_space_group_name_H-M "I -4 C 2"
_symmetry_group_IT_number 120
_symmetry_cell_setting 'tetragonal'
loop_
_space_group_symop_operation_xyz
x,y,z
y,-x,-z
-x,-y,z
-y,x,-z
y,x,1/2-z
-y,-x,1/2-z
-x,y,1/2+z
x,-y,1/2+z
1/2+x,1/2+y,1/2+z
1/2+y,1/2-x,1/2-z
1/2-x,1/2-y,1/2+z
1/2-y,1/2+x,1/2-z
1/2+y,1/2+x,-z
1/2-y,1/2-x,-z
1/2-x,1/2+y,z
1/2+x,1/2-y,z
loop_
_atom_site_type_symbol
_atom_site_label
_atom_site_fract_x
_atom_site_fract_y
_atom_site_fract_z
Si Si1 0.111090 0.111090 0.750000
Si Si2 0.609584 0.862113 0.922307
Si Si3 0.500000 0.500000 0.000000
Si Si4 0.872225 0.800474 0.903757
Si Si5 0.676082 0.992333 0.288823
O O1 0.132236 0.166242 0.824560
O O2 0.985555 0.180974 0.728004
O O3 0.729794 0.772678 0.920402
O O4 0.482075 0.795799 0.908111
O O5 0.642305 0.967627 0.866400
O O6 0.597061 0.902940 0.000000
O O7 0.413740 0.415730 0.048152
O O8 0.620426 0.105305 0.244278
#
# Coordination Sequence:
#
# PCOD9559811 Si02
#       5
#     8  16   4  16  16
#     4  10  22  45  70 103 140 198 256 312 386 467
#     4  11  23  47  74 110 151 201 260 329 404 476
#     4  12  24  46  72 104 168 190 264 336 400 502
#     4  11  24  47  74 111 151 206 262 328 404 481
#     4  10  21  43  67  98 145 186 249 317 389 464
#
# _framework density 25.724703000000002
#
# number of rings (size 3 to 8) (size 9 to 14) (size 15 to 20)
#    0.000    1.333    5.333    0.000    0.000    0.533 
#   28.800    2.667    0.000    0.000    0.000    0.000 
#    0.000    0.000    0.000    0.000    0.000    0.000 
#
# Total GULP energy -167081.969781 kJ/mol
# GULP energy per Si atom -5569.398993 kJ/mol
# Density = 2.566615 g / cm^3
# Si number density = 25.724703 Si / 1000 Ang^3
#
#
#
# Elastic Constant Matrix: (Units=GPa)
#
#
# Indices 1 2 3 4 5 6 
#
# 1 97.6666 119.2037 51.9127 0.0000 0.0000 0.0000
# 2 119.2037 97.6669 51.9129 0.0000 0.0000 0.0000
# 3 51.9127 51.9129 240.9252 0.0000 0.0000 0.0000
# 4 0.0000 0.0000 0.0000 59.3892 0.0000 0.0000
# 5 0.0000 0.0000 0.0000 0.0000 59.3887 0.0000
# 6 0.0000 0.0000 0.0000 0.0000 0.0000 105.3742
#
#
#
# Elastic Compliance Matrix: (Units=1/GPa)
#
#
# Indices 1 2 3 4 5 6 
#
# 1 -0.020645 0.025787 -0.001108 0.000000 0.000000 0.000000
# 2 0.025787 -0.020645 -0.001108 0.000000 0.000000 0.000000
# 3 -0.001108 -0.001108 0.004628 0.000000 0.000000 0.000000
# 4 0.000000 0.000000 0.000000 0.016838 0.000000 0.000000
# 5 0.000000 0.000000 0.000000 0.000000 0.016838 0.000000
# 6 0.000000 0.000000 0.000000 0.000000 0.000000 0.009490
#
#
# Mechanical properties :
#
#
# Convention : Reuss Voigt Hill
#
# Bulk Modulus (GPa) = 95.42371 98.03528 96.72950
# Shear Modulus (GPa) = -134.60911 59.04572 -37.78170
#
# Velocity S-wave (km/s) = -7.24157 4.79612 -3.83651
# Velocity P-wave (km/s) = 5.72239 8.29834 4.24951
#
# Compressibility (1/GPa) = 0.01047958
#
# Stress axis : x y z
#
# Youngs Moduli (GPa) = -48.43741 -48.43758 216.07223
#
# Poissons Ratio (x) = 1.24904 0.23937
# Poissons Ratio (y) = 1.24904 0.23937
# Poissons Ratio (z) = -0.05366 -0.05366
#
# Static dielectric constant tensor:
#      x y z
#    x 2.148870 0.000000 0.000000 
#    y 0.000000 2.148870 0.000000 
#    z 0.000000 0.000000 1.954650 
# 
# From -- ./inp_files/5044.got.cif
#   From: 2010.05.17/outbox.cif.g08.bks.cpg/sg120_3_cif.got.tgz:5044.got - 2010.05.20 11:28:13.
