data_PCOD9559067
_publ_section_title
;
Structure prediction by ZEFSAII (Michael W. Deem and Ramdas Pophale) SiO2 
 PCOD9559067
Probable space group: I -4 M 2
;
_chemical_formula_sum "Si O2"
_cell_formula_units_Z 96
_cell_length_a 20.277502
_cell_length_b 20.277502
_cell_length_c 13.785369
_cell_angle_alpha 90.000000
_cell_angle_beta 90.000000
_cell_angle_gamma 90.000000
_cell_volume 5668.227874
_symmetry_space_group_name_H-M "I -4 M 2"
_symmetry_group_IT_number 119
_symmetry_cell_setting 'tetragonal'
loop_
_space_group_symop_operation_xyz
x,y,z
y,-x,-z
-x,-y,z
-y,x,-z
y,x,-z
-y,-x,-z
-x,y,z
x,-y,z
1/2+x,1/2+y,1/2+z
1/2+y,1/2-x,1/2-z
1/2-x,1/2-y,1/2+z
1/2-y,1/2+x,1/2-z
1/2+y,1/2+x,1/2-z
1/2-y,1/2-x,1/2-z
1/2-x,1/2+y,1/2+z
1/2+x,1/2-y,1/2+z
loop_
_atom_site_type_symbol
_atom_site_label
_atom_site_fract_x
_atom_site_fract_y
_atom_site_fract_z
Si Si1 0.074268 0.200079 0.929713
Si Si2 0.075206 0.715133 0.118870
Si Si3 0.076631 0.076270 0.195309
Si Si4 0.793979 0.666851 0.059858
Si Si5 0.796582 0.077057 0.684679
Si Si6 0.772282 0.297911 0.638547
O O1 0.080873 0.124330 0.897403
O O2 0.132212 0.237456 0.874815
O O3 0.000000 0.219717 0.900193
O O4 0.081448 0.225370 0.039959
O O5 0.130548 0.660648 0.095544
O O6 0.084546 0.747902 0.223326
O O7 0.000000 0.690483 0.111672
O O8 0.096848 0.130902 0.275416
O O9 0.000000 0.090022 0.170238
O O10 0.080591 0.000000 0.229920
O O11 0.738322 0.618745 0.100941
O O12 0.775270 0.738545 0.104697
O O13 0.793979 0.670942 0.943379
O O14 0.800208 0.000000 0.658505
O O15 0.789819 0.289819 0.750000
#
# Coordination Sequence:
#
# PCOD9559067 Si02
#       6
#    16  16  16  16  16  16
#     4   9  17  29  44  67  99 130 161 201 250 297
#     4   9  17  28  45  69  95 124 158 200 250 302
#     4   9  17  28  43  66 100 142 180 212 248 292
#     4  10  19  31  50  70  93 124 157 198 244 291
#     4  10  19  31  47  68  95 128 169 210 246 288
#     4  10  19  31  49  72  95 120 157 197 239 288
#
# _framework density 16.936510999999999
#
# number of rings (size 3 to 8) (size 9 to 14) (size 15 to 20)
#    0.000    2.500    0.000    3.500    0.000    2.000 
#    0.000    3.333    0.000   11.500    0.000    2.333 
#    0.000    7.000    0.000    0.167    0.000    0.500 
#
# Total GULP energy -267396.473113 kJ/mol
# GULP energy per Si atom -5570.759857 kJ/mol
# Density = 1.689796 g / cm^3
# Si number density = 16.936511 Si / 1000 Ang^3
#
#
#
# Elastic Constant Matrix: (Units=GPa)
#
#
# Indices 1 2 3 4 5 6 
#
# 1 58.9116 28.5957 37.0473 0.0000 0.0000 0.0000
# 2 28.5957 58.9116 37.0473 0.0000 0.0000 0.0000
# 3 37.0473 37.0473 102.6054 0.0000 0.0000 0.0000
# 4 0.0000 0.0000 0.0000 20.6925 0.0000 0.0000
# 5 0.0000 0.0000 0.0000 0.0000 20.6925 0.0000
# 6 0.0000 0.0000 0.0000 0.0000 0.0000 22.1053
#
#
#
# Elastic Compliance Matrix: (Units=1/GPa)
#
#
# Indices 1 2 3 4 5 6 
#
# 1 0.024723 -0.008263 -0.005943 0.000000 0.000000 0.000000
# 2 -0.008263 0.024723 -0.005943 0.000000 0.000000 0.000000
# 3 -0.005943 -0.005943 0.014038 0.000000 0.000000 0.000000
# 4 0.000000 0.000000 0.000000 0.048327 0.000000 0.000000
# 5 0.000000 0.000000 0.000000 0.000000 0.048327 0.000000
# 6 0.000000 0.000000 0.000000 0.000000 0.000000 0.045238
#
#
# Mechanical properties :
#
#
# Convention : Reuss Voigt Hill
#
# Bulk Modulus (GPa) = 43.13131 47.31215 45.22173
# Shear Modulus (GPa) = 19.73154 20.54730 20.13942
#
# Velocity S-wave (km/s) = 3.41696 3.48687 3.45209
# Velocity P-wave (km/s) = 6.41009 6.64881 6.53054
#
# Compressibility (1/GPa) = 0.02318502
#
# Stress axis : x y z
#
# Youngs Moduli (GPa) = 40.44842 40.44842 71.23657
#
# Poissons Ratio (x) = 0.33423 0.42336
# Poissons Ratio (y) = 0.33423 0.42336
# Poissons Ratio (z) = 0.24039 0.24039
#
# Static dielectric constant tensor:
#      x y z
#    x 1.602940 0.000000 0.000000 
#    y 0.000000 1.602940 0.000000 
#    z 0.000000 0.000000 1.581520 
# 
# From -- ./inp_files/5544.got.cif
#   From: 2010.05.17/outbox.cif.g08.bks.cpg/sg119_3_cif.got.tgz:5544.got - 2010.05.20 11:21:29.
