data_PCOD9559918
_publ_section_title
;
Structure prediction by ZEFSAII (Michael W. Deem and Ramdas Pophale) SiO2 
 PCOD9559918
Probable space group: I -4 C 2
;
_chemical_formula_sum "Si O2"
_cell_formula_units_Z 44
_cell_length_a 15.019225
_cell_length_b 15.019225
_cell_length_c 10.084539
_cell_angle_alpha 90.000000
_cell_angle_beta 90.000000
_cell_angle_gamma 90.000000
_cell_volume 2274.841260
_symmetry_space_group_name_H-M "I -4 C 2"
_symmetry_group_IT_number 120
_symmetry_cell_setting 'tetragonal'
loop_
_space_group_symop_operation_xyz
x,y,z
y,-x,-z
-x,-y,z
-y,x,-z
y,x,1/2-z
-y,-x,1/2-z
-x,y,1/2+z
x,-y,1/2+z
1/2+x,1/2+y,1/2+z
1/2+y,1/2-x,1/2-z
1/2-x,1/2-y,1/2+z
1/2-y,1/2+x,1/2-z
1/2+y,1/2+x,-z
1/2-y,1/2-x,-z
1/2-x,1/2+y,z
1/2+x,1/2-y,z
loop_
_atom_site_type_symbol
_atom_site_label
_atom_site_fract_x
_atom_site_fract_y
_atom_site_fract_z
Si Si1 0.716484 0.924011 0.972397
Si Si2 0.000000 0.500000 0.250000
Si Si3 0.232865 0.267136 0.000000
Si Si4 0.575096 0.182446 0.830722
O O1 0.720330 0.940111 0.816011
O O2 0.618125 0.881876 0.000000
O O3 0.777758 0.839616 0.011318
O O4 0.726861 0.009616 0.062776
O O5 0.922685 0.552795 0.172460
O O6 0.198589 0.324110 0.123861
#
# Coordination Sequence:
#
# PCOD9559918 Si02
#       4
#    16   4   8  16
#     4  10  24  39  56  95 127 172 216 251 332 383
#     4  12  20  34  56 106 120 166 208 250 356 382
#     4  10  24  39  62  91 132 178 214 262 326 396
#     4  12  22  37  63  87 139 162 209 277 310 411
#
# _framework density 19.342009000000001
#
# number of rings (size 3 to 8) (size 9 to 14) (size 15 to 20)
#    1.091    0.000    3.636    3.273    0.000    1.455 
#    0.000    0.000    0.000    1.091    0.000   10.182 
#    0.000    0.000    0.000    0.000    0.000    0.000 
#
# Total GULP energy -122723.893015 kJ/mol
# GULP energy per Si atom -5578.358773 kJ/mol
# Density = 1.929799 g / cm^3
# Si number density = 19.342009 Si / 1000 Ang^3
#
#
#
# Elastic Constant Matrix: (Units=GPa)
#
#
# Indices 1 2 3 4 5 6 
#
# 1 82.9499 53.9031 49.6535 0.0000 0.0000 0.0000
# 2 53.9031 82.9460 49.6530 0.0000 0.0000 0.0000
# 3 49.6535 49.6530 170.7641 0.0000 0.0000 0.0000
# 4 0.0000 0.0000 0.0000 31.8681 0.0000 0.0000
# 5 0.0000 0.0000 0.0000 0.0000 31.8684 0.0000
# 6 0.0000 0.0000 0.0000 0.0000 0.0000 34.1313
#
#
#
# Elastic Compliance Matrix: (Units=1/GPa)
#
#
# Indices 1 2 3 4 5 6 
#
# 1 0.021845 -0.012584 -0.002693 0.000000 0.000000 0.000000
# 2 -0.012584 0.021846 -0.002693 0.000000 0.000000 0.000000
# 3 -0.002693 -0.002693 0.007422 0.000000 0.000000 0.000000
# 4 0.000000 0.000000 0.000000 0.031379 0.000000 0.000000
# 5 0.000000 0.000000 0.000000 0.000000 0.031379 0.000000
# 6 0.000000 0.000000 0.000000 0.000000 0.000000 0.029299
#
#
# Mechanical properties :
#
#
# Convention : Reuss Voigt Hill
#
# Bulk Modulus (GPa) = 65.90628 71.45324 68.67976
# Shear Modulus (GPa) = 27.14924 31.80362 29.47643
#
# Velocity S-wave (km/s) = 3.75058 4.05937 3.90803
# Velocity P-wave (km/s) = 7.27351 7.68072 7.47989
#
# Compressibility (1/GPa) = 0.01517306
#
# Stress axis : x y z
#
# Youngs Moduli (GPa) = 45.77748 45.77505 134.73302
#
# Poissons Ratio (x) = 0.57603 0.36281
# Poissons Ratio (y) = 0.57607 0.36284
# Poissons Ratio (z) = 0.12327 0.12327
#
# Static dielectric constant tensor:
#      x y z
#    x 1.697930 0.000000 0.000000 
#    y 0.000000 1.697940 0.000000 
#    z 0.000000 0.000000 1.744340 
# 
# From -- ./inp_files/2048.got.cif
#   From: 2010.05.17/outbox.cif.g08.bks.cpg/sg120_2_cif.got.tgz:2048.got - 2010.05.20 11:28:13.
