data_PCOD9559722
_publ_section_title
;
Structure prediction by ZEFSAII (Michael W. Deem and Ramdas Pophale) SiO2 
 PCOD9559722
Probable space group: I -4 C 2
;
_chemical_formula_sum "Si O2"
_cell_formula_units_Z 116
_cell_length_a 18.121907
_cell_length_b 18.121907
_cell_length_c 18.229894
_cell_angle_alpha 90.000000
_cell_angle_beta 90.000000
_cell_angle_gamma 90.000000
_cell_volume 5986.761237
_symmetry_space_group_name_H-M "I -4 C 2"
_symmetry_group_IT_number 120
_symmetry_cell_setting 'tetragonal'
loop_
_space_group_symop_operation_xyz
x,y,z
y,-x,-z
-x,-y,z
-y,x,-z
y,x,1/2-z
-y,-x,1/2-z
-x,y,1/2+z
x,-y,1/2+z
1/2+x,1/2+y,1/2+z
1/2+y,1/2-x,1/2-z
1/2-x,1/2-y,1/2+z
1/2-y,1/2+x,1/2-z
1/2+y,1/2+x,-z
1/2-y,1/2-x,-z
1/2-x,1/2+y,z
1/2+x,1/2-y,z
loop_
_atom_site_type_symbol
_atom_site_label
_atom_site_fract_x
_atom_site_fract_y
_atom_site_fract_z
Si Si1 0.115653 0.154561 0.051193
Si Si2 0.500000 0.000000 0.750000
Si Si3 0.933788 0.294511 0.803962
Si Si4 0.616013 0.772088 0.969178
Si Si5 0.437592 0.850863 0.719187
Si Si6 0.130469 0.047565 0.191124
Si Si7 0.565977 0.562377 0.092170
Si Si8 0.729922 0.514698 0.400103
O O1 0.199763 0.168091 0.029000
O O2 0.123243 0.097720 0.118631
O O3 0.072050 0.223855 0.083600
O O4 0.073031 0.113629 0.983194
O O5 0.476681 0.929514 0.701547
O O6 0.913381 0.288364 0.888697
O O7 0.873980 0.352267 0.771328
O O8 0.935600 0.210611 0.774783
O O9 0.015923 0.325170 0.789819
O O10 0.658872 0.841129 0.000000
O O11 0.550460 0.751638 0.023013
O O12 0.455035 0.787771 0.659361
O O13 0.069455 0.069455 0.250000
O O14 0.117994 0.966989 0.157636
O O15 0.500000 0.500000 0.086045
O O16 0.537045 0.643955 0.112955
#
# Coordination Sequence:
#
# PCOD9559722 Si02
#       8
#    16   4  16  16  16  16  16  16
#     4  10  21  35  61  89 124 175 207 247 315 386
#     4   8  20  40  72  82 112 168 212 270 320 400
#     4  10  21  39  63  90 117 164 205 264 317 388
#     4  10  20  38  64  92 128 160 207 261 323 374
#     4  10  20  40  66  90 117 159 221 253 335 380
#     4  11  23  38  57  88 130 165 212 258 313 372
#     4  11  22  36  59  89 127 174 217 247 307 380
#     4  11  21  35  65  93 124 168 212 267 302 385
#
# _framework density 19.376085
#
# number of rings (size 3 to 8) (size 9 to 14) (size 15 to 20)
#    0.000    1.655    2.759    3.310    1.931    0.276 
#    0.000    1.379   33.379    4.966    0.000    0.000 
#    0.000    0.000    0.000    0.000    0.000    0.000 
#
# Total GULP energy -323168.189146 kJ/mol
# GULP energy per Si atom -5571.865330 kJ/mol
# Density = 1.933198 g / cm^3
# Si number density = 19.376085 Si / 1000 Ang^3
#
#
#
# Elastic Constant Matrix: (Units=GPa)
#
#
# Indices 1 2 3 4 5 6 
#
# 1 93.2458 29.2815 28.5731 0.0000 0.0000 0.0000
# 2 29.2815 93.2423 28.5720 0.0000 0.0000 0.0000
# 3 28.5731 28.5720 61.5787 0.0000 0.0000 0.0000
# 4 0.0000 0.0000 0.0000 27.0410 0.0000 0.0000
# 5 0.0000 0.0000 0.0000 0.0000 27.0416 0.0000
# 6 0.0000 0.0000 0.0000 0.0000 0.0000 20.5692
#
#
#
# Elastic Compliance Matrix: (Units=1/GPa)
#
#
# Indices 1 2 3 4 5 6 
#
# 1 0.013025 -0.002609 -0.004833 0.000000 0.000000 0.000000
# 2 -0.002609 0.013025 -0.004833 0.000000 0.000000 0.000000
# 3 -0.004833 -0.004833 0.020724 0.000000 0.000000 0.000000
# 4 0.000000 0.000000 0.000000 0.036981 0.000000 0.000000
# 5 0.000000 0.000000 0.000000 0.000000 0.036980 0.000000
# 6 0.000000 0.000000 0.000000 0.000000 0.000000 0.048616
#
#
# Mechanical properties :
#
#
# Convention : Reuss Voigt Hill
#
# Bulk Modulus (GPa) = 44.99627 46.76890 45.88259
# Shear Modulus (GPa) = 24.83742 25.70638 25.27190
#
# Velocity S-wave (km/s) = 3.58419 3.64635 3.61540
# Velocity P-wave (km/s) = 6.35622 6.47438 6.41558
#
# Compressibility (1/GPa) = 0.02222406
#
# Stress axis : x y z
#
# Youngs Moduli (GPa) = 76.77750 76.77504 48.25257
#
# Poissons Ratio (x) = 0.20033 0.23320
# Poissons Ratio (y) = 0.20033 0.23320
# Poissons Ratio (z) = 0.37106 0.37104
#
# Static dielectric constant tensor:
#      x y z
#    x 1.725430 0.000000 0.000000 
#    y 0.000000 1.725430 0.000000 
#    z 0.000000 0.000000 1.686170 
# 
# From -- ./inp_files/4576.got.cif
#   From: 2010.05.17/outbox.cif.g08.bks.cpg/sg120_3_cif.got.tgz:4576.got - 2010.05.20 11:28:13.
