data_PCOD9559522
_publ_section_title
;
Structure prediction by ZEFSAII (Michael W. Deem and Ramdas Pophale) SiO2 
 PCOD9559522
Probable space group: I -4 M 2
;
_chemical_formula_sum "Si O2"
_cell_formula_units_Z 40
_cell_length_a 11.201508
_cell_length_b 11.201508
_cell_length_c 15.500964
_cell_angle_alpha 90.000000
_cell_angle_beta 90.000000
_cell_angle_gamma 90.000000
_cell_volume 1944.964570
_symmetry_space_group_name_H-M "I -4 M 2"
_symmetry_group_IT_number 119
_symmetry_cell_setting 'tetragonal'
loop_
_space_group_symop_operation_xyz
x,y,z
y,-x,-z
-x,-y,z
-y,x,-z
y,x,-z
-y,-x,-z
-x,y,z
x,-y,z
1/2+x,1/2+y,1/2+z
1/2+y,1/2-x,1/2-z
1/2-x,1/2-y,1/2+z
1/2-y,1/2+x,1/2-z
1/2+y,1/2+x,1/2-z
1/2-y,1/2-x,1/2-z
1/2-x,1/2+y,1/2+z
1/2+x,1/2-y,1/2+z
loop_
_atom_site_type_symbol
_atom_site_label
_atom_site_fract_x
_atom_site_fract_y
_atom_site_fract_z
Si Si1 0.212826 0.758798 0.898647
Si Si2 0.644252 0.000000 0.339969
Si Si3 0.135186 0.000000 0.201988
Si Si4 0.360635 0.139366 0.750000
O O1 0.171824 0.622939 0.886869
O O2 0.323518 0.783954 0.834098
O O3 0.114380 0.846544 0.858259
O O4 0.224958 0.775043 0.000000
O O5 0.746149 0.000000 0.263686
O O6 0.500000 0.000000 0.328489
O O7 0.000000 0.000000 0.240111
O O8 0.500000 0.157725 0.730622
#
# Coordination Sequence:
#
# PCOD9559522 Si02
#       4
#    16   8   8   8
#     4  12  28  45  72 106 142 187 245 301 369 437
#     4  12  26  50  78 107 146 198 247 310 373 458
#     4  12  26  44  74 103 148 186 243 302 363 430
#     4  11  26  48  71  98 142 190 237 300 374 437
#
# _framework density 20.565926999999999
#
# number of rings (size 3 to 8) (size 9 to 14) (size 15 to 20)
#    0.000    0.200    6.000    1.200   11.200    0.000 
#    0.000    0.000    0.000    0.000    0.000    0.000 
#    0.000    0.000    0.000    0.000    0.000    0.000 
#
# Total GULP energy -111585.095365 kJ/mol
# GULP energy per Si atom -5579.254768 kJ/mol
# Density = 2.051912 g / cm^3
# Si number density = 20.565927 Si / 1000 Ang^3
#
#
#
# Elastic Constant Matrix: (Units=GPa)
#
#
# Indices 1 2 3 4 5 6 
#
# 1 139.8515 48.2142 52.0022 0.0000 0.0000 0.0000
# 2 48.2142 139.8498 52.0013 0.0000 0.0000 0.0000
# 3 52.0022 52.0013 153.0870 0.0000 0.0000 0.0000
# 4 0.0000 0.0000 0.0000 19.0246 0.0000 0.0000
# 5 0.0000 0.0000 0.0000 0.0000 19.0261 0.0000
# 6 0.0000 0.0000 0.0000 0.0000 0.0000 34.9857
#
#
#
# Elastic Compliance Matrix: (Units=1/GPa)
#
#
# Indices 1 2 3 4 5 6 
#
# 1 0.008730 -0.002183 -0.002224 0.000000 0.000000 0.000000
# 2 -0.002183 0.008730 -0.002224 0.000000 0.000000 0.000000
# 3 -0.002224 -0.002224 0.008043 0.000000 0.000000 0.000000
# 4 0.000000 0.000000 0.000000 0.052563 0.000000 0.000000
# 5 0.000000 0.000000 0.000000 0.000000 0.052560 0.000000
# 6 0.000000 0.000000 0.000000 0.000000 0.000000 0.028583
#
#
# Mechanical properties :
#
#
# Convention : Reuss Voigt Hill
#
# Bulk Modulus (GPa) = 81.68875 81.91375 81.80125
# Shear Modulus (GPa) = 28.32039 33.31197 30.81618
#
# Velocity S-wave (km/s) = 3.71489 4.02900 3.87513
# Velocity P-wave (km/s) = 7.62937 7.84602 7.73845
#
# Compressibility (1/GPa) = 0.01224159
#
# Stress axis : x y z
#
# Youngs Moduli (GPa) = 114.54852 114.54746 124.32907
#
# Poissons Ratio (x) = 0.25003 0.27651
# Poissons Ratio (y) = 0.25003 0.27651
# Poissons Ratio (z) = 0.25476 0.25475
#
# Static dielectric constant tensor:
#      x y z
#    x 1.753050 0.000000 0.000000 
#    y 0.000000 1.753060 0.000000 
#    z 0.000000 0.000000 1.742690 
# 
# From -- ./inp_files/4778.got.cif
#   From: 2010.05.17/outbox.cif.g08.bks.cpg/sg119_3_cif.got.tgz:4778.got - 2010.05.20 11:21:29.
