data_PCOD9559691
_publ_section_title
;
Structure prediction by ZEFSAII (Michael W. Deem and Ramdas Pophale) SiO2 
 PCOD9559691
Probable space group: I -4 C 2
;
_chemical_formula_sum "Si O2"
_cell_formula_units_Z 88
_cell_length_a 15.387497
_cell_length_b 15.387497
_cell_length_c 15.221136
_cell_angle_alpha 90.000000
_cell_angle_beta 90.000000
_cell_angle_gamma 90.000000
_cell_volume 3603.985449
_symmetry_space_group_name_H-M "I -4 C 2"
_symmetry_group_IT_number 120
_symmetry_cell_setting 'tetragonal'
loop_
_space_group_symop_operation_xyz
x,y,z
y,-x,-z
-x,-y,z
-y,x,-z
y,x,1/2-z
-y,-x,1/2-z
-x,y,1/2+z
x,-y,1/2+z
1/2+x,1/2+y,1/2+z
1/2+y,1/2-x,1/2-z
1/2-x,1/2-y,1/2+z
1/2-y,1/2+x,1/2-z
1/2+y,1/2+x,-z
1/2-y,1/2-x,-z
1/2-x,1/2+y,z
1/2+x,1/2-y,z
loop_
_atom_site_type_symbol
_atom_site_label
_atom_site_fract_x
_atom_site_fract_y
_atom_site_fract_z
Si Si1 0.847675 0.194289 0.108352
Si Si2 0.934856 0.615186 0.597985
Si Si3 0.268010 0.268010 0.750000
Si Si4 0.455286 0.814343 0.253450
Si Si5 0.572713 0.380624 0.025824
Si Si6 0.139146 0.997024 0.789706
O O1 0.895815 0.286236 0.088246
O O2 0.767938 0.218785 0.166344
O O3 0.910447 0.125453 0.161230
O O4 0.823027 0.142843 0.022299
O O5 0.928022 0.571979 0.500000
O O6 0.877419 0.555062 0.663716
O O7 0.018137 0.635610 0.663152
O O8 0.239255 0.366030 0.744159
O O9 0.516311 0.729378 0.260931
O O10 0.559046 0.344497 0.122039
O O11 0.478943 0.388867 0.978283
O O12 0.060224 0.939777 0.750000
#
# Coordination Sequence:
#
# PCOD9559691 Si02
#       6
#    16  16   8  16  16  16
#     4   9  21  36  57  97 128 176 225 272 344 419
#     4  10  23  44  71  96 135 174 227 300 361 418
#     4  10  20  40  65  90 140 167 220 284 346 428
#     4  10  22  44  66 100 130 176 234 286 361 440
#     4   9  19  35  52  86 132 171 223 268 316 405
#     4  10  20  35  60  88 128 178 220 276 340 408
#
# _framework density 24.417413
#
# number of rings (size 3 to 8) (size 9 to 14) (size 15 to 20)
#    0.000    2.364    0.909    0.000    5.091    0.364 
#    0.000    3.636    0.000    2.182    0.000    0.000 
#    0.000    0.000    0.000    0.000    0.000    0.000 
#
# Total GULP energy -245059.614143 kJ/mol
# GULP energy per Si atom -5569.536685 kJ/mol
# Density = 2.436184 g / cm^3
# Si number density = 24.417413 Si / 1000 Ang^3
#
#
#
# Elastic Constant Matrix: (Units=GPa)
#
#
# Indices 1 2 3 4 5 6 
#
# 1 40.6500 40.7437 32.3344 0.0000 0.0000 0.0000
# 2 40.7437 40.6511 32.3354 0.0000 0.0000 0.0000
# 3 32.3344 32.3354 130.0717 0.0000 0.0000 0.0000
# 4 0.0000 0.0000 0.0000 32.1038 0.0000 0.0000
# 5 0.0000 0.0000 0.0000 0.0000 32.1036 0.0000
# 6 0.0000 0.0000 0.0000 0.0000 0.0000 37.2141
#
#
#
# Elastic Compliance Matrix: (Units=1/GPa)
#
#
# Indices 1 2 3 4 5 6 
#
# 1 -5.361860 5.377125 -0.003837 0.000000 0.000000 0.000000
# 2 5.377125 -5.361771 -0.003774 0.000000 0.000000 0.000000
# 3 -0.003837 -0.003774 0.009580 0.000000 0.000000 0.000000
# 4 0.000000 0.000000 0.000000 0.031149 0.000000 0.000000
# 5 0.000000 0.000000 0.000000 0.000000 0.031149 0.000000
# 6 0.000000 0.000000 0.000000 0.000000 0.000000 0.026872
#
#
# Mechanical properties :
#
#
# Convention : Reuss Voigt Hill
#
# Bulk Modulus (GPa) = 40.03804 46.91108 43.47456
# Shear Modulus (GPa) = -0.23413 27.34826 13.55707
#
# Velocity S-wave (km/s) = -0.30999 3.35032 2.35887
# Velocity P-wave (km/s) = 4.03792 5.84979 5.02617
#
# Compressibility (1/GPa) = 0.02497624
#
# Stress axis : x y z
#
# Youngs Moduli (GPa) = -0.18650 -0.18651 104.38082
#
# Poissons Ratio (x) = 1.00286 0.40055
# Poissons Ratio (y) = 1.00285 0.39397
# Poissons Ratio (z) = -0.00072 -0.00070
#
# Static dielectric constant tensor:
#      x y z
#    x 2.234680 0.000000 0.000000 
#    y 0.000000 2.234640 0.000000 
#    z 0.000000 0.000000 2.042630 
# 
# From -- ./inp_files/3520.got.cif
#   From: 2010.05.17/outbox.cif.g08.bks.cpg/sg120_2_cif.got.tgz:3520.got - 2010.05.20 11:28:13.
