data_PCOD9559776
_publ_section_title
;
Structure prediction by ZEFSAII (Michael W. Deem and Ramdas Pophale) SiO2 
 PCOD9559776
Probable space group: I -4 C 2
;
_chemical_formula_sum "Si O2"
_cell_formula_units_Z 108
_cell_length_a 13.937200
_cell_length_b 13.937200
_cell_length_c 28.421050
_cell_angle_alpha 90.000000
_cell_angle_beta 90.000000
_cell_angle_gamma 90.000000
_cell_volume 5520.662314
_symmetry_space_group_name_H-M "I -4 C 2"
_symmetry_group_IT_number 120
_symmetry_cell_setting 'tetragonal'
loop_
_space_group_symop_operation_xyz
x,y,z
y,-x,-z
-x,-y,z
-y,x,-z
y,x,1/2-z
-y,-x,1/2-z
-x,y,1/2+z
x,-y,1/2+z
1/2+x,1/2+y,1/2+z
1/2+y,1/2-x,1/2-z
1/2-x,1/2-y,1/2+z
1/2-y,1/2+x,1/2-z
1/2+y,1/2+x,-z
1/2-y,1/2-x,-z
1/2-x,1/2+y,z
1/2+x,1/2-y,z
loop_
_atom_site_type_symbol
_atom_site_label
_atom_site_fract_x
_atom_site_fract_y
_atom_site_fract_z
Si Si1 0.000000 0.000000 0.000000
Si Si2 0.244581 0.376857 0.780143
Si Si3 0.266984 0.576477 0.734460
Si Si4 0.795386 0.626861 0.884210
Si Si5 0.155064 0.344936 0.500000
Si Si6 0.560598 0.903502 0.098301
Si Si7 0.738114 0.007824 0.130172
Si Si8 0.384747 0.344899 0.947730
O O1 0.057032 0.076581 0.031091
O O2 0.325644 0.325644 0.750000
O O3 0.250141 0.488785 0.769522
O O4 0.143622 0.327463 0.766607
O O5 0.255462 0.352253 0.834805
O O6 0.355359 0.644642 0.750000
O O7 0.278748 0.532061 0.681809
O O8 0.827166 0.515677 0.883213
O O9 0.891336 0.691868 0.887884
O O10 0.719388 0.644734 0.924597
O O11 0.125749 0.400277 0.452663
O O12 0.264490 0.370828 0.512227
O O13 0.500000 0.000000 0.092379
O O14 0.649707 0.931488 0.131724
O O15 0.808600 0.960900 0.091818
#
# Coordination Sequence:
#
# PCOD9559776 Si02
#       8
#     4  16  16  16   8  16  16  16
#     4  12  28  40  56  96 126 156 220 256 316 384
#     4  10  22  39  60  91 127 158 212 252 308 380
#     4  10  22  39  61  94 122 166 205 260 311 375
#     4  10  21  39  62  92 118 168 201 257 322 368
#     4  10  21  38  60  88 111 170 204 254 328 368
#     4   9  18  36  61  89 118 150 210 263 308 376
#     4   9  21  40  63  89 125 159 212 257 311 377
#     4  11  24  41  61  87 128 167 205 269 313 388
#
# _framework density 19.56287
#
# number of rings (size 3 to 8) (size 9 to 14) (size 15 to 20)
#    0.000    2.074    0.000    2.000    4.148    1.778 
#    8.000    0.000    0.000    0.000    0.000    0.000 
#    0.000    0.000    0.000    0.000    0.000    0.000 
#
# Total GULP energy -301410.339315 kJ/mol
# GULP energy per Si atom -5581.672950 kJ/mol
# Density = 1.951834 g / cm^3
# Si number density = 19.562870 Si / 1000 Ang^3
#
#
#
# Elastic Constant Matrix: (Units=GPa)
#
#
# Indices 1 2 3 4 5 6 
#
# 1 50.6399 9.2345 20.0269 0.0000 0.0000 0.0000
# 2 9.2345 50.6393 20.0273 0.0000 0.0000 0.0000
# 3 20.0269 20.0273 59.7184 0.0000 0.0000 0.0000
# 4 0.0000 0.0000 0.0000 -4.7156 0.0000 0.0000
# 5 0.0000 0.0000 0.0000 0.0000 -4.7063 0.0000
# 6 0.0000 0.0000 0.0000 0.0000 0.0000 14.8738
#
#
#
# Elastic Compliance Matrix: (Units=1/GPa)
#
#
# Indices 1 2 3 4 5 6 
#
# 1 0.022842 -0.001310 -0.007221 0.000000 0.000000 0.000000
# 2 -0.001310 0.022842 -0.007221 0.000000 0.000000 0.000000
# 3 -0.007221 -0.007221 0.021589 0.000000 0.000000 0.000000
# 4 0.000000 0.000000 0.000000 -0.212064 0.000000 0.000000
# 5 0.000000 0.000000 0.000000 0.000000 -0.212483 0.000000
# 6 0.000000 0.000000 0.000000 0.000000 0.000000 0.067232
#
#
# Mechanical properties :
#
#
# Convention : Reuss Voigt Hill
#
# Bulk Modulus (GPa) = 27.95711 28.84165 28.39938
# Shear Modulus (GPa) = -20.27446 8.53767 -5.86840
#
# Velocity S-wave (km/s) = -3.22277 2.09134 -1.73386
# Velocity P-wave (km/s) = 0.68819 4.53946 3.24656
#
# Compressibility (1/GPa) = 0.03576908
#
# Stress axis : x y z
#
# Youngs Moduli (GPa) = 43.77944 43.77854 46.32079
#
# Poissons Ratio (x) = 0.05733 0.33448
# Poissons Ratio (y) = 0.05733 0.33449
# Poissons Ratio (z) = 0.31613 0.31614
#
# Static dielectric constant tensor:
#      x y z
#    x 1.679650 0.000000 0.000000 
#    y 0.000000 1.679650 0.000000 
#    z 0.000000 0.000000 1.678100 
# 
# From -- ./inp_files/5949.got.cif
#   From: 2010.05.17/outbox.cif.g08.bks.cpg/sg120_3_cif.got.tgz:5949.got - 2010.05.20 11:28:13.
