data_PCOD9559977
_publ_section_title
;
Structure prediction by ZEFSAII (Michael W. Deem and Ramdas Pophale) SiO2 
 PCOD9559977
Probable space group: I -4 C 2
;
_chemical_formula_sum "Si O2"
_cell_formula_units_Z 120
_cell_length_a 19.996561
_cell_length_b 19.996561
_cell_length_c 14.860579
_cell_angle_alpha 90.000000
_cell_angle_beta 90.000000
_cell_angle_gamma 90.000000
_cell_volume 5942.187555
_symmetry_space_group_name_H-M "I -4 C 2"
_symmetry_group_IT_number 120
_symmetry_cell_setting 'tetragonal'
loop_
_space_group_symop_operation_xyz
x,y,z
y,-x,-z
-x,-y,z
-y,x,-z
y,x,1/2-z
-y,-x,1/2-z
-x,y,1/2+z
x,-y,1/2+z
1/2+x,1/2+y,1/2+z
1/2+y,1/2-x,1/2-z
1/2-x,1/2-y,1/2+z
1/2-y,1/2+x,1/2-z
1/2+y,1/2+x,-z
1/2-y,1/2-x,-z
1/2-x,1/2+y,z
1/2+x,1/2-y,z
loop_
_atom_site_type_symbol
_atom_site_label
_atom_site_fract_x
_atom_site_fract_y
_atom_site_fract_z
Si Si1 0.144022 0.705678 0.856997
Si Si2 0.250715 0.750715 0.500000
Si Si3 0.923778 0.419930 0.390832
Si Si4 0.820358 0.052044 0.673364
Si Si5 0.819247 0.086297 0.866867
Si Si6 0.480386 0.392682 0.479164
Si Si7 0.430376 0.923228 0.607576
Si Si8 0.692028 0.822996 0.344083
O O1 0.183085 0.741395 0.938458
O O2 0.073667 0.745068 0.849930
O O3 0.127966 0.628286 0.871607
O O4 0.184514 0.709179 0.762287
O O5 0.235822 0.697252 0.580718
O O6 0.917377 0.417377 0.500000
O O7 0.901978 0.495219 0.363718
O O8 0.877532 0.362219 0.351399
O O9 0.001083 0.415066 0.361120
O O10 0.820276 0.039478 0.779297
O O11 0.861680 0.120500 0.652818
O O12 0.858569 0.997398 0.615221
O O13 0.750560 0.125944 0.874867
O O14 0.836151 0.045987 0.955036
O O15 0.426495 0.452458 0.480045
O O16 0.431517 0.931517 0.500000
#
# Coordination Sequence:
#
# PCOD9559977 Si02
#       8
#    16   8  16  16  16  16  16  16
#     4  11  22  38  62  88 115 156 200 238 298 361
#     4  12  22  40  60  84 114 150 194 254 288 342
#     4   9  19  37  61  90 122 158 201 247 299 357
#     4   9  18  34  55  80 111 150 196 239 285 352
#     4   9  18  34  55  80 111 150 196 239 285 352
#     4   9  18  32  54  84 114 153 200 244 290 333
#     4   9  19  37  61  90 122 158 201 247 299 357
#     4  11  22  38  62  88 115 156 200 238 298 361
#
# _framework density 20.194583999999999
#
# number of rings (size 3 to 8) (size 9 to 14) (size 15 to 20)
#    0.000    2.267    2.667    1.200    0.000    3.733 
#    0.000    4.000    0.000    1.600    0.000    0.000 
#    0.000    0.000    0.000    0.000    0.000    0.000 
#
# Total GULP energy -334240.683681 kJ/mol
# GULP energy per Si atom -5570.678061 kJ/mol
# Density = 2.014862 g / cm^3
# Si number density = 20.194584 Si / 1000 Ang^3
#
#
#
# Elastic Constant Matrix: (Units=GPa)
#
#
# Indices 1 2 3 4 5 6 
#
# 1 46.5203 20.5113 14.5999 0.0000 0.0000 0.0000
# 2 20.5113 46.5203 14.5999 0.0000 0.0000 0.0000
# 3 14.5999 14.5999 77.9194 0.0000 0.0000 0.0000
# 4 0.0000 0.0000 0.0000 14.3477 0.0000 0.0000
# 5 0.0000 0.0000 0.0000 0.0000 14.3477 0.0000
# 6 0.0000 0.0000 0.0000 0.0000 0.0000 18.6752
#
#
#
# Elastic Compliance Matrix: (Units=1/GPa)
#
#
# Indices 1 2 3 4 5 6 
#
# 1 0.027346 -0.011102 -0.003044 0.000000 0.000000 0.000000
# 2 -0.011102 0.027346 -0.003044 0.000000 0.000000 0.000000
# 3 -0.003044 -0.003044 0.013974 0.000000 0.000000 0.000000
# 4 0.000000 0.000000 0.000000 0.069697 0.000000 0.000000
# 5 0.000000 0.000000 0.000000 0.000000 0.069697 0.000000
# 6 0.000000 0.000000 0.000000 0.000000 0.000000 0.053547
#
#
# Mechanical properties :
#
#
# Convention : Reuss Voigt Hill
#
# Bulk Modulus (GPa) = 29.16477 30.04250 29.60364
# Shear Modulus (GPa) = 16.26455 17.55738 16.91096
#
# Velocity S-wave (km/s) = 2.84102 2.95177 2.89693
# Velocity P-wave (km/s) = 5.02345 5.15035 5.08730
#
# Compressibility (1/GPa) = 0.03428794
#
# Stress axis : x y z
#
# Youngs Moduli (GPa) = 36.56814 36.56814 71.55946
#
# Poissons Ratio (x) = 0.40598 0.21781
# Poissons Ratio (y) = 0.40598 0.21781
# Poissons Ratio (z) = 0.11130 0.11130
#
# Static dielectric constant tensor:
#      x y z
#    x 1.727970 0.000000 0.000000 
#    y 0.000000 1.727970 0.000000 
#    z 0.000000 0.000000 1.739820 
# 
# From -- ./inp_files/3713.got.cif
#   From: 2010.05.17/outbox.cif.g08.bks.cpg/sg120_2_cif.got.tgz:3713.got - 2010.05.20 11:28:13.
