data_PCOD9559610
_publ_section_title
;
Structure prediction by ZEFSAII (Michael W. Deem and Ramdas Pophale) SiO2 
 PCOD9559610
Probable space group: I -4 C 2
;
_chemical_formula_sum "Si O2"
_cell_formula_units_Z 96
_cell_length_a 18.698545
_cell_length_b 18.698545
_cell_length_c 16.813196
_cell_angle_alpha 90.000000
_cell_angle_beta 90.000000
_cell_angle_gamma 90.000000
_cell_volume 5878.491621
_symmetry_space_group_name_H-M "I -4 C 2"
_symmetry_group_IT_number 120
_symmetry_cell_setting 'tetragonal'
loop_
_space_group_symop_operation_xyz
x,y,z
y,-x,-z
-x,-y,z
-y,x,-z
y,x,1/2-z
-y,-x,1/2-z
-x,y,1/2+z
x,-y,1/2+z
1/2+x,1/2+y,1/2+z
1/2+y,1/2-x,1/2-z
1/2-x,1/2-y,1/2+z
1/2-y,1/2+x,1/2-z
1/2+y,1/2+x,-z
1/2-y,1/2-x,-z
1/2-x,1/2+y,z
1/2+x,1/2-y,z
loop_
_atom_site_type_symbol
_atom_site_label
_atom_site_fract_x
_atom_site_fract_y
_atom_site_fract_z
Si Si1 0.806569 0.562067 0.656997
Si Si2 0.562067 0.806568 0.656997
Si Si3 0.419800 0.300394 0.521819
Si Si4 0.154000 0.414966 0.073625
Si Si5 0.419799 0.699606 0.478182
Si Si6 0.346000 0.914966 0.426375
O O1 0.797872 0.549466 0.750000
O O2 0.841406 0.492579 0.613754
O O3 0.733262 0.577093 0.610099
O O4 0.858588 0.628650 0.639167
O O5 0.577093 0.733261 0.610100
O O6 0.628650 0.858587 0.639167
O O7 0.492579 0.841406 0.613753
O O8 0.402190 0.232034 0.465231
O O9 0.500000 0.324374 0.500000
O O10 0.361790 0.361790 0.513914
O O11 0.099243 0.400757 0.000000
O O12 0.402190 0.767965 0.534769
O O13 0.400757 0.900757 0.500000
#
# Coordination Sequence:
#
# PCOD9559610 Si02
#       6
#    16  16  16  16  16  16
#     4  10  19  31  49  75 105 133 163 203 247 289
#     4  10  19  31  49  75 105 133 163 203 247 289
#     4   9  19  35  53  72  95 126 165 208 250 298
#     4   9  18  32  49  71 100 135 170 200 233 285
#     4   9  19  35  53  72  95 126 165 208 250 298
#     4   9  18  32  49  71 100 135 170 200 233 285
#
# _framework density 16.330719999999999
#
# number of rings (size 3 to 8) (size 9 to 14) (size 15 to 20)
#    0.000    2.667    0.000    4.000    0.000    7.667 
#    0.000   10.000    0.000   24.000    0.000    9.333 
#    0.000    0.000    0.000    0.000    0.000    0.000 
#
# Total GULP energy -267260.342041 kJ/mol
# GULP energy per Si atom -5567.923793 kJ/mol
# Density = 1.629355 g / cm^3
# Si number density = 16.330720 Si / 1000 Ang^3
#
#
#
# Elastic Constant Matrix: (Units=GPa)
#
#
# Indices 1 2 3 4 5 6 
#
# 1 93.3198 82.3723 63.8102 0.0000 0.0000 0.0000
# 2 82.3723 93.3193 63.8106 0.0000 0.0000 0.0000
# 3 63.8102 63.8106 117.4339 0.0000 0.0000 0.0000
# 4 0.0000 0.0000 0.0000 7.7470 0.0000 0.0000
# 5 0.0000 0.0000 0.0000 0.0000 7.7471 0.0000
# 6 0.0000 0.0000 0.0000 0.0000 0.0000 -4.3717
#
#
#
# Elastic Compliance Matrix: (Units=1/GPa)
#
#
# Indices 1 2 3 4 5 6 
#
# 1 0.050375 -0.040972 -0.005109 0.000000 0.000000 0.000000
# 2 -0.040972 0.050375 -0.005110 0.000000 0.000000 0.000000
# 3 -0.005109 -0.005110 0.014068 0.000000 0.000000 0.000000
# 4 0.000000 0.000000 0.000000 0.129082 0.000000 0.000000
# 5 0.000000 0.000000 0.000000 0.000000 0.129081 0.000000
# 6 0.000000 0.000000 0.000000 0.000000 0.000000 -0.228742
#
#
# Mechanical properties :
#
#
# Convention : Reuss Voigt Hill
#
# Bulk Modulus (GPa) = 80.40691 80.45102 80.42896
# Shear Modulus (GPa) = 19.93894 8.49647 14.21770
#
# Velocity S-wave (km/s) = 3.49800 2.28343 2.95381
# Velocity P-wave (km/s) = 8.10297 7.50484 7.80963
#
# Compressibility (1/GPa) = 0.01243674
#
# Stress axis : x y z
#
# Youngs Moduli (GPa) = 19.85128 19.85093 71.08259
#
# Poissons Ratio (x) = 0.81333 0.36317
# Poissons Ratio (y) = 0.81334 0.36322
# Poissons Ratio (z) = 0.10142 0.10144
#
# Static dielectric constant tensor:
#      x y z
#    x 1.547540 0.000000 0.000000 
#    y 0.000000 1.547540 0.000000 
#    z 0.000000 0.000000 1.566300 
# 
# From -- ./inp_files/4462.got.cif
#   From: 2010.05.17/outbox.cif.g08.bks.cpg/sg120_3_cif.got.tgz:4462.got - 2010.05.20 11:28:13.
