data_PCOD9559622
_publ_section_title
;
Structure prediction by ZEFSAII (Michael W. Deem and Ramdas Pophale) SiO2 
 PCOD9559622
Probable space group: I -4 C 2
;
_chemical_formula_sum "Si O2"
_cell_formula_units_Z 120
_cell_length_a 18.169462
_cell_length_b 18.169462
_cell_length_c 19.629180
_cell_angle_alpha 90.000000
_cell_angle_beta 90.000000
_cell_angle_gamma 90.000000
_cell_volume 6480.168422
_symmetry_space_group_name_H-M "I -4 C 2"
_symmetry_group_IT_number 120
_symmetry_cell_setting 'tetragonal'
loop_
_space_group_symop_operation_xyz
x,y,z
y,-x,-z
-x,-y,z
-y,x,-z
y,x,1/2-z
-y,-x,1/2-z
-x,y,1/2+z
x,-y,1/2+z
1/2+x,1/2+y,1/2+z
1/2+y,1/2-x,1/2-z
1/2-x,1/2-y,1/2+z
1/2-y,1/2+x,1/2-z
1/2+y,1/2+x,-z
1/2-y,1/2-x,-z
1/2-x,1/2+y,z
1/2+x,1/2-y,z
loop_
_atom_site_type_symbol
_atom_site_label
_atom_site_fract_x
_atom_site_fract_y
_atom_site_fract_z
Si Si1 0.887242 0.699511 0.625696
Si Si2 0.227184 0.829583 0.139409
Si Si3 0.615452 0.308579 0.000719
Si Si4 0.281445 0.552803 0.998001
Si Si5 0.386020 0.386020 0.250000
Si Si6 0.087055 0.732764 0.849624
Si Si7 0.659598 0.722343 0.650158
Si Si8 0.280133 0.503089 0.278994
O O1 0.818160 0.755357 0.622530
O O2 0.926660 0.714659 0.553268
O O3 0.848526 0.622687 0.643792
O O4 0.943459 0.729751 0.682147
O O5 0.174171 0.871590 0.191003
O O6 0.301268 0.798177 0.172608
O O7 0.236884 0.871383 0.068487
O O8 0.653066 0.387936 0.987719
O O9 0.655019 0.276867 0.067709
O O10 0.528958 0.310416 0.015174
O O11 0.255392 0.560247 0.075535
O O12 0.361552 0.466341 0.274430
O O13 0.152096 0.790874 0.829941
O O14 0.024691 0.744960 0.793432
O O15 0.578297 0.716091 0.679017
#
# Coordination Sequence:
#
# PCOD9559622 Si02
#       8
#    16  16  16  16   8  16  16  16
#     4   9  19  36  57  82 112 145 187 243 284 329
#     4   9  19  33  57  79 110 145 195 236 282 329
#     4  10  19  34  53  81 114 150 193 236 285 340
#     4  10  19  35  54  81 115 154 189 237 284 343
#     4  10  22  36  55  86 116 151 176 238 292 346
#     4  10  21  35  57  83 111 149 197 231 283 342
#     4  10  20  34  55  82 112 146 194 244 275 332
#     4  11  21  35  56  85 117 146 189 235 291 339
#
# _framework density 18.518038000000001
#
# number of rings (size 3 to 8) (size 9 to 14) (size 15 to 20)
#    0.000    2.133    1.333    2.000    5.600    3.467 
#    0.000    1.333    0.000    0.400    0.000    0.000 
#    0.000    0.000    0.000    0.000    0.000    0.000 
#
# Total GULP energy -334522.468319 kJ/mol
# GULP energy per Si atom -5575.374472 kJ/mol
# Density = 1.847589 g / cm^3
# Si number density = 18.518038 Si / 1000 Ang^3
#
#
#
# Elastic Constant Matrix: (Units=GPa)
#
#
# Indices 1 2 3 4 5 6 
#
# 1 59.4542 57.4551 25.1824 0.0000 0.0000 0.0000
# 2 57.4551 59.4542 25.1824 0.0000 0.0000 0.0000
# 3 25.1824 25.1824 91.3656 0.0000 0.0000 0.0000
# 4 0.0000 0.0000 0.0000 22.9190 0.0000 0.0000
# 5 0.0000 0.0000 0.0000 0.0000 22.9190 0.0000
# 6 0.0000 0.0000 0.0000 0.0000 0.0000 16.9017
#
#
#
# Elastic Compliance Matrix: (Units=1/GPa)
#
#
# Indices 1 2 3 4 5 6 
#
# 1 0.254972 -0.245266 -0.002675 0.000000 0.000000 0.000000
# 2 -0.245266 0.254972 -0.002675 0.000000 0.000000 0.000000
# 3 -0.002675 -0.002675 0.012420 0.000000 0.000000 0.000000
# 4 0.000000 0.000000 0.000000 0.043632 0.000000 0.000000
# 5 0.000000 0.000000 0.000000 0.000000 0.043632 0.000000
# 6 0.000000 0.000000 0.000000 0.000000 0.000000 0.059166
#
#
# Mechanical properties :
#
#
# Convention : Reuss Voigt Hill
#
# Bulk Modulus (GPa) = 47.32361 47.32375 47.32368
# Shear Modulus (GPa) = 4.24783 19.37820 11.81302
#
# Velocity S-wave (km/s) = 1.51620 3.23840 2.52845
# Velocity P-wave (km/s) = 5.35500 6.29237 5.84252
#
# Compressibility (1/GPa) = 0.02113110
#
# Stress axis : x y z
#
# Youngs Moduli (GPa) = 3.92199 3.92199 80.51699
#
# Poissons Ratio (x) = 0.96193 0.21540
# Poissons Ratio (y) = 0.96193 0.21540
# Poissons Ratio (z) = 0.01049 0.01049
#
# Static dielectric constant tensor:
#      x y z
#    x 1.651970 0.000000 0.000000 
#    y 0.000000 1.651970 0.000000 
#    z 0.000000 0.000000 1.689200 
# 
# From -- ./inp_files/5542.got.cif
#   From: 2010.05.17/outbox.cif.g08.bks.cpg/sg120_3_cif.got.tgz:5542.got - 2010.05.20 11:28:13.
