data_PCOD9559857
_publ_section_title
;
Structure prediction by ZEFSAII (Michael W. Deem and Ramdas Pophale) SiO2 
 PCOD9559857
Probable space group: I -4 C 2
;
_chemical_formula_sum "Si O2"
_cell_formula_units_Z 64
_cell_length_a 11.093400
_cell_length_b 11.093400
_cell_length_c 28.732171
_cell_angle_alpha 90.000000
_cell_angle_beta 90.000000
_cell_angle_gamma 90.000000
_cell_volume 3535.882203
_symmetry_space_group_name_H-M "I -4 C 2"
_symmetry_group_IT_number 120
_symmetry_cell_setting 'tetragonal'
loop_
_space_group_symop_operation_xyz
x,y,z
y,-x,-z
-x,-y,z
-y,x,-z
y,x,1/2-z
-y,-x,1/2-z
-x,y,1/2+z
x,-y,1/2+z
1/2+x,1/2+y,1/2+z
1/2+y,1/2-x,1/2-z
1/2-x,1/2-y,1/2+z
1/2-y,1/2+x,1/2-z
1/2+y,1/2+x,-z
1/2-y,1/2-x,-z
1/2-x,1/2+y,z
1/2+x,1/2-y,z
loop_
_atom_site_type_symbol
_atom_site_label
_atom_site_fract_x
_atom_site_fract_y
_atom_site_fract_z
Si Si1 0.899414 0.399414 0.321127
Si Si2 0.000001 0.203874 0.750000
Si Si3 0.198855 0.965022 0.000000
Si Si4 0.102825 0.397175 0.926391
O O1 0.964283 0.292532 0.292432
O O2 0.792532 0.464281 0.292432
O O3 0.863735 0.363736 0.373495
O O4 0.000000 0.500000 0.326202
O O5 0.115103 0.115103 0.750000
O O6 0.884902 0.115099 0.750000
O O7 0.283312 0.946569 0.044825
O O8 0.283312 0.946568 0.955175
O O9 0.094248 0.864921 0.000000
O O10 0.000000 0.500000 0.927223
#
# Coordination Sequence:
#
# PCOD9559857 Si02
#       4
#    16  16  16  16
#     4  11  22  41  62  90 126 160 207 258 306 366
#     4  11  23  40  64  90 123 165 208 254 308 367
#     4  10  22  41  63  89 124 160 203 254 302 365
#     4  10  24  38  63  91 121 162 205 248 309 361
#
# _framework density 18.100148999999998
#
# number of rings (size 3 to 8) (size 9 to 14) (size 15 to 20)
#    0.000    1.500    2.500    2.250    7.000    4.000 
#    0.000    5.000    0.000    0.000    0.000    0.000 
#    0.000    0.000    0.000    0.000    0.000    0.000 
#
# Total GULP energy -178361.506110 kJ/mol
# GULP energy per Si atom -5573.797066 kJ/mol
# Density = 1.805895 g / cm^3
# Si number density = 18.100149 Si / 1000 Ang^3
#
#
#
# Elastic Constant Matrix: (Units=GPa)
#
#
# Indices 1 2 3 4 5 6 
#
# 1 110.1627 61.4274 73.4055 0.0000 0.0000 0.0000
# 2 61.4274 110.1628 73.4057 0.0000 0.0000 0.0000
# 3 73.4055 73.4057 192.2813 0.0000 0.0000 0.0000
# 4 0.0000 0.0000 0.0000 1.1039 0.0000 0.0000
# 5 0.0000 0.0000 0.0000 0.0000 1.1022 0.0000
# 6 0.0000 0.0000 0.0000 0.0000 0.0000 23.4093
#
#
#
# Elastic Compliance Matrix: (Units=1/GPa)
#
#
# Indices 1 2 3 4 5 6 
#
# 1 0.014587 -0.005932 -0.003304 0.000000 0.000000 0.000000
# 2 -0.005932 0.014587 -0.003304 0.000000 0.000000 0.000000
# 3 -0.003304 -0.003304 0.007723 0.000000 0.000000 0.000000
# 4 0.000000 0.000000 0.000000 0.905885 0.000000 0.000000
# 5 0.000000 0.000000 0.000000 0.000000 0.907253 0.000000
# 6 0.000000 0.000000 0.000000 0.000000 0.000000 0.042718
#
#
# Mechanical properties :
#
#
# Convention : Reuss Voigt Hill
#
# Bulk Modulus (GPa) = 84.62567 92.12043 88.37305
# Shear Modulus (GPa) = 2.60176 18.74764 10.67470
#
# Velocity S-wave (km/s) = 1.20023 3.22183 2.43113
# Velocity P-wave (km/s) = 6.98401 8.05268 7.53731
#
# Compressibility (1/GPa) = 0.01181674
#
# Stress axis : x y z
#
# Youngs Moduli (GPa) = 68.55481 68.55477 129.47606
#
# Poissons Ratio (x) = 0.40667 0.42779
# Poissons Ratio (y) = 0.40667 0.42780
# Poissons Ratio (z) = 0.22651 0.22651
#
# Static dielectric constant tensor:
#      x y z
#    x 1.629070 0.000000 0.000000 
#    y 0.000000 1.629080 0.000000 
#    z 0.000000 0.000000 1.646040 
# 
# From -- ./inp_files/6099.got.cif
#   From: 2010.05.17/outbox.cif.g08.bks.cpg/sg120_4_cif.got.tgz:6099.got - 2010.05.20 11:28:13.
