data_PCOD9559230
_publ_section_title
;
Structure prediction by ZEFSAII (Michael W. Deem and Ramdas Pophale) SiO2 
 PCOD9559230
Probable space group: I -4 M 2
;
_chemical_formula_sum "Si O2"
_cell_formula_units_Z 64
_cell_length_a 24.712137
_cell_length_b 24.712137
_cell_length_c 5.254606
_cell_angle_alpha 90.000000
_cell_angle_beta 90.000000
_cell_angle_gamma 90.000000
_cell_volume 3208.933841
_symmetry_space_group_name_H-M "I -4 M 2"
_symmetry_group_IT_number 119
_symmetry_cell_setting 'tetragonal'
loop_
_space_group_symop_operation_xyz
x,y,z
y,-x,-z
-x,-y,z
-y,x,-z
y,x,-z
-y,-x,-z
-x,y,z
x,-y,z
1/2+x,1/2+y,1/2+z
1/2+y,1/2-x,1/2-z
1/2-x,1/2-y,1/2+z
1/2-y,1/2+x,1/2-z
1/2+y,1/2+x,1/2-z
1/2-y,1/2-x,1/2-z
1/2-x,1/2+y,1/2+z
1/2+x,1/2-y,1/2+z
loop_
_atom_site_type_symbol
_atom_site_label
_atom_site_fract_x
_atom_site_fract_y
_atom_site_fract_z
Si Si1 0.440116 0.748709 0.723541
Si Si2 0.638165 0.186863 0.008088
Si Si3 0.857114 0.938413 0.428992
Si Si4 0.353174 0.716733 0.332163
O O1 0.500000 0.758910 0.625459
O O2 0.421991 0.792801 0.933297
O O3 0.395152 0.749531 0.506980
O O4 0.439360 0.688663 0.848935
O O5 0.663831 0.163831 0.750000
O O6 0.647674 0.147674 0.250000
O O7 0.663440 0.244313 0.102029
O O8 0.916379 0.916379 0.500000
O O9 0.833468 0.890117 0.255916
O O10 0.858240 0.000000 0.325663
O O11 0.304430 0.695571 0.500000
#
# Coordination Sequence:
#
# PCOD9559230 Si02
#       4
#    16  16  16  16
#     4  10  21  39  62  86 117 163 208 249 301 368
#     4  11  23  43  60  91 127 160 200 251 305 366
#     4  10  20  34  55  81 113 156 209 267 316 365
#     4  11  21  38  61  84 118 163 210 253 309 370
#
# _framework density 19.944317999999999
#
# number of rings (size 3 to 8) (size 9 to 14) (size 15 to 20)
#    0.000    1.500    5.000    0.750    0.000    1.250 
#    4.500    0.000    0.000    0.000    0.000    0.000 
#    0.000    3.000    0.000    0.000    0.000    0.000 
#
# Total GULP energy -178349.083272 kJ/mol
# GULP energy per Si atom -5573.408852 kJ/mol
# Density = 1.989892 g / cm^3
# Si number density = 19.944318 Si / 1000 Ang^3
#
#
#
# Elastic Constant Matrix: (Units=GPa)
#
#
# Indices 1 2 3 4 5 6 
#
# 1 37.6008 38.4172 12.7605 0.0000 0.0000 0.0000
# 2 38.4172 37.5987 12.7610 0.0000 0.0000 0.0000
# 3 12.7605 12.7610 81.3524 0.0000 0.0000 0.0000
# 4 0.0000 0.0000 0.0000 15.8397 0.0000 0.0000
# 5 0.0000 0.0000 0.0000 0.0000 15.8384 0.0000
# 6 0.0000 0.0000 0.0000 0.0000 0.0000 16.1769
#
#
#
# Elastic Compliance Matrix: (Units=1/GPa)
#
#
# Indices 1 2 3 4 5 6 
#
# 1 -0.604662 0.618567 -0.002185 0.000000 0.000000 0.000000
# 2 0.618567 -0.604700 -0.002172 0.000000 0.000000 0.000000
# 3 -0.002185 -0.002172 0.012976 0.000000 0.000000 0.000000
# 4 0.000000 0.000000 0.000000 0.063132 0.000000 0.000000
# 5 0.000000 0.000000 0.000000 0.000000 0.063138 0.000000
# 6 0.000000 0.000000 0.000000 0.000000 0.000000 0.061817
#
#
# Mechanical properties :
#
#
# Convention : Reuss Voigt Hill
#
# Bulk Modulus (GPa) = 31.21552 31.60326 31.40939
# Shear Modulus (GPa) = -2.24614 15.74521 6.74954
#
# Velocity S-wave (km/s) = -1.06238 2.81278 1.84161
# Velocity P-wave (km/s) = 3.76569 5.14093 4.50608
#
# Compressibility (1/GPa) = 0.03203535
#
# Stress axis : x y z
#
# Youngs Moduli (GPa) = -1.65382 -1.65371 77.06821
#
# Poissons Ratio (x) = 1.02293 0.16837
# Poissons Ratio (y) = 1.02300 0.16737
# Poissons Ratio (z) = -0.00361 -0.00359
#
# Static dielectric constant tensor:
#      x y z
#    x 1.738760 0.000000 0.000000 
#    y 0.000000 1.738760 0.000000 
#    z 0.000000 0.000000 1.834380 
# 
# From -- ./inp_files/745.got.cif
#   From: 2010.05.17/outbox.cif.g08.bks.cpg/sg119_1_cif.got.tgz:745.got - 2010.05.20 11:21:29.
