data_PCOD9559161
_publ_section_title
;
Structure prediction by ZEFSAII (Michael W. Deem and Ramdas Pophale) SiO2 
 PCOD9559161
Probable space group: I -4 M 2
;
_chemical_formula_sum "Si O2"
_cell_formula_units_Z 112
_cell_length_a 14.078447
_cell_length_b 14.078447
_cell_length_c 28.060752
_cell_angle_alpha 90.000000
_cell_angle_beta 90.000000
_cell_angle_gamma 90.000000
_cell_volume 5561.715967
_symmetry_space_group_name_H-M "I -4 M 2"
_symmetry_group_IT_number 119
_symmetry_cell_setting 'tetragonal'
loop_
_space_group_symop_operation_xyz
x,y,z
y,-x,-z
-x,-y,z
-y,x,-z
y,x,-z
-y,-x,-z
-x,y,z
x,-y,z
1/2+x,1/2+y,1/2+z
1/2+y,1/2-x,1/2-z
1/2-x,1/2-y,1/2+z
1/2-y,1/2+x,1/2-z
1/2+y,1/2+x,1/2-z
1/2-y,1/2-x,1/2-z
1/2-x,1/2+y,1/2+z
1/2+x,1/2-y,1/2+z
loop_
_atom_site_type_symbol
_atom_site_label
_atom_site_fract_x
_atom_site_fract_y
_atom_site_fract_z
Si Si1 0.387109 0.897131 0.648125
Si Si2 0.254415 0.107009 0.012443
Si Si3 0.113425 0.108290 0.290028
Si Si4 0.725492 0.893422 0.125957
Si Si5 0.233233 0.610641 0.051102
Si Si6 0.612287 0.291060 0.111742
Si Si7 0.614275 0.697509 0.691367
O O1 0.500000 0.896984 0.638653
O O2 0.332838 0.886469 0.598345
O O3 0.368192 0.808054 0.681372
O O4 0.361135 0.000000 0.669381
O O5 0.335325 0.173758 0.989459
O O6 0.264895 0.000000 0.993879
O O7 0.154607 0.154607 0.000000
O O8 0.257173 0.104431 0.069337
O O9 0.144920 0.137995 0.342422
O O10 0.143137 0.169095 0.244670
O O11 0.000000 0.107016 0.289719
O O12 0.148029 0.000000 0.282999
O O13 0.644630 0.813311 0.128650
O O14 0.819268 0.859316 0.154259
O O15 0.699270 0.000000 0.141488
O O16 0.252466 0.500000 0.039816
O O17 0.326865 0.668270 0.067530
O O18 0.500000 0.295679 0.102466
O O19 0.500000 0.678769 0.685003
#
# Coordination Sequence:
#
# PCOD9559161 Si02
#       7
#    16  16  16  16  16  16  16
#     4   9  17  31  56  91 126 162 204 249 304 374
#     4  11  23  42  65  95 132 171 216 263 316 381
#     4   9  19  36  62  97 128 162 214 266 318 385
#     4  11  24  41  62  92 126 163 213 268 319 381
#     4  11  22  40  66  94 127 168 214 265 321 384
#     4  11  23  42  66  91 126 170 215 271 330 384
#     4  10  19  37  65  94 130 172 211 259 321 387
#
# _framework density 20.137668999999999
#
# number of rings (size 3 to 8) (size 9 to 14) (size 15 to 20)
#    0.000    1.714    2.857    1.286    0.000    5.857 
#    0.000    2.857    0.000    1.714    0.000    8.000 
#    0.000    0.000    0.000    0.000    0.000    0.000 
#
# Total GULP energy -312749.225937 kJ/mol
# GULP energy per Si atom -5584.807606 kJ/mol
# Density = 2.009183 g / cm^3
# Si number density = 20.137669 Si / 1000 Ang^3
#
#
#
# Elastic Constant Matrix: (Units=GPa)
#
#
# Indices 1 2 3 4 5 6 
#
# 1 110.1838 44.3252 39.2021 0.0000 0.0000 0.0000
# 2 44.3252 110.1838 39.2021 0.0000 0.0000 0.0000
# 3 39.2021 39.2021 69.5163 0.0000 0.0000 0.0000
# 4 0.0000 0.0000 0.0000 31.4269 0.0000 0.0000
# 5 0.0000 0.0000 0.0000 0.0000 31.4269 0.0000
# 6 0.0000 0.0000 0.0000 0.0000 0.0000 9.9411
#
#
#
# Elastic Compliance Matrix: (Units=1/GPa)
#
#
# Indices 1 2 3 4 5 6 
#
# 1 0.012125 -0.003059 -0.005113 0.000000 0.000000 0.000000
# 2 -0.003059 0.012125 -0.005113 0.000000 0.000000 0.000000
# 3 -0.005113 -0.005113 0.020152 0.000000 0.000000 0.000000
# 4 0.000000 0.000000 0.000000 0.031820 0.000000 0.000000
# 5 0.000000 0.000000 0.000000 0.000000 0.031820 0.000000
# 6 0.000000 0.000000 0.000000 0.000000 0.000000 0.100592
#
#
# Mechanical properties :
#
#
# Convention : Reuss Voigt Hill
#
# Bulk Modulus (GPa) = 56.07476 59.48250 57.77863
# Shear Modulus (GPa) = 20.73418 25.70261 23.21839
#
# Velocity S-wave (km/s) = 3.21225 3.57647 3.39924
# Velocity P-wave (km/s) = 6.45478 6.83059 6.64534
#
# Compressibility (1/GPa) = 0.01783333
#
# Stress axis : x y z
#
# Youngs Moduli (GPa) = 82.47196 82.47196 49.62355
#
# Poissons Ratio (x) = 0.25226 0.25372
# Poissons Ratio (y) = 0.25226 0.25372
# Poissons Ratio (z) = 0.42167 0.42167
#
# Static dielectric constant tensor:
#      x y z
#    x 1.730390 0.000000 0.000000 
#    y 0.000000 1.730390 0.000000 
#    z 0.000000 0.000000 1.698380 
# 
# From -- ./inp_files/8826.got.cif
#   From: 2010.05.17/outbox.cif.g08.bks.cpg/sg119_5_cif.got.tgz:8826.got - 2010.05.20 11:21:29.
