data_PCOD9559280
_publ_section_title
;
Structure prediction by ZEFSAII (Michael W. Deem and Ramdas Pophale) SiO2 
 PCOD9559280
Probable space group: I -4 M 2
;
_chemical_formula_sum "Si O2"
_cell_formula_units_Z 52
_cell_length_a 14.912175
_cell_length_b 14.912175
_cell_length_c 10.871324
_cell_angle_alpha 90.000000
_cell_angle_beta 90.000000
_cell_angle_gamma 90.000000
_cell_volume 2417.488532
_symmetry_space_group_name_H-M "I -4 M 2"
_symmetry_group_IT_number 119
_symmetry_cell_setting 'tetragonal'
loop_
_space_group_symop_operation_xyz
x,y,z
y,-x,-z
-x,-y,z
-y,x,-z
y,x,-z
-y,-x,-z
-x,y,z
x,-y,z
1/2+x,1/2+y,1/2+z
1/2+y,1/2-x,1/2-z
1/2-x,1/2-y,1/2+z
1/2-y,1/2+x,1/2-z
1/2+y,1/2+x,1/2-z
1/2-y,1/2-x,1/2-z
1/2-x,1/2+y,1/2+z
1/2+x,1/2-y,1/2+z
loop_
_atom_site_type_symbol
_atom_site_label
_atom_site_fract_x
_atom_site_fract_y
_atom_site_fract_z
Si Si1 0.101061 0.500000 0.995361
Si Si2 0.000000 0.000000 0.500000
Si Si3 0.102772 0.195106 0.815461
Si Si4 0.500000 0.603205 0.755790
Si Si5 0.000000 0.500000 0.750000
Si Si6 0.346251 0.220242 0.062370
O O1 0.159892 0.587494 0.018510
O O2 0.000000 0.500000 0.048452
O O3 0.080960 0.500000 0.846503
O O4 0.000000 0.915768 0.404484
O O5 0.160942 0.260508 0.899136
O O6 0.104475 0.244326 0.683719
O O7 0.000000 0.190289 0.859191
O O8 0.140698 0.094428 0.792971
O O9 0.500000 0.500000 0.709302
O O10 0.308045 0.308045 0.000000
#
# Coordination Sequence:
#
# PCOD9559280 Si02
#       6
#     8   2  16   8   2  16
#     4  10  20  36  63  90 120 166 211 265 333 373
#     4   8  16  28  56  88  98 144 212 260 300 376
#     4  10  20  38  58  83 121 162 209 256 324 383
#     4   8  18  31  54  78 114 155 197 249 315 376
#     4   8  16  32  68  92 112 158 224 272 312 384
#     4  11  23  35  58  96 125 157 211 278 320 382
#
# _framework density 21.509924999999999
#
# number of rings (size 3 to 8) (size 9 to 14) (size 15 to 20)
#    0.923    1.231    1.538    2.769    2.154    1.231 
#    5.538    0.000    0.000    0.000    0.000    0.000 
#    0.000    0.000    0.000    0.000    0.000    0.000 
#
# Total GULP energy -144882.533289 kJ/mol
# GULP energy per Si atom -5572.405127 kJ/mol
# Density = 2.146097 g / cm^3
# Si number density = 21.509925 Si / 1000 Ang^3
#
#
#
# Elastic Constant Matrix: (Units=GPa)
#
#
# Indices 1 2 3 4 5 6 
#
# 1 127.7416 44.4766 8.2598 0.0000 0.0000 0.0000
# 2 44.4766 127.7416 8.2598 0.0000 0.0000 0.0000
# 3 8.2598 8.2598 9.0333 0.0000 0.0000 0.0000
# 4 0.0000 0.0000 0.0000 -26.4413 0.0000 0.0000
# 5 0.0000 0.0000 0.0000 0.0000 -26.4413 0.0000
# 6 0.0000 0.0000 0.0000 0.0000 0.0000 43.7786
#
#
#
# Elastic Compliance Matrix: (Units=1/GPa)
#
#
# Indices 1 2 3 4 5 6 
#
# 1 0.009187 -0.002823 -0.005820 0.000000 0.000000 0.000000
# 2 -0.002823 0.009187 -0.005820 0.000000 0.000000 0.000000
# 3 -0.005820 -0.005820 0.121345 0.000000 0.000000 0.000000
# 4 0.000000 0.000000 0.000000 -0.037820 0.000000 0.000000
# 5 0.000000 0.000000 0.000000 0.000000 -0.037820 0.000000
# 6 0.000000 0.000000 0.000000 0.000000 0.000000 0.022842
#
#
# Mechanical properties :
#
#
# Convention : Reuss Voigt Hill
#
# Bulk Modulus (GPa) = 9.02564 42.94543 25.98554
# Shear Modulus (GPa) = 32.72697 11.74720 22.23708
#
# Velocity S-wave (km/s) = 3.90485 2.33948 3.21877
# Velocity P-wave (km/s) = 4.95334 5.22554 5.09126
#
# Compressibility (1/GPa) = 0.11079541
#
# Stress axis : x y z
#
# Youngs Moduli (GPa) = 108.84533 108.84533 8.24095
#
# Poissons Ratio (x) = 0.30722 0.04796
# Poissons Ratio (y) = 0.30722 0.04796
# Poissons Ratio (z) = 0.63347 0.63347
#
# Static dielectric constant tensor:
#      x y z
#    x 1.845130 0.000000 0.000000 
#    y 0.000000 1.845130 0.000000 
#    z 0.000000 0.000000 1.817860 
# 
# From -- ./inp_files/3585.got.cif
#   From: 2010.05.17/outbox.cif.g08.bks.cpg/sg119_2_cif.got.tgz:3585.got - 2010.05.20 11:21:29.
