data_PCOD9559768
_publ_section_title
;
Structure prediction by ZEFSAII (Michael W. Deem and Ramdas Pophale) SiO2 
 PCOD9559768
Probable space group: I -4 C 2
;
_chemical_formula_sum "Si O2"
_cell_formula_units_Z 96
_cell_length_a 25.267557
_cell_length_b 25.267557
_cell_length_c 8.822354
_cell_angle_alpha 90.000000
_cell_angle_beta 90.000000
_cell_angle_gamma 90.000000
_cell_volume 5632.626942
_symmetry_space_group_name_H-M "I -4 C 2"
_symmetry_group_IT_number 120
_symmetry_cell_setting 'tetragonal'
loop_
_space_group_symop_operation_xyz
x,y,z
y,-x,-z
-x,-y,z
-y,x,-z
y,x,1/2-z
-y,-x,1/2-z
-x,y,1/2+z
x,-y,1/2+z
1/2+x,1/2+y,1/2+z
1/2+y,1/2-x,1/2-z
1/2-x,1/2-y,1/2+z
1/2-y,1/2+x,1/2-z
1/2+y,1/2+x,-z
1/2-y,1/2-x,-z
1/2-x,1/2+y,z
1/2+x,1/2-y,z
loop_
_atom_site_type_symbol
_atom_site_label
_atom_site_fract_x
_atom_site_fract_y
_atom_site_fract_z
Si Si1 0.110833 0.939500 0.621905
Si Si2 0.272804 0.553725 0.799584
Si Si3 0.754752 0.835083 0.676130
Si Si4 0.665320 0.253343 0.183692
Si Si5 0.385968 0.443540 0.130978
Si Si6 0.729280 0.557887 0.663682
O O1 0.067135 0.932866 0.750000
O O2 0.100448 0.895158 0.496560
O O3 0.167258 0.934145 0.702243
O O4 0.109699 0.998715 0.557240
O O5 0.244886 0.607447 0.746534
O O6 0.331206 0.559106 0.722845
O O7 0.252270 0.497446 0.736615
O O8 0.271523 0.553166 0.981501
O O9 0.805876 0.805876 0.750000
O O10 0.705650 0.795645 0.704325
O O11 0.761624 0.841657 0.495903
O O12 0.695590 0.304411 0.250000
O O13 0.610031 0.243661 0.269024
O O14 0.432290 0.432290 0.250000
#
# Coordination Sequence:
#
# PCOD9559768 Si02
#       6
#    16  16  16  16  16  16
#     4  11  24  33  50  67  91 129 173 225 272 320
#     4  11  23  36  55  74 103 138 175 220 268 325
#     4  10  21  36  57  82 109 139 175 222 271 322
#     4  10  21  36  56  83 109 138 177 221 271 324
#     4  11  22  37  47  68  92 128 177 224 276 318
#     4  11  23  37  54  76 102 138 175 219 267 325
#
# _framework density 17.043557
#
# number of rings (size 3 to 8) (size 9 to 14) (size 15 to 20)
#    0.000    1.333    1.667    4.000   11.667    4.000 
#    0.000    0.000    0.000    0.000    0.000    0.000 
#    0.000    0.667    0.000    7.000    0.000    3.000 
#
# Total GULP energy -267932.128102 kJ/mol
# GULP energy per Si atom -5581.919335 kJ/mol
# Density = 1.700477 g / cm^3
# Si number density = 17.043557 Si / 1000 Ang^3
#
#
#
# Elastic Constant Matrix: (Units=GPa)
#
#
# Indices 1 2 3 4 5 6 
#
# 1 74.8202 18.6967 30.4547 0.0000 0.0000 0.0000
# 2 18.6967 74.8196 30.4527 0.0000 0.0000 0.0000
# 3 30.4547 30.4527 68.4586 0.0000 0.0000 0.0000
# 4 0.0000 0.0000 0.0000 26.1217 0.0000 0.0000
# 5 0.0000 0.0000 0.0000 0.0000 26.1221 0.0000
# 6 0.0000 0.0000 0.0000 0.0000 0.0000 17.8548
#
#
#
# Elastic Compliance Matrix: (Units=1/GPa)
#
#
# Indices 1 2 3 4 5 6 
#
# 1 0.016437 -0.001381 -0.006698 0.000000 0.000000 0.000000
# 2 -0.001381 0.016436 -0.006697 0.000000 0.000000 0.000000
# 3 -0.006698 -0.006697 0.020566 0.000000 0.000000 0.000000
# 4 0.000000 0.000000 0.000000 0.038282 0.000000 0.000000
# 5 0.000000 0.000000 0.000000 0.000000 0.038282 0.000000
# 6 0.000000 0.000000 0.000000 0.000000 0.000000 0.056007
#
#
# Mechanical properties :
#
#
# Convention : Reuss Voigt Hill
#
# Bulk Modulus (GPa) = 41.86337 41.92293 41.89315
# Shear Modulus (GPa) = 22.36890 23.25269 22.81080
#
# Velocity S-wave (km/s) = 3.62671 3.69766 3.66236
# Velocity P-wave (km/s) = 6.49256 6.54837 6.52053
#
# Compressibility (1/GPa) = 0.02388723
#
# Stress axis : x y z
#
# Youngs Moduli (GPa) = 60.83933 60.84044 48.62411
#
# Poissons Ratio (x) = 0.08404 0.32567
# Poissons Ratio (y) = 0.08404 0.32563
# Poissons Ratio (z) = 0.40748 0.40745
#
# Static dielectric constant tensor:
#      x y z
#    x 1.585300 0.000000 0.000000 
#    y 0.000000 1.585300 0.000000 
#    z 0.000000 0.000000 1.625800 
# 
# From -- ./inp_files/1560.got.cif
#   From: 2010.05.17/outbox.cif.g08.bks.cpg/sg120_1_cif.got.tgz:1560.got - 2010.05.20 11:28:13.
