data_PCOD9559162
_publ_section_title
;
Structure prediction by ZEFSAII (Michael W. Deem and Ramdas Pophale) SiO2 
 PCOD9559162
Probable space group: I -4 M 2
;
_chemical_formula_sum "Si O2"
_cell_formula_units_Z 40
_cell_length_a 10.816965
_cell_length_b 10.816965
_cell_length_c 13.994555
_cell_angle_alpha 90.000000
_cell_angle_beta 90.000000
_cell_angle_gamma 90.000000
_cell_volume 1637.457144
_symmetry_space_group_name_H-M "I -4 M 2"
_symmetry_group_IT_number 119
_symmetry_cell_setting 'tetragonal'
loop_
_space_group_symop_operation_xyz
x,y,z
y,-x,-z
-x,-y,z
-y,x,-z
y,x,-z
-y,-x,-z
-x,y,z
x,-y,z
1/2+x,1/2+y,1/2+z
1/2+y,1/2-x,1/2-z
1/2-x,1/2-y,1/2+z
1/2-y,1/2+x,1/2-z
1/2+y,1/2+x,1/2-z
1/2-y,1/2-x,1/2-z
1/2-x,1/2+y,1/2+z
1/2+x,1/2-y,1/2+z
loop_
_atom_site_type_symbol
_atom_site_label
_atom_site_fract_x
_atom_site_fract_y
_atom_site_fract_z
Si Si1 0.642804 0.500000 0.133994
Si Si2 0.349811 0.000000 0.013917
Si Si3 0.650801 0.230639 0.143460
Si Si4 0.500000 0.807855 0.706815
O O1 0.500000 0.500000 0.110562
O O2 0.692647 0.365895 0.104814
O O3 0.672743 0.500000 0.246884
O O4 0.304192 0.000000 0.905915
O O5 0.500000 0.000000 0.007786
O O6 0.312246 0.879759 0.073908
O O7 0.500000 0.233815 0.148355
O O8 0.698688 0.198688 0.250000
O O9 0.386059 0.886059 0.750000
#
# Coordination Sequence:
#
# PCOD9559162 Si02
#       4
#     8   8  16   8
#     4  10  23  41  66  98 146 184 212 283 365 399
#     4  10  20  38  74 103 123 171 242 292 331 406
#     4  10  19  37  70 102 136 177 231 287 346 409
#     4  11  22  44  73  96 133 188 235 276 339 421
#
# _framework density 24.428118999999999
#
# number of rings (size 3 to 8) (size 9 to 14) (size 15 to 20)
#    0.000    1.800    4.000    1.200    0.000    0.000 
#    0.000    8.000    8.800    0.000    0.000    0.000 
#    0.000    0.000    0.000    0.000    0.000    0.000 
#
# Total GULP energy -111867.013100 kJ/mol
# GULP energy per Si atom -5593.350655 kJ/mol
# Density = 2.437252 g / cm^3
# Si number density = 24.428119 Si / 1000 Ang^3
#
#
#
# Elastic Constant Matrix: (Units=GPa)
#
#
# Indices 1 2 3 4 5 6 
#
# 1 131.3748 25.4048 56.5016 0.0000 0.0000 0.0000
# 2 25.4048 131.3748 56.5016 0.0000 0.0000 0.0000
# 3 56.5016 56.5016 215.2062 0.0000 0.0000 0.0000
# 4 0.0000 0.0000 0.0000 20.5504 0.0000 0.0000
# 5 0.0000 0.0000 0.0000 0.0000 20.5504 0.0000
# 6 0.0000 0.0000 0.0000 0.0000 0.0000 19.6032
#
#
#
# Elastic Compliance Matrix: (Units=1/GPa)
#
#
# Indices 1 2 3 4 5 6 
#
# 1 0.008652 -0.000785 -0.002065 0.000000 0.000000 0.000000
# 2 -0.000785 0.008652 -0.002065 0.000000 0.000000 0.000000
# 3 -0.002065 -0.002065 0.005731 0.000000 0.000000 0.000000
# 4 0.000000 0.000000 0.000000 0.048661 0.000000 0.000000
# 5 0.000000 0.000000 0.000000 0.000000 0.048661 0.000000
# 6 0.000000 0.000000 0.000000 0.000000 0.000000 0.051012
#
#
# Mechanical properties :
#
#
# Convention : Reuss Voigt Hill
#
# Bulk Modulus (GPa) = 75.73692 83.86355 79.80023
# Shear Modulus (GPa) = 26.93947 34.77733 30.85840
#
# Velocity S-wave (km/s) = 3.32445 3.77724 3.55805
# Velocity P-wave (km/s) = 6.76811 7.30949 7.04400
#
# Compressibility (1/GPa) = 0.01320360
#
# Stress axis : x y z
#
# Youngs Moduli (GPa) = 115.58174 115.58174 174.48103
#
# Poissons Ratio (x) = 0.09070 0.36039
# Poissons Ratio (y) = 0.09070 0.36039
# Poissons Ratio (z) = 0.23873 0.23873
#
# Static dielectric constant tensor:
#      x y z
#    x 1.978930 0.000000 0.000000 
#    y 0.000000 1.978930 0.000000 
#    z 0.000000 0.000000 1.883110 
# 
# From -- ./inp_files/4757.got.cif
#   From: 2010.05.17/outbox.cif.g08.bks.cpg/sg119_3_cif.got.tgz:4757.got - 2010.05.20 11:21:29.
