data_PCOD9559115
_publ_section_title
;
Structure prediction by ZEFSAII (Michael W. Deem and Ramdas Pophale) SiO2 
 PCOD9559115
Probable space group: I -4 M 2
;
_chemical_formula_sum "Si O2"
_cell_formula_units_Z 112
_cell_length_a 22.263073
_cell_length_b 22.263073
_cell_length_c 13.281617
_cell_angle_alpha 90.000000
_cell_angle_beta 90.000000
_cell_angle_gamma 90.000000
_cell_volume 6582.959347
_symmetry_space_group_name_H-M "I -4 M 2"
_symmetry_group_IT_number 119
_symmetry_cell_setting 'tetragonal'
loop_
_space_group_symop_operation_xyz
x,y,z
y,-x,-z
-x,-y,z
-y,x,-z
y,x,-z
-y,-x,-z
-x,y,z
x,-y,z
1/2+x,1/2+y,1/2+z
1/2+y,1/2-x,1/2-z
1/2-x,1/2-y,1/2+z
1/2-y,1/2+x,1/2-z
1/2+y,1/2+x,1/2-z
1/2-y,1/2-x,1/2-z
1/2-x,1/2+y,1/2+z
1/2+x,1/2-y,1/2+z
loop_
_atom_site_type_symbol
_atom_site_label
_atom_site_fract_x
_atom_site_fract_y
_atom_site_fract_z
Si Si1 0.662959 0.648663 0.749708
Si Si2 0.767990 0.933231 0.637547
Si Si3 0.432758 0.159947 0.706490
Si Si4 0.137224 0.225736 0.555598
Si Si5 0.569076 0.625367 0.591500
Si Si6 0.262181 0.928572 0.987561
Si Si7 0.216438 0.672272 0.648905
O O1 0.616614 0.691758 0.807327
O O2 0.699773 0.614521 0.837440
O O3 0.620089 0.612718 0.674437
O O4 0.715312 0.683635 0.688151
O O5 0.709562 0.935853 0.706316
O O6 0.754068 0.912441 0.524082
O O7 0.795825 0.000000 0.637696
O O8 0.500000 0.137318 0.686514
O O9 0.390521 0.109479 0.750000
O O10 0.411969 0.193722 0.604878
O O11 0.172206 0.172206 0.500000
O O12 0.186554 0.276691 0.579830
O O13 0.580356 0.580356 0.500000
O O14 0.500000 0.623460 0.627259
O O15 0.580819 0.693473 0.550480
O O16 0.268090 0.000000 0.006896
O O17 0.277875 0.888356 0.084179
O O18 0.175441 0.675441 0.750000
#
# Coordination Sequence:
#
# PCOD9559115 Si02
#       7
#    16  16  16  16  16  16  16
#     4  10  19  33  50  75 105 134 173 216 267 322
#     4  10  19  34  52  75 107 140 179 217 262 327
#     4  10  20  32  51  78 106 140 178 217 268 322
#     4   9  20  31  48  77 107 140 173 214 268 319
#     4  11  21  35  55  77 106 140 176 222 267 317
#     4  10  20  34  53  79 108 140 178 217 269 325
#     4  10  20  33  51  78 110 137 175 217 270 322
#
# _framework density 17.013624
#
# number of rings (size 3 to 8) (size 9 to 14) (size 15 to 20)
#    0.000    2.000    2.857    1.286    2.000    3.143 
#    0.000    3.571    0.000    0.857    0.000    0.000 
#    0.000   15.143    0.000    0.000    0.000    0.000 
#
# Total GULP energy -311807.413162 kJ/mol
# GULP energy per Si atom -5567.989521 kJ/mol
# Density = 1.697490 g / cm^3
# Si number density = 17.013624 Si / 1000 Ang^3
#
#
#
# Elastic Constant Matrix: (Units=GPa)
#
#
# Indices 1 2 3 4 5 6 
#
# 1 52.0713 26.6228 41.1212 0.0000 0.0000 0.0000
# 2 26.6228 52.0745 41.1214 0.0000 0.0000 0.0000
# 3 41.1212 41.1214 99.8715 0.0000 0.0000 0.0000
# 4 0.0000 0.0000 0.0000 21.6372 0.0000 0.0000
# 5 0.0000 0.0000 0.0000 0.0000 21.6372 0.0000
# 6 0.0000 0.0000 0.0000 0.0000 0.0000 18.6341
#
#
#
# Elastic Compliance Matrix: (Units=1/GPa)
#
#
# Indices 1 2 3 4 5 6 
#
# 1 0.030800 -0.008494 -0.009184 0.000000 0.000000 0.000000
# 2 -0.008494 0.030798 -0.009183 0.000000 0.000000 0.000000
# 3 -0.009184 -0.009183 0.017576 0.000000 0.000000 0.000000
# 4 0.000000 0.000000 0.000000 0.046217 0.000000 0.000000
# 5 0.000000 0.000000 0.000000 0.000000 0.046217 0.000000
# 6 0.000000 0.000000 0.000000 0.000000 0.000000 0.053665
#
#
# Mechanical properties :
#
#
# Convention : Reuss Voigt Hill
#
# Bulk Modulus (GPa) = 39.29264 46.86089 43.07676
# Shear Modulus (GPa) = 17.39263 18.72518 18.05890
#
# Velocity S-wave (km/s) = 3.20077 3.32113 3.26151
# Velocity P-wave (km/s) = 6.06670 6.50457 6.28945
#
# Compressibility (1/GPa) = 0.02545006
#
# Stress axis : x y z
#
# Youngs Moduli (GPa) = 32.46745 32.47014 56.89677
#
# Poissons Ratio (x) = 0.27579 0.52256
# Poissons Ratio (y) = 0.27577 0.52251
# Poissons Ratio (z) = 0.29819 0.29819
#
# Static dielectric constant tensor:
#      x y z
#    x 1.575580 0.000000 0.000000 
#    y 0.000000 1.575590 0.000000 
#    z 0.000000 0.000000 1.628610 
# 
# From -- ./inp_files/4392.got.cif
#   From: 2010.05.17/outbox.cif.g08.bks.cpg/sg119_3_cif.got.tgz:4392.got - 2010.05.20 11:21:29.
