data_PCOD9559936
_publ_section_title
;
Structure prediction by ZEFSAII (Michael W. Deem and Ramdas Pophale) SiO2 
 PCOD9559936
Probable space group: I -4 C 2
;
_chemical_formula_sum "Si O2"
_cell_formula_units_Z 96
_cell_length_a 22.930485
_cell_length_b 22.930485
_cell_length_c 8.572693
_cell_angle_alpha 90.000000
_cell_angle_beta 90.000000
_cell_angle_gamma 90.000000
_cell_volume 4507.583208
_symmetry_space_group_name_H-M "I -4 C 2"
_symmetry_group_IT_number 120
_symmetry_cell_setting 'tetragonal'
loop_
_space_group_symop_operation_xyz
x,y,z
y,-x,-z
-x,-y,z
-y,x,-z
y,x,1/2-z
-y,-x,1/2-z
-x,y,1/2+z
x,-y,1/2+z
1/2+x,1/2+y,1/2+z
1/2+y,1/2-x,1/2-z
1/2-x,1/2-y,1/2+z
1/2-y,1/2+x,1/2-z
1/2+y,1/2+x,-z
1/2-y,1/2-x,-z
1/2-x,1/2+y,z
1/2+x,1/2-y,z
loop_
_atom_site_type_symbol
_atom_site_label
_atom_site_fract_x
_atom_site_fract_y
_atom_site_fract_z
Si Si1 0.500000 0.000000 0.250000
Si Si2 0.384576 0.545991 0.870453
Si Si3 0.072926 0.572926 0.000000
Si Si4 0.000000 0.000000 0.500000
Si Si5 0.967674 0.776264 0.198573
Si Si6 0.848110 0.133481 0.926469
Si Si7 0.817420 0.244037 0.117692
Si Si8 0.711203 0.061388 0.479956
O O1 0.455596 0.961712 0.354651
O O2 0.405900 0.594101 0.750000
O O3 0.330231 0.513480 0.793385
O O4 0.439855 0.504621 0.903912
O O5 0.374278 0.583905 0.026460
O O6 0.064561 0.642661 0.985810
O O7 0.921692 0.805719 0.080111
O O8 0.941659 0.750226 0.359927
O O9 0.002755 0.725275 0.113779
O O10 0.845420 0.154581 0.750000
O O11 0.824371 0.180813 0.042774
O O12 0.769890 0.230111 0.250000
O O13 0.883881 0.267997 0.128384
O O14 0.788989 0.288989 0.000000
#
# Coordination Sequence:
#
# PCOD9559936 Si02
#       8
#     4  16   8   4  16  16  16  16
#     4  10  24  50  84 114 156 178 220 286 376 450
#     4  12  25  40  61  93 138 189 255 311 362 424
#     4  11  24  50  80 116 148 186 226 288 366 451
#     4  12  26  36  60  90 130 204 256 326 354 428
#     4  12  25  42  70 105 144 198 242 308 368 423
#     4  12  24  44  68  97 141 193 240 298 363 419
#     4  12  27  48  73 100 140 191 237 298 357 433
#     4  12  26  45  76 108 150 187 249 300 361 450
#
# _framework density 21.297443999999999
#
# number of rings (size 3 to 8) (size 9 to 14) (size 15 to 20)
#    0.000    0.167    5.833    3.250    4.667    0.000 
#    0.000    0.000    0.000    0.000    0.000    0.000 
#    0.000    0.000    0.000    0.000    0.000    0.000 
#
# Total GULP energy -267995.706424 kJ/mol
# GULP energy per Si atom -5583.243884 kJ/mol
# Density = 2.124897 g / cm^3
# Si number density = 21.297444 Si / 1000 Ang^3
#
#
#
# Elastic Constant Matrix: (Units=GPa)
#
#
# Indices 1 2 3 4 5 6 
#
# 1 138.1260 21.0361 12.8233 0.0000 0.0000 0.0000
# 2 21.0361 138.1380 12.8291 0.0000 0.0000 0.0000
# 3 12.8233 12.8291 41.9768 0.0000 0.0000 0.0000
# 4 0.0000 0.0000 0.0000 21.8417 0.0000 0.0000
# 5 0.0000 0.0000 0.0000 0.0000 21.8435 0.0000
# 6 0.0000 0.0000 0.0000 0.0000 0.0000 47.0129
#
#
#
# Elastic Compliance Matrix: (Units=1/GPa)
#
#
# Indices 1 2 3 4 5 6 
#
# 1 0.007574 -0.000966 -0.002019 0.000000 0.000000 0.000000
# 2 -0.000966 0.007574 -0.002020 0.000000 0.000000 0.000000
# 3 -0.002019 -0.002020 0.025057 0.000000 0.000000 0.000000
# 4 0.000000 0.000000 0.000000 0.045784 0.000000 0.000000
# 5 0.000000 0.000000 0.000000 0.000000 0.045780 0.000000
# 6 0.000000 0.000000 0.000000 0.000000 0.000000 0.021271
#
#
# Mechanical properties :
#
#
# Convention : Reuss Voigt Hill
#
# Bulk Modulus (GPa) = 33.11675 45.73533 39.42604
# Shear Modulus (GPa) = 28.88281 36.24311 32.56296
#
# Velocity S-wave (km/s) = 3.68661 4.12971 3.91444
# Velocity P-wave (km/s) = 5.80559 6.65286 6.24361
#
# Compressibility (1/GPa) = 0.03019620
#
# Stress axis : x y z
#
# Youngs Moduli (GPa) = 132.02569 132.03395 39.90969
#
# Poissons Ratio (x) = 0.12754 0.08056
# Poissons Ratio (y) = 0.12753 0.08060
# Poissons Ratio (z) = 0.26651 0.26666
#
# Static dielectric constant tensor:
#      x y z
#    x 1.833760 0.000000 0.000000 
#    y 0.000000 1.833760 0.000000 
#    z 0.000000 0.000000 1.720000 
# 
# From -- ./inp_files/1604.got.cif
#   From: 2010.05.17/outbox.cif.g08.bks.cpg/sg120_1_cif.got.tgz:1604.got - 2010.05.20 11:28:13.
