data_PCOD9559721
_publ_section_title
;
Structure prediction by ZEFSAII (Michael W. Deem and Ramdas Pophale) SiO2 
 PCOD9559721
Probable space group: I -4 C 2
;
_chemical_formula_sum "Si O2"
_cell_formula_units_Z 120
_cell_length_a 20.566208
_cell_length_b 20.566208
_cell_length_c 14.063826
_cell_angle_alpha 90.000000
_cell_angle_beta 90.000000
_cell_angle_gamma 90.000000
_cell_volume 5948.561175
_symmetry_space_group_name_H-M "I -4 C 2"
_symmetry_group_IT_number 120
_symmetry_cell_setting 'tetragonal'
loop_
_space_group_symop_operation_xyz
x,y,z
y,-x,-z
-x,-y,z
-y,x,-z
y,x,1/2-z
-y,-x,1/2-z
-x,y,1/2+z
x,-y,1/2+z
1/2+x,1/2+y,1/2+z
1/2+y,1/2-x,1/2-z
1/2-x,1/2-y,1/2+z
1/2-y,1/2+x,1/2-z
1/2+y,1/2+x,-z
1/2-y,1/2-x,-z
1/2-x,1/2+y,z
1/2+x,1/2-y,z
loop_
_atom_site_type_symbol
_atom_site_label
_atom_site_fract_x
_atom_site_fract_y
_atom_site_fract_z
Si Si1 0.904410 0.451475 0.746066
Si Si2 0.561855 0.257431 0.265586
Si Si3 0.757197 0.026521 0.952685
Si Si4 0.590051 0.409950 0.250000
Si Si5 0.410226 0.481842 0.948995
Si Si6 0.709938 0.926086 0.638239
Si Si7 0.321802 0.099709 0.924840
Si Si8 0.805983 0.702448 0.721347
O O1 0.916049 0.527571 0.751874
O O2 0.866879 0.436651 0.649361
O O3 0.860753 0.429349 0.834646
O O4 0.549239 0.245148 0.154237
O O5 0.578421 0.334113 0.277519
O O6 0.493219 0.240628 0.317524
O O7 0.626224 0.214892 0.288717
O O8 0.833888 0.018665 0.963574
O O9 0.721885 0.957393 0.966908
O O10 0.732332 0.076811 0.030765
O O11 0.545821 0.423949 0.156927
O O12 0.438034 0.553005 0.972313
O O13 0.720337 0.861055 0.699905
O O14 0.281138 0.159021 0.878646
O O15 0.371729 0.128272 0.000000
O O16 0.742977 0.742977 0.750000
#
# Coordination Sequence:
#
# PCOD9559721 Si02
#       8
#    16  16  16   8  16  16  16  16
#     4  10  20  38  62  89 127 170 218 275 330 381
#     4  11  21  44  66  95 133 181 228 272 349 410
#     4  11  23  40  66  97 131 182 223 272 348 406
#     4  10  22  41  72  92 130 188 208 283 350 410
#     4  10  23  42  65  98 131 165 225 276 336 414
#     4  11  22  40  65  91 133 174 218 278 330 399
#     4  11  23  41  66  95 131 179 229 274 340 409
#     4  11  24  43  66  99 135 175 227 287 343 407
#
# _framework density 20.172944999999999
#
# number of rings (size 3 to 8) (size 9 to 14) (size 15 to 20)
#    0.000    1.333    3.333    4.000    0.000    2.667 
#    2.400    4.000    0.000    0.000    0.000    0.000 
#    0.000    0.000    0.000    0.000    0.000    0.000 
#
# Total GULP energy -334901.747715 kJ/mol
# GULP energy per Si atom -5581.695795 kJ/mol
# Density = 2.012703 g / cm^3
# Si number density = 20.172945 Si / 1000 Ang^3
#
#
#
# Elastic Constant Matrix: (Units=GPa)
#
#
# Indices 1 2 3 4 5 6 
#
# 1 114.6805 -12.8804 18.6189 0.0000 0.0000 0.0000
# 2 -12.8804 114.6814 18.6159 0.0000 0.0000 0.0000
# 3 18.6189 18.6159 79.8089 0.0000 0.0000 0.0000
# 4 0.0000 0.0000 0.0000 26.5051 0.0000 0.0000
# 5 0.0000 0.0000 0.0000 0.0000 26.5039 0.0000
# 6 0.0000 0.0000 0.0000 0.0000 0.0000 -1.1499
#
#
#
# Elastic Compliance Matrix: (Units=1/GPa)
#
#
# Indices 1 2 3 4 5 6 
#
# 1 0.009290 0.001450 -0.002505 0.000000 0.000000 0.000000
# 2 0.001450 0.009289 -0.002505 0.000000 0.000000 0.000000
# 3 -0.002505 -0.002505 0.013699 0.000000 0.000000 0.000000
# 4 0.000000 0.000000 0.000000 0.037729 0.000000 0.000000
# 5 0.000000 0.000000 0.000000 0.000000 0.037730 0.000000
# 6 0.000000 0.000000 0.000000 0.000000 0.000000 -0.869630
#
#
# Mechanical properties :
#
#
# Convention : Reuss Voigt Hill
#
# Bulk Modulus (GPa) = 39.75086 39.76439 39.75763
# Shear Modulus (GPa) = -6.69893 29.35959 11.33033
#
# Velocity S-wave (km/s) = -1.82427 3.81910 2.37251
# Velocity P-wave (km/s) = 3.91287 6.26114 5.22075
#
# Compressibility (1/GPa) = 0.02515669
#
# Stress axis : x y z
#
# Youngs Moduli (GPa) = 107.64840 107.65062 72.99938
#
# Poissons Ratio (x) = -0.15610 0.18289
# Poissons Ratio (y) = -0.15609 0.18287
# Poissons Ratio (z) = 0.26970 0.26967
#
# Static dielectric constant tensor:
#      x y z
#    x 1.731640 0.000000 0.000000 
#    y 0.000000 1.731640 0.000000 
#    z 0.000000 0.000000 1.716160 
# 
# From -- ./inp_files/3721.got.cif
#   From: 2010.05.17/outbox.cif.g08.bks.cpg/sg120_2_cif.got.tgz:3721.got - 2010.05.20 11:28:13.
