data_PCOD9559581
_publ_section_title
;
Structure prediction by ZEFSAII (Michael W. Deem and Ramdas Pophale) SiO2 
 PCOD9559581
Probable space group: I -4 C 2
;
_chemical_formula_sum "Si O2"
_cell_formula_units_Z 96
_cell_length_a 22.430759
_cell_length_b 22.430759
_cell_length_c 8.157882
_cell_angle_alpha 90.000000
_cell_angle_beta 90.000000
_cell_angle_gamma 90.000000
_cell_volume 4104.548178
_symmetry_space_group_name_H-M "I -4 C 2"
_symmetry_group_IT_number 120
_symmetry_cell_setting 'tetragonal'
loop_
_space_group_symop_operation_xyz
x,y,z
y,-x,-z
-x,-y,z
-y,x,-z
y,x,1/2-z
-y,-x,1/2-z
-x,y,1/2+z
x,-y,1/2+z
1/2+x,1/2+y,1/2+z
1/2+y,1/2-x,1/2-z
1/2-x,1/2-y,1/2+z
1/2-y,1/2+x,1/2-z
1/2+y,1/2+x,-z
1/2-y,1/2-x,-z
1/2-x,1/2+y,z
1/2+x,1/2-y,z
loop_
_atom_site_type_symbol
_atom_site_label
_atom_site_fract_x
_atom_site_fract_y
_atom_site_fract_z
Si Si1 0.645533 0.979958 0.445367
Si Si2 0.250218 0.114280 0.795131
Si Si3 0.370899 0.701401 0.363583
Si Si4 0.021885 0.222130 0.112998
Si Si5 0.591586 0.117497 0.746507
Si Si6 0.858144 0.096248 0.090420
O O1 0.715347 0.973404 0.482432
O O2 0.634198 0.937270 0.287287
O O3 0.613044 0.954214 0.601902
O O4 0.625083 0.046619 0.404844
O O5 0.318229 0.123024 0.742737
O O6 0.202789 0.129965 0.653721
O O7 0.228818 0.045079 0.821877
O O8 0.243077 0.139743 0.979170
O O9 0.314050 0.685951 0.250000
O O10 0.426870 0.720789 0.252404
O O11 0.385342 0.637879 0.450119
O O12 0.036606 0.165958 0.996295
O O13 0.900739 0.099262 0.250000
#
# Coordination Sequence:
#
# PCOD9559581 Si02
#       6
#    16  16  16  16  16  16
#     4  10  22  38  57  82 113 146 191 234 287 336
#     4  10  18  32  56  81 109 148 186 230 280 328
#     4   9  19  31  50  79 116 142 177 233 284 326
#     4  10  18  32  54  83 109 143 186 234 273 331
#     4  10  22  38  57  83 111 149 189 238 284 338
#     4   9  17  31  50  77 112 143 174 229 285 326
#
# _framework density 23.388688999999999
#
# number of rings (size 3 to 8) (size 9 to 14) (size 15 to 20)
#    0.000    2.333    1.667    1.000    7.000    1.000 
#    0.000    1.667    0.000   15.000    0.000    0.000 
#    0.000  616.000    0.000    0.000    0.000    0.000 
#
# Total GULP energy -267497.334389 kJ/mol
# GULP energy per Si atom -5572.861133 kJ/mol
# Density = 2.333546 g / cm^3
# Si number density = 23.388689 Si / 1000 Ang^3
#
#
#
# Elastic Constant Matrix: (Units=GPa)
#
#
# Indices 1 2 3 4 5 6 
#
# 1 49.9523 34.9455 0.9821 0.0000 0.0000 0.0000
# 2 34.9455 49.9523 0.9818 0.0000 0.0000 0.0000
# 3 0.9821 0.9818 86.6124 0.0000 0.0000 0.0000
# 4 0.0000 0.0000 0.0000 31.9533 0.0000 0.0000
# 5 0.0000 0.0000 0.0000 0.0000 31.9535 0.0000
# 6 0.0000 0.0000 0.0000 0.0000 0.0000 22.7826
#
#
#
# Elastic Compliance Matrix: (Units=1/GPa)
#
#
# Indices 1 2 3 4 5 6 
#
# 1 0.039209 -0.027427 -0.000134 0.000000 0.000000 0.000000
# 2 -0.027427 0.039209 -0.000133 0.000000 0.000000 0.000000
# 3 -0.000134 -0.000133 0.011549 0.000000 0.000000 0.000000
# 4 0.000000 0.000000 0.000000 0.031296 0.000000 0.000000
# 5 0.000000 0.000000 0.000000 0.000000 0.031295 0.000000
# 6 0.000000 0.000000 0.000000 0.000000 0.000000 0.043893
#
#
# Mechanical properties :
#
#
# Convention : Reuss Voigt Hill
#
# Bulk Modulus (GPa) = 28.91984 28.92619 28.92301
# Shear Modulus (GPa) = 18.98497 27.31174 23.14836
#
# Velocity S-wave (km/s) = 2.85215 3.42092 3.14940
# Velocity P-wave (km/s) = 4.82059 5.29132 5.06143
#
# Compressibility (1/GPa) = 0.03457834
#
# Stress axis : x y z
#
# Youngs Moduli (GPa) = 25.50421 25.50425 86.58971
#
# Poissons Ratio (x) = 0.69951 0.01158
# Poissons Ratio (y) = 0.69951 0.01155
# Poissons Ratio (z) = 0.00341 0.00340
#
# Static dielectric constant tensor:
#      x y z
#    x 1.929390 0.000000 0.000000 
#    y 0.000000 1.929390 0.000000 
#    z 0.000000 0.000000 2.015730 
# 
# From -- ./inp_files/1527.got.cif
#   From: 2010.05.17/outbox.cif.g08.bks.cpg/sg120_1_cif.got.tgz:1527.got - 2010.05.20 11:28:13.
