data_PCOD9559392
_publ_section_title
;
Structure prediction by ZEFSAII (Michael W. Deem and Ramdas Pophale) SiO2 
 PCOD9559392
Probable space group: I -4 M 2
;
_chemical_formula_sum "Si O2"
_cell_formula_units_Z 48
_cell_length_a 13.414794
_cell_length_b 13.414794
_cell_length_c 11.950326
_cell_angle_alpha 90.000000
_cell_angle_beta 90.000000
_cell_angle_gamma 90.000000
_cell_volume 2150.541208
_symmetry_space_group_name_H-M "I -4 M 2"
_symmetry_group_IT_number 119
_symmetry_cell_setting 'tetragonal'
loop_
_space_group_symop_operation_xyz
x,y,z
y,-x,-z
-x,-y,z
-y,x,-z
y,x,-z
-y,-x,-z
-x,y,z
x,-y,z
1/2+x,1/2+y,1/2+z
1/2+y,1/2-x,1/2-z
1/2-x,1/2-y,1/2+z
1/2-y,1/2+x,1/2-z
1/2+y,1/2+x,1/2-z
1/2-y,1/2-x,1/2-z
1/2-x,1/2+y,1/2+z
1/2+x,1/2-y,1/2+z
loop_
_atom_site_type_symbol
_atom_site_label
_atom_site_fract_x
_atom_site_fract_y
_atom_site_fract_z
Si Si1 0.612859 0.819830 0.629695
Si Si2 0.890990 0.188353 0.800696
Si Si3 0.184731 0.613685 0.904459
O O1 0.500000 0.839970 0.593654
O O2 0.632116 0.867885 0.750000
O O3 0.630159 0.701890 0.648274
O O4 0.686262 0.862647 0.535686
O O5 0.884053 0.298740 0.855073
O O6 0.877737 0.213936 0.668879
O O7 0.000000 0.144865 0.820695
O O8 0.149689 0.500000 0.888774
#
# Coordination Sequence:
#
# PCOD9559392 Si02
#       3
#    16  16  16
#     4  12  25  41  63  94 135 170 210 267 330 392
#     4  10  22  41  67  94 125 169 219 269 317 377
#     4  10  21  40  65  92 126 165 212 263 316 378
#
# _framework density 22.319963999999999
#
# number of rings (size 3 to 8) (size 9 to 14) (size 15 to 20)
#    0.000    1.333    3.333    3.000    0.000    6.333 
#    0.000    6.667    0.000    4.000    0.000    4.667 
#    0.000    0.000    0.000    0.000    0.000    0.000 
#
# Total GULP energy -134024.832007 kJ/mol
# GULP energy per Si atom -5584.368000 kJ/mol
# Density = 2.226916 g / cm^3
# Si number density = 22.319964 Si / 1000 Ang^3
#
#
#
# Elastic Constant Matrix: (Units=GPa)
#
#
# Indices 1 2 3 4 5 6 
#
# 1 57.4118 -2.7101 -5.5469 0.0000 0.0000 0.0000
# 2 -2.7101 57.4113 -5.5469 0.0000 0.0000 0.0000
# 3 -5.5469 -5.5469 117.3664 0.0000 0.0000 0.0000
# 4 0.0000 0.0000 0.0000 18.0423 0.0000 0.0000
# 5 0.0000 0.0000 0.0000 0.0000 18.0423 0.0000
# 6 0.0000 0.0000 0.0000 0.0000 0.0000 7.4826
#
#
#
# Elastic Compliance Matrix: (Units=1/GPa)
#
#
# Indices 1 2 3 4 5 6 
#
# 1 0.017545 0.000913 0.000872 0.000000 0.000000 0.000000
# 2 0.000913 0.017546 0.000872 0.000000 0.000000 0.000000
# 3 0.000872 0.000872 0.008603 0.000000 0.000000 0.000000
# 4 0.000000 0.000000 0.000000 0.055425 0.000000 0.000000
# 5 0.000000 0.000000 0.000000 0.000000 0.055425 0.000000
# 6 0.000000 0.000000 0.000000 0.000000 0.000000 0.133643
#
#
# Mechanical properties :
#
#
# Convention : Reuss Voigt Hill
#
# Bulk Modulus (GPa) = 20.40479 22.73131 21.56805
# Shear Modulus (GPa) = 16.71072 25.11301 20.91186
#
# Velocity S-wave (km/s) = 2.73919 3.35794 3.06422
# Velocity P-wave (km/s) = 4.37790 5.02402 4.71205
#
# Compressibility (1/GPa) = 0.04900810
#
# Stress axis : x y z
#
# Youngs Moduli (GPa) = 56.99511 56.99458 116.24143
#
# Poissons Ratio (x) = -0.05201 -0.10140
# Poissons Ratio (y) = -0.05201 -0.10140
# Poissons Ratio (z) = -0.04972 -0.04972
#
# Static dielectric constant tensor:
#      x y z
#    x 1.799030 0.000000 0.000000 
#    y 0.000000 1.799030 0.000000 
#    z 0.000000 0.000000 1.903370 
# 
# From -- ./inp_files/3321.got.cif
#   From: 2010.05.17/outbox.cif.g08.bks.cpg/sg119_2_cif.got.tgz:3321.got - 2010.05.20 11:21:29.
