data_PCOD9559452
_publ_section_title
;
Structure prediction by ZEFSAII (Michael W. Deem and Ramdas Pophale) SiO2 
 PCOD9559452
Probable space group: I -4 M 2
;
_chemical_formula_sum "Si O2"
_cell_formula_units_Z 42
_cell_length_a 13.975367
_cell_length_b 13.975367
_cell_length_c 10.475229
_cell_angle_alpha 90.000000
_cell_angle_beta 90.000000
_cell_angle_gamma 90.000000
_cell_volume 2045.926223
_symmetry_space_group_name_H-M "I -4 M 2"
_symmetry_group_IT_number 119
_symmetry_cell_setting 'tetragonal'
loop_
_space_group_symop_operation_xyz
x,y,z
y,-x,-z
-x,-y,z
-y,x,-z
y,x,-z
-y,-x,-z
-x,y,z
x,-y,z
1/2+x,1/2+y,1/2+z
1/2+y,1/2-x,1/2-z
1/2-x,1/2-y,1/2+z
1/2-y,1/2+x,1/2-z
1/2+y,1/2+x,1/2-z
1/2-y,1/2-x,1/2-z
1/2-x,1/2+y,1/2+z
1/2+x,1/2-y,1/2+z
loop_
_atom_site_type_symbol
_atom_site_label
_atom_site_fract_x
_atom_site_fract_y
_atom_site_fract_z
Si Si1 0.000000 0.500000 0.250000
Si Si2 0.881963 0.000000 0.207349
Si Si3 0.792472 0.813103 0.858125
Si Si4 0.791529 0.500000 0.230662
Si Si5 0.658473 0.500000 0.985855
O O1 0.100528 0.500000 0.180048
O O2 0.850189 0.097942 0.141508
O O3 0.819284 0.000000 0.337243
O O4 0.000000 0.000000 0.227612
O O5 0.764673 0.735328 0.750000
O O6 0.732624 0.907164 0.815903
O O7 0.773507 0.773507 0.000000
O O8 0.728842 0.500000 0.103569
O O9 0.592517 0.407484 0.000000
#
# Coordination Sequence:
#
# PCOD9559452 Si02
#       5
#     2   8  16   8   8
#     4  12  28  44  60  96 138 192 236 256 346 440
#     4  12  23  41  75 109 139 176 239 308 350 408
#     4  12  27  44  69 104 141 181 232 292 360 414
#     4  12  24  44  71  97 142 184 230 288 344 427
#     4  11  18  36  69 112 135 171 223 290 360 405
#
# _framework density 20.528597999999999
#
# number of rings (size 3 to 8) (size 9 to 14) (size 15 to 20)
#    0.000    0.190    9.524    1.143    5.333    0.000 
#    0.000    0.000    0.000    0.571    0.000    0.000 
#    0.000    0.000    0.000    0.000    0.000    0.000 
#
# Total GULP energy -117172.120276 kJ/mol
# GULP energy per Si atom -5579.624775 kJ/mol
# Density = 2.048187 g / cm^3
# Si number density = 20.528598 Si / 1000 Ang^3
#
#
#
# Elastic Constant Matrix: (Units=GPa)
#
#
# Indices 1 2 3 4 5 6 
#
# 1 108.6450 49.0739 41.4546 0.0000 0.0000 0.0000
# 2 49.0739 108.6476 41.4546 0.0000 0.0000 0.0000
# 3 41.4546 41.4546 176.6650 0.0000 0.0000 0.0000
# 4 0.0000 0.0000 0.0000 3.8019 0.0000 0.0000
# 5 0.0000 0.0000 0.0000 0.0000 3.8100 0.0000
# 6 0.0000 0.0000 0.0000 0.0000 0.0000 29.2799
#
#
#
# Elastic Compliance Matrix: (Units=1/GPa)
#
#
# Indices 1 2 3 4 5 6 
#
# 1 0.012010 -0.004777 -0.001697 0.000000 0.000000 0.000000
# 2 -0.004777 0.012009 -0.001697 0.000000 0.000000 0.000000
# 3 -0.001697 -0.001697 0.006457 0.000000 0.000000 0.000000
# 4 0.000000 0.000000 0.000000 0.263029 0.000000 0.000000
# 5 0.000000 0.000000 0.000000 0.000000 0.262466 0.000000
# 6 0.000000 0.000000 0.000000 0.000000 0.000000 0.034153
#
#
# Mechanical properties :
#
#
# Convention : Reuss Voigt Hill
#
# Bulk Modulus (GPa) = 70.75442 73.10266 71.92854
# Shear Modulus (GPa) = 8.18095 24.84334 16.51215
#
# Velocity S-wave (km/s) = 1.99845 3.48254 2.83918
# Velocity P-wave (km/s) = 6.31397 7.20127 6.77216
#
# Compressibility (1/GPa) = 0.01413339
#
# Stress axis : x y z
#
# Youngs Moduli (GPa) = 83.26722 83.26939 154.87349
#
# Poissons Ratio (x) = 0.39777 0.26284
# Poissons Ratio (y) = 0.39776 0.26283
# Poissons Ratio (z) = 0.14132 0.14131
#
# Static dielectric constant tensor:
#      x y z
#    x 1.792550 0.000000 0.000000 
#    y 0.000000 1.792580 0.000000 
#    z 0.000000 0.000000 1.794710 
# 
# From -- ./inp_files/1619.got.cif
#   From: 2010.05.17/outbox.cif.g08.bks.cpg/sg119_1_cif.got.tgz:1619.got - 2010.05.20 11:21:29.
