data_PCOD9559543
_publ_section_title
;
Structure prediction by ZEFSAII (Michael W. Deem and Ramdas Pophale) SiO2 
 PCOD9559543
Probable space group: I -4 M 2
;
_chemical_formula_sum "Si O2"
_cell_formula_units_Z 48
_cell_length_a 7.705062
_cell_length_b 7.705062
_cell_length_c 39.813810
_cell_angle_alpha 90.000000
_cell_angle_beta 90.000000
_cell_angle_gamma 90.000000
_cell_volume 2363.665493
_symmetry_space_group_name_H-M "I -4 M 2"
_symmetry_group_IT_number 119
_symmetry_cell_setting 'tetragonal'
loop_
_space_group_symop_operation_xyz
x,y,z
y,-x,-z
-x,-y,z
-y,x,-z
y,x,-z
-y,-x,-z
-x,y,z
x,-y,z
1/2+x,1/2+y,1/2+z
1/2+y,1/2-x,1/2-z
1/2-x,1/2-y,1/2+z
1/2-y,1/2+x,1/2-z
1/2+y,1/2+x,1/2-z
1/2-y,1/2-x,1/2-z
1/2-x,1/2+y,1/2+z
1/2+x,1/2-y,1/2+z
loop_
_atom_site_type_symbol
_atom_site_label
_atom_site_fract_x
_atom_site_fract_y
_atom_site_fract_z
Si Si1 0.289921 0.500000 0.802410
Si Si2 0.205955 0.705955 0.250000
Si Si3 0.211816 0.690142 0.426486
Si Si4 0.786861 0.000000 0.378869
Si Si5 0.792926 0.792926 0.500000
O O1 0.500000 0.500000 0.804212
O O2 0.243441 0.328857 0.781113
O O3 0.225934 0.500000 0.840557
O O4 0.231305 0.500000 0.256911
O O5 0.260431 0.500000 0.414757
O O6 0.269415 0.834928 0.400559
O O7 0.271365 0.717286 0.464837
O O8 0.000000 0.700963 0.427986
O O9 0.000000 0.000000 0.378279
O O10 0.000000 0.764229 0.502080
#
# Coordination Sequence:
#
# PCOD9559543 Si02
#       5
#     8   8  16   8   8
#     4   9  18  31  51  77 110 147 183 228 275 333
#     4   9  18  33  52  80 112 141 182 227 270 324
#     4   9  16  25  41  69 101 136 179 222 270 323
#     4   9  16  28  43  71 109 138 173 225 276 321
#     4   9  14  24  42  63  94 134 176 227 270 311
#
# _framework density 20.307442000000002
#
# number of rings (size 3 to 8) (size 9 to 14) (size 15 to 20)
#    0.000    3.000    1.667    0.000    0.000    1.667 
#    0.000    6.667    0.000    0.500    8.667    0.000 
#    0.000    0.000    0.000    0.000    0.000    0.000 
#
# Total GULP energy -133904.576869 kJ/mol
# GULP energy per Si atom -5579.357370 kJ/mol
# Density = 2.026122 g / cm^3
# Si number density = 20.307442 Si / 1000 Ang^3
#
#
#
# Elastic Constant Matrix: (Units=GPa)
#
#
# Indices 1 2 3 4 5 6 
#
# 1 55.6654 60.1589 70.1605 0.0000 0.0000 0.0000
# 2 60.1589 55.6654 70.1605 0.0000 0.0000 0.0000
# 3 70.1605 70.1605 210.3542 0.0000 0.0000 0.0000
# 4 0.0000 0.0000 0.0000 -17.1846 0.0000 0.0000
# 5 0.0000 0.0000 0.0000 0.0000 -17.1846 0.0000
# 6 0.0000 0.0000 0.0000 0.0000 0.0000 0.2182
#
#
#
# Elastic Compliance Matrix: (Units=1/GPa)
#
#
# Indices 1 2 3 4 5 6 
#
# 1 -0.104028 0.118516 -0.004832 0.000000 0.000000 0.000001
# 2 0.118516 -0.104028 -0.004832 0.000000 0.000000 -0.000001
# 3 -0.004832 -0.004832 0.007977 0.000000 0.000000 0.000000
# 4 0.000000 0.000000 0.000000 -0.058192 0.000000 0.000000
# 5 0.000000 0.000000 0.000000 0.000000 -0.058192 0.000000
# 6 0.000001 -0.000001 0.000000 0.000000 0.000000 4.583236
#
#
# Mechanical properties :
#
#
# Convention : Reuss Voigt Hill
#
# Bulk Modulus (GPa) = 56.73958 80.29384 68.51671
# Shear Modulus (GPa) = 1.23306 1.25014 1.24160
#
# Velocity S-wave (km/s) = 0.78007 0.78546 0.78277
# Velocity P-wave (km/s) = 5.36771 6.35984 5.88472
#
# Compressibility (1/GPa) = 0.01762438
#
# Stress axis : x y z
#
# Youngs Moduli (GPa) = -9.61280 -9.61279 125.35493
#
# Poissons Ratio (x) = 1.13927 0.60575
# Poissons Ratio (y) = 1.13927 0.60575
# Poissons Ratio (z) = -0.04645 -0.04645
#
# Static dielectric constant tensor:
#      x y z
#    x 1.732780 0.000000 0.000000 
#    y 0.000000 1.732780 0.000000 
#    z 0.000000 0.000000 1.682330 
# 
# From -- ./inp_files/9911.got.cif
#   From: 2010.05.17/outbox.cif.g08.bks.cpg/sg119_5_cif.got.tgz:9911.got - 2010.05.20 11:21:29.
