data_PCOD9559051
_publ_section_title
;
Structure prediction by ZEFSAII (Michael W. Deem and Ramdas Pophale) SiO2 
 PCOD9559051
Probable space group: I -4 M 2
;
_chemical_formula_sum "Si O2"
_cell_formula_units_Z 96
_cell_length_a 20.595778
_cell_length_b 20.595778
_cell_length_c 12.908495
_cell_angle_alpha 90.000000
_cell_angle_beta 90.000000
_cell_angle_gamma 90.000000
_cell_volume 5475.603782
_symmetry_space_group_name_H-M "I -4 M 2"
_symmetry_group_IT_number 119
_symmetry_cell_setting 'tetragonal'
loop_
_space_group_symop_operation_xyz
x,y,z
y,-x,-z
-x,-y,z
-y,x,-z
y,x,-z
-y,-x,-z
-x,y,z
x,-y,z
1/2+x,1/2+y,1/2+z
1/2+y,1/2-x,1/2-z
1/2-x,1/2-y,1/2+z
1/2-y,1/2+x,1/2-z
1/2+y,1/2+x,1/2-z
1/2-y,1/2-x,1/2-z
1/2-x,1/2+y,1/2+z
1/2+x,1/2-y,1/2+z
loop_
_atom_site_type_symbol
_atom_site_label
_atom_site_fract_x
_atom_site_fract_y
_atom_site_fract_z
Si Si1 0.727431 0.181346 0.356797
Si Si2 0.927714 0.275271 0.122175
Si Si3 0.423398 0.669183 0.202368
Si Si4 0.794514 0.328481 0.090093
Si Si5 0.426144 0.691261 0.824440
Si Si6 0.427022 0.672490 0.450132
O O1 0.688606 0.188606 0.250000
O O2 0.772137 0.117687 0.346161
O O3 0.693675 0.175501 0.467266
O O4 0.769988 0.247632 0.370573
O O5 0.865645 0.320824 0.138881
O O6 0.923310 0.217042 0.205973
O O7 0.000000 0.304413 0.133617
O O8 0.923114 0.240548 0.010572
O O9 0.500000 0.665698 0.175860
O O10 0.378631 0.608110 0.170026
O O11 0.418432 0.677232 0.327066
O O12 0.748683 0.389519 0.114526
O O13 0.500000 0.686491 0.857847
O O14 0.374218 0.625783 0.500000
O O15 0.500000 0.646841 0.469201
#
# Coordination Sequence:
#
# PCOD9559051 Si02
#       6
#    16  16  16  16  16  16
#     4  10  20  33  52  77 100 134 179 220 270 320
#     4  10  19  31  50  77 106 135 172 220 275 328
#     4  10  20  33  49  74 110 144 180 225 270 318
#     4  10  20  33  53  74 100 134 173 225 271 321
#     4  10  20  34  51  75 104 140 185 219 261 321
#     4  10  19  29  46  72 105 143 176 214 263 318
#
# _framework density 17.532314
#
# number of rings (size 3 to 8) (size 9 to 14) (size 15 to 20)
#    0.000    2.000    1.667    3.500    2.333    1.167 
#    0.000    1.667    0.000    0.500    0.000    7.000 
#    0.000    1.667    0.000    0.167    0.000    0.167 
#
# Total GULP energy -267477.410165 kJ/mol
# GULP energy per Si atom -5572.446045 kJ/mol
# Density = 1.749241 g / cm^3
# Si number density = 17.532314 Si / 1000 Ang^3
#
#
#
# Elastic Constant Matrix: (Units=GPa)
#
#
# Indices 1 2 3 4 5 6 
#
# 1 100.3727 55.8690 24.5221 0.0000 0.0000 0.0000
# 2 55.8690 100.3725 24.5217 0.0000 0.0000 0.0000
# 3 24.5221 24.5217 48.4555 0.0000 0.0000 0.0000
# 4 0.0000 0.0000 0.0000 15.1804 0.0000 0.0000
# 5 0.0000 0.0000 0.0000 0.0000 15.1807 0.0000
# 6 0.0000 0.0000 0.0000 0.0000 0.0000 14.5005
#
#
#
# Elastic Compliance Matrix: (Units=1/GPa)
#
#
# Indices 1 2 3 4 5 6 
#
# 1 0.015040 -0.007431 -0.003851 0.000000 0.000000 0.000000
# 2 -0.007431 0.015040 -0.003851 0.000000 0.000000 0.000000
# 3 -0.003851 -0.003851 0.024535 0.000000 0.000000 0.000000
# 4 0.000000 0.000000 0.000000 0.065875 0.000000 0.000000
# 5 0.000000 0.000000 0.000000 0.000000 0.065873 0.000000
# 6 0.000000 0.000000 0.000000 0.000000 0.000000 0.068963
#
#
# Mechanical properties :
#
#
# Convention : Reuss Voigt Hill
#
# Bulk Modulus (GPa) = 41.06741 51.00290 46.03516
# Shear Modulus (GPa) = 17.02385 18.59151 17.80768
#
# Velocity S-wave (km/s) = 3.11947 3.25993 3.19047
# Velocity P-wave (km/s) = 6.03734 6.58206 6.31557
#
# Compressibility (1/GPa) = 0.02435021
#
# Stress axis : x y z
#
# Youngs Moduli (GPa) = 66.49110 66.49129 40.75822
#
# Poissons Ratio (x) = 0.49406 0.15695
# Poissons Ratio (y) = 0.49406 0.15694
# Poissons Ratio (z) = 0.25605 0.25603
#
# Static dielectric constant tensor:
#      x y z
#    x 1.599590 0.000000 0.000000 
#    y 0.000000 1.599590 0.000000 
#    z 0.000000 0.000000 1.649320 
# 
# From -- ./inp_files/4222.got.cif
#   From: 2010.05.17/outbox.cif.g08.bks.cpg/sg119_3_cif.got.tgz:4222.got - 2010.05.20 11:21:29.
