data_PCOD9559636
_publ_section_title
;
Structure prediction by ZEFSAII (Michael W. Deem and Ramdas Pophale) SiO2 
 PCOD9559636
Probable space group: I -4 C 2
;
_chemical_formula_sum "Si O2"
_cell_formula_units_Z 60
_cell_length_a 13.435171
_cell_length_b 13.435171
_cell_length_c 12.287686
_cell_angle_alpha 90.000000
_cell_angle_beta 90.000000
_cell_angle_gamma 90.000000
_cell_volume 2217.974259
_symmetry_space_group_name_H-M "I -4 C 2"
_symmetry_group_IT_number 120
_symmetry_cell_setting 'tetragonal'
loop_
_space_group_symop_operation_xyz
x,y,z
y,-x,-z
-x,-y,z
-y,x,-z
y,x,1/2-z
-y,-x,1/2-z
-x,y,1/2+z
x,-y,1/2+z
1/2+x,1/2+y,1/2+z
1/2+y,1/2-x,1/2-z
1/2-x,1/2-y,1/2+z
1/2-y,1/2+x,1/2-z
1/2+y,1/2+x,-z
1/2-y,1/2-x,-z
1/2-x,1/2+y,z
1/2+x,1/2-y,z
loop_
_atom_site_type_symbol
_atom_site_label
_atom_site_fract_x
_atom_site_fract_y
_atom_site_fract_z
Si Si1 0.613584 0.386417 0.250000
Si Si2 0.260338 0.434374 0.308957
Si Si3 0.126689 0.375129 0.873266
Si Si4 0.500000 0.000000 0.250000
Si Si5 0.135801 0.902296 0.513791
O O1 0.644319 0.500865 0.269490
O O2 0.662536 0.362606 0.133392
O O3 0.188422 0.525859 0.344212
O O4 0.212746 0.367318 0.214891
O O5 0.288983 0.377621 0.418455
O O6 0.015502 0.411534 0.837972
O O7 0.143782 0.356219 0.000000
O O8 0.023516 0.868671 0.483988
#
# Coordination Sequence:
#
# PCOD9559636 Si02
#       5
#     8  16  16   4  16
#     4  10  20  39  58  82 118 155 200 254 314 373
#     4  10  21  36  57  86 117 154 203 253 310 375
#     4  10  19  35  56  82 116 154 196 250 311 371
#     4   8  18  32  56  82 104 148 206 248 288 362
#     4   9  19  35  59  88 117 157 207 258 306 366
#
# _framework density 27.051711999999998
#
# number of rings (size 3 to 8) (size 9 to 14) (size 15 to 20)
#    0.000    2.400    0.000    2.000    0.000    8.533 
#    0.000   12.000    0.000    0.000    0.000    0.000 
#    0.000    0.000    0.000    0.000    0.000    0.000 
#
# Total GULP energy -167430.999917 kJ/mol
# GULP energy per Si atom -5581.033331 kJ/mol
# Density = 2.699014 g / cm^3
# Si number density = 27.051712 Si / 1000 Ang^3
#
#
#
# Elastic Constant Matrix: (Units=GPa)
#
#
# Indices 1 2 3 4 5 6 
#
# 1 54.9744 57.8643 89.9694 0.0000 0.0000 0.0000
# 2 57.8643 54.9752 89.9691 0.0000 0.0000 0.0000
# 3 89.9694 89.9691 358.4078 0.0000 0.0000 0.0000
# 4 0.0000 0.0000 0.0000 49.8519 0.0000 0.0000
# 5 0.0000 0.0000 0.0000 0.0000 49.8516 0.0000
# 6 0.0000 0.0000 0.0000 0.0000 0.0000 56.0005
#
#
#
# Elastic Compliance Matrix: (Units=1/GPa)
#
#
# Indices 1 2 3 4 5 6 
#
# 1 -0.165655 0.180430 -0.003709 0.000000 0.000000 0.000000
# 2 0.180430 -0.165650 -0.003710 0.000000 0.000000 0.000000
# 3 -0.003709 -0.003710 0.004652 0.000000 0.000000 0.000000
# 4 0.000000 0.000000 0.000000 0.020059 0.000000 0.000000
# 5 0.000000 0.000000 0.000000 0.000000 0.020060 0.000000
# 6 0.000000 0.000000 0.000000 0.000000 0.000000 0.017857
#
#
# Mechanical properties :
#
#
# Convention : Reuss Voigt Hill
#
# Bulk Modulus (GPa) = 51.62757 104.88477 78.25617
# Shear Modulus (GPa) = -8.22043 46.51112 19.14535
#
# Velocity S-wave (km/s) = -1.74510 4.15099 2.66321
# Velocity P-wave (km/s) = 3.88146 7.86323 6.20065
#
# Compressibility (1/GPa) = 0.01936950
#
# Stress axis : x y z
#
# Youngs Moduli (GPa) = -6.03665 -6.03683 214.93865
#
# Poissons Ratio (x) = 1.08922 0.79716
# Poissons Ratio (y) = 1.08919 0.79748
# Poissons Ratio (z) = -0.02239 -0.02240
#
# Static dielectric constant tensor:
#      x y z
#    x 2.329780 0.000000 0.000000 
#    y 0.000000 2.329770 0.000000 
#    z 0.000000 0.000000 2.073310 
# 
# From -- ./inp_files/2386.got.cif
#   From: 2010.05.17/outbox.cif.g08.bks.cpg/sg120_2_cif.got.tgz:2386.got - 2010.05.20 11:28:13.
