data_PCOD9559138
_publ_section_title
;
Structure prediction by ZEFSAII (Michael W. Deem and Ramdas Pophale) SiO2 
 PCOD9559138
Probable space group: I -4 M 2
;
_chemical_formula_sum "Si O2"
_cell_formula_units_Z 104
_cell_length_a 17.015321
_cell_length_b 17.015321
_cell_length_c 17.991133
_cell_angle_alpha 90.000000
_cell_angle_beta 90.000000
_cell_angle_gamma 90.000000
_cell_volume 5208.813493
_symmetry_space_group_name_H-M "I -4 M 2"
_symmetry_group_IT_number 119
_symmetry_cell_setting 'tetragonal'
loop_
_space_group_symop_operation_xyz
x,y,z
y,-x,-z
-x,-y,z
-y,x,-z
y,x,-z
-y,-x,-z
-x,y,z
x,-y,z
1/2+x,1/2+y,1/2+z
1/2+y,1/2-x,1/2-z
1/2-x,1/2-y,1/2+z
1/2-y,1/2+x,1/2-z
1/2+y,1/2+x,1/2-z
1/2-y,1/2-x,1/2-z
1/2-x,1/2+y,1/2+z
1/2+x,1/2-y,1/2+z
loop_
_atom_site_type_symbol
_atom_site_label
_atom_site_fract_x
_atom_site_fract_y
_atom_site_fract_z
Si Si1 0.209799 0.691814 0.439228
Si Si2 0.360907 0.588318 0.748645
Si Si3 0.088471 0.088471 0.500000
Si Si4 0.587037 0.709429 0.864558
Si Si5 0.408717 0.816595 0.192596
Si Si6 0.171243 0.410189 0.564520
Si Si7 0.355467 0.382686 0.581057
O O1 0.244617 0.755384 0.500000
O O2 0.158489 0.731151 0.375731
O O3 0.159017 0.627509 0.483670
O O4 0.288588 0.650609 0.411120
O O5 0.376506 0.500000 0.777066
O O6 0.405918 0.655461 0.792448
O O7 0.268017 0.605431 0.767864
O O8 0.381936 0.588117 0.661314
O O9 0.096688 0.150466 0.434575
O O10 0.000000 0.096568 0.530579
O O11 0.500000 0.745104 0.868844
O O12 0.500000 0.818529 0.174132
O O13 0.383739 0.883739 0.250000
O O14 0.360810 0.843550 0.120434
O O15 0.142021 0.500000 0.575489
O O16 0.265675 0.412296 0.573699
O O17 0.396130 0.396130 0.500000
#
# Coordination Sequence:
#
# PCOD9559138 Si02
#       7
#    16  16   8  16  16  16  16
#     4   9  19  35  56  81 108 147 197 238 275 332
#     4  11  22  37  59  85 114 149 188 237 295 351
#     4   9  18  32  50  72 102 142 182 222 275 332
#     4  11  22  35  54  80 112 148 190 236 281 338
#     4  11  22  32  50  81 117 154 189 225 277 346
#     4  10  19  34  53  79 115 153 193 236 280 334
#     4   9  19  36  59  81 106 142 190 240 285 339
#
# _framework density 19.966159999999999
#
# number of rings (size 3 to 8) (size 9 to 14) (size 15 to 20)
#    0.000    2.231    2.308    3.231    0.000    2.615 
#    0.000    3.846    0.000    0.000    0.000    0.000 
#    0.000   24.923    0.000    0.000    0.000    0.000 
#
# Total GULP energy -289727.844878 kJ/mol
# GULP energy per Si atom -5571.689325 kJ/mol
# Density = 1.992072 g / cm^3
# Si number density = 19.966160 Si / 1000 Ang^3
#
#
#
# Elastic Constant Matrix: (Units=GPa)
#
#
# Indices 1 2 3 4 5 6 
#
# 1 26.4579 10.5937 19.2361 0.0000 0.0000 0.0000
# 2 10.5937 26.4581 19.2363 0.0000 0.0000 0.0000
# 3 19.2361 19.2363 81.0722 0.0000 0.0000 0.0000
# 4 0.0000 0.0000 0.0000 -8.8971 0.0000 0.0000
# 5 0.0000 0.0000 0.0000 0.0000 -8.8958 0.0000
# 6 0.0000 0.0000 0.0000 0.0000 0.0000 12.0654
#
#
#
# Elastic Compliance Matrix: (Units=1/GPa)
#
#
# Indices 1 2 3 4 5 6 
#
# 1 0.049424 -0.013611 -0.008497 0.000000 0.000000 0.000000
# 2 -0.013611 0.049423 -0.008497 0.000000 0.000000 0.000000
# 3 -0.008497 -0.008497 0.016367 0.000000 0.000000 0.000000
# 4 0.000000 0.000000 0.000000 -0.112396 0.000000 0.000000
# 5 0.000000 0.000000 0.000000 0.000000 -0.112412 0.000000
# 6 0.000000 0.000000 0.000000 0.000000 0.000000 0.082882
#
#
# Mechanical properties :
#
#
# Convention : Reuss Voigt Hill
#
# Bulk Modulus (GPa) = 18.51759 25.79116 22.15437
# Shear Modulus (GPa) = 95.23900 4.51596 49.87748
#
# Velocity S-wave (km/s) = 6.91403 1.50556 5.00352
# Velocity P-wave (km/s) = 8.54593 3.99597 6.67086
#
# Compressibility (1/GPa) = 0.05400271
#
# Stress axis : x y z
#
# Youngs Moduli (GPa) = 20.23323 20.23337 61.09831
#
# Poissons Ratio (x) = 0.27540 0.51917
# Poissons Ratio (y) = 0.27539 0.51918
# Poissons Ratio (z) = 0.17193 0.17193
#
# Static dielectric constant tensor:
#      x y z
#    x 1.767760 0.000000 0.000000 
#    y 0.000000 1.767760 0.000000 
#    z 0.000000 0.000000 1.765900 
# 
# From -- ./inp_files/6731.got.cif
#   From: 2010.05.17/outbox.cif.g08.bks.cpg/sg119_4_cif.got.tgz:6731.got - 2010.05.20 11:21:29.
