data_PCOD9559978
_publ_section_title
;
Structure prediction by ZEFSAII (Michael W. Deem and Ramdas Pophale) SiO2 
 PCOD9559978
Probable space group: I -4 C 2
;
_chemical_formula_sum "Si O2"
_cell_formula_units_Z 72
_cell_length_a 15.872148
_cell_length_b 15.872148
_cell_length_c 12.676554
_cell_angle_alpha 90.000000
_cell_angle_beta 90.000000
_cell_angle_gamma 90.000000
_cell_volume 3193.541908
_symmetry_space_group_name_H-M "I -4 C 2"
_symmetry_group_IT_number 120
_symmetry_cell_setting 'tetragonal'
loop_
_space_group_symop_operation_xyz
x,y,z
y,-x,-z
-x,-y,z
-y,x,-z
y,x,1/2-z
-y,-x,1/2-z
-x,y,1/2+z
x,-y,1/2+z
1/2+x,1/2+y,1/2+z
1/2+y,1/2-x,1/2-z
1/2-x,1/2-y,1/2+z
1/2-y,1/2+x,1/2-z
1/2+y,1/2+x,-z
1/2-y,1/2-x,-z
1/2-x,1/2+y,z
1/2+x,1/2-y,z
loop_
_atom_site_type_symbol
_atom_site_label
_atom_site_fract_x
_atom_site_fract_y
_atom_site_fract_z
Si Si1 0.130404 0.216052 0.837565
Si Si2 0.948257 0.806949 0.224905
Si Si3 0.066149 0.112368 0.008212
Si Si4 0.373426 0.873426 0.000000
Si Si5 0.548996 0.878005 0.707197
O O1 0.202173 0.202173 0.750000
O O2 0.130455 0.298264 0.913164
O O3 0.041342 0.196469 0.777556
O O4 0.134572 0.144276 0.926921
O O5 0.880146 0.880146 0.250000
O O6 0.953599 0.821712 0.099148
O O7 0.916983 0.712079 0.245808
O O8 0.978067 0.094570 0.949173
O O9 0.451854 0.875927 0.079852
O O10 0.455742 0.895698 0.751035
#
# Coordination Sequence:
#
# PCOD9559978 Si02
#       5
#    16  16  16   8  16
#     4  12  25  44  72 110 159 202 255 319 394 475
#     4  12  24  43  74 110 152 198 259 326 397 480
#     4  11  22  38  67 107 150 205 248 302 393 477
#     4  12  26  49  78 104 152 202 265 326 386 468
#     4  11  26  49  75 104 144 201 262 324 394 468
#
# _framework density 22.545501000000002
#
# number of rings (size 3 to 8) (size 9 to 14) (size 15 to 20)
#    0.000    0.444    8.889    0.000    0.000    3.111 
#    0.000    0.000    0.000    0.000    0.000    0.000 
#    0.000    0.000    0.000    0.000    0.000    0.000 
#
# Total GULP energy -200519.165395 kJ/mol
# GULP energy per Si atom -5569.976817 kJ/mol
# Density = 2.249419 g / cm^3
# Si number density = 22.545501 Si / 1000 Ang^3
#
#
#
# Elastic Constant Matrix: (Units=GPa)
#
#
# Indices 1 2 3 4 5 6 
#
# 1 103.6129 33.5580 51.0072 0.0000 0.0000 0.0000
# 2 33.5580 103.6129 51.0072 0.0000 0.0000 0.0000
# 3 51.0072 51.0072 139.7030 0.0000 0.0000 0.0000
# 4 0.0000 0.0000 0.0000 44.3928 0.0000 0.0000
# 5 0.0000 0.0000 0.0000 0.0000 44.3928 0.0000
# 6 0.0000 0.0000 0.0000 0.0000 0.0000 13.8070
#
#
#
# Elastic Compliance Matrix: (Units=1/GPa)
#
#
# Indices 1 2 3 4 5 6 
#
# 1 0.012141 -0.002133 -0.003654 0.000000 0.000000 0.000000
# 2 -0.002133 0.012141 -0.003654 0.000000 0.000000 0.000000
# 3 -0.003654 -0.003654 0.009826 0.000000 0.000000 0.000000
# 4 0.000000 0.000000 0.000000 0.022526 0.000000 0.000000
# 5 0.000000 0.000000 0.000000 0.000000 0.022526 0.000000
# 6 0.000000 0.000000 0.000000 0.000000 0.000000 0.072427
#
#
# Mechanical properties :
#
#
# Convention : Reuss Voigt Hill
#
# Bulk Modulus (GPa) = 65.67794 68.67485 67.17640
# Shear Modulus (GPa) = 28.48266 34.60896 31.54581
#
# Velocity S-wave (km/s) = 3.55821 3.92225 3.74465
# Velocity P-wave (km/s) = 6.78790 7.14414 6.96830
#
# Compressibility (1/GPa) = 0.01522581
#
# Stress axis : x y z
#
# Youngs Moduli (GPa) = 82.36521 82.36521 101.76877
#
# Poissons Ratio (x) = 0.17572 0.37185
# Poissons Ratio (y) = 0.17572 0.37185
# Poissons Ratio (z) = 0.30095 0.30095
#
# Static dielectric constant tensor:
#      x y z
#    x 1.924600 0.000000 0.000000 
#    y 0.000000 1.924600 0.000000 
#    z 0.000000 0.000000 1.868580 
# 
# From -- ./inp_files/2455.got.cif
#   From: 2010.05.17/outbox.cif.g08.bks.cpg/sg120_2_cif.got.tgz:2455.got - 2010.05.20 11:28:13.
