data_PCOD9559297
_publ_section_title
;
Structure prediction by ZEFSAII (Michael W. Deem and Ramdas Pophale) SiO2 
 PCOD9559297
Probable space group: I -4 M 2
;
_chemical_formula_sum "Si O2"
_cell_formula_units_Z 96
_cell_length_a 14.489460
_cell_length_b 14.489460
_cell_length_c 19.986307
_cell_angle_alpha 90.000000
_cell_angle_beta 90.000000
_cell_angle_gamma 90.000000
_cell_volume 4196.014252
_symmetry_space_group_name_H-M "I -4 M 2"
_symmetry_group_IT_number 119
_symmetry_cell_setting 'tetragonal'
loop_
_space_group_symop_operation_xyz
x,y,z
y,-x,-z
-x,-y,z
-y,x,-z
y,x,-z
-y,-x,-z
-x,y,z
x,-y,z
1/2+x,1/2+y,1/2+z
1/2+y,1/2-x,1/2-z
1/2-x,1/2-y,1/2+z
1/2-y,1/2+x,1/2-z
1/2+y,1/2+x,1/2-z
1/2-y,1/2-x,1/2-z
1/2-x,1/2+y,1/2+z
1/2+x,1/2-y,1/2+z
loop_
_atom_site_type_symbol
_atom_site_label
_atom_site_fract_x
_atom_site_fract_y
_atom_site_fract_z
Si Si1 0.901480 0.111213 0.211887
Si Si2 0.398813 0.647183 0.924840
Si Si3 0.393917 0.748622 0.189050
Si Si4 0.313940 0.633442 0.433173
Si Si5 0.601616 0.864072 0.956580
Si Si6 0.608054 0.826007 0.402912
O O1 0.814511 0.149662 0.252785
O O2 0.900133 0.141818 0.135173
O O3 0.000000 0.141562 0.241074
O O4 0.898108 0.000000 0.214620
O O5 0.500000 0.620388 0.898633
O O6 0.318196 0.613345 0.876222
O O7 0.395480 0.757640 0.934319
O O8 0.389437 0.610563 0.000000
O O9 0.500000 0.762086 0.206330
O O10 0.357045 0.847756 0.166538
O O11 0.377105 0.622896 0.500000
O O12 0.206557 0.602776 0.437676
O O13 0.324881 0.743594 0.426350
O O14 0.500000 0.898224 0.932133
O O15 0.602165 0.880610 0.036577
O O16 0.500000 0.799768 0.397491
#
# Coordination Sequence:
#
# PCOD9559297 Si02
#       6
#    16  16  16  16  16  16
#     4  10  23  42  64  95 132 172 222 283 351 410
#     4  11  19  32  55  88 128 170 214 265 324 388
#     4  11  22  38  59  88 130 173 216 269 330 404
#     4  10  21  41  67  94 127 170 222 278 337 403
#     4  10  20  37  62  95 134 170 214 273 335 398
#     4  11  22  38  61  92 132 178 225 271 324 395
#
# _framework density 22.878855000000001
#
# number of rings (size 3 to 8) (size 9 to 14) (size 15 to 20)
#    0.000    1.500    3.333    2.500    0.000    7.167 
#    0.000    0.833    0.000    4.000    0.000    7.000 
#    0.000    0.000    0.000    0.000    0.000    0.000 
#
# Total GULP energy -267676.471224 kJ/mol
# GULP energy per Si atom -5576.593150 kJ/mol
# Density = 2.282678 g / cm^3
# Si number density = 22.878855 Si / 1000 Ang^3
#
#
#
# Elastic Constant Matrix: (Units=GPa)
#
#
# Indices 1 2 3 4 5 6 
#
# 1 109.6886 16.9046 10.1854 0.0000 0.0000 0.0000
# 2 16.9046 109.6876 10.1851 0.0000 0.0000 0.0000
# 3 10.1854 10.1851 96.7233 0.0000 0.0000 0.0000
# 4 0.0000 0.0000 0.0000 18.6490 0.0000 0.0000
# 5 0.0000 0.0000 0.0000 0.0000 18.6490 0.0000
# 6 0.0000 0.0000 0.0000 0.0000 0.0000 5.7975
#
#
#
# Elastic Compliance Matrix: (Units=1/GPa)
#
#
# Indices 1 2 3 4 5 6 
#
# 1 0.009407 -0.001371 -0.000846 0.000000 0.000000 0.000000
# 2 -0.001371 0.009407 -0.000846 0.000000 0.000000 0.000000
# 3 -0.000846 -0.000846 0.010517 0.000000 0.000000 0.000000
# 4 0.000000 0.000000 0.000000 0.053622 0.000000 0.000000
# 5 0.000000 0.000000 0.000000 0.000000 0.053622 0.000000
# 6 0.000000 0.000000 0.000000 0.000000 0.000000 0.172488
#
#
# Mechanical properties :
#
#
# Convention : Reuss Voigt Hill
#
# Bulk Modulus (GPa) = 43.09725 43.40553 43.25139
# Shear Modulus (GPa) = 15.48352 27.20737 21.34544
#
# Velocity S-wave (km/s) = 2.60429 3.45221 3.05778
# Velocity P-wave (km/s) = 5.28404 5.90791 5.60466
#
# Compressibility (1/GPa) = 0.02320334
#
# Stress axis : x y z
#
# Youngs Moduli (GPa) = 106.30828 106.30735 95.08437
#
# Poissons Ratio (x) = 0.14576 0.08046
# Poissons Ratio (y) = 0.14576 0.08046
# Poissons Ratio (z) = 0.08996 0.08995
#
# Static dielectric constant tensor:
#      x y z
#    x 1.911410 0.000000 0.000000 
#    y 0.000000 1.911410 0.000000 
#    z 0.000000 0.000000 1.891120 
# 
# From -- ./inp_files/7782.got.cif
#   From: 2010.05.17/outbox.cif.g08.bks.cpg/sg119_4_cif.got.tgz:7782.got - 2010.05.20 11:21:29.
