data_PCOD9559338
_publ_section_title
;
Structure prediction by ZEFSAII (Michael W. Deem and Ramdas Pophale) SiO2 
 PCOD9559338
Probable space group: I -4 M 2
;
_chemical_formula_sum "Si O2"
_cell_formula_units_Z 64
_cell_length_a 11.892488
_cell_length_b 11.892488
_cell_length_c 24.649280
_cell_angle_alpha 90.000000
_cell_angle_beta 90.000000
_cell_angle_gamma 90.000000
_cell_volume 3486.178995
_symmetry_space_group_name_H-M "I -4 M 2"
_symmetry_group_IT_number 119
_symmetry_cell_setting 'tetragonal'
loop_
_space_group_symop_operation_xyz
x,y,z
y,-x,-z
-x,-y,z
-y,x,-z
y,x,-z
-y,-x,-z
-x,y,z
x,-y,z
1/2+x,1/2+y,1/2+z
1/2+y,1/2-x,1/2-z
1/2-x,1/2-y,1/2+z
1/2-y,1/2+x,1/2-z
1/2+y,1/2+x,1/2-z
1/2-y,1/2-x,1/2-z
1/2-x,1/2+y,1/2+z
1/2+x,1/2-y,1/2+z
loop_
_atom_site_type_symbol
_atom_site_label
_atom_site_fract_x
_atom_site_fract_y
_atom_site_fract_z
Si Si1 0.788941 0.788941 0.500000
Si Si2 0.211988 0.000000 0.314698
Si Si3 0.500000 0.371287 0.305048
Si Si4 0.866529 0.366259 0.408905
Si Si5 0.632145 0.500000 0.933283
Si Si6 0.248289 0.233336 0.187856
O O1 0.679570 0.804571 0.537118
O O2 0.806670 0.892049 0.458341
O O3 0.141093 0.000000 0.369078
O O4 0.279451 0.116786 0.314974
O O5 0.138045 0.000000 0.260467
O O6 0.500000 0.500000 0.322446
O O7 0.613802 0.309843 0.322563
O O8 0.851249 0.500000 0.401998
O O9 0.819059 0.299830 0.356665
O O10 0.000000 0.342762 0.414933
O O11 0.500000 0.500000 0.945980
O O12 0.226518 0.273482 0.250000
#
# Coordination Sequence:
#
# PCOD9559338 Si02
#       6
#     8   8   8  16   8  16
#     4  12  21  38  60  89 118 152 198 246 307 362
#     4  10  21  35  60  93 122 152 199 260 303 346
#     4  10  21  39  59  86 125 169 200 238 294 369
#     4  11  24  41  61  87 122 158 198 249 300 362
#     4  12  19  32  60  92 116 146 193 253 304 360
#     4  10  22  39  62  91 121 157 202 247 303 361
#
# _framework density 18.358208000000001
#
# number of rings (size 3 to 8) (size 9 to 14) (size 15 to 20)
#    0.000    1.250    5.000    1.125    0.000    5.500 
#    2.250    3.750    2.750    0.000    0.000    0.000 
#    0.000    0.000    0.000    0.000    0.000    0.000 
#
# Total GULP energy -178572.243054 kJ/mol
# GULP energy per Si atom -5580.382595 kJ/mol
# Density = 1.831642 g / cm^3
# Si number density = 18.358208 Si / 1000 Ang^3
#
#
#
# Elastic Constant Matrix: (Units=GPa)
#
#
# Indices 1 2 3 4 5 6 
#
# 1 100.3812 49.7900 31.2205 0.0000 0.0000 0.0000
# 2 49.7900 100.3807 31.2204 0.0000 0.0000 0.0000
# 3 31.2205 31.2204 98.1185 0.0000 0.0000 0.0000
# 4 0.0000 0.0000 0.0000 29.6479 0.0000 0.0000
# 5 0.0000 0.0000 0.0000 0.0000 29.6479 0.0000
# 6 0.0000 0.0000 0.0000 0.0000 0.0000 23.7599
#
#
#
# Elastic Compliance Matrix: (Units=1/GPa)
#
#
# Indices 1 2 3 4 5 6 
#
# 1 0.013720 -0.006046 -0.002442 0.000000 0.000000 0.000000
# 2 -0.006046 0.013720 -0.002442 0.000000 0.000000 0.000000
# 3 -0.002442 -0.002442 0.011746 0.000000 0.000000 0.000000
# 4 0.000000 0.000000 0.000000 0.033729 0.000000 0.000000
# 5 0.000000 0.000000 0.000000 0.000000 0.033729 0.000000
# 6 0.000000 0.000000 0.000000 0.000000 0.000000 0.042088
#
#
# Mechanical properties :
#
#
# Convention : Reuss Voigt Hill
#
# Bulk Modulus (GPa) = 57.71382 58.14915 57.93149
# Shear Modulus (GPa) = 28.34983 29.05446 28.70215
#
# Velocity S-wave (km/s) = 3.93397 3.98256 3.95834
# Velocity P-wave (km/s) = 7.22085 7.27263 7.24679
#
# Compressibility (1/GPa) = 0.01732687
#
# Stress axis : x y z
#
# Youngs Moduli (GPa) = 72.88434 72.88395 85.13708
#
# Poissons Ratio (x) = 0.44065 0.20790
# Poissons Ratio (y) = 0.44066 0.20790
# Poissons Ratio (z) = 0.17798 0.17798
#
# Static dielectric constant tensor:
#      x y z
#    x 1.624530 0.000000 0.000000 
#    y 0.000000 1.624530 0.000000 
#    z 0.000000 0.000000 1.637810 
# 
# From -- ./inp_files/8561.got.cif
#   From: 2010.05.17/outbox.cif.g08.bks.cpg/sg119_5_cif.got.tgz:8561.got - 2010.05.20 11:21:29.
