data_PCOD9559560
_publ_section_title
;
Structure prediction by ZEFSAII (Michael W. Deem and Ramdas Pophale) SiO2 
 PCOD9559560
Probable space group: I -4 C 2
;
_chemical_formula_sum "Si O2"
_cell_formula_units_Z 76
_cell_length_a 16.484452
_cell_length_b 16.484452
_cell_length_c 10.753672
_cell_angle_alpha 90.000000
_cell_angle_beta 90.000000
_cell_angle_gamma 90.000000
_cell_volume 2922.172265
_symmetry_space_group_name_H-M "I -4 C 2"
_symmetry_group_IT_number 120
_symmetry_cell_setting 'tetragonal'
loop_
_space_group_symop_operation_xyz
x,y,z
y,-x,-z
-x,-y,z
-y,x,-z
y,x,1/2-z
-y,-x,1/2-z
-x,y,1/2+z
x,-y,1/2+z
1/2+x,1/2+y,1/2+z
1/2+y,1/2-x,1/2-z
1/2-x,1/2-y,1/2+z
1/2-y,1/2+x,1/2-z
1/2+y,1/2+x,-z
1/2-y,1/2-x,-z
1/2-x,1/2+y,z
1/2+x,1/2-y,z
loop_
_atom_site_type_symbol
_atom_site_label
_atom_site_fract_x
_atom_site_fract_y
_atom_site_fract_z
Si Si1 0.826254 0.700484 0.725187
Si Si2 0.309411 0.558501 0.506046
Si Si3 0.500000 0.000000 0.250000
Si Si4 0.814076 0.314076 0.500000
Si Si5 0.813462 0.029352 0.276060
Si Si6 0.169965 0.535021 0.127008
O O1 0.738919 0.738919 0.750000
O O2 0.884781 0.774276 0.689606
O O3 0.832053 0.631467 0.625118
O O4 0.850484 0.666494 0.862883
O O5 0.278096 0.650790 0.490557
O O6 0.352422 0.542788 0.639131
O O7 0.353114 0.520025 0.387661
O O8 0.222778 0.508585 0.520013
O O9 0.492526 0.920246 0.336948
O O10 0.731759 0.979739 0.241728
#
# Coordination Sequence:
#
# PCOD9559560 Si02
#       6
#    16  16   4   8  16  16
#     4  11  22  34  49  77 109 147 183 223 277 332
#     4   9  18  31  53  66 101 129 183 214 264 304
#     4  12  16  36  50  80  98 144 182 220 250 308
#     4  10  16  34  52  71 104 153 166 228 288 310
#     4   9  19  34  49  68  97 135 177 216 258 313
#     4  10  20  32  51  72 101 136 183 217 254 310
#
# _framework density 26.008049
#
# number of rings (size 3 to 8) (size 9 to 14) (size 15 to 20)
#    1.263    0.842    4.211    0.000    0.000    2.526 
#    0.000    1.053    0.000    0.000    0.000    0.000 
#    0.000    0.842    0.000    5.474    0.000    0.000 
#
# Total GULP energy -211545.636536 kJ/mol
# GULP energy per Si atom -5566.990435 kJ/mol
# Density = 2.594885 g / cm^3
# Si number density = 26.008049 Si / 1000 Ang^3
#
#
#
# Elastic Constant Matrix: (Units=GPa)
#
#
# Indices 1 2 3 4 5 6 
#
# 1 22.5263 44.5013 26.1254 0.0000 0.0000 0.0000
# 2 44.5013 22.5263 26.1254 0.0000 0.0000 0.0000
# 3 26.1254 26.1254 161.7140 0.0000 0.0000 0.0000
# 4 0.0000 0.0000 0.0000 18.1790 0.0000 0.0000
# 5 0.0000 0.0000 0.0000 0.0000 18.1790 0.0000
# 6 0.0000 0.0000 0.0000 0.0000 0.0000 27.9874
#
#
#
# Elastic Compliance Matrix: (Units=1/GPa)
#
#
# Indices 1 2 3 4 5 6 
#
# 1 -0.014219 0.031287 -0.002758 0.000000 0.000000 0.000000
# 2 0.031287 -0.014219 -0.002758 0.000000 0.000000 0.000000
# 3 -0.002758 -0.002758 0.007075 0.000000 0.000000 0.000000
# 4 0.000000 0.000000 0.000000 0.055009 0.000000 0.000000
# 5 0.000000 0.000000 0.000000 0.000000 0.055009 0.000000
# 6 0.000000 0.000000 0.000000 0.000000 0.000000 0.035730
#
#
# Mechanical properties :
#
#
# Convention : Reuss Voigt Hill
#
# Bulk Modulus (GPa) = 33.13200 44.47455 38.80328
# Shear Modulus (GPa) = 60.31279 20.20335 40.25807
#
# Velocity S-wave (km/s) = 4.82083 2.79016 3.93861
# Velocity P-wave (km/s) = 6.61468 5.24570 5.96956
#
# Compressibility (1/GPa) = 0.03018230
#
# Stress axis : x y z
#
# Youngs Moduli (GPa) = -70.33035 -70.33035 141.34811
#
# Poissons Ratio (x) = 2.20046 0.38977
# Poissons Ratio (y) = 2.20046 0.38977
# Poissons Ratio (z) = -0.19394 -0.19394
#
# Static dielectric constant tensor:
#      x y z
#    x 2.124590 0.000000 0.000000 
#    y 0.000000 2.124590 0.000000 
#    z 0.000000 0.000000 2.126280 
# 
# From -- ./inp_files/2635.got.cif
#   From: 2010.05.17/outbox.cif.g08.bks.cpg/sg120_2_cif.got.tgz:2635.got - 2010.05.20 11:28:13.
