data_PCOD9559393
_publ_section_title
;
Structure prediction by ZEFSAII (Michael W. Deem and Ramdas Pophale) SiO2 
 PCOD9559393
Probable space group: I -4 M 2
;
_chemical_formula_sum "Si O2"
_cell_formula_units_Z 96
_cell_length_a 15.314145
_cell_length_b 15.314145
_cell_length_c 18.967071
_cell_angle_alpha 90.000000
_cell_angle_beta 90.000000
_cell_angle_gamma 90.000000
_cell_volume 4448.215095
_symmetry_space_group_name_H-M "I -4 M 2"
_symmetry_group_IT_number 119
_symmetry_cell_setting 'tetragonal'
loop_
_space_group_symop_operation_xyz
x,y,z
y,-x,-z
-x,-y,z
-y,x,-z
y,x,-z
-y,-x,-z
-x,y,z
x,-y,z
1/2+x,1/2+y,1/2+z
1/2+y,1/2-x,1/2-z
1/2-x,1/2-y,1/2+z
1/2-y,1/2+x,1/2-z
1/2+y,1/2+x,1/2-z
1/2-y,1/2-x,1/2-z
1/2-x,1/2+y,1/2+z
1/2+x,1/2-y,1/2+z
loop_
_atom_site_type_symbol
_atom_site_label
_atom_site_fract_x
_atom_site_fract_y
_atom_site_fract_z
Si Si1 0.624040 0.902927 0.017976
Si Si2 0.679811 0.595892 0.563966
Si Si3 0.277596 0.680472 0.302713
Si Si4 0.595175 0.897315 0.851870
Si Si5 0.598809 0.708622 0.054118
Si Si6 0.598201 0.398537 0.808156
O O1 0.727752 0.904574 0.024528
O O2 0.597760 0.813648 0.056251
O O3 0.594697 0.000000 0.042335
O O4 0.598011 0.892634 0.936639
O O5 0.614104 0.614104 0.500000
O O6 0.663629 0.500000 0.595484
O O7 0.688060 0.667929 0.625146
O O8 0.263032 0.763032 0.250000
O O9 0.180187 0.650220 0.323067
O O10 0.332551 0.613118 0.255539
O O11 0.500000 0.862770 0.828761
O O12 0.599477 0.000000 0.833708
O O13 0.500000 0.680193 0.033623
O O14 0.618843 0.666529 0.129580
O O15 0.669834 0.669834 0.000000
O O16 0.500000 0.388964 0.836414
O O17 0.609128 0.500000 0.785969
#
# Coordination Sequence:
#
# PCOD9559393 Si02
#       6
#    16  16  16  16  16  16
#     4  10  21  40  65  94 130 169 214 273 337 393
#     4  11  23  42  69 100 134 177 233 292 346 406
#     4  12  25  41  65  96 135 181 224 273 342 412
#     4  10  22  40  62  91 126 164 210 263 326 399
#     4  11  23  39  66  98 132 173 223 276 329 397
#     4  10  23  43  65  93 132 178 224 271 330 399
#
# _framework density 21.581690999999999
#
# number of rings (size 3 to 8) (size 9 to 14) (size 15 to 20)
#    0.000    1.333    1.667    3.500    2.333    4.000 
#    0.000    0.833    0.000    0.000    0.000    0.000 
#    0.000   17.333    0.000    0.000    0.000    0.000 
#
# Total GULP energy -268126.577283 kJ/mol
# GULP energy per Si atom -5585.970360 kJ/mol
# Density = 2.153257 g / cm^3
# Si number density = 21.581691 Si / 1000 Ang^3
#
#
#
# Elastic Constant Matrix: (Units=GPa)
#
#
# Indices 1 2 3 4 5 6 
#
# 1 130.3018 33.2380 52.3384 0.0000 0.0000 0.0000
# 2 33.2380 130.3018 52.3384 0.0000 0.0000 0.0000
# 3 52.3384 52.3384 102.3831 0.0000 0.0000 0.0000
# 4 0.0000 0.0000 0.0000 44.3037 0.0000 0.0000
# 5 0.0000 0.0000 0.0000 0.0000 44.3038 0.0000
# 6 0.0000 0.0000 0.0000 0.0000 0.0000 24.1106
#
#
#
# Elastic Compliance Matrix: (Units=1/GPa)
#
#
# Indices 1 2 3 4 5 6 
#
# 1 0.009696 -0.000607 -0.004646 0.000000 0.000000 0.000000
# 2 -0.000607 0.009696 -0.004646 0.000000 0.000000 0.000000
# 3 -0.004646 -0.004646 0.014517 0.000000 0.000000 0.000000
# 4 0.000000 0.000000 0.000000 0.022571 0.000000 0.000000
# 5 0.000000 0.000000 0.000000 0.000000 0.022571 0.000000
# 6 0.000000 0.000000 0.000000 0.000000 0.000000 0.041476
#
#
# Mechanical properties :
#
#
# Convention : Reuss Voigt Hill
#
# Bulk Modulus (GPa) = 70.87087 70.97959 70.92523
# Shear Modulus (GPa) = 34.47598 37.54841 36.01220
#
# Velocity S-wave (km/s) = 4.00117 4.17565 4.08934
# Velocity P-wave (km/s) = 7.36583 7.49722 7.43181
#
# Compressibility (1/GPa) = 0.01411017
#
# Stress axis : x y z
#
# Youngs Moduli (GPa) = 103.14051 103.14051 68.88292
#
# Poissons Ratio (x) = 0.06261 0.32003
# Poissons Ratio (y) = 0.06261 0.32003
# Poissons Ratio (z) = 0.47920 0.47920
#
# Static dielectric constant tensor:
#      x y z
#    x 1.811220 0.000000 0.000000 
#    y 0.000000 1.811220 0.000000 
#    z 0.000000 0.000000 1.782020 
# 
# From -- ./inp_files/7816.got.cif
#   From: 2010.05.17/outbox.cif.g08.bks.cpg/sg119_4_cif.got.tgz:7816.got - 2010.05.20 11:21:29.
