data_PCOD9559430
_publ_section_title
;
Structure prediction by ZEFSAII (Michael W. Deem and Ramdas Pophale) SiO2 
 PCOD9559430
Probable space group: I -4 M 2
;
_chemical_formula_sum "Si O2"
_cell_formula_units_Z 52
_cell_length_a 13.242084
_cell_length_b 13.242084
_cell_length_c 13.387407
_cell_angle_alpha 90.000000
_cell_angle_beta 90.000000
_cell_angle_gamma 90.000000
_cell_volume 2347.519150
_symmetry_space_group_name_H-M "I -4 M 2"
_symmetry_group_IT_number 119
_symmetry_cell_setting 'tetragonal'
loop_
_space_group_symop_operation_xyz
x,y,z
y,-x,-z
-x,-y,z
-y,x,-z
y,x,-z
-y,-x,-z
-x,y,z
x,-y,z
1/2+x,1/2+y,1/2+z
1/2+y,1/2-x,1/2-z
1/2-x,1/2-y,1/2+z
1/2-y,1/2+x,1/2-z
1/2+y,1/2+x,1/2-z
1/2-y,1/2-x,1/2-z
1/2-x,1/2+y,1/2+z
1/2+x,1/2-y,1/2+z
loop_
_atom_site_type_symbol
_atom_site_label
_atom_site_fract_x
_atom_site_fract_y
_atom_site_fract_z
Si Si1 0.000000 0.500000 0.250000
Si Si2 0.500000 0.800456 0.880123
Si Si3 0.616651 0.383349 0.621854
Si Si4 0.500000 0.000000 0.250000
Si Si5 0.300455 0.000000 0.380122
Si Si6 0.217587 0.782414 0.620769
O O1 0.904009 0.500000 0.178934
O O2 0.603063 0.744009 0.853469
O O3 0.500000 0.817383 0.000001
O O4 0.617875 0.382126 0.500000
O O5 0.500000 0.360299 0.650744
O O6 0.639700 0.500000 0.650745
O O7 0.699445 0.300555 0.654938
O O8 0.404008 0.000000 0.321065
O O9 0.244007 0.896937 0.353469
O O10 0.222335 0.777666 0.500000
#
# Coordination Sequence:
#
# PCOD9559430 Si02
#       6
#     2   8  16   2   8  16
#     4  12  26  40  64  98 132 172 202 276 324 374
#     4  10  23  42  65  95 128 170 217 259 319 380
#     4   8  14  25  46  80 118 157 202 253 310 363
#     4  12  26  40  64  98 132 172 202 276 324 374
#     4  10  23  42  65  95 128 170 217 259 319 380
#     4   9  19  36  62  91 124 166 210 264 313 378
#
# _framework density 22.151045
#
# number of rings (size 3 to 8) (size 9 to 14) (size 15 to 20)
#    0.000    2.769    0.000    1.385    4.308    1.846 
#    0.000    3.077    0.000    0.000    0.000    0.000 
#    0.000    0.000    0.000    0.000    0.000    0.000 
#
# Total GULP energy -145454.910611 kJ/mol
# GULP energy per Si atom -5594.419639 kJ/mol
# Density = 2.210063 g / cm^3
# Si number density = 22.151045 Si / 1000 Ang^3
#
#
#
# Elastic Constant Matrix: (Units=GPa)
#
#
# Indices 1 2 3 4 5 6 
#
# 1 237.8013 191.7122 58.3770 0.0000 0.0000 0.0000
# 2 191.7122 237.8022 58.3769 0.0000 0.0000 0.0000
# 3 58.3770 58.3769 108.0755 0.0000 0.0000 0.0000
# 4 0.0000 0.0000 0.0000 29.9326 0.0000 0.0000
# 5 0.0000 0.0000 0.0000 0.0000 29.9326 0.0000
# 6 0.0000 0.0000 0.0000 0.0000 0.0000 44.6610
#
#
#
# Elastic Compliance Matrix: (Units=1/GPa)
#
#
# Indices 1 2 3 4 5 6 
#
# 1 0.012213 -0.009484 -0.001474 0.000000 0.000000 0.000000
# 2 -0.009484 0.012213 -0.001474 0.000000 0.000000 0.000000
# 3 -0.001474 -0.001474 0.010845 0.000000 0.000000 0.000000
# 4 0.000000 0.000000 0.000000 0.033408 0.000000 0.000000
# 5 0.000000 0.000000 0.000000 0.000000 0.033408 0.000000
# 6 0.000000 0.000000 0.000000 0.000000 0.000000 0.022391
#
#
# Mechanical properties :
#
#
# Convention : Reuss Voigt Hill
#
# Bulk Modulus (GPa) = 96.09003 133.40125 114.74564
# Shear Modulus (GPa) = 32.72002 39.25277 35.98640
#
# Velocity S-wave (km/s) = 3.84752 4.21414 4.03499
# Velocity P-wave (km/s) = 7.95056 9.16694 8.58034
#
# Compressibility (1/GPa) = 0.01040691
#
# Stress axis : x y z
#
# Youngs Moduli (GPa) = 81.88053 81.88092 92.20696
#
# Poissons Ratio (x) = 0.77656 0.13592
# Poissons Ratio (y) = 0.77655 0.13591
# Poissons Ratio (z) = 0.12069 0.12069
#
# Static dielectric constant tensor:
#      x y z
#    x 1.719610 0.000000 0.000000 
#    y 0.000000 1.719610 0.000000 
#    z 0.000000 0.000000 1.828580 
# 
# From -- ./inp_files/3580.got.cif
#   From: 2010.05.17/outbox.cif.g08.bks.cpg/sg119_2_cif.got.tgz:3580.got - 2010.05.20 11:21:29.
