data_PCOD9559573
_publ_section_title
;
Structure prediction by ZEFSAII (Michael W. Deem and Ramdas Pophale) SiO2 
 PCOD9559573
Probable space group: I -4 C 2
;
_chemical_formula_sum "Si O2"
_cell_formula_units_Z 88
_cell_length_a 30.075265
_cell_length_b 30.075265
_cell_length_c 5.390328
_cell_angle_alpha 90.000000
_cell_angle_beta 90.000000
_cell_angle_gamma 90.000000
_cell_volume 4875.667917
_symmetry_space_group_name_H-M "I -4 C 2"
_symmetry_group_IT_number 120
_symmetry_cell_setting 'tetragonal'
loop_
_space_group_symop_operation_xyz
x,y,z
y,-x,-z
-x,-y,z
-y,x,-z
y,x,1/2-z
-y,-x,1/2-z
-x,y,1/2+z
x,-y,1/2+z
1/2+x,1/2+y,1/2+z
1/2+y,1/2-x,1/2-z
1/2-x,1/2-y,1/2+z
1/2-y,1/2+x,1/2-z
1/2+y,1/2+x,-z
1/2-y,1/2-x,-z
1/2-x,1/2+y,z
1/2+x,1/2-y,z
loop_
_atom_site_type_symbol
_atom_site_label
_atom_site_fract_x
_atom_site_fract_y
_atom_site_fract_z
Si Si1 0.778089 0.721912 0.000000
Si Si2 0.180310 0.680310 0.000000
Si Si3 0.112850 0.749115 0.991127
Si Si4 0.140707 0.979201 0.769563
Si Si5 0.209166 0.153196 0.511251
Si Si6 0.512967 0.742527 0.154891
Si Si7 0.125837 0.874164 0.750000
O O1 0.798820 0.701121 0.249291
O O2 0.727505 0.704030 0.998136
O O3 0.198106 0.630074 0.002261
O O4 0.134188 0.773012 0.231311
O O5 0.061236 0.756026 0.033072
O O6 0.128280 0.769173 0.727276
O O7 0.135209 0.926635 0.724527
O O8 0.121348 0.005894 0.534958
O O9 0.192502 0.994533 0.795460
O O10 0.157249 0.143620 0.472088
O O11 0.515975 0.762967 0.430836
#
# Coordination Sequence:
#
# PCOD9559573 Si02
#       7
#     8   8  16  16  16  16   8
#     4   8  16  32  45  68 104 130 158 198 239 287
#     4   8  16  28  51  72  96 136 168 199 241 294
#     4  10  18  34  52  74 104 133 170 209 251 303
#     4  10  22  38  55  78 101 123 161 217 271 318
#     4  10  20  32  51  75 100 132 166 203 250 302
#     4  10  18  30  48  70  99 129 162 208 254 295
#     4  12  24  38  62  81 100 134 176 218 270 330
#
# _framework density 18.04881
#
# number of rings (size 3 to 8) (size 9 to 14) (size 15 to 20)
#    0.000    2.182    0.000    5.455    0.000    2.909 
#    0.000    5.455    0.000    1.636    0.000    0.000 
#    0.000    0.000    0.000    0.000    0.000    2.727 
#
# Total GULP energy -245135.487411 kJ/mol
# GULP energy per Si atom -5571.261078 kJ/mol
# Density = 1.800773 g / cm^3
# Si number density = 18.048810 Si / 1000 Ang^3
#
#
#
# Elastic Constant Matrix: (Units=GPa)
#
#
# Indices 1 2 3 4 5 6 
#
# 1 42.7642 70.2733 4.2826 0.0000 0.0000 0.0000
# 2 70.2733 42.7812 4.2881 0.0000 0.0000 0.0000
# 3 4.2826 4.2881 138.8841 0.0000 0.0000 0.0000
# 4 0.0000 0.0000 0.0000 22.2676 0.0000 0.0000
# 5 0.0000 0.0000 0.0000 0.0000 22.2676 0.0000
# 6 0.0000 0.0000 0.0000 0.0000 0.0000 19.6790
#
#
#
# Elastic Compliance Matrix: (Units=1/GPa)
#
#
# Indices 1 2 3 4 5 6 
#
# 1 -0.013751 0.022615 -0.000274 0.000000 0.000000 0.000000
# 2 0.022615 -0.013745 -0.000273 0.000000 0.000000 0.000000
# 3 -0.000274 -0.000273 0.007217 0.000000 0.000000 0.000000
# 4 0.000000 0.000000 0.000000 0.044908 0.000000 0.000000
# 5 0.000000 0.000000 0.000000 0.000000 0.044908 0.000000
# 6 0.000000 0.000000 0.000000 0.000000 0.000000 0.050815
#
#
# Mechanical properties :
#
#
# Convention : Reuss Voigt Hill
#
# Bulk Modulus (GPa) = 41.91786 42.45750 42.18768
# Shear Modulus (GPa) = 59.40372 22.54856 40.97614
#
# Velocity S-wave (km/s) = 5.74319 3.53839 4.76993
# Velocity P-wave (km/s) = 8.20086 6.34574 7.33221
#
# Compressibility (1/GPa) = 0.02385618
#
# Stress axis : x y z
#
# Youngs Moduli (GPa) = -72.72317 -72.75164 138.55918
#
# Poissons Ratio (x) = 1.64526 0.03800
# Poissons Ratio (y) = 1.64462 0.03782
# Poissons Ratio (z) = -0.01994 -0.01986
#
# Static dielectric constant tensor:
#      x y z
#    x 1.669320 0.000000 0.000000 
#    y 0.000000 1.669310 0.000000 
#    z 0.000000 0.000000 2.014510 
# 
# From -- ./inp_files/511.got.cif
#   From: 2010.05.17/outbox.cif.g08.bks.cpg/sg120_1_cif.got.tgz:511.got - 2010.05.20 11:28:13.
