data_PCOD9559577
_publ_section_title
;
Structure prediction by ZEFSAII (Michael W. Deem and Ramdas Pophale) SiO2 
 PCOD9559577
Probable space group: I -4 C 2
;
_chemical_formula_sum "Si O2"
_cell_formula_units_Z 112
_cell_length_a 15.710120
_cell_length_b 15.710120
_cell_length_c 23.734199
_cell_angle_alpha 90.000000
_cell_angle_beta 90.000000
_cell_angle_gamma 90.000000
_cell_volume 5857.787111
_symmetry_space_group_name_H-M "I -4 C 2"
_symmetry_group_IT_number 120
_symmetry_cell_setting 'tetragonal'
loop_
_space_group_symop_operation_xyz
x,y,z
y,-x,-z
-x,-y,z
-y,x,-z
y,x,1/2-z
-y,-x,1/2-z
-x,y,1/2+z
x,-y,1/2+z
1/2+x,1/2+y,1/2+z
1/2+y,1/2-x,1/2-z
1/2-x,1/2-y,1/2+z
1/2-y,1/2+x,1/2-z
1/2+y,1/2+x,-z
1/2-y,1/2-x,-z
1/2-x,1/2+y,z
1/2+x,1/2-y,z
loop_
_atom_site_type_symbol
_atom_site_label
_atom_site_fract_x
_atom_site_fract_y
_atom_site_fract_z
Si Si1 0.366506 0.432433 0.917242
Si Si2 0.905342 0.268721 0.481292
Si Si3 0.759201 0.081985 0.545491
Si Si4 0.378903 0.930072 0.742722
Si Si5 0.690563 0.184552 0.354034
Si Si6 0.712000 0.364799 0.302760
Si Si7 0.673223 0.616454 0.424352
O O1 0.432484 0.357335 0.933232
O O2 0.331175 0.411847 0.855352
O O3 0.385947 0.532729 0.922157
O O4 0.291871 0.418920 0.963986
O O5 0.841925 0.341925 0.500000
O O6 0.870254 0.207495 0.432200
O O7 0.997099 0.295992 0.458918
O O8 0.720106 0.148369 0.588700
O O9 0.771250 0.111653 0.481623
O O10 0.468917 0.892519 0.764244
O O11 0.356360 0.881549 0.684867
O O12 0.298993 0.909064 0.783067
O O13 0.727960 0.267341 0.322559
O O14 0.764141 0.119644 0.371446
O O15 0.647653 0.352348 0.250000
#
# Coordination Sequence:
#
# PCOD9559577 Si02
#       7
#    16  16  16  16  16  16  16
#     4   9  18  32  51  74 102 136 169 213 264 305
#     4  10  19  31  50  76 105 136 173 211 254 318
#     4   9  19  33  50  77 107 136 170 209 259 318
#     4  10  21  35  51  74 101 131 171 218 266 316
#     4  10  19  33  54  74  99 137 173 215 263 310
#     4   9  18  33  52  74 100 134 180 220 259 319
#     4  10  18  31  53  77 104 134 171 213 258 320
#
# _framework density 19.119848000000001
#
# number of rings (size 3 to 8) (size 9 to 14) (size 15 to 20)
#    0.000    2.429    0.000    3.857    0.000    2.857 
#    0.000    4.286    0.000    3.429    0.000    8.000 
#    0.000    0.000    0.000    0.000    0.000    0.000 
#
# Total GULP energy -311997.398628 kJ/mol
# GULP energy per Si atom -5571.382118 kJ/mol
# Density = 1.907633 g / cm^3
# Si number density = 19.119848 Si / 1000 Ang^3
#
#
#
# Elastic Constant Matrix: (Units=GPa)
#
#
# Indices 1 2 3 4 5 6 
#
# 1 49.2089 15.0390 4.5942 0.0000 0.0000 0.0000
# 2 15.0390 49.2087 4.5943 0.0000 0.0000 0.0000
# 3 4.5942 4.5943 80.1380 0.0000 0.0000 0.0000
# 4 0.0000 0.0000 0.0000 14.0156 0.0000 0.0000
# 5 0.0000 0.0000 0.0000 0.0000 14.0156 0.0000
# 6 0.0000 0.0000 0.0000 0.0000 0.0000 26.3583
#
#
#
# Elastic Compliance Matrix: (Units=1/GPa)
#
#
# Indices 1 2 3 4 5 6 
#
# 1 0.022479 -0.006786 -0.000900 0.000000 0.000000 0.000000
# 2 -0.006786 0.022480 -0.000900 0.000000 0.000000 0.000000
# 3 -0.000900 -0.000900 0.012582 0.000000 0.000000 0.000000
# 4 0.000000 0.000000 0.000000 0.071349 0.000000 0.000000
# 5 0.000000 0.000000 0.000000 0.000000 0.071349 0.000000
# 6 0.000000 0.000000 0.000000 0.000000 0.000000 0.037939
#
#
# Mechanical properties :
#
#
# Convention : Reuss Voigt Hill
#
# Bulk Modulus (GPa) = 24.77108 25.22342 24.99725
# Shear Modulus (GPa) = 18.60084 21.16643 19.88364
#
# Velocity S-wave (km/s) = 3.12245 3.33083 3.22832
# Velocity P-wave (km/s) = 5.09739 5.29278 5.19600
#
# Compressibility (1/GPa) = 0.04036965
#
# Stress axis : x y z
#
# Youngs Moduli (GPa) = 44.48507 44.48486 79.48095
#
# Poissons Ratio (x) = 0.30188 0.07151
# Poissons Ratio (y) = 0.30188 0.07151
# Poissons Ratio (z) = 0.04002 0.04002
#
# Static dielectric constant tensor:
#      x y z
#    x 1.693020 0.000000 0.000000 
#    y 0.000000 1.693020 0.000000 
#    z 0.000000 0.000000 1.662940 
# 
# From -- ./inp_files/5936.got.cif
#   From: 2010.05.17/outbox.cif.g08.bks.cpg/sg120_3_cif.got.tgz:5936.got - 2010.05.20 11:28:13.
