data_PCOD9559599
_publ_section_title
;
Structure prediction by ZEFSAII (Michael W. Deem and Ramdas Pophale) SiO2 
 PCOD9559599
Probable space group: I -4 C 2
;
_chemical_formula_sum "Si O2"
_cell_formula_units_Z 108
_cell_length_a 15.084961
_cell_length_b 15.084961
_cell_length_c 22.227505
_cell_angle_alpha 90.000000
_cell_angle_beta 90.000000
_cell_angle_gamma 90.000000
_cell_volume 5058.003203
_symmetry_space_group_name_H-M "I -4 C 2"
_symmetry_group_IT_number 120
_symmetry_cell_setting 'tetragonal'
loop_
_space_group_symop_operation_xyz
x,y,z
y,-x,-z
-x,-y,z
-y,x,-z
y,x,1/2-z
-y,-x,1/2-z
-x,y,1/2+z
x,-y,1/2+z
1/2+x,1/2+y,1/2+z
1/2+y,1/2-x,1/2-z
1/2-x,1/2-y,1/2+z
1/2-y,1/2+x,1/2-z
1/2+y,1/2+x,-z
1/2-y,1/2-x,-z
1/2-x,1/2+y,z
1/2+x,1/2-y,z
loop_
_atom_site_type_symbol
_atom_site_label
_atom_site_fract_x
_atom_site_fract_y
_atom_site_fract_z
Si Si1 0.420383 0.950727 0.141982
Si Si2 0.753461 0.351190 0.592884
Si Si3 0.667479 0.067781 0.742670
Si Si4 0.180213 0.015025 0.680083
Si Si5 0.000000 0.000000 0.750000
Si Si6 0.670108 0.664937 0.621359
Si Si7 0.212934 0.787067 0.750000
Si Si8 0.567644 0.631469 0.509898
O O1 0.347992 0.901490 0.101169
O O2 0.445444 0.879849 0.194075
O O3 0.500000 0.000000 0.108296
O O4 0.384381 0.029500 0.185364
O O5 0.700117 0.390515 0.650410
O O6 0.767904 0.245124 0.596672
O O7 0.701054 0.385945 0.534916
O O8 0.755489 0.009171 0.734890
O O9 0.691447 0.172229 0.734989
O O10 0.200312 0.937696 0.630013
O O11 0.083069 0.004521 0.705441
O O12 0.656825 0.691242 0.690516
O O13 0.586483 0.662132 0.577799
O O14 0.615087 0.535902 0.501411
#
# Coordination Sequence:
#
# PCOD9559599 Si02
#       8
#    16  16  16  16   4  16   8  16
#     4  11  20  37  67  98 142 191 229 277 359 437
#     4  11  24  43  70 107 136 189 250 293 353 436
#     4  10  18  37  59  93 140 185 221 274 352 428
#     4  10  24  41  65 103 146 184 238 295 349 432
#     4  12  26  42  60 102 164 182 230 298 360 412
#     4  11  22  44  73  95 148 180 228 301 355 428
#     4  10  21  37  64 105 136 176 221 290 352 406
#     4  11  25  48  76  99 137 190 245 298 358 424
#
# _framework density 21.352298999999999
#
# number of rings (size 3 to 8) (size 9 to 14) (size 15 to 20)
#    0.000    1.333    4.444    2.222    2.074    0.593 
#    2.667    4.444    0.000    0.889    0.000    0.000 
#    0.000    0.000    0.000    0.000    0.000    0.000 
#
# Total GULP energy -300733.580196 kJ/mol
# GULP energy per Si atom -5569.140374 kJ/mol
# Density = 2.130370 g / cm^3
# Si number density = 21.352299 Si / 1000 Ang^3
#
#
#
# Elastic Constant Matrix: (Units=GPa)
#
#
# Indices 1 2 3 4 5 6 
#
# 1 87.1815 51.8635 25.6573 0.0000 0.0000 0.0000
# 2 51.8635 87.1814 25.6577 0.0000 0.0000 0.0000
# 3 25.6573 25.6577 86.2785 0.0000 0.0000 0.0000
# 4 0.0000 0.0000 0.0000 17.9784 0.0000 0.0000
# 5 0.0000 0.0000 0.0000 0.0000 17.9785 0.0000
# 6 0.0000 0.0000 0.0000 0.0000 0.0000 25.5226
#
#
#
# Elastic Compliance Matrix: (Units=1/GPa)
#
#
# Indices 1 2 3 4 5 6 
#
# 1 0.018196 -0.010118 -0.002402 0.000000 0.000000 0.000000
# 2 -0.010118 0.018196 -0.002402 0.000000 0.000000 0.000000
# 3 -0.002402 -0.002402 0.013019 0.000000 0.000000 0.000000
# 4 0.000000 0.000000 0.000000 0.055622 0.000000 0.000000
# 5 0.000000 0.000000 0.000000 0.000000 0.055622 0.000000
# 6 0.000000 0.000000 0.000000 0.000000 0.000000 0.039181
#
#
# Mechanical properties :
#
#
# Convention : Reuss Voigt Hill
#
# Bulk Modulus (GPa) = 51.10722 51.88872 51.49797
# Shear Modulus (GPa) = 21.16805 22.79341 21.98073
#
# Velocity S-wave (km/s) = 3.15202 3.27079 3.21196
# Velocity P-wave (km/s) = 6.10198 6.21435 6.15842
#
# Compressibility (1/GPa) = 0.01956671
#
# Stress axis : x y z
#
# Youngs Moduli (GPa) = 54.95606 54.95582 76.80946
#
# Poissons Ratio (x) = 0.55604 0.18452
# Poissons Ratio (y) = 0.55604 0.18453
# Poissons Ratio (z) = 0.13202 0.13203
#
# Static dielectric constant tensor:
#      x y z
#    x 1.869900 0.000000 0.000000 
#    y 0.000000 1.869900 0.000000 
#    z 0.000000 0.000000 1.784510 
# 
# From -- ./inp_files/5973.got.cif
#   From: 2010.05.17/outbox.cif.g08.bks.cpg/sg120_3_cif.got.tgz:5973.got - 2010.05.20 11:28:13.
