data_PCOD9559174
_publ_section_title
;
Structure prediction by ZEFSAII (Michael W. Deem and Ramdas Pophale) SiO2 
 PCOD9559174
Probable space group: I -4 M 2
;
_chemical_formula_sum "Si O2"
_cell_formula_units_Z 96
_cell_length_a 14.950987
_cell_length_b 14.950987
_cell_length_c 22.914664
_cell_angle_alpha 90.000000
_cell_angle_beta 90.000000
_cell_angle_gamma 90.000000
_cell_volume 5122.160955
_symmetry_space_group_name_H-M "I -4 M 2"
_symmetry_group_IT_number 119
_symmetry_cell_setting 'tetragonal'
loop_
_space_group_symop_operation_xyz
x,y,z
y,-x,-z
-x,-y,z
-y,x,-z
y,x,-z
-y,-x,-z
-x,y,z
x,-y,z
1/2+x,1/2+y,1/2+z
1/2+y,1/2-x,1/2-z
1/2-x,1/2-y,1/2+z
1/2-y,1/2+x,1/2-z
1/2+y,1/2+x,1/2-z
1/2-y,1/2-x,1/2-z
1/2-x,1/2+y,1/2+z
1/2+x,1/2-y,1/2+z
loop_
_atom_site_type_symbol
_atom_site_label
_atom_site_fract_x
_atom_site_fract_y
_atom_site_fract_z
Si Si1 0.793244 0.901460 0.954885
Si Si2 0.401071 0.393620 0.668005
Si Si3 0.098301 0.655787 0.465799
Si Si4 0.401640 0.638924 0.932607
Si Si5 0.106867 0.292437 0.801186
Si Si6 0.705024 0.900640 0.397548
O O1 0.841844 0.891517 0.893055
O O2 0.686900 0.895157 0.947359
O O3 0.816761 0.000000 0.978725
O O4 0.827103 0.827103 0.000000
O O5 0.500000 0.372372 0.692501
O O6 0.399135 0.500000 0.656003
O O7 0.313427 0.374431 0.706135
O O8 0.101405 0.753670 0.436657
O O9 0.104592 0.673194 0.535401
O O10 0.000000 0.616108 0.453996
O O11 0.500000 0.611763 0.910391
O O12 0.312754 0.608557 0.899228
O O13 0.393457 0.606544 0.000000
O O14 0.149892 0.350109 0.750000
O O15 0.154865 0.326904 0.859874
O O16 0.000000 0.305114 0.804669
O O17 0.682379 0.000000 0.374962
#
# Coordination Sequence:
#
# PCOD9559174 Si02
#       6
#    16  16  16  16  16  16
#     4  11  20  30  49  76 107 140 171 204 243 295
#     4   9  19  36  57  80 104 130 161 201 252 303
#     4   9  18  31  47  70 103 142 179 211 247 295
#     4   9  16  28  48  72 102 140 175 208 249 298
#     4  11  23  39  58  76  97 128 167 211 255 301
#     4  10  20  32  47  71 103 137 174 214 253 296
#
# _framework density 18.742090999999999
#
# number of rings (size 3 to 8) (size 9 to 14) (size 15 to 20)
#    0.000    2.167    0.000    6.000    0.000    5.500 
#    0.000    2.500    0.000    3.000    0.000    0.000 
#    0.000    0.000    0.000    0.000    0.000    0.000 
#
# Total GULP energy -267766.399133 kJ/mol
# GULP energy per Si atom -5578.466649 kJ/mol
# Density = 1.869943 g / cm^3
# Si number density = 18.742091 Si / 1000 Ang^3
#
#
#
# Elastic Constant Matrix: (Units=GPa)
#
#
# Indices 1 2 3 4 5 6 
#
# 1 102.1204 39.4191 15.6690 0.0000 0.0000 0.0000
# 2 39.4191 102.1174 15.6676 0.0000 0.0000 0.0000
# 3 15.6690 15.6676 13.9364 0.0000 0.0000 0.0000
# 4 0.0000 0.0000 0.0000 18.6488 0.0000 0.0000
# 5 0.0000 0.0000 0.0000 0.0000 18.6487 0.0000
# 6 0.0000 0.0000 0.0000 0.0000 0.0000 25.0252
#
#
#
# Elastic Compliance Matrix: (Units=1/GPa)
#
#
# Indices 1 2 3 4 5 6 
#
# 1 0.012678 -0.003271 -0.010576 0.000000 0.000000 0.000000
# 2 -0.003271 0.012678 -0.010575 0.000000 0.000000 0.000000
# 3 -0.010576 -0.010575 0.095534 0.000000 0.000000 0.000000
# 4 0.000000 0.000000 0.000000 0.053623 0.000000 0.000000
# 5 0.000000 0.000000 0.000000 0.000000 0.053623 0.000000
# 6 0.000000 0.000000 0.000000 0.000000 0.000000 0.039960
#
#
# Mechanical properties :
#
#
# Convention : Reuss Voigt Hill
#
# Bulk Modulus (GPa) = 13.88023 39.96508 26.92265
# Shear Modulus (GPa) = 14.66466 22.29244 18.47855
#
# Velocity S-wave (km/s) = 2.80026 3.45256 3.14337
# Velocity P-wave (km/s) = 4.22815 6.10438 5.25075
#
# Compressibility (1/GPa) = 0.07204493
#
# Stress axis : x y z
#
# Youngs Moduli (GPa) = 78.87769 78.87767 10.46744
#
# Poissons Ratio (x) = 0.25802 0.11071
# Poissons Ratio (y) = 0.25802 0.11069
# Poissons Ratio (z) = 0.83425 0.83413
#
# Static dielectric constant tensor:
#      x y z
#    x 1.678780 0.000000 0.000000 
#    y 0.000000 1.678780 0.000000 
#    z 0.000000 0.000000 1.619530 
# 
# From -- ./inp_files/7764.got.cif
#   From: 2010.05.17/outbox.cif.g08.bks.cpg/sg119_4_cif.got.tgz:7764.got - 2010.05.20 11:21:29.
