data_PCOD9559004
_publ_section_title
;
Structure prediction by ZEFSAII (Michael W. Deem and Ramdas Pophale) SiO2 
 PCOD9559004
Probable space group: I -4 M 2
;
_chemical_formula_sum "Si O2"
_cell_formula_units_Z 112
_cell_length_a 14.606842
_cell_length_b 14.606842
_cell_length_c 27.532010
_cell_angle_alpha 90.000000
_cell_angle_beta 90.000000
_cell_angle_gamma 90.000000
_cell_volume 5874.225062
_symmetry_space_group_name_H-M "I -4 M 2"
_symmetry_group_IT_number 119
_symmetry_cell_setting 'tetragonal'
loop_
_space_group_symop_operation_xyz
x,y,z
y,-x,-z
-x,-y,z
-y,x,-z
y,x,-z
-y,-x,-z
-x,y,z
x,-y,z
1/2+x,1/2+y,1/2+z
1/2+y,1/2-x,1/2-z
1/2-x,1/2-y,1/2+z
1/2-y,1/2+x,1/2-z
1/2+y,1/2+x,1/2-z
1/2-y,1/2-x,1/2-z
1/2-x,1/2+y,1/2+z
1/2+x,1/2-y,1/2+z
loop_
_atom_site_type_symbol
_atom_site_label
_atom_site_fract_x
_atom_site_fract_y
_atom_site_fract_z
Si Si1 0.263857 0.891156 0.876821
Si Si2 0.394775 0.299933 0.316190
Si Si3 0.609406 0.400326 0.787755
Si Si4 0.610530 0.195606 0.799328
Si Si5 0.111127 0.399105 0.935045
Si Si6 0.609136 0.249678 0.511787
Si Si7 0.599090 0.110615 0.178039
O O1 0.175198 0.839546 0.855274
O O2 0.349126 0.862831 0.843438
O O3 0.278306 0.867915 0.933183
O O4 0.248553 0.000000 0.872874
O O5 0.500000 0.295684 0.334866
O O6 0.394683 0.362667 0.268679
O O7 0.366038 0.197356 0.300383
O O8 0.500000 0.402254 0.791630
O O9 0.643414 0.500000 0.806459
O O10 0.637817 0.302027 0.808766
O O11 0.500000 0.189630 0.794635
O O12 0.657937 0.157937 0.750000
O O13 0.137567 0.500000 0.952744
O O14 0.138273 0.392491 0.878636
O O15 0.000000 0.395298 0.934567
O O16 0.144049 0.321503 0.971330
O O17 0.653692 0.346309 0.500000
O O18 0.500000 0.253713 0.508358
O O19 0.500000 0.143123 0.197750
O O20 0.594034 0.000000 0.180064
#
# Coordination Sequence:
#
# PCOD9559004 Si02
#       7
#    16  16  16  16  16  16  16
#     4  11  23  36  52  80 111 141 185 235 280 338
#     4  10  18  30  50  73 103 140 175 218 271 326
#     4   9  18  34  57  81 105 140 183 222 267 328
#     4  11  22  38  59  81 112 150 190 238 291 345
#     4   8  14  27  46  65  90 129 172 212 255 305
#     4  10  21  35  52  77 111 146 180 221 274 336
#     4   8  14  25  44  71  99 130 171 213 257 314
#
# _framework density 19.066344999999998
#
# number of rings (size 3 to 8) (size 9 to 14) (size 15 to 20)
#    0.000    2.429    1.429    2.571    0.000    4.286 
#    0.000    3.571    0.000    1.714    0.000    0.000 
#    0.000    0.286    0.000    0.000    0.000    0.000 
#
# Total GULP energy -312277.644627 kJ/mol
# GULP energy per Si atom -5576.386511 kJ/mol
# Density = 1.902295 g / cm^3
# Si number density = 19.066345 Si / 1000 Ang^3
#
#
#
# Elastic Constant Matrix: (Units=GPa)
#
#
# Indices 1 2 3 4 5 6 
#
# 1 65.0476 20.0785 13.0424 0.0000 0.0000 0.0000
# 2 20.0785 65.0430 13.0424 0.0000 0.0000 0.0000
# 3 13.0424 13.0424 60.9991 0.0000 0.0000 0.0000
# 4 0.0000 0.0000 0.0000 9.5289 0.0000 0.0000
# 5 0.0000 0.0000 0.0000 0.0000 9.5303 0.0000
# 6 0.0000 0.0000 0.0000 0.0000 0.0000 2.9337
#
#
#
# Elastic Compliance Matrix: (Units=1/GPa)
#
#
# Indices 1 2 3 4 5 6 
#
# 1 0.017404 -0.004834 -0.002688 0.000000 0.000000 0.000000
# 2 -0.004834 0.017406 -0.002688 0.000000 0.000000 0.000000
# 3 -0.002688 -0.002688 0.017543 0.000000 0.000000 0.000000
# 4 0.000000 0.000000 0.000000 0.104943 0.000000 0.000000
# 5 0.000000 0.000000 0.000000 0.000000 0.104928 0.000000
# 6 0.000000 0.000000 0.000000 0.000000 0.000000 0.340871
#
#
# Mechanical properties :
#
#
# Convention : Reuss Voigt Hill
#
# Bulk Modulus (GPa) = 31.31456 31.49070 31.40263
# Shear Modulus (GPa) = 7.88446 14.06035 10.97240
#
# Velocity S-wave (km/s) = 2.03574 2.71854 2.40153
# Velocity P-wave (km/s) = 4.68885 5.13869 4.91892
#
# Compressibility (1/GPa) = 0.03193402
#
# Stress axis : x y z
#
# Youngs Moduli (GPa) = 57.45703 57.45280 57.00248
#
# Poissons Ratio (x) = 0.27771 0.15321
# Poissons Ratio (y) = 0.27773 0.15322
# Poissons Ratio (z) = 0.15443 0.15444
#
# Static dielectric constant tensor:
#      x y z
#    x 1.696660 0.000000 0.000000 
#    y 0.000000 1.696660 0.000000 
#    z 0.000000 0.000000 1.655030 
# 
# From -- ./inp_files/9602.got.cif
#   From: 2010.05.17/outbox.cif.g08.bks.cpg/sg119_5_cif.got.tgz:9602.got - 2010.05.20 11:21:29.
