data_PCOD9559116
_publ_section_title
;
Structure prediction by ZEFSAII (Michael W. Deem and Ramdas Pophale) SiO2 
 PCOD9559116
Probable space group: I -4 M 2
;
_chemical_formula_sum "Si O2"
_cell_formula_units_Z 80
_cell_length_a 28.335965
_cell_length_b 28.335965
_cell_length_c 5.201321
_cell_angle_alpha 90.000000
_cell_angle_beta 90.000000
_cell_angle_gamma 90.000000
_cell_volume 4176.280611
_symmetry_space_group_name_H-M "I -4 M 2"
_symmetry_group_IT_number 119
_symmetry_cell_setting 'tetragonal'
loop_
_space_group_symop_operation_xyz
x,y,z
y,-x,-z
-x,-y,z
-y,x,-z
y,x,-z
-y,-x,-z
-x,y,z
x,-y,z
1/2+x,1/2+y,1/2+z
1/2+y,1/2-x,1/2-z
1/2-x,1/2-y,1/2+z
1/2-y,1/2+x,1/2-z
1/2+y,1/2+x,1/2-z
1/2-y,1/2-x,1/2-z
1/2-x,1/2+y,1/2+z
1/2+x,1/2-y,1/2+z
loop_
_atom_site_type_symbol
_atom_site_label
_atom_site_fract_x
_atom_site_fract_y
_atom_site_fract_z
Si Si1 0.185982 0.054551 0.917602
Si Si2 0.770240 0.811232 0.251445
Si Si3 0.309539 0.111540 0.294909
Si Si4 0.556399 0.207963 0.689974
Si Si5 0.445929 0.373047 0.102892
O O1 0.237966 0.072156 0.859061
O O2 0.160785 0.054356 0.643749
O O3 0.193251 0.000000 0.003468
O O4 0.154050 0.075057 0.147920
O O5 0.802482 0.802482 0.500000
O O6 0.730404 0.769597 0.250000
O O7 0.739832 0.859092 0.269120
O O8 0.801991 0.801991 0.000000
O O9 0.349902 0.150098 0.250000
O O10 0.310726 0.086134 0.569657
O O11 0.315544 0.072276 0.075194
O O12 0.500000 0.206023 0.735345
O O13 0.500000 0.386474 0.164311
O O14 0.417339 0.417339 0.000000
#
# Coordination Sequence:
#
# PCOD9559116 Si02
#       5
#    16  16  16  16  16
#     4   9  19  35  53  71  97 138 182 224 272 327
#     4   9  17  31  50  72 105 149 186 217 266 328
#     4  11  22  37  59  88 120 151 186 232 282 333
#     4  11  22  39  60  82 112 151 192 230 277 331
#     4  10  19  33  52  74 103 138 181 238 297 345
#
# _framework density 19.155798999999998
#
# number of rings (size 3 to 8) (size 9 to 14) (size 15 to 20)
#    0.000    2.000    0.000    4.200    0.000    6.600 
#    0.000   10.000    0.000    3.600    0.000    0.000 
#    0.000   28.000    0.000    0.000    0.000    0.000 
#
# Total GULP energy -223172.233815 kJ/mol
# GULP energy per Si atom -5579.305845 kJ/mol
# Density = 1.911220 g / cm^3
# Si number density = 19.155799 Si / 1000 Ang^3
#
#
#
# Elastic Constant Matrix: (Units=GPa)
#
#
# Indices 1 2 3 4 5 6 
#
# 1 44.1897 20.5243 16.9467 0.0000 0.0000 0.0000
# 2 20.5243 44.2054 16.9555 0.0000 0.0000 0.0000
# 3 16.9467 16.9555 129.5846 0.0000 0.0000 0.0000
# 4 0.0000 0.0000 0.0000 5.0351 0.0000 0.0000
# 5 0.0000 0.0000 0.0000 0.0000 4.9976 0.0000
# 6 0.0000 0.0000 0.0000 0.0000 0.0000 19.1526
#
#
#
# Elastic Compliance Matrix: (Units=1/GPa)
#
#
# Indices 1 2 3 4 5 6 
#
# 1 0.029419 -0.012827 -0.002169 0.000000 0.000000 0.000000
# 2 -0.012827 0.029410 -0.002171 0.000000 0.000000 0.000000
# 3 -0.002169 -0.002171 0.008285 0.000000 0.000000 0.000000
# 4 0.000000 0.000000 0.000000 0.198608 0.000000 0.000000
# 5 0.000000 0.000000 0.000000 0.000000 0.200097 0.000000
# 6 0.000000 0.000000 0.000000 0.000000 0.000000 0.052212
#
#
# Mechanical properties :
#
#
# Convention : Reuss Voigt Hill
#
# Bulk Modulus (GPa) = 30.50640 36.31476 33.41058
# Shear Modulus (GPa) = 8.87641 16.74058 12.80850
#
# Velocity S-wave (km/s) = 2.15496 2.95942 2.58863
# Velocity P-wave (km/s) = 4.70657 5.53862 5.13946
#
# Compressibility (1/GPa) = 0.03278001
#
# Stress axis : x y z
#
# Youngs Moduli (GPa) = 33.99133 34.00218 120.70537
#
# Poissons Ratio (x) = 0.43616 0.26181
# Poissons Ratio (y) = 0.43602 0.26201
# Poissons Ratio (z) = 0.07373 0.07381
#
# Static dielectric constant tensor:
#      x y z
#    x 1.724300 0.000000 0.000000 
#    y 0.000000 1.724230 0.000000 
#    z 0.000000 0.000000 1.465710 
# 
# From -- ./inp_files/993.got.cif
#   From: 2010.05.17/outbox.cif.g08.bks.cpg/sg119_1_cif.got.tgz:993.got - 2010.05.20 11:21:29.
