data_PCOD9559320
_publ_section_title
;
Structure prediction by ZEFSAII (Michael W. Deem and Ramdas Pophale) SiO2 
 PCOD9559320
Probable space group: I -4 M 2
;
_chemical_formula_sum "Si O2"
_cell_formula_units_Z 44
_cell_length_a 12.020388
_cell_length_b 12.020388
_cell_length_c 15.387394
_cell_angle_alpha 90.000000
_cell_angle_beta 90.000000
_cell_angle_gamma 90.000000
_cell_volume 2223.320369
_symmetry_space_group_name_H-M "I -4 M 2"
_symmetry_group_IT_number 119
_symmetry_cell_setting 'tetragonal'
loop_
_space_group_symop_operation_xyz
x,y,z
y,-x,-z
-x,-y,z
-y,x,-z
y,x,-z
-y,-x,-z
-x,y,z
x,-y,z
1/2+x,1/2+y,1/2+z
1/2+y,1/2-x,1/2-z
1/2-x,1/2-y,1/2+z
1/2-y,1/2+x,1/2-z
1/2+y,1/2+x,1/2-z
1/2-y,1/2-x,1/2-z
1/2-x,1/2+y,1/2+z
1/2+x,1/2-y,1/2+z
loop_
_atom_site_type_symbol
_atom_site_label
_atom_site_fract_x
_atom_site_fract_y
_atom_site_fract_z
Si Si1 0.000000 0.000000 0.000000
Si Si2 0.252059 0.247942 0.250000
Si Si3 0.500000 0.000000 0.250000
Si Si4 0.366342 0.777389 0.934786
Si Si5 0.500000 0.257943 0.510636
Si Si6 0.500000 0.758800 0.311777
O O1 0.881643 0.000000 0.948598
O O2 0.229055 0.318814 0.163436
O O3 0.383092 0.269829 0.267820
O O4 0.500000 0.107006 0.310668
O O5 0.500000 0.776548 0.935897
O O6 0.316409 0.683592 0.000000
O O7 0.313928 0.892188 0.969079
O O8 0.500000 0.283553 0.408778
#
# Coordination Sequence:
#
# PCOD9559320 Si02
#       6
#     2   8   2  16   8   8
#     4  12  20  40  76 100 128 168 234 308 348 408
#     4  11  24  45  67 106 141 186 244 294 363 425
#     4   8  20  28  68  96 132 174 232 300 352 400
#     4  12  28  47  73 104 149 194 240 292 362 431
#     4  12  23  46  73 106 136 186 241 300 361 425
#     4  10  20  40  70 100 134 181 243 301 350 416
#
# _framework density 19.790220999999999
#
# number of rings (size 3 to 8) (size 9 to 14) (size 15 to 20)
#    0.000    0.727    5.455    0.545    7.636    0.364 
#    3.273    0.000    0.000    0.000    0.000    0.000 
#    0.000    0.000    0.000    0.000    0.000    0.000 
#
# Total GULP energy -122803.649916 kJ/mol
# GULP energy per Si atom -5581.984087 kJ/mol
# Density = 1.974518 g / cm^3
# Si number density = 19.790221 Si / 1000 Ang^3
#
#
#
# Elastic Constant Matrix: (Units=GPa)
#
#
# Indices 1 2 3 4 5 6 
#
# 1 146.3392 74.2439 42.7701 0.0000 0.0000 0.0000
# 2 74.2439 146.3381 42.7692 0.0000 0.0000 0.0000
# 3 42.7701 42.7692 104.3342 0.0000 0.0000 0.0000
# 4 0.0000 0.0000 0.0000 -104.1511 0.0000 0.0000
# 5 0.0000 0.0000 0.0000 0.0000 -103.0464 0.0000
# 6 0.0000 0.0000 0.0000 0.0000 0.0000 25.5479
#
#
#
# Elastic Compliance Matrix: (Units=1/GPa)
#
#
# Indices 1 2 3 4 5 6 
#
# 1 0.009630 -0.004240 -0.002210 0.000000 0.000000 0.000000
# 2 -0.004240 0.009630 -0.002210 0.000000 0.000000 0.000000
# 3 -0.002210 -0.002210 0.011396 0.000000 0.000000 0.000000
# 4 0.000000 0.000000 0.000000 -0.009601 0.000000 0.000000
# 5 0.000000 0.000000 0.000000 0.000000 -0.009704 0.000000
# 6 0.000000 0.000000 0.000000 0.000000 0.000000 0.039142
#
#
# Mechanical properties :
#
#
# Convention : Reuss Voigt Hill
#
# Bulk Modulus (GPa) = 74.97247 79.61977 77.29612
# Shear Modulus (GPa) = 69.19597 -20.51470 24.34063
#
# Velocity S-wave (km/s) = 5.91951 -3.22313 3.51084
# Velocity P-wave (km/s) = 9.20254 5.14468 7.45501
#
# Compressibility (1/GPa) = 0.01333823
#
# Stress axis : x y z
#
# Youngs Moduli (GPa) = 103.83716 103.83681 87.74866
#
# Poissons Ratio (x) = 0.44028 0.19390
# Poissons Ratio (y) = 0.44029 0.19389
# Poissons Ratio (z) = 0.22945 0.22944
#
# Static dielectric constant tensor:
#      x y z
#    x 2.029610 0.000000 0.000000 
#    y 0.000000 2.032320 0.000000 
#    z 0.000000 0.000000 1.947270 
# 
# From -- ./inp_files/5991.got.cif
#   From: 2010.05.17/outbox.cif.g08.bks.cpg/sg119_3_cif.got.tgz:5991.got - 2010.05.20 11:21:29.
