data_PCOD9559964
_publ_section_title
;
Structure prediction by ZEFSAII (Michael W. Deem and Ramdas Pophale) SiO2 
 PCOD9559964
Probable space group: I -4 C 2
;
_chemical_formula_sum "Si O2"
_cell_formula_units_Z 84
_cell_length_a 22.151499
_cell_length_b 22.151499
_cell_length_c 10.440262
_cell_angle_alpha 90.000000
_cell_angle_beta 90.000000
_cell_angle_gamma 90.000000
_cell_volume 5122.920759
_symmetry_space_group_name_H-M "I -4 C 2"
_symmetry_group_IT_number 120
_symmetry_cell_setting 'tetragonal'
loop_
_space_group_symop_operation_xyz
x,y,z
y,-x,-z
-x,-y,z
-y,x,-z
y,x,1/2-z
-y,-x,1/2-z
-x,y,1/2+z
x,-y,1/2+z
1/2+x,1/2+y,1/2+z
1/2+y,1/2-x,1/2-z
1/2-x,1/2-y,1/2+z
1/2-y,1/2+x,1/2-z
1/2+y,1/2+x,-z
1/2-y,1/2-x,-z
1/2-x,1/2+y,z
1/2+x,1/2-y,z
loop_
_atom_site_type_symbol
_atom_site_label
_atom_site_fract_x
_atom_site_fract_y
_atom_site_fract_z
Si Si1 0.930019 0.727099 0.257802
Si Si2 0.348318 0.255785 0.000005
Si Si3 0.772905 0.569976 0.257800
Si Si4 0.593272 0.906727 0.849409
Si Si5 0.746477 0.855993 0.500003
Si Si6 0.500000 0.000000 0.750000
O O1 0.890989 0.753457 0.375502
O O2 0.927500 0.655164 0.283445
O O3 0.896633 0.742516 0.126184
O O4 0.999998 0.745888 0.250000
O O5 0.390992 0.253452 0.124503
O O6 0.301410 0.198591 0.000000
O O7 0.305913 0.314422 0.000013
O O8 0.844840 0.572492 0.283445
O O9 0.757490 0.603361 0.126181
O O10 0.542766 0.957226 0.832808
O O11 0.603648 0.896353 0.000000
O O12 0.689875 0.810126 0.500000
#
# Coordination Sequence:
#
# PCOD9559964 Si02
#       6
#    16  16  16  16  16   4
#     4  12  22  37  57  81 116 148 193 239 281 332
#     4  11  21  40  58  80 114 150 191 243 298 331
#     4  12  22  37  57  81 116 148 193 239 281 332
#     4  12  23  38  51  78 114 157 204 241 273 309
#     4  11  23  36  60  84 108 150 197 237 292 347
#     4  12  26  36  52  74 116 174 204 240 254 306
#
# _framework density 16.396896999999999
#
# number of rings (size 3 to 8) (size 9 to 14) (size 15 to 20)
#    0.000    0.381    7.619    2.571    0.000    3.048 
#    3.429    0.000    0.000    0.000    0.000    0.000 
#    0.000   53.333    0.000    0.000    0.000    0.000 
#
# Total GULP energy -234715.007138 kJ/mol
# GULP energy per Si atom -5588.452551 kJ/mol
# Density = 1.635958 g / cm^3
# Si number density = 16.396897 Si / 1000 Ang^3
#
#
#
# Elastic Constant Matrix: (Units=GPa)
#
#
# Indices 1 2 3 4 5 6 
#
# 1 127.6583 71.0686 81.5040 0.0000 0.0000 0.0000
# 2 71.0686 127.6586 81.5042 0.0000 0.0000 0.0000
# 3 81.5040 81.5042 184.3878 0.0000 0.0000 0.0000
# 4 0.0000 0.0000 0.0000 -26.2999 0.0000 0.0000
# 5 0.0000 0.0000 0.0000 0.0000 -26.3185 0.0000
# 6 0.0000 0.0000 0.0000 0.0000 0.0000 35.8727
#
#
#
# Elastic Compliance Matrix: (Units=1/GPa)
#
#
# Indices 1 2 3 4 5 6 
#
# 1 0.012783 -0.004888 -0.003489 0.000000 0.000000 0.000000
# 2 -0.004888 0.012783 -0.003489 0.000000 0.000000 0.000000
# 3 -0.003489 -0.003489 0.008508 0.000000 0.000000 0.000000
# 4 0.000000 0.000000 0.000000 -0.038023 0.000000 0.000000
# 5 0.000000 0.000000 0.000000 0.000000 -0.037996 0.000000
# 6 0.000000 0.000000 0.000000 0.000000 0.000000 0.027876
#
#
# Mechanical properties :
#
#
# Convention : Reuss Voigt Hill
#
# Bulk Modulus (GPa) = 96.72189 100.87314 98.79752
# Shear Modulus (GPa) = 381.33510 10.35939 195.84724
#
# Velocity S-wave (km/s) = 15.26664 2.51627 10.94079
# Velocity P-wave (km/s) = 19.23217 8.37230 14.83192
#
# Compressibility (1/GPa) = 0.01033892
#
# Stress axis : x y z
#
# Youngs Moduli (GPa) = 78.23088 78.23105 117.53306
#
# Poissons Ratio (x) = 0.38242 0.41013
# Poissons Ratio (y) = 0.38242 0.41013
# Poissons Ratio (z) = 0.27299 0.27299
#
# Static dielectric constant tensor:
#      x y z
#    x 1.541690 0.000000 0.000000 
#    y 0.000000 1.541700 0.000000 
#    z 0.000000 0.000000 1.542360 
# 
# From -- ./inp_files/2681.got.cif
#   From: 2010.05.17/outbox.cif.g08.bks.cpg/sg120_2_cif.got.tgz:2681.got - 2010.05.20 11:28:13.
