data_PCOD9559182
_publ_section_title
;
Structure prediction by ZEFSAII (Michael W. Deem and Ramdas Pophale) SiO2 
 PCOD9559182
Probable space group: I -4 M 2
;
_chemical_formula_sum "Si O2"
_cell_formula_units_Z 80
_cell_length_a 27.535766
_cell_length_b 27.535766
_cell_length_c 6.273551
_cell_angle_alpha 90.000000
_cell_angle_beta 90.000000
_cell_angle_gamma 90.000000
_cell_volume 4756.721859
_symmetry_space_group_name_H-M "I -4 M 2"
_symmetry_group_IT_number 119
_symmetry_cell_setting 'tetragonal'
loop_
_space_group_symop_operation_xyz
x,y,z
y,-x,-z
-x,-y,z
-y,x,-z
y,x,-z
-y,-x,-z
-x,y,z
x,-y,z
1/2+x,1/2+y,1/2+z
1/2+y,1/2-x,1/2-z
1/2-x,1/2-y,1/2+z
1/2-y,1/2+x,1/2-z
1/2+y,1/2+x,1/2-z
1/2-y,1/2-x,1/2-z
1/2-x,1/2+y,1/2+z
1/2+x,1/2-y,1/2+z
loop_
_atom_site_type_symbol
_atom_site_label
_atom_site_fract_x
_atom_site_fract_y
_atom_site_fract_z
Si Si1 0.646973 0.722247 0.005127
Si Si2 0.555205 0.944796 0.250000
Si Si3 0.443796 0.153381 0.063323
Si Si4 0.556604 0.759811 0.763151
Si Si5 0.619339 0.214050 0.387860
Si Si6 0.693421 0.806580 0.750000
O O1 0.646723 0.747719 0.236083
O O2 0.668717 0.668717 0.000000
O O3 0.592673 0.728737 0.912233
O O4 0.681803 0.754457 0.851299
O O5 0.500000 0.939387 0.329345
O O6 0.563104 0.904319 0.068543
O O7 0.500000 0.162153 0.128593
O O8 0.408055 0.176497 0.236074
O O9 0.437448 0.184573 0.849488
O O10 0.500000 0.747166 0.775362
O O11 0.578655 0.758924 0.528181
O O12 0.655708 0.188723 0.554660
#
# Coordination Sequence:
#
# PCOD9559182 Si02
#       6
#    16   8  16  16  16   8
#     4  10  22  35  52  76 107 141 173 212 255 317
#     4   9  18  30  45  64  89 126 170 224 284 329
#     4   9  18  31  50  67  90 124 169 221 272 322
#     4   9  19  35  53  77 101 133 176 218 260 308
#     4  10  20  32  50  72  96 132 170 216 259 311
#     4  10  22  30  47  72 101 139 170 214 252 316
#
# _framework density 16.818303
#
# number of rings (size 3 to 8) (size 9 to 14) (size 15 to 20)
#    0.000    2.500    0.000    1.200   11.200    3.200 
#    0.000    0.000    0.000    1.200    0.000    5.600 
#    0.000    0.400    0.000    0.400    0.000    0.000 
#
# Total GULP energy -223000.099830 kJ/mol
# GULP energy per Si atom -5575.002496 kJ/mol
# Density = 1.678002 g / cm^3
# Si number density = 16.818303 Si / 1000 Ang^3
#
#
#
# Elastic Constant Matrix: (Units=GPa)
#
#
# Indices 1 2 3 4 5 6 
#
# 1 73.5968 43.1827 24.4122 0.0000 0.0000 0.0000
# 2 43.1827 73.5965 24.4123 0.0000 0.0000 0.0000
# 3 24.4122 24.4123 72.8088 0.0000 0.0000 0.0000
# 4 0.0000 0.0000 0.0000 11.2302 0.0000 0.0000
# 5 0.0000 0.0000 0.0000 0.0000 11.2304 0.0000
# 6 0.0000 0.0000 0.0000 0.0000 0.0000 25.1050
#
#
#
# Elastic Compliance Matrix: (Units=1/GPa)
#
#
# Indices 1 2 3 4 5 6 
#
# 1 0.021419 -0.011460 -0.003339 0.000000 0.000000 0.000000
# 2 -0.011460 0.021420 -0.003339 0.000000 0.000000 0.000000
# 3 -0.003339 -0.003339 0.015974 0.000000 0.000000 0.000000
# 4 0.000000 0.000000 0.000000 0.089046 0.000000 0.000000
# 5 0.000000 0.000000 0.000000 0.000000 0.089044 0.000000
# 6 0.000000 0.000000 0.000000 0.000000 0.000000 0.039833
#
#
# Mechanical properties :
#
#
# Convention : Reuss Voigt Hill
#
# Bulk Modulus (GPa) = 44.37474 44.89071 44.63273
# Shear Modulus (GPa) = 15.59942 18.04610 16.82276
#
# Velocity S-wave (km/s) = 3.04884 3.27923 3.16613
# Velocity P-wave (km/s) = 6.23185 6.40994 6.32152
#
# Compressibility (1/GPa) = 0.02253534
#
# Stress axis : x y z
#
# Youngs Moduli (GPa) = 46.68660 46.68638 62.60222
#
# Poissons Ratio (x) = 0.53503 0.20904
# Poissons Ratio (y) = 0.53504 0.20905
# Poissons Ratio (z) = 0.15590 0.15590
#
# Static dielectric constant tensor:
#      x y z
#    x 1.584540 0.000000 0.000000 
#    y 0.000000 1.584540 0.000000 
#    z 0.000000 0.000000 1.599500 
# 
# From -- ./inp_files/1046.got.cif
#   From: 2010.05.17/outbox.cif.g08.bks.cpg/sg119_1_cif.got.tgz:1046.got - 2010.05.20 11:21:29.
