data_PCOD9559372
_publ_section_title
;
Structure prediction by ZEFSAII (Michael W. Deem and Ramdas Pophale) SiO2 
 PCOD9559372
Probable space group: I -4 M 2
;
_chemical_formula_sum "Si O2"
_cell_formula_units_Z 40
_cell_length_a 7.639567
_cell_length_b 7.639567
_cell_length_c 32.866102
_cell_angle_alpha 90.000000
_cell_angle_beta 90.000000
_cell_angle_gamma 90.000000
_cell_volume 1918.163783
_symmetry_space_group_name_H-M "I -4 M 2"
_symmetry_group_IT_number 119
_symmetry_cell_setting 'tetragonal'
loop_
_space_group_symop_operation_xyz
x,y,z
y,-x,-z
-x,-y,z
-y,x,-z
y,x,-z
-y,-x,-z
-x,y,z
x,-y,z
1/2+x,1/2+y,1/2+z
1/2+y,1/2-x,1/2-z
1/2-x,1/2-y,1/2+z
1/2-y,1/2+x,1/2-z
1/2+y,1/2+x,1/2-z
1/2-y,1/2-x,1/2-z
1/2-x,1/2+y,1/2+z
1/2+x,1/2-y,1/2+z
loop_
_atom_site_type_symbol
_atom_site_label
_atom_site_fract_x
_atom_site_fract_y
_atom_site_fract_z
Si Si1 0.000000 0.303594 0.850450
Si Si2 0.711512 0.192087 0.589225
Si Si3 0.500000 0.294085 0.261086
Si Si4 0.791308 0.791308 0.000000
O O1 0.835996 0.275770 0.879817
O O2 0.000000 0.190638 0.810053
O O3 0.000000 0.500000 0.834723
O O4 0.500000 0.207042 0.587471
O O5 0.773719 0.216407 0.542709
O O6 0.759596 0.000000 0.603601
O O7 0.500000 0.500000 0.245375
O O8 0.327290 0.172711 0.250000
O O9 0.000000 0.761578 0.997680
#
# Coordination Sequence:
#
# PCOD9559372 Si02
#       4
#     8  16   8   8
#     4  12  24  43  67  94 139 181 222 283 355 414
#     4  10  21  37  61  92 126 173 230 284 336 407
#     4  11  25  50  79 111 146 187 235 300 369 449
#     4   9  16  32  56  83 124 178 225 278 345 394
#
# _framework density 20.853276000000001
#
# number of rings (size 3 to 8) (size 9 to 14) (size 15 to 20)
#    0.000    1.600    4.000    1.800    0.000    4.400 
#    0.000    0.000    0.000    0.000    0.000    0.000 
#    0.000    0.000    0.000    0.000    0.000    0.000 
#
# Total GULP energy -111626.116157 kJ/mol
# GULP energy per Si atom -5581.305808 kJ/mol
# Density = 2.080581 g / cm^3
# Si number density = 20.853276 Si / 1000 Ang^3
#
#
#
# Elastic Constant Matrix: (Units=GPa)
#
#
# Indices 1 2 3 4 5 6 
#
# 1 65.5260 94.4773 32.5983 0.0000 0.0000 0.0000
# 2 94.4773 65.5257 32.5982 0.0000 0.0000 0.0000
# 3 32.5983 32.5982 112.0193 0.0000 0.0000 0.0000
# 4 0.0000 0.0000 0.0000 62.1846 0.0000 0.0000
# 5 0.0000 0.0000 0.0000 0.0000 62.1681 0.0000
# 6 0.0000 0.0000 0.0000 0.0000 0.0000 5.4905
#
#
#
# Elastic Compliance Matrix: (Units=1/GPa)
#
#
# Indices 1 2 3 4 5 6 
#
# 1 -0.013725 0.020816 -0.002063 0.000000 0.000000 0.000000
# 2 0.020816 -0.013725 -0.002063 0.000000 0.000000 0.000000
# 3 -0.002063 -0.002063 0.010128 0.000000 0.000000 0.000000
# 4 0.000000 0.000000 0.000000 0.016081 0.000000 0.000000
# 5 0.000000 0.000000 0.000000 0.000000 0.016085 0.000000
# 6 0.000000 0.000000 0.000000 0.000000 0.000000 0.182134
#
#
# Mechanical properties :
#
#
# Convention : Reuss Voigt Hill
#
# Bulk Modulus (GPa) = 62.28359 62.49098 62.38728
# Shear Modulus (GPa) = 29.59402 31.52843 30.56122
#
# Velocity S-wave (km/s) = 3.77125 3.89256 3.83238
# Velocity P-wave (km/s) = 6.99253 7.08764 7.04025
#
# Compressibility (1/GPa) = 0.01605559
#
# Stress axis : x y z
#
# Youngs Moduli (GPa) = -72.86008 -72.85979 98.73643
#
# Poissons Ratio (x) = 1.51662 0.20373
# Poissons Ratio (y) = 1.51663 0.20374
# Poissons Ratio (z) = -0.15034 -0.15034
#
# Static dielectric constant tensor:
#      x y z
#    x 1.771240 0.000000 0.000000 
#    y 0.000000 1.771240 0.000000 
#    z 0.000000 0.000000 1.726770 
# 
# From -- ./inp_files/9137.got.cif
#   From: 2010.05.17/outbox.cif.g08.bks.cpg/sg119_5_cif.got.tgz:9137.got - 2010.05.20 11:21:29.
