data_PCOD9559054
_publ_section_title
;
Structure prediction by ZEFSAII (Michael W. Deem and Ramdas Pophale) SiO2 
 PCOD9559054
Probable space group: I -4 M 2
;
_chemical_formula_sum "Si O2"
_cell_formula_units_Z 64
_cell_length_a 27.425547
_cell_length_b 27.425547
_cell_length_c 5.033559
_cell_angle_alpha 90.000000
_cell_angle_beta 90.000000
_cell_angle_gamma 90.000000
_cell_volume 3786.044900
_symmetry_space_group_name_H-M "I -4 M 2"
_symmetry_group_IT_number 119
_symmetry_cell_setting 'tetragonal'
loop_
_space_group_symop_operation_xyz
x,y,z
y,-x,-z
-x,-y,z
-y,x,-z
y,x,-z
-y,-x,-z
-x,y,z
x,-y,z
1/2+x,1/2+y,1/2+z
1/2+y,1/2-x,1/2-z
1/2-x,1/2-y,1/2+z
1/2-y,1/2+x,1/2-z
1/2+y,1/2+x,1/2-z
1/2-y,1/2-x,1/2-z
1/2-x,1/2+y,1/2+z
1/2+x,1/2-y,1/2+z
loop_
_atom_site_type_symbol
_atom_site_label
_atom_site_fract_x
_atom_site_fract_y
_atom_site_fract_z
Si Si1 0.797870 0.943576 0.013805
Si Si2 0.943575 0.702129 0.263805
Si Si3 0.556510 0.862615 0.246274
Si Si4 0.637387 0.556510 0.996274
O O1 0.749999 0.921077 0.875000
O O2 0.838536 0.943293 0.785933
O O3 0.784259 0.000000 0.079171
O O4 0.822585 0.924407 0.282424
O O5 0.924407 0.677414 0.532424
O O6 0.000000 0.715739 0.329171
O O7 0.943293 0.661463 0.035933
O O8 0.500000 0.873608 0.175387
O O9 0.590202 0.909799 0.250000
O O10 0.626393 0.500000 0.925388
O O11 0.590203 0.590203 0.000000
#
# Coordination Sequence:
#
# PCOD9559054 Si02
#       4
#    16  16  16  16
#     4   9  17  30  47  65  87 118 156 198 238 267
#     4   9  17  30  47  65  87 118 156 198 238 267
#     4  10  19  30  45  67  96 127 156 186 223 275
#     4  10  19  30  45  67  96 127 156 186 223 275
#
# _framework density 16.904184000000001
#
# number of rings (size 3 to 8) (size 9 to 14) (size 15 to 20)
#    0.000    2.500    0.000    3.000    0.000    6.500 
#    0.000    0.000    0.000    9.000    0.000    0.000 
#    0.000   56.000    0.000    0.000    0.000    0.000 
#
# Total GULP energy -178165.663205 kJ/mol
# GULP energy per Si atom -5567.676975 kJ/mol
# Density = 1.686571 g / cm^3
# Si number density = 16.904184 Si / 1000 Ang^3
#
#
#
# Elastic Constant Matrix: (Units=GPa)
#
#
# Indices 1 2 3 4 5 6 
#
# 1 32.5899 13.1860 -12.4648 0.0000 0.0000 0.0000
# 2 13.1860 32.5928 -12.4627 0.0000 0.0000 0.0000
# 3 -12.4648 -12.4627 72.0922 0.0000 0.0000 0.0000
# 4 0.0000 0.0000 0.0000 19.5328 0.0000 0.0000
# 5 0.0000 0.0000 0.0000 0.0000 19.5321 0.0000
# 6 0.0000 0.0000 0.0000 0.0000 0.0000 -3.3655
#
#
#
# Elastic Compliance Matrix: (Units=1/GPa)
#
#
# Indices 1 2 3 4 5 6 
#
# 1 0.037826 -0.013709 0.004170 0.000000 0.000000 0.000000
# 2 -0.013709 0.037821 0.004168 0.000000 0.000000 0.000000
# 3 0.004170 0.004168 0.015313 0.000000 0.000000 0.000000
# 4 0.000000 0.000000 0.000000 0.051196 0.000000 0.000000
# 5 0.000000 0.000000 0.000000 0.000000 0.051198 0.000000
# 6 0.000000 0.000000 0.000000 0.000000 0.000000 -0.297131
#
#
# Mechanical properties :
#
#
# Convention : Reuss Voigt Hill
#
# Bulk Modulus (GPa) = 12.46577 12.64354 12.55465
# Shear Modulus (GPa) = -75.41838 17.07430 -29.17204
#
# Velocity S-wave (km/s) = -6.68671 3.18160 -4.15870
# Velocity P-wave (km/s) = 7.22674 4.58176 3.95178
#
# Compressibility (1/GPa) = 0.08021970
#
# Stress axis : x y z
#
# Youngs Moduli (GPa) = 26.43692 26.44004 65.30518
#
# Poissons Ratio (x) = 0.36245 -0.27234
# Poissons Ratio (y) = 0.36241 -0.27219
# Poissons Ratio (z) = -0.11025 -0.11020
#
# Static dielectric constant tensor:
#      x y z
#    x 1.579420 0.000000 0.000000 
#    y 0.000000 1.579420 0.000000 
#    z 0.000000 0.000000 1.599720 
# 
# From -- ./inp_files/748.got.cif
#   From: 2010.05.17/outbox.cif.g08.bks.cpg/sg119_1_cif.got.tgz:748.got - 2010.05.20 11:21:29.
