data_PCOD9559649
_publ_section_title
;
Structure prediction by ZEFSAII (Michael W. Deem and Ramdas Pophale) SiO2 
 PCOD9559649
Probable space group: I -4 C 2
;
_chemical_formula_sum "Si O2"
_cell_formula_units_Z 96
_cell_length_a 15.186695
_cell_length_b 15.186695
_cell_length_c 19.593847
_cell_angle_alpha 90.000000
_cell_angle_beta 90.000000
_cell_angle_gamma 90.000000
_cell_volume 4519.040717
_symmetry_space_group_name_H-M "I -4 C 2"
_symmetry_group_IT_number 120
_symmetry_cell_setting 'tetragonal'
loop_
_space_group_symop_operation_xyz
x,y,z
y,-x,-z
-x,-y,z
-y,x,-z
y,x,1/2-z
-y,-x,1/2-z
-x,y,1/2+z
x,-y,1/2+z
1/2+x,1/2+y,1/2+z
1/2+y,1/2-x,1/2-z
1/2-x,1/2-y,1/2+z
1/2-y,1/2+x,1/2-z
1/2+y,1/2+x,-z
1/2-y,1/2-x,-z
1/2-x,1/2+y,z
1/2+x,1/2-y,z
loop_
_atom_site_type_symbol
_atom_site_label
_atom_site_fract_x
_atom_site_fract_y
_atom_site_fract_z
Si Si1 0.142253 0.548210 0.564516
Si Si2 0.398335 0.051898 0.295757
Si Si3 0.236734 0.205019 0.574053
Si Si4 0.554488 0.278435 0.510281
Si Si5 0.139409 0.211793 0.183372
Si Si6 0.411958 0.560953 0.410671
O O1 0.091903 0.591903 0.500000
O O2 0.081005 0.554222 0.632307
O O3 0.228381 0.606132 0.586268
O O4 0.187182 0.463237 0.529093
O O5 0.451613 0.098141 0.232831
O O6 0.298275 0.080414 0.306228
O O7 0.272493 0.227508 0.500000
O O8 0.133882 0.220918 0.564641
O O9 0.288622 0.265627 0.626041
O O10 0.568388 0.351267 0.452305
O O11 0.475843 0.323079 0.552935
O O12 0.193480 0.193480 0.250000
O O13 0.085265 0.124717 0.163212
O O14 0.500000 0.500000 0.413452
#
# Coordination Sequence:
#
# PCOD9559649 Si02
#       6
#    16  16  16  16  16  16
#     4  10  21  39  65  99 133 173 235 299 358 428
#     4  10  24  47  71  92 138 193 243 300 363 433
#     4  10  19  38  65  95 131 175 230 290 352 434
#     4  12  19  37  69 103 139 177 233 300 369 435
#     4  11  26  43  66 100 143 189 243 298 370 450
#     4  12  22  39  67 104 143 186 231 300 373 440
#
# _framework density 21.243445999999999
#
# number of rings (size 3 to 8) (size 9 to 14) (size 15 to 20)
#    0.000    1.167    5.000    2.000    2.333    3.000 
#    0.000    5.000    0.000    0.000    0.000    0.000 
#    0.000    0.000    0.000    0.000    0.000    0.000 
#
# Total GULP energy -267402.578471 kJ/mol
# GULP energy per Si atom -5570.887051 kJ/mol
# Density = 2.119510 g / cm^3
# Si number density = 21.243446 Si / 1000 Ang^3
#
#
#
# Elastic Constant Matrix: (Units=GPa)
#
#
# Indices 1 2 3 4 5 6 
#
# 1 80.4250 16.2709 28.5921 0.0000 0.0000 0.0000
# 2 16.2709 80.4261 28.5920 0.0000 0.0000 0.0000
# 3 28.5921 28.5920 125.5267 0.0000 0.0000 0.0000
# 4 0.0000 0.0000 0.0000 12.6268 0.0000 0.0000
# 5 0.0000 0.0000 0.0000 0.0000 12.6260 0.0000
# 6 0.0000 0.0000 0.0000 0.0000 0.0000 23.2327
#
#
#
# Elastic Compliance Matrix: (Units=1/GPa)
#
#
# Indices 1 2 3 4 5 6 
#
# 1 0.013770 -0.001818 -0.002722 0.000000 0.000000 0.000000
# 2 -0.001818 0.013769 -0.002722 0.000000 0.000000 0.000000
# 3 -0.002722 -0.002722 0.009207 0.000000 0.000000 0.000000
# 4 0.000000 0.000000 0.000000 0.079197 0.000000 0.000000
# 5 0.000000 0.000000 0.000000 0.000000 0.079202 0.000000
# 6 0.000000 0.000000 0.000000 0.000000 0.000000 0.043043
#
#
# Mechanical properties :
#
#
# Convention : Reuss Voigt Hill
#
# Bulk Modulus (GPa) = 45.00344 48.14308 46.57326
# Shear Modulus (GPa) = 19.22203 23.89196 21.55700
#
# Velocity S-wave (km/s) = 3.01133 3.35725 3.18899
# Velocity P-wave (km/s) = 5.77247 6.14329 5.96076
#
# Compressibility (1/GPa) = 0.02222052
#
# Stress axis : x y z
#
# Youngs Moduli (GPa) = 72.62413 72.62521 108.61801
#
# Poissons Ratio (x) = 0.13203 0.29569
# Poissons Ratio (y) = 0.13202 0.29569
# Poissons Ratio (z) = 0.19770 0.19770
#
# Static dielectric constant tensor:
#      x y z
#    x 1.982390 0.000000 0.000000 
#    y 0.000000 1.982400 0.000000 
#    z 0.000000 0.000000 1.764010 
# 
# From -- ./inp_files/4471.got.cif
#   From: 2010.05.17/outbox.cif.g08.bks.cpg/sg120_3_cif.got.tgz:4471.got - 2010.05.20 11:28:13.
