data_PCOD9559612
_publ_section_title
;
Structure prediction by ZEFSAII (Michael W. Deem and Ramdas Pophale) SiO2 
 PCOD9559612
Probable space group: I -4 C 2
;
_chemical_formula_sum "Si O2"
_cell_formula_units_Z 80
_cell_length_a 27.173046
_cell_length_b 27.173046
_cell_length_c 5.515429
_cell_angle_alpha 90.000000
_cell_angle_beta 90.000000
_cell_angle_gamma 90.000000
_cell_volume 4072.451738
_symmetry_space_group_name_H-M "I -4 C 2"
_symmetry_group_IT_number 120
_symmetry_cell_setting 'tetragonal'
loop_
_space_group_symop_operation_xyz
x,y,z
y,-x,-z
-x,-y,z
-y,x,-z
y,x,1/2-z
-y,-x,1/2-z
-x,y,1/2+z
x,-y,1/2+z
1/2+x,1/2+y,1/2+z
1/2+y,1/2-x,1/2-z
1/2-x,1/2-y,1/2+z
1/2-y,1/2+x,1/2-z
1/2+y,1/2+x,-z
1/2-y,1/2-x,-z
1/2-x,1/2+y,z
1/2+x,1/2-y,z
loop_
_atom_site_type_symbol
_atom_site_label
_atom_site_fract_x
_atom_site_fract_y
_atom_site_fract_z
Si Si1 0.519883 0.191432 0.250002
Si Si2 0.757196 0.675782 0.250000
Si Si3 0.214202 0.133060 0.250000
Si Si4 0.873068 0.345397 0.750000
Si Si5 0.981632 0.804841 0.250002
O O1 0.500000 0.168855 0.500002
O O2 0.579357 0.189890 0.250000
O O3 0.499775 0.247693 0.250002
O O4 0.729098 0.729098 0.250000
O O5 0.740188 0.648115 0.494913
O O6 0.816488 0.675107 0.250000
O O7 0.740188 0.648115 0.005087
O O8 0.165339 0.165339 0.250000
O O9 0.200003 0.076554 0.249999
O O10 0.875349 0.375349 0.500000
O O11 0.875349 0.375349 0.000000
O O12 1.000000 0.827928 0.500002
#
# Coordination Sequence:
#
# PCOD9559612 Si02
#       5
#    16  16  16  16  16
#     4  10  21  36  52  72 103 139 172 215 265 308
#     4  10  21  35  52  76 110 150 184 213 252 308
#     4  10  20  36  55  78 113 150 181 216 261 314
#     4  12  23  35  55  79 107 139 178 220 261 308
#     4  10  19  32  52  73  97 136 185 225 259 301
#
# _framework density 19.644185
#
# number of rings (size 3 to 8) (size 9 to 14) (size 15 to 20)
#    0.000    1.600    0.000    6.000    0.000    4.000 
#    0.000    1.000    0.000    0.000    0.000    0.000 
#    0.000   30.400    0.000    0.000    0.000    0.000 
#
# Total GULP energy -223148.337928 kJ/mol
# GULP energy per Si atom -5578.708448 kJ/mol
# Density = 1.959947 g / cm^3
# Si number density = 19.644185 Si / 1000 Ang^3
#
#
#
# Elastic Constant Matrix: (Units=GPa)
#
#
# Indices 1 2 3 4 5 6 
#
# 1 79.7278 14.3468 47.1415 0.0000 0.0000 0.0000
# 2 14.3468 79.7278 47.1415 0.0000 0.0000 0.0000
# 3 47.1415 47.1415 238.3126 0.0000 0.0000 0.0000
# 4 0.0000 0.0000 0.0000 17.3270 0.0000 0.0000
# 5 0.0000 0.0000 0.0000 0.0000 17.3270 0.0000
# 6 0.0000 0.0000 0.0000 0.0000 0.0000 11.0096
#
#
#
# Elastic Compliance Matrix: (Units=1/GPa)
#
#
# Indices 1 2 3 4 5 6 
#
# 1 0.014277 -0.001018 -0.002623 0.000000 0.000000 0.000000
# 2 -0.001018 0.014277 -0.002623 0.000000 0.000000 0.000000
# 3 -0.002623 -0.002623 0.005234 0.000000 0.000000 0.000000
# 4 0.000000 0.000000 0.000000 0.057713 0.000000 0.000000
# 5 0.000000 0.000000 0.000000 0.000000 0.057713 0.000000
# 6 0.000000 0.000000 0.000000 0.000000 0.000000 0.090830
#
#
# Mechanical properties :
#
#
# Convention : Reuss Voigt Hill
#
# Bulk Modulus (GPa) = 47.03728 68.33644 57.68686
# Shear Modulus (GPa) = 19.25612 28.40861 23.83237
#
# Velocity S-wave (km/s) = 3.13428 3.80697 3.48688
# Velocity P-wave (km/s) = 6.09056 7.36116 6.75579
#
# Compressibility (1/GPa) = 0.02125973
#
# Stress axis : x y z
#
# Youngs Moduli (GPa) = 70.04443 70.04443 191.06661
#
# Poissons Ratio (x) = 0.07133 0.50111
# Poissons Ratio (y) = 0.07133 0.50111
# Poissons Ratio (z) = 0.18370 0.18370
#
# Static dielectric constant tensor:
#      x y z
#    x 1.692800 0.000000 0.000000 
#    y 0.000000 1.692800 0.000000 
#    z 0.000000 0.000000 1.803600 
# 
# From -- ./inp_files/446.got.cif
#   From: 2010.05.17/outbox.cif.g08.bks.cpg/sg120_1_cif.got.tgz:446.got - 2010.05.20 11:28:13.
