data_PCOD9559744
_publ_section_title
;
Structure prediction by ZEFSAII (Michael W. Deem and Ramdas Pophale) SiO2 
 PCOD9559744
Probable space group: I -4 C 2
;
_chemical_formula_sum "Si O2"
_cell_formula_units_Z 96
_cell_length_a 22.999862
_cell_length_b 22.999862
_cell_length_c 9.422921
_cell_angle_alpha 90.000000
_cell_angle_beta 90.000000
_cell_angle_gamma 90.000000
_cell_volume 4984.665392
_symmetry_space_group_name_H-M "I -4 C 2"
_symmetry_group_IT_number 120
_symmetry_cell_setting 'tetragonal'
loop_
_space_group_symop_operation_xyz
x,y,z
y,-x,-z
-x,-y,z
-y,x,-z
y,x,1/2-z
-y,-x,1/2-z
-x,y,1/2+z
x,-y,1/2+z
1/2+x,1/2+y,1/2+z
1/2+y,1/2-x,1/2-z
1/2-x,1/2-y,1/2+z
1/2-y,1/2+x,1/2-z
1/2+y,1/2+x,-z
1/2-y,1/2-x,-z
1/2-x,1/2+y,z
1/2+x,1/2-y,z
loop_
_atom_site_type_symbol
_atom_site_label
_atom_site_fract_x
_atom_site_fract_y
_atom_site_fract_z
Si Si1 0.213308 0.201095 0.083486
Si Si2 0.612970 0.066123 0.380055
Si Si3 0.723253 0.579173 0.957476
Si Si4 0.266316 0.922432 0.506633
Si Si5 0.007046 0.222959 0.767429
Si Si6 0.137564 0.431838 0.879624
O O1 0.215414 0.215414 0.250000
O O2 0.146599 0.208780 0.038321
O O3 0.254934 0.245067 0.000000
O O4 0.233729 0.135426 0.053536
O O5 0.563497 0.063497 0.500000
O O6 0.669010 0.088823 0.461779
O O7 0.600878 0.111667 0.256702
O O8 0.626809 0.999555 0.343051
O O9 0.693482 0.545047 0.824592
O O10 0.794254 0.574687 0.928515
O O11 0.702429 0.548765 0.104214
O O12 0.240472 0.951600 0.363399
O O13 0.266837 0.968509 0.635772
O O14 0.096207 0.403794 0.000000
#
# Coordination Sequence:
#
# PCOD9559744 Si02
#       6
#    16  16  16  16  16  16
#     4  12  28  43  64 102 143 174 215 286 355 419
#     4  12  25  38  61  84 120 171 223 275 333 375
#     4  11  23  43  66  93 127 171 226 267 337 412
#     4  11  23  43  68  92 129 172 225 267 336 412
#     4  10  20  40  70  88 120 175 222 267 310 406
#     4  12  25  39  60  84 116 169 222 277 324 378
#
# _framework density 19.259066000000001
#
# number of rings (size 3 to 8) (size 9 to 14) (size 15 to 20)
#    0.000    0.667    5.000    4.000    4.667    2.000 
#    0.000    0.000    0.000    0.000    0.000    0.000 
#    0.000   46.667    0.000    0.000    0.000    0.000 
#
# Total GULP energy -267251.097630 kJ/mol
# GULP energy per Si atom -5567.731201 kJ/mol
# Density = 1.921523 g / cm^3
# Si number density = 19.259066 Si / 1000 Ang^3
#
#
#
# Elastic Constant Matrix: (Units=GPa)
#
#
# Indices 1 2 3 4 5 6 
#
# 1 -341.7898 473.2421 36.5267 0.0000 0.0000 0.0000
# 2 473.2421 -341.7495 36.6133 0.0000 0.0000 0.0000
# 3 36.5267 36.6133 156.3576 0.0000 0.0000 0.0000
# 4 0.0000 0.0000 0.0000 26.5168 0.0000 0.0000
# 5 0.0000 0.0000 0.0000 0.0000 26.5162 0.0000
# 6 0.0000 0.0000 0.0000 0.0000 0.0000 20.3998
#
#
#
# Elastic Compliance Matrix: (Units=1/GPa)
#
#
# Indices 1 2 3 4 5 6 
#
# 1 0.003758 0.004985 -0.002045 0.000000 0.000000 0.000000
# 2 0.004985 0.003758 -0.002045 0.000000 0.000000 0.000000
# 3 -0.002045 -0.002045 0.007352 0.000000 0.000000 0.000000
# 4 0.000000 0.000000 0.000000 0.037712 0.000000 0.000000
# 5 0.000000 0.000000 0.000000 0.000000 0.037713 0.000000
# 6 0.000000 0.000000 0.000000 0.000000 0.000000 0.049020
#
#
# Mechanical properties :
#
#
# Convention : Reuss Voigt Hill
#
# Bulk Modulus (GPa) = 60.02525 62.84248 61.43387
# Shear Modulus (GPa) = 34.94631 -56.88435 -10.96902
#
# Velocity S-wave (km/s) = 4.26436 -5.44064 -2.38912
# Velocity P-wave (km/s) = 7.44858 2.60124 4.93532
#
# Compressibility (1/GPa) = 0.01665966
#
# Stress axis : x y z
#
# Youngs Moduli (GPa) = 266.06762 266.06772 136.01326
#
# Poissons Ratio (x) = -1.32646 0.27820
# Poissons Ratio (y) = -1.32646 0.27811
# Poissons Ratio (z) = 0.54422 0.54404
#
# Static dielectric constant tensor:
#      x y z
#    x 1.696240 0.000000 0.000000 
#    y 0.000000 1.696240 0.000000 
#    z 0.000000 0.000000 1.830490 
# 
# From -- ./inp_files/1555.got.cif
#   From: 2010.05.17/outbox.cif.g08.bks.cpg/sg120_1_cif.got.tgz:1555.got - 2010.05.20 11:28:13.
