data_PCOD9559805
_publ_section_title
;
Structure prediction by ZEFSAII (Michael W. Deem and Ramdas Pophale) SiO2 
 PCOD9559805
Probable space group: I -4 C 2
;
_chemical_formula_sum "Si O2"
_cell_formula_units_Z 96
_cell_length_a 16.596182
_cell_length_b 16.596182
_cell_length_c 16.412745
_cell_angle_alpha 90.000000
_cell_angle_beta 90.000000
_cell_angle_gamma 90.000000
_cell_volume 4520.615811
_symmetry_space_group_name_H-M "I -4 C 2"
_symmetry_group_IT_number 120
_symmetry_cell_setting 'tetragonal'
loop_
_space_group_symop_operation_xyz
x,y,z
y,-x,-z
-x,-y,z
-y,x,-z
y,x,1/2-z
-y,-x,1/2-z
-x,y,1/2+z
x,-y,1/2+z
1/2+x,1/2+y,1/2+z
1/2+y,1/2-x,1/2-z
1/2-x,1/2-y,1/2+z
1/2-y,1/2+x,1/2-z
1/2+y,1/2+x,-z
1/2-y,1/2-x,-z
1/2-x,1/2+y,z
1/2+x,1/2-y,z
loop_
_atom_site_type_symbol
_atom_site_label
_atom_site_fract_x
_atom_site_fract_y
_atom_site_fract_z
Si Si1 0.320529 0.354675 0.657897
Si Si2 0.209720 0.459158 0.998221
Si Si3 0.612935 0.930513 0.767120
Si Si4 0.881772 0.029803 0.520709
Si Si5 0.344445 0.890856 0.581664
Si Si6 0.828283 0.667361 0.121660
O O1 0.352849 0.352849 0.750000
O O2 0.373397 0.409204 0.596913
O O3 0.231858 0.389642 0.641470
O O4 0.310325 0.261070 0.633395
O O5 0.171098 0.416395 0.920663
O O6 0.292727 0.508509 0.987608
O O7 0.149428 0.519505 0.044775
O O8 0.225934 0.383618 0.059155
O O9 0.522980 0.894178 0.757610
O O10 0.636046 0.916709 0.860816
O O11 0.668833 0.880777 0.705834
O O12 0.944087 0.075452 0.460937
O O13 0.337237 0.837237 0.500000
#
# Coordination Sequence:
#
# PCOD9559805 Si02
#       6
#    16  16  16  16  16  16
#     4  11  23  40  67  96 131 173 221 281 345 405
#     4  10  22  38  64  93 124 171 220 272 336 407
#     4  11  22  39  59  87 130 173 213 268 329 392
#     4  10  21  41  67  94 128 171 224 278 339 403
#     4  11  23  39  59  94 128 169 220 269 328 405
#     4  11  21  39  62  93 125 170 218 274 334 407
#
# _framework density 21.236044
#
# number of rings (size 3 to 8) (size 9 to 14) (size 15 to 20)
#    0.000    1.333    5.000    1.000    2.333    0.000 
#    0.000    1.667    0.000    0.000    0.000    0.000 
#    0.000    0.000    0.000    0.000    0.000    0.000 
#
# Total GULP energy -267675.277101 kJ/mol
# GULP energy per Si atom -5576.568273 kJ/mol
# Density = 2.118771 g / cm^3
# Si number density = 21.236044 Si / 1000 Ang^3
#
#
#
# Elastic Constant Matrix: (Units=GPa)
#
#
# Indices 1 2 3 4 5 6 
#
# 1 67.3399 -4.8467 4.9556 0.0000 0.0000 0.0000
# 2 -4.8467 67.3399 4.9556 0.0000 0.0000 0.0000
# 3 4.9556 4.9556 87.3170 0.0000 0.0000 0.0000
# 4 0.0000 0.0000 0.0000 29.3487 0.0000 0.0000
# 5 0.0000 0.0000 0.0000 0.0000 29.3487 0.0000
# 6 0.0000 0.0000 0.0000 0.0000 0.0000 28.4002
#
#
#
# Elastic Compliance Matrix: (Units=1/GPa)
#
#
# Indices 1 2 3 4 5 6 
#
# 1 0.015000 0.001147 -0.000916 0.000000 0.000000 0.000000
# 2 0.001147 0.015000 -0.000916 0.000000 0.000000 0.000000
# 3 -0.000916 -0.000916 0.011557 0.000000 0.000000 0.000000
# 4 0.000000 0.000000 0.000000 0.034073 0.000000 0.000000
# 5 0.000000 0.000000 0.000000 0.000000 0.034073 0.000000
# 6 0.000000 0.000000 0.000000 0.000000 0.000000 0.035211
#
#
# Mechanical properties :
#
#
# Convention : Reuss Voigt Hill
#
# Bulk Modulus (GPa) = 24.88489 25.79178 25.33833
# Shear Modulus (GPa) = 31.31258 31.88169 31.59714
#
# Velocity S-wave (km/s) = 3.84409 3.87887 3.86152
# Velocity P-wave (km/s) = 5.60771 5.67736 5.64264
#
# Compressibility (1/GPa) = 0.04018503
#
# Stress axis : x y z
#
# Youngs Moduli (GPa) = 66.66650 66.66650 86.53109
#
# Poissons Ratio (x) = -0.07647 0.07930
# Poissons Ratio (y) = -0.07647 0.07930
# Poissons Ratio (z) = 0.06109 0.06109
#
# Static dielectric constant tensor:
#      x y z
#    x 1.801270 0.000000 0.000000 
#    y 0.000000 1.801270 0.000000 
#    z 0.000000 0.000000 1.798200 
# 
# From -- ./inp_files/4451.got.cif
#   From: 2010.05.17/outbox.cif.g08.bks.cpg/sg120_3_cif.got.tgz:4451.got - 2010.05.20 11:28:13.
