data_PCOD9559712
_publ_section_title
;
Structure prediction by ZEFSAII (Michael W. Deem and Ramdas Pophale) SiO2 
 PCOD9559712
Probable space group: I -4 C 2
;
_chemical_formula_sum "Si O2"
_cell_formula_units_Z 116
_cell_length_a 18.166757
_cell_length_b 18.166757
_cell_length_c 16.908274
_cell_angle_alpha 90.000000
_cell_angle_beta 90.000000
_cell_angle_gamma 90.000000
_cell_volume 5580.255589
_symmetry_space_group_name_H-M "I -4 C 2"
_symmetry_group_IT_number 120
_symmetry_cell_setting 'tetragonal'
loop_
_space_group_symop_operation_xyz
x,y,z
y,-x,-z
-x,-y,z
-y,x,-z
y,x,1/2-z
-y,-x,1/2-z
-x,y,1/2+z
x,-y,1/2+z
1/2+x,1/2+y,1/2+z
1/2+y,1/2-x,1/2-z
1/2-x,1/2-y,1/2+z
1/2-y,1/2+x,1/2-z
1/2+y,1/2+x,-z
1/2-y,1/2-x,-z
1/2-x,1/2+y,z
1/2+x,1/2-y,z
loop_
_atom_site_type_symbol
_atom_site_label
_atom_site_fract_x
_atom_site_fract_y
_atom_site_fract_z
Si Si1 0.516829 0.384367 0.379535
Si Si2 0.987353 0.704698 0.132232
Si Si3 0.867969 0.640399 0.360095
Si Si4 0.653240 0.435739 0.461094
Si Si5 0.500000 0.500000 0.750000
Si Si6 0.169274 0.656466 0.674843
Si Si7 0.784705 0.221670 0.925693
Si Si8 0.000476 0.272587 0.820304
O O1 0.579381 0.440275 0.410369
O O2 0.461521 0.367687 0.451505
O O3 0.492626 0.426929 0.302352
O O4 0.537026 0.301995 0.350974
O O5 0.059807 0.657420 0.112592
O O6 0.996067 0.728013 0.224718
O O7 0.977659 0.776556 0.076594
O O8 0.910929 0.659005 0.132702
O O9 0.842627 0.650860 0.268792
O O10 0.829466 0.704249 0.410397
O O11 0.954373 0.658691 0.354629
O O12 0.669178 0.349282 0.450435
O O13 0.205213 0.733357 0.649580
O O14 0.217539 0.585044 0.653502
O O15 0.731947 0.231947 0.000000
#
# Coordination Sequence:
#
# PCOD9559712 Si02
#       8
#    16  16  16  16   4  16  16  16
#     4  12  24  44  64  90 126 173 215 271 328 396
#     4   9  21  38  63  95 130 168 220 269 327 383
#     4  10  20  37  64  93 124 167 220 268 321 390
#     4  11  24  41  65  91 130 172 212 269 330 394
#     4  12  28  46  64  92 128 170 232 272 332 404
#     4   9  20  39  59  90 129 169 213 272 330 384
#     4  11  22  38  59  90 123 165 216 268 327 388
#     4  10  20  39  63  93 128 172 218 269 323 389
#
# _framework density 20.787579000000001
#
# number of rings (size 3 to 8) (size 9 to 14) (size 15 to 20)
#    0.000    1.655    1.379    2.897    1.931    0.552 
#    9.931    2.759    0.000    0.000    0.000    3.862 
#    0.000    0.000    0.000    0.000    0.000    0.000 
#
# Total GULP energy -323521.328426 kJ/mol
# GULP energy per Si atom -5577.953938 kJ/mol
# Density = 2.074027 g / cm^3
# Si number density = 20.787579 Si / 1000 Ang^3
#
#
#
# Elastic Constant Matrix: (Units=GPa)
#
#
# Indices 1 2 3 4 5 6 
#
# 1 55.1829 27.1859 27.6508 0.0000 0.0000 0.0000
# 2 27.1859 55.1829 27.6508 0.0000 0.0000 0.0000
# 3 27.6508 27.6508 59.0267 0.0000 0.0000 0.0000
# 4 0.0000 0.0000 0.0000 22.3123 0.0000 0.0000
# 5 0.0000 0.0000 0.0000 0.0000 22.3123 0.0000
# 6 0.0000 0.0000 0.0000 0.0000 0.0000 12.7342
#
#
#
# Elastic Compliance Matrix: (Units=1/GPa)
#
#
# Indices 1 2 3 4 5 6 
#
# 1 0.026714 -0.009004 -0.008297 0.000000 0.000000 0.000000
# 2 -0.009004 0.026714 -0.008297 0.000000 0.000000 0.000000
# 3 -0.008297 -0.008297 0.024714 0.000000 0.000000 0.000000
# 4 0.000000 0.000000 0.000000 0.044818 0.000000 0.000000
# 5 0.000000 0.000000 0.000000 0.000000 0.044818 0.000000
# 6 0.000000 0.000000 0.000000 0.000000 0.000000 0.078529
#
#
# Mechanical properties :
#
#
# Convention : Reuss Voigt Hill
#
# Bulk Modulus (GPa) = 37.10603 37.15197 37.12900
# Shear Modulus (GPa) = 16.31399 17.26542 16.78971
#
# Velocity S-wave (km/s) = 2.80446 2.88508 2.84505
# Velocity P-wave (km/s) = 5.32687 5.38602 5.35653
#
# Compressibility (1/GPa) = 0.02694980
#
# Stress axis : x y z
#
# Youngs Moduli (GPa) = 37.43296 37.43296 40.46223
#
# Poissons Ratio (x) = 0.33704 0.33570
# Poissons Ratio (y) = 0.33704 0.33570
# Poissons Ratio (z) = 0.31056 0.31056
#
# Static dielectric constant tensor:
#      x y z
#    x 1.773500 0.000000 0.000000 
#    y 0.000000 1.773500 0.000000 
#    z 0.000000 0.000000 1.777020 
# 
# From -- ./inp_files/4570.got.cif
#   From: 2010.05.17/outbox.cif.g08.bks.cpg/sg120_3_cif.got.tgz:4570.got - 2010.05.20 11:28:13.
