data_PCOD9559937
_publ_section_title
;
Structure prediction by ZEFSAII (Michael W. Deem and Ramdas Pophale) SiO2 
 PCOD9559937
Probable space group: I -4 C 2
;
_chemical_formula_sum "Si O2"
_cell_formula_units_Z 48
_cell_length_a 12.977661
_cell_length_b 12.977661
_cell_length_c 10.553775
_cell_angle_alpha 90.000000
_cell_angle_beta 90.000000
_cell_angle_gamma 90.000000
_cell_volume 1777.463461
_symmetry_space_group_name_H-M "I -4 C 2"
_symmetry_group_IT_number 120
_symmetry_cell_setting 'tetragonal'
loop_
_space_group_symop_operation_xyz
x,y,z
y,-x,-z
-x,-y,z
-y,x,-z
y,x,1/2-z
-y,-x,1/2-z
-x,y,1/2+z
x,-y,1/2+z
1/2+x,1/2+y,1/2+z
1/2+y,1/2-x,1/2-z
1/2-x,1/2-y,1/2+z
1/2-y,1/2+x,1/2-z
1/2+y,1/2+x,-z
1/2-y,1/2-x,-z
1/2-x,1/2+y,z
1/2+x,1/2-y,z
loop_
_atom_site_type_symbol
_atom_site_label
_atom_site_fract_x
_atom_site_fract_y
_atom_site_fract_z
Si Si1 0.700634 0.160802 0.816372
Si Si2 0.666438 0.024851 0.571915
Si Si3 0.408515 0.624340 0.477547
O O1 0.732041 0.267960 0.750000
O O2 0.678218 0.077767 0.708453
O O3 0.807866 0.129183 0.887954
O O4 0.671220 0.096079 0.103940
O O5 0.568427 0.068427 0.500000
O O6 0.757933 0.073551 0.484746
O O7 0.527411 0.605618 0.428159
#
# Coordination Sequence:
#
# PCOD9559937 Si02
#       3
#    16  16  16
#     4  10  26  53  79 126 169 224 290 358 441 530
#     4  11  27  51  85 121 169 224 283 365 441 522
#     4  10  25  49  83 119 159 224 281 351 429 523
#
# _framework density 27.004774999999999
#
# number of rings (size 3 to 8) (size 9 to 14) (size 15 to 20)
#    0.000    1.667    0.000    0.000   14.000    3.333 
#   12.000   23.333    0.000    0.000    0.000    0.000 
#    0.000    0.000    0.000    0.000    0.000    0.000 
#
# Total GULP energy -133763.041330 kJ/mol
# GULP energy per Si atom -5573.460055 kJ/mol
# Density = 2.694331 g / cm^3
# Si number density = 27.004775 Si / 1000 Ang^3
#
#
#
# Elastic Constant Matrix: (Units=GPa)
#
#
# Indices 1 2 3 4 5 6 
#
# 1 247.5611 118.1253 93.7380 0.0000 0.0000 0.0000
# 2 118.1253 247.5595 93.7388 0.0000 0.0000 0.0000
# 3 93.7380 93.7388 86.6404 0.0000 0.0000 0.0000
# 4 0.0000 0.0000 0.0000 -461.5818 0.0000 0.0000
# 5 0.0000 0.0000 0.0000 0.0000 -461.3111 0.0000
# 6 0.0000 0.0000 0.0000 0.0000 0.0000 34.1853
#
#
#
# Elastic Compliance Matrix: (Units=1/GPa)
#
#
# Indices 1 2 3 4 5 6 
#
# 1 0.006933 -0.000793 -0.006644 0.000000 0.000000 0.000000
# 2 -0.000793 0.006933 -0.006644 0.000000 0.000000 0.000000
# 3 -0.006644 -0.006644 0.025918 0.000000 0.000000 0.000000
# 4 0.000000 0.000000 0.000000 -0.002166 0.000000 0.000000
# 5 0.000000 0.000000 0.000000 0.000000 -0.002168 0.000000
# 6 0.000000 0.000000 0.000000 0.000000 0.000000 0.029252
#
#
# Mechanical properties :
#
#
# Convention : Reuss Voigt Hill
#
# Bulk Modulus (GPa) = 86.02602 132.55170 109.28886
# Shear Modulus (GPa) = 51.68628 -159.33093 -53.82233
#
# Velocity S-wave (km/s) = 4.37964 -7.68955 -4.46922
# Velocity P-wave (km/s) = 7.58287 5.44497 3.73177
#
# Compressibility (1/GPa) = 0.01162439
#
# Stress axis : x y z
#
# Youngs Moduli (GPa) = 144.23392 144.23064 38.58331
#
# Poissons Ratio (x) = 0.11432 0.25633
# Poissons Ratio (y) = 0.11432 0.25634
# Poissons Ratio (z) = 0.95823 0.95824
#
# Static dielectric constant tensor:
#      x y z
#    x 2.197690 0.000000 0.000000 
#    y 0.000000 2.197700 0.000000 
#    z 0.000000 0.000000 2.307060 
# 
# From -- ./inp_files/2109.got.cif
#   From: 2010.05.17/outbox.cif.g08.bks.cpg/sg120_2_cif.got.tgz:2109.got - 2010.05.20 11:28:13.
