data_PCOD9559972
_publ_section_title
;
Structure prediction by ZEFSAII (Michael W. Deem and Ramdas Pophale) SiO2 
 PCOD9559972
Probable space group: I -4 C 2
;
_chemical_formula_sum "Si O2"
_cell_formula_units_Z 96
_cell_length_a 27.338339
_cell_length_b 27.338339
_cell_length_c 9.040573
_cell_angle_alpha 90.000000
_cell_angle_beta 90.000000
_cell_angle_gamma 90.000000
_cell_volume 6756.786656
_symmetry_space_group_name_H-M "I -4 C 2"
_symmetry_group_IT_number 120
_symmetry_cell_setting 'tetragonal'
loop_
_space_group_symop_operation_xyz
x,y,z
y,-x,-z
-x,-y,z
-y,x,-z
y,x,1/2-z
-y,-x,1/2-z
-x,y,1/2+z
x,-y,1/2+z
1/2+x,1/2+y,1/2+z
1/2+y,1/2-x,1/2-z
1/2-x,1/2-y,1/2+z
1/2-y,1/2+x,1/2-z
1/2+y,1/2+x,-z
1/2-y,1/2-x,-z
1/2-x,1/2+y,z
1/2+x,1/2-y,z
loop_
_atom_site_type_symbol
_atom_site_label
_atom_site_fract_x
_atom_site_fract_y
_atom_site_fract_z
Si Si1 0.854889 0.005443 0.294801
Si Si2 0.748987 0.327103 0.175354
Si Si3 0.325314 0.248703 0.179036
Si Si4 0.922155 0.989762 0.043680
Si Si5 0.820344 0.103643 0.822358
Si Si6 0.181855 0.893919 0.174791
O O1 0.871518 0.019946 0.459127
O O2 0.827651 0.050096 0.217682
O O3 0.906644 0.997630 0.211245
O O4 0.828246 0.953673 0.296632
O O5 0.711967 0.288034 0.250000
O O6 0.803050 0.305318 0.205080
O O7 0.729632 0.376847 0.247620
O O8 0.743070 0.327971 0.997688
O O9 0.285383 0.285383 0.250000
O O10 0.374395 0.267070 0.257549
O O11 0.960151 0.947040 0.011217
O O12 0.864948 0.135053 0.750000
O O13 0.819866 0.112935 0.998468
O O14 0.138848 0.861153 0.250000
#
# Coordination Sequence:
#
# PCOD9559972 Si02
#       6
#    16  16  16  16  16  16
#     4  12  24  33  46  64  82 110 146 187 230 272
#     4   9  17  29  47  68  87 106 131 167 212 264
#     4   9  17  29  47  68  87 106 131 167 212 264
#     4  11  22  36  48  58  76 106 148 194 234 267
#     4  11  22  33  48  64  84 112 141 181 225 266
#     4  11  22  33  48  64  84 112 141 181 225 266
#
# _framework density 14.207936
#
# number of rings (size 3 to 8) (size 9 to 14) (size 15 to 20)
#    0.000    1.500    1.667    7.000    4.667    3.333 
#    0.000    0.000    0.000    0.000    0.000    0.000 
#    0.000    0.000    0.000    0.000    0.000    0.833 
#
# Total GULP energy -267633.803276 kJ/mol
# GULP energy per Si atom -5575.704235 kJ/mol
# Density = 1.417560 g / cm^3
# Si number density = 14.207936 Si / 1000 Ang^3
#
#
#
# Elastic Constant Matrix: (Units=GPa)
#
#
# Indices 1 2 3 4 5 6 
#
# 1 54.6882 44.4881 36.8054 0.0000 0.0000 0.0000
# 2 44.4881 54.6890 36.8056 0.0000 0.0000 0.0000
# 3 36.8054 36.8056 95.1778 0.0000 0.0000 0.0000
# 4 0.0000 0.0000 0.0000 19.3578 0.0000 0.0000
# 5 0.0000 0.0000 0.0000 0.0000 19.3577 0.0000
# 6 0.0000 0.0000 0.0000 0.0000 0.0000 15.5770
#
#
#
# Elastic Compliance Matrix: (Units=1/GPa)
#
#
# Indices 1 2 3 4 5 6 
#
# 1 0.056089 -0.041946 -0.005469 0.000000 0.000000 0.000000
# 2 -0.041946 0.056088 -0.005469 0.000000 0.000000 0.000000
# 3 -0.005469 -0.005469 0.014736 0.000000 0.000000 0.000000
# 4 0.000000 0.000000 0.000000 0.051659 0.000000 0.000000
# 5 0.000000 0.000000 0.000000 0.000000 0.051659 0.000000
# 6 0.000000 0.000000 0.000000 0.000000 0.000000 0.064197
#
#
# Mechanical properties :
#
#
# Convention : Reuss Voigt Hill
#
# Bulk Modulus (GPa) = 47.29192 48.97256 48.13224
# Shear Modulus (GPa) = 12.27768 16.62222 14.44995
#
# Velocity S-wave (km/s) = 2.94282 3.42413 3.19256
# Velocity P-wave (km/s) = 6.70110 7.08351 6.89496
#
# Compressibility (1/GPa) = 0.02114526
#
# Stress axis : x y z
#
# Youngs Moduli (GPa) = 17.82895 17.82924 67.86000
#
# Poissons Ratio (x) = 0.74787 0.37111
# Poissons Ratio (y) = 0.74785 0.37111
# Poissons Ratio (z) = 0.09750 0.09750
#
# Static dielectric constant tensor:
#      x y z
#    x 1.483250 0.000000 0.000000 
#    y 0.000000 1.483250 0.000000 
#    z 0.000000 0.000000 1.498760 
# 
# From -- ./inp_files/1639.got.cif
#   From: 2010.05.17/outbox.cif.g08.bks.cpg/sg120_1_cif.got.tgz:1639.got - 2010.05.20 11:28:13.
