data_PCOD9559100
_publ_section_title
;
Structure prediction by ZEFSAII (Michael W. Deem and Ramdas Pophale) SiO2 
 PCOD9559100
Probable space group: I -4 M 2
;
_chemical_formula_sum "Si O2"
_cell_formula_units_Z 96
_cell_length_a 17.337753
_cell_length_b 17.337753
_cell_length_c 17.308837
_cell_angle_alpha 90.000000
_cell_angle_beta 90.000000
_cell_angle_gamma 90.000000
_cell_volume 5202.996230
_symmetry_space_group_name_H-M "I -4 M 2"
_symmetry_group_IT_number 119
_symmetry_cell_setting 'tetragonal'
loop_
_space_group_symop_operation_xyz
x,y,z
y,-x,-z
-x,-y,z
-y,x,-z
y,x,-z
-y,-x,-z
-x,y,z
x,-y,z
1/2+x,1/2+y,1/2+z
1/2+y,1/2-x,1/2-z
1/2-x,1/2-y,1/2+z
1/2-y,1/2+x,1/2-z
1/2+y,1/2+x,1/2-z
1/2-y,1/2-x,1/2-z
1/2-x,1/2+y,1/2+z
1/2+x,1/2-y,1/2+z
loop_
_atom_site_type_symbol
_atom_site_label
_atom_site_fract_x
_atom_site_fract_y
_atom_site_fract_z
Si Si1 0.139960 0.310332 0.124338
Si Si2 0.344423 0.586306 0.426140
Si Si3 0.092024 0.588538 0.979114
Si Si4 0.673084 0.908016 0.177728
Si Si5 0.758505 0.089387 0.713025
Si Si6 0.351163 0.412508 0.720322
O O1 0.144260 0.227259 0.083660
O O2 0.094869 0.286207 0.203634
O O3 0.215199 0.353042 0.155688
O O4 0.106218 0.368096 0.060151
O O5 0.392763 0.607238 0.500000
O O6 0.311587 0.500000 0.431520
O O7 0.399769 0.594026 0.353098
O O8 0.121993 0.500000 0.978656
O O9 0.119637 0.638031 0.904458
O O10 0.000000 0.583902 0.970683
O O11 0.631857 0.868144 0.250000
O O12 0.764637 0.896766 0.188874
O O13 0.659730 0.000000 0.182232
O O14 0.844876 0.121187 0.723604
O O15 0.757599 0.000000 0.689282
O O16 0.354464 0.500000 0.749554
#
# Coordination Sequence:
#
# PCOD9559100 Si02
#       6
#    16  16  16  16  16  16
#     4  10  20  35  54  80 113 148 190 236 281 338
#     4  11  22  35  55  83 116 154 188 230 286 343
#     4  10  19  32  52  78 111 149 186 227 276 333
#     4  10  21  35  55  80 113 148 188 234 283 342
#     4  10  21  36  57  81 111 151 191 236 288 340
#     4  10  21  35  54  80 110 147 189 237 285 342
#
# _framework density 18.450907000000001
#
# number of rings (size 3 to 8) (size 9 to 14) (size 15 to 20)
#    0.000    1.833    0.000    5.500    4.667    4.333 
#    0.000    0.000    0.000    6.000    0.000    0.000 
#    0.000    0.000    0.000    0.000    0.000    0.000 
#
# Total GULP energy -267524.202371 kJ/mol
# GULP energy per Si atom -5573.420883 kJ/mol
# Density = 1.840891 g / cm^3
# Si number density = 18.450907 Si / 1000 Ang^3
#
#
#
# Elastic Constant Matrix: (Units=GPa)
#
#
# Indices 1 2 3 4 5 6 
#
# 1 95.1107 52.5153 27.0473 0.0000 0.0000 0.0000
# 2 52.5153 95.1090 27.0471 0.0000 0.0000 0.0000
# 3 27.0473 27.0471 59.0623 0.0000 0.0000 0.0000
# 4 0.0000 0.0000 0.0000 -11.0884 0.0000 0.0000
# 5 0.0000 0.0000 0.0000 0.0000 -11.0670 0.0000
# 6 0.0000 0.0000 0.0000 0.0000 0.0000 25.3380
#
#
#
# Elastic Compliance Matrix: (Units=1/GPa)
#
#
# Indices 1 2 3 4 5 6 
#
# 1 0.015808 -0.007669 -0.003728 0.000000 0.000000 0.000000
# 2 -0.007669 0.015809 -0.003728 0.000000 0.000000 0.000000
# 3 -0.003728 -0.003728 0.020345 0.000000 0.000000 0.000000
# 4 0.000000 0.000000 0.000000 -0.090184 0.000000 0.000000
# 5 0.000000 0.000000 0.000000 0.000000 -0.090359 0.000000
# 6 0.000000 0.000000 0.000000 0.000000 0.000000 0.039466
#
#
# Mechanical properties :
#
#
# Convention : Reuss Voigt Hill
#
# Bulk Modulus (GPa) = 46.05189 51.38905 48.72047
# Shear Modulus (GPa) = -96.84610 10.14800 -43.34905
#
# Velocity S-wave (km/s) = -7.25276 2.34775 -4.85235
# Velocity P-wave (km/s) = 6.71739 5.93814 2.22056
#
# Compressibility (1/GPa) = 0.02171463
#
# Stress axis : x y z
#
# Youngs Moduli (GPa) = 63.25776 63.25655 49.15138
#
# Poissons Ratio (x) = 0.48509 0.18321
# Poissons Ratio (y) = 0.48510 0.18322
# Poissons Ratio (z) = 0.23580 0.23580
#
# Static dielectric constant tensor:
#      x y z
#    x 1.651900 0.000000 0.000000 
#    y 0.000000 1.651910 0.000000 
#    z 0.000000 0.000000 1.651280 
# 
# From -- ./inp_files/6637.got.cif
#   From: 2010.05.17/outbox.cif.g08.bks.cpg/sg119_4_cif.got.tgz:6637.got - 2010.05.20 11:21:29.
