data_PCOD9559841
_publ_section_title
;
Structure prediction by ZEFSAII (Michael W. Deem and Ramdas Pophale) SiO2 
 PCOD9559841
Probable space group: I -4 C 2
;
_chemical_formula_sum "Si O2"
_cell_formula_units_Z 72
_cell_length_a 19.785382
_cell_length_b 19.785382
_cell_length_c 9.179418
_cell_angle_alpha 90.000000
_cell_angle_beta 90.000000
_cell_angle_gamma 90.000000
_cell_volume 3593.387279
_symmetry_space_group_name_H-M "I -4 C 2"
_symmetry_group_IT_number 120
_symmetry_cell_setting 'tetragonal'
loop_
_space_group_symop_operation_xyz
x,y,z
y,-x,-z
-x,-y,z
-y,x,-z
y,x,1/2-z
-y,-x,1/2-z
-x,y,1/2+z
x,-y,1/2+z
1/2+x,1/2+y,1/2+z
1/2+y,1/2-x,1/2-z
1/2-x,1/2-y,1/2+z
1/2-y,1/2+x,1/2-z
1/2+y,1/2+x,-z
1/2-y,1/2-x,-z
1/2-x,1/2+y,z
1/2+x,1/2-y,z
loop_
_atom_site_type_symbol
_atom_site_label
_atom_site_fract_x
_atom_site_fract_y
_atom_site_fract_z
Si Si1 0.834243 0.935488 0.175971
Si Si2 0.936233 0.147605 0.151370
Si Si3 0.923755 0.560226 0.670192
Si Si4 0.200807 0.799194 0.250000
Si Si5 0.797777 0.341566 0.160891
O O1 0.895691 0.895691 0.250000
O O2 0.770871 0.884271 0.172055
O O3 0.815840 0.003205 0.264426
O O4 0.858805 0.956189 0.015230
O O5 0.917722 0.082278 0.250000
O O6 0.863685 0.186198 0.146313
O O7 0.911044 0.486508 0.737434
O O8 0.943158 0.556843 0.500000
O O9 0.859158 0.607305 0.681650
O O10 0.196308 0.719103 0.278547
O O11 0.807574 0.307574 0.000000
#
# Coordination Sequence:
#
# PCOD9559841 Si02
#       5
#    16  16  16   8  16
#     4  12  24  42  69  97 129 174 217 266 336 388
#     4  10  24  43  66  94 134 164 218 265 326 389
#     4  10  22  39  60  88 127 167 212 261 314 376
#     4  10  22  44  63  94 129 168 204 282 308 390
#     4  11  22  40  66  95 130 169 215 270 321 386
#
# _framework density 20.036802999999999
#
# number of rings (size 3 to 8) (size 9 to 14) (size 15 to 20)
#    0.667    0.667    3.333    2.667    3.111    0.444 
#    0.000    8.889    0.000    0.000    0.000    0.000 
#    0.000    0.000    0.000    0.000    0.000    0.000 
#
# Total GULP energy -200428.483834 kJ/mol
# GULP energy per Si atom -5567.457884 kJ/mol
# Density = 1.999120 g / cm^3
# Si number density = 20.036803 Si / 1000 Ang^3
#
#
#
# Elastic Constant Matrix: (Units=GPa)
#
#
# Indices 1 2 3 4 5 6 
#
# 1 -749.9337 845.6848 44.5839 0.0000 0.0000 0.0000
# 2 845.6848 -749.9455 44.6008 0.0000 0.0000 0.0000
# 3 44.5839 44.6008 130.8470 0.0000 0.0000 0.0000
# 4 0.0000 0.0000 0.0000 5.6597 0.0000 0.0000
# 5 0.0000 0.0000 0.0000 0.0000 5.6573 0.0000
# 6 0.0000 0.0000 0.0000 0.0000 0.0000 34.6619
#
#
#
# Elastic Compliance Matrix: (Units=1/GPa)
#
#
# Indices 1 2 3 4 5 6 
#
# 1 0.007338 0.007964 -0.005215 0.000000 0.000000 0.000000
# 2 0.007964 0.007337 -0.005215 0.000000 0.000000 0.000000
# 3 -0.005215 -0.005215 0.011197 0.000000 0.000000 0.000000
# 4 0.000000 0.000000 0.000000 0.176689 0.000000 0.000000
# 5 0.000000 0.000000 0.000000 0.000000 0.176761 0.000000
# 6 0.000000 0.000000 0.000000 0.000000 0.000000 0.028850
#
#
# Mechanical properties :
#
#
# Convention : Reuss Voigt Hill
#
# Bulk Modulus (GPa) = 47.75239 55.63407 51.69323
# Shear Modulus (GPa) = 11.90238 -144.39766 -66.24764
#
# Velocity S-wave (km/s) = 2.43991 -8.49839 -5.75628
# Velocity P-wave (km/s) = 5.64107 8.27470 4.28072
#
# Compressibility (1/GPa) = 0.02094136
#
# Stress axis : x y z
#
# Youngs Moduli (GPa) = 136.28208 136.28624 89.31016
#
# Poissons Ratio (x) = -1.08543 0.46575
# Poissons Ratio (y) = -1.08539 0.46573
# Poissons Ratio (z) = 0.71070 0.71070
#
# Static dielectric constant tensor:
#      x y z
#    x 1.710900 0.000000 0.000000 
#    y 0.000000 1.710900 0.000000 
#    z 0.000000 0.000000 2.058980 
# 
# From -- ./inp_files/1337.got.cif
#   From: 2010.05.17/outbox.cif.g08.bks.cpg/sg120_1_cif.got.tgz:1337.got - 2010.05.20 11:28:13.
