data_PCOD9559260
_publ_section_title
;
Structure prediction by ZEFSAII (Michael W. Deem and Ramdas Pophale) SiO2 
 PCOD9559260
Probable space group: I -4 M 2
;
_chemical_formula_sum "Si O2"
_cell_formula_units_Z 96
_cell_length_a 15.339087
_cell_length_b 15.339087
_cell_length_c 20.205887
_cell_angle_alpha 90.000000
_cell_angle_beta 90.000000
_cell_angle_gamma 90.000000
_cell_volume 4754.194456
_symmetry_space_group_name_H-M "I -4 M 2"
_symmetry_group_IT_number 119
_symmetry_cell_setting 'tetragonal'
loop_
_space_group_symop_operation_xyz
x,y,z
y,-x,-z
-x,-y,z
-y,x,-z
y,x,-z
-y,-x,-z
-x,y,z
x,-y,z
1/2+x,1/2+y,1/2+z
1/2+y,1/2-x,1/2-z
1/2-x,1/2-y,1/2+z
1/2-y,1/2+x,1/2-z
1/2+y,1/2+x,1/2-z
1/2-y,1/2-x,1/2-z
1/2-x,1/2+y,1/2+z
1/2+x,1/2-y,1/2+z
loop_
_atom_site_type_symbol
_atom_site_label
_atom_site_fract_x
_atom_site_fract_y
_atom_site_fract_z
Si Si1 0.400984 0.767927 0.180443
Si Si2 0.902424 0.226946 0.535013
Si Si3 0.895815 0.400680 0.319110
Si Si4 0.404881 0.654716 0.567378
Si Si5 0.759843 0.897666 0.173752
Si Si6 0.101696 0.643439 0.035579
O O1 0.500000 0.803841 0.184306
O O2 0.395510 0.713344 0.113467
O O3 0.329426 0.843175 0.171938
O O4 0.387521 0.714988 0.248584
O O5 0.828134 0.171867 0.500000
O O6 0.889821 0.329572 0.517844
O O7 0.000000 0.202370 0.513239
O O8 0.860964 0.500000 0.325646
O O9 0.861054 0.361054 0.250000
O O10 0.882379 0.362456 0.391439
O O11 0.000000 0.405287 0.309398
O O12 0.399731 0.600270 0.500000
O O13 0.500000 0.643287 0.598993
O O14 0.329893 0.636268 0.620740
O O15 0.397765 0.752580 0.539271
O O16 0.745955 0.000000 0.160039
O O17 0.000000 0.614228 0.027307
#
# Coordination Sequence:
#
# PCOD9559260 Si02
#       6
#    16  16  16  16  16  16
#     4   9  20  38  60  86 116 148 189 245 305 352
#     4  11  23  40  60  83 113 154 203 254 301 349
#     4   8  14  27  47  73 110 149 182 225 284 351
#     4  11  23  38  58  86 121 159 198 243 295 359
#     4  10  20  37  60  85 117 155 190 234 291 358
#     4  10  20  35  57  87 120 153 193 244 304 371
#
# _framework density 20.192695000000001
#
# number of rings (size 3 to 8) (size 9 to 14) (size 15 to 20)
#    0.000    2.167    0.000    4.000    0.000    4.667 
#    6.000    4.167    0.000    3.000    0.000    0.000 
#    0.000    0.000    0.000    0.000    0.000    0.000 
#
# Total GULP energy -267546.189226 kJ/mol
# GULP energy per Si atom -5573.878942 kJ/mol
# Density = 2.014674 g / cm^3
# Si number density = 20.192695 Si / 1000 Ang^3
#
#
#
# Elastic Constant Matrix: (Units=GPa)
#
#
# Indices 1 2 3 4 5 6 
#
# 1 72.3932 25.0296 24.7620 0.0000 0.0000 0.0000
# 2 25.0296 72.3899 24.7611 0.0000 0.0000 0.0000
# 3 24.7620 24.7611 113.5174 0.0000 0.0000 0.0000
# 4 0.0000 0.0000 0.0000 -38.8102 0.0000 0.0000
# 5 0.0000 0.0000 0.0000 0.0000 -38.5516 0.0000
# 6 0.0000 0.0000 0.0000 0.0000 0.0000 9.7663
#
#
#
# Elastic Compliance Matrix: (Units=1/GPa)
#
#
# Indices 1 2 3 4 5 6 
#
# 1 0.016329 -0.004785 -0.002518 0.000000 0.000000 0.000000
# 2 -0.004785 0.016330 -0.002518 0.000000 0.000000 0.000000
# 3 -0.002518 -0.002518 0.009908 0.000000 0.000000 0.000000
# 4 0.000000 0.000000 0.000000 -0.025766 0.000000 0.000000
# 5 0.000000 0.000000 0.000000 0.000000 -0.025939 0.000000
# 6 0.000000 0.000000 0.000000 0.000000 0.000000 0.102393
#
#
# Mechanical properties :
#
#
# Convention : Reuss Voigt Hill
#
# Bulk Modulus (GPa) = 43.62158 45.26733 44.44446
# Shear Modulus (GPa) = 41.48080 -1.26925 20.10577
#
# Velocity S-wave (km/s) = 4.53730 -0.79368 3.15889
# Velocity P-wave (km/s) = 7.00707 4.65042 5.94665
#
# Compressibility (1/GPa) = 0.02292443
#
# Stress axis : x y z
#
# Youngs Moduli (GPa) = 61.24045 61.23783 100.93013
#
# Poissons Ratio (x) = 0.29300 0.25417
# Poissons Ratio (y) = 0.29301 0.25417
# Poissons Ratio (z) = 0.15422 0.15421
#
# Static dielectric constant tensor:
#      x y z
#    x 2.278300 0.000000 0.000000 
#    y 0.000000 2.280540 0.000000 
#    z 0.000000 0.000000 1.786100 
# 
# From -- ./inp_files/7769.got.cif
#   From: 2010.05.17/outbox.cif.g08.bks.cpg/sg119_4_cif.got.tgz:7769.got - 2010.05.20 11:21:29.
