data_PCOD9559792
_publ_section_title
;
Structure prediction by ZEFSAII (Michael W. Deem and Ramdas Pophale) SiO2 
 PCOD9559792
Probable space group: I -4 C 2
;
_chemical_formula_sum "Si O2"
_cell_formula_units_Z 112
_cell_length_a 15.427603
_cell_length_b 15.427603
_cell_length_c 21.906381
_cell_angle_alpha 90.000000
_cell_angle_beta 90.000000
_cell_angle_gamma 90.000000
_cell_volume 5213.958210
_symmetry_space_group_name_H-M "I -4 C 2"
_symmetry_group_IT_number 120
_symmetry_cell_setting 'tetragonal'
loop_
_space_group_symop_operation_xyz
x,y,z
y,-x,-z
-x,-y,z
-y,x,-z
y,x,1/2-z
-y,-x,1/2-z
-x,y,1/2+z
x,-y,1/2+z
1/2+x,1/2+y,1/2+z
1/2+y,1/2-x,1/2-z
1/2-x,1/2-y,1/2+z
1/2-y,1/2+x,1/2-z
1/2+y,1/2+x,-z
1/2-y,1/2-x,-z
1/2-x,1/2+y,z
1/2+x,1/2-y,z
loop_
_atom_site_type_symbol
_atom_site_label
_atom_site_fract_x
_atom_site_fract_y
_atom_site_fract_z
Si Si1 0.627358 0.158062 0.873293
Si Si2 0.054869 0.814824 0.068081
Si Si3 0.831911 0.456509 0.203166
Si Si4 0.480972 0.831527 0.663521
Si Si5 0.560444 0.428876 0.361745
Si Si6 0.809102 0.797405 0.318247
Si Si7 0.549052 0.700016 0.448269
O O1 0.554756 0.172883 0.820676
O O2 0.722947 0.196048 0.858665
O O3 0.584129 0.208248 0.927654
O O4 0.636676 0.056135 0.881286
O O5 0.064173 0.746467 0.124757
O O6 0.140961 0.864687 0.046866
O O7 0.987949 0.889283 0.089645
O O8 0.009032 0.782550 0.007030
O O9 0.805913 0.465870 0.274519
O O10 0.923774 0.411452 0.188451
O O11 0.771794 0.385095 0.169913
O O12 0.500000 0.500000 0.328821
O O13 0.635713 0.385610 0.322457
O O14 0.506068 0.354705 0.397341
O O15 0.778099 0.778099 0.250000
#
# Coordination Sequence:
#
# PCOD9559792 Si02
#       7
#    16  16  16  16  16  16  16
#     4  12  25  40  68 106 134 184 238 295 360 438
#     4  11  22  43  69 103 133 185 241 297 361 438
#     4  12  24  44  70 100 139 188 237 296 366 442
#     4  12  24  43  69  99 136 190 243 288 360 444
#     4  10  21  39  66  98 133 179 234 293 364 429
#     4  12  22  43  66 100 144 180 235 305 364 436
#     4  11  23  41  70 100 138 182 239 298 363 434
#
# _framework density 21.480799999999999
#
# number of rings (size 3 to 8) (size 9 to 14) (size 15 to 20)
#    0.000    0.571    7.143    1.286    0.000    0.857 
#    0.000    0.714    0.000    1.714    0.000    0.000 
#    0.000    0.000    0.000    0.000    0.000    0.000 
#
# Total GULP energy -312030.044262 kJ/mol
# GULP energy per Si atom -5571.965076 kJ/mol
# Density = 2.143191 g / cm^3
# Si number density = 21.480800 Si / 1000 Ang^3
#
#
#
# Elastic Constant Matrix: (Units=GPa)
#
#
# Indices 1 2 3 4 5 6 
#
# 1 94.0423 14.3051 21.2403 0.0000 0.0000 0.0000
# 2 14.3051 94.0423 21.2403 0.0000 0.0000 0.0000
# 3 21.2403 21.2403 59.1480 0.0000 0.0000 0.0000
# 4 0.0000 0.0000 0.0000 26.6457 0.0000 0.0000
# 5 0.0000 0.0000 0.0000 0.0000 26.6457 0.0000
# 6 0.0000 0.0000 0.0000 0.0000 0.0000 30.6960
#
#
#
# Elastic Compliance Matrix: (Units=1/GPa)
#
#
# Indices 1 2 3 4 5 6 
#
# 1 0.011642 -0.000900 -0.003857 0.000000 0.000000 0.000000
# 2 -0.000900 0.011642 -0.003857 0.000000 0.000000 0.000000
# 3 -0.003857 -0.003857 0.019677 0.000000 0.000000 0.000000
# 4 0.000000 0.000000 0.000000 0.037530 0.000000 0.000000
# 5 0.000000 0.000000 0.000000 0.000000 0.037530 0.000000
# 6 0.000000 0.000000 0.000000 0.000000 0.000000 0.032578
#
#
# Mechanical properties :
#
#
# Convention : Reuss Voigt Hill
#
# Bulk Modulus (GPa) = 38.86324 40.08931 39.47628
# Shear Modulus (GPa) = 28.34415 29.49394 28.91904
#
# Velocity S-wave (km/s) = 3.63645 3.70947 3.67314
# Velocity P-wave (km/s) = 5.98022 6.08689 6.03379
#
# Compressibility (1/GPa) = 0.02573126
#
# Stress axis : x y z
#
# Youngs Moduli (GPa) = 85.89882 85.89882 50.82017
#
# Poissons Ratio (x) = 0.07727 0.19604
# Poissons Ratio (y) = 0.07727 0.19604
# Poissons Ratio (z) = 0.33135 0.33135
#
# Static dielectric constant tensor:
#      x y z
#    x 1.840300 0.000000 0.000000 
#    y 0.000000 1.840300 0.000000 
#    z 0.000000 0.000000 1.855460 
# 
# From -- ./inp_files/5910.got.cif
#   From: 2010.05.17/outbox.cif.g08.bks.cpg/sg120_3_cif.got.tgz:5910.got - 2010.05.20 11:28:13.
