data_PCOD9559194
_publ_section_title
;
Structure prediction by ZEFSAII (Michael W. Deem and Ramdas Pophale) SiO2 
 PCOD9559194
Probable space group: I -4 M 2
;
_chemical_formula_sum "Si O2"
_cell_formula_units_Z 40
_cell_length_a 15.323828
_cell_length_b 15.323828
_cell_length_c 6.862324
_cell_angle_alpha 90.000000
_cell_angle_beta 90.000000
_cell_angle_gamma 90.000000
_cell_volume 1611.408894
_symmetry_space_group_name_H-M "I -4 M 2"
_symmetry_group_IT_number 119
_symmetry_cell_setting 'tetragonal'
loop_
_space_group_symop_operation_xyz
x,y,z
y,-x,-z
-x,-y,z
-y,x,-z
y,x,-z
-y,-x,-z
-x,y,z
x,-y,z
1/2+x,1/2+y,1/2+z
1/2+y,1/2-x,1/2-z
1/2-x,1/2-y,1/2+z
1/2-y,1/2+x,1/2-z
1/2+y,1/2+x,1/2-z
1/2-y,1/2-x,1/2-z
1/2-x,1/2+y,1/2+z
1/2+x,1/2-y,1/2+z
loop_
_atom_site_type_symbol
_atom_site_label
_atom_site_fract_x
_atom_site_fract_y
_atom_site_fract_z
Si Si1 0.259125 0.600286 0.952560
Si Si2 0.403024 0.596977 0.500000
Si Si3 0.095504 0.287219 0.010469
O O1 0.264440 0.500000 0.010855
O O2 0.176634 0.650400 0.046171
O O3 0.238123 0.600215 0.720137
O O4 0.344644 0.655357 0.000000
O O5 0.500000 0.598051 0.401104
O O6 0.309102 0.598962 0.393644
O O7 0.000000 0.326727 0.047112
#
# Coordination Sequence:
#
# PCOD9559194 Si02
#       3
#    16   8  16
#     4  10  20  33  50  74 103 134 169 207 252 301
#     4   9  16  28  50  76  97 122 160 206 253 298
#     4   9  18  33  52  74 101 131 167 209 252 301
#
# _framework density 24.822997999999998
#
# number of rings (size 3 to 8) (size 9 to 14) (size 15 to 20)
#    0.000    2.600    2.000    0.000    0.000    2.800 
#    0.000    8.000    0.000    0.000    0.000    0.000 
#    0.000    0.000    0.000    0.000    0.000    0.000 
#
# Total GULP energy -111681.052189 kJ/mol
# GULP energy per Si atom -5584.052609 kJ/mol
# Density = 2.476650 g / cm^3
# Si number density = 24.822998 Si / 1000 Ang^3
#
#
#
# Elastic Constant Matrix: (Units=GPa)
#
#
# Indices 1 2 3 4 5 6 
#
# 1 248.4418 150.8843 19.5095 0.0000 0.0000 0.0000
# 2 150.8843 248.4451 19.5084 0.0000 0.0000 0.0000
# 3 19.5095 19.5084 112.9389 0.0000 0.0000 0.0000
# 4 0.0000 0.0000 0.0000 23.7094 0.0000 0.0000
# 5 0.0000 0.0000 0.0000 0.0000 23.7093 0.0000
# 6 0.0000 0.0000 0.0000 0.0000 0.0000 28.0282
#
#
#
# Elastic Compliance Matrix: (Units=1/GPa)
#
#
# Indices 1 2 3 4 5 6 
#
# 1 0.006399 -0.003851 -0.000440 0.000000 0.000000 0.000000
# 2 -0.003851 0.006399 -0.000440 0.000000 0.000000 0.000000
# 3 -0.000440 -0.000440 0.009006 0.000000 0.000000 0.000000
# 4 0.000000 0.000000 0.000000 0.042177 0.000000 0.000000
# 5 0.000000 0.000000 0.000000 0.000000 0.042178 0.000000
# 6 0.000000 0.000000 0.000000 0.000000 0.000000 0.035678
#
#
# Mechanical properties :
#
#
# Convention : Reuss Voigt Hill
#
# Bulk Modulus (GPa) = 81.03232 109.95891 95.49561
# Shear Modulus (GPa) = 32.17224 43.08430 37.62827
#
# Velocity S-wave (km/s) = 3.60400 4.17065 3.89763
# Velocity P-wave (km/s) = 7.07342 8.22105 7.66874
#
# Compressibility (1/GPa) = 0.01234076
#
# Stress axis : x y z
#
# Youngs Moduli (GPa) = 156.28071 156.28309 111.03265
#
# Poissons Ratio (x) = 0.60192 0.04886
# Poissons Ratio (y) = 0.60191 0.04885
# Poissons Ratio (z) = 0.06877 0.06876
#
# Static dielectric constant tensor:
#      x y z
#    x 1.916250 0.000000 0.000000 
#    y 0.000000 1.916250 0.000000 
#    z 0.000000 0.000000 2.240280 
# 
# From -- ./inp_files/1560.got.cif
#   From: 2010.05.17/outbox.cif.g08.bks.cpg/sg119_1_cif.got.tgz:1560.got - 2010.05.20 11:21:29.
