data_PCOD9559466
_publ_section_title
;
Structure prediction by ZEFSAII (Michael W. Deem and Ramdas Pophale) SiO2 
 PCOD9559466
Probable space group: I -4 M 2
;
_chemical_formula_sum "Si O2"
_cell_formula_units_Z 72
_cell_length_a 17.571723
_cell_length_b 17.571723
_cell_length_c 12.220622
_cell_angle_alpha 90.000000
_cell_angle_beta 90.000000
_cell_angle_gamma 90.000000
_cell_volume 3773.305841
_symmetry_space_group_name_H-M "I -4 M 2"
_symmetry_group_IT_number 119
_symmetry_cell_setting 'tetragonal'
loop_
_space_group_symop_operation_xyz
x,y,z
y,-x,-z
-x,-y,z
-y,x,-z
y,x,-z
-y,-x,-z
-x,y,z
x,-y,z
1/2+x,1/2+y,1/2+z
1/2+y,1/2-x,1/2-z
1/2-x,1/2-y,1/2+z
1/2-y,1/2+x,1/2-z
1/2+y,1/2+x,1/2-z
1/2-y,1/2-x,1/2-z
1/2-x,1/2+y,1/2+z
1/2+x,1/2-y,1/2+z
loop_
_atom_site_type_symbol
_atom_site_label
_atom_site_fract_x
_atom_site_fract_y
_atom_site_fract_z
Si Si1 0.090989 0.796562 0.442046
Si Si2 0.827622 0.200913 0.216997
Si Si3 0.856898 0.683818 0.045291
Si Si4 0.087348 0.412653 0.250000
Si Si5 0.085881 0.299424 0.807674
O O1 0.130579 0.869422 0.500000
O O2 0.108919 0.798928 0.311299
O O3 0.141132 0.723226 0.481519
O O4 0.000000 0.790094 0.461238
O O5 0.763778 0.263778 0.250000
O O6 0.850078 0.232183 0.098149
O O7 0.783168 0.121957 0.214955
O O8 0.892337 0.636649 0.145030
O O9 0.906079 0.686118 0.936895
O O10 0.099677 0.500000 0.220257
O O11 0.138224 0.361777 0.750000
O O12 0.000000 0.304450 0.769681
#
# Coordination Sequence:
#
# PCOD9559466 Si02
#       5
#    16  16  16   8  16
#     4  11  22  36  59  89 120 156 198 249 306 358
#     4   9  19  38  60  84 111 148 204 248 288 347
#     4  11  20  39  64  85 118 155 201 248 298 363
#     4  11  22  34  56  94 128 154 189 242 310 372
#     4  11  24  39  58  84 118 159 201 244 296 361
#
# _framework density 19.081410000000002
#
# number of rings (size 3 to 8) (size 9 to 14) (size 15 to 20)
#    0.000    1.444    3.333    6.000    0.000    5.778 
#    0.000    0.000    0.000    0.000    0.000    0.000 
#    0.000    0.000    0.000    0.000    0.000    0.000 
#
# Total GULP energy -200966.446333 kJ/mol
# GULP energy per Si atom -5582.401287 kJ/mol
# Density = 1.903798 g / cm^3
# Si number density = 19.081410 Si / 1000 Ang^3
#
#
#
# Elastic Constant Matrix: (Units=GPa)
#
#
# Indices 1 2 3 4 5 6 
#
# 1 56.2656 48.9574 -0.9871 0.0000 0.0000 0.0000
# 2 48.9574 56.2546 -0.9936 0.0000 0.0000 0.0000
# 3 -0.9871 -0.9936 56.7183 0.0000 0.0000 0.0000
# 4 0.0000 0.0000 0.0000 15.2293 0.0000 0.0000
# 5 0.0000 0.0000 0.0000 0.0000 15.2321 0.0000
# 6 0.0000 0.0000 0.0000 0.0000 0.0000 19.1913
#
#
#
# Elastic Compliance Matrix: (Units=1/GPa)
#
#
# Indices 1 2 3 4 5 6 
#
# 1 0.073214 -0.063714 0.000158 0.000000 0.000000 0.000000
# 2 -0.063714 0.073229 0.000174 0.000000 0.000000 0.000000
# 3 0.000158 0.000174 0.017637 0.000000 0.000000 0.000000
# 4 0.000000 0.000000 0.000000 0.065663 0.000000 0.000000
# 5 0.000000 0.000000 0.000000 0.000000 0.065651 0.000000
# 6 0.000000 0.000000 0.000000 0.000000 0.000000 0.052107
#
#
# Mechanical properties :
#
#
# Convention : Reuss Voigt Hill
#
# Bulk Modulus (GPa) = 26.79867 29.24355 28.02111
# Shear Modulus (GPa) = 10.27321 18.08133 14.17727
#
# Velocity S-wave (km/s) = 2.32284 3.08163 2.72874
# Velocity P-wave (km/s) = 4.61183 5.29348 4.96437
#
# Compressibility (1/GPa) = 0.03731529
#
# Stress axis : x y z
#
# Youngs Moduli (GPa) = 13.65858 13.65584 56.69968
#
# Poissons Ratio (x) = 0.87007 -0.00896
# Poissons Ratio (y) = 0.87024 -0.00987
# Poissons Ratio (z) = -0.00216 -0.00238
#
# Static dielectric constant tensor:
#      x y z
#    x 1.685090 0.000000 0.000000 
#    y 0.000000 1.685090 0.000000 
#    z 0.000000 0.000000 1.682300 
# 
# From -- ./inp_files/3917.got.cif
#   From: 2010.05.17/outbox.cif.g08.bks.cpg/sg119_2_cif.got.tgz:3917.got - 2010.05.20 11:21:29.
