data_PCOD9559595
_publ_section_title
;
Structure prediction by ZEFSAII (Michael W. Deem and Ramdas Pophale) SiO2 
 PCOD9559595
Probable space group: I -4 C 2
;
_chemical_formula_sum "Si O2"
_cell_formula_units_Z 120
_cell_length_a 20.911534
_cell_length_b 20.911534
_cell_length_c 15.108499
_cell_angle_alpha 90.000000
_cell_angle_beta 90.000000
_cell_angle_gamma 90.000000
_cell_volume 6606.829586
_symmetry_space_group_name_H-M "I -4 C 2"
_symmetry_group_IT_number 120
_symmetry_cell_setting 'tetragonal'
loop_
_space_group_symop_operation_xyz
x,y,z
y,-x,-z
-x,-y,z
-y,x,-z
y,x,1/2-z
-y,-x,1/2-z
-x,y,1/2+z
x,-y,1/2+z
1/2+x,1/2+y,1/2+z
1/2+y,1/2-x,1/2-z
1/2-x,1/2-y,1/2+z
1/2-y,1/2+x,1/2-z
1/2+y,1/2+x,-z
1/2-y,1/2-x,-z
1/2-x,1/2+y,z
1/2+x,1/2-y,z
loop_
_atom_site_type_symbol
_atom_site_label
_atom_site_fract_x
_atom_site_fract_y
_atom_site_fract_z
Si Si1 0.756958 0.107994 0.912050
Si Si2 0.816343 0.569272 0.288740
Si Si3 0.451883 0.057850 0.108468
Si Si4 0.491915 0.833339 0.889901
Si Si5 0.467519 0.737655 0.545213
Si Si6 0.222382 0.672623 0.232781
Si Si7 0.268611 0.334424 0.538529
Si Si8 0.381286 0.881286 0.000000
O O1 0.747689 0.125073 0.808934
O O2 0.792211 0.167771 0.956406
O O3 0.788493 0.039387 0.935283
O O4 0.685546 0.110508 0.951254
O O5 0.876731 0.534271 0.338993
O O6 0.800105 0.538199 0.194506
O O7 0.762782 0.555493 0.360324
O O8 0.822651 0.645435 0.270672
O O9 0.500000 0.000000 0.129677
O O10 0.380824 0.045374 0.143797
O O11 0.442136 0.057865 0.000000
O O12 0.516958 0.790684 0.969646
O O13 0.438096 0.881224 0.929983
O O14 0.400598 0.710956 0.507906
O O15 0.258929 0.741072 0.250000
O O16 0.246272 0.649952 0.137598
O O17 0.209484 0.290517 0.500000
#
# Coordination Sequence:
#
# PCOD9559595 Si02
#       8
#    16  16  16  16  16  16  16   8
#     4  10  22  39  61  85 120 156 202 248 313 369
#     4  12  24  37  57  81 120 161 213 255 308 358
#     4  11  24  37  47  70 111 167 215 247 278 342
#     4  11  24  34  52  75 115 153 202 252 292 349
#     4  11  25  39  59  88 116 157 203 256 311 364
#     4  10  22  38  63  90 117 158 204 255 317 369
#     4  11  21  40  64  90 122 158 202 259 309 369
#     4  10  18  36  53  78 106 156 190 243 290 350
#
# _framework density 18.163022999999999
#
# number of rings (size 3 to 8) (size 9 to 14) (size 15 to 20)
#    0.000    1.200    4.667    1.600    7.467    0.000 
#    0.000    0.000    0.000    0.400    0.000    0.000 
#    0.000    3.200    0.000    0.000    0.000    0.000 
#
# Total GULP energy -334098.879891 kJ/mol
# GULP energy per Si atom -5568.314665 kJ/mol
# Density = 1.812168 g / cm^3
# Si number density = 18.163023 Si / 1000 Ang^3
#
#
#
# Elastic Constant Matrix: (Units=GPa)
#
#
# Indices 1 2 3 4 5 6 
#
# 1 59.7739 23.0819 16.7187 0.0000 0.0000 0.0000
# 2 23.0819 59.7723 16.7174 0.0000 0.0000 0.0000
# 3 16.7187 16.7174 86.9531 0.0000 0.0000 0.0000
# 4 0.0000 0.0000 0.0000 28.5705 0.0000 0.0000
# 5 0.0000 0.0000 0.0000 0.0000 28.5722 0.0000
# 6 0.0000 0.0000 0.0000 0.0000 0.0000 21.8729
#
#
#
# Elastic Compliance Matrix: (Units=1/GPa)
#
#
# Indices 1 2 3 4 5 6 
#
# 1 0.020169 -0.007085 -0.002516 0.000000 0.000000 0.000000
# 2 -0.007085 0.020170 -0.002516 0.000000 0.000000 0.000000
# 3 -0.002516 -0.002516 0.012468 0.000000 0.000000 0.000000
# 4 0.000000 0.000000 0.000000 0.035001 0.000000 0.000000
# 5 0.000000 0.000000 0.000000 0.000000 0.034999 0.000000
# 6 0.000000 0.000000 0.000000 0.000000 0.000000 0.045719
#
#
# Mechanical properties :
#
#
# Convention : Reuss Voigt Hill
#
# Bulk Modulus (GPa) = 34.99682 35.50391 35.25036
# Shear Modulus (GPa) = 24.71783 25.80186 25.25985
#
# Velocity S-wave (km/s) = 3.69302 3.77314 3.73329
# Velocity P-wave (km/s) = 6.12328 6.21062 6.16711
#
# Compressibility (1/GPa) = 0.02857403
#
# Stress axis : x y z
#
# Youngs Moduli (GPa) = 49.58028 49.57939 80.20651
#
# Poissons Ratio (x) = 0.35127 0.20179
# Poissons Ratio (y) = 0.35128 0.20176
# Poissons Ratio (z) = 0.12474 0.12472
#
# Static dielectric constant tensor:
#      x y z
#    x 1.681800 0.000000 0.000000 
#    y 0.000000 1.681800 0.000000 
#    z 0.000000 0.000000 1.655350 
# 
# From -- ./inp_files/3715.got.cif
#   From: 2010.05.17/outbox.cif.g08.bks.cpg/sg120_2_cif.got.tgz:3715.got - 2010.05.20 11:28:13.
