data_PCOD9559060
_publ_section_title
;
Structure prediction by ZEFSAII (Michael W. Deem and Ramdas Pophale) SiO2 
 PCOD9559060
Probable space group: I -4 M 2
;
_chemical_formula_sum "Si O2"
_cell_formula_units_Z 112
_cell_length_a 15.308125
_cell_length_b 15.308125
_cell_length_c 21.406062
_cell_angle_alpha 90.000000
_cell_angle_beta 90.000000
_cell_angle_gamma 90.000000
_cell_volume 5016.268549
_symmetry_space_group_name_H-M "I -4 M 2"
_symmetry_group_IT_number 119
_symmetry_cell_setting 'tetragonal'
loop_
_space_group_symop_operation_xyz
x,y,z
y,-x,-z
-x,-y,z
-y,x,-z
y,x,-z
-y,-x,-z
-x,y,z
x,-y,z
1/2+x,1/2+y,1/2+z
1/2+y,1/2-x,1/2-z
1/2-x,1/2-y,1/2+z
1/2-y,1/2+x,1/2-z
1/2+y,1/2+x,1/2-z
1/2-y,1/2-x,1/2-z
1/2-x,1/2+y,1/2+z
1/2+x,1/2-y,1/2+z
loop_
_atom_site_type_symbol
_atom_site_label
_atom_site_fract_x
_atom_site_fract_y
_atom_site_fract_z
Si Si1 0.726645 0.900651 0.838198
Si Si2 0.710131 0.399043 0.864808
Si Si3 0.395943 0.595986 0.735302
Si Si4 0.401050 0.895315 0.323459
Si Si5 0.597992 0.910296 0.507709
Si Si6 0.908166 0.229126 0.014403
Si Si7 0.599162 0.236221 0.881373
O O1 0.818073 0.878161 0.805258
O O2 0.746904 0.905830 0.912424
O O3 0.653687 0.824810 0.832946
O O4 0.699807 0.000000 0.819076
O O5 0.705000 0.500000 0.888876
O O6 0.663742 0.400846 0.796680
O O7 0.811115 0.370807 0.858306
O O8 0.653626 0.323138 0.897739
O O9 0.500000 0.598440 0.750697
O O10 0.380583 0.500000 0.705056
O O11 0.500000 0.861043 0.337561
O O12 0.381037 0.881037 0.250000
O O13 0.406717 0.000000 0.329419
O O14 0.500000 0.911575 0.537603
O O15 0.598718 0.818120 0.475439
O O16 0.674639 0.909799 0.557845
O O17 0.603932 0.000000 0.470331
O O18 0.000000 0.185010 0.000668
O O19 0.828707 0.171294 0.000000
O O20 0.500000 0.255753 0.859966
#
# Coordination Sequence:
#
# PCOD9559060 Si02
#       7
#    16  16  16  16  16  16  16
#     4   9  19  34  50  70  97 127 160 200 245 294
#     4  10  20  31  46  69  94 125 168 212 248 286
#     4   9  18  32  47  64  93 133 170 203 244 296
#     4   8  15  28  44  62  83 108 148 204 250 281
#     4   8  15  31  54  77  99 126 162 200 240 287
#     4   9  17  29  48  75 102 126 154 191 234 284
#     4  10  19  30  48  70  92 121 159 206 249 283
#
# _framework density 22.327352000000001
#
# number of rings (size 3 to 8) (size 9 to 14) (size 15 to 20)
#    0.000    3.000    0.000    2.143    2.000    2.429 
#    0.000    1.429    0.000    5.143    0.000    4.000 
#    0.000    4.571    0.000    0.000    0.000    0.000 
#
# Total GULP energy -311958.679178 kJ/mol
# GULP energy per Si atom -5570.690700 kJ/mol
# Density = 2.227653 g / cm^3
# Si number density = 22.327352 Si / 1000 Ang^3
#
#
#
# Elastic Constant Matrix: (Units=GPa)
#
#
# Indices 1 2 3 4 5 6 
#
# 1 142.2594 67.0216 12.3383 0.0000 0.0000 0.0000
# 2 67.0216 142.2535 12.3372 0.0000 0.0000 0.0000
# 3 12.3383 12.3372 35.7129 0.0000 0.0000 0.0000
# 4 0.0000 0.0000 0.0000 10.9333 0.0000 0.0000
# 5 0.0000 0.0000 0.0000 0.0000 10.9399 0.0000
# 6 0.0000 0.0000 0.0000 0.0000 0.0000 38.4861
#
#
#
# Elastic Compliance Matrix: (Units=1/GPa)
#
#
# Indices 1 2 3 4 5 6 
#
# 1 0.009136 -0.004155 -0.001721 0.000000 0.000000 0.000000
# 2 -0.004155 0.009137 -0.001721 0.000000 0.000000 0.000000
# 3 -0.001721 -0.001721 0.029190 0.000000 0.000000 0.000000
# 4 0.000000 0.000000 0.000000 0.091464 0.000000 0.000000
# 5 0.000000 0.000000 0.000000 0.000000 0.091408 0.000000
# 6 0.000000 0.000000 0.000000 0.000000 0.000000 0.025983
#
#
# Mechanical properties :
#
#
# Convention : Reuss Voigt Hill
#
# Bulk Modulus (GPa) = 30.98940 55.95778 43.47359
# Shear Modulus (GPa) = 17.71362 27.30712 22.51037
#
# Velocity S-wave (km/s) = 2.81972 3.50098 3.17866
# Velocity P-wave (km/s) = 4.95084 6.43890 5.74326
#
# Compressibility (1/GPa) = 0.03226910
#
# Stress axis : x y z
#
# Youngs Moduli (GPa) = 109.45343 109.44942 34.25820
#
# Poissons Ratio (x) = 0.45479 0.05896
# Poissons Ratio (y) = 0.45481 0.05895
# Poissons Ratio (z) = 0.18837 0.18833
#
# Static dielectric constant tensor:
#      x y z
#    x 1.862370 0.000000 0.000000 
#    y 0.000000 1.862380 0.000000 
#    z 0.000000 0.000000 1.882590 
# 
# From -- ./inp_files/8872.got.cif
#   From: 2010.05.17/outbox.cif.g08.bks.cpg/sg119_5_cif.got.tgz:8872.got - 2010.05.20 11:21:29.
