data_PCOD9559283
_publ_section_title
;
Structure prediction by ZEFSAII (Michael W. Deem and Ramdas Pophale) SiO2 
 PCOD9559283
Probable space group: I -4 M 2
;
_chemical_formula_sum "Si O2"
_cell_formula_units_Z 48
_cell_length_a 7.935062
_cell_length_b 7.935062
_cell_length_c 38.807733
_cell_angle_alpha 90.000000
_cell_angle_beta 90.000000
_cell_angle_gamma 90.000000
_cell_volume 2443.537017
_symmetry_space_group_name_H-M "I -4 M 2"
_symmetry_group_IT_number 119
_symmetry_cell_setting 'tetragonal'
loop_
_space_group_symop_operation_xyz
x,y,z
y,-x,-z
-x,-y,z
-y,x,-z
y,x,-z
-y,-x,-z
-x,y,z
x,-y,z
1/2+x,1/2+y,1/2+z
1/2+y,1/2-x,1/2-z
1/2-x,1/2-y,1/2+z
1/2-y,1/2+x,1/2-z
1/2+y,1/2+x,1/2-z
1/2-y,1/2-x,1/2-z
1/2-x,1/2+y,1/2+z
1/2+x,1/2-y,1/2+z
loop_
_atom_site_type_symbol
_atom_site_label
_atom_site_fract_x
_atom_site_fract_y
_atom_site_fract_z
Si Si1 0.701101 0.500000 0.916229
Si Si2 0.198559 0.500000 0.837084
Si Si3 0.702597 0.807531 0.788528
Si Si4 0.204680 0.689018 0.461911
O O1 0.500000 0.500000 0.921063
O O2 0.732967 0.500000 0.875785
O O3 0.764840 0.332799 0.935638
O O4 0.251026 0.332121 0.816375
O O5 0.000000 0.500000 0.839356
O O6 0.500000 0.817622 0.787547
O O7 0.751795 0.748206 0.750000
O O8 0.765258 0.000000 0.794818
O O9 0.271826 0.728175 0.500000
O O10 0.252977 0.500000 0.451396
O O11 0.000000 0.695447 0.463642
#
# Coordination Sequence:
#
# PCOD9559283 Si02
#       4
#     8   8  16  16
#     4  10  22  40  60  84 126 170 208 254 312 372
#     4  12  26  38  58  92 132 168 204 262 328 382
#     4   9  20  40  65  90 117 158 214 266 313 377
#     4  10  20  36  63  92 118 156 207 258 309 371
#
# _framework density 19.643654000000002
#
# number of rings (size 3 to 8) (size 9 to 14) (size 15 to 20)
#    0.000    2.000    1.667    2.500    2.333    3.667 
#    0.000    3.333    0.000    0.000    0.000    0.000 
#    0.000    0.000    0.000    0.000    0.000    0.000 
#
# Total GULP energy -133998.786363 kJ/mol
# GULP energy per Si atom -5583.282765 kJ/mol
# Density = 1.959894 g / cm^3
# Si number density = 19.643654 Si / 1000 Ang^3
#
#
#
# Elastic Constant Matrix: (Units=GPa)
#
#
# Indices 1 2 3 4 5 6 
#
# 1 66.9104 47.9011 47.7903 0.0000 0.0000 0.0000
# 2 47.9011 66.9078 47.7889 0.0000 0.0000 0.0000
# 3 47.7903 47.7889 122.6916 0.0000 0.0000 0.0000
# 4 0.0000 0.0000 0.0000 -37.0428 0.0000 0.0000
# 5 0.0000 0.0000 0.0000 0.0000 -37.0779 0.0000
# 6 0.0000 0.0000 0.0000 0.0000 0.0000 16.6942
#
#
#
# Elastic Compliance Matrix: (Units=1/GPa)
#
#
# Indices 1 2 3 4 5 6 
#
# 1 0.032749 -0.019860 -0.005021 0.000000 0.000000 0.000000
# 2 -0.019860 0.032750 -0.005021 0.000000 0.000000 0.000000
# 3 -0.005021 -0.005021 0.012062 0.000000 0.000000 0.000000
# 4 0.000000 0.000000 0.000000 -0.026996 0.000000 0.000000
# 5 0.000000 0.000000 0.000000 0.000000 -0.026970 0.000000
# 6 0.000000 0.000000 0.000000 0.000000 0.000000 0.059901
#
#
# Mechanical properties :
#
#
# Convention : Reuss Voigt Hill
#
# Bulk Modulus (GPa) = 56.31114 60.38560 58.34837
# Shear Modulus (GPa) = 33.50806 -3.95001 14.77903
#
# Velocity S-wave (km/s) = 4.13461 -1.41958 2.74589
# Velocity P-wave (km/s) = 7.17787 5.30286 6.31040
#
# Compressibility (1/GPa) = 0.01775848
#
# Stress axis : x y z
#
# Youngs Moduli (GPa) = 30.53525 30.53427 82.90685
#
# Poissons Ratio (x) = 0.60641 0.41626
# Poissons Ratio (y) = 0.60642 0.41624
# Poissons Ratio (z) = 0.15331 0.15330
#
# Static dielectric constant tensor:
#      x y z
#    x 2.170310 0.000000 0.000000 
#    y 0.000000 2.169260 0.000000 
#    z 0.000000 0.000000 1.750150 
# 
# From -- ./inp_files/9863.got.cif
#   From: 2010.05.17/outbox.cif.g08.bks.cpg/sg119_5_cif.got.tgz:9863.got - 2010.05.20 11:21:29.
