data_PCOD9559176
_publ_section_title
;
Structure prediction by ZEFSAII (Michael W. Deem and Ramdas Pophale) SiO2 
 PCOD9559176
Probable space group: I -4 M 2
;
_chemical_formula_sum "Si O2"
_cell_formula_units_Z 64
_cell_length_a 15.299603
_cell_length_b 15.299603
_cell_length_c 13.637650
_cell_angle_alpha 90.000000
_cell_angle_beta 90.000000
_cell_angle_gamma 90.000000
_cell_volume 3192.271818
_symmetry_space_group_name_H-M "I -4 M 2"
_symmetry_group_IT_number 119
_symmetry_cell_setting 'tetragonal'
loop_
_space_group_symop_operation_xyz
x,y,z
y,-x,-z
-x,-y,z
-y,x,-z
y,x,-z
-y,-x,-z
-x,y,z
x,-y,z
1/2+x,1/2+y,1/2+z
1/2+y,1/2-x,1/2-z
1/2-x,1/2-y,1/2+z
1/2-y,1/2+x,1/2-z
1/2+y,1/2+x,1/2-z
1/2-y,1/2-x,1/2-z
1/2-x,1/2+y,1/2+z
1/2+x,1/2-y,1/2+z
loop_
_atom_site_type_symbol
_atom_site_label
_atom_site_fract_x
_atom_site_fract_y
_atom_site_fract_z
Si Si1 0.099455 0.897810 0.314096
Si Si2 0.753181 0.773947 0.634358
Si Si3 0.325015 0.401387 0.595171
Si Si4 0.901624 0.399714 0.130624
O O1 0.169894 0.841017 0.373084
O O2 0.121422 0.890885 0.197388
O O3 0.000000 0.866288 0.329704
O O4 0.104281 0.000000 0.339580
O O5 0.737690 0.762311 0.750000
O O6 0.746340 0.675784 0.595401
O O7 0.672498 0.833071 0.598315
O O8 0.384521 0.384521 0.500000
O O9 0.290368 0.500000 0.593667
O O10 0.885897 0.500000 0.099601
O O11 0.900385 0.400385 0.250000
O O12 0.000000 0.373708 0.101191
#
# Coordination Sequence:
#
# PCOD9559176 Si02
#       4
#    16  16  16  16
#     4   9  17  30  51  78 103 128 163 207 252 297
#     4   9  17  28  45  68  95 129 167 206 243 288
#     4  10  20  32  47  71 105 140 167 198 248 306
#     4   8  13  21  35  58  88 119 150 187 234 286
#
# _framework density 20.048417000000001
#
# number of rings (size 3 to 8) (size 9 to 14) (size 15 to 20)
#    0.000    3.000    0.000    2.250    0.000    8.250 
#    0.000    0.000    0.000    3.750    0.000    7.000 
#    0.000    0.000    0.000    0.000    0.000    0.000 
#
# Total GULP energy -178411.482311 kJ/mol
# GULP energy per Si atom -5575.358822 kJ/mol
# Density = 2.000279 g / cm^3
# Si number density = 20.048417 Si / 1000 Ang^3
#
#
#
# Elastic Constant Matrix: (Units=GPa)
#
#
# Indices 1 2 3 4 5 6 
#
# 1 122.5001 95.3913 25.7377 0.0000 0.0000 0.0000
# 2 95.3913 122.5004 25.7374 0.0000 0.0000 0.0000
# 3 25.7377 25.7374 36.4128 0.0000 0.0000 0.0000
# 4 0.0000 0.0000 0.0000 9.3426 0.0000 0.0000
# 5 0.0000 0.0000 0.0000 0.0000 9.3427 0.0000
# 6 0.0000 0.0000 0.0000 0.0000 0.0000 19.5993
#
#
#
# Elastic Compliance Matrix: (Units=1/GPa)
#
#
# Indices 1 2 3 4 5 6 
#
# 1 0.021199 -0.015689 -0.003894 0.000000 0.000000 0.000000
# 2 -0.015689 0.021199 -0.003894 0.000000 0.000000 0.000000
# 3 -0.003894 -0.003894 0.032968 0.000000 0.000000 0.000000
# 4 0.000000 0.000000 0.000000 0.107036 0.000000 0.000000
# 5 0.000000 0.000000 0.000000 0.000000 0.107036 0.000000
# 6 0.000000 0.000000 0.000000 0.000000 0.000000 0.051022
#
#
# Mechanical properties :
#
#
# Convention : Reuss Voigt Hill
#
# Bulk Modulus (GPa) = 35.19894 63.90514 49.55204
# Shear Modulus (GPa) = 12.59810 16.62671 14.61241
#
# Velocity S-wave (km/s) = 2.50948 2.88293 2.70266
# Velocity P-wave (km/s) = 5.09821 6.55944 5.87444
#
# Compressibility (1/GPa) = 0.02840994
#
# Stress axis : x y z
#
# Youngs Moduli (GPa) = 47.17224 47.17254 30.33249
#
# Poissons Ratio (x) = 0.74011 0.11813
# Poissons Ratio (y) = 0.74011 0.11812
# Poissons Ratio (z) = 0.18371 0.18369
#
# Static dielectric constant tensor:
#      x y z
#    x 1.711230 0.000000 0.000000 
#    y 0.000000 1.711230 0.000000 
#    z 0.000000 0.000000 1.733200 
# 
# From -- ./inp_files/5053.got.cif
#   From: 2010.05.17/outbox.cif.g08.bks.cpg/sg119_3_cif.got.tgz:5053.got - 2010.05.20 11:21:29.
