data_PCOD9559793
_publ_section_title
;
Structure prediction by ZEFSAII (Michael W. Deem and Ramdas Pophale) SiO2 
 PCOD9559793
Probable space group: I -4 C 2
;
_chemical_formula_sum "Si O2"
_cell_formula_units_Z 120
_cell_length_a 24.260093
_cell_length_b 24.260093
_cell_length_c 8.766898
_cell_angle_alpha 90.000000
_cell_angle_beta 90.000000
_cell_angle_gamma 90.000000
_cell_volume 5159.776337
_symmetry_space_group_name_H-M "I -4 C 2"
_symmetry_group_IT_number 120
_symmetry_cell_setting 'tetragonal'
loop_
_space_group_symop_operation_xyz
x,y,z
y,-x,-z
-x,-y,z
-y,x,-z
y,x,1/2-z
-y,-x,1/2-z
-x,y,1/2+z
x,-y,1/2+z
1/2+x,1/2+y,1/2+z
1/2+y,1/2-x,1/2-z
1/2-x,1/2-y,1/2+z
1/2-y,1/2+x,1/2-z
1/2+y,1/2+x,-z
1/2-y,1/2-x,-z
1/2-x,1/2+y,z
1/2+x,1/2-y,z
loop_
_atom_site_type_symbol
_atom_site_label
_atom_site_fract_x
_atom_site_fract_y
_atom_site_fract_z
Si Si1 0.366361 0.066229 0.907565
Si Si2 0.480855 0.172713 0.792130
Si Si3 0.333018 0.572049 0.905322
Si Si4 0.981139 0.211195 0.369824
Si Si5 0.368348 0.756103 0.990693
Si Si6 0.185602 0.185602 0.750000
Si Si7 0.941705 0.062293 0.933208
Si Si8 0.858628 0.658664 0.196136
O O1 0.345376 0.125934 0.851763
O O2 0.369082 0.027864 0.760885
O O3 0.422011 0.077990 0.000000
O O4 0.329291 0.035248 0.030545
O O5 0.504763 0.234024 0.772078
O O6 0.425414 0.157202 0.700978
O O7 0.335691 0.533830 0.754155
O O8 0.306555 0.627130 0.837176
O O9 0.303687 0.534321 0.031230
O O10 0.389271 0.591584 0.985533
O O11 0.926261 0.224585 0.470279
O O12 0.320850 0.728065 0.889250
O O13 0.374455 0.816674 0.913758
O O14 0.350491 0.776041 0.159460
O O15 0.938691 0.061310 0.750000
O O16 0.003614 0.073266 0.994817
#
# Coordination Sequence:
#
# PCOD9559793 Si02
#       8
#    16  16  16  16  16   8  16  16
#     4  10  22  38  65 107 143 185 231 294 357 428
#     4  11  21  39  68 107 141 176 240 300 345 437
#     4  11  25  42  66  99 135 179 231 303 360 425
#     4  11  22  40  71 100 132 177 238 297 358 417
#     4  10  21  41  68  99 135 191 236 293 366 432
#     4  10  26  44  66  93 150 186 242 302 366 433
#     4  11  24  40  63  90 129 176 224 273 355 443
#     4  10  21  39  69 102 139 186 238 289 361 427
#
# _framework density 23.256822
#
# number of rings (size 3 to 8) (size 9 to 14) (size 15 to 20)
#    0.000    1.467    1.333    4.000    9.333    0.000 
#    2.400    2.667    0.000   16.000    0.000    0.000 
#    0.000    0.000    0.000    0.000    0.000    0.000 
#
# Total GULP energy -334100.166281 kJ/mol
# GULP energy per Si atom -5568.336105 kJ/mol
# Density = 2.320389 g / cm^3
# Si number density = 23.256822 Si / 1000 Ang^3
#
#
#
# Elastic Constant Matrix: (Units=GPa)
#
#
# Indices 1 2 3 4 5 6 
#
# 1 56.4449 31.6332 36.1405 0.0000 0.0000 0.0000
# 2 31.6332 56.4445 36.1412 0.0000 0.0000 0.0000
# 3 36.1405 36.1412 118.5965 0.0000 0.0000 0.0000
# 4 0.0000 0.0000 0.0000 42.4919 0.0000 0.0000
# 5 0.0000 0.0000 0.0000 0.0000 42.4915 0.0000
# 6 0.0000 0.0000 0.0000 0.0000 0.0000 24.7768
#
#
#
# Elastic Compliance Matrix: (Units=1/GPa)
#
#
# Indices 1 2 3 4 5 6 
#
# 1 0.027722 -0.012582 -0.004613 0.000000 0.000000 0.000000
# 2 -0.012582 0.027722 -0.004614 0.000000 0.000000 0.000000
# 3 -0.004613 -0.004614 0.011244 0.000000 0.000000 0.000000
# 4 0.000000 0.000000 0.000000 0.023534 0.000000 0.000000
# 5 0.000000 0.000000 0.000000 0.000000 0.023534 0.000000
# 6 0.000000 0.000000 0.000000 0.000000 0.000000 0.040360
#
#
# Mechanical properties :
#
#
# Convention : Reuss Voigt Hill
#
# Bulk Modulus (GPa) = 43.34853 48.81284 46.08069
# Shear Modulus (GPa) = 24.33988 30.45677 27.39832
#
# Velocity S-wave (km/s) = 3.23858 3.62274 3.43604
# Velocity P-wave (km/s) = 5.71525 6.20751 5.96646
#
# Compressibility (1/GPa) = 0.02306883
#
# Stress axis : x y z
#
# Youngs Moduli (GPa) = 36.07300 36.07233 88.93727
#
# Poissons Ratio (x) = 0.45386 0.41031
# Poissons Ratio (y) = 0.45387 0.41035
# Poissons Ratio (z) = 0.16642 0.16643
#
# Static dielectric constant tensor:
#      x y z
#    x 1.932580 0.000000 0.000000 
#    y 0.000000 1.932580 0.000000 
#    z 0.000000 0.000000 2.061820 
# 
# From -- ./inp_files/1719.got.cif
#   From: 2010.05.17/outbox.cif.g08.bks.cpg/sg120_1_cif.got.tgz:1719.got - 2010.05.20 11:28:13.
