data_PCOD9559257
_publ_section_title
;
Structure prediction by ZEFSAII (Michael W. Deem and Ramdas Pophale) SiO2 
 PCOD9559257
Probable space group: I -4 M 2
;
_chemical_formula_sum "Si O2"
_cell_formula_units_Z 112
_cell_length_a 14.779994
_cell_length_b 14.779994
_cell_length_c 25.907206
_cell_angle_alpha 90.000000
_cell_angle_beta 90.000000
_cell_angle_gamma 90.000000
_cell_volume 5659.383104
_symmetry_space_group_name_H-M "I -4 M 2"
_symmetry_group_IT_number 119
_symmetry_cell_setting 'tetragonal'
loop_
_space_group_symop_operation_xyz
x,y,z
y,-x,-z
-x,-y,z
-y,x,-z
y,x,-z
-y,-x,-z
-x,y,z
x,-y,z
1/2+x,1/2+y,1/2+z
1/2+y,1/2-x,1/2-z
1/2-x,1/2-y,1/2+z
1/2-y,1/2+x,1/2-z
1/2+y,1/2+x,1/2-z
1/2-y,1/2-x,1/2-z
1/2-x,1/2+y,1/2+z
1/2+x,1/2-y,1/2+z
loop_
_atom_site_type_symbol
_atom_site_label
_atom_site_fract_x
_atom_site_fract_y
_atom_site_fract_z
Si Si1 0.394640 0.677551 0.329209
Si Si2 0.130261 0.101136 0.722043
Si Si3 0.893173 0.257829 0.109304
Si Si4 0.392017 0.245755 0.496049
Si Si5 0.401763 0.841537 0.804743
Si Si6 0.310968 0.135664 0.301888
Si Si7 0.598502 0.108408 0.087135
O O1 0.500000 0.704395 0.337006
O O2 0.390932 0.605653 0.282879
O O3 0.343198 0.643673 0.379690
O O4 0.328459 0.757097 0.308965
O O5 0.236128 0.100968 0.709830
O O6 0.104813 0.205447 0.703993
O O7 0.098514 0.000000 0.703292
O O8 0.862776 0.324212 0.154639
O O9 0.000000 0.250933 0.112364
O O10 0.870679 0.295341 0.052721
O O11 0.340043 0.340043 0.500000
O O12 0.500000 0.256858 0.491393
O O13 0.360887 0.179682 0.450028
O O14 0.500000 0.864455 0.827030
O O15 0.390027 0.890027 0.750000
O O16 0.373682 0.126319 0.250000
O O17 0.349918 0.100404 0.355705
O O18 0.500000 0.128612 0.063694
O O19 0.606105 0.000000 0.092222
#
# Coordination Sequence:
#
# PCOD9559257 Si02
#       7
#    16  16  16  16  16  16  16
#     4  11  21  35  55  82 120 162 200 241 296 354
#     4  10  20  35  56  83 123 164 198 239 292 360
#     4  11  22  36  54  82 114 150 199 246 293 358
#     4  10  23  41  63  86 115 154 197 250 308 369
#     4  11  20  34  55  82 119 158 194 239 290 346
#     4  10  20  36  60  88 120 156 199 246 299 357
#     4  10  22  41  64  90 121 158 202 256 317 370
#
# _framework density 19.790143
#
# number of rings (size 3 to 8) (size 9 to 14) (size 15 to 20)
#    0.000    1.571    2.857    2.571    0.000    7.429 
#    0.000    3.571    0.000    0.000    0.000    0.000 
#    0.000    0.000    0.000    0.000    0.000    0.000 
#
# Total GULP energy -311774.807552 kJ/mol
# GULP energy per Si atom -5567.407278 kJ/mol
# Density = 1.974510 g / cm^3
# Si number density = 19.790143 Si / 1000 Ang^3
#
#
#
# Elastic Constant Matrix: (Units=GPa)
#
#
# Indices 1 2 3 4 5 6 
#
# 1 86.6392 16.4985 38.1151 0.0000 0.0000 0.0000
# 2 16.4985 86.6393 38.1152 0.0000 0.0000 0.0000
# 3 38.1151 38.1152 114.9938 0.0000 0.0000 0.0000
# 4 0.0000 0.0000 0.0000 16.9466 0.0000 0.0000
# 5 0.0000 0.0000 0.0000 0.0000 16.9466 0.0000
# 6 0.0000 0.0000 0.0000 0.0000 0.0000 9.8224
#
#
#
# Elastic Compliance Matrix: (Units=1/GPa)
#
#
# Indices 1 2 3 4 5 6 
#
# 1 0.013549 -0.000708 -0.004256 0.000000 0.000000 0.000000
# 2 -0.000708 0.013549 -0.004256 0.000000 0.000000 0.000000
# 3 -0.004256 -0.004256 0.011518 0.000000 0.000000 0.000000
# 4 0.000000 0.000000 0.000000 0.059009 0.000000 0.000000
# 5 0.000000 0.000000 0.000000 0.000000 0.059009 0.000000
# 6 0.000000 0.000000 0.000000 0.000000 0.000000 0.101808
#
#
# Mechanical properties :
#
#
# Convention : Reuss Voigt Hill
#
# Bulk Modulus (GPa) = 49.56512 52.63665 51.10089
# Shear Modulus (GPa) = 17.62993 21.77935 19.70464
#
# Velocity S-wave (km/s) = 2.98794 3.32100 3.15886
# Velocity P-wave (km/s) = 6.08304 6.43122 6.25955
#
# Compressibility (1/GPa) = 0.02017548
#
# Stress axis : x y z
#
# Youngs Moduli (GPa) = 73.80393 73.80395 86.82239
#
# Poissons Ratio (x) = 0.05223 0.36956
# Poissons Ratio (y) = 0.05223 0.36956
# Poissons Ratio (z) = 0.31414 0.31414
#
# Static dielectric constant tensor:
#      x y z
#    x 1.742280 0.000000 0.000000 
#    y 0.000000 1.742280 0.000000 
#    z 0.000000 0.000000 1.751590 
# 
# From -- ./inp_files/9603.got.cif
#   From: 2010.05.17/outbox.cif.g08.bks.cpg/sg119_5_cif.got.tgz:9603.got - 2010.05.20 11:21:29.
