data_PCOD9559639
_publ_section_title
;
Structure prediction by ZEFSAII (Michael W. Deem and Ramdas Pophale) SiO2 
 PCOD9559639
Probable space group: I -4 C 2
;
_chemical_formula_sum "Si O2"
_cell_formula_units_Z 84
_cell_length_a 20.493159
_cell_length_b 20.493159
_cell_length_c 11.460251
_cell_angle_alpha 90.000000
_cell_angle_beta 90.000000
_cell_angle_gamma 90.000000
_cell_volume 4812.956636
_symmetry_space_group_name_H-M "I -4 C 2"
_symmetry_group_IT_number 120
_symmetry_cell_setting 'tetragonal'
loop_
_space_group_symop_operation_xyz
x,y,z
y,-x,-z
-x,-y,z
-y,x,-z
y,x,1/2-z
-y,-x,1/2-z
-x,y,1/2+z
x,-y,1/2+z
1/2+x,1/2+y,1/2+z
1/2+y,1/2-x,1/2-z
1/2-x,1/2-y,1/2+z
1/2-y,1/2+x,1/2-z
1/2+y,1/2+x,-z
1/2-y,1/2-x,-z
1/2-x,1/2+y,z
1/2+x,1/2-y,z
loop_
_atom_site_type_symbol
_atom_site_label
_atom_site_fract_x
_atom_site_fract_y
_atom_site_fract_z
Si Si1 0.174182 0.599038 0.905441
Si Si2 0.000000 0.500000 0.250000
Si Si3 0.291341 0.698243 0.877830
Si Si4 0.569376 0.887087 0.340378
Si Si5 0.953478 0.694658 0.056631
Si Si6 0.780392 0.164974 0.869767
O O1 0.225598 0.657016 0.891817
O O2 0.139349 0.588302 0.784060
O O3 0.207945 0.530058 0.935376
O O4 0.121801 0.621801 0.000000
O O5 0.064922 0.492275 0.172353
O O6 0.319908 0.680093 0.750000
O O7 0.272649 0.775474 0.869427
O O8 0.327657 0.686811 0.001372
O O9 0.625657 0.935038 0.385383
O O10 0.562580 0.823913 0.422871
O O11 0.905070 0.745321 0.119510
O O12 0.821678 0.178323 0.750000
#
# Coordination Sequence:
#
# PCOD9559639 Si02
#       6
#    16   4  16  16  16  16
#     4  12  23  36  56  83 110 148 200 244 284 348
#     4  12  20  34  48  64 114 172 194 236 268 354
#     4  10  19  36  58  75 103 146 188 234 296 340
#     4  11  22  37  46  72 114 156 199 227 285 330
#     4  11  24  34  57  77 112 150 193 245 281 339
#     4  10  19  36  55  77 102 143 190 234 299 341
#
# _framework density 17.452888000000002
#
# number of rings (size 3 to 8) (size 9 to 14) (size 15 to 20)
#    0.000    1.143    3.810    6.857    0.000    0.762 
#    0.000    0.000    0.000    0.000    0.000    0.000 
#    0.000    4.571    0.000    0.000    0.000    0.000 
#
# Total GULP energy -233972.018185 kJ/mol
# GULP energy per Si atom -5570.762338 kJ/mol
# Density = 1.741316 g / cm^3
# Si number density = 17.452888 Si / 1000 Ang^3
#
#
#
# Elastic Constant Matrix: (Units=GPa)
#
#
# Indices 1 2 3 4 5 6 
#
# 1 45.3008 42.7975 25.9301 0.0000 0.0000 0.0000
# 2 42.7975 45.3023 25.9310 0.0000 0.0000 0.0000
# 3 25.9301 25.9310 153.5661 0.0000 0.0000 0.0000
# 4 0.0000 0.0000 0.0000 19.2312 0.0000 0.0000
# 5 0.0000 0.0000 0.0000 0.0000 19.2311 0.0000
# 6 0.0000 0.0000 0.0000 0.0000 0.0000 29.2815
#
#
#
# Elastic Compliance Matrix: (Units=1/GPa)
#
#
# Indices 1 2 3 4 5 6 
#
# 1 0.205977 -0.193371 -0.002128 0.000000 0.000000 0.000000
# 2 -0.193371 0.205971 -0.002129 0.000000 0.000000 0.000000
# 3 -0.002128 -0.002129 0.007231 0.000000 0.000000 0.000000
# 4 0.000000 0.000000 0.000000 0.051999 0.000000 0.000000
# 5 0.000000 0.000000 0.000000 0.000000 0.051999 0.000000
# 6 0.000000 0.000000 0.000000 0.000000 0.000000 0.034151
#
#
# Mechanical properties :
#
#
# Convention : Reuss Voigt Hill
#
# Bulk Modulus (GPa) = 41.79710 48.16513 44.98112
# Shear Modulus (GPa) = 5.20531 23.51614 14.36072
#
# Velocity S-wave (km/s) = 1.72886 3.67469 2.87161
# Velocity P-wave (km/s) = 5.29016 6.75733 6.06825
#
# Compressibility (1/GPa) = 0.02392510
#
# Stress axis : x y z
#
# Youngs Moduli (GPa) = 4.85491 4.85504 138.30160
#
# Poissons Ratio (x) = 0.93882 0.29424
# Poissons Ratio (y) = 0.93880 0.29443
# Poissons Ratio (z) = 0.01033 0.01034
#
# Static dielectric constant tensor:
#      x y z
#    x 1.599660 0.000000 0.000000 
#    y 0.000000 1.599660 0.000000 
#    z 0.000000 0.000000 1.567590 
# 
# From -- ./inp_files/2660.got.cif
#   From: 2010.05.17/outbox.cif.g08.bks.cpg/sg120_2_cif.got.tgz:2660.got - 2010.05.20 11:28:13.
