data_PCOD9559971
_publ_section_title
;
Structure prediction by ZEFSAII (Michael W. Deem and Ramdas Pophale) SiO2 
 PCOD9559971
Probable space group: I -4 C 2
;
_chemical_formula_sum "Si O2"
_cell_formula_units_Z 96
_cell_length_a 27.359682
_cell_length_b 27.359682
_cell_length_c 10.095049
_cell_angle_alpha 90.000000
_cell_angle_beta 90.000000
_cell_angle_gamma 90.000000
_cell_volume 7556.671129
_symmetry_space_group_name_H-M "I -4 C 2"
_symmetry_group_IT_number 120
_symmetry_cell_setting 'tetragonal'
loop_
_space_group_symop_operation_xyz
x,y,z
y,-x,-z
-x,-y,z
-y,x,-z
y,x,1/2-z
-y,-x,1/2-z
-x,y,1/2+z
x,-y,1/2+z
1/2+x,1/2+y,1/2+z
1/2+y,1/2-x,1/2-z
1/2-x,1/2-y,1/2+z
1/2-y,1/2+x,1/2-z
1/2+y,1/2+x,-z
1/2-y,1/2-x,-z
1/2-x,1/2+y,z
1/2+x,1/2-y,z
loop_
_atom_site_type_symbol
_atom_site_label
_atom_site_fract_x
_atom_site_fract_y
_atom_site_fract_z
Si Si1 0.682247 0.100988 0.660582
Si Si2 0.354097 0.997999 0.776741
Si Si3 0.399191 0.817712 0.659299
Si Si4 0.262090 0.322123 0.348176
Si Si5 0.178038 0.762002 0.848147
Si Si6 0.579915 0.001540 0.526689
O O1 0.636556 0.136771 0.693082
O O2 0.681672 0.094913 0.500832
O O3 0.731947 0.129964 0.693719
O O4 0.675579 0.049721 0.733017
O O5 0.324578 0.048620 0.773354
O O6 0.376470 0.994127 0.923168
O O7 0.399312 0.000862 0.674179
O O8 0.370314 0.767998 0.692955
O O9 0.304083 0.304083 0.250000
O O10 0.220726 0.279400 0.349253
O O11 0.278918 0.327557 0.500081
O O12 0.196025 0.803976 0.750000
O O13 0.553319 0.053319 0.500000
O O14 0.539915 0.960086 0.500000
#
# Coordination Sequence:
#
# PCOD9559971 Si02
#       6
#    16  16  16  16  16  16
#     4   9  17  30  44  56  76 104 129 161 207 248
#     4  12  20  31  44  56  76 102 136 171 210 252
#     4   9  17  30  44  56  76 104 129 161 207 248
#     4   8  14  26  43  60  76  94 118 151 195 245
#     4   8  14  26  43  60  76  94 118 151 195 245
#     4  11  22  32  42  54  70  98 138 182 216 241
#
# _framework density 12.704006
#
# number of rings (size 3 to 8) (size 9 to 14) (size 15 to 20)
#    0.000    2.500    1.667    5.000    0.000    1.333 
#    3.000    0.000    0.000    0.000    0.000    0.000 
#    0.000    0.000    0.000    0.000    0.000    0.833 
#
# Total GULP energy -267440.783395 kJ/mol
# GULP energy per Si atom -5571.682987 kJ/mol
# Density = 1.267509 g / cm^3
# Si number density = 12.704006 Si / 1000 Ang^3
#
#
#
# Elastic Constant Matrix: (Units=GPa)
#
#
# Indices 1 2 3 4 5 6 
#
# 1 63.5887 50.1028 22.4083 0.0000 0.0000 0.0000
# 2 50.1028 63.5879 22.4077 0.0000 0.0000 0.0000
# 3 22.4083 22.4077 21.4057 0.0000 0.0000 0.0000
# 4 0.0000 0.0000 0.0000 18.9839 0.0000 0.0000
# 5 0.0000 0.0000 0.0000 0.0000 18.9841 0.0000
# 6 0.0000 0.0000 0.0000 0.0000 0.0000 27.4750
#
#
#
# Elastic Compliance Matrix: (Units=1/GPa)
#
#
# Indices 1 2 3 4 5 6 
#
# 1 0.044565 -0.029589 -0.015678 0.000000 0.000000 0.000000
# 2 -0.029589 0.044564 -0.015675 0.000000 0.000000 0.000000
# 3 -0.015678 -0.015675 0.079537 0.000000 0.000000 0.000000
# 4 0.000000 0.000000 0.000000 0.052676 0.000000 0.000000
# 5 0.000000 0.000000 0.000000 0.000000 0.052676 0.000000
# 6 0.000000 0.000000 0.000000 0.000000 0.000000 0.036397
#
#
# Mechanical properties :
#
#
# Convention : Reuss Voigt Hill
#
# Bulk Modulus (GPa) = 21.37569 37.60220 29.48895
# Shear Modulus (GPa) = 11.16338 16.66617 13.91478
#
# Velocity S-wave (km/s) = 2.96755 3.62592 3.31313
# Velocity P-wave (km/s) = 5.34830 6.86969 6.15618
#
# Compressibility (1/GPa) = 0.04678212
#
# Stress axis : x y z
#
# Youngs Moduli (GPa) = 22.43926 22.43959 12.57271
#
# Poissons Ratio (x) = 0.66397 0.19711
# Poissons Ratio (y) = 0.66396 0.19708
# Poissons Ratio (z) = 0.35180 0.35174
#
# Static dielectric constant tensor:
#      x y z
#    x 1.411100 0.000000 0.000000 
#    y 0.000000 1.411100 0.000000 
#    z 0.000000 0.000000 1.419030 
# 
# From -- ./inp_files/1615.got.cif
#   From: 2010.05.17/outbox.cif.g08.bks.cpg/sg120_1_cif.got.tgz:1615.got - 2010.05.20 11:28:13.
