data_PCOD9559798
_publ_section_title
;
Structure prediction by ZEFSAII (Michael W. Deem and Ramdas Pophale) SiO2 
 PCOD9559798
Probable space group: I -4 C 2
;
_chemical_formula_sum "Si O2"
_cell_formula_units_Z 112
_cell_length_a 14.567732
_cell_length_b 14.567732
_cell_length_c 23.210836
_cell_angle_alpha 90.000000
_cell_angle_beta 90.000000
_cell_angle_gamma 90.000000
_cell_volume 4925.776126
_symmetry_space_group_name_H-M "I -4 C 2"
_symmetry_group_IT_number 120
_symmetry_cell_setting 'tetragonal'
loop_
_space_group_symop_operation_xyz
x,y,z
y,-x,-z
-x,-y,z
-y,x,-z
y,x,1/2-z
-y,-x,1/2-z
-x,y,1/2+z
x,-y,1/2+z
1/2+x,1/2+y,1/2+z
1/2+y,1/2-x,1/2-z
1/2-x,1/2-y,1/2+z
1/2-y,1/2+x,1/2-z
1/2+y,1/2+x,-z
1/2-y,1/2-x,-z
1/2-x,1/2+y,z
1/2+x,1/2-y,z
loop_
_atom_site_type_symbol
_atom_site_label
_atom_site_fract_x
_atom_site_fract_y
_atom_site_fract_z
Si Si1 0.785180 0.039656 0.674920
Si Si2 0.366700 0.290518 0.998796
Si Si3 0.895534 0.177646 0.614653
Si Si4 0.854556 0.510579 0.769172
Si Si5 0.537228 0.851881 0.929817
Si Si6 0.429120 0.579480 0.602450
Si Si7 0.527238 0.865716 0.594226
O O1 0.859988 0.968710 0.647590
O O2 0.828938 0.140926 0.664781
O O3 0.743732 0.019620 0.737652
O O4 0.699925 0.033583 0.630979
O O5 0.367861 0.355988 0.943102
O O6 0.450945 0.223521 0.979377
O O7 0.275610 0.224391 0.000000
O O8 0.381606 0.356547 0.053795
O O9 0.906508 0.279438 0.591487
O O10 0.997735 0.147316 0.631888
O O11 0.903672 0.416846 0.750410
O O12 0.866392 0.512634 0.837238
O O13 0.448504 0.914849 0.932422
O O14 0.621964 0.923142 0.928201
O O15 0.500000 0.500000 0.579903
#
# Coordination Sequence:
#
# PCOD9559798 Si02
#       7
#    16  16  16  16  16  16  16
#     4  10  21  41  66  97 128 172 233 291 334 427
#     4  11  25  39  65  99 135 182 240 292 347 424
#     4  10  25  39  62  94 135 174 225 289 349 415
#     4  11  19  37  70  99 128 176 222 274 367 432
#     4  10  21  40  63  93 138 171 220 287 346 420
#     4  10  24  44  68  92 133 184 236 279 350 429
#     4  11  21  41  66  93 135 176 216 285 357 423
#
# _framework density 22.737535000000001
#
# number of rings (size 3 to 8) (size 9 to 14) (size 15 to 20)
#    0.000    1.571    2.857    1.714    8.000    0.571 
#    0.000    5.000    3.143    2.571    0.000    0.000 
#    0.000    0.000    0.000    0.000    0.000    0.000 
#
# Total GULP energy -312130.790203 kJ/mol
# GULP energy per Si atom -5573.764111 kJ/mol
# Density = 2.268578 g / cm^3
# Si number density = 22.737535 Si / 1000 Ang^3
#
#
#
# Elastic Constant Matrix: (Units=GPa)
#
#
# Indices 1 2 3 4 5 6 
#
# 1 89.5885 48.9978 26.5579 0.0000 0.0000 0.0000
# 2 48.9978 89.5881 26.5580 0.0000 0.0000 0.0000
# 3 26.5579 26.5580 76.9296 0.0000 0.0000 0.0000
# 4 0.0000 0.0000 0.0000 33.3466 0.0000 0.0000
# 5 0.0000 0.0000 0.0000 0.0000 33.3466 0.0000
# 6 0.0000 0.0000 0.0000 0.0000 0.0000 28.3731
#
#
#
# Elastic Compliance Matrix: (Units=1/GPa)
#
#
# Indices 1 2 3 4 5 6 
#
# 1 0.016476 -0.008160 -0.002871 0.000000 0.000000 0.000000
# 2 -0.008160 0.016476 -0.002871 0.000000 0.000000 0.000000
# 3 -0.002871 -0.002871 0.014981 0.000000 0.000000 0.000000
# 4 0.000000 0.000000 0.000000 0.029988 0.000000 0.000000
# 5 0.000000 0.000000 0.000000 0.000000 0.029988 0.000000
# 6 0.000000 0.000000 0.000000 0.000000 0.000000 0.035245
#
#
# Mechanical properties :
#
#
# Convention : Reuss Voigt Hill
#
# Bulk Modulus (GPa) = 49.67808 51.14820 50.41314
# Shear Modulus (GPa) = 28.14239 29.27944 28.71091
#
# Velocity S-wave (km/s) = 3.52192 3.59237 3.55732
# Velocity P-wave (km/s) = 6.19956 6.30481 6.25241
#
# Compressibility (1/GPa) = 0.02012960
#
# Stress axis : x y z
#
# Youngs Moduli (GPa) = 60.69388 60.69348 66.75076
#
# Poissons Ratio (x) = 0.49527 0.19163
# Poissons Ratio (y) = 0.49527 0.19164
# Poissons Ratio (z) = 0.17424 0.17425
#
# Static dielectric constant tensor:
#      x y z
#    x 1.916350 0.000000 0.000000 
#    y 0.000000 1.916350 0.000000 
#    z 0.000000 0.000000 1.947340 
# 
# From -- ./inp_files/6289.got.cif
#   From: 2010.05.17/outbox.cif.g08.bks.cpg/sg120_4_cif.got.tgz:6289.got - 2010.05.20 11:28:13.
