data_PCOD9559343
_publ_section_title
;
Structure prediction by ZEFSAII (Michael W. Deem and Ramdas Pophale) SiO2 
 PCOD9559343
Probable space group: I -4 M 2
;
_chemical_formula_sum "Si O2"
_cell_formula_units_Z 80
_cell_length_a 13.393073
_cell_length_b 13.393073
_cell_length_c 21.357638
_cell_angle_alpha 90.000000
_cell_angle_beta 90.000000
_cell_angle_gamma 90.000000
_cell_volume 3831.013595
_symmetry_space_group_name_H-M "I -4 M 2"
_symmetry_group_IT_number 119
_symmetry_cell_setting 'tetragonal'
loop_
_space_group_symop_operation_xyz
x,y,z
y,-x,-z
-x,-y,z
-y,x,-z
y,x,-z
-y,-x,-z
-x,y,z
x,-y,z
1/2+x,1/2+y,1/2+z
1/2+y,1/2-x,1/2-z
1/2-x,1/2-y,1/2+z
1/2-y,1/2+x,1/2-z
1/2+y,1/2+x,1/2-z
1/2-y,1/2-x,1/2-z
1/2-x,1/2+y,1/2+z
1/2+x,1/2-y,1/2+z
loop_
_atom_site_type_symbol
_atom_site_label
_atom_site_fract_x
_atom_site_fract_y
_atom_site_fract_z
Si Si1 0.809064 0.204944 0.895938
Si Si2 0.383610 0.888000 0.467848
Si Si3 0.881122 0.000000 0.762338
Si Si4 0.000000 0.883048 0.087244
Si Si5 0.110318 0.383178 0.380954
Si Si6 0.885731 0.779515 0.763605
O O1 0.816562 0.302603 0.937790
O O2 0.702405 0.185681 0.863374
O O3 0.886804 0.213711 0.839302
O O4 0.833049 0.102944 0.933539
O O5 0.500000 0.867757 0.452695
O O6 0.377096 0.890573 0.543169
O O7 0.358839 0.000000 0.445287
O O8 0.867354 0.000000 0.837556
O O9 0.848006 0.889542 0.740746
O O10 0.000000 0.000000 0.751437
O O11 0.000000 0.000000 0.073477
O O12 0.127315 0.500000 0.364487
O O13 0.000000 0.355147 0.357880
O O14 0.810983 0.689018 0.750000
O O15 0.000000 0.763435 0.741541
#
# Coordination Sequence:
#
# PCOD9559343 Si02
#       6
#    16  16   8   8  16  16
#     4  11  18  32  54  78 105 140 180 222 267 320
#     4   9  18  31  49  74 108 146 178 212 259 319
#     4   7  14  32  52  68  98 138 170 200 258 324
#     4   9  16  26  47  77 103 133 164 212 270 324
#     4   9  18  33  51  75 107 142 180 218 261 315
#     4  10  21  36  55  80 108 139 173 220 272 325
#
# _framework density 20.882200999999998
#
# number of rings (size 3 to 8) (size 9 to 14) (size 15 to 20)
#    0.000    2.600    1.000    4.800    0.000    1.000 
#    1.800    0.000    0.000    0.900    0.000    2.800 
#    0.000    0.000    0.000    0.000    0.000    0.000 
#
# Total GULP energy -223051.927820 kJ/mol
# GULP energy per Si atom -5576.298196 kJ/mol
# Density = 2.083467 g / cm^3
# Si number density = 20.882201 Si / 1000 Ang^3
#
#
#
# Elastic Constant Matrix: (Units=GPa)
#
#
# Indices 1 2 3 4 5 6 
#
# 1 135.4842 62.6625 7.3956 0.0000 0.0000 0.0000
# 2 62.6625 135.4858 7.3960 0.0000 0.0000 0.0000
# 3 7.3956 7.3960 12.5316 0.0000 0.0000 0.0000
# 4 0.0000 0.0000 0.0000 20.9938 0.0000 0.0000
# 5 0.0000 0.0000 0.0000 0.0000 20.9936 0.0000
# 6 0.0000 0.0000 0.0000 0.0000 0.0000 39.8330
#
#
#
# Elastic Compliance Matrix: (Units=1/GPa)
#
#
# Indices 1 2 3 4 5 6 
#
# 1 0.009506 -0.004226 -0.003116 0.000000 0.000000 0.000000
# 2 -0.004226 0.009506 -0.003116 0.000000 0.000000 0.000000
# 3 -0.003116 -0.003116 0.083476 0.000000 0.000000 0.000000
# 4 0.000000 0.000000 0.000000 0.047633 0.000000 0.000000
# 5 0.000000 0.000000 0.000000 0.000000 0.047634 0.000000
# 6 0.000000 0.000000 0.000000 0.000000 0.000000 0.025105
#
#
# Mechanical properties :
#
#
# Convention : Reuss Voigt Hill
#
# Bulk Modulus (GPa) = 12.25917 48.71218 30.48568
# Shear Modulus (GPa) = 18.45260 30.10059 24.27660
#
# Velocity S-wave (km/s) = 2.97585 3.80076 3.41332
# Velocity P-wave (km/s) = 4.20606 6.52984 5.49226
#
# Compressibility (1/GPa) = 0.08157158
#
# Stress axis : x y z
#
# Youngs Moduli (GPa) = 105.19986 105.20085 11.97954
#
# Poissons Ratio (x) = 0.44461 0.03732
# Poissons Ratio (y) = 0.44461 0.03733
# Poissons Ratio (z) = 0.32775 0.32779
#
# Static dielectric constant tensor:
#      x y z
#    x 1.794980 0.000000 0.000000 
#    y 0.000000 1.794980 0.000000 
#    z 0.000000 0.000000 1.752860 
# 
# From -- ./inp_files/10157.got.cif
#   From: 2010.05.17/outbox.cif.g08.bks.cpg/sg119_6_cif.got.tgz:10157.got - 2010.05.20 11:21:29.
