data_PCOD9559150
_publ_section_title
;
Structure prediction by ZEFSAII (Michael W. Deem and Ramdas Pophale) SiO2 
 PCOD9559150
Probable space group: I -4 M 2
;
_chemical_formula_sum "Si O2"
_cell_formula_units_Z 104
_cell_length_a 16.086085
_cell_length_b 16.086085
_cell_length_c 19.759930
_cell_angle_alpha 90.000000
_cell_angle_beta 90.000000
_cell_angle_gamma 90.000000
_cell_volume 5113.121588
_symmetry_space_group_name_H-M "I -4 M 2"
_symmetry_group_IT_number 119
_symmetry_cell_setting 'tetragonal'
loop_
_space_group_symop_operation_xyz
x,y,z
y,-x,-z
-x,-y,z
-y,x,-z
y,x,-z
-y,-x,-z
-x,y,z
x,-y,z
1/2+x,1/2+y,1/2+z
1/2+y,1/2-x,1/2-z
1/2-x,1/2-y,1/2+z
1/2-y,1/2+x,1/2-z
1/2+y,1/2+x,1/2-z
1/2-y,1/2-x,1/2-z
1/2-x,1/2+y,1/2+z
1/2+x,1/2-y,1/2+z
loop_
_atom_site_type_symbol
_atom_site_label
_atom_site_fract_x
_atom_site_fract_y
_atom_site_fract_z
Si Si1 0.403177 0.596824 0.000000
Si Si2 0.129650 0.904121 0.226693
Si Si3 0.586449 0.181171 0.302586
Si Si4 0.681428 0.341841 0.873303
Si Si5 0.094531 0.651744 0.570779
Si Si6 0.096874 0.404610 0.072963
Si Si7 0.275365 0.160112 0.821754
O O1 0.344832 0.618233 0.063901
O O2 0.500000 0.607732 0.019354
O O3 0.221108 0.915311 0.196945
O O4 0.138810 0.879359 0.305948
O O5 0.111851 0.813132 0.190643
O O6 0.092782 0.000000 0.220911
O O7 0.500000 0.148985 0.272165
O O8 0.656656 0.156656 0.250000
O O9 0.597984 0.146077 0.376606
O O10 0.756428 0.399676 0.898568
O O11 0.723925 0.252148 0.857772
O O12 0.123813 0.646659 0.493714
O O13 0.000000 0.622328 0.570063
O O14 0.121498 0.500000 0.090833
O O15 0.109485 0.340421 0.133338
O O16 0.000000 0.406135 0.053921
O O17 0.316678 0.183323 0.750000
#
# Coordination Sequence:
#
# PCOD9559150 Si02
#       7
#     8  16  16  16  16  16  16
#     4  11  24  38  54  80 112 150 196 245 302 370
#     4  10  19  35  57  84 118 153 191 242 293 345
#     4  11  19  29  46  76 116 153 188 225 271 334
#     4  11  20  36  57  83 115 153 193 237 291 355
#     4  11  20  33  54  81 115 154 187 226 285 350
#     4  10  23  41  59  85 121 156 194 247 305 356
#     4  10  21  38  61  86 115 152 204 247 293 361
#
# _framework density 20.339825999999999
#
# number of rings (size 3 to 8) (size 9 to 14) (size 15 to 20)
#    0.000    1.462    3.077    3.692    0.000    4.154 
#    0.000    3.077    0.000    1.385    0.000    0.000 
#    0.000    0.000    0.000    0.000    0.000    0.000 
#
# Total GULP energy -289614.760781 kJ/mol
# GULP energy per Si atom -5569.514630 kJ/mol
# Density = 2.029353 g / cm^3
# Si number density = 20.339826 Si / 1000 Ang^3
#
#
#
# Elastic Constant Matrix: (Units=GPa)
#
#
# Indices 1 2 3 4 5 6 
#
# 1 67.3282 11.4974 33.6689 0.0000 0.0000 0.0000
# 2 11.4974 67.3286 33.6688 0.0000 0.0000 0.0000
# 3 33.6689 33.6688 109.2031 0.0000 0.0000 0.0000
# 4 0.0000 0.0000 0.0000 -19.1126 0.0001 0.0000
# 5 0.0000 0.0000 0.0000 0.0001 -19.0792 0.0000
# 6 0.0000 0.0000 0.0000 0.0000 0.0000 17.4981
#
#
#
# Elastic Compliance Matrix: (Units=1/GPa)
#
#
# Indices 1 2 3 4 5 6 
#
# 1 0.017567 -0.000345 -0.005310 0.000000 0.000000 0.000000
# 2 -0.000345 0.017567 -0.005310 0.000000 0.000000 0.000000
# 3 -0.005310 -0.005310 0.012431 0.000000 0.000000 0.000000
# 4 0.000000 0.000000 0.000000 -0.052322 0.000000 0.000000
# 5 0.000000 0.000000 0.000000 0.000000 -0.052413 0.000000
# 6 0.000000 0.000000 0.000000 0.000000 0.000000 0.057149
#
#
# Mechanical properties :
#
#
# Convention : Reuss Voigt Hill
#
# Bulk Modulus (GPa) = 39.00697 44.61447 41.81072
# Shear Modulus (GPa) = 164.18691 6.86291 85.52491
#
# Velocity S-wave (km/s) = 8.99428 1.83887 6.49148
# Velocity P-wave (km/s) = 11.27307 5.14692 8.76279
#
# Compressibility (1/GPa) = 0.02563645
#
# Stress axis : x y z
#
# Youngs Moduli (GPa) = 56.92568 56.92610 80.44111
#
# Poissons Ratio (x) = 0.01961 0.42713
# Poissons Ratio (y) = 0.01961 0.42713
# Poissons Ratio (z) = 0.30227 0.30227
#
# Static dielectric constant tensor:
#      x y z
#    x 2.216200 0.000000 0.000000 
#    y 0.000000 2.216490 0.000000 
#    z 0.000000 0.000000 1.716310 
# 
# From -- ./inp_files/6748.got.cif
#   From: 2010.05.17/outbox.cif.g08.bks.cpg/sg119_4_cif.got.tgz:6748.got - 2010.05.20 11:21:29.
