data_PCOD9559253
_publ_section_title
;
Structure prediction by ZEFSAII (Michael W. Deem and Ramdas Pophale) SiO2 
 PCOD9559253
Probable space group: I -4 M 2
;
_chemical_formula_sum "Si O2"
_cell_formula_units_Z 96
_cell_length_a 24.111987
_cell_length_b 24.111987
_cell_length_c 7.820265
_cell_angle_alpha 90.000000
_cell_angle_beta 90.000000
_cell_angle_gamma 90.000000
_cell_volume 4546.607579
_symmetry_space_group_name_H-M "I -4 M 2"
_symmetry_group_IT_number 119
_symmetry_cell_setting 'tetragonal'
loop_
_space_group_symop_operation_xyz
x,y,z
y,-x,-z
-x,-y,z
-y,x,-z
y,x,-z
-y,-x,-z
-x,y,z
x,-y,z
1/2+x,1/2+y,1/2+z
1/2+y,1/2-x,1/2-z
1/2-x,1/2-y,1/2+z
1/2-y,1/2+x,1/2-z
1/2+y,1/2+x,1/2-z
1/2-y,1/2-x,1/2-z
1/2-x,1/2+y,1/2+z
1/2+x,1/2-y,1/2+z
loop_
_atom_site_type_symbol
_atom_site_label
_atom_site_fract_x
_atom_site_fract_y
_atom_site_fract_z
Si Si1 0.265574 0.342122 0.909640
Si Si2 0.758458 0.059497 0.984628
Si Si3 0.437143 0.937864 0.541982
Si Si4 0.113358 0.845736 0.820144
Si Si5 0.827936 0.935348 0.631945
Si Si6 0.339693 0.855103 0.956058
O O1 0.299824 0.341151 0.734057
O O2 0.287103 0.287103 0.000000
O O3 0.293610 0.397220 0.998146
O O4 0.200785 0.344107 0.934761
O O5 0.789850 0.062662 0.802482
O O6 0.715037 0.109110 0.991928
O O7 0.729246 0.000000 0.993606
O O8 0.805294 0.062754 0.132484
O O9 0.500000 0.926248 0.484687
O O10 0.438225 0.938225 0.750000
O O11 0.393342 0.891709 0.494735
O O12 0.421847 0.000000 0.486258
O O13 0.119041 0.897297 0.689042
O O14 0.127828 0.872173 0.000000
O O15 0.838757 0.000000 0.583327
O O16 0.342416 0.842416 0.750000
#
# Coordination Sequence:
#
# PCOD9559253 Si02
#       6
#    16  16  16  16  16  16
#     4  10  21  36  54  83 117 154 197 250 302 361
#     4  10  20  35  55  79 114 155 196 248 305 364
#     4   8  15  28  47  74 111 153 198 254 310 355
#     4   9  20  38  59  82 116 157 196 235 299 370
#     4   9  18  35  59  85 112 146 190 240 297 358
#     4  11  20  32  52  82 113 154 210 255 307 367
#
# _framework density 21.114644999999999
#
# number of rings (size 3 to 8) (size 9 to 14) (size 15 to 20)
#    0.000    2.500    1.667    1.000    0.000    4.667 
#    0.000    0.000    0.000    0.500    0.000    3.500 
#    0.000    2.667    0.000    0.000    0.000    0.000 
#
# Total GULP energy -267270.092583 kJ/mol
# GULP energy per Si atom -5568.126929 kJ/mol
# Density = 2.106659 g / cm^3
# Si number density = 21.114645 Si / 1000 Ang^3
#
#
#
# Elastic Constant Matrix: (Units=GPa)
#
#
# Indices 1 2 3 4 5 6 
#
# 1 114.8154 58.9358 6.3730 0.0000 0.0000 0.0000
# 2 58.9358 114.8135 6.3715 0.0000 0.0000 0.0000
# 3 6.3730 6.3715 35.4708 0.0000 0.0000 0.0000
# 4 0.0000 0.0000 0.0000 12.3283 0.0000 0.0000
# 5 0.0000 0.0000 0.0000 0.0000 12.3290 0.0000
# 6 0.0000 0.0000 0.0000 0.0000 0.0000 34.7152
#
#
#
# Elastic Compliance Matrix: (Units=1/GPa)
#
#
# Indices 1 2 3 4 5 6 
#
# 1 0.011864 -0.006032 -0.001048 0.000000 0.000000 0.000000
# 2 -0.006032 0.011864 -0.001047 0.000000 0.000000 0.000000
# 3 -0.001048 -0.001047 0.028569 0.000000 0.000000 0.000000
# 4 0.000000 0.000000 0.000000 0.081114 0.000000 0.000000
# 5 0.000000 0.000000 0.000000 0.000000 0.081110 0.000000
# 6 0.000000 0.000000 0.000000 0.000000 0.000000 0.028806
#
#
# Mechanical properties :
#
#
# Convention : Reuss Voigt Hill
#
# Bulk Modulus (GPa) = 27.74532 45.38449 36.56490
# Shear Modulus (GPa) = 18.40971 24.76909 21.58940
#
# Velocity S-wave (km/s) = 2.95599 3.42874 3.20110
# Velocity P-wave (km/s) = 4.98190 6.10049 5.56935
#
# Compressibility (1/GPa) = 0.03604212
#
# Stress axis : x y z
#
# Youngs Moduli (GPa) = 84.28853 84.28748 35.00339
#
# Poissons Ratio (x) = 0.50841 0.03669
# Poissons Ratio (y) = 0.50842 0.03666
# Poissons Ratio (z) = 0.08834 0.08828
#
# Static dielectric constant tensor:
#      x y z
#    x 1.750970 0.000000 0.000000 
#    y 0.000000 1.750970 0.000000 
#    z 0.000000 0.000000 1.891770 
# 
# From -- ./inp_files/2658.got.cif
#   From: 2010.05.17/outbox.cif.g08.bks.cpg/sg119_2_cif.got.tgz:2658.got - 2010.05.20 11:21:29.
