data_PCOD9559417
_publ_section_title
;
Structure prediction by ZEFSAII (Michael W. Deem and Ramdas Pophale) SiO2 
 PCOD9559417
Probable space group: I -4 M 2
;
_chemical_formula_sum "Si O2"
_cell_formula_units_Z 42
_cell_length_a 7.712482
_cell_length_b 7.712482
_cell_length_c 34.153997
_cell_angle_alpha 90.000000
_cell_angle_beta 90.000000
_cell_angle_gamma 90.000000
_cell_volume 2031.560980
_symmetry_space_group_name_H-M "I -4 M 2"
_symmetry_group_IT_number 119
_symmetry_cell_setting 'tetragonal'
loop_
_space_group_symop_operation_xyz
x,y,z
y,-x,-z
-x,-y,z
-y,x,-z
y,x,-z
-y,-x,-z
-x,y,z
x,-y,z
1/2+x,1/2+y,1/2+z
1/2+y,1/2-x,1/2-z
1/2-x,1/2-y,1/2+z
1/2-y,1/2+x,1/2-z
1/2+y,1/2+x,1/2-z
1/2-y,1/2-x,1/2-z
1/2-x,1/2+y,1/2+z
1/2+x,1/2-y,1/2+z
loop_
_atom_site_type_symbol
_atom_site_label
_atom_site_fract_x
_atom_site_fract_y
_atom_site_fract_z
Si Si1 0.795485 0.210971 0.957668
Si Si2 0.312014 0.789086 0.872480
Si Si3 0.289546 0.500000 0.684796
Si Si4 0.500000 0.000000 0.250000
O O1 0.714626 0.272354 0.917108
O O2 0.000000 0.249897 0.955282
O O3 0.779696 0.000000 0.958731
O O4 0.727866 0.272135 0.000000
O O5 0.500000 0.734768 0.858269
O O6 0.163656 0.742147 0.842347
O O7 0.306777 0.000000 0.874725
O O8 0.500000 0.500000 0.691702
O O9 0.171736 0.500000 0.723054
#
# Coordination Sequence:
#
# PCOD9559417 Si02
#       4
#    16  16   8   2
#     4   8  12  20  40  71 109 155 202 244 283 330
#     4   9  16  29  54  84 116 157 199 236 293 354
#     4  10  22  42  64  88 120 150 190 254 298 360
#     4  12  28  44  68  96 116 148 204 244 316 384
#
# _framework density 20.673757999999999
#
# number of rings (size 3 to 8) (size 9 to 14) (size 15 to 20)
#    0.000    3.048    1.905    1.143    0.000    1.524 
#    0.000    0.000    4.190    0.000    0.000    0.000 
#    0.000    0.000    0.000    0.000    0.000    0.000 
#
# Total GULP energy -117122.273479 kJ/mol
# GULP energy per Si atom -5577.251118 kJ/mol
# Density = 2.062670 g / cm^3
# Si number density = 20.673758 Si / 1000 Ang^3
#
#
#
# Elastic Constant Matrix: (Units=GPa)
#
#
# Indices 1 2 3 4 5 6 
#
# 1 90.0115 26.3805 68.9351 0.0000 0.0000 0.0000
# 2 26.3805 90.0116 68.9351 0.0000 0.0000 0.0000
# 3 68.9351 68.9351 170.5117 0.0000 0.0000 0.0000
# 4 0.0000 0.0000 0.0000 -40.7378 0.0000 0.0000
# 5 0.0000 0.0000 0.0000 0.0000 -40.7376 0.0000
# 6 0.0000 0.0000 0.0000 0.0000 0.0000 -2.1777
#
#
#
# Elastic Compliance Matrix: (Units=1/GPa)
#
#
# Indices 1 2 3 4 5 6 
#
# 1 0.016101 0.000386 -0.006665 0.000000 0.000000 0.000000
# 2 0.000386 0.016101 -0.006665 0.000000 0.000000 0.000000
# 3 -0.006665 -0.006665 0.011254 0.000000 0.000000 0.000000
# 4 0.000000 0.000000 0.000000 -0.024547 0.000000 0.000000
# 5 0.000000 0.000000 0.000000 0.000000 -0.024547 0.000000
# 6 0.000000 0.000000 0.000000 0.000000 0.000000 -0.459205
#
#
# Mechanical properties :
#
#
# Convention : Reuss Voigt Hill
#
# Bulk Modulus (GPa) = 56.92640 75.44846 66.18743
# Shear Modulus (GPa) = -11.54477 -4.31169 -7.92823
#
# Velocity S-wave (km/s) = -2.36567 -1.44572 -1.96042
# Velocity P-wave (km/s) = 4.48704 5.81268 5.19234
#
# Compressibility (1/GPa) = 0.01756654
#
# Stress axis : x y z
#
# Youngs Moduli (GPa) = 62.10646 62.10661 88.85577
#
# Poissons Ratio (x) = -0.02396 0.59227
# Poissons Ratio (y) = -0.02396 0.59227
# Poissons Ratio (z) = 0.41397 0.41397
#
# Static dielectric constant tensor:
#      x y z
#    x 1.762210 0.000000 0.000000 
#    y 0.000000 1.762210 0.000000 
#    z 0.000000 0.000000 1.710280 
# 
# From -- ./inp_files/9788.got.cif
#   From: 2010.05.17/outbox.cif.g08.bks.cpg/sg119_5_cif.got.tgz:9788.got - 2010.05.20 11:21:29.
