data_PCOD9559068
_publ_section_title
;
Structure prediction by ZEFSAII (Michael W. Deem and Ramdas Pophale) SiO2 
 PCOD9559068
Probable space group: I -4 M 2
;
_chemical_formula_sum "Si O2"
_cell_formula_units_Z 112
_cell_length_a 15.002703
_cell_length_b 15.002703
_cell_length_c 21.363729
_cell_angle_alpha 90.000000
_cell_angle_beta 90.000000
_cell_angle_gamma 90.000000
_cell_volume 4808.571566
_symmetry_space_group_name_H-M "I -4 M 2"
_symmetry_group_IT_number 119
_symmetry_cell_setting 'tetragonal'
loop_
_space_group_symop_operation_xyz
x,y,z
y,-x,-z
-x,-y,z
-y,x,-z
y,x,-z
-y,-x,-z
-x,y,z
x,-y,z
1/2+x,1/2+y,1/2+z
1/2+y,1/2-x,1/2-z
1/2-x,1/2-y,1/2+z
1/2-y,1/2+x,1/2-z
1/2+y,1/2+x,1/2-z
1/2-y,1/2-x,1/2-z
1/2-x,1/2+y,1/2+z
1/2+x,1/2-y,1/2+z
loop_
_atom_site_type_symbol
_atom_site_label
_atom_site_fract_x
_atom_site_fract_y
_atom_site_fract_z
Si Si1 0.597736 0.671408 0.944511
Si Si2 0.891802 0.601752 0.641053
Si Si3 0.366816 0.103020 0.501196
Si Si4 0.775375 0.601196 0.387916
Si Si5 0.407811 0.394337 0.410882
Si Si6 0.099533 0.105046 0.760195
Si Si7 0.791119 0.221548 0.669540
O O1 0.500000 0.674352 0.914282
O O2 0.611324 0.762105 0.984073
O O3 0.671790 0.666062 0.891100
O O4 0.600775 0.600775 0.000000
O O5 0.875884 0.500000 0.663550
O O6 0.864525 0.607184 0.567593
O O7 0.831836 0.678791 0.672006
O O8 0.000000 0.618597 0.646201
O O9 0.406919 0.147531 0.562070
O O10 0.390982 0.000000 0.500475
O O11 0.760229 0.500000 0.361745
O O12 0.690019 0.632775 0.429703
O O13 0.788588 0.684539 0.341556
O O14 0.500000 0.352718 0.433903
O O15 0.412793 0.500000 0.424080
O O16 0.403612 0.384198 0.335443
O O17 0.172471 0.166061 0.728025
O O18 0.000000 0.128671 0.736687
O O19 0.113635 0.000000 0.747936
#
# Coordination Sequence:
#
# PCOD9559068 Si02
#       7
#    16  16  16  16  16  16  16
#     4  10  19  31  47  71 105 140 173 213 262 311
#     4  10  20  34  53  76 105 146 190 229 270 319
#     4   9  18  34  53  73 104 147 191 224 258 316
#     4  10  21  34  53  79 105 139 185 231 276 326
#     4   8  16  34  57  79 105 136 175 226 280 334
#     4   9  18  34  57  82 107 139 177 218 273 339
#     4  11  21  33  53  78 111 141 183 226 269 318
#
# _framework density 23.291739
#
# number of rings (size 3 to 8) (size 9 to 14) (size 15 to 20)
#    0.000    2.429    1.429    2.143    0.000    3.286 
#    0.000    0.000    0.000    1.714    0.000    2.000 
#    0.000    3.429    0.000    0.000    0.000    0.000 
#
# Total GULP energy -312527.232242 kJ/mol
# GULP energy per Si atom -5580.843433 kJ/mol
# Density = 2.323873 g / cm^3
# Si number density = 23.291739 Si / 1000 Ang^3
#
#
#
# Elastic Constant Matrix: (Units=GPa)
#
#
# Indices 1 2 3 4 5 6 
#
# 1 91.7865 43.3817 32.7863 0.0000 0.0000 0.0000
# 2 43.3817 91.7865 32.7863 0.0000 0.0000 0.0000
# 3 32.7863 32.7863 89.6395 0.0000 0.0000 0.0000
# 4 0.0000 0.0000 0.0000 6.1107 0.0000 0.0000
# 5 0.0000 0.0000 0.0000 0.0000 6.1107 0.0000
# 6 0.0000 0.0000 0.0000 0.0000 0.0000 25.5022
#
#
#
# Elastic Compliance Matrix: (Units=1/GPa)
#
#
# Indices 1 2 3 4 5 6 
#
# 1 0.014827 -0.005833 -0.003290 0.000000 0.000000 0.000000
# 2 -0.005833 0.014827 -0.003290 0.000000 0.000000 0.000000
# 3 -0.003290 -0.003290 0.013562 0.000000 0.000000 0.000000
# 4 0.000000 0.000000 0.000000 0.163647 0.000000 0.000000
# 5 0.000000 0.000000 0.000000 0.000000 0.163647 0.000000
# 6 0.000000 0.000000 0.000000 0.000000 0.000000 0.039212
#
#
# Mechanical properties :
#
#
# Convention : Reuss Voigt Hill
#
# Bulk Modulus (GPa) = 54.37217 54.56902 54.47059
# Shear Modulus (GPa) = 11.34620 18.49527 14.92074
#
# Velocity S-wave (km/s) = 2.20951 2.82098 2.53376
# Velocity P-wave (km/s) = 5.46844 5.83866 5.65658
#
# Compressibility (1/GPa) = 0.01839176
#
# Stress axis : x y z
#
# Youngs Moduli (GPa) = 67.44645 67.44645 73.73425
#
# Poissons Ratio (x) = 0.39338 0.24256
# Poissons Ratio (y) = 0.39338 0.24256
# Poissons Ratio (z) = 0.22187 0.22187
#
# Static dielectric constant tensor:
#      x y z
#    x 1.962550 0.000000 0.000000 
#    y 0.000000 1.962550 0.000000 
#    z 0.000000 0.000000 1.859780 
# 
# From -- ./inp_files/8866.got.cif
#   From: 2010.05.17/outbox.cif.g08.bks.cpg/sg119_5_cif.got.tgz:8866.got - 2010.05.20 11:21:29.
