data_PCOD9559070
_publ_section_title
;
Structure prediction by ZEFSAII (Michael W. Deem and Ramdas Pophale) SiO2 
 PCOD9559070
Probable space group: I -4 M 2
;
_chemical_formula_sum "Si O2"
_cell_formula_units_Z 88
_cell_length_a 14.631769
_cell_length_b 14.631769
_cell_length_c 24.307671
_cell_angle_alpha 90.000000
_cell_angle_beta 90.000000
_cell_angle_gamma 90.000000
_cell_volume 5203.996811
_symmetry_space_group_name_H-M "I -4 M 2"
_symmetry_group_IT_number 119
_symmetry_cell_setting 'tetragonal'
loop_
_space_group_symop_operation_xyz
x,y,z
y,-x,-z
-x,-y,z
-y,x,-z
y,x,-z
-y,-x,-z
-x,y,z
x,-y,z
1/2+x,1/2+y,1/2+z
1/2+y,1/2-x,1/2-z
1/2-x,1/2-y,1/2+z
1/2-y,1/2+x,1/2-z
1/2+y,1/2+x,1/2-z
1/2-y,1/2-x,1/2-z
1/2-x,1/2+y,1/2+z
1/2+x,1/2-y,1/2+z
loop_
_atom_site_type_symbol
_atom_site_label
_atom_site_fract_x
_atom_site_fract_y
_atom_site_fract_z
Si Si1 0.890289 0.292825 0.699931
Si Si2 0.396258 0.803499 0.530992
Si Si3 0.606482 0.712578 0.952020
Si Si4 0.102828 0.897173 0.000000
Si Si5 0.399550 0.390394 0.837038
Si Si6 0.106989 0.606758 0.912571
O O1 0.845228 0.345228 0.750000
O O2 0.864245 0.186392 0.699785
O O3 0.865367 0.334156 0.640117
O O4 0.000000 0.301690 0.704099
O O5 0.500000 0.832587 0.544994
O O6 0.313366 0.854458 0.560050
O O7 0.390842 0.693799 0.536934
O O8 0.381744 0.831011 0.466491
O O9 0.500000 0.717746 0.968664
O O10 0.611959 0.652417 0.897242
O O11 0.665484 0.665484 0.000000
O O12 0.000000 0.891542 0.974714
O O13 0.500000 0.364461 0.815874
O O14 0.396745 0.500000 0.842894
O O15 0.128216 0.500000 0.926301
O O16 0.000000 0.610163 0.897184
#
# Coordination Sequence:
#
# PCOD9559070 Si02
#       6
#    16  16  16   8  16  16
#     4  10  19  31  50  72  94 121 153 192 238 288
#     4  10  19  31  48  70  98 133 170 204 241 283
#     4  11  20  30  47  72 102 134 167 199 234 282
#     4   9  18  32  48  64  87 128 176 212 239 272
#     4   9  19  34  50  70  98 130 159 190 232 282
#     4   9  17  28  43  68 101 129 153 189 240 291
#
# _framework density 16.910080000000001
#
# number of rings (size 3 to 8) (size 9 to 14) (size 15 to 20)
#    0.000    2.273    0.909    2.727    0.000    4.364 
#    0.000    0.000    0.000    2.182    0.000    5.091 
#    0.000    0.000    0.000    0.000    0.000    0.000 
#
# Total GULP energy -245192.290461 kJ/mol
# GULP energy per Si atom -5572.552056 kJ/mol
# Density = 1.687159 g / cm^3
# Si number density = 16.910080 Si / 1000 Ang^3
#
#
#
# Elastic Constant Matrix: (Units=GPa)
#
#
# Indices 1 2 3 4 5 6 
#
# 1 57.9124 19.0682 5.5346 0.0000 0.0000 0.0000
# 2 19.0682 57.9136 5.5350 0.0000 0.0000 0.0000
# 3 5.5346 5.5350 19.5207 0.0000 0.0000 0.0000
# 4 0.0000 0.0000 0.0000 16.7721 0.0000 0.0000
# 5 0.0000 0.0000 0.0000 0.0000 16.7722 0.0000
# 6 0.0000 0.0000 0.0000 0.0000 0.0000 23.7620
#
#
#
# Elastic Compliance Matrix: (Units=1/GPa)
#
#
# Indices 1 2 3 4 5 6 
#
# 1 0.019643 -0.006101 -0.003840 0.000000 0.000000 0.000000
# 2 -0.006101 0.019643 -0.003840 0.000000 0.000000 0.000000
# 3 -0.003840 -0.003840 0.053405 0.000000 0.000000 0.000000
# 4 0.000000 0.000000 0.000000 0.059623 0.000000 0.000000
# 5 0.000000 0.000000 0.000000 0.000000 0.059622 0.000000
# 6 0.000000 0.000000 0.000000 0.000000 0.000000 0.042084
#
#
# Mechanical properties :
#
#
# Convention : Reuss Voigt Hill
#
# Bulk Modulus (GPa) = 15.35373 21.73582 18.54478
# Shear Modulus (GPa) = 16.48587 18.47520 17.48054
#
# Velocity S-wave (km/s) = 3.12575 3.30897 3.21866
# Velocity P-wave (km/s) = 4.70387 5.24220 4.98032
#
# Compressibility (1/GPa) = 0.06513076
#
# Stress axis : x y z
#
# Youngs Moduli (GPa) = 50.90856 50.90945 18.72485
#
# Poissons Ratio (x) = 0.31058 0.07189
# Poissons Ratio (y) = 0.31057 0.07190
# Poissons Ratio (z) = 0.19547 0.19549
#
# Static dielectric constant tensor:
#      x y z
#    x 1.607820 0.000000 0.000000 
#    y 0.000000 1.607820 0.000000 
#    z 0.000000 0.000000 1.527010 
# 
# From -- ./inp_files/7704.got.cif
#   From: 2010.05.17/outbox.cif.g08.bks.cpg/sg119_4_cif.got.tgz:7704.got - 2010.05.20 11:21:29.
