data_PCOD9559828
_publ_section_title
;
Structure prediction by ZEFSAII (Michael W. Deem and Ramdas Pophale) SiO2 
 PCOD9559828
Probable space group: I -4 C 2
;
_chemical_formula_sum "Si O2"
_cell_formula_units_Z 80
_cell_length_a 10.054061
_cell_length_b 10.054061
_cell_length_c 33.302066
_cell_angle_alpha 90.000000
_cell_angle_beta 90.000000
_cell_angle_gamma 90.000000
_cell_volume 3366.310788
_symmetry_space_group_name_H-M "I -4 C 2"
_symmetry_group_IT_number 120
_symmetry_cell_setting 'tetragonal'
loop_
_space_group_symop_operation_xyz
x,y,z
y,-x,-z
-x,-y,z
-y,x,-z
y,x,1/2-z
-y,-x,1/2-z
-x,y,1/2+z
x,-y,1/2+z
1/2+x,1/2+y,1/2+z
1/2+y,1/2-x,1/2-z
1/2-x,1/2-y,1/2+z
1/2-y,1/2+x,1/2-z
1/2+y,1/2+x,-z
1/2-y,1/2-x,-z
1/2-x,1/2+y,z
1/2+x,1/2-y,z
loop_
_atom_site_type_symbol
_atom_site_label
_atom_site_fract_x
_atom_site_fract_y
_atom_site_fract_z
Si Si1 0.595699 0.774713 0.158467
Si Si2 0.572330 0.627780 0.598982
Si Si3 0.008617 0.721153 0.743518
Si Si4 0.670940 0.624749 0.515569
Si Si5 0.989405 0.774294 0.828793
O O1 0.520964 0.741782 0.117266
O O2 0.510905 0.736852 0.197974
O O3 0.717119 0.667326 0.161399
O O4 0.639062 0.926776 0.165051
O O5 0.500000 0.500000 0.579642
O O6 0.666251 0.665597 0.562774
O O7 0.636678 0.560719 0.638049
O O8 0.877094 0.633883 0.753909
O O9 0.014734 0.814861 0.782410
O O10 0.675814 0.467397 0.504896
O O11 0.799175 0.700826 0.500000
#
# Coordination Sequence:
#
# PCOD9559828 Si02
#       5
#    16  16  16  16  16
#     4  10  22  39  63  95 131 175 227 279 341 404
#     4  10  22  42  66  99 134 175 223 279 349 409
#     4   9  19  37  58  90 133 177 223 282 343 394
#     4  11  25  48  80 107 147 186 230 293 362 436
#     4  10  22  37  64  92 128 172 226 277 331 402
#
# _framework density 23.764887999999999
#
# number of rings (size 3 to 8) (size 9 to 14) (size 15 to 20)
#    0.000    2.000    2.000    0.600    5.600    1.200 
#    0.000    3.000    4.400    0.000    0.000    0.000 
#    0.000    0.000    0.000    0.000    0.000    0.000 
#
# Total GULP energy -223252.962613 kJ/mol
# GULP energy per Si atom -5581.324065 kJ/mol
# Density = 2.371080 g / cm^3
# Si number density = 23.764888 Si / 1000 Ang^3
#
#
#
# Elastic Constant Matrix: (Units=GPa)
#
#
# Indices 1 2 3 4 5 6 
#
# 1 36.0126 23.7908 3.5663 0.0000 0.0000 0.0000
# 2 23.7908 36.0172 3.5681 0.0000 0.0000 0.0000
# 3 3.5663 3.5681 123.7094 0.0000 0.0000 0.0000
# 4 0.0000 0.0000 0.0000 16.7151 0.0000 0.0000
# 5 0.0000 0.0000 0.0000 0.0000 16.7159 0.0000
# 6 0.0000 0.0000 0.0000 0.0000 0.0000 39.9917
#
#
#
# Elastic Compliance Matrix: (Units=1/GPa)
#
#
# Indices 1 2 3 4 5 6 
#
# 1 0.049295 -0.032514 -0.000483 0.000000 0.000000 0.000000
# 2 -0.032514 0.049289 -0.000484 0.000000 0.000000 0.000000
# 3 -0.000483 -0.000484 0.008111 0.000000 0.000000 0.000000
# 4 0.000000 0.000000 0.000000 0.059826 0.000000 0.000000
# 5 0.000000 0.000000 0.000000 0.000000 0.059823 0.000000
# 6 0.000000 0.000000 0.000000 0.000000 0.000000 0.025005
#
#
# Mechanical properties :
#
#
# Convention : Reuss Voigt Hill
#
# Bulk Modulus (GPa) = 25.16791 28.62108 26.89450
# Shear Modulus (GPa) = 15.08034 25.67213 20.37623
#
# Velocity S-wave (km/s) = 2.52179 3.29029 2.93133
# Velocity P-wave (km/s) = 4.36951 5.14823 4.77477
#
# Compressibility (1/GPa) = 0.03973314
#
# Stress axis : x y z
#
# Youngs Moduli (GPa) = 20.28593 20.28844 123.28383
#
# Poissons Ratio (x) = 0.65965 0.05958
# Poissons Ratio (y) = 0.65957 0.05971
# Poissons Ratio (z) = 0.00980 0.00983
#
# Static dielectric constant tensor:
#      x y z
#    x 2.053000 0.000000 0.000000 
#    y 0.000000 2.053000 0.000000 
#    z 0.000000 0.000000 1.919240 
# 
# From -- ./inp_files/6473.got.cif
#   From: 2010.05.17/outbox.cif.g08.bks.cpg/sg120_4_cif.got.tgz:6473.got - 2010.05.20 11:28:13.
