data_PCOD9559016
_publ_section_title
;
Structure prediction by ZEFSAII (Michael W. Deem and Ramdas Pophale) SiO2 
 PCOD9559016
Probable space group: I -4 M 2
;
_chemical_formula_sum "Si O2"
_cell_formula_units_Z 104
_cell_length_a 17.591128
_cell_length_b 17.591128
_cell_length_c 18.726492
_cell_angle_alpha 90.000000
_cell_angle_beta 90.000000
_cell_angle_gamma 90.000000
_cell_volume 5794.871457
_symmetry_space_group_name_H-M "I -4 M 2"
_symmetry_group_IT_number 119
_symmetry_cell_setting 'tetragonal'
loop_
_space_group_symop_operation_xyz
x,y,z
y,-x,-z
-x,-y,z
-y,x,-z
y,x,-z
-y,-x,-z
-x,y,z
x,-y,z
1/2+x,1/2+y,1/2+z
1/2+y,1/2-x,1/2-z
1/2-x,1/2-y,1/2+z
1/2-y,1/2+x,1/2-z
1/2+y,1/2+x,1/2-z
1/2-y,1/2-x,1/2-z
1/2-x,1/2+y,1/2+z
1/2+x,1/2-y,1/2+z
loop_
_atom_site_type_symbol
_atom_site_label
_atom_site_fract_x
_atom_site_fract_y
_atom_site_fract_z
Si Si1 0.753560 0.914908 0.459519
Si Si2 0.714665 0.911224 0.744717
Si Si3 0.415245 0.864931 0.152903
Si Si4 0.231074 0.166961 0.602501
Si Si5 0.908790 0.908790 0.000000
Si Si6 0.196210 0.156518 0.872393
Si Si7 0.917473 0.263742 0.788071
O O1 0.670023 0.911340 0.425123
O O2 0.749315 0.894314 0.542203
O O3 0.803464 0.852107 0.419026
O O4 0.782906 0.000000 0.448130
O O5 0.635970 0.864031 0.750000
O O6 0.759936 0.869083 0.680555
O O7 0.760566 0.900449 0.818774
O O8 0.704114 0.000000 0.729557
O O9 0.500000 0.896255 0.166516
O O10 0.343787 0.916316 0.169536
O O11 0.405632 0.793145 0.207386
O O12 0.288572 0.238451 0.595467
O O13 0.857427 0.881304 0.932460
O O14 0.000000 0.897240 0.988341
O O15 0.145615 0.210626 0.821448
O O16 0.000000 0.227064 0.793451
#
# Coordination Sequence:
#
# PCOD9559016 Si02
#       7
#    16  16  16  16   8  16  16
#     4  10  18  31  52  79 111 143 179 226 276 325
#     4  10  22  39  62  87 112 143 180 228 276 330
#     4   9  18  30  48  75 110 146 182 225 277 327
#     4  10  20  34  57  84 109 143 187 231 272 327
#     4  11  24  40  56  78 112 148 184 233 290 340
#     4  11  21  36  58  81 108 143 191 234 272 331
#     4  10  19  31  51  77 110 149 188 232 274 323
#
# _framework density 17.946904
#
# number of rings (size 3 to 8) (size 9 to 14) (size 15 to 20)
#    0.000    1.923    1.538    3.231    4.308    0.462 
#    0.000    2.308    0.000    9.692    0.000    2.154 
#    0.000    0.000    0.000    0.000    0.000    0.000 
#
# Total GULP energy -289867.695887 kJ/mol
# GULP energy per Si atom -5574.378767 kJ/mol
# Density = 1.790606 g / cm^3
# Si number density = 17.946904 Si / 1000 Ang^3
#
#
#
# Elastic Constant Matrix: (Units=GPa)
#
#
# Indices 1 2 3 4 5 6 
#
# 1 83.7709 39.1148 36.5630 0.0000 0.0000 0.0000
# 2 39.1148 83.7704 36.5612 0.0000 0.0000 0.0000
# 3 36.5630 36.5612 84.6033 0.0000 0.0000 0.0000
# 4 0.0000 0.0000 0.0000 20.0819 0.0000 0.0000
# 5 0.0000 0.0000 0.0000 0.0000 20.0822 0.0000
# 6 0.0000 0.0000 0.0000 0.0000 0.0000 9.7979
#
#
#
# Elastic Compliance Matrix: (Units=1/GPa)
#
#
# Indices 1 2 3 4 5 6 
#
# 1 0.016674 -0.005719 -0.004735 0.000000 0.000000 0.000000
# 2 -0.005719 0.016674 -0.004734 0.000000 0.000000 0.000000
# 3 -0.004735 -0.004734 0.015912 0.000000 0.000000 0.000000
# 4 0.000000 0.000000 0.000000 0.049796 0.000000 0.000000
# 5 0.000000 0.000000 0.000000 0.000000 0.049795 0.000000
# 6 0.000000 0.000000 0.000000 0.000000 0.000000 0.102062
#
#
# Mechanical properties :
#
#
# Convention : Reuss Voigt Hill
#
# Bulk Modulus (GPa) = 52.95353 52.95804 52.95578
# Shear Modulus (GPa) = 17.38620 19.31943 18.35282
#
# Velocity S-wave (km/s) = 3.11586 3.28453 3.20131
# Velocity P-wave (km/s) = 6.52032 6.62996 6.57537
#
# Compressibility (1/GPa) = 0.01888448
#
# Stress axis : x y z
#
# Youngs Moduli (GPa) = 59.97263 59.97359 62.84667
#
# Poissons Ratio (x) = 0.34301 0.29755
# Poissons Ratio (y) = 0.34300 0.29751
# Poissons Ratio (z) = 0.28394 0.28391
#
# Static dielectric constant tensor:
#      x y z
#    x 1.613350 0.000000 0.000000 
#    y 0.000000 1.613350 0.000000 
#    z 0.000000 0.000000 1.639580 
# 
# From -- ./inp_files/6755.got.cif
#   From: 2010.05.17/outbox.cif.g08.bks.cpg/sg119_4_cif.got.tgz:6755.got - 2010.05.20 11:21:29.
