data_PCOD9559313
_publ_section_title
;
Structure prediction by ZEFSAII (Michael W. Deem and Ramdas Pophale) SiO2 
 PCOD9559313
Probable space group: I -4 M 2
;
_chemical_formula_sum "Si O2"
_cell_formula_units_Z 68
_cell_length_a 11.031369
_cell_length_b 11.031369
_cell_length_c 27.106995
_cell_angle_alpha 90.000000
_cell_angle_beta 90.000000
_cell_angle_gamma 90.000000
_cell_volume 3298.680094
_symmetry_space_group_name_H-M "I -4 M 2"
_symmetry_group_IT_number 119
_symmetry_cell_setting 'tetragonal'
loop_
_space_group_symop_operation_xyz
x,y,z
y,-x,-z
-x,-y,z
-y,x,-z
y,x,-z
-y,-x,-z
-x,y,z
x,-y,z
1/2+x,1/2+y,1/2+z
1/2+y,1/2-x,1/2-z
1/2-x,1/2-y,1/2+z
1/2-y,1/2+x,1/2-z
1/2+y,1/2+x,1/2-z
1/2-y,1/2-x,1/2-z
1/2-x,1/2+y,1/2+z
1/2+x,1/2-y,1/2+z
loop_
_atom_site_type_symbol
_atom_site_label
_atom_site_fract_x
_atom_site_fract_y
_atom_site_fract_z
Si Si1 0.640879 0.238149 0.040543
Si Si2 0.500000 0.500000 0.635029
Si Si3 0.749227 0.000000 0.191709
Si Si4 0.771804 0.240583 0.649643
Si Si5 0.500000 0.231559 0.625835
Si Si6 0.500000 0.143529 0.515853
Si Si7 0.000000 0.862067 0.704500
O O1 0.500000 0.223363 0.053430
O O2 0.710761 0.260903 0.090900
O O3 0.657822 0.342179 0.000000
O O4 0.688501 0.118788 0.012396
O O5 0.382950 0.500000 0.668800
O O6 0.500000 0.372248 0.608081
O O7 0.696895 0.125402 0.170873
O O8 0.767332 0.000000 0.250210
O O9 0.626897 0.212692 0.655954
O O10 0.875537 0.157247 0.673784
O O11 0.500000 0.160987 0.574452
O O12 0.500000 0.000000 0.508311
O O13 0.000000 0.000000 0.723117
#
# Coordination Sequence:
#
# PCOD9559313 Si02
#       7
#    16   4   8  16   8   8   8
#     4  11  22  39  59  91 130 175 222 276 331 400
#     4   8  18  36  66  93 126 162 203 286 344 392
#     4  10  21  43  69  97 131 169 220 286 352 401
#     4  11  23  42  68  97 133 176 227 282 344 415
#     4  10  20  39  63  96 125 174 223 271 341 407
#     4  10  21  35  58  84 127 171 216 267 321 386
#     4  12  26  44  68 102 135 174 224 289 354 411
#
# _framework density 20.614305999999999
#
# number of rings (size 3 to 8) (size 9 to 14) (size 15 to 20)
#    0.000    1.412    4.118    1.412    0.000    2.588 
#    0.000    2.353    0.000    0.000    0.000    0.000 
#    0.000    0.000    0.000    0.000    0.000    0.000 
#
# Total GULP energy -189547.967263 kJ/mol
# GULP energy per Si atom -5574.940214 kJ/mol
# Density = 2.056739 g / cm^3
# Si number density = 20.614306 Si / 1000 Ang^3
#
#
#
# Elastic Constant Matrix: (Units=GPa)
#
#
# Indices 1 2 3 4 5 6 
#
# 1 76.4570 17.0163 11.6765 0.0000 0.0000 0.0000
# 2 17.0163 76.4562 11.6760 0.0000 0.0000 0.0000
# 3 11.6765 11.6760 91.2283 0.0000 0.0000 0.0000
# 4 0.0000 0.0000 0.0000 8.2399 0.0000 0.0000
# 5 0.0000 0.0000 0.0000 0.0000 8.2408 0.0000
# 6 0.0000 0.0000 0.0000 0.0000 0.0000 23.9399
#
#
#
# Elastic Compliance Matrix: (Units=1/GPa)
#
#
# Indices 1 2 3 4 5 6 
#
# 1 0.013938 -0.002886 -0.001415 0.000000 0.000000 0.000000
# 2 -0.002886 0.013938 -0.001414 0.000000 0.000000 0.000000
# 3 -0.001415 -0.001414 0.011324 0.000000 0.000000 0.000000
# 4 0.000000 0.000000 0.000000 0.121360 0.000000 0.000000
# 5 0.000000 0.000000 0.000000 0.000000 0.121347 0.000000
# 6 0.000000 0.000000 0.000000 0.000000 0.000000 0.041771
#
#
# Mechanical properties :
#
#
# Convention : Reuss Voigt Hill
#
# Bulk Modulus (GPa) = 36.01146 36.09770 36.05458
# Shear Modulus (GPa) = 14.51953 21.66897 18.09425
#
# Velocity S-wave (km/s) = 2.65682 3.24568 2.96590
# Velocity P-wave (km/s) = 5.18832 5.62094 5.40896
#
# Compressibility (1/GPa) = 0.02776894
#
# Stress axis : x y z
#
# Youngs Moduli (GPa) = 71.74846 71.74779 88.31120
#
# Poissons Ratio (x) = 0.20706 0.12492
# Poissons Ratio (y) = 0.20706 0.12491
# Poissons Ratio (z) = 0.10149 0.10148
#
# Static dielectric constant tensor:
#      x y z
#    x 1.810580 0.000000 0.000000 
#    y 0.000000 1.810580 0.000000 
#    z 0.000000 0.000000 1.683860 
# 
# From -- ./inp_files/9431.got.cif
#   From: 2010.05.17/outbox.cif.g08.bks.cpg/sg119_5_cif.got.tgz:9431.got - 2010.05.20 11:21:29.
