data_PCOD9559127
_publ_section_title
;
Structure prediction by ZEFSAII (Michael W. Deem and Ramdas Pophale) SiO2 
 PCOD9559127
Probable space group: I -4 M 2
;
_chemical_formula_sum "Si O2"
_cell_formula_units_Z 112
_cell_length_a 13.548918
_cell_length_b 13.548918
_cell_length_c 25.679228
_cell_angle_alpha 90.000000
_cell_angle_beta 90.000000
_cell_angle_gamma 90.000000
_cell_volume 4714.017517
_symmetry_space_group_name_H-M "I -4 M 2"
_symmetry_group_IT_number 119
_symmetry_cell_setting 'tetragonal'
loop_
_space_group_symop_operation_xyz
x,y,z
y,-x,-z
-x,-y,z
-y,x,-z
y,x,-z
-y,-x,-z
-x,y,z
x,-y,z
1/2+x,1/2+y,1/2+z
1/2+y,1/2-x,1/2-z
1/2-x,1/2-y,1/2+z
1/2-y,1/2+x,1/2-z
1/2+y,1/2+x,1/2-z
1/2-y,1/2-x,1/2-z
1/2-x,1/2+y,1/2+z
1/2+x,1/2-y,1/2+z
loop_
_atom_site_type_symbol
_atom_site_label
_atom_site_fract_x
_atom_site_fract_y
_atom_site_fract_z
Si Si1 0.891210 0.325620 0.921702
Si Si2 0.615608 0.116426 0.590357
Si Si3 0.393582 0.744852 0.676007
Si Si4 0.610938 0.604612 0.426797
Si Si5 0.309870 0.177616 0.195677
Si Si6 0.172763 0.832389 0.443436
Si Si7 0.385715 0.394144 0.166540
O O1 0.884412 0.215800 0.947452
O O2 0.883165 0.320413 0.858068
O O3 0.786332 0.369762 0.937645
O O4 0.000000 0.366607 0.934921
O O5 0.500000 0.141481 0.575484
O O6 0.626313 0.147486 0.651411
O O7 0.711245 0.165527 0.562504
O O8 0.625193 0.000000 0.583341
O O9 0.500000 0.742382 0.701358
O O10 0.397894 0.684268 0.621643
O O11 0.306670 0.692804 0.706248
O O12 0.500000 0.600816 0.405432
O O13 0.624170 0.500000 0.457096
O O14 0.357321 0.142679 0.250000
O O15 0.343945 0.288477 0.182974
O O16 0.138256 0.861745 0.500000
O O17 0.111590 0.874264 0.395838
O O18 0.500000 0.393797 0.181615
O O19 0.342601 0.500000 0.183592
#
# Coordination Sequence:
#
# PCOD9559127 Si02
#       7
#    16  16  16  16  16  16  16
#     4   9  18  34  52  76 111 151 187 232 291 345
#     4  10  19  33  55  80 109 147 189 234 288 354
#     4   9  16  29  48  75 106 140 183 227 279 341
#     4   8  12  21  42  68  96 133 173 211 255 317
#     4  10  20  34  56  86 117 156 195 242 288 344
#     4  11  22  36  58  86 115 150 197 250 301 359
#     4  10  22  41  62  85 118 157 197 246 300 351
#
# _framework density 23.758928000000001
#
# number of rings (size 3 to 8) (size 9 to 14) (size 15 to 20)
#    0.000    2.429    4.286    0.429    0.000    2.857 
#    0.000    0.714    0.000   13.714    0.000    6.000 
#    0.000    0.000    0.000    0.000    0.000    0.000 
#
# Total GULP energy -311761.551138 kJ/mol
# GULP energy per Si atom -5567.170556 kJ/mol
# Density = 2.370485 g / cm^3
# Si number density = 23.758928 Si / 1000 Ang^3
#
#
#
# Elastic Constant Matrix: (Units=GPa)
#
#
# Indices 1 2 3 4 5 6 
#
# 1 77.7427 5.8378 -14.4111 0.0000 0.0000 0.0000
# 2 5.8378 77.7427 -14.4110 0.0000 0.0000 0.0000
# 3 -14.4111 -14.4110 78.1792 0.0000 0.0000 0.0000
# 4 0.0000 0.0000 0.0000 -0.2132 0.0000 0.0000
# 5 0.0000 0.0000 0.0000 0.0000 -0.2133 0.0000
# 6 0.0000 0.0000 0.0000 0.0000 0.0000 7.4616
#
#
#
# Elastic Compliance Matrix: (Units=1/GPa)
#
#
# Indices 1 2 3 4 5 6 
#
# 1 0.013342 -0.000565 0.002355 0.000000 0.000000 0.000000
# 2 -0.000565 0.013342 0.002355 0.000000 0.000000 0.000000
# 3 0.002355 0.002355 0.013659 0.000000 0.000000 0.000000
# 4 0.000000 0.000000 0.000000 -4.689870 0.000000 0.000000
# 5 0.000000 0.000000 0.000000 0.000000 -4.687259 0.000000
# 6 0.000000 0.000000 0.000000 0.000000 0.000000 0.134019
#
#
# Mechanical properties :
#
#
# Convention : Reuss Voigt Hill
#
# Bulk Modulus (GPa) = 20.56199 20.85512 20.70855
# Shear Modulus (GPa) = -0.54378 18.51694 8.98658
#
# Velocity S-wave (km/s) = -0.47893 2.79474 1.94695
# Velocity P-wave (km/s) = 2.89264 4.38303 3.71338
#
# Compressibility (1/GPa) = 0.04863342
#
# Stress axis : x y z
#
# Youngs Moduli (GPa) = 74.95141 74.95150 73.20968
#
# Poissons Ratio (x) = 0.04237 -0.17242
# Poissons Ratio (y) = 0.04237 -0.17242
# Poissons Ratio (z) = -0.17652 -0.17652
#
# Static dielectric constant tensor:
#      x y z
#    x 1.964620 0.000000 0.000000 
#    y 0.000000 1.964620 0.000000 
#    z 0.000000 0.000000 1.932880 
# 
# From -- ./inp_files/10515.got.cif
#   From: 2010.05.17/outbox.cif.g08.bks.cpg/sg119_6_cif.got.tgz:10515.got - 2010.05.20 11:21:29.
