data_PCOD9559719
_publ_section_title
;
Structure prediction by ZEFSAII (Michael W. Deem and Ramdas Pophale) SiO2 
 PCOD9559719
Probable space group: I -4 C 2
;
_chemical_formula_sum "Si O2"
_cell_formula_units_Z 80
_cell_length_a 17.145284
_cell_length_b 17.145284
_cell_length_c 14.758835
_cell_angle_alpha 90.000000
_cell_angle_beta 90.000000
_cell_angle_gamma 90.000000
_cell_volume 4338.518404
_symmetry_space_group_name_H-M "I -4 C 2"
_symmetry_group_IT_number 120
_symmetry_cell_setting 'tetragonal'
loop_
_space_group_symop_operation_xyz
x,y,z
y,-x,-z
-x,-y,z
-y,x,-z
y,x,1/2-z
-y,-x,1/2-z
-x,y,1/2+z
x,-y,1/2+z
1/2+x,1/2+y,1/2+z
1/2+y,1/2-x,1/2-z
1/2-x,1/2-y,1/2+z
1/2-y,1/2+x,1/2-z
1/2+y,1/2+x,-z
1/2-y,1/2-x,-z
1/2-x,1/2+y,z
1/2+x,1/2-y,z
loop_
_atom_site_type_symbol
_atom_site_label
_atom_site_fract_x
_atom_site_fract_y
_atom_site_fract_z
Si Si1 0.422927 0.541262 0.354834
Si Si2 0.616555 0.807421 0.581665
Si Si3 0.180547 0.308964 0.725945
Si Si4 0.701409 0.642276 0.573012
Si Si5 0.236027 0.949691 0.392928
O O1 0.500000 0.500000 0.391865
O O2 0.439139 0.560862 0.250000
O O3 0.406230 0.624733 0.399188
O O4 0.349127 0.483664 0.365868
O O5 0.634640 0.865361 0.500000
O O6 0.643025 0.832804 0.682085
O O7 0.667711 0.729457 0.562688
O O8 0.526487 0.784657 0.583602
O O9 0.234858 0.234858 0.750000
O O10 0.232714 0.355741 0.651477
O O11 0.100798 0.276800 0.684741
O O12 0.731018 0.607124 0.479348
#
# Coordination Sequence:
#
# PCOD9559719 Si02
#       5
#    16  16  16  16  16
#     4  10  23  36  54  91 137 169 200 247 324 385
#     4  10  22  39  60  90 120 160 209 258 309 375
#     4  10  21  40  62  85 121 162 218 256 302 376
#     4  10  20  38  60  87 126 164 208 252 304 376
#     4  11  23  36  65  91 120 169 206 258 320 369
#
# _framework density 18.439475000000002
#
# number of rings (size 3 to 8) (size 9 to 14) (size 15 to 20)
#    0.000    1.800    0.000    6.000    8.400    3.200 
#    0.000    0.000    0.000    7.800    0.000    0.000 
#    0.000    0.000    0.000    0.000    0.000    0.000 
#
# Total GULP energy -223368.349811 kJ/mol
# GULP energy per Si atom -5584.208745 kJ/mol
# Density = 1.839751 g / cm^3
# Si number density = 18.439475 Si / 1000 Ang^3
#
#
#
# Elastic Constant Matrix: (Units=GPa)
#
#
# Indices 1 2 3 4 5 6 
#
# 1 73.5668 68.8349 51.6215 0.0000 0.0000 0.0000
# 2 68.8349 73.5675 51.6193 0.0000 0.0000 0.0000
# 3 51.6215 51.6193 122.4833 0.0000 0.0000 0.0000
# 4 0.0000 0.0000 0.0000 27.1404 0.0000 0.0000
# 5 0.0000 0.0000 0.0000 0.0000 27.1406 0.0000
# 6 0.0000 0.0000 0.0000 0.0000 0.0000 26.0500
#
#
#
# Elastic Compliance Matrix: (Units=1/GPa)
#
#
# Indices 1 2 3 4 5 6 
#
# 1 0.110718 -0.100603 -0.004265 0.000000 0.000000 0.000000
# 2 -0.100603 0.110712 -0.004259 0.000000 0.000000 0.000000
# 3 -0.004265 -0.004259 0.011757 0.000000 0.000000 0.000000
# 4 0.000000 0.000000 0.000000 0.036845 0.000000 0.000000
# 5 0.000000 0.000000 0.000000 0.000000 0.036845 0.000000
# 6 0.000000 0.000000 0.000000 0.000000 0.000000 0.038388
#
#
# Mechanical properties :
#
#
# Convention : Reuss Voigt Hill
#
# Bulk Modulus (GPa) = 66.96191 68.19656 67.57924
# Shear Modulus (GPa) = 8.79514 22.56901 15.68208
#
# Velocity S-wave (km/s) = 2.18634 3.50230 2.91943
# Velocity P-wave (km/s) = 6.53963 7.30883 6.93490
#
# Compressibility (1/GPa) = 0.01493386
#
# Stress axis : x y z
#
# Youngs Moduli (GPa) = 9.03197 9.03241 85.05874
#
# Poissons Ratio (x) = 0.90869 0.36276
# Poissons Ratio (y) = 0.90864 0.36223
# Poissons Ratio (z) = 0.03852 0.03847
#
# Static dielectric constant tensor:
#      x y z
#    x 1.619890 0.000000 0.000000 
#    y 0.000000 1.619890 0.000000 
#    z 0.000000 0.000000 1.678230 
# 
# From -- ./inp_files/3461.got.cif
#   From: 2010.05.17/outbox.cif.g08.bks.cpg/sg120_2_cif.got.tgz:3461.got - 2010.05.20 11:28:13.
