data_PCOD9559418
_publ_section_title
;
Structure prediction by ZEFSAII (Michael W. Deem and Ramdas Pophale) SiO2 
 PCOD9559418
Probable space group: I -4 M 2
;
_chemical_formula_sum "Si O2"
_cell_formula_units_Z 42
_cell_length_a 7.633012
_cell_length_b 7.633012
_cell_length_c 34.707911
_cell_angle_alpha 90.000000
_cell_angle_beta 90.000000
_cell_angle_gamma 90.000000
_cell_volume 2022.182583
_symmetry_space_group_name_H-M "I -4 M 2"
_symmetry_group_IT_number 119
_symmetry_cell_setting 'tetragonal'
loop_
_space_group_symop_operation_xyz
x,y,z
y,-x,-z
-x,-y,z
-y,x,-z
y,x,-z
-y,-x,-z
-x,y,z
x,-y,z
1/2+x,1/2+y,1/2+z
1/2+y,1/2-x,1/2-z
1/2-x,1/2-y,1/2+z
1/2-y,1/2+x,1/2-z
1/2+y,1/2+x,1/2-z
1/2-y,1/2-x,1/2-z
1/2-x,1/2+y,1/2+z
1/2+x,1/2-y,1/2+z
loop_
_atom_site_type_symbol
_atom_site_label
_atom_site_fract_x
_atom_site_fract_y
_atom_site_fract_z
Si Si1 0.713954 0.798735 0.624445
Si Si2 0.792618 0.304922 0.457742
Si Si3 0.711386 0.500000 0.685082
Si Si4 0.500000 0.000000 0.250000
O O1 0.500000 0.799517 0.621530
O O2 0.778263 0.730497 0.582438
O O3 0.756858 0.668900 0.658897
O O4 0.770025 0.000000 0.631109
O O5 0.773417 0.226584 0.500000
O O6 0.716785 0.500000 0.460579
O O7 0.000000 0.316876 0.451064
O O8 0.500000 0.500000 0.691963
O O9 0.828429 0.500000 0.723003
#
# Coordination Sequence:
#
# PCOD9559418 Si02
#       4
#    16  16   8   2
#     4   8  16  34  58  82 112 154 201 237 285 355
#     4   9  18  31  47  74 110 148 193 240 276 329
#     4  10  22  42  66  86 118 158 188 244 310 362
#     4  12  28  44  60 104 124 132 204 268 292 376
#
# _framework density 20.769638
#
# number of rings (size 3 to 8) (size 9 to 14) (size 15 to 20)
#    0.000    3.048    0.000    2.286    2.667    2.286 
#    3.429    0.000    0.000    0.000    0.000    0.000 
#    0.000    0.000    0.000    0.000    0.000    0.000 
#
# Total GULP energy -116989.335588 kJ/mol
# GULP energy per Si atom -5570.920742 kJ/mol
# Density = 2.072237 g / cm^3
# Si number density = 20.769638 Si / 1000 Ang^3
#
#
#
# Elastic Constant Matrix: (Units=GPa)
#
#
# Indices 1 2 3 4 5 6 
#
# 1 77.7911 20.3989 65.9673 0.0000 0.0000 0.0000
# 2 20.3989 77.7913 65.9677 0.0000 0.0000 0.0000
# 3 65.9673 65.9677 208.5588 0.0000 0.0000 0.0000
# 4 0.0000 0.0000 0.0000 42.1336 0.0000 0.0000
# 5 0.0000 0.0000 0.0000 0.0000 42.1331 0.0000
# 6 0.0000 0.0000 0.0000 0.0000 0.0000 17.9116
#
#
#
# Elastic Compliance Matrix: (Units=1/GPa)
#
#
# Indices 1 2 3 4 5 6 
#
# 1 0.017568 0.000144 -0.005602 0.000000 0.000000 0.000000
# 2 0.000144 0.017568 -0.005602 0.000000 0.000000 0.000000
# 3 -0.005602 -0.005602 0.008339 0.000000 0.000000 0.000000
# 4 0.000000 0.000000 0.000000 0.023734 0.000000 0.000000
# 5 0.000000 0.000000 0.000000 0.000000 0.023734 0.000000
# 6 0.000000 0.000000 0.000000 0.000000 0.000000 0.055830
#
#
# Mechanical properties :
#
#
# Convention : Reuss Voigt Hill
#
# Bulk Modulus (GPa) = 46.83062 74.31211 60.57137
# Shear Modulus (GPa) = 28.40716 34.55614 31.48165
#
# Velocity S-wave (km/s) = 3.70229 4.08337 3.89749
# Velocity P-wave (km/s) = 6.39316 7.62160 7.03425
#
# Compressibility (1/GPa) = 0.02135355
#
# Stress axis : x y z
#
# Youngs Moduli (GPa) = 56.92173 56.92172 119.92027
#
# Poissons Ratio (x) = -0.00820 0.67183
# Poissons Ratio (y) = -0.00820 0.67184
# Poissons Ratio (z) = 0.31889 0.31890
#
# Static dielectric constant tensor:
#      x y z
#    x 1.760700 0.000000 0.000000 
#    y 0.000000 1.760700 0.000000 
#    z 0.000000 0.000000 1.761500 
# 
# From -- ./inp_files/9128.got.cif
#   From: 2010.05.17/outbox.cif.g08.bks.cpg/sg119_5_cif.got.tgz:9128.got - 2010.05.20 11:21:29.
