data_PCOD9559807
_publ_section_title
;
Structure prediction by ZEFSAII (Michael W. Deem and Ramdas Pophale) SiO2 
 PCOD9559807
Probable space group: I -4 C 2
;
_chemical_formula_sum "Si O2"
_cell_formula_units_Z 72
_cell_length_a 11.159480
_cell_length_b 11.159480
_cell_length_c 26.414407
_cell_angle_alpha 90.000000
_cell_angle_beta 90.000000
_cell_angle_gamma 90.000000
_cell_volume 3289.491599
_symmetry_space_group_name_H-M "I -4 C 2"
_symmetry_group_IT_number 120
_symmetry_cell_setting 'tetragonal'
loop_
_space_group_symop_operation_xyz
x,y,z
y,-x,-z
-x,-y,z
-y,x,-z
y,x,1/2-z
-y,-x,1/2-z
-x,y,1/2+z
x,-y,1/2+z
1/2+x,1/2+y,1/2+z
1/2+y,1/2-x,1/2-z
1/2-x,1/2-y,1/2+z
1/2-y,1/2+x,1/2-z
1/2+y,1/2+x,-z
1/2-y,1/2-x,-z
1/2-x,1/2+y,z
1/2+x,1/2-y,z
loop_
_atom_site_type_symbol
_atom_site_label
_atom_site_fract_x
_atom_site_fract_y
_atom_site_fract_z
Si Si1 0.000000 0.000000 0.000000
Si Si2 0.178599 0.322409 0.208889
Si Si3 0.000000 0.500000 0.750000
Si Si4 0.926612 0.796557 0.572644
Si Si5 0.961650 0.875820 0.836318
Si Si6 0.193945 0.184835 0.399177
O O1 0.907361 0.924369 0.966219
O O2 0.226854 0.226854 0.250000
O O3 0.053600 0.388240 0.219202
O O4 0.276796 0.428116 0.203954
O O5 0.180830 0.266215 0.153390
O O6 0.809520 0.712188 0.570450
O O7 0.067112 0.760424 0.570438
O O8 0.913634 0.848920 0.629355
O O9 0.058843 0.830372 0.877732
O O10 0.000000 0.000000 0.811879
#
# Coordination Sequence:
#
# PCOD9559807 Si02
#       6
#     4  16   4  16  16  16
#     4  12  20  44  68 100 126 160 232 268 356 428
#     4  11  25  38  61  91 132 177 228 282 332 398
#     4  12  28  40  56 104 128 174 236 296 320 384
#     4  10  22  39  68  95 126 173 215 283 334 420
#     4   9  19  40  63  87 125 174 219 263 342 403
#     4  10  21  42  64  93 132 179 223 272 355 398
#
# _framework density 21.887881
#
# number of rings (size 3 to 8) (size 9 to 14) (size 15 to 20)
#    0.000    1.778    3.333    1.333   12.444    1.333 
#    0.000    0.000    0.000    0.000   11.556    0.000 
#    0.000    0.000    0.000    0.000    0.000    0.000 
#
# Total GULP energy -200551.298658 kJ/mol
# GULP energy per Si atom -5570.869407 kJ/mol
# Density = 2.183806 g / cm^3
# Si number density = 21.887881 Si / 1000 Ang^3
#
#
#
# Elastic Constant Matrix: (Units=GPa)
#
#
# Indices 1 2 3 4 5 6 
#
# 1 79.3501 24.0734 12.0011 0.0000 0.0000 0.0000
# 2 24.0734 79.3501 12.0011 0.0000 0.0000 0.0000
# 3 12.0011 12.0011 57.4360 0.0000 0.0000 0.0000
# 4 0.0000 0.0000 0.0000 21.8492 0.0000 0.0000
# 5 0.0000 0.0000 0.0000 0.0000 21.8492 0.0000
# 6 0.0000 0.0000 0.0000 0.0000 0.0000 41.2526
#
#
#
# Elastic Compliance Matrix: (Units=1/GPa)
#
#
# Indices 1 2 3 4 5 6 
#
# 1 0.014126 -0.003965 -0.002123 0.000000 0.000000 0.000000
# 2 -0.003965 0.014126 -0.002123 0.000000 0.000000 0.000000
# 3 -0.002123 -0.002123 0.018298 0.000000 0.000000 0.000000
# 4 0.000000 0.000000 0.000000 0.045768 0.000000 0.000000
# 5 0.000000 0.000000 0.000000 0.000000 0.045768 0.000000
# 6 0.000000 0.000000 0.000000 0.000000 0.000000 0.024241
#
#
# Mechanical properties :
#
#
# Convention : Reuss Voigt Hill
#
# Bulk Modulus (GPa) = 33.19130 34.69862 33.94496
# Shear Modulus (GPa) = 26.48406 28.19426 27.33916
#
# Velocity S-wave (km/s) = 3.48226 3.59294 3.53803
# Velocity P-wave (km/s) = 5.60048 5.75322 5.67736
#
# Compressibility (1/GPa) = 0.03012837
#
# Stress axis : x y z
#
# Youngs Moduli (GPa) = 70.79013 70.79013 54.65084
#
# Poissons Ratio (x) = 0.28065 0.11604
# Poissons Ratio (y) = 0.28065 0.11604
# Poissons Ratio (z) = 0.15031 0.15031
#
# Static dielectric constant tensor:
#      x y z
#    x 1.928830 0.000000 0.000000 
#    y 0.000000 1.928830 0.000000 
#    z 0.000000 0.000000 1.765060 
# 
# From -- ./inp_files/6452.got.cif
#   From: 2010.05.17/outbox.cif.g08.bks.cpg/sg120_4_cif.got.tgz:6452.got - 2010.05.20 11:28:13.
