data_PCOD9559396
_publ_section_title
;
Structure prediction by ZEFSAII (Michael W. Deem and Ramdas Pophale) SiO2 
 PCOD9559396
Probable space group: I -4 M 2
;
_chemical_formula_sum "Si O2"
_cell_formula_units_Z 120
_cell_length_a 26.662804
_cell_length_b 26.662804
_cell_length_c 9.262601
_cell_angle_alpha 90.000000
_cell_angle_beta 90.000000
_cell_angle_gamma 90.000000
_cell_volume 6584.830449
_symmetry_space_group_name_H-M "I -4 M 2"
_symmetry_group_IT_number 119
_symmetry_cell_setting 'tetragonal'
loop_
_space_group_symop_operation_xyz
x,y,z
y,-x,-z
-x,-y,z
-y,x,-z
y,x,-z
-y,-x,-z
-x,y,z
x,-y,z
1/2+x,1/2+y,1/2+z
1/2+y,1/2-x,1/2-z
1/2-x,1/2-y,1/2+z
1/2-y,1/2+x,1/2-z
1/2+y,1/2+x,1/2-z
1/2-y,1/2-x,1/2-z
1/2-x,1/2+y,1/2+z
1/2+x,1/2-y,1/2+z
loop_
_atom_site_type_symbol
_atom_site_label
_atom_site_fract_x
_atom_site_fract_y
_atom_site_fract_z
Si Si1 0.557383 0.751441 0.756377
Si Si2 0.441840 0.941840 0.750000
Si Si3 0.845978 0.200234 0.381256
Si Si4 0.586850 0.151403 0.933896
Si Si5 0.711016 0.658205 0.612060
Si Si6 0.055890 0.359932 0.745827
Si Si7 0.241870 0.556864 0.588975
Si Si8 0.192661 0.305508 0.425094
O O1 0.500000 0.738231 0.793342
O O2 0.599910 0.714225 0.816760
O O3 0.569970 0.806257 0.820625
O O4 0.561627 0.754724 0.583792
O O5 0.500000 0.934848 0.708319
O O6 0.428780 0.903013 0.876953
O O7 0.843258 0.156743 0.500000
O O8 0.807327 0.187795 0.252305
O O9 0.827269 0.250445 0.463172
O O10 0.646731 0.156518 0.949783
O O11 0.561008 0.162686 0.085526
O O12 0.665456 0.665456 0.500000
O O13 0.724514 0.601485 0.650906
O O14 0.759468 0.679599 0.522025
O O15 0.097235 0.402766 0.750000
O O16 0.064076 0.314878 0.856987
O O17 0.000000 0.380202 0.767870
O O18 0.256477 0.500000 0.629357
O O19 0.198064 0.301937 0.250000
#
# Coordination Sequence:
#
# PCOD9559396 Si02
#       8
#    16   8  16  16  16  16  16  16
#     4  10  21  42  66  84 112 157 199 239 285 349
#     4  11  24  38  58  84 106 140 198 270 330 372
#     4  11  25  37  54  91 124 155 191 236 287 352
#     4  11  23  41  58  80 109 144 197 247 302 362
#     4  12  21  38  57  84 120 152 188 237 287 351
#     4  11  25  41  57  81 109 147 198 254 314 359
#     4  10  23  42  61  84 114 155 200 240 290 353
#     4  11  21  36  57  83 114 153 192 229 290 353
#
# _framework density 18.223704999999999
#
# number of rings (size 3 to 8) (size 9 to 14) (size 15 to 20)
#    0.000    1.133    3.333    3.200    5.600    0.667 
#    2.400    0.000    0.000    0.000    0.000    0.000 
#    0.000    3.200    0.000    0.000    0.000    0.000 
#
# Total GULP energy -335143.901839 kJ/mol
# GULP energy per Si atom -5585.731697 kJ/mol
# Density = 1.818223 g / cm^3
# Si number density = 18.223705 Si / 1000 Ang^3
#
#
#
# Elastic Constant Matrix: (Units=GPa)
#
#
# Indices 1 2 3 4 5 6 
#
# 1 108.4971 78.6555 31.8939 0.0000 0.0000 0.0000
# 2 78.6555 108.4970 31.8932 0.0000 0.0000 0.0000
# 3 31.8939 31.8932 65.7831 0.0000 0.0000 0.0000
# 4 0.0000 0.0000 0.0000 13.7434 0.0000 0.0000
# 5 0.0000 0.0000 0.0000 0.0000 13.7431 0.0000
# 6 0.0000 0.0000 0.0000 0.0000 0.0000 32.0369
#
#
#
# Elastic Compliance Matrix: (Units=1/GPa)
#
#
# Indices 1 2 3 4 5 6 
#
# 1 0.019956 -0.013555 -0.003104 0.000000 0.000000 0.000000
# 2 -0.013555 0.019956 -0.003103 0.000000 0.000000 0.000000
# 3 -0.003104 -0.003103 0.018211 0.000000 0.000000 0.000000
# 4 0.000000 0.000000 0.000000 0.072762 0.000000 0.000000
# 5 0.000000 0.000000 0.000000 0.000000 0.072764 0.000000
# 6 0.000000 0.000000 0.000000 0.000000 0.000000 0.031214
#
#
# Mechanical properties :
#
#
# Convention : Reuss Voigt Hill
#
# Bulk Modulus (GPa) = 53.76599 63.07359 58.41979
# Shear Modulus (GPa) = 17.81997 21.26033 19.54015
#
# Velocity S-wave (km/s) = 3.13044 3.41930 3.27806
# Velocity P-wave (km/s) = 6.52944 7.09047 6.81573
#
# Compressibility (1/GPa) = 0.01859912
#
# Stress axis : x y z
#
# Youngs Moduli (GPa) = 50.11100 50.11136 54.91282
#
# Poissons Ratio (x) = 0.67924 0.17043
# Poissons Ratio (y) = 0.67924 0.17040
# Poissons Ratio (z) = 0.15552 0.15550
#
# Static dielectric constant tensor:
#      x y z
#    x 1.641280 0.000000 0.000000 
#    y 0.000000 1.641280 0.000000 
#    z 0.000000 0.000000 1.680120 
# 
# From -- ./inp_files/2897.got.cif
#   From: 2010.05.17/outbox.cif.g08.bks.cpg/sg119_2_cif.got.tgz:2897.got - 2010.05.20 11:21:29.
