data_PCOD9559960
_publ_section_title
;
Structure prediction by ZEFSAII (Michael W. Deem and Ramdas Pophale) SiO2 
 PCOD9559960
Probable space group: I -4 C 2
;
_chemical_formula_sum "Si O2"
_cell_formula_units_Z 96
_cell_length_a 16.171070
_cell_length_b 16.171070
_cell_length_c 18.762615
_cell_angle_alpha 90.000000
_cell_angle_beta 90.000000
_cell_angle_gamma 90.000000
_cell_volume 4906.489584
_symmetry_space_group_name_H-M "I -4 C 2"
_symmetry_group_IT_number 120
_symmetry_cell_setting 'tetragonal'
loop_
_space_group_symop_operation_xyz
x,y,z
y,-x,-z
-x,-y,z
-y,x,-z
y,x,1/2-z
-y,-x,1/2-z
-x,y,1/2+z
x,-y,1/2+z
1/2+x,1/2+y,1/2+z
1/2+y,1/2-x,1/2-z
1/2-x,1/2-y,1/2+z
1/2-y,1/2+x,1/2-z
1/2+y,1/2+x,-z
1/2-y,1/2-x,-z
1/2-x,1/2+y,z
1/2+x,1/2-y,z
loop_
_atom_site_type_symbol
_atom_site_label
_atom_site_fract_x
_atom_site_fract_y
_atom_site_fract_z
Si Si1 0.433633 0.608823 0.405979
Si Si2 0.048412 0.377287 0.225895
Si Si3 0.595178 0.029789 0.931627
Si Si4 0.136362 0.702303 0.072347
Si Si5 0.244021 0.141910 0.195942
Si Si6 0.077783 0.882783 0.076759
O O1 0.389005 0.666927 0.350250
O O2 0.399815 0.515681 0.397348
O O3 0.420144 0.622607 0.490391
O O4 0.532592 0.620686 0.398322
O O5 0.098589 0.452385 0.263160
O O6 0.069851 0.378412 0.142409
O O7 0.071118 0.289675 0.258736
O O8 0.500000 0.000000 0.921674
O O9 0.653145 0.949710 0.942213
O O10 0.589637 0.089637 0.000000
O O11 0.188446 0.666043 0.137078
O O12 0.114801 0.795096 0.096366
O O13 0.189870 0.689870 0.000000
O O14 0.212811 0.212811 0.250000
#
# Coordination Sequence:
#
# PCOD9559960 Si02
#       6
#    16  16  16  16  16  16
#     4   9  20  43  66  95 120 174 223 270 338 405
#     4  11  22  41  64  91 131 178 216 271 348 425
#     4  11  21  38  65  99 129 178 228 263 342 435
#     4  12  22  40  67 103 138 165 219 295 343 403
#     4  12  27  41  61  94 141 176 217 286 354 407
#     4   9  20  40  73  91 123 169 226 278 329 398
#
# _framework density 19.565923999999999
#
# number of rings (size 3 to 8) (size 9 to 14) (size 15 to 20)
#    0.000    1.333    6.667    1.000    2.333    1.333 
#    0.000    4.167    0.000    1.000    0.000    0.000 
#    0.000    0.000    0.000    0.000    0.000    0.000 
#
# Total GULP energy -267682.116964 kJ/mol
# GULP energy per Si atom -5576.710770 kJ/mol
# Density = 1.952139 g / cm^3
# Si number density = 19.565924 Si / 1000 Ang^3
#
#
#
# Elastic Constant Matrix: (Units=GPa)
#
#
# Indices 1 2 3 4 5 6 
#
# 1 24.1864 11.4744 25.2887 0.0000 0.0000 0.0000
# 2 11.4744 24.1864 25.2887 0.0000 0.0000 0.0000
# 3 25.2887 25.2887 121.5438 0.0000 0.0000 0.0000
# 4 0.0000 0.0000 0.0000 22.9678 0.0000 0.0000
# 5 0.0000 0.0000 0.0000 0.0000 22.9678 0.0000
# 6 0.0000 0.0000 0.0000 0.0000 0.0000 19.2966
#
#
#
# Elastic Compliance Matrix: (Units=1/GPa)
#
#
# Indices 1 2 3 4 5 6 
#
# 1 0.059224 -0.019442 -0.008277 0.000000 0.000000 0.000000
# 2 -0.019442 0.059224 -0.008277 0.000000 0.000000 0.000000
# 3 -0.008277 -0.008277 0.011672 0.000000 0.000000 0.000000
# 4 0.000000 0.000000 0.000000 0.043539 0.000000 0.000000
# 5 0.000000 0.000000 0.000000 0.000000 0.043539 0.000000
# 6 0.000000 0.000000 0.000000 0.000000 0.000000 0.051823
#
#
# Mechanical properties :
#
#
# Convention : Reuss Voigt Hill
#
# Bulk Modulus (GPa) = 17.20396 32.66890 24.93643
# Shear Modulus (GPa) = 13.87395 20.23743 17.05569
#
# Velocity S-wave (km/s) = 2.66576 3.21957 2.95567
# Velocity P-wave (km/s) = 4.27632 5.52756 4.94170
#
# Compressibility (1/GPa) = 0.05812617
#
# Stress axis : x y z
#
# Youngs Moduli (GPa) = 16.88519 16.88519 85.67703
#
# Poissons Ratio (x) = 0.32829 0.70915
# Poissons Ratio (y) = 0.32829 0.70915
# Poissons Ratio (z) = 0.13976 0.13976
#
# Static dielectric constant tensor:
#      x y z
#    x 1.694620 0.000000 0.000000 
#    y 0.000000 1.694620 0.000000 
#    z 0.000000 0.000000 1.696340 
# 
# From -- ./inp_files/5337.got.cif
#   From: 2010.05.17/outbox.cif.g08.bks.cpg/sg120_3_cif.got.tgz:5337.got - 2010.05.20 11:28:13.
