data_PCOD9559336
_publ_section_title
;
Structure prediction by ZEFSAII (Michael W. Deem and Ramdas Pophale) SiO2 
 PCOD9559336
Probable space group: I -4 M 2
;
_chemical_formula_sum "Si O2"
_cell_formula_units_Z 96
_cell_length_a 14.068360
_cell_length_b 14.068360
_cell_length_c 22.886841
_cell_angle_alpha 90.000000
_cell_angle_beta 90.000000
_cell_angle_gamma 90.000000
_cell_volume 4529.735033
_symmetry_space_group_name_H-M "I -4 M 2"
_symmetry_group_IT_number 119
_symmetry_cell_setting 'tetragonal'
loop_
_space_group_symop_operation_xyz
x,y,z
y,-x,-z
-x,-y,z
-y,x,-z
y,x,-z
-y,-x,-z
-x,y,z
x,-y,z
1/2+x,1/2+y,1/2+z
1/2+y,1/2-x,1/2-z
1/2-x,1/2-y,1/2+z
1/2-y,1/2+x,1/2-z
1/2+y,1/2+x,1/2-z
1/2-y,1/2-x,1/2-z
1/2-x,1/2+y,1/2+z
1/2+x,1/2-y,1/2+z
loop_
_atom_site_type_symbol
_atom_site_label
_atom_site_fract_x
_atom_site_fract_y
_atom_site_fract_z
Si Si1 0.886882 0.887070 0.334958
Si Si2 0.607141 0.113078 0.858457
Si Si3 0.604977 0.887035 0.188721
Si Si4 0.392707 0.277839 0.392848
Si Si5 0.200951 0.113327 0.789767
Si Si6 0.804717 0.238329 0.436874
O O1 0.860184 0.834407 0.274707
O O2 0.828160 0.839976 0.387367
O O3 0.000000 0.871741 0.345382
O O4 0.872700 0.000000 0.329536
O O5 0.500000 0.133554 0.835827
O O6 0.692660 0.137327 0.813441
O O7 0.626817 0.175090 0.916523
O O8 0.612321 0.000000 0.869764
O O9 0.500000 0.848051 0.177829
O O10 0.648602 0.851399 0.250000
O O11 0.672714 0.881684 0.134104
O O12 0.597775 0.000000 0.200046
O O13 0.500000 0.291519 0.415220
O O14 0.371625 0.345013 0.337562
O O15 0.301283 0.283251 0.433631
O O16 0.195829 0.000000 0.791594
O O17 0.809948 0.190053 0.500000
#
# Coordination Sequence:
#
# PCOD9559336 Si02
#       6
#    16  16  16  16  16  16
#     4  10  22  40  62  88 120 157 198 249 309 376
#     4   9  19  39  68  97 124 157 199 256 324 385
#     4   8  15  28  46  73 109 141 171 215 272 340
#     4  10  21  35  57  85 113 151 194 239 299 364
#     4   9  19  37  61  92 125 151 184 239 307 378
#     4  11  25  41  58  82 118 164 214 263 303 357
#
# _framework density 21.193293000000001
#
# number of rings (size 3 to 8) (size 9 to 14) (size 15 to 20)
#    0.000    2.500    0.000    1.500    2.333    5.667 
#    0.000    3.333    0.000    7.000    0.000    2.333 
#    0.000    0.000    0.000    0.000    0.000    0.000 
#
# Total GULP energy -267738.839243 kJ/mol
# GULP energy per Si atom -5577.892484 kJ/mol
# Density = 2.114506 g / cm^3
# Si number density = 21.193293 Si / 1000 Ang^3
#
#
#
# Elastic Constant Matrix: (Units=GPa)
#
#
# Indices 1 2 3 4 5 6 
#
# 1 138.9673 15.0440 31.9309 0.0000 0.0000 0.0000
# 2 15.0440 138.9665 31.9307 0.0000 0.0000 0.0000
# 3 31.9309 31.9307 108.4398 0.0000 0.0000 0.0000
# 4 0.0000 0.0000 0.0000 10.4355 0.0000 0.0000
# 5 0.0000 0.0000 0.0000 0.0000 10.4352 0.0000
# 6 0.0000 0.0000 0.0000 0.0000 0.0000 25.8598
#
#
#
# Elastic Compliance Matrix: (Units=1/GPa)
#
#
# Indices 1 2 3 4 5 6 
#
# 1 0.007733 -0.000337 -0.002178 0.000000 0.000000 0.000000
# 2 -0.000337 0.007733 -0.002178 0.000000 0.000000 0.000000
# 3 -0.002178 -0.002178 0.010504 0.000000 0.000000 0.000000
# 4 0.000000 0.000000 0.000000 0.095826 0.000000 0.000000
# 5 0.000000 0.000000 0.000000 0.000000 0.095829 0.000000
# 6 0.000000 0.000000 0.000000 0.000000 0.000000 0.038670
#
#
# Mechanical properties :
#
#
# Convention : Reuss Voigt Hill
#
# Bulk Modulus (GPa) = 60.29496 60.46499 60.37997
# Shear Modulus (GPa) = 18.43596 29.84397 24.13997
#
# Velocity S-wave (km/s) = 2.95260 3.75664 3.37863
# Velocity P-wave (km/s) = 6.33526 6.88540 6.61605
#
# Compressibility (1/GPa) = 0.01658513
#
# Stress axis : x y z
#
# Youngs Moduli (GPa) = 129.31936 129.31869 95.19953
#
# Poissons Ratio (x) = 0.04354 0.20733
# Poissons Ratio (y) = 0.04354 0.20733
# Poissons Ratio (z) = 0.28163 0.28163
#
# Static dielectric constant tensor:
#      x y z
#    x 1.801080 0.000000 0.000000 
#    y 0.000000 1.801080 0.000000 
#    z 0.000000 0.000000 1.746750 
# 
# From -- ./inp_files/7792.got.cif
#   From: 2010.05.17/outbox.cif.g08.bks.cpg/sg119_4_cif.got.tgz:7792.got - 2010.05.20 11:21:29.
