data_PCOD9559475
_publ_section_title
;
Structure prediction by ZEFSAII (Michael W. Deem and Ramdas Pophale) SiO2 
 PCOD9559475
Probable space group: I -4 M 2
;
_chemical_formula_sum "Si O2"
_cell_formula_units_Z 60
_cell_length_a 14.011455
_cell_length_b 14.011455
_cell_length_c 14.757240
_cell_angle_alpha 90.000000
_cell_angle_beta 90.000000
_cell_angle_gamma 90.000000
_cell_volume 2897.154214
_symmetry_space_group_name_H-M "I -4 M 2"
_symmetry_group_IT_number 119
_symmetry_cell_setting 'tetragonal'
loop_
_space_group_symop_operation_xyz
x,y,z
y,-x,-z
-x,-y,z
-y,x,-z
y,x,-z
-y,-x,-z
-x,y,z
x,-y,z
1/2+x,1/2+y,1/2+z
1/2+y,1/2-x,1/2-z
1/2-x,1/2-y,1/2+z
1/2-y,1/2+x,1/2-z
1/2+y,1/2+x,1/2-z
1/2-y,1/2-x,1/2-z
1/2-x,1/2+y,1/2+z
1/2+x,1/2-y,1/2+z
loop_
_atom_site_type_symbol
_atom_site_label
_atom_site_fract_x
_atom_site_fract_y
_atom_site_fract_z
Si Si1 0.291661 0.500000 0.905391
Si Si2 0.690787 0.710596 0.833359
Si Si3 0.500000 0.000000 0.985432
Si Si4 0.500000 0.155950 0.243425
Si Si5 0.000000 0.291589 0.393374
Si Si6 0.717881 0.000000 0.060013
Si Si7 0.199457 0.199457 0.000000
O O1 0.329790 0.400841 0.860643
O O2 0.188638 0.500000 0.859918
O O3 0.275469 0.500000 0.013777
O O4 0.758671 0.741330 0.750000
O O5 0.590697 0.764713 0.833013
O O6 0.745768 0.756170 0.916364
O O7 0.500000 0.098849 0.927431
O O8 0.603073 0.000000 0.038350
O O9 0.592031 0.092031 0.250000
O O10 0.500000 0.226355 0.329760
O O11 0.770550 0.090897 0.016983
#
# Coordination Sequence:
#
# PCOD9559475 Si02
#       7
#     8  16   4   8   8   8   8
#     4  12  21  43  68  99 145 195 240 310 378 437
#     4  12  26  44  71 105 145 189 254 314 375 451
#     4  12  20  42  74  94 138 206 248 302 376 446
#     4  11  21  35  65 108 132 172 246 314 367 434
#     4  12  24  43  71 103 143 196 250 308 376 447
#     4  12  24  40  72 104 149 197 250 312 388 462
#     4  12  24  45  66 105 148 198 246 312 370 457
#
# _framework density 20.709976999999999
#
# number of rings (size 3 to 8) (size 9 to 14) (size 15 to 20)
#    0.000    0.133    5.333    6.400    0.000    2.933 
#    0.000    1.333    0.000    4.800    0.000    0.000 
#    0.000    0.000    0.000    0.000    0.000    0.000 
#
# Total GULP energy -167278.599272 kJ/mol
# GULP energy per Si atom -5575.953309 kJ/mol
# Density = 2.066284 g / cm^3
# Si number density = 20.709977 Si / 1000 Ang^3
#
#
#
# Elastic Constant Matrix: (Units=GPa)
#
#
# Indices 1 2 3 4 5 6 
#
# 1 159.9134 27.2374 18.0636 0.0000 0.0000 0.0000
# 2 27.2374 159.9146 18.0658 0.0000 0.0000 0.0000
# 3 18.0636 18.0658 71.4746 0.0000 0.0000 0.0000
# 4 0.0000 0.0000 0.0000 27.8599 0.0000 0.0000
# 5 0.0000 0.0000 0.0000 0.0000 27.8593 0.0000
# 6 0.0000 0.0000 0.0000 0.0000 0.0000 42.8062
#
#
#
# Elastic Compliance Matrix: (Units=1/GPa)
#
#
# Indices 1 2 3 4 5 6 
#
# 1 0.006577 -0.000960 -0.001420 0.000000 0.000000 0.000000
# 2 -0.000960 0.006577 -0.001420 0.000000 0.000000 0.000000
# 3 -0.001420 -0.001420 0.014709 0.000000 0.000000 0.000000
# 4 0.000000 0.000000 0.000000 0.035894 0.000000 0.000000
# 5 0.000000 0.000000 0.000000 0.000000 0.035895 0.000000
# 6 0.000000 0.000000 0.000000 0.000000 0.000000 0.023361
#
#
# Mechanical properties :
#
#
# Convention : Reuss Voigt Hill
#
# Bulk Modulus (GPa) = 49.34771 57.55957 53.45364
# Shear Modulus (GPa) = 36.39903 41.56747 38.98325
#
# Velocity S-wave (km/s) = 4.19687 4.48495 4.34330
# Velocity P-wave (km/s) = 6.88220 7.39414 7.14276
#
# Compressibility (1/GPa) = 0.02026436
#
# Stress axis : x y z
#
# Youngs Moduli (GPa) = 152.03950 152.03957 67.98723
#
# Poissons Ratio (x) = 0.14594 0.09652
# Poissons Ratio (y) = 0.14594 0.09653
# Poissons Ratio (z) = 0.21584 0.21588
#
# Static dielectric constant tensor:
#      x y z
#    x 1.402470 0.000000 0.000000 
#    y 0.000000 1.402630 0.000000 
#    z 0.000000 0.000000 1.720090 
# 
# From -- ./inp_files/5155.got.cif
#   From: 2010.05.17/outbox.cif.g08.bks.cpg/sg119_3_cif.got.tgz:5155.got - 2010.05.20 11:21:29.
