data_PCOD9559337
_publ_section_title
;
Structure prediction by ZEFSAII (Michael W. Deem and Ramdas Pophale) SiO2 
 PCOD9559337
Probable space group: I -4 M 2
;
_chemical_formula_sum "Si O2"
_cell_formula_units_Z 116
_cell_length_a 16.995833
_cell_length_b 16.995833
_cell_length_c 19.301155
_cell_angle_alpha 90.000000
_cell_angle_beta 90.000000
_cell_angle_gamma 90.000000
_cell_volume 5575.299581
_symmetry_space_group_name_H-M "I -4 M 2"
_symmetry_group_IT_number 119
_symmetry_cell_setting 'tetragonal'
loop_
_space_group_symop_operation_xyz
x,y,z
y,-x,-z
-x,-y,z
-y,x,-z
y,x,-z
-y,-x,-z
-x,y,z
x,-y,z
1/2+x,1/2+y,1/2+z
1/2+y,1/2-x,1/2-z
1/2-x,1/2-y,1/2+z
1/2-y,1/2+x,1/2-z
1/2+y,1/2+x,1/2-z
1/2-y,1/2-x,1/2-z
1/2-x,1/2+y,1/2+z
1/2+x,1/2-y,1/2+z
loop_
_atom_site_type_symbol
_atom_site_label
_atom_site_fract_x
_atom_site_fract_y
_atom_site_fract_z
Si Si1 0.858065 0.622672 0.545148
Si Si2 0.590775 0.807397 0.298455
Si Si3 0.500000 0.000000 0.480869
Si Si4 0.710769 0.906893 0.906647
Si Si5 0.905566 0.804572 0.553758
Si Si6 0.182904 0.853709 0.786750
Si Si7 0.671071 0.909102 0.692990
Si Si8 0.083747 0.907047 0.326616
O O1 0.833220 0.596484 0.621777
O O2 0.930892 0.568615 0.521762
O O3 0.790144 0.609699 0.487991
O O4 0.880943 0.714276 0.547810
O O5 0.500000 0.788074 0.280988
O O6 0.622599 0.877402 0.250000
O O7 0.648470 0.733464 0.288197
O O8 0.785005 0.879579 0.861219
O O9 0.638993 0.856507 0.873696
O O10 0.698586 0.000000 0.894246
O O11 0.859136 0.859136 0.500000
O O12 0.882058 0.841262 0.628382
O O13 0.000000 0.810900 0.544747
O O14 0.254025 0.870831 0.732202
O O15 0.115318 0.906292 0.752969
O O16 0.602355 0.897646 0.750000
O O17 0.685399 0.000000 0.678672
O O18 0.000000 0.874685 0.353257
O O19 0.081203 0.000000 0.333881
#
# Coordination Sequence:
#
# PCOD9559337 Si02
#       8
#    16  16   4  16  16  16  16  16
#     4  12  27  45  69 101 135 184 231 289 355 424
#     4  12  27  45  71  99 131 173 228 290 358 427
#     4  12  24  52  69  96 151 176 238 294 352 432
#     4  11  24  41  64  95 134 182 228 279 341 408
#     4  11  25  41  67 102 142 186 233 287 356 432
#     4  11  23  42  64  95 134 172 224 287 342 414
#     4  10  21  35  58  90 126 169 217 269 328 395
#     4  10  21  40  66  96 136 182 228 280 342 419
#
# _framework density 20.806056999999999
#
# number of rings (size 3 to 8) (size 9 to 14) (size 15 to 20)
#    0.000    0.966    2.069    5.379    5.793    2.897 
#    0.000    0.000    0.000    0.000    0.000    0.000 
#    0.000   11.034    0.000    0.000    0.000    0.000 
#
# Total GULP energy -323523.751525 kJ/mol
# GULP energy per Si atom -5577.995716 kJ/mol
# Density = 2.075870 g / cm^3
# Si number density = 20.806057 Si / 1000 Ang^3
#
#
#
# Elastic Constant Matrix: (Units=GPa)
#
#
# Indices 1 2 3 4 5 6 
#
# 1 91.7601 45.0315 29.3114 0.0000 0.0000 0.0000
# 2 45.0315 91.7586 29.3113 0.0000 0.0000 0.0000
# 3 29.3114 29.3113 112.7290 0.0000 0.0000 0.0000
# 4 0.0000 0.0000 0.0000 16.0154 0.0000 0.0000
# 5 0.0000 0.0000 0.0000 0.0000 16.0157 0.0000
# 6 0.0000 0.0000 0.0000 0.0000 0.0000 27.5379
#
#
#
# Elastic Compliance Matrix: (Units=1/GPa)
#
#
# Indices 1 2 3 4 5 6 
#
# 1 0.014814 -0.006587 -0.002139 0.000000 0.000000 0.000000
# 2 -0.006587 0.014814 -0.002139 0.000000 0.000000 0.000000
# 3 -0.002139 -0.002139 0.009983 0.000000 0.000000 0.000000
# 4 0.000000 0.000000 0.000000 0.062440 0.000000 0.000000
# 5 0.000000 0.000000 0.000000 0.000000 0.062439 0.000000
# 6 0.000000 0.000000 0.000000 0.000000 0.000000 0.036314
#
#
# Mechanical properties :
#
#
# Convention : Reuss Voigt Hill
#
# Bulk Modulus (GPa) = 55.92567 55.95067 55.93817
# Shear Modulus (GPa) = 21.88245 24.75337 23.31791
#
# Velocity S-wave (km/s) = 3.24656 3.45297 3.35136
# Velocity P-wave (km/s) = 6.40246 6.54578 6.47452
#
# Compressibility (1/GPa) = 0.01788088
#
# Stress axis : x y z
#
# Youngs Moduli (GPa) = 67.50496 67.50378 100.16735
#
# Poissons Ratio (x) = 0.44462 0.21428
# Poissons Ratio (y) = 0.44463 0.21428
# Poissons Ratio (z) = 0.14441 0.14441
#
# Static dielectric constant tensor:
#      x y z
#    x 1.770610 0.000000 0.000000 
#    y 0.000000 1.770610 0.000000 
#    z 0.000000 0.000000 1.765410 
# 
# From -- ./inp_files/6793.got.cif
#   From: 2010.05.17/outbox.cif.g08.bks.cpg/sg119_4_cif.got.tgz:6793.got - 2010.05.20 11:21:29.
