data_PCOD9559773
_publ_section_title
;
Structure prediction by ZEFSAII (Michael W. Deem and Ramdas Pophale) SiO2 
 PCOD9559773
Probable space group: I -4 C 2
;
_chemical_formula_sum "Si O2"
_cell_formula_units_Z 68
_cell_length_a 13.937255
_cell_length_b 13.937255
_cell_length_c 19.807285
_cell_angle_alpha 90.000000
_cell_angle_beta 90.000000
_cell_angle_gamma 90.000000
_cell_volume 3847.507213
_symmetry_space_group_name_H-M "I -4 C 2"
_symmetry_group_IT_number 120
_symmetry_cell_setting 'tetragonal'
loop_
_space_group_symop_operation_xyz
x,y,z
y,-x,-z
-x,-y,z
-y,x,-z
y,x,1/2-z
-y,-x,1/2-z
-x,y,1/2+z
x,-y,1/2+z
1/2+x,1/2+y,1/2+z
1/2+y,1/2-x,1/2-z
1/2-x,1/2-y,1/2+z
1/2-y,1/2+x,1/2-z
1/2+y,1/2+x,-z
1/2-y,1/2-x,-z
1/2-x,1/2+y,z
1/2+x,1/2-y,z
loop_
_atom_site_type_symbol
_atom_site_label
_atom_site_fract_x
_atom_site_fract_y
_atom_site_fract_z
Si Si1 0.071118 0.304366 0.799609
Si Si2 0.650626 0.452142 0.424325
Si Si3 0.500000 0.000000 0.750000
Si Si4 0.554228 0.655630 0.421241
Si Si5 0.403129 0.267023 0.712792
O O1 0.068513 0.240226 0.867245
O O2 0.177651 0.331855 0.776628
O O3 0.020020 0.409130 0.798374
O O4 0.007532 0.249487 0.744451
O O5 0.625153 0.564360 0.412453
O O6 0.686842 0.437656 0.500538
O O7 0.551538 0.392309 0.416315
O O8 0.719728 0.414634 0.366702
O O9 0.357764 0.357764 0.750000
#
# Coordination Sequence:
#
# PCOD9559773 Si02
#       5
#    16  16   4  16  16
#     4  10  21  37  59  81 116 152 187 233 282 335
#     4   9  19  35  56  88 117 142 178 241 290 336
#     4   8  20  40  56  78 120 156 188 234 276 328
#     4   9  18  36  59  83 117 145 182 234 292 331
#     4  11  22  36  57  86 112 146 192 232 281 338
#
# _framework density 17.673781999999999
#
# number of rings (size 3 to 8) (size 9 to 14) (size 15 to 20)
#    0.000    2.353    2.353    1.412    3.294    0.941 
#    0.000    0.000    0.000   21.176    0.000    0.000 
#    0.000    0.000    0.000    0.000    0.000    0.000 
#
# Total GULP energy -189335.123563 kJ/mol
# GULP energy per Si atom -5568.680105 kJ/mol
# Density = 1.763356 g / cm^3
# Si number density = 17.673782 Si / 1000 Ang^3
#
#
#
# Elastic Constant Matrix: (Units=GPa)
#
#
# Indices 1 2 3 4 5 6 
#
# 1 51.6087 12.9846 28.5291 0.0000 0.0000 0.0000
# 2 12.9846 51.6087 28.5291 0.0000 0.0000 0.0000
# 3 28.5291 28.5291 83.4151 0.0000 0.0000 0.0000
# 4 0.0000 0.0000 0.0000 25.0772 0.0000 0.0000
# 5 0.0000 0.0000 0.0000 0.0000 25.0772 0.0000
# 6 0.0000 0.0000 0.0000 0.0000 0.0000 16.0496
#
#
#
# Elastic Compliance Matrix: (Units=1/GPa)
#
#
# Indices 1 2 3 4 5 6 
#
# 1 0.024037 -0.001854 -0.007587 0.000000 0.000000 0.000000
# 2 -0.001854 0.024037 -0.007587 0.000000 0.000000 0.000000
# 3 -0.007587 -0.007587 0.017178 0.000000 0.000000 0.000000
# 4 0.000000 0.000000 0.000000 0.039877 0.000000 0.000000
# 5 0.000000 0.000000 0.000000 0.000000 0.039877 0.000000
# 6 0.000000 0.000000 0.000000 0.000000 0.000000 0.062307
#
#
# Mechanical properties :
#
#
# Convention : Reuss Voigt Hill
#
# Bulk Modulus (GPa) = 32.05462 36.30200 34.17831
# Shear Modulus (GPa) = 19.85964 21.01344 20.43654
#
# Velocity S-wave (km/s) = 3.35577 3.45187 3.40416
# Velocity P-wave (km/s) = 5.76117 6.03919 5.90182
#
# Compressibility (1/GPa) = 0.03119675
#
# Stress axis : x y z
#
# Youngs Moduli (GPa) = 41.60247 41.60247 58.21405
#
# Poissons Ratio (x) = 0.07711 0.44167
# Poissons Ratio (y) = 0.07711 0.44167
# Poissons Ratio (z) = 0.31564 0.31564
#
# Static dielectric constant tensor:
#      x y z
#    x 1.612410 0.000000 0.000000 
#    y 0.000000 1.612410 0.000000 
#    z 0.000000 0.000000 1.577660 
# 
# From -- ./inp_files/5113.got.cif
#   From: 2010.05.17/outbox.cif.g08.bks.cpg/sg120_3_cif.got.tgz:5113.got - 2010.05.20 11:28:13.
