data_PCOD9559755
_publ_section_title
;
Structure prediction by ZEFSAII (Michael W. Deem and Ramdas Pophale) SiO2 
 PCOD9559755
Probable space group: I -4 C 2
;
_chemical_formula_sum "Si O2"
_cell_formula_units_Z 108
_cell_length_a 14.655350
_cell_length_b 14.655350
_cell_length_c 26.539420
_cell_angle_alpha 90.000000
_cell_angle_beta 90.000000
_cell_angle_gamma 90.000000
_cell_volume 5700.117615
_symmetry_space_group_name_H-M "I -4 C 2"
_symmetry_group_IT_number 120
_symmetry_cell_setting 'tetragonal'
loop_
_space_group_symop_operation_xyz
x,y,z
y,-x,-z
-x,-y,z
-y,x,-z
y,x,1/2-z
-y,-x,1/2-z
-x,y,1/2+z
x,-y,1/2+z
1/2+x,1/2+y,1/2+z
1/2+y,1/2-x,1/2-z
1/2-x,1/2-y,1/2+z
1/2-y,1/2+x,1/2-z
1/2+y,1/2+x,-z
1/2-y,1/2-x,-z
1/2-x,1/2+y,z
1/2+x,1/2-y,z
loop_
_atom_site_type_symbol
_atom_site_label
_atom_site_fract_x
_atom_site_fract_y
_atom_site_fract_z
Si Si1 0.897921 0.118905 0.452999
Si Si2 0.000000 0.500000 0.250000
Si Si3 0.329274 0.546865 0.720426
Si Si4 0.572417 0.176516 0.695207
Si Si5 0.699976 0.303983 0.637258
Si Si6 0.248394 0.110320 0.349099
Si Si7 0.847533 0.152468 0.750000
Si Si8 0.598513 0.602443 0.563038
O O1 0.821232 0.151801 0.415152
O O2 0.871474 0.146565 0.509827
O O3 0.001789 0.144475 0.436084
O O4 0.903799 0.009572 0.448202
O O5 0.073935 0.444421 0.284350
O O6 0.417306 0.582695 0.750000
O O7 0.241983 0.567556 0.755678
O O8 0.324951 0.609318 0.671764
O O9 0.340003 0.439410 0.717119
O O10 0.662262 0.212281 0.665238
O O11 0.487530 0.205693 0.659401
O O12 0.807780 0.306870 0.628953
O O13 0.229533 0.145136 0.291842
O O14 0.160777 0.106553 0.385981
#
# Coordination Sequence:
#
# PCOD9559755 Si02
#       8
#    16   4  16  16  16  16   8  16
#     4   9  18  35  61  84 115 144 174 234 302 353
#     4  12  24  40  56  68 112 178 208 216 284 304
#     4   9  19  33  52  78 110 140 176 221 288 328
#     4  10  23  38  54  78 113 157 195 241 263 348
#     4  11  21  35  57  83 116 147 189 240 284 336
#     4  11  22  35  55  83 115 145 192 235 280 337
#     4  10  21  32  52  80 114 145 174 224 282 352
#     4   9  18  36  59  87 113 143 180 229 298 361
#
# _framework density 18.946978000000001
#
# number of rings (size 3 to 8) (size 9 to 14) (size 15 to 20)
#    0.000    2.074    1.481    2.889    7.259    0.593 
#    2.667    0.000    0.000    0.000    0.000    0.000 
#    0.000    0.000    0.000    0.000    0.000    0.000 
#
# Total GULP energy -300655.345385 kJ/mol
# GULP energy per Si atom -5567.691581 kJ/mol
# Density = 1.890385 g / cm^3
# Si number density = 18.946978 Si / 1000 Ang^3
#
#
#
# Elastic Constant Matrix: (Units=GPa)
#
#
# Indices 1 2 3 4 5 6 
#
# 1 46.9857 -3.1385 13.5383 0.0000 0.0000 0.0000
# 2 -3.1385 46.9873 13.5376 0.0000 0.0000 0.0000
# 3 13.5383 13.5376 89.1402 0.0000 0.0000 0.0000
# 4 0.0000 0.0000 0.0000 -9.4198 0.0000 0.0000
# 5 0.0000 0.0000 0.0000 0.0000 -9.4124 0.0000
# 6 0.0000 0.0000 0.0000 0.0000 0.0000 21.8038
#
#
#
# Elastic Compliance Matrix: (Units=1/GPa)
#
#
# Indices 1 2 3 4 5 6 
#
# 1 0.022559 0.002608 -0.003822 0.000000 0.000000 0.000000
# 2 0.002608 0.022558 -0.003822 0.000000 0.000000 0.000000
# 3 -0.003822 -0.003822 0.012379 0.000000 0.000000 0.000000
# 4 0.000000 0.000000 0.000000 -0.106160 0.000000 0.000000
# 5 0.000000 0.000000 0.000000 0.000000 -0.106243 0.000000
# 6 0.000000 0.000000 0.000000 0.000000 0.000000 0.045864
#
#
# Mechanical properties :
#
#
# Convention : Reuss Voigt Hill
#
# Bulk Modulus (GPa) = 21.08667 25.66533 23.37600
# Shear Modulus (GPa) = -60.12272 11.20604 -24.45834
#
# Velocity S-wave (km/s) = -5.63924 2.43460 -3.59678
# Velocity P-wave (km/s) = 5.58998 4.63447 2.21015
#
# Compressibility (1/GPa) = 0.04742334
#
# Stress axis : x y z
#
# Youngs Moduli (GPa) = 44.32896 44.33080 80.78059
#
# Poissons Ratio (x) = -0.11562 0.30876
# Poissons Ratio (y) = -0.11561 0.30874
# Poissons Ratio (z) = 0.16943 0.16943
#
# Static dielectric constant tensor:
#      x y z
#    x 1.703410 0.000000 0.000000 
#    y 0.000000 1.703420 0.000000 
#    z 0.000000 0.000000 1.691770 
# 
# From -- ./inp_files/5952.got.cif
#   From: 2010.05.17/outbox.cif.g08.bks.cpg/sg120_3_cif.got.tgz:5952.got - 2010.05.20 11:28:13.
