data_PCOD9559858
_publ_section_title
;
Structure prediction by ZEFSAII (Michael W. Deem and Ramdas Pophale) SiO2 
 PCOD9559858
Probable space group: I -4 C 2
;
_chemical_formula_sum "Si O2"
_cell_formula_units_Z 56
_cell_length_a 14.597100
_cell_length_b 14.597100
_cell_length_c 9.846168
_cell_angle_alpha 90.000000
_cell_angle_beta 90.000000
_cell_angle_gamma 90.000000
_cell_volume 2097.975480
_symmetry_space_group_name_H-M "I -4 C 2"
_symmetry_group_IT_number 120
_symmetry_cell_setting 'tetragonal'
loop_
_space_group_symop_operation_xyz
x,y,z
y,-x,-z
-x,-y,z
-y,x,-z
y,x,1/2-z
-y,-x,1/2-z
-x,y,1/2+z
x,-y,1/2+z
1/2+x,1/2+y,1/2+z
1/2+y,1/2-x,1/2-z
1/2-x,1/2-y,1/2+z
1/2-y,1/2+x,1/2-z
1/2+y,1/2+x,-z
1/2-y,1/2-x,-z
1/2-x,1/2+y,z
1/2+x,1/2-y,z
loop_
_atom_site_type_symbol
_atom_site_label
_atom_site_fract_x
_atom_site_fract_y
_atom_site_fract_z
Si Si1 0.500000 0.000000 0.000000
Si Si2 0.500000 0.500000 0.500000
Si Si3 0.196881 0.541271 0.133811
Si Si4 0.763456 0.263456 0.000000
Si Si5 0.988766 0.191856 0.607063
Si Si6 0.316534 0.683467 0.750000
O O1 0.488723 0.092769 0.905888
O O2 0.585076 0.460125 0.411146
O O3 0.230511 0.544758 0.288259
O O4 0.225807 0.640937 0.079928
O O5 0.265324 0.481408 0.041391
O O6 0.698129 0.245720 0.872542
O O7 0.091179 0.185375 0.665105
#
# Coordination Sequence:
#
# PCOD9559858 Si02
#       6
#     4   4  16   8  16   8
#     4  10  24  48  76 110 160 196 228 320 384 430
#     4  12  28  50  72 102 160 206 244 326 372 410
#     4  10  24  43  70 106 140 187 246 294 369 454
#     4   9  22  42  64  96 138 178 232 303 366 426
#     4  11  25  44  69 103 137 190 252 296 364 444
#     4  10  22  41  64  94 132 179 236 304 362 426
#
# _framework density 26.692397
#
# number of rings (size 3 to 8) (size 9 to 14) (size 15 to 20)
#    0.000    1.714    0.000    1.714    0.000   21.143 
#    0.000    2.857    0.000    0.000    0.000    0.000 
#    0.000    0.000    0.000    0.000    0.000    0.000 
#
# Total GULP energy -156031.465985 kJ/mol
# GULP energy per Si atom -5572.552357 kJ/mol
# Density = 2.663164 g / cm^3
# Si number density = 26.692397 Si / 1000 Ang^3
#
#
#
# Elastic Constant Matrix: (Units=GPa)
#
#
# Indices 1 2 3 4 5 6 
#
# 1 58.7264 121.3523 44.6204 0.0000 0.0000 0.0000
# 2 121.3523 58.7231 44.6177 0.0000 0.0000 0.0000
# 3 44.6204 44.6177 103.1293 0.0000 0.0000 0.0000
# 4 0.0000 0.0000 0.0000 27.4924 0.0000 0.0000
# 5 0.0000 0.0000 0.0000 0.0000 27.4911 0.0000
# 6 0.0000 0.0000 0.0000 0.0000 0.0000 17.1453
#
#
#
# Elastic Compliance Matrix: (Units=1/GPa)
#
#
# Indices 1 2 3 4 5 6 
#
# 1 -0.004449 0.011518 -0.003058 0.000000 0.000000 0.000000
# 2 0.011518 -0.004449 -0.003058 0.000000 0.000000 0.000000
# 3 -0.003058 -0.003058 0.012343 0.000000 0.000000 0.000000
# 4 0.000000 0.000000 0.000000 0.036374 0.000000 0.000000
# 5 0.000000 0.000000 0.000000 0.000000 0.036375 0.000000
# 6 0.000000 0.000000 0.000000 0.000000 0.000000 0.058325
#
#
# Mechanical properties :
#
#
# Convention : Reuss Voigt Hill
#
# Bulk Modulus (GPa) = 70.18926 71.30663 70.74795
# Shear Modulus (GPa) = 38.92124 15.09165 27.00645
#
# Velocity S-wave (km/s) = 3.82270 2.38038 3.18428
# Velocity P-wave (km/s) = 6.77028 5.85894 6.33103
#
# Compressibility (1/GPa) = 0.01424719
#
# Stress axis : x y z
#
# Youngs Moduli (GPa) = -224.75491 -224.74920 81.01806
#
# Poissons Ratio (x) = 2.58868 0.24776
# Poissons Ratio (y) = 2.58875 0.24779
# Poissons Ratio (z) = -0.68733 -0.68739
#
# Static dielectric constant tensor:
#      x y z
#    x 2.377130 0.000000 0.000000 
#    y 0.000000 2.377140 0.000000 
#    z 0.000000 0.000000 2.271860 
# 
# From -- ./inp_files/2259.got.cif
#   From: 2010.05.17/outbox.cif.g08.bks.cpg/sg120_2_cif.got.tgz:2259.got - 2010.05.20 11:28:13.
