data_PCOD9559607
_publ_section_title
;
Structure prediction by ZEFSAII (Michael W. Deem and Ramdas Pophale) SiO2 
 PCOD9559607
Probable space group: I -4 C 2
;
_chemical_formula_sum "Si O2"
_cell_formula_units_Z 96
_cell_length_a 19.547277
_cell_length_b 19.547277
_cell_length_c 15.375396
_cell_angle_alpha 90.000000
_cell_angle_beta 90.000000
_cell_angle_gamma 90.000000
_cell_volume 5874.877896
_symmetry_space_group_name_H-M "I -4 C 2"
_symmetry_group_IT_number 120
_symmetry_cell_setting 'tetragonal'
loop_
_space_group_symop_operation_xyz
x,y,z
y,-x,-z
-x,-y,z
-y,x,-z
y,x,1/2-z
-y,-x,1/2-z
-x,y,1/2+z
x,-y,1/2+z
1/2+x,1/2+y,1/2+z
1/2+y,1/2-x,1/2-z
1/2-x,1/2-y,1/2+z
1/2-y,1/2+x,1/2-z
1/2+y,1/2+x,-z
1/2-y,1/2-x,-z
1/2-x,1/2+y,z
1/2+x,1/2-y,z
loop_
_atom_site_type_symbol
_atom_site_label
_atom_site_fract_x
_atom_site_fract_y
_atom_site_fract_z
Si Si1 0.607720 0.038880 0.926226
Si Si2 0.763902 0.406388 0.044551
Si Si3 0.557268 0.248140 0.964707
Si Si4 0.351910 0.891854 0.374420
Si Si5 0.172466 0.638263 0.678445
Si Si6 0.271464 0.316689 0.929961
O O1 0.609549 0.099567 0.856065
O O2 0.612136 0.965294 0.882484
O O3 0.551386 0.051386 0.000000
O O4 0.677409 0.048588 0.981746
O O5 0.727454 0.479757 0.048299
O O6 0.834409 0.406856 0.098822
O O7 0.722109 0.342508 0.081968
O O8 0.790963 0.390753 0.946502
O O9 0.596119 0.229235 0.875719
O O10 0.610321 0.288244 0.025588
O O11 0.323222 0.874924 0.280127
O O12 0.176049 0.718328 0.650018
O O13 0.226468 0.273533 0.000000
#
# Coordination Sequence:
#
# PCOD9559607 Si02
#       6
#    16  16  16  16  16  16
#     4   8  16  33  47  63  95 139 164 199 252 302
#     4  10  19  33  48  70  99 129 165 212 263 300
#     4   8  17  32  51  66  95 134 160 206 260 310
#     4  10  19  29  49  72  98 125 174 215 239 296
#     4   9  18  30  51  69  98 129 176 208 251 302
#     4   9  16  34  51  71  95 132 164 206 264 311
#
# _framework density 16.340765999999999
#
# number of rings (size 3 to 8) (size 9 to 14) (size 15 to 20)
#    0.000    3.000    1.667    2.000    2.333    0.667 
#    0.000   16.667    0.000    0.500    0.000    0.000 
#    0.000    0.000    0.000    0.000    0.000    0.000 
#
# Total GULP energy -267239.954448 kJ/mol
# GULP energy per Si atom -5567.499051 kJ/mol
# Density = 1.630357 g / cm^3
# Si number density = 16.340766 Si / 1000 Ang^3
#
#
#
# Elastic Constant Matrix: (Units=GPa)
#
#
# Indices 1 2 3 4 5 6 
#
# 1 67.2182 20.6857 10.9563 0.0000 0.0000 0.0000
# 2 20.6857 67.2183 10.9564 0.0000 0.0000 0.0000
# 3 10.9563 10.9564 89.7601 0.0000 0.0000 0.0000
# 4 0.0000 0.0000 0.0000 9.6450 0.0000 0.0000
# 5 0.0000 0.0000 0.0000 0.0000 9.6450 0.0000
# 6 0.0000 0.0000 0.0000 0.0000 0.0000 17.8169
#
#
#
# Elastic Compliance Matrix: (Units=1/GPa)
#
#
# Indices 1 2 3 4 5 6 
#
# 1 0.016612 -0.004879 -0.001432 0.000000 0.000000 0.000000
# 2 -0.004879 0.016612 -0.001432 0.000000 0.000000 0.000000
# 3 -0.001432 -0.001432 0.011490 0.000000 0.000000 0.000000
# 4 0.000000 0.000000 0.000000 0.103681 0.000000 0.000000
# 5 0.000000 0.000000 0.000000 0.000000 0.103681 0.000000
# 6 0.000000 0.000000 0.000000 0.000000 0.000000 0.056126
#
#
# Mechanical properties :
#
#
# Convention : Reuss Voigt Hill
#
# Bulk Modulus (GPa) = 34.21390 34.37705 34.29547
# Shear Modulus (GPa) = 14.99565 19.52794 17.26179
#
# Velocity S-wave (km/s) = 3.03262 3.46069 3.25370
# Velocity P-wave (km/s) = 5.76590 6.08702 5.92863
#
# Compressibility (1/GPa) = 0.02922789
#
# Stress axis : x y z
#
# Youngs Moduli (GPa) = 60.19855 60.19858 87.02894
#
# Poissons Ratio (x) = 0.29369 0.12464
# Poissons Ratio (y) = 0.29369 0.12464
# Poissons Ratio (z) = 0.08621 0.08622
#
# Static dielectric constant tensor:
#      x y z
#    x 1.582410 0.000000 0.000000 
#    y 0.000000 1.582410 0.000000 
#    z 0.000000 0.000000 1.558580 
# 
# From -- ./inp_files/3624.got.cif
#   From: 2010.05.17/outbox.cif.g08.bks.cpg/sg120_2_cif.got.tgz:3624.got - 2010.05.20 11:28:13.
