data_PCOD9559012
_publ_section_title
;
Structure prediction by ZEFSAII (Michael W. Deem and Ramdas Pophale) SiO2 
 PCOD9559012
Probable space group: I -4 M 2
;
_chemical_formula_sum "Si O2"
_cell_formula_units_Z 128
_cell_length_a 19.198784
_cell_length_b 19.198784
_cell_length_c 20.515795
_cell_angle_alpha 90.000000
_cell_angle_beta 90.000000
_cell_angle_gamma 90.000000
_cell_volume 7561.984726
_symmetry_space_group_name_H-M "I -4 M 2"
_symmetry_group_IT_number 119
_symmetry_cell_setting 'tetragonal'
loop_
_space_group_symop_operation_xyz
x,y,z
y,-x,-z
-x,-y,z
-y,x,-z
y,x,-z
-y,-x,-z
-x,y,z
x,-y,z
1/2+x,1/2+y,1/2+z
1/2+y,1/2-x,1/2-z
1/2-x,1/2-y,1/2+z
1/2-y,1/2+x,1/2-z
1/2+y,1/2+x,1/2-z
1/2-y,1/2-x,1/2-z
1/2-x,1/2+y,1/2+z
1/2+x,1/2-y,1/2+z
loop_
_atom_site_type_symbol
_atom_site_label
_atom_site_fract_x
_atom_site_fract_y
_atom_site_fract_z
Si Si1 0.181044 0.577282 0.023461
Si Si2 0.709273 0.923094 0.369252
Si Si3 0.421268 0.627811 0.167339
Si Si4 0.918582 0.143400 0.064990
Si Si5 0.340255 0.581852 0.684811
Si Si6 0.074445 0.841328 0.450753
Si Si7 0.308256 0.232192 0.559535
Si Si8 0.729056 0.202213 0.177580
O O1 0.148336 0.500000 0.038644
O O2 0.259081 0.574081 0.050797
O O3 0.160485 0.654710 0.048158
O O4 0.188373 0.580507 0.945022
O O5 0.792778 0.921323 0.359426
O O6 0.685179 0.851945 0.335773
O O7 0.686619 0.000000 0.344277
O O8 0.500000 0.600927 0.162088
O O9 0.401918 0.630548 0.243163
O O10 0.371482 0.585795 0.120447
O O11 0.894501 0.100007 0.128159
O O12 0.871760 0.213148 0.063413
O O13 0.000000 0.158651 0.066809
O O14 0.899135 0.100866 0.000000
O O15 0.322236 0.500000 0.683972
O O16 0.274200 0.631830 0.673731
O O17 0.132721 0.867280 0.500000
O O18 0.000000 0.865621 0.478144
O O19 0.258684 0.258684 0.500000
O O20 0.260821 0.244608 0.623988
O O21 0.733251 0.233251 0.250000
#
# Coordination Sequence:
#
# PCOD9559012 Si02
#       8
#    16  16  16  16  16  16  16  16
#     4  10  19  31  52  77 104 138 171 214 264 307
#     4  10  18  31  50  73 101 134 177 218 258 310
#     4  10  19  31  44  63  97 136 172 213 252 297
#     4  10  22  39  59  80  99 128 169 216 272 330
#     4  10  22  36  52  76 103 135 175 215 266 323
#     4  11  20  28  41  65  98 139 180 210 243 293
#     4  10  19  34  55  78 105 135 177 225 266 313
#     4  11  20  30  52  79 103 141 182 226 270 310
#
# _framework density 16.926773000000001
#
# number of rings (size 3 to 8) (size 9 to 14) (size 15 to 20)
#    0.000    1.750    3.750    1.875    0.000    2.250 
#    0.000    1.250    0.000    0.750    0.000    2.625 
#    0.000    0.000    0.000    2.250    0.000    0.000 
#
# Total GULP energy -356633.863264 kJ/mol
# GULP energy per Si atom -5572.404113 kJ/mol
# Density = 1.688825 g / cm^3
# Si number density = 16.926773 Si / 1000 Ang^3
#
#
#
# Elastic Constant Matrix: (Units=GPa)
#
#
# Indices 1 2 3 4 5 6 
#
# 1 71.1115 8.1191 23.7959 0.0000 0.0000 0.0000
# 2 8.1191 71.1116 23.7960 0.0000 0.0000 0.0000
# 3 23.7959 23.7960 93.7865 0.0000 0.0000 0.0000
# 4 0.0000 0.0000 0.0000 23.0121 0.0000 0.0000
# 5 0.0000 0.0000 0.0000 0.0000 23.0119 0.0000
# 6 0.0000 0.0000 0.0000 0.0000 0.0000 5.5406
#
#
#
# Elastic Compliance Matrix: (Units=1/GPa)
#
#
# Indices 1 2 3 4 5 6 
#
# 1 0.015383 -0.000492 -0.003778 0.000000 0.000000 0.000000
# 2 -0.000492 0.015383 -0.003778 0.000000 0.000000 0.000000
# 3 -0.003778 -0.003778 0.012580 0.000000 0.000000 0.000000
# 4 0.000000 0.000000 0.000000 0.043455 0.000000 0.000000
# 5 0.000000 0.000000 0.000000 0.000000 0.043456 0.000000
# 6 0.000000 0.000000 0.000000 0.000000 0.000000 0.180485
#
#
# Mechanical properties :
#
#
# Convention : Reuss Voigt Hill
#
# Bulk Modulus (GPa) = 36.69894 38.60349 37.65121
# Shear Modulus (GPa) = 14.88443 22.33283 18.60863
#
# Velocity S-wave (km/s) = 2.96859 3.63627 3.31926
# Velocity P-wave (km/s) = 5.78603 6.36283 6.08127
#
# Compressibility (1/GPa) = 0.02724874
#
# Stress axis : x y z
#
# Youngs Moduli (GPa) = 65.00730 65.00737 79.49283
#
# Poissons Ratio (x) = 0.03199 0.30034
# Poissons Ratio (y) = 0.03199 0.30034
# Poissons Ratio (z) = 0.24561 0.24561
#
# Static dielectric constant tensor:
#      x y z
#    x 1.579950 0.000000 0.000000 
#    y 0.000000 1.579950 0.000000 
#    z 0.000000 0.000000 1.579960 
# 
# From -- ./inp_files/6900.got.cif
#   From: 2010.05.17/outbox.cif.g08.bks.cpg/sg119_4_cif.got.tgz:6900.got - 2010.05.20 11:21:29.
