data_PCOD9559866
_publ_section_title
;
Structure prediction by ZEFSAII (Michael W. Deem and Ramdas Pophale) SiO2 
 PCOD9559866
Probable space group: I -4 C 2
;
_chemical_formula_sum "Si O2"
_cell_formula_units_Z 96
_cell_length_a 23.362549
_cell_length_b 23.362549
_cell_length_c 8.865183
_cell_angle_alpha 90.000000
_cell_angle_beta 90.000000
_cell_angle_gamma 90.000000
_cell_volume 4838.693971
_symmetry_space_group_name_H-M "I -4 C 2"
_symmetry_group_IT_number 120
_symmetry_cell_setting 'tetragonal'
loop_
_space_group_symop_operation_xyz
x,y,z
y,-x,-z
-x,-y,z
-y,x,-z
y,x,1/2-z
-y,-x,1/2-z
-x,y,1/2+z
x,-y,1/2+z
1/2+x,1/2+y,1/2+z
1/2+y,1/2-x,1/2-z
1/2-x,1/2-y,1/2+z
1/2-y,1/2+x,1/2-z
1/2+y,1/2+x,-z
1/2-y,1/2-x,-z
1/2-x,1/2+y,z
1/2+x,1/2-y,z
loop_
_atom_site_type_symbol
_atom_site_label
_atom_site_fract_x
_atom_site_fract_y
_atom_site_fract_z
Si Si1 0.172517 0.281056 0.840394
Si Si2 0.351037 0.929634 0.292827
Si Si3 0.065842 0.942633 0.071760
Si Si4 0.334778 0.648335 0.500382
Si Si5 0.256987 0.633102 0.210380
Si Si6 0.551240 0.156252 0.352253
O O1 0.113547 0.304670 0.774904
O O2 0.220528 0.307836 0.728447
O O3 0.189012 0.310988 0.000000
O O4 0.164221 0.214547 0.879932
O O5 0.411302 0.896528 0.291089
O O6 0.339978 0.942698 0.467950
O O7 0.350540 0.986894 0.198050
O O8 0.054607 0.945394 0.250000
O O9 0.118392 0.898919 0.044390
O O10 0.006764 0.922591 0.991064
O O11 0.299621 0.628199 0.351692
O O12 0.364754 0.706451 0.442228
O O13 0.212598 0.581595 0.212801
#
# Coordination Sequence:
#
# PCOD9559866 Si02
#       6
#    16  16  16  16  16  16
#     4   9  20  42  62  93 131 180 209 266 331 384
#     4  10  23  40  65  91 132 168 222 264 330 377
#     4  11  26  47  73  96 132 171 216 278 336 389
#     4  10  22  42  66  99 126 173 221 257 321 400
#     4   9  21  42  63  91 137 170 210 268 322 388
#     4  10  23  42  62  96 125 175 214 273 321 386
#
# _framework density 19.840064000000002
#
# number of rings (size 3 to 8) (size 9 to 14) (size 15 to 20)
#    0.000    2.167    0.000    1.000   11.667    3.000 
#   42.000    1.667    0.000    0.000    0.000    0.000 
#    0.000    0.000    0.000    0.000    0.000    0.000 
#
# Total GULP energy -268116.918211 kJ/mol
# GULP energy per Si atom -5585.769129 kJ/mol
# Density = 1.979491 g / cm^3
# Si number density = 19.840064 Si / 1000 Ang^3
#
#
#
# Elastic Constant Matrix: (Units=GPa)
#
#
# Indices 1 2 3 4 5 6 
#
# 1 166.0294 20.9585 75.7616 0.0000 0.0000 0.0000
# 2 20.9585 166.0148 75.7690 0.0000 0.0000 0.0000
# 3 75.7616 75.7690 84.3089 0.0000 0.0000 0.0000
# 4 0.0000 0.0000 0.0000 28.5443 0.0000 0.0000
# 5 0.0000 0.0000 0.0000 0.0000 28.5433 0.0000
# 6 0.0000 0.0000 0.0000 0.0000 0.0000 17.5610
#
#
#
# Elastic Compliance Matrix: (Units=1/GPa)
#
#
# Indices 1 2 3 4 5 6 
#
# 1 0.013286 0.006395 -0.017686 0.000000 0.000000 0.000000
# 2 0.006395 0.013290 -0.017690 0.000000 0.000000 0.000000
# 3 -0.017686 -0.017690 0.043653 0.000000 0.000000 0.000000
# 4 0.000000 0.000000 0.000000 0.035033 0.000000 0.000000
# 5 0.000000 0.000000 0.000000 0.000000 0.035035 0.000000
# 6 0.000000 0.000000 0.000000 0.000000 0.000000 0.056944
#
#
# Mechanical properties :
#
#
# Convention : Reuss Voigt Hill
#
# Bulk Modulus (GPa) = 81.53018 84.59236 83.06127
# Shear Modulus (GPa) = 19.28316 31.18731 25.23524
#
# Velocity S-wave (km/s) = 3.12096 3.96907 3.57029
# Velocity P-wave (km/s) = 7.36004 7.98338 7.67804
#
# Compressibility (1/GPa) = 0.01226540
#
# Stress axis : x y z
#
# Youngs Moduli (GPa) = 75.26547 75.24397 22.90807
#
# Poissons Ratio (x) = -0.48116 0.40516
# Poissons Ratio (y) = -0.48130 0.40525
# Poissons Ratio (z) = 1.33117 1.33109
#
# Static dielectric constant tensor:
#      x y z
#    x 1.690720 0.000000 0.000000 
#    y 0.000000 1.690720 0.000000 
#    z 0.000000 0.000000 1.676910 
# 
# From -- ./inp_files/1533.got.cif
#   From: 2010.05.17/outbox.cif.g08.bks.cpg/sg120_1_cif.got.tgz:1533.got - 2010.05.20 11:28:13.
