data_PCOD9559128
_publ_section_title
;
Structure prediction by ZEFSAII (Michael W. Deem and Ramdas Pophale) SiO2 
 PCOD9559128
Probable space group: I -4 M 2
;
_chemical_formula_sum "Si O2"
_cell_formula_units_Z 112
_cell_length_a 15.195805
_cell_length_b 15.195805
_cell_length_c 26.246483
_cell_angle_alpha 90.000000
_cell_angle_beta 90.000000
_cell_angle_gamma 90.000000
_cell_volume 6060.640733
_symmetry_space_group_name_H-M "I -4 M 2"
_symmetry_group_IT_number 119
_symmetry_cell_setting 'tetragonal'
loop_
_space_group_symop_operation_xyz
x,y,z
y,-x,-z
-x,-y,z
-y,x,-z
y,x,-z
-y,-x,-z
-x,y,z
x,-y,z
1/2+x,1/2+y,1/2+z
1/2+y,1/2-x,1/2-z
1/2-x,1/2-y,1/2+z
1/2-y,1/2+x,1/2-z
1/2+y,1/2+x,1/2-z
1/2-y,1/2-x,1/2-z
1/2-x,1/2+y,1/2+z
1/2+x,1/2-y,1/2+z
loop_
_atom_site_type_symbol
_atom_site_label
_atom_site_fract_x
_atom_site_fract_y
_atom_site_fract_z
Si Si1 0.603327 0.101534 0.496982
Si Si2 0.837276 0.285260 0.601176
Si Si3 0.732141 0.661825 0.448995
Si Si4 0.343397 0.900449 0.199110
Si Si5 0.106294 0.101491 0.635664
Si Si6 0.104993 0.000000 0.933550
Si Si7 0.895219 0.000000 0.813394
Si Si8 0.340140 0.606906 0.751277
O O1 0.500000 0.113244 0.484230
O O2 0.660224 0.123512 0.446408
O O3 0.625014 0.169780 0.542626
O O4 0.618329 0.000000 0.511220
O O5 0.730832 0.285675 0.596073
O O6 0.866933 0.333555 0.653632
O O7 0.864674 0.182597 0.600072
O O8 0.717805 0.717805 0.500000
O O9 0.659483 0.585255 0.450507
O O10 0.402157 0.902157 0.250000
O O11 0.251252 0.872094 0.224640
O O12 0.336590 0.000000 0.178073
O O13 0.135908 0.133668 0.692037
O O14 0.000000 0.099419 0.635276
O O15 0.135285 0.000000 0.625660
O O16 0.113897 0.000000 0.872916
O O17 0.000000 0.000000 0.945376
O O18 0.859167 0.085478 0.786451
O O19 0.000000 0.000000 0.802864
O O20 0.340262 0.500000 0.753833
#
# Coordination Sequence:
#
# PCOD9559128 Si02
#       8
#    16  16  16  16  16   8   8  16
#     4  10  21  40  64  83 109 151 195 243 298 359
#     4  11  22  37  57  86 118 151 194 246 293 347
#     4  10  23  38  57  85 115 144 189 241 294 362
#     4  11  22  34  50  76 117 162 201 240 281 337
#     4  10  19  33  55  81 109 149 194 236 284 336
#     4  11  22  34  57  85 115 153 188 236 297 348
#     4   9  16  28  48  77 105 139 187 224 266 330
#     4   9  16  29  48  70 104 148 188 225 269 324
#
# _framework density 18.479894000000002
#
# number of rings (size 3 to 8) (size 9 to 14) (size 15 to 20)
#    0.000    1.857    2.857    1.714    1.000    3.571 
#    0.000    0.000    0.000    0.000    0.000    7.000 
#    0.000    0.000    0.000    0.000    0.000    0.000 
#
# Total GULP energy -311840.592551 kJ/mol
# GULP energy per Si atom -5568.582010 kJ/mol
# Density = 1.843783 g / cm^3
# Si number density = 18.479894 Si / 1000 Ang^3
#
#
#
# Elastic Constant Matrix: (Units=GPa)
#
#
# Indices 1 2 3 4 5 6 
#
# 1 94.3138 25.6826 8.0749 0.0000 0.0000 0.0000
# 2 25.6826 94.3138 8.0749 0.0000 0.0000 0.0000
# 3 8.0749 8.0749 37.2094 0.0000 0.0000 0.0000
# 4 0.0000 0.0000 0.0000 20.0315 0.0000 0.0000
# 5 0.0000 0.0000 0.0000 0.0000 20.0315 0.0000
# 6 0.0000 0.0000 0.0000 0.0000 0.0000 17.1206
#
#
#
# Elastic Compliance Matrix: (Units=1/GPa)
#
#
# Indices 1 2 3 4 5 6 
#
# 1 0.011577 -0.002993 -0.001863 0.000000 0.000000 0.000000
# 2 -0.002993 0.011577 -0.001863 0.000000 0.000000 0.000000
# 3 -0.001863 -0.001863 0.027683 0.000000 0.000000 0.000000
# 4 0.000000 0.000000 0.000000 0.049921 0.000000 0.000000
# 5 0.000000 0.000000 0.000000 0.000000 0.049921 0.000000
# 6 0.000000 0.000000 0.000000 0.000000 0.000000 0.058409
#
#
# Mechanical properties :
#
#
# Convention : Reuss Voigt Hill
#
# Bulk Modulus (GPa) = 26.73765 34.38912 30.56338
# Shear Modulus (GPa) = 21.27705 23.70370 22.49037
#
# Velocity S-wave (km/s) = 3.39685 3.58533 3.49236
# Velocity P-wave (km/s) = 5.46669 5.98237 5.73034
#
# Compressibility (1/GPa) = 0.03740045
#
# Stress axis : x y z
#
# Youngs Moduli (GPa) = 86.37469 86.37469 36.12263
#
# Poissons Ratio (x) = 0.25853 0.06729
# Poissons Ratio (y) = 0.25853 0.06729
# Poissons Ratio (z) = 0.16091 0.16091
#
# Static dielectric constant tensor:
#      x y z
#    x 1.676630 0.000000 0.000000 
#    y 0.000000 1.676630 0.000000 
#    z 0.000000 0.000000 1.661240 
# 
# From -- ./inp_files/9677.got.cif
#   From: 2010.05.17/outbox.cif.g08.bks.cpg/sg119_5_cif.got.tgz:9677.got - 2010.05.20 11:21:29.
