data_PCOD9559670
_publ_section_title
;
Structure prediction by ZEFSAII (Michael W. Deem and Ramdas Pophale) SiO2 
 PCOD9559670
Probable space group: I -4 C 2
;
_chemical_formula_sum "Si O2"
_cell_formula_units_Z 72
_cell_length_a 18.794477
_cell_length_b 18.794477
_cell_length_c 9.046158
_cell_angle_alpha 90.000000
_cell_angle_beta 90.000000
_cell_angle_gamma 90.000000
_cell_volume 3195.395791
_symmetry_space_group_name_H-M "I -4 C 2"
_symmetry_group_IT_number 120
_symmetry_cell_setting 'tetragonal'
loop_
_space_group_symop_operation_xyz
x,y,z
y,-x,-z
-x,-y,z
-y,x,-z
y,x,1/2-z
-y,-x,1/2-z
-x,y,1/2+z
x,-y,1/2+z
1/2+x,1/2+y,1/2+z
1/2+y,1/2-x,1/2-z
1/2-x,1/2-y,1/2+z
1/2-y,1/2+x,1/2-z
1/2+y,1/2+x,-z
1/2-y,1/2-x,-z
1/2-x,1/2+y,z
1/2+x,1/2-y,z
loop_
_atom_site_type_symbol
_atom_site_label
_atom_site_fract_x
_atom_site_fract_y
_atom_site_fract_z
Si Si1 0.000000 0.000000 0.000000
Si Si2 0.270337 0.270337 0.250000
Si Si3 0.724163 0.574108 0.381226
Si Si4 0.172409 0.672409 0.500000
Si Si5 0.931516 0.568485 0.500000
Si Si6 0.570685 0.570685 0.250000
Si Si7 0.797686 0.511549 0.106854
Si Si8 0.500000 0.000000 0.250000
O O1 0.061714 0.983278 0.114693
O O2 0.268748 0.340437 0.358171
O O3 0.283656 0.203220 0.358088
O O4 0.647107 0.559876 0.317898
O O5 0.733999 0.534096 0.535280
O O6 0.780393 0.535853 0.272274
O O7 0.186824 0.588246 0.528258
O O8 0.860804 0.545575 0.583557
O O9 0.988621 0.562116 0.632931
#
# Coordination Sequence:
#
# PCOD9559670 Si02
#       8
#     4   8  16   8   8   8  16   4
#     4  10  20  34  64  90 116 150 188 258 332 378
#     4   9  22  41  60  83 120 161 206 259 304 365
#     4  10  22  39  59  86 121 160 204 254 306 371
#     4  10  22  42  62  89 122 162 212 259 308 372
#     4  11  22  37  56  85 122 159 204 251 300 361
#     4  10  20  39  60  88 120 152 200 255 318 382
#     4  11  23  38  61  90 124 164 208 254 309 370
#     4  10  20  34  52  74 112 158 192 242 292 334
#
# _framework density 22.532418
#
# number of rings (size 3 to 8) (size 9 to 14) (size 15 to 20)
#    0.000    1.778    0.000    4.000    0.000    8.000 
#    0.000    4.444    0.000    0.000    0.000    0.000 
#    0.000    0.000    0.000    0.000    0.000    0.000 
#
# Total GULP energy -200566.359505 kJ/mol
# GULP energy per Si atom -5571.287764 kJ/mol
# Density = 2.248113 g / cm^3
# Si number density = 22.532418 Si / 1000 Ang^3
#
#
#
# Elastic Constant Matrix: (Units=GPa)
#
#
# Indices 1 2 3 4 5 6 
#
# 1 12.2088 57.3095 5.1179 0.0000 0.0000 0.0000
# 2 57.3095 12.2102 5.1178 0.0000 0.0000 0.0000
# 3 5.1179 5.1178 54.1126 0.0000 0.0000 0.0000
# 4 0.0000 0.0000 0.0000 20.7676 0.0000 0.0000
# 5 0.0000 0.0000 0.0000 0.0000 20.7672 0.0000
# 6 0.0000 0.0000 0.0000 0.0000 0.0000 32.8684
#
#
#
# Elastic Compliance Matrix: (Units=1/GPa)
#
#
# Indices 1 2 3 4 5 6 
#
# 1 -0.003793 0.018380 -0.001380 0.000000 0.000000 0.000000
# 2 0.018380 -0.003792 -0.001380 0.000000 0.000000 0.000000
# 3 -0.001380 -0.001380 0.018741 0.000000 0.000000 0.000000
# 4 0.000000 0.000000 0.000000 0.048152 0.000000 0.000000
# 5 0.000000 0.000000 0.000000 0.000000 0.048153 0.000000
# 6 0.000000 0.000000 0.000000 0.000000 0.000000 0.030424
#
#
# Mechanical properties :
#
#
# Convention : Reuss Voigt Hill
#
# Bulk Modulus (GPa) = 23.58621 23.73578 23.66099
# Shear Modulus (GPa) = 41.39908 15.61305 28.50606
#
# Velocity S-wave (km/s) = 4.29104 2.63518 3.56070
# Velocity P-wave (km/s) = 5.91955 4.45150 5.23722
#
# Compressibility (1/GPa) = 0.04239766
#
# Stress axis : x y z
#
# Youngs Moduli (GPa) = -263.65259 -263.68648 53.35910
#
# Poissons Ratio (x) = 4.84664 0.07361
# Poissons Ratio (y) = 4.84602 0.07362
# Poissons Ratio (z) = -0.36374 -0.36381
#
# Static dielectric constant tensor:
#      x y z
#    x 1.961570 0.000000 0.000000 
#    y 0.000000 1.961580 0.000000 
#    z 0.000000 0.000000 1.858300 
# 
# From -- ./inp_files/1397.got.cif
#   From: 2010.05.17/outbox.cif.g08.bks.cpg/sg120_1_cif.got.tgz:1397.got - 2010.05.20 11:28:13.
