data_PCOD9559980
_publ_section_title
;
Structure prediction by ZEFSAII (Michael W. Deem and Ramdas Pophale) SiO2 
 PCOD9559980
Probable space group: I -4 C 2
;
_chemical_formula_sum "Si O2"
_cell_formula_units_Z 96
_cell_length_a 14.193130
_cell_length_b 14.193130
_cell_length_c 21.810542
_cell_angle_alpha 90.000000
_cell_angle_beta 90.000000
_cell_angle_gamma 90.000000
_cell_volume 4393.623307
_symmetry_space_group_name_H-M "I -4 C 2"
_symmetry_group_IT_number 120
_symmetry_cell_setting 'tetragonal'
loop_
_space_group_symop_operation_xyz
x,y,z
y,-x,-z
-x,-y,z
-y,x,-z
y,x,1/2-z
-y,-x,1/2-z
-x,y,1/2+z
x,-y,1/2+z
1/2+x,1/2+y,1/2+z
1/2+y,1/2-x,1/2-z
1/2-x,1/2-y,1/2+z
1/2-y,1/2+x,1/2-z
1/2+y,1/2+x,-z
1/2-y,1/2-x,-z
1/2-x,1/2+y,z
1/2+x,1/2-y,z
loop_
_atom_site_type_symbol
_atom_site_label
_atom_site_fract_x
_atom_site_fract_y
_atom_site_fract_z
Si Si1 0.641413 0.996093 0.218327
Si Si2 0.851918 0.947607 0.491177
Si Si3 0.263895 0.946078 0.105959
Si Si4 0.790733 0.237380 0.177022
Si Si5 0.666265 0.525439 0.283691
Si Si6 0.645194 0.382973 0.134581
O O1 0.591186 0.084480 0.252763
O O2 0.648052 0.008290 0.144232
O O3 0.749011 0.994105 0.239869
O O4 0.757846 0.939196 0.533331
O O5 0.836295 0.899739 0.425618
O O6 0.944125 0.888878 0.516078
O O7 0.256779 0.846457 0.139148
O O8 0.172073 0.010119 0.120832
O O9 0.771085 0.228916 0.250000
O O10 0.901773 0.218635 0.170120
O O11 0.740811 0.330179 0.153065
O O12 0.587590 0.587590 0.250000
O O13 0.624402 0.434588 0.314974
#
# Coordination Sequence:
#
# PCOD9559980 Si02
#       6
#    16  16  16  16  16  16
#     4  11  23  41  63  91 133 183 220 267 346 414
#     4   9  20  40  62  93 130 173 225 274 336 407
#     4  11  22  40  64  89 133 170 215 278 333 396
#     4  11  23  38  57  95 134 165 215 274 329 411
#     4  11  23  38  61  97 130 158 215 271 334 402
#     4  11  25  40  66  91 132 178 217 275 343 394
#
# _framework density 21.849848000000001
#
# number of rings (size 3 to 8) (size 9 to 14) (size 15 to 20)
#    0.000    1.333    3.333    3.000    2.333    3.333 
#    0.000    0.000    0.000    3.000    0.000    2.333 
#    0.000    0.000    0.000    0.000    0.000    0.000 
#
# Total GULP energy -267849.972564 kJ/mol
# GULP energy per Si atom -5580.207762 kJ/mol
# Density = 2.180012 g / cm^3
# Si number density = 21.849848 Si / 1000 Ang^3
#
#
#
# Elastic Constant Matrix: (Units=GPa)
#
#
# Indices 1 2 3 4 5 6 
#
# 1 71.9379 19.2355 20.3222 0.0000 0.0000 0.0000
# 2 19.2355 71.9381 20.3222 0.0000 0.0000 0.0000
# 3 20.3222 20.3222 110.9195 0.0000 0.0000 0.0000
# 4 0.0000 0.0000 0.0000 31.8231 0.0000 0.0000
# 5 0.0000 0.0000 0.0000 0.0000 31.8231 0.0000
# 6 0.0000 0.0000 0.0000 0.0000 0.0000 30.8250
#
#
#
# Elastic Compliance Matrix: (Units=1/GPa)
#
#
# Indices 1 2 3 4 5 6 
#
# 1 0.015459 -0.003515 -0.002188 0.000000 0.000000 0.000000
# 2 -0.003515 0.015459 -0.002188 0.000000 0.000000 0.000000
# 3 -0.002188 -0.002188 0.009817 0.000000 0.000000 0.000000
# 4 0.000000 0.000000 0.000000 0.031424 0.000000 0.000000
# 5 0.000000 0.000000 0.000000 0.000000 0.031424 0.000000
# 6 0.000000 0.000000 0.000000 0.000000 0.000000 0.032441
#
#
# Mechanical properties :
#
#
# Convention : Reuss Voigt Hill
#
# Bulk Modulus (GPa) = 40.07763 41.61726 40.84744
# Shear Modulus (GPa) = 31.22559 31.88862 31.55710
#
# Velocity S-wave (km/s) = 3.78444 3.82441 3.80448
# Velocity P-wave (km/s) = 6.12194 6.21207 6.16717
#
# Compressibility (1/GPa) = 0.02495158
#
# Stress axis : x y z
#
# Youngs Moduli (GPa) = 64.68712 64.68728 101.85998
#
# Poissons Ratio (x) = 0.22740 0.22290
# Poissons Ratio (y) = 0.22740 0.22290
# Poissons Ratio (z) = 0.14155 0.14155
#
# Static dielectric constant tensor:
#      x y z
#    x 1.818940 0.000000 0.000000 
#    y 0.000000 1.818940 0.000000 
#    z 0.000000 0.000000 1.918910 
# 
# From -- ./inp_files/5333.got.cif
#   From: 2010.05.17/outbox.cif.g08.bks.cpg/sg120_3_cif.got.tgz:5333.got - 2010.05.20 11:28:13.
