data_PCOD9559164
_publ_section_title
;
Structure prediction by ZEFSAII (Michael W. Deem and Ramdas Pophale) SiO2 
 PCOD9559164
Probable space group: I -4 M 2
;
_chemical_formula_sum "Si O2"
_cell_formula_units_Z 112
_cell_length_a 13.699277
_cell_length_b 13.699277
_cell_length_c 33.162786
_cell_angle_alpha 90.000000
_cell_angle_beta 90.000000
_cell_angle_gamma 90.000000
_cell_volume 6223.666360
_symmetry_space_group_name_H-M "I -4 M 2"
_symmetry_group_IT_number 119
_symmetry_cell_setting 'tetragonal'
loop_
_space_group_symop_operation_xyz
x,y,z
y,-x,-z
-x,-y,z
-y,x,-z
y,x,-z
-y,-x,-z
-x,y,z
x,-y,z
1/2+x,1/2+y,1/2+z
1/2+y,1/2-x,1/2-z
1/2-x,1/2-y,1/2+z
1/2-y,1/2+x,1/2-z
1/2+y,1/2+x,1/2-z
1/2-y,1/2-x,1/2-z
1/2-x,1/2+y,1/2+z
1/2+x,1/2-y,1/2+z
loop_
_atom_site_type_symbol
_atom_site_label
_atom_site_fract_x
_atom_site_fract_y
_atom_site_fract_z
Si Si1 0.388927 0.386178 0.304022
Si Si2 0.115354 0.618067 0.086317
Si Si3 0.297121 0.116305 0.089655
Si Si4 0.239554 0.114569 0.727377
Si Si5 0.753737 0.263709 0.148803
Si Si6 0.888130 0.381905 0.503031
Si Si7 0.108881 0.117595 0.044181
O O1 0.500000 0.352394 0.308611
O O2 0.384173 0.500000 0.315552
O O3 0.351168 0.378863 0.258115
O O4 0.314924 0.324725 0.330422
O O5 0.124264 0.500000 0.087204
O O6 0.184398 0.667684 0.118892
O O7 0.145557 0.652672 0.041054
O O8 0.000000 0.638895 0.093127
O O9 0.321521 0.195437 0.123719
O O10 0.181841 0.131221 0.080731
O O11 0.315063 0.000000 0.097973
O O12 0.342552 0.141897 0.046138
O O13 0.328447 0.171554 0.750000
O O14 0.217239 0.168703 0.685455
O O15 0.263006 0.000000 0.721496
O O16 0.887126 0.500000 0.501675
O O17 0.000000 0.348531 0.503831
O O18 0.000000 0.155540 0.051033
O O19 0.103061 0.000000 0.039543
O O20 0.147732 0.147732 0.000000
#
# Coordination Sequence:
#
# PCOD9559164 Si02
#       7
#    16  16  16  16  16  16  16
#     4   9  18  34  53  70  93 126 156 183 228 294
#     4   9  18  31  46  65  93 132 171 204 238 275
#     4  10  20  30  44  67  96 131 166 201 240 279
#     4   9  19  35  53  73  95 124 157 191 234 289
#     4  11  20  29  46  74 103 120 151 199 245 286
#     4   8  16  32  48  60  83 127 178 214 239 274
#     4   8  15  26  37  53  83 123 160 187 216 264
#
# _framework density 17.995823000000001
#
# number of rings (size 3 to 8) (size 9 to 14) (size 15 to 20)
#    0.000    2.857    0.000    2.571    2.000    1.857 
#    0.000    2.143    0.000    0.000    0.000    0.000 
#    0.000   14.000    0.000    3.143    0.000    0.000 
#
# Total GULP energy -312035.547331 kJ/mol
# GULP energy per Si atom -5572.063345 kJ/mol
# Density = 1.795486 g / cm^3
# Si number density = 17.995823 Si / 1000 Ang^3
#
#
#
# Elastic Constant Matrix: (Units=GPa)
#
#
# Indices 1 2 3 4 5 6 
#
# 1 43.9260 0.8383 16.3639 0.0000 0.0000 0.0000
# 2 0.8383 43.9255 16.3631 0.0000 0.0000 0.0000
# 3 16.3639 16.3631 95.2998 0.0000 0.0000 0.0000
# 4 0.0000 0.0000 0.0000 21.5117 0.0000 0.0000
# 5 0.0000 0.0000 0.0000 0.0000 21.5118 0.0000
# 6 0.0000 0.0000 0.0000 0.0000 0.0000 11.2005
#
#
#
# Elastic Compliance Matrix: (Units=1/GPa)
#
#
# Indices 1 2 3 4 5 6 
#
# 1 0.024377 0.001169 -0.004387 0.000000 0.000000 0.000000
# 2 0.001169 0.024378 -0.004386 0.000000 0.000000 0.000000
# 3 -0.004387 -0.004386 0.012000 0.000000 0.000000 0.000000
# 4 0.000000 0.000000 0.000000 0.046486 0.000000 0.000000
# 5 0.000000 0.000000 0.000000 0.000000 0.046486 0.000000
# 6 0.000000 0.000000 0.000000 0.000000 0.000000 0.089282
#
#
# Mechanical properties :
#
#
# Convention : Reuss Voigt Hill
#
# Bulk Modulus (GPa) = 21.95567 27.80911 24.88239
# Shear Modulus (GPa) = 18.28831 20.81721 19.55276
#
# Velocity S-wave (km/s) = 3.19133 3.40484 3.29981
# Velocity P-wave (km/s) = 5.08000 5.56272 5.32683
#
# Compressibility (1/GPa) = 0.04554633
#
# Stress axis : x y z
#
# Youngs Moduli (GPa) = 41.02168 41.02141 83.33643
#
# Poissons Ratio (x) = -0.04795 0.36556
# Poissons Ratio (y) = -0.04795 0.36554
# Poissons Ratio (z) = 0.17994 0.17993
#
# Static dielectric constant tensor:
#      x y z
#    x 1.634760 0.000000 0.000000 
#    y 0.000000 1.634760 0.000000 
#    z 0.000000 0.000000 1.662720 
# 
# From -- ./inp_files/10434.got.cif
#   From: 2010.05.17/outbox.cif.g08.bks.cpg/sg119_6_cif.got.tgz:10434.got - 2010.05.20 11:21:29.
