data_PCOD9559379
_publ_section_title
;
Structure prediction by ZEFSAII (Michael W. Deem and Ramdas Pophale) SiO2 
 PCOD9559379
Probable space group: I -4 M 2
;
_chemical_formula_sum "Si O2"
_cell_formula_units_Z 112
_cell_length_a 15.145025
_cell_length_b 15.145025
_cell_length_c 23.242462
_cell_angle_alpha 90.000000
_cell_angle_beta 90.000000
_cell_angle_gamma 90.000000
_cell_volume 5331.164933
_symmetry_space_group_name_H-M "I -4 M 2"
_symmetry_group_IT_number 119
_symmetry_cell_setting 'tetragonal'
loop_
_space_group_symop_operation_xyz
x,y,z
y,-x,-z
-x,-y,z
-y,x,-z
y,x,-z
-y,-x,-z
-x,y,z
x,-y,z
1/2+x,1/2+y,1/2+z
1/2+y,1/2-x,1/2-z
1/2-x,1/2-y,1/2+z
1/2-y,1/2+x,1/2-z
1/2+y,1/2+x,1/2-z
1/2-y,1/2-x,1/2-z
1/2-x,1/2+y,1/2+z
1/2+x,1/2-y,1/2+z
loop_
_atom_site_type_symbol
_atom_site_label
_atom_site_fract_x
_atom_site_fract_y
_atom_site_fract_z
Si Si1 0.277133 0.099105 0.082044
Si Si2 0.856005 0.896971 0.333302
Si Si3 0.354751 0.099857 0.315558
Si Si4 0.601193 0.867328 0.534072
Si Si5 0.691730 0.595853 0.391488
Si Si6 0.097661 0.800186 0.452768
Si Si7 0.900369 0.251309 0.240449
O O1 0.329158 0.104332 0.141660
O O2 0.184564 0.146977 0.086835
O O3 0.254516 0.000000 0.066536
O O4 0.343257 0.126670 0.031505
O O5 0.750041 0.897325 0.326489
O O6 0.881633 0.851646 0.393657
O O7 0.889987 0.831684 0.283368
O O8 0.885221 0.000000 0.329656
O O9 0.376222 0.123779 0.250000
O O10 0.385797 0.000000 0.327428
O O11 0.500000 0.906217 0.534350
O O12 0.591298 0.780023 0.571583
O O13 0.694120 0.905711 0.557160
O O14 0.645229 0.500000 0.397864
O O15 0.715859 0.607213 0.324566
O O16 0.169152 0.830849 0.500000
O O17 0.000000 0.826661 0.473801
O O18 0.825047 0.325047 0.250000
O O19 0.000000 0.287953 0.247840
#
# Coordination Sequence:
#
# PCOD9559379 Si02
#       7
#    16  16  16  16  16  16  16
#     4  11  22  36  58  87 121 162 207 260 321 383
#     4  11  24  42  65  92 124 165 213 264 318 382
#     4  11  23  39  61  89 124 167 213 263 321 386
#     4  10  22  41  65  91 121 162 213 267 322 383
#     4  10  21  38  60  86 117 156 205 260 320 386
#     4  12  25  41  64  93 129 172 215 263 320 384
#     4  11  23  39  62  90 122 162 206 258 320 383
#
# _framework density 21.008543
#
# number of rings (size 3 to 8) (size 9 to 14) (size 15 to 20)
#    0.000    1.143    0.000    7.286    0.000    7.000 
#    0.000    2.857    0.000    6.857    0.000    0.000 
#    0.000    0.000    0.000    0.000    0.000    0.000 
#
# Total GULP energy -312590.252623 kJ/mol
# GULP energy per Si atom -5581.968797 kJ/mol
# Density = 2.096073 g / cm^3
# Si number density = 21.008543 Si / 1000 Ang^3
#
#
#
# Elastic Constant Matrix: (Units=GPa)
#
#
# Indices 1 2 3 4 5 6 
#
# 1 71.2850 75.8553 1.5208 0.0000 0.0000 0.0001
# 2 75.8553 71.2839 1.5232 0.0000 0.0000 -0.0004
# 3 1.5208 1.5232 71.1979 0.0000 0.0000 -0.0004
# 4 0.0000 0.0000 0.0000 24.3002 0.0000 -0.0005
# 5 0.0000 0.0000 0.0000 0.0000 24.3154 -0.0002
# 6 0.0001 -0.0004 -0.0004 -0.0005 -0.0002**********
#
#
#
# Elastic Compliance Matrix: (Units=1/GPa)
#
#
# Indices 1 2 3 4 5 6 
#
# 1 -0.105990 0.112790 -0.000149 0.000000 0.000000 0.000000
# 2 0.112790 -0.105992 -0.000142 0.000000 0.000000 0.000000
# 3 -0.000149 -0.000142 0.014052 0.000000 0.000000 0.000000
# 4 0.000000 0.000000 0.000000 0.041152 0.000000 0.000000
# 5 0.000000 0.000000 0.000000 0.000000 0.041126 0.000000
# 6 0.000000 0.000000 0.000000 0.000000 0.000000 0.000009
#
#
# Mechanical properties :
#
#
# Convention : Reuss Voigt Hill
#
# Bulk Modulus (GPa) = 36.94299 41.28503 39.11401
# Shear Modulus (GPa) = -15.07754 22482.62981 11233.77613
#
# Velocity S-wave (km/s) = -2.68187 103.56106 73.20417
# Velocity P-wave (km/s) = 2.83425 119.66433 84.63919
#
# Compressibility (1/GPa) = 0.02706873
#
# Stress axis : x y z
#
# Youngs Moduli (GPa) = -9.43486 -9.43470 71.16637
#
# Poissons Ratio (x) = 1.06414 0.01061
# Poissons Ratio (y) = 1.06416 0.01008
# Poissons Ratio (z) = -0.00141 -0.00134
#
# Static dielectric constant tensor:
#      x y z
#    x 1.112960 0.000000 0.000000 
#    y 0.000000 1.113860 0.000000 
#    z 0.000000 0.000000 1.878940 
# 
# From -- ./inp_files/8824.got.cif
#   From: 2010.05.17/outbox.cif.g08.bks.cpg/sg119_5_cif.got.tgz:8824.got - 2010.05.20 11:21:29.
