data_PCOD9559941
_publ_section_title
;
Structure prediction by ZEFSAII (Michael W. Deem and Ramdas Pophale) SiO2 
 PCOD9559941
Probable space group: I -4 C 2
;
_chemical_formula_sum "Si O2"
_cell_formula_units_Z 88
_cell_length_a 11.375259
_cell_length_b 11.375259
_cell_length_c 28.944586
_cell_angle_alpha 90.000000
_cell_angle_beta 90.000000
_cell_angle_gamma 90.000000
_cell_volume 3745.328624
_symmetry_space_group_name_H-M "I -4 C 2"
_symmetry_group_IT_number 120
_symmetry_cell_setting 'tetragonal'
loop_
_space_group_symop_operation_xyz
x,y,z
y,-x,-z
-x,-y,z
-y,x,-z
y,x,1/2-z
-y,-x,1/2-z
-x,y,1/2+z
x,-y,1/2+z
1/2+x,1/2+y,1/2+z
1/2+y,1/2-x,1/2-z
1/2-x,1/2-y,1/2+z
1/2-y,1/2+x,1/2-z
1/2+y,1/2+x,-z
1/2-y,1/2-x,-z
1/2-x,1/2+y,z
1/2+x,1/2-y,z
loop_
_atom_site_type_symbol
_atom_site_label
_atom_site_fract_x
_atom_site_fract_y
_atom_site_fract_z
Si Si1 0.682160 0.562251 0.509702
Si Si2 0.500000 0.000000 0.362962
Si Si3 0.857517 0.681287 0.574679
Si Si4 0.583209 0.790991 0.299006
Si Si5 0.208571 0.931670 0.782733
Si Si6 0.580446 0.603437 0.135880
O O1 0.638488 0.428363 0.508745
O O2 0.737484 0.618814 0.556391
O O3 0.782474 0.572386 0.471207
O O4 0.593102 0.066404 0.394974
O O5 0.449480 0.097527 0.329161
O O6 0.852919 0.803753 0.603154
O O7 0.722074 0.811035 0.292601
O O8 0.518450 0.784411 0.249880
O O9 0.552024 0.678254 0.329691
O O10 0.099472 0.900529 0.750000
O O11 0.173823 0.993504 0.829989
O O12 0.500000 0.500000 0.113544
#
# Coordination Sequence:
#
# PCOD9559941 Si02
#       6
#    16   8  16  16  16  16
#     4  10  26  51  81 114 152 196 247 315 401 494
#     4  12  28  48  72 114 150 204 264 327 395 468
#     4  11  28  48  78 113 153 200 254 324 401 478
#     4  12  27  44  70 103 156 205 268 324 392 460
#     4  12  24  46  70 104 151 209 267 325 395 459
#     4  12  27  47  76 113 153 207 266 332 392 478
#
# _framework density 23.495936
#
# number of rings (size 3 to 8) (size 9 to 14) (size 15 to 20)
#    0.000    0.545    3.636    2.727   10.182    2.909 
#    0.000    0.000    0.000    0.000    0.000    0.000 
#    0.000    0.000    0.000    0.000    0.000    0.000 
#
# Total GULP energy -246063.733998 kJ/mol
# GULP energy per Si atom -5592.357591 kJ/mol
# Density = 2.344246 g / cm^3
# Si number density = 23.495936 Si / 1000 Ang^3
#
#
#
# Elastic Constant Matrix: (Units=GPa)
#
#
# Indices 1 2 3 4 5 6 
#
# 1 91.2142 47.3023 38.1573 0.0000 0.0000 0.0000
# 2 47.3023 91.2136 38.1573 0.0000 0.0000 0.0000
# 3 38.1573 38.1573 103.4144 0.0000 0.0000 0.0000
# 4 0.0000 0.0000 0.0000 47.8633 0.0000 0.0000
# 5 0.0000 0.0000 0.0000 0.0000 47.8631 0.0000
# 6 0.0000 0.0000 0.0000 0.0000 0.0000 33.4543
#
#
#
# Elastic Compliance Matrix: (Units=1/GPa)
#
#
# Indices 1 2 3 4 5 6 
#
# 1 0.015917 -0.006856 -0.003343 0.000000 0.000000 0.000000
# 2 -0.006856 0.015917 -0.003343 0.000000 0.000000 0.000000
# 3 -0.003343 -0.003343 0.012137 0.000000 0.000000 0.000000
# 4 0.000000 0.000000 0.000000 0.020893 0.000000 0.000000
# 5 0.000000 0.000000 0.000000 0.000000 0.020893 0.000000
# 6 0.000000 0.000000 0.000000 0.000000 0.000000 0.029892
#
#
# Mechanical properties :
#
#
# Convention : Reuss Voigt Hill
#
# Bulk Modulus (GPa) = 59.21992 59.23069 59.22530
# Shear Modulus (GPa) = 33.70112 36.65114 35.17613
#
# Velocity S-wave (km/s) = 3.79137 3.95383 3.87346
# Velocity P-wave (km/s) = 6.66521 6.79024 6.72802
#
# Compressibility (1/GPa) = 0.01688621
#
# Stress axis : x y z
#
# Youngs Moduli (GPa) = 62.82525 62.82475 82.39183
#
# Poissons Ratio (x) = 0.43071 0.27547
# Poissons Ratio (y) = 0.43072 0.27547
# Poissons Ratio (z) = 0.21005 0.21005
#
# Static dielectric constant tensor:
#      x y z
#    x 1.912770 0.000000 0.000000 
#    y 0.000000 1.912770 0.000000 
#    z 0.000000 0.000000 1.901120 
# 
# From -- ./inp_files/6599.got.cif
#   From: 2010.05.17/outbox.cif.g08.bks.cpg/sg120_4_cif.got.tgz:6599.got - 2010.05.20 11:28:13.
