data_PCOD9559125
_publ_section_title
;
Structure prediction by ZEFSAII (Michael W. Deem and Ramdas Pophale) SiO2 
 PCOD9559125
Probable space group: I -4 M 2
;
_chemical_formula_sum "Si O2"
_cell_formula_units_Z 128
_cell_length_a 24.236946
_cell_length_b 24.236946
_cell_length_c 14.046443
_cell_angle_alpha 90.000000
_cell_angle_beta 90.000000
_cell_angle_gamma 90.000000
_cell_volume 8251.295710
_symmetry_space_group_name_H-M "I -4 M 2"
_symmetry_group_IT_number 119
_symmetry_cell_setting 'tetragonal'
loop_
_space_group_symop_operation_xyz
x,y,z
y,-x,-z
-x,-y,z
-y,x,-z
y,x,-z
-y,-x,-z
-x,y,z
x,-y,z
1/2+x,1/2+y,1/2+z
1/2+y,1/2-x,1/2-z
1/2-x,1/2-y,1/2+z
1/2-y,1/2+x,1/2-z
1/2+y,1/2+x,1/2-z
1/2-y,1/2-x,1/2-z
1/2-x,1/2+y,1/2+z
1/2+x,1/2-y,1/2+z
loop_
_atom_site_type_symbol
_atom_site_label
_atom_site_fract_x
_atom_site_fract_y
_atom_site_fract_z
Si Si1 0.748247 0.564909 0.151627
Si Si2 0.349816 0.755271 0.236403
Si Si3 0.355911 0.063250 0.778035
Si Si4 0.355909 0.436750 0.471963
Si Si5 0.849816 0.755272 0.513598
Si Si6 0.859786 0.303111 0.064029
Si Si7 0.303110 0.640214 0.314028
Si Si8 0.935091 0.748245 0.901629
O O1 0.734983 0.500000 0.147283
O O2 0.811323 0.569097 0.191938
O O3 0.714108 0.598136 0.231142
O O4 0.736939 0.596740 0.053337
O O5 0.303453 0.803453 0.250000
O O6 0.362840 0.750000 0.125000
O O7 0.326957 0.696057 0.271173
O O8 0.403259 0.763062 0.303339
O O9 0.416496 0.083505 0.750000
O O10 0.338486 0.105052 0.861266
O O11 0.353090 0.000000 0.809188
O O12 0.416493 0.416493 0.500000
O O13 0.353090 0.500000 0.440812
O O14 0.338484 0.394949 0.388730
O O15 0.311321 0.430902 0.558060
O O16 0.803453 0.803453 0.500000
O O17 0.826958 0.696057 0.478826
O O18 0.842441 0.250000 0.125000
O O19 0.901865 0.285895 0.981143
O O20 0.000000 0.734982 0.897283
#
# Coordination Sequence:
#
# PCOD9559125 Si02
#       8
#    16  16  16  16  16  16  16  16
#     4  10  21  36  52  74 106 141 177 216 263 320
#     4  12  22  33  53  81 106 137 177 218 271 319
#     4  10  19  33  54  78 105 142 179 215 262 315
#     4  10  19  33  54  78 105 142 179 215 262 315
#     4  12  22  33  53  81 106 137 177 218 271 319
#     4  10  20  33  53  76 108 139 170 214 267 324
#     4  10  20  33  53  76 108 139 170 214 267 324
#     4  10  21  36  52  74 106 141 177 216 263 320
#
# _framework density 15.512715999999999
#
# number of rings (size 3 to 8) (size 9 to 14) (size 15 to 20)
#    0.000    1.500    5.000    1.500    0.000    3.750 
#    0.000    0.000    0.000    0.000    0.000    0.000 
#    0.000    2.500    0.000    0.000    0.000    0.000 
#
# Total GULP energy -356626.268999 kJ/mol
# GULP energy per Si atom -5572.285453 kJ/mol
# Density = 1.547741 g / cm^3
# Si number density = 15.512716 Si / 1000 Ang^3
#
#
#
# Elastic Constant Matrix: (Units=GPa)
#
#
# Indices 1 2 3 4 5 6 
#
# 1 59.0933 4.8723 15.1217 0.0000 0.0000 0.0000
# 2 4.8723 59.0944 15.1223 0.0000 0.0000 0.0000
# 3 15.1217 15.1223 103.4708 0.0000 0.0000 0.0000
# 4 0.0000 0.0000 0.0000 33.0103 0.0000 0.0000
# 5 0.0000 0.0000 0.0000 0.0000 33.0043 0.0000
# 6 0.0000 0.0000 0.0000 0.0000 0.0000 10.7714
#
#
#
# Elastic Compliance Matrix: (Units=1/GPa)
#
#
# Indices 1 2 3 4 5 6 
#
# 1 0.017618 -0.000825 -0.002454 0.000000 0.000000 0.000000
# 2 -0.000825 0.017618 -0.002454 0.000000 0.000000 0.000000
# 3 -0.002454 -0.002454 0.010382 0.000000 0.000000 0.000000
# 4 0.000000 0.000000 0.000000 0.030294 0.000000 0.000000
# 5 0.000000 0.000000 0.000000 0.000000 0.030299 0.000000
# 6 0.000000 0.000000 0.000000 0.000000 0.000000 0.092838
#
#
# Mechanical properties :
#
#
# Convention : Reuss Voigt Hill
#
# Bulk Modulus (GPa) = 29.28091 32.43236 30.85663
# Shear Modulus (GPa) = 22.53265 27.79336 25.16300
#
# Velocity S-wave (km/s) = 3.81534 4.23738 4.03189
# Velocity P-wave (km/s) = 6.19076 6.70021 6.45052
#
# Compressibility (1/GPa) = 0.03415195
#
# Stress axis : x y z
#
# Youngs Moduli (GPa) = 56.75872 56.75965 96.32096
#
# Poissons Ratio (x) = 0.04680 0.23640
# Poissons Ratio (y) = 0.04680 0.23641
# Poissons Ratio (z) = 0.13930 0.13931
#
# Static dielectric constant tensor:
#      x y z
#    x 1.514810 0.000000 0.000000 
#    y 0.000000 1.514810 0.000000 
#    z 0.000000 0.000000 1.516250 
# 
# From -- ./inp_files/4451.got.cif
#   From: 2010.05.17/outbox.cif.g08.bks.cpg/sg119_3_cif.got.tgz:4451.got - 2010.05.20 11:21:29.
