data_PCOD9559614
_publ_section_title
;
Structure prediction by ZEFSAII (Michael W. Deem and Ramdas Pophale) SiO2 
 PCOD9559614
Probable space group: I -4 C 2
;
_chemical_formula_sum "Si O2"
_cell_formula_units_Z 64
_cell_length_a 25.971937
_cell_length_b 25.971937
_cell_length_c 5.395129
_cell_angle_alpha 90.000000
_cell_angle_beta 90.000000
_cell_angle_gamma 90.000000
_cell_volume 3639.238471
_symmetry_space_group_name_H-M "I -4 C 2"
_symmetry_group_IT_number 120
_symmetry_cell_setting 'tetragonal'
loop_
_space_group_symop_operation_xyz
x,y,z
y,-x,-z
-x,-y,z
-y,x,-z
y,x,1/2-z
-y,-x,1/2-z
-x,y,1/2+z
x,-y,1/2+z
1/2+x,1/2+y,1/2+z
1/2+y,1/2-x,1/2-z
1/2-x,1/2-y,1/2+z
1/2-y,1/2+x,1/2-z
1/2+y,1/2+x,-z
1/2-y,1/2-x,-z
1/2-x,1/2+y,z
1/2+x,1/2-y,z
loop_
_atom_site_type_symbol
_atom_site_label
_atom_site_fract_x
_atom_site_fract_y
_atom_site_fract_z
Si Si1 0.755781 0.325818 0.750000
Si Si2 0.765765 0.532769 0.750001
Si Si3 0.378140 0.148799 0.750000
Si Si4 0.793472 0.874064 0.250000
O O1 0.732066 0.267935 0.750000
O O2 0.817452 0.332712 0.750000
O O3 0.733377 0.352546 0.502234
O O4 0.733377 0.352546 0.997766
O O5 0.771059 0.500000 0.500002
O O6 0.807385 0.578977 0.750000
O O7 0.712660 0.564854 0.750000
O O8 0.383090 0.116911 0.500000
O O9 0.383090 0.116911 0.000000
O O10 0.850089 0.850089 0.250000
#
# Coordination Sequence:
#
# PCOD9559614 Si02
#       4
#    16  16  16  16
#     4  10  19  32  54  83 110 142 179 214 257 322
#     4  12  24  37  53  78 117 152 184 227 277 319
#     4  12  21  35  54  75 109 148 185 223 254 325
#     4  10  20  36  56  80 112 152 185 217 263 329
#
# _framework density 17.586098
#
# number of rings (size 3 to 8) (size 9 to 14) (size 15 to 20)
#    0.000    1.000    5.000    3.000    0.000    2.000 
#    0.000    0.000    0.000    0.000    0.000    0.000 
#    0.000   38.000    0.000    0.000    0.000    0.000 
#
# Total GULP energy -178545.324102 kJ/mol
# GULP energy per Si atom -5579.541378 kJ/mol
# Density = 1.754607 g / cm^3
# Si number density = 17.586098 Si / 1000 Ang^3
#
#
#
# Elastic Constant Matrix: (Units=GPa)
#
#
# Indices 1 2 3 4 5 6 
#
# 1 196.4655 -90.3263 37.9301 0.0000 0.0000 0.0000
# 2 -90.3263 196.4870 37.9343 0.0000 0.0000 0.0000
# 3 37.9301 37.9343 188.2131 0.0000 0.0000 0.0000
# 4 0.0000 0.0000 0.0000 18.2305 0.0000 0.0000
# 5 0.0000 0.0000 0.0000 0.0000 18.2308 0.0000
# 6 0.0000 0.0000 0.0000 0.0000 0.0000 19.3397
#
#
#
# Elastic Compliance Matrix: (Units=1/GPa)
#
#
# Indices 1 2 3 4 5 6 
#
# 1 0.007247 0.003760 -0.002218 0.000000 0.000000 0.000000
# 2 0.003760 0.007246 -0.002218 0.000000 0.000000 0.000000
# 3 -0.002218 -0.002218 0.006207 0.000000 0.000000 0.000000
# 4 0.000000 0.000000 0.000000 0.054853 0.000000 0.000000
# 5 0.000000 0.000000 0.000000 0.000000 0.054852 0.000000
# 6 0.000000 0.000000 0.000000 0.000000 0.000000 0.051707
#
#
# Mechanical properties :
#
#
# Convention : Reuss Voigt Hill
#
# Bulk Modulus (GPa) = 51.68883 61.36020 56.52452
# Shear Modulus (GPa) = 26.32761 50.86869 38.59815
#
# Velocity S-wave (km/s) = 3.87340 5.38408 4.68996
# Velocity P-wave (km/s) = 7.03278 8.58010 7.84468
#
# Compressibility (1/GPa) = 0.01934654
#
# Stress axis : x y z
#
# Youngs Moduli (GPa) = 137.99411 138.00854 161.10338
#
# Poissons Ratio (x) = -0.51886 0.35735
# Poissons Ratio (y) = -0.51880 0.35734
# Poissons Ratio (z) = 0.30609 0.30611
#
# Static dielectric constant tensor:
#      x y z
#    x 1.617410 0.000000 0.000000 
#    y 0.000000 1.617410 0.000000 
#    z 0.000000 0.000000 1.725210 
# 
# From -- ./inp_files/360.got.cif
#   From: 2010.05.17/outbox.cif.g08.bks.cpg/sg120_1_cif.got.tgz:360.got - 2010.05.20 11:28:13.
