data_PCOD9559576
_publ_section_title
;
Structure prediction by ZEFSAII (Michael W. Deem and Ramdas Pophale) SiO2 
 PCOD9559576
Probable space group: I -4 C 2
;
_chemical_formula_sum "Si O2"
_cell_formula_units_Z 88
_cell_length_a 13.956894
_cell_length_b 13.956894
_cell_length_c 25.483877
_cell_angle_alpha 90.000000
_cell_angle_beta 90.000000
_cell_angle_gamma 90.000000
_cell_volume 4964.129020
_symmetry_space_group_name_H-M "I -4 C 2"
_symmetry_group_IT_number 120
_symmetry_cell_setting 'tetragonal'
loop_
_space_group_symop_operation_xyz
x,y,z
y,-x,-z
-x,-y,z
-y,x,-z
y,x,1/2-z
-y,-x,1/2-z
-x,y,1/2+z
x,-y,1/2+z
1/2+x,1/2+y,1/2+z
1/2+y,1/2-x,1/2-z
1/2-x,1/2-y,1/2+z
1/2-y,1/2+x,1/2-z
1/2+y,1/2+x,-z
1/2-y,1/2-x,-z
1/2-x,1/2+y,z
1/2+x,1/2-y,z
loop_
_atom_site_type_symbol
_atom_site_label
_atom_site_fract_x
_atom_site_fract_y
_atom_site_fract_z
Si Si1 0.929534 0.183891 0.683004
Si Si2 0.500000 0.500000 0.750000
Si Si3 0.000000 0.000000 0.500000
Si Si4 0.768529 0.877044 0.098007
Si Si5 0.765174 0.265174 0.500000
Si Si6 0.242137 0.242137 0.250000
Si Si7 0.673319 0.584387 0.068822
Si Si8 0.376486 0.750725 0.651176
O O1 0.856646 0.152990 0.636514
O O2 0.863548 0.241049 0.724194
O O3 0.011368 0.250989 0.660188
O O4 0.983356 0.092960 0.711518
O O5 0.052765 0.921019 0.463882
O O6 0.767546 0.821241 0.042434
O O7 0.670622 0.843281 0.124834
O O8 0.780323 0.988908 0.090847
O O9 0.749233 0.361485 0.532195
O O10 0.258483 0.320465 0.294301
O O11 0.645628 0.659941 0.113819
#
# Coordination Sequence:
#
# PCOD9559576 Si02
#       8
#    16   4   4  16   8   8  16  16
#     4  10  19  34  56  84 115 143 196 244 300 354
#     4  10  18  30  56  88 112 138 174 264 308 346
#     4  12  20  34  68  94 116 156 202 264 304 354
#     4  10  21  36  55  86 117 151 198 244 297 363
#     4  10  22  36  56  82 124 158 186 254 308 356
#     4   9  21  37  54  83 115 153 192 240 296 360
#     4  11  21  36  59  92 120 151 200 251 307 361
#     4  10  21  35  59  84 117 159 188 253 298 358
#
# _framework density 17.727177999999999
#
# number of rings (size 3 to 8) (size 9 to 14) (size 15 to 20)
#    0.000    1.818    1.818    2.727    0.000    2.909 
#    0.000    0.000    0.000   25.091    0.000    0.000 
#    0.000    0.000    0.000    0.000    0.000    0.000 
#
# Total GULP energy -245286.356689 kJ/mol
# GULP energy per Si atom -5574.689925 kJ/mol
# Density = 1.768683 g / cm^3
# Si number density = 17.727178 Si / 1000 Ang^3
#
#
#
# Elastic Constant Matrix: (Units=GPa)
#
#
# Indices 1 2 3 4 5 6 
#
# 1 83.0797 68.5791 41.4619 0.0000 0.0000 0.0000
# 2 68.5791 83.0797 41.4619 0.0000 0.0000 0.0000
# 3 41.4619 41.4619 96.9076 0.0000 0.0000 0.0000
# 4 0.0000 0.0000 0.0000 22.3470 0.0000 0.0000
# 5 0.0000 0.0000 0.0000 0.0000 22.3470 0.0000
# 6 0.0000 0.0000 0.0000 0.0000 0.0000 19.8610
#
#
#
# Elastic Compliance Matrix: (Units=1/GPa)
#
#
# Indices 1 2 3 4 5 6 
#
# 1 0.038785 -0.030178 -0.003683 0.000000 0.000000 0.000000
# 2 -0.030178 0.038785 -0.003683 0.000000 0.000000 0.000000
# 3 -0.003683 -0.003683 0.013470 0.000000 0.000000 0.000000
# 4 0.000000 0.000000 0.000000 0.044749 0.000000 0.000000
# 5 0.000000 0.000000 0.000000 0.000000 0.044749 0.000000
# 6 0.000000 0.000000 0.000000 0.000000 0.000000 0.050350
#
#
# Mechanical properties :
#
#
# Convention : Reuss Voigt Hill
#
# Bulk Modulus (GPa) = 62.67850 62.89698 62.78774
# Shear Modulus (GPa) = 16.06212 20.34861 18.20536
#
# Velocity S-wave (km/s) = 3.01337 3.39171 3.20812
# Velocity P-wave (km/s) = 6.89502 7.13413 7.01559
#
# Compressibility (1/GPa) = 0.01595444
#
# Stress axis : x y z
#
# Youngs Moduli (GPa) = 25.78322 25.78322 74.23718
#
# Poissons Ratio (x) = 0.77808 0.27339
# Poissons Ratio (y) = 0.77808 0.27339
# Poissons Ratio (z) = 0.09495 0.09495
#
# Static dielectric constant tensor:
#      x y z
#    x 1.582360 0.000000 0.000000 
#    y 0.000000 1.582360 0.000000 
#    z 0.000000 0.000000 1.666910 
# 
# From -- ./inp_files/5843.got.cif
#   From: 2010.05.17/outbox.cif.g08.bks.cpg/sg120_3_cif.got.tgz:5843.got - 2010.05.20 11:28:13.
