data_PCOD9559582
_publ_section_title
;
Structure prediction by ZEFSAII (Michael W. Deem and Ramdas Pophale) SiO2 
 PCOD9559582
Probable space group: I -4 C 2
;
_chemical_formula_sum "Si O2"
_cell_formula_units_Z 112
_cell_length_a 14.742475
_cell_length_b 14.742475
_cell_length_c 25.051118
_cell_angle_alpha 90.000000
_cell_angle_beta 90.000000
_cell_angle_gamma 90.000000
_cell_volume 5444.624243
_symmetry_space_group_name_H-M "I -4 C 2"
_symmetry_group_IT_number 120
_symmetry_cell_setting 'tetragonal'
loop_
_space_group_symop_operation_xyz
x,y,z
y,-x,-z
-x,-y,z
-y,x,-z
y,x,1/2-z
-y,-x,1/2-z
-x,y,1/2+z
x,-y,1/2+z
1/2+x,1/2+y,1/2+z
1/2+y,1/2-x,1/2-z
1/2-x,1/2-y,1/2+z
1/2-y,1/2+x,1/2-z
1/2+y,1/2+x,-z
1/2-y,1/2-x,-z
1/2-x,1/2+y,z
1/2+x,1/2-y,z
loop_
_atom_site_type_symbol
_atom_site_label
_atom_site_fract_x
_atom_site_fract_y
_atom_site_fract_z
Si Si1 0.640195 0.764413 0.348026
Si Si2 0.682545 0.371144 0.309174
Si Si3 0.417764 0.446132 0.606381
Si Si4 0.136189 0.439410 0.245290
Si Si5 0.463456 0.291185 0.049391
Si Si6 0.731051 0.577101 0.334419
Si Si7 0.795426 0.913499 0.541855
O O1 0.730037 0.819376 0.331693
O O2 0.565465 0.805619 0.308604
O O3 0.657932 0.657791 0.336574
O O4 0.620622 0.769681 0.410956
O O5 0.659886 0.340115 0.250000
O O6 0.601289 0.354835 0.350552
O O7 0.696551 0.480188 0.312884
O O8 0.500000 0.500000 0.634075
O O9 0.472096 0.373219 0.570659
O O10 0.360535 0.511656 0.569266
O O11 0.112231 0.541538 0.261715
O O12 0.191420 0.394132 0.293426
O O13 0.439117 0.238986 0.104109
O O14 0.367904 0.333065 0.027878
O O15 0.530095 0.248437 0.005533
#
# Coordination Sequence:
#
# PCOD9559582 Si02
#       7
#    16  16  16  16  16  16  16
#     4  11  24  39  64  94 124 169 213 268 322 379
#     4  11  23  41  56  87 134 163 201 267 325 380
#     4   9  19  33  56  89 117 157 201 249 317 391
#     4  11  23  42  67  88 119 172 221 259 308 383
#     4   9  17  33  57  87 123 160 200 257 317 378
#     4  10  22  40  61  89 126 162 208 261 325 379
#     4  10  18  32  60  88 122 163 208 253 319 389
#
# _framework density 20.570748999999999
#
# number of rings (size 3 to 8) (size 9 to 14) (size 15 to 20)
#    0.000    1.857    2.857    2.143    2.000    0.286 
#    5.143    2.857    0.000    2.571    0.000    2.000 
#    0.000    0.000    0.000    0.000    0.000    0.000 
#
# Total GULP energy -312390.246412 kJ/mol
# GULP energy per Si atom -5578.397257 kJ/mol
# Density = 2.052393 g / cm^3
# Si number density = 20.570749 Si / 1000 Ang^3
#
#
#
# Elastic Constant Matrix: (Units=GPa)
#
#
# Indices 1 2 3 4 5 6 
#
# 1 51.8110 2.4310 23.6974 0.0000 0.0000 0.0000
# 2 2.4310 51.8111 23.6972 0.0000 0.0000 0.0000
# 3 23.6974 23.6972 96.0446 0.0000 0.0000 0.0000
# 4 0.0000 0.0000 0.0000 29.8066 0.0000 0.0000
# 5 0.0000 0.0000 0.0000 0.0000 29.8067 0.0000
# 6 0.0000 0.0000 0.0000 0.0000 0.0000 17.7410
#
#
#
# Elastic Compliance Matrix: (Units=1/GPa)
#
#
# Indices 1 2 3 4 5 6 
#
# 1 0.021877 0.001626 -0.005799 0.000000 0.000000 0.000000
# 2 0.001626 0.021877 -0.005799 0.000000 0.000000 0.000000
# 3 -0.005799 -0.005799 0.013273 0.000000 0.000000 0.000000
# 4 0.000000 0.000000 0.000000 0.033550 0.000000 0.000000
# 5 0.000000 0.000000 0.000000 0.000000 0.033550 0.000000
# 6 0.000000 0.000000 0.000000 0.000000 0.000000 0.056367
#
#
# Mechanical properties :
#
#
# Convention : Reuss Voigt Hill
#
# Bulk Modulus (GPa) = 26.96633 33.25755 30.11194
# Shear Modulus (GPa) = 23.49646 25.46026 24.47836
#
# Velocity S-wave (km/s) = 3.38335 3.52190 3.45332
# Velocity P-wave (km/s) = 5.32919 5.72197 5.52907
#
# Compressibility (1/GPa) = 0.03708328
#
# Stress axis : x y z
#
# Youngs Moduli (GPa) = 45.71025 45.71038 75.33888
#
# Poissons Ratio (x) = -0.07432 0.43688
# Poissons Ratio (y) = -0.07432 0.43688
# Poissons Ratio (z) = 0.26507 0.26507
#
# Static dielectric constant tensor:
#      x y z
#    x 1.765820 0.000000 0.000000 
#    y 0.000000 1.765810 0.000000 
#    z 0.000000 0.000000 1.801210 
# 
# From -- ./inp_files/6303.got.cif
#   From: 2010.05.17/outbox.cif.g08.bks.cpg/sg120_4_cif.got.tgz:6303.got - 2010.05.20 11:28:13.
