data_PCOD9559369
_publ_section_title
;
Structure prediction by ZEFSAII (Michael W. Deem and Ramdas Pophale) SiO2 
 PCOD9559369
Probable space group: I -4 M 2
;
_chemical_formula_sum "Si O2"
_cell_formula_units_Z 104
_cell_length_a 18.235456
_cell_length_b 18.235456
_cell_length_c 15.789777
_cell_angle_alpha 90.000000
_cell_angle_beta 90.000000
_cell_angle_gamma 90.000000
_cell_volume 5250.603844
_symmetry_space_group_name_H-M "I -4 M 2"
_symmetry_group_IT_number 119
_symmetry_cell_setting 'tetragonal'
loop_
_space_group_symop_operation_xyz
x,y,z
y,-x,-z
-x,-y,z
-y,x,-z
y,x,-z
-y,-x,-z
-x,y,z
x,-y,z
1/2+x,1/2+y,1/2+z
1/2+y,1/2-x,1/2-z
1/2-x,1/2-y,1/2+z
1/2-y,1/2+x,1/2-z
1/2+y,1/2+x,1/2-z
1/2-y,1/2-x,1/2-z
1/2-x,1/2+y,1/2+z
1/2+x,1/2-y,1/2+z
loop_
_atom_site_type_symbol
_atom_site_label
_atom_site_fract_x
_atom_site_fract_y
_atom_site_fract_z
Si Si1 0.737313 0.922368 0.263672
Si Si2 0.869833 0.586147 0.345444
Si Si3 0.578260 0.921741 0.250000
Si Si4 0.792527 0.083315 0.900625
Si Si5 0.270920 0.913358 0.547235
Si Si6 0.681983 0.723200 0.108938
Si Si7 0.725798 0.368097 0.591629
O O1 0.654373 0.920969 0.299032
O O2 0.775587 0.851120 0.298263
O O3 0.733410 0.914359 0.162764
O O4 0.772099 0.000000 0.285561
O O5 0.885787 0.500000 0.367193
O O6 0.898238 0.601763 0.250000
O O7 0.781402 0.594514 0.346851
O O8 0.899397 0.647555 0.412481
O O9 0.500000 0.920650 0.297140
O O10 0.856814 0.140992 0.884011
O O11 0.816648 0.000000 0.891081
O O12 0.769295 0.098439 0.998558
O O13 0.251663 0.884201 0.452232
O O14 0.216568 0.856158 0.594229
O O15 0.255833 0.000000 0.554544
O O16 0.742238 0.785691 0.093554
#
# Coordination Sequence:
#
# PCOD9559369 Si02
#       7
#    16  16   8  16  16  16  16
#     4  11  22  36  61  89 121 157 188 239 300 349
#     4  11  23  38  57  87 124 157 195 239 289 350
#     4   9  18  32  50  82 122 152 180 215 274 350
#     4  10  21  37  60  86 117 153 194 244 294 343
#     4  11  23  40  62  83 116 159 197 244 301 348
#     4  11  21  40  59  89 118 148 202 249 283 349
#     4  11  19  38  62  87 118 152 199 244 284 351
#
# _framework density 19.807245000000002
#
# number of rings (size 3 to 8) (size 9 to 14) (size 15 to 20)
#    0.000    1.308    4.615    2.308    2.154    1.077 
#    0.000    0.769    0.000   18.462    0.000    0.000 
#    0.000    0.000    0.000    0.000    0.000    0.000 
#
# Total GULP energy -289544.038648 kJ/mol
# GULP energy per Si atom -5568.154589 kJ/mol
# Density = 1.976216 g / cm^3
# Si number density = 19.807245 Si / 1000 Ang^3
#
#
#
# Elastic Constant Matrix: (Units=GPa)
#
#
# Indices 1 2 3 4 5 6 
#
# 1 108.1512 39.7404 16.0170 0.0000 0.0000 0.0000
# 2 39.7404 108.1518 16.0174 0.0000 0.0000 0.0000
# 3 16.0170 16.0174 45.0180 0.0000 0.0000 0.0000
# 4 0.0000 0.0000 0.0000 18.7388 0.0000 0.0000
# 5 0.0000 0.0000 0.0000 0.0000 18.7395 0.0000
# 6 0.0000 0.0000 0.0000 0.0000 0.0000 21.3803
#
#
#
# Elastic Compliance Matrix: (Units=1/GPa)
#
#
# Indices 1 2 3 4 5 6 
#
# 1 0.010972 -0.003646 -0.002607 0.000000 0.000000 0.000000
# 2 -0.003646 0.010972 -0.002607 0.000000 0.000000 0.000000
# 3 -0.002607 -0.002607 0.024068 0.000000 0.000000 0.000000
# 4 0.000000 0.000000 0.000000 0.053365 0.000000 0.000000
# 5 0.000000 0.000000 0.000000 0.000000 0.053363 0.000000
# 6 0.000000 0.000000 0.000000 0.000000 0.000000 0.046772
#
#
# Mechanical properties :
#
#
# Convention : Reuss Voigt Hill
#
# Bulk Modulus (GPa) = 35.34296 44.98563 40.16429
# Shear Modulus (GPa) = 22.05931 24.40814 23.23373
#
# Velocity S-wave (km/s) = 3.34083 3.51420 3.42861
# Velocity P-wave (km/s) = 5.72396 6.26316 5.99962
#
# Compressibility (1/GPa) = 0.02829418
#
# Stress axis : x y z
#
# Youngs Moduli (GPa) = 91.14168 91.14198 41.54857
#
# Poissons Ratio (x) = 0.33227 0.10830
# Poissons Ratio (y) = 0.33227 0.10831
# Poissons Ratio (z) = 0.23757 0.23758
#
# Static dielectric constant tensor:
#      x y z
#    x 1.707290 0.000000 0.000000 
#    y 0.000000 1.707290 0.000000 
#    z 0.000000 0.000000 1.749070 
# 
# From -- ./inp_files/6707.got.cif
#   From: 2010.05.17/outbox.cif.g08.bks.cpg/sg119_4_cif.got.tgz:6707.got - 2010.05.20 11:21:29.
