data_PCOD9559035
_publ_section_title
;
Structure prediction by ZEFSAII (Michael W. Deem and Ramdas Pophale) SiO2 
 PCOD9559035
Probable space group: I -4 M 2
;
_chemical_formula_sum "Si O2"
_cell_formula_units_Z 44
_cell_length_a 15.032656
_cell_length_b 15.032656
_cell_length_c 9.850238
_cell_angle_alpha 90.000000
_cell_angle_beta 90.000000
_cell_angle_gamma 90.000000
_cell_volume 2225.964136
_symmetry_space_group_name_H-M "I -4 M 2"
_symmetry_group_IT_number 119
_symmetry_cell_setting 'tetragonal'
loop_
_space_group_symop_operation_xyz
x,y,z
y,-x,-z
-x,-y,z
-y,x,-z
y,x,-z
-y,-x,-z
-x,y,z
x,-y,z
1/2+x,1/2+y,1/2+z
1/2+y,1/2-x,1/2-z
1/2-x,1/2-y,1/2+z
1/2-y,1/2+x,1/2-z
1/2+y,1/2+x,1/2-z
1/2-y,1/2-x,1/2-z
1/2-x,1/2+y,1/2+z
1/2+x,1/2-y,1/2+z
loop_
_atom_site_type_symbol
_atom_site_label
_atom_site_fract_x
_atom_site_fract_y
_atom_site_fract_z
Si Si1 0.211155 0.500000 0.574121
Si Si2 0.200768 0.680979 0.906281
Si Si3 0.625091 0.500000 0.418804
Si Si4 0.500000 0.500000 0.830792
Si Si5 0.297915 0.500000 0.872420
O O1 0.163324 0.404973 0.576809
O O2 0.271394 0.500000 0.439930
O O3 0.274388 0.500000 0.709735
O O4 0.210815 0.710815 0.750000
O O5 0.253812 0.589565 0.928543
O O6 0.242359 0.757642 0.000000
O O7 0.583483 0.416518 0.500000
O O8 0.585667 0.500000 0.269644
O O9 0.403065 0.500000 0.897011
#
# Coordination Sequence:
#
# PCOD9559035 Si02
#       5
#     8  16   8   4   8
#     4  10  18  34  58  84 114 160 210 265 296 355
#     4  10  23  39  60  88 122 161 210 256 315 375
#     4   9  14  24  51  82 115 135 206 262 298 327
#     4  10  19  30  57  92 120 162 196 260 318 380
#     4  10  21  36  53  86 128 160 195 253 324 378
#
# _framework density 19.766715999999999
#
# number of rings (size 3 to 8) (size 9 to 14) (size 15 to 20)
#    0.000    2.364    3.636    1.091    5.091    2.182 
#    0.000    5.455    0.000    0.000    0.000    2.545 
#    0.000    0.000    0.000    0.000    0.000    0.000 
#
# Total GULP energy -122727.089212 kJ/mol
# GULP energy per Si atom -5578.504055 kJ/mol
# Density = 1.972173 g / cm^3
# Si number density = 19.766716 Si / 1000 Ang^3
#
#
#
# Elastic Constant Matrix: (Units=GPa)
#
#
# Indices 1 2 3 4 5 6 
#
# 1 129.3007 77.8325 32.5654 0.0000 0.0000 0.0000
# 2 77.8325 129.2999 32.5628 0.0000 0.0000 0.0000
# 3 32.5654 32.5628 48.2997 0.0000 0.0000 0.0000
# 4 0.0000 0.0000 0.0000 17.8740 0.0000 0.0000
# 5 0.0000 0.0000 0.0000 0.0000 17.8743 0.0000
# 6 0.0000 0.0000 0.0000 0.0000 0.0000 8.4608
#
#
#
# Elastic Compliance Matrix: (Units=1/GPa)
#
#
# Indices 1 2 3 4 5 6 
#
# 1 0.012778 -0.006652 -0.004131 0.000000 0.000000 0.000000
# 2 -0.006652 0.012778 -0.004130 0.000000 0.000000 0.000000
# 3 -0.004131 -0.004130 0.026274 0.000000 0.000000 0.000000
# 4 0.000000 0.000000 0.000000 0.055947 0.000000 0.000000
# 5 0.000000 0.000000 0.000000 0.000000 0.055946 0.000000
# 6 0.000000 0.000000 0.000000 0.000000 0.000000 0.118192
#
#
# Mechanical properties :
#
#
# Convention : Reuss Voigt Hill
#
# Bulk Modulus (GPa) = 45.44500 65.86909 55.65704
# Shear Modulus (GPa) = 15.67023 19.77112 17.72067
#
# Velocity S-wave (km/s) = 2.81865 3.16606 2.99739
# Velocity P-wave (km/s) = 5.79945 6.83819 6.34013
#
# Compressibility (1/GPa) = 0.02200462
#
# Stress axis : x y z
#
# Youngs Moduli (GPa) = 78.25782 78.25975 38.06063
#
# Poissons Ratio (x) = 0.52055 0.15724
# Poissons Ratio (y) = 0.52053 0.15719
# Poissons Ratio (z) = 0.32330 0.32321
#
# Static dielectric constant tensor:
#      x y z
#    x 1.708500 0.000000 0.000000 
#    y 0.000000 1.708500 0.000000 
#    z 0.000000 0.000000 1.770760 
# 
# From -- ./inp_files/3379.got.cif
#   From: 2010.05.17/outbox.cif.g08.bks.cpg/sg119_2_cif.got.tgz:3379.got - 2010.05.20 11:21:29.
