data_PCOD9559358
_publ_section_title
;
Structure prediction by ZEFSAII (Michael W. Deem and Ramdas Pophale) SiO2 
 PCOD9559358
Probable space group: I -4 M 2
;
_chemical_formula_sum "Si O2"
_cell_formula_units_Z 120
_cell_length_a 17.875556
_cell_length_b 17.875556
_cell_length_c 20.114354
_cell_angle_alpha 90.000000
_cell_angle_beta 90.000000
_cell_angle_gamma 90.000000
_cell_volume 6427.250209
_symmetry_space_group_name_H-M "I -4 M 2"
_symmetry_group_IT_number 119
_symmetry_cell_setting 'tetragonal'
loop_
_space_group_symop_operation_xyz
x,y,z
y,-x,-z
-x,-y,z
-y,x,-z
y,x,-z
-y,-x,-z
-x,y,z
x,-y,z
1/2+x,1/2+y,1/2+z
1/2+y,1/2-x,1/2-z
1/2-x,1/2-y,1/2+z
1/2-y,1/2+x,1/2-z
1/2+y,1/2+x,1/2-z
1/2-y,1/2-x,1/2-z
1/2-x,1/2+y,1/2+z
1/2+x,1/2-y,1/2+z
loop_
_atom_site_type_symbol
_atom_site_label
_atom_site_fract_x
_atom_site_fract_y
_atom_site_fract_z
Si Si1 0.311757 0.703883 0.289719
Si Si2 0.087942 0.587942 0.750000
Si Si3 0.688056 0.811250 0.521273
Si Si4 0.173765 0.088556 0.559343
Si Si5 0.089571 0.175556 0.668163
Si Si6 0.338368 0.831687 0.124759
Si Si7 0.912791 0.758853 0.133621
Si Si8 0.589492 0.416656 0.573128
O O1 0.268516 0.768516 0.250000
O O2 0.380982 0.679658 0.243941
O O3 0.329805 0.750391 0.356531
O O4 0.252224 0.638046 0.301571
O O5 0.102347 0.500000 0.756169
O O6 0.116688 0.625956 0.817982
O O7 0.742445 0.742445 0.500000
O O8 0.745711 0.870765 0.553612
O O9 0.651459 0.842830 0.453397
O O10 0.626156 0.784199 0.573273
O O11 0.123834 0.123834 0.500000
O O12 0.131425 0.110553 0.627447
O O13 0.180521 0.000000 0.551708
O O14 0.120838 0.251549 0.633983
O O15 0.000000 0.171039 0.664347
O O16 0.901649 0.848835 0.123225
O O17 0.000000 0.742697 0.138925
O O18 0.612033 0.387968 0.500000
O O19 0.500000 0.424907 0.566926
O O20 0.620379 0.500000 0.587818
#
# Coordination Sequence:
#
# PCOD9559358 Si02
#       8
#    16   8  16  16  16  16  16  16
#     4  10  21  37  56  78 111 156 202 247 286 356
#     4  11  24  40  60  92 128 162 206 255 304 360
#     4  11  20  38  61  87 119 156 203 247 293 361
#     4  11  23  38  61  91 120 156 196 249 312 373
#     4  11  21  36  58  87 121 157 200 245 300 370
#     4  11  20  36  61  82 118 161 205 246 295 361
#     4  11  22  36  57  86 118 151 199 256 300 345
#     4   8  15  28  45  70 109 150 179 212 268 330
#
# _framework density 18.670504000000001
#
# number of rings (size 3 to 8) (size 9 to 14) (size 15 to 20)
#    0.000    1.533    6.000    2.400    0.000    3.067 
#    0.000    0.000    0.000    0.400    0.000    0.000 
#    0.000    0.000    0.000    0.000    0.000    0.000 
#
# Total GULP energy -334358.126115 kJ/mol
# GULP energy per Si atom -5572.635435 kJ/mol
# Density = 1.862801 g / cm^3
# Si number density = 18.670504 Si / 1000 Ang^3
#
#
#
# Elastic Constant Matrix: (Units=GPa)
#
#
# Indices 1 2 3 4 5 6 
#
# 1 116.4759 5.2394 21.1755 0.0000 0.0000 0.0000
# 2 5.2394 116.4759 21.1753 0.0000 0.0000 0.0000
# 3 21.1755 21.1753 63.5566 0.0000 0.0000 0.0000
# 4 0.0000 0.0000 0.0000 22.7672 0.0000 0.0000
# 5 0.0000 0.0000 0.0000 0.0000 22.7671 0.0000
# 6 0.0000 0.0000 0.0000 0.0000 0.0000 18.0188
#
#
#
# Elastic Compliance Matrix: (Units=1/GPa)
#
#
# Indices 1 2 3 4 5 6 
#
# 1 0.009142 0.000152 -0.003096 0.000000 0.000000 0.000000
# 2 0.000152 0.009142 -0.003096 0.000000 0.000000 0.000000
# 3 -0.003096 -0.003096 0.017797 0.000000 0.000000 0.000000
# 4 0.000000 0.000000 0.000000 0.043923 0.000000 0.000000
# 5 0.000000 0.000000 0.000000 0.000000 0.043923 0.000000
# 6 0.000000 0.000000 0.000000 0.000000 0.000000 0.055498
#
#
# Mechanical properties :
#
#
# Convention : Reuss Voigt Hill
#
# Bulk Modulus (GPa) = 41.66906 43.52097 42.59501
# Shear Modulus (GPa) = 25.06202 29.30516 27.18359
#
# Velocity S-wave (km/s) = 3.66776 3.96611 3.81985
# Velocity P-wave (km/s) = 6.34848 6.65838 6.50527
#
# Compressibility (1/GPa) = 0.02399862
#
# Stress axis : x y z
#
# Youngs Moduli (GPa) = 109.39065 109.39075 56.18859
#
# Poissons Ratio (x) = -0.01659 0.17398
# Poissons Ratio (y) = -0.01659 0.17397
# Poissons Ratio (z) = 0.33870 0.33870
#
# Static dielectric constant tensor:
#      x y z
#    x 1.674110 0.000000 0.000000 
#    y 0.000000 1.674110 0.000000 
#    z 0.000000 0.000000 1.821170 
# 
# From -- ./inp_files/8102.got.cif
#   From: 2010.05.17/outbox.cif.g08.bks.cpg/sg119_5_cif.got.tgz:8102.got - 2010.05.20 11:21:29.
