data_PCOD9559305
_publ_section_title
;
Structure prediction by ZEFSAII (Michael W. Deem and Ramdas Pophale) SiO2 
 PCOD9559305
Probable space group: I -4 M 2
;
_chemical_formula_sum "Si O2"
_cell_formula_units_Z 60
_cell_length_a 14.772780
_cell_length_b 14.772780
_cell_length_c 13.271368
_cell_angle_alpha 90.000000
_cell_angle_beta 90.000000
_cell_angle_gamma 90.000000
_cell_volume 2896.277379
_symmetry_space_group_name_H-M "I -4 M 2"
_symmetry_group_IT_number 119
_symmetry_cell_setting 'tetragonal'
loop_
_space_group_symop_operation_xyz
x,y,z
y,-x,-z
-x,-y,z
-y,x,-z
y,x,-z
-y,-x,-z
-x,y,z
x,-y,z
1/2+x,1/2+y,1/2+z
1/2+y,1/2-x,1/2-z
1/2-x,1/2-y,1/2+z
1/2-y,1/2+x,1/2-z
1/2+y,1/2+x,1/2-z
1/2-y,1/2-x,1/2-z
1/2-x,1/2+y,1/2+z
1/2+x,1/2-y,1/2+z
loop_
_atom_site_type_symbol
_atom_site_label
_atom_site_fract_x
_atom_site_fract_y
_atom_site_fract_z
Si Si1 0.194518 0.360662 0.572784
Si Si2 0.500000 0.691736 0.309691
Si Si3 0.317862 0.216396 0.863586
Si Si4 0.681325 0.000000 0.381699
Si Si5 0.500000 0.690025 0.926830
Si Si6 0.000000 0.000000 0.686118
O O1 0.277542 0.415891 0.620285
O O2 0.196951 0.357663 0.451423
O O3 0.210670 0.259916 0.614758
O O4 0.090591 0.378319 0.603008
O O5 0.500000 0.768417 0.223969
O O6 0.500000 0.591666 0.257957
O O7 0.315431 0.184570 0.750000
O O8 0.411364 0.265629 0.881196
O O9 0.767545 0.000000 0.460203
O O10 0.500000 0.586568 0.889130
#
# Coordination Sequence:
#
# PCOD9559305 Si02
#       6
#    16   8  16   8   8   4
#     4  10  22  38  59  89 121 160 211 258 314 385
#     4  12  24  39  60  89 130 174 211 256 315 386
#     4  10  20  39  62  84 120 162 203 260 321 375
#     4  10  20  38  62  88 121 161 212 274 329 366
#     4  10  22  36  61  96 121 163 217 266 324 379
#     4  12  24  37  62  99 140 174 216 270 324 384
#
# _framework density 20.716249000000001
#
# number of rings (size 3 to 8) (size 9 to 14) (size 15 to 20)
#    0.000    1.600    0.000    5.600    0.000    5.333 
#    0.000    6.667    0.000    3.600    0.000    0.000 
#    0.000    0.000    0.000    0.000    0.000    0.000 
#
# Total GULP energy -167283.652232 kJ/mol
# GULP energy per Si atom -5576.121741 kJ/mol
# Density = 2.066910 g / cm^3
# Si number density = 20.716249 Si / 1000 Ang^3
#
#
#
# Elastic Constant Matrix: (Units=GPa)
#
#
# Indices 1 2 3 4 5 6 
#
# 1 87.1648 22.8826 31.2543 0.0000 0.0000 0.0000
# 2 22.8826 87.1644 31.2555 0.0000 0.0000 0.0000
# 3 31.2543 31.2555 143.9929 0.0000 0.0000 0.0000
# 4 0.0000 0.0000 0.0000 17.5631 0.0000 0.0000
# 5 0.0000 0.0000 0.0000 0.0000 17.5641 0.0000
# 6 0.0000 0.0000 0.0000 0.0000 0.0000 22.2231
#
#
#
# Elastic Compliance Matrix: (Units=1/GPa)
#
#
# Indices 1 2 3 4 5 6 
#
# 1 0.012961 -0.002596 -0.002250 0.000000 0.000000 0.000000
# 2 -0.002596 0.012961 -0.002250 0.000000 0.000000 0.000000
# 3 -0.002250 -0.002250 0.007921 0.000000 0.000000 0.000000
# 4 0.000000 0.000000 0.000000 0.056937 0.000000 0.000000
# 5 0.000000 0.000000 0.000000 0.000000 0.056934 0.000000
# 6 0.000000 0.000000 0.000000 0.000000 0.000000 0.044998
#
#
# Mechanical properties :
#
#
# Convention : Reuss Voigt Hill
#
# Bulk Modulus (GPa) = 50.88498 54.34522 52.61510
# Shear Modulus (GPa) = 23.42420 26.99870 25.21145
#
# Velocity S-wave (km/s) = 3.36626 3.61399 3.49232
# Velocity P-wave (km/s) = 6.30279 6.61095 6.45871
#
# Compressibility (1/GPa) = 0.01965216
#
# Stress axis : x y z
#
# Youngs Moduli (GPa) = 77.15672 77.15583 126.23931
#
# Poissons Ratio (x) = 0.20028 0.28400
# Poissons Ratio (y) = 0.20028 0.28402
# Poissons Ratio (z) = 0.17358 0.17359
#
# Static dielectric constant tensor:
#      x y z
#    x 1.776530 0.000000 0.000000 
#    y 0.000000 1.776530 0.000000 
#    z 0.000000 0.000000 1.815160 
# 
# From -- ./inp_files/5125.got.cif
#   From: 2010.05.17/outbox.cif.g08.bks.cpg/sg119_3_cif.got.tgz:5125.got - 2010.05.20 11:21:29.
