data_PCOD9559734
_publ_section_title
;
Structure prediction by ZEFSAII (Michael W. Deem and Ramdas Pophale) SiO2 
 PCOD9559734
Probable space group: I -4 C 2
;
_chemical_formula_sum "Si O2"
_cell_formula_units_Z 96
_cell_length_a 17.966071
_cell_length_b 17.966071
_cell_length_c 13.901750
_cell_angle_alpha 90.000000
_cell_angle_beta 90.000000
_cell_angle_gamma 90.000000
_cell_volume 4487.202794
_symmetry_space_group_name_H-M "I -4 C 2"
_symmetry_group_IT_number 120
_symmetry_cell_setting 'tetragonal'
loop_
_space_group_symop_operation_xyz
x,y,z
y,-x,-z
-x,-y,z
-y,x,-z
y,x,1/2-z
-y,-x,1/2-z
-x,y,1/2+z
x,-y,1/2+z
1/2+x,1/2+y,1/2+z
1/2+y,1/2-x,1/2-z
1/2-x,1/2-y,1/2+z
1/2-y,1/2+x,1/2-z
1/2+y,1/2+x,-z
1/2-y,1/2-x,-z
1/2-x,1/2+y,z
1/2+x,1/2-y,z
loop_
_atom_site_type_symbol
_atom_site_label
_atom_site_fract_x
_atom_site_fract_y
_atom_site_fract_z
Si Si1 0.554004 0.692016 0.179966
Si Si2 0.889101 0.035923 0.968463
Si Si3 0.873709 0.628071 0.835549
Si Si4 0.837596 0.484429 0.935238
Si Si5 0.611822 0.296261 0.878510
Si Si6 0.130299 0.451792 0.643641
O O1 0.540554 0.770771 0.131852
O O2 0.637287 0.668303 0.148312
O O3 0.550310 0.696623 0.294137
O O4 0.496070 0.634368 0.134203
O O5 0.820478 0.076915 0.020255
O O6 0.912455 0.961879 0.028541
O O7 0.857568 0.713195 0.863891
O O8 0.841877 0.597853 0.733334
O O9 0.963240 0.619167 0.824373
O O10 0.928433 0.651755 0.081859
O O11 0.911670 0.444041 0.895694
O O12 0.822728 0.460179 0.044960
#
# Coordination Sequence:
#
# PCOD9559734 Si02
#       6
#    16  16  16  16  16  16
#     4  10  20  39  63  89 124 161 204 246 316 373
#     4   9  19  36  61  90 120 159 209 258 302 364
#     4  12  21  39  60  89 120 157 207 259 304 358
#     4  11  23  37  60  86 120 163 204 252 298 369
#     4  10  21  37  64  90 123 161 199 258 315 372
#     4  11  22  35  58  87 116 156 206 251 298 354
#
# _framework density 21.394175000000001
#
# number of rings (size 3 to 8) (size 9 to 14) (size 15 to 20)
#    0.000    1.500    3.333    2.000    0.000    2.000 
#    0.000    3.333   25.667    0.000    0.000    0.000 
#    0.000    0.000    0.000    0.000    0.000    0.000 
#
# Total GULP energy -268003.318331 kJ/mol
# GULP energy per Si atom -5583.402465 kJ/mol
# Density = 2.134548 g / cm^3
# Si number density = 21.394175 Si / 1000 Ang^3
#
#
#
# Elastic Constant Matrix: (Units=GPa)
#
#
# Indices 1 2 3 4 5 6 
#
# 1 64.7037 9.8201 12.4843 0.0000 0.0000 0.0000
# 2 9.8201 64.7037 12.4843 0.0000 0.0000 0.0000
# 3 12.4843 12.4843 62.9555 0.0000 0.0000 0.0000
# 4 0.0000 0.0000 0.0000 21.4214 0.0000 0.0000
# 5 0.0000 0.0000 0.0000 0.0000 21.4214 0.0000
# 6 0.0000 0.0000 0.0000 0.0000 0.0000 13.9147
#
#
#
# Elastic Compliance Matrix: (Units=1/GPa)
#
#
# Indices 1 2 3 4 5 6 
#
# 1 0.016297 -0.001923 -0.002850 0.000000 0.000000 0.000000
# 2 -0.001923 0.016297 -0.002850 0.000000 0.000000 0.000000
# 3 -0.002850 -0.002850 0.017015 0.000000 0.000000 0.000000
# 4 0.000000 0.000000 0.000000 0.046682 0.000000 0.000000
# 5 0.000000 0.000000 0.000000 0.000000 0.046682 0.000000
# 6 0.000000 0.000000 0.000000 0.000000 0.000000 0.071867
#
#
# Mechanical properties :
#
#
# Convention : Reuss Voigt Hill
#
# Bulk Modulus (GPa) = 29.10325 29.10449 29.10387
# Shear Modulus (GPa) = 20.70039 21.85644 21.27842
#
# Velocity S-wave (km/s) = 3.11396 3.19973 3.15713
# Velocity P-wave (km/s) = 5.15382 5.22345 5.18875
#
# Compressibility (1/GPa) = 0.03436042
#
# Stress axis : x y z
#
# Youngs Moduli (GPa) = 61.36122 61.36122 58.77269
#
# Poissons Ratio (x) = 0.11802 0.16752
# Poissons Ratio (y) = 0.11802 0.16752
# Poissons Ratio (z) = 0.17490 0.17490
#
# Static dielectric constant tensor:
#      x y z
#    x 1.781480 0.000000 0.000000 
#    y 0.000000 1.781480 0.000000 
#    z 0.000000 0.000000 1.855910 
# 
# From -- ./inp_files/3610.got.cif
#   From: 2010.05.17/outbox.cif.g08.bks.cpg/sg120_2_cif.got.tgz:3610.got - 2010.05.20 11:28:13.
