data_PCOD9559082
_publ_section_title
;
Structure prediction by ZEFSAII (Michael W. Deem and Ramdas Pophale) SiO2 
 PCOD9559082
Probable space group: I -4 M 2
;
_chemical_formula_sum "Si O2"
_cell_formula_units_Z 80
_cell_length_a 12.083728
_cell_length_b 12.083728
_cell_length_c 34.003108
_cell_angle_alpha 90.000000
_cell_angle_beta 90.000000
_cell_angle_gamma 90.000000
_cell_volume 4965.014220
_symmetry_space_group_name_H-M "I -4 M 2"
_symmetry_group_IT_number 119
_symmetry_cell_setting 'tetragonal'
loop_
_space_group_symop_operation_xyz
x,y,z
y,-x,-z
-x,-y,z
-y,x,-z
y,x,-z
-y,-x,-z
-x,y,z
x,-y,z
1/2+x,1/2+y,1/2+z
1/2+y,1/2-x,1/2-z
1/2-x,1/2-y,1/2+z
1/2-y,1/2+x,1/2-z
1/2+y,1/2+x,1/2-z
1/2-y,1/2-x,1/2-z
1/2-x,1/2+y,1/2+z
1/2+x,1/2-y,1/2+z
loop_
_atom_site_type_symbol
_atom_site_label
_atom_site_fract_x
_atom_site_fract_y
_atom_site_fract_z
Si Si1 0.714528 0.732603 0.437242
Si Si2 0.125723 0.372000 0.491597
Si Si3 0.000000 0.134260 0.186059
Si Si4 0.370104 0.131423 0.366571
Si Si5 0.131655 0.758768 0.784148
Si Si6 0.368089 0.500000 0.404548
O O1 0.833090 0.707414 0.456743
O O2 0.645718 0.793052 0.471599
O O3 0.704795 0.809392 0.399137
O O4 0.668275 0.612080 0.425927
O O5 0.131475 0.500000 0.479058
O O6 0.000000 0.348081 0.503562
O O7 0.114270 0.165413 0.207281
O O8 0.000000 0.173283 0.140706
O O9 0.000000 0.000000 0.184560
O O10 0.500000 0.149177 0.377775
O O11 0.354681 0.189791 0.324542
O O12 0.351535 0.000000 0.364289
O O13 0.201553 0.701553 0.750000
O O14 0.000000 0.756364 0.774539
O O15 0.500000 0.500000 0.402996
#
# Coordination Sequence:
#
# PCOD9559082 Si02
#       6
#    16  16   8  16  16   8
#     4  11  20  32  53  78 102 138 174 217 264 311
#     4  10  21  36  50  71 105 142 177 212 258 314
#     4   9  18  32  52  76 110 146 170 210 270 320
#     4  10  19  31  51  79 111 143 173 211 262 315
#     4  10  19  32  52  79 109 142 176 215 262 313
#     4  11  18  30  51  81 113 131 168 217 273 325
#
# _framework density 16.112742000000001
#
# number of rings (size 3 to 8) (size 9 to 14) (size 15 to 20)
#    0.000    1.800    3.000    3.000    0.000    2.600 
#    0.000    0.000    2.200   10.500    2.600    0.000 
#    0.000    0.000    0.000    0.000    0.000    0.000 
#
# Total GULP energy -223028.061087 kJ/mol
# GULP energy per Si atom -5575.701527 kJ/mol
# Density = 1.607607 g / cm^3
# Si number density = 16.112742 Si / 1000 Ang^3
#
#
#
# Elastic Constant Matrix: (Units=GPa)
#
#
# Indices 1 2 3 4 5 6 
#
# 1 100.8333 38.1887 55.3165 0.0000 0.0000 0.0000
# 2 38.1887 100.8334 55.3165 0.0000 0.0000 0.0000
# 3 55.3165 55.3165 101.2877 0.0000 0.0000 0.0000
# 4 0.0000 0.0000 0.0000 28.8329 0.0000 0.0000
# 5 0.0000 0.0000 0.0000 0.0000 28.8329 0.0000
# 6 0.0000 0.0000 0.0000 0.0000 0.0000 20.0043
#
#
#
# Elastic Compliance Matrix: (Units=1/GPa)
#
#
# Indices 1 2 3 4 5 6 
#
# 1 0.014343 -0.001620 -0.006948 0.000000 0.000000 0.000000
# 2 -0.001620 0.014343 -0.006948 0.000000 0.000000 0.000000
# 3 -0.006948 -0.006948 0.017462 0.000000 0.000000 0.000000
# 4 0.000000 0.000000 0.000000 0.034683 0.000000 0.000000
# 5 0.000000 0.000000 0.000000 0.000000 0.034683 0.000000
# 6 0.000000 0.000000 0.000000 0.000000 0.000000 0.049989
#
#
# Mechanical properties :
#
#
# Convention : Reuss Voigt Hill
#
# Bulk Modulus (GPa) = 66.16219 66.73308 66.44764
# Shear Modulus (GPa) = 24.80490 25.80953 25.30721
#
# Velocity S-wave (km/s) = 3.92785 4.00660 3.96742
# Velocity P-wave (km/s) = 7.85633 7.93159 7.89405
#
# Compressibility (1/GPa) = 0.01511437
#
# Stress axis : x y z
#
# Youngs Moduli (GPa) = 69.72187 69.72187 57.26719
#
# Poissons Ratio (x) = 0.11297 0.39790
# Poissons Ratio (y) = 0.11297 0.39790
# Poissons Ratio (z) = 0.48443 0.48443
#
# Static dielectric constant tensor:
#      x y z
#    x 1.533790 0.000000 0.000000 
#    y 0.000000 1.533790 0.000000 
#    z 0.000000 0.000000 1.541250 
# 
# From -- ./inp_files/10175.got.cif
#   From: 2010.05.17/outbox.cif.g08.bks.cpg/sg119_6_cif.got.tgz:10175.got - 2010.05.20 11:21:29.
