data_PCOD9559540
_publ_section_title
;
Structure prediction by ZEFSAII (Michael W. Deem and Ramdas Pophale) SiO2 
 PCOD9559540
Probable space group: I -4 M 2
;
_chemical_formula_sum "Si O2"
_cell_formula_units_Z 96
_cell_length_a 25.372460
_cell_length_b 25.372460
_cell_length_c 7.950511
_cell_angle_alpha 90.000000
_cell_angle_beta 90.000000
_cell_angle_gamma 90.000000
_cell_volume 5118.234688
_symmetry_space_group_name_H-M "I -4 M 2"
_symmetry_group_IT_number 119
_symmetry_cell_setting 'tetragonal'
loop_
_space_group_symop_operation_xyz
x,y,z
y,-x,-z
-x,-y,z
-y,x,-z
y,x,-z
-y,-x,-z
-x,y,z
x,-y,z
1/2+x,1/2+y,1/2+z
1/2+y,1/2-x,1/2-z
1/2-x,1/2-y,1/2+z
1/2-y,1/2+x,1/2-z
1/2+y,1/2+x,1/2-z
1/2-y,1/2-x,1/2-z
1/2-x,1/2+y,1/2+z
1/2+x,1/2-y,1/2+z
loop_
_atom_site_type_symbol
_atom_site_label
_atom_site_fract_x
_atom_site_fract_y
_atom_site_fract_z
Si Si1 0.759608 0.936019 0.089836
Si Si2 0.060858 0.643189 0.030696
Si Si3 0.435206 0.331958 0.715588
Si Si4 0.435953 0.267145 0.039731
Si Si5 0.149350 0.439236 0.062013
Si Si6 0.062562 0.056724 0.298140
O O1 0.698374 0.923488 0.054695
O O2 0.795812 0.917606 0.937357
O O3 0.761532 0.000000 0.088182
O O4 0.778977 0.917942 0.271964
O O5 0.102538 0.597331 0.995704
O O6 0.061697 0.650378 0.233966
O O7 0.000000 0.630880 0.984659
O O8 0.500000 0.332785 0.715840
O O9 0.416377 0.391995 0.708097
O O10 0.418678 0.306047 0.892412
O O11 0.500000 0.268985 0.038163
O O12 0.421635 0.206900 0.998008
O O13 0.141490 0.500000 0.010179
O O14 0.064865 0.064865 0.500000
O O15 0.000000 0.053501 0.259822
O O16 0.087187 0.000000 0.256148
#
# Coordination Sequence:
#
# PCOD9559540 Si02
#       6
#    16  16  16  16  16  16
#     4   9  16  26  41  60  81 111 153 198 245 287
#     4   9  16  26  39  56  83 119 157 203 258 311
#     4   9  15  26  44  63  86 116 150 188 226 271
#     4   9  16  26  41  60  81 111 153 198 245 288
#     4   9  16  26  39  56  83 119 157 204 258 309
#     4   8  14  25  44  71  99 129 161 184 213 270
#
# _framework density 18.756468000000002
#
# number of rings (size 3 to 8) (size 9 to 14) (size 15 to 20)
#    0.000    3.167    1.667    0.500    0.000    1.000 
#    0.000    1.667    0.000    2.000    0.000   16.333 
#    0.000    8.000   11.333    0.000    0.667    0.167 
#
# Total GULP energy -267676.119234 kJ/mol
# GULP energy per Si atom -5576.585817 kJ/mol
# Density = 1.871378 g / cm^3
# Si number density = 18.756468 Si / 1000 Ang^3
#
#
#
# Elastic Constant Matrix: (Units=GPa)
#
#
# Indices 1 2 3 4 5 6 
#
# 1 73.1215 29.9097 36.8211 0.0000 0.0000 0.0000
# 2 29.9097 73.1215 36.8211 0.0000 0.0000 0.0000
# 3 36.8211 36.8211 85.3644 0.0000 0.0000 0.0000
# 4 0.0000 0.0000 0.0000 -0.5970 0.0000 0.0000
# 5 0.0000 0.0000 0.0000 0.0000 -0.5970 0.0000
# 6 0.0000 0.0000 0.0000 0.0000 0.0000 -2.4370
#
#
#
# Elastic Compliance Matrix: (Units=1/GPa)
#
#
# Indices 1 2 3 4 5 6 
#
# 1 0.018587 -0.004555 -0.006053 0.000000 0.000000 0.000000
# 2 -0.004555 0.018587 -0.006053 0.000000 0.000000 0.000000
# 3 -0.006053 -0.006053 0.016936 0.000000 0.000000 0.000000
# 4 0.000000 0.000000 0.000000 -1.675009 0.000000 0.000000
# 5 0.000000 0.000000 0.000000 0.000000 -1.675009 0.000000
# 6 0.000000 0.000000 0.000000 0.000000 0.000000 -0.410342
#
#
# Mechanical properties :
#
#
# Convention : Reuss Voigt Hill
#
# Bulk Modulus (GPa) = 48.10106 48.74569 48.42337
# Shear Modulus (GPa) = -1.36388 7.81082 3.22347
#
# Velocity S-wave (km/s) = -0.85366 2.04288 1.31237
# Velocity P-wave (km/s) = 4.97283 5.62225 5.30748
#
# Compressibility (1/GPa) = 0.02078956
#
# Stress axis : x y z
#
# Youngs Moduli (GPa) = 53.80144 53.80144 59.04628
#
# Poissons Ratio (x) = 0.24507 0.35738
# Poissons Ratio (y) = 0.24507 0.35738
# Poissons Ratio (z) = 0.32563 0.32563
#
# Static dielectric constant tensor:
#      x y z
#    x 1.635550 0.000000 0.000000 
#    y 0.000000 1.635550 0.000000 
#    z 0.000000 0.000000 1.693440 
# 
# From -- ./inp_files/2833.got.cif
#   From: 2010.05.17/outbox.cif.g08.bks.cpg/sg119_2_cif.got.tgz:2833.got - 2010.05.20 11:21:29.
