data_PCOD9559331
_publ_section_title
;
Structure prediction by ZEFSAII (Michael W. Deem and Ramdas Pophale) SiO2 
 PCOD9559331
Probable space group: I -4 M 2
;
_chemical_formula_sum "Si O2"
_cell_formula_units_Z 128
_cell_length_a 25.575479
_cell_length_b 25.575479
_cell_length_c 11.631288
_cell_angle_alpha 90.000000
_cell_angle_beta 90.000000
_cell_angle_gamma 90.000000
_cell_volume 7608.085104
_symmetry_space_group_name_H-M "I -4 M 2"
_symmetry_group_IT_number 119
_symmetry_cell_setting 'tetragonal'
loop_
_space_group_symop_operation_xyz
x,y,z
y,-x,-z
-x,-y,z
-y,x,-z
y,x,-z
-y,-x,-z
-x,y,z
x,-y,z
1/2+x,1/2+y,1/2+z
1/2+y,1/2-x,1/2-z
1/2-x,1/2-y,1/2+z
1/2-y,1/2+x,1/2-z
1/2+y,1/2+x,1/2-z
1/2-y,1/2-x,1/2-z
1/2-x,1/2+y,1/2+z
1/2+x,1/2-y,1/2+z
loop_
_atom_site_type_symbol
_atom_site_label
_atom_site_fract_x
_atom_site_fract_y
_atom_site_fract_z
Si Si1 0.393311 0.062022 0.371053
Si Si2 0.111307 0.775947 0.852025
Si Si3 0.644197 0.438153 0.465565
Si Si4 0.559867 0.768669 0.132901
Si Si5 0.731757 0.353667 0.039200
Si Si6 0.730290 0.182283 0.968919
Si Si7 0.636563 0.694310 0.712977
Si Si8 0.936813 0.562033 0.379469
O O1 0.413692 0.086309 0.250000
O O2 0.330818 0.067703 0.373990
O O3 0.414262 0.081526 0.497064
O O4 0.406381 0.000000 0.365697
O O5 0.080344 0.813374 0.939609
O O6 0.073616 0.750635 0.760161
O O7 0.155105 0.813527 0.793763
O O8 0.142350 0.732096 0.924706
O O9 0.590202 0.409799 0.500000
O O10 0.640341 0.500000 0.458670
O O11 0.664978 0.410803 0.349611
O O12 0.500000 0.756970 0.103600
O O13 0.600371 0.739964 0.050259
O O14 0.786571 0.322570 0.051264
O O15 0.711923 0.375036 0.159759
O O16 0.689052 0.310949 0.000000
O O17 0.754570 0.152611 0.860285
O O18 0.774012 0.225989 0.000000
O O19 0.925982 0.500000 0.384316
O O20 0.919063 0.580938 0.250000
O O21 0.000000 0.568888 0.377906
#
# Coordination Sequence:
#
# PCOD9559331 Si02
#       8
#    16  16  16  16  16  16  16  16
#     4  10  21  35  52  78 108 140 181 228 274 322
#     4   9  17  34  54  75 104 139 177 219 268 324
#     4   9  18  32  55  81 108 139 172 222 273 322
#     4  11  24  36  50  75 110 145 179 220 274 331
#     4  11  20  33  54  78 104 140 180 219 263 317
#     4   8  17  29  52  82 104 129 170 226 272 312
#     4   9  17  33  52  80 108 132 180 219 262 320
#     4   8  14  28  53  78  97 127 173 222 270 319
#
# _framework density 16.824207000000001
#
# number of rings (size 3 to 8) (size 9 to 14) (size 15 to 20)
#    0.000    2.625    1.250    3.000    1.750    1.250 
#    0.000    1.250    0.000    0.000    0.000    0.000 
#    0.000    0.250    0.000    0.000    0.000    0.000 
#
# Total GULP energy -356507.753053 kJ/mol
# GULP energy per Si atom -5570.433641 kJ/mol
# Density = 1.678591 g / cm^3
# Si number density = 16.824207 Si / 1000 Ang^3
#
#
#
# Elastic Constant Matrix: (Units=GPa)
#
#
# Indices 1 2 3 4 5 6 
#
# 1 59.4760 49.4169 41.4388 0.0000 0.0000 0.0000
# 2 49.4169 59.4760 41.4384 0.0000 0.0000 0.0000
# 3 41.4388 41.4384 113.6193 0.0000 0.0000 0.0000
# 4 0.0000 0.0000 0.0000 14.5320 0.0000 0.0000
# 5 0.0000 0.0000 0.0000 0.0000 14.5320 0.0000
# 6 0.0000 0.0000 0.0000 0.0000 0.0000 14.4079
#
#
#
# Elastic Compliance Matrix: (Units=1/GPa)
#
#
# Indices 1 2 3 4 5 6 
#
# 1 0.056062 -0.043350 -0.004636 0.000000 0.000000 0.000000
# 2 -0.043350 0.056062 -0.004636 0.000000 0.000000 0.000000
# 3 -0.004636 -0.004636 0.012183 0.000000 0.000000 0.000000
# 4 0.000000 0.000000 0.000000 0.068814 0.000000 0.000000
# 5 0.000000 0.000000 0.000000 0.000000 0.068813 0.000000
# 6 0.000000 0.000000 0.000000 0.000000 0.000000 0.069407
#
#
# Mechanical properties :
#
#
# Convention : Reuss Voigt Hill
#
# Bulk Modulus (GPa) = 52.46021 55.23994 53.85008
# Shear Modulus (GPa) = 11.28821 15.37953 13.33387
#
# Velocity S-wave (km/s) = 2.59308 3.02674 2.81826
# Velocity P-wave (km/s) = 6.34149 6.71712 6.53201
#
# Compressibility (1/GPa) = 0.01906206
#
# Stress axis : x y z
#
# Youngs Moduli (GPa) = 17.83731 17.83742 82.08082
#
# Poissons Ratio (x) = 0.77326 0.38057
# Poissons Ratio (y) = 0.77325 0.38052
# Poissons Ratio (z) = 0.08270 0.08269
#
# Static dielectric constant tensor:
#      x y z
#    x 1.556120 0.000000 0.000000 
#    y 0.000000 1.556120 0.000000 
#    z 0.000000 0.000000 1.586340 
# 
# From -- ./inp_files/4471.got.cif
#   From: 2010.05.17/outbox.cif.g08.bks.cpg/sg119_3_cif.got.tgz:4471.got - 2010.05.20 11:21:29.
