data_PCOD9559177
_publ_section_title
;
Structure prediction by ZEFSAII (Michael W. Deem and Ramdas Pophale) SiO2 
 PCOD9559177
Probable space group: I -4 M 2
;
_chemical_formula_sum "Si O2"
_cell_formula_units_Z 48
_cell_length_a 13.297461
_cell_length_b 13.297461
_cell_length_c 16.351628
_cell_angle_alpha 90.000000
_cell_angle_beta 90.000000
_cell_angle_gamma 90.000000
_cell_volume 2891.335236
_symmetry_space_group_name_H-M "I -4 M 2"
_symmetry_group_IT_number 119
_symmetry_cell_setting 'tetragonal'
loop_
_space_group_symop_operation_xyz
x,y,z
y,-x,-z
-x,-y,z
-y,x,-z
y,x,-z
-y,-x,-z
-x,y,z
x,-y,z
1/2+x,1/2+y,1/2+z
1/2+y,1/2-x,1/2-z
1/2-x,1/2-y,1/2+z
1/2-y,1/2+x,1/2-z
1/2+y,1/2+x,1/2-z
1/2-y,1/2-x,1/2-z
1/2-x,1/2+y,1/2+z
1/2+x,1/2-y,1/2+z
loop_
_atom_site_type_symbol
_atom_site_label
_atom_site_fract_x
_atom_site_fract_y
_atom_site_fract_z
Si Si1 0.616284 0.780291 0.001150
Si Si2 0.616543 0.701813 0.416090
Si Si3 0.119397 0.692516 0.162476
O O1 0.500000 0.775438 0.022911
O O2 0.848643 0.684915 0.938932
O O3 0.631292 0.828324 0.911199
O O4 0.672693 0.672693 0.000000
O O5 0.640306 0.640306 0.500000
O O6 0.500000 0.695998 0.395587
O O7 0.692959 0.657336 0.349752
O O8 0.188237 0.500000 0.348116
O O9 0.150358 0.650358 0.250000
#
# Coordination Sequence:
#
# PCOD9559177 Si02
#       3
#    16  16  16
#     4   9  18  32  50  73  98 126 163 201 237 282
#     4   9  18  32  51  74  97 124 162 203 238 278
#     4  10  20  32  48  73 101 126 156 196 241 290
#
# _framework density 16.601326
#
# number of rings (size 3 to 8) (size 9 to 14) (size 15 to 20)
#    0.000    3.333    0.000    5.000    0.000    7.000 
#    0.000    6.667    0.000    8.000    0.000    0.000 
#    0.000    0.000    0.000    0.000    0.000    0.000 
#
# Total GULP energy -133749.279309 kJ/mol
# GULP energy per Si atom -5572.886638 kJ/mol
# Density = 1.656354 g / cm^3
# Si number density = 16.601326 Si / 1000 Ang^3
#
#
#
# Elastic Constant Matrix: (Units=GPa)
#
#
# Indices 1 2 3 4 5 6 
#
# 1 -240.2308 409.7445 27.7237 0.0000 0.0000 0.0000
# 2 409.7445 -240.2309 27.7236 0.0000 0.0000 0.0000
# 3 27.7237 27.7236 54.8305 0.0000 0.0000 0.0000
# 4 0.0000 0.0000 0.0000 9.2135 0.0000 0.0000
# 5 0.0000 0.0000 0.0000 0.0000 9.2135 0.0000
# 6 0.0000 0.0000 0.0000 0.0000 0.0000 1.2117
#
#
#
# Elastic Compliance Matrix: (Units=1/GPa)
#
#
# Indices 1 2 3 4 5 6 
#
# 1 0.002765 0.004303 -0.003574 0.000000 0.000000 0.000000
# 2 0.004303 0.002765 -0.003574 0.000000 0.000000 0.000000
# 3 -0.003574 -0.003574 0.021852 0.000000 0.000000 0.000000
# 4 0.000000 0.000000 0.000000 0.108536 0.000000 0.000000
# 5 0.000000 0.000000 0.000000 0.000000 0.108536 0.000000
# 6 0.000000 0.000000 0.000000 0.000000 0.000000 0.825254
#
#
# Mechanical properties :
#
#
# Convention : Reuss Voigt Hill
#
# Bulk Modulus (GPa) = 46.09765 56.08360 51.09063
# Shear Modulus (GPa) = 4.61839 -55.46045 -25.42103
#
# Velocity S-wave (km/s) = 1.66972 -5.78617 -3.91738
# Velocity P-wave (km/s) = 5.61650 3.28386 3.22190
#
# Compressibility (1/GPa) = 0.02169308
#
# Stress axis : x y z
#
# Youngs Moduli (GPa) = 361.68250 361.68252 45.76216
#
# Poissons Ratio (x) = -1.55646 0.16355
# Poissons Ratio (y) = -1.55646 0.16355
# Poissons Ratio (z) = 1.29261 1.29261
#
# Static dielectric constant tensor:
#      x y z
#    x 1.561060 0.000000 0.000000 
#    y 0.000000 1.561060 0.000000 
#    z 0.000000 0.000000 1.636300 
# 
# From -- ./inp_files/8326.got.cif
#   From: 2010.05.17/outbox.cif.g08.bks.cpg/sg119_5_cif.got.tgz:8326.got - 2010.05.20 11:21:29.
