data_PCOD9559385
_publ_section_title
;
Structure prediction by ZEFSAII (Michael W. Deem and Ramdas Pophale) SiO2 
 PCOD9559385
Probable space group: I -4 M 2
;
_chemical_formula_sum "Si O2"
_cell_formula_units_Z 42
_cell_length_a 8.082398
_cell_length_b 8.082398
_cell_length_c 32.279465
_cell_angle_alpha 90.000000
_cell_angle_beta 90.000000
_cell_angle_gamma 90.000000
_cell_volume 2108.661133
_symmetry_space_group_name_H-M "I -4 M 2"
_symmetry_group_IT_number 119
_symmetry_cell_setting 'tetragonal'
loop_
_space_group_symop_operation_xyz
x,y,z
y,-x,-z
-x,-y,z
-y,x,-z
y,x,-z
-y,-x,-z
-x,y,z
x,-y,z
1/2+x,1/2+y,1/2+z
1/2+y,1/2-x,1/2-z
1/2-x,1/2-y,1/2+z
1/2-y,1/2+x,1/2-z
1/2+y,1/2+x,1/2-z
1/2-y,1/2-x,1/2-z
1/2-x,1/2+y,1/2+z
1/2+x,1/2-y,1/2+z
loop_
_atom_site_type_symbol
_atom_site_label
_atom_site_fract_x
_atom_site_fract_y
_atom_site_fract_z
Si Si1 0.687560 0.302089 0.704939
Si Si2 0.000000 0.000000 0.000000
Si Si3 0.703414 0.000000 0.935088
Si Si4 0.821341 0.802327 0.618556
O O1 0.500000 0.243148 0.697721
O O2 0.689766 0.500000 0.704686
O O3 0.743821 0.243821 0.750000
O O4 0.795363 0.240935 0.666633
O O5 0.000000 0.829238 0.026482
O O6 0.747871 0.837360 0.908087
O O7 0.500000 0.000000 0.942892
O O8 0.000000 0.735807 0.604402
O O9 0.825792 0.000000 0.615375
#
# Coordination Sequence:
#
# PCOD9559385 Si02
#       4
#    16   2   8  16
#     4  11  23  36  54  84 125 169 221 274 323 383
#     4  12  28  44  76 104 132 164 236 268 332 432
#     4  10  24  46  68  98 136 170 210 280 336 394
#     4  10  21  39  64  91 124 170 218 263 330 397
#
# _framework density 19.917853999999998
#
# number of rings (size 3 to 8) (size 9 to 14) (size 15 to 20)
#    0.000    1.524    1.905    2.286    2.667    9.143 
#    0.000    0.000    0.000    0.000    0.000    0.000 
#    0.000    0.000    0.000    0.000    0.000    0.000 
#
# Total GULP energy -117242.546500 kJ/mol
# GULP energy per Si atom -5582.978405 kJ/mol
# Density = 1.987252 g / cm^3
# Si number density = 19.917854 Si / 1000 Ang^3
#
#
#
# Elastic Constant Matrix: (Units=GPa)
#
#
# Indices 1 2 3 4 5 6 
#
# 1 66.0072 68.2429 50.5728 0.0000 0.0000 0.0000
# 2 68.2429 66.0072 50.5727 0.0000 0.0000 0.0000
# 3 50.5728 50.5727 112.7389 0.0000 0.0000 0.0000
# 4 0.0000 0.0000 0.0000 29.8831 0.0000 0.0000
# 5 0.0000 0.0000 0.0000 0.0000 29.8831 0.0000
# 6 0.0000 0.0000 0.0000 0.0000 0.0000 9.4619
#
#
#
# Elastic Compliance Matrix: (Units=1/GPa)
#
#
# Indices 1 2 3 4 5 6 
#
# 1 -0.218014 0.229266 -0.005047 0.000000 0.000000 0.000000
# 2 0.229266 -0.218014 -0.005047 0.000000 0.000000 0.000000
# 3 -0.005047 -0.005047 0.013398 0.000000 0.000000 0.000000
# 4 0.000000 0.000000 0.000000 0.033464 0.000000 0.000000
# 5 0.000000 0.000000 0.000000 0.000000 0.033464 0.000000
# 6 0.000000 0.000000 0.000000 0.000000 0.000000 0.105687
#
#
# Mechanical properties :
#
#
# Convention : Reuss Voigt Hill
#
# Bulk Modulus (GPa) = 63.64455 64.83667 64.24061
# Shear Modulus (GPa) = -7.31934 18.86994 5.77530
#
# Velocity S-wave (km/s) = -1.91905 3.08131 1.70466
# Velocity P-wave (km/s) = 5.20697 6.72919 6.01642
#
# Compressibility (1/GPa) = 0.01571226
#
# Stress axis : x y z
#
# Youngs Moduli (GPa) = -4.58685 -4.58685 74.63679
#
# Poissons Ratio (x) = 1.05161 0.37670
# Poissons Ratio (y) = 1.05161 0.37671
# Poissons Ratio (z) = -0.02315 -0.02315
#
# Static dielectric constant tensor:
#      x y z
#    x 1.724250 0.000000 0.000000 
#    y 0.000000 1.724250 0.000000 
#    z 0.000000 0.000000 1.701770 
# 
# From -- ./inp_files/9145.got.cif
#   From: 2010.05.17/outbox.cif.g08.bks.cpg/sg119_5_cif.got.tgz:9145.got - 2010.05.20 11:21:29.
