data_PCOD9559462
_publ_section_title
;
Structure prediction by ZEFSAII (Michael W. Deem and Ramdas Pophale) SiO2 
 PCOD9559462
Probable space group: I -4 M 2
;
_chemical_formula_sum "Si O2"
_cell_formula_units_Z 104
_cell_length_a 18.703789
_cell_length_b 18.703789
_cell_length_c 15.870386
_cell_angle_alpha 90.000000
_cell_angle_beta 90.000000
_cell_angle_gamma 90.000000
_cell_volume 5551.964478
_symmetry_space_group_name_H-M "I -4 M 2"
_symmetry_group_IT_number 119
_symmetry_cell_setting 'tetragonal'
loop_
_space_group_symop_operation_xyz
x,y,z
y,-x,-z
-x,-y,z
-y,x,-z
y,x,-z
-y,-x,-z
-x,y,z
x,-y,z
1/2+x,1/2+y,1/2+z
1/2+y,1/2-x,1/2-z
1/2-x,1/2-y,1/2+z
1/2-y,1/2+x,1/2-z
1/2+y,1/2+x,1/2-z
1/2-y,1/2-x,1/2-z
1/2-x,1/2+y,1/2+z
1/2+x,1/2-y,1/2+z
loop_
_atom_site_type_symbol
_atom_site_label
_atom_site_fract_x
_atom_site_fract_y
_atom_site_fract_z
Si Si1 0.729172 0.177450 0.568876
Si Si2 0.080905 0.791147 0.686812
Si Si3 0.418249 0.419155 0.601699
Si Si4 0.292743 0.681653 0.659670
Si Si5 0.140241 0.665604 0.586541
Si Si6 0.583395 0.083395 0.250000
Si Si7 0.084180 0.134789 0.407916
O O1 0.774248 0.225752 0.500000
O O2 0.703713 0.233689 0.640079
O O3 0.665903 0.139806 0.515163
O O4 0.786512 0.119730 0.600187
O O5 0.146562 0.775781 0.749953
O O6 0.101657 0.741424 0.607784
O O7 0.086855 0.873003 0.659035
O O8 0.000000 0.774626 0.715761
O O9 0.418077 0.418077 0.500000
O O10 0.500000 0.407505 0.629434
O O11 0.396313 0.500000 0.627689
O O12 0.364133 0.359223 0.632469
O O13 0.224322 0.658069 0.605676
O O14 0.107185 0.617475 0.660873
O O15 0.500000 0.097652 0.257530
O O16 0.103632 0.103632 0.500000
O O17 0.000000 0.136029 0.396101
#
# Coordination Sequence:
#
# PCOD9559462 Si02
#       7
#    16  16  16  16  16   8  16
#     4   9  19  36  57  82 110 148 201 250 279 333
#     4  12  23  35  56  85 115 154 196 241 301 363
#     4   9  18  32  50  75 109 147 187 235 289 344
#     4  11  20  35  57  80 109 151 194 241 284 343
#     4  11  20  36  56  81 109 151 200 241 286 355
#     4  11  24  38  56  88 124 152 190 256 323 374
#     4  11  22  37  56  82 118 159 201 245 296 359
#
# _framework density 18.732108
#
# number of rings (size 3 to 8) (size 9 to 14) (size 15 to 20)
#    0.000    1.462    6.154    3.231    0.000    2.923 
#    0.000    0.769    0.000    0.000    0.000    0.000 
#    0.000    0.000    0.000    0.154    0.000    0.154 
#
# Total GULP energy -289471.910248 kJ/mol
# GULP energy per Si atom -5566.767505 kJ/mol
# Density = 1.868947 g / cm^3
# Si number density = 18.732108 Si / 1000 Ang^3
#
#
#
# Elastic Constant Matrix: (Units=GPa)
#
#
# Indices 1 2 3 4 5 6 
#
# 1 100.2467 40.5787 17.2890 0.0000 0.0000 0.0000
# 2 40.5787 100.2467 17.2891 0.0000 0.0000 0.0000
# 3 17.2890 17.2891 40.5231 0.0000 0.0000 0.0000
# 4 0.0000 0.0000 0.0000 18.5871 0.0000 0.0000
# 5 0.0000 0.0000 0.0000 0.0000 18.5870 0.0000
# 6 0.0000 0.0000 0.0000 0.0000 0.0000 26.4087
#
#
#
# Elastic Compliance Matrix: (Units=1/GPa)
#
#
# Indices 1 2 3 4 5 6 
#
# 1 0.012346 -0.004414 -0.003384 0.000000 0.000000 0.000000
# 2 -0.004414 0.012346 -0.003384 0.000000 0.000000 0.000000
# 3 -0.003384 -0.003384 0.027565 0.000000 0.000000 0.000000
# 4 0.000000 0.000000 0.000000 0.053801 0.000000 0.000000
# 5 0.000000 0.000000 0.000000 0.000000 0.053801 0.000000
# 6 0.000000 0.000000 0.000000 0.000000 0.000000 0.037866
#
#
# Mechanical properties :
#
#
# Convention : Reuss Voigt Hill
#
# Bulk Modulus (GPa) = 33.45346 43.48113 38.46730
# Shear Modulus (GPa) = 21.73415 23.77386 22.75400
#
# Velocity S-wave (km/s) = 3.40996 3.56638 3.48904
# Velocity P-wave (km/s) = 5.77939 6.34202 6.06723
#
# Compressibility (1/GPa) = 0.02989227
#
# Stress axis : x y z
#
# Youngs Moduli (GPa) = 81.00008 81.00006 36.27790
#
# Poissons Ratio (x) = 0.35751 0.12277
# Poissons Ratio (y) = 0.35751 0.12277
# Poissons Ratio (z) = 0.27411 0.27412
#
# Static dielectric constant tensor:
#      x y z
#    x 1.675240 0.000000 0.000000 
#    y 0.000000 1.675240 0.000000 
#    z 0.000000 0.000000 1.745820 
# 
# From -- ./inp_files/6727.got.cif
#   From: 2010.05.17/outbox.cif.g08.bks.cpg/sg119_4_cif.got.tgz:6727.got - 2010.05.20 11:21:29.
