data_PCOD9559041
_publ_section_title
;
Structure prediction by ZEFSAII (Michael W. Deem and Ramdas Pophale) SiO2 
 PCOD9559041
Probable space group: I -4 M 2
;
_chemical_formula_sum "Si O2"
_cell_formula_units_Z 46
_cell_length_a 10.274660
_cell_length_b 10.274660
_cell_length_c 18.729342
_cell_angle_alpha 90.000000
_cell_angle_beta 90.000000
_cell_angle_gamma 90.000000
_cell_volume 1977.231128
_symmetry_space_group_name_H-M "I -4 M 2"
_symmetry_group_IT_number 119
_symmetry_cell_setting 'tetragonal'
loop_
_space_group_symop_operation_xyz
x,y,z
y,-x,-z
-x,-y,z
-y,x,-z
y,x,-z
-y,-x,-z
-x,y,z
x,-y,z
1/2+x,1/2+y,1/2+z
1/2+y,1/2-x,1/2-z
1/2-x,1/2-y,1/2+z
1/2-y,1/2+x,1/2-z
1/2+y,1/2+x,1/2-z
1/2-y,1/2-x,1/2-z
1/2-x,1/2+y,1/2+z
1/2+x,1/2-y,1/2+z
loop_
_atom_site_type_symbol
_atom_site_label
_atom_site_fract_x
_atom_site_fract_y
_atom_site_fract_z
Si Si1 0.766016 0.500000 0.905027
Si Si2 0.291504 0.283242 0.414561
Si Si3 0.000000 0.000000 0.318458
Si Si4 0.000000 0.500000 0.250000
Si Si5 0.500000 0.158754 0.938495
Si Si6 0.000000 0.797300 0.194029
O O1 0.834468 0.638278 0.894293
O O2 0.629546 0.500000 0.865469
O O3 0.755004 0.500000 0.990160
O O4 0.313784 0.313784 0.500000
O O5 0.341725 0.380729 0.355614
O O6 0.135564 0.300253 0.404624
O O7 0.000000 0.873682 0.267763
O O8 0.000000 0.640213 0.209065
O O9 0.500000 0.000000 0.950609
#
# Coordination Sequence:
#
# PCOD9559041 Si02
#       6
#     8  16   4   2   8   8
#     4  10  22  40  62  93 131 175 224 271 326 402
#     4  10  21  38  68  97 130 163 221 281 345 387
#     4  12  26  42  60  88 144 180 228 254 332 416
#     4  12  24  40  72  92 120 168 244 262 312 384
#     4  10  18  36  66 102 127 160 213 297 347 394
#     4  12  24  42  66  95 133 178 216 279 327 399
#
# _framework density 23.264859000000001
#
# number of rings (size 3 to 8) (size 9 to 14) (size 15 to 20)
#    0.000    1.391    1.739    4.174    0.000    5.565 
#    3.130    0.000    3.826    0.000    0.000    0.000 
#    0.000    0.000    0.000    0.000    0.000    0.000 
#
# Total GULP energy -128340.814524 kJ/mol
# GULP energy per Si atom -5580.035414 kJ/mol
# Density = 2.321191 g / cm^3
# Si number density = 23.264859 Si / 1000 Ang^3
#
#
#
# Elastic Constant Matrix: (Units=GPa)
#
#
# Indices 1 2 3 4 5 6 
#
# 1 140.8807 6.3626 61.8595 0.0000 0.0000 0.0000
# 2 6.3626 140.8807 61.8595 0.0000 0.0000 0.0000
# 3 61.8595 61.8595 109.7571 0.0000 0.0000 0.0000
# 4 0.0000 0.0000 0.0000 175.5400 0.0000 0.0000
# 5 0.0000 0.0000 0.0000 0.0000 175.5400 0.0000
# 6 0.0000 0.0000 0.0000 0.0000 0.0000 -27.1154
#
#
#
# Elastic Compliance Matrix: (Units=1/GPa)
#
#
# Indices 1 2 3 4 5 6 
#
# 1 0.010167 0.002733 -0.007271 0.000000 0.000000 0.000000
# 2 0.002733 0.010167 -0.007271 0.000000 0.000000 0.000000
# 3 -0.007271 -0.007271 0.017307 0.000000 0.000000 0.000000
# 4 0.000000 0.000000 0.000000 0.005697 0.000000 0.000000
# 5 0.000000 0.000000 0.000000 0.000000 0.005697 0.000000
# 6 0.000000 0.000000 0.000000 0.000000 0.000000 -0.036879
#
#
# Mechanical properties :
#
#
# Convention : Reuss Voigt Hill
#
# Bulk Modulus (GPa) = 71.30270 72.40908 71.85589
# Shear Modulus (GPa) = 123.61768 82.22203 102.91986
#
# Velocity S-wave (km/s) = 7.29728 5.95134 6.65841
# Velocity P-wave (km/s) = 10.08539 8.85528 9.49029
#
# Compressibility (1/GPa) = 0.01402471
#
# Stress axis : x y z
#
# Youngs Moduli (GPa) = 98.35400 98.35400 57.78056
#
# Poissons Ratio (x) = -0.26884 0.42012
# Poissons Ratio (y) = -0.26884 0.42012
# Poissons Ratio (z) = 0.71512 0.71512
#
# Static dielectric constant tensor:
#      x y z
#    x 1.820670 0.000000 0.000000 
#    y 0.000000 1.820670 0.000000 
#    z 0.000000 0.000000 1.880440 
# 
# From -- ./inp_files/6097.got.cif
#   From: 2010.05.17/outbox.cif.g08.bks.cpg/sg119_4_cif.got.tgz:6097.got - 2010.05.20 11:21:29.
