data_PCOD9559770
_publ_section_title
;
Structure prediction by ZEFSAII (Michael W. Deem and Ramdas Pophale) SiO2 
 PCOD9559770
Probable space group: I -4 C 2
;
_chemical_formula_sum "Si O2"
_cell_formula_units_Z 100
_cell_length_a 14.187729
_cell_length_b 14.187729
_cell_length_c 23.262415
_cell_angle_alpha 90.000000
_cell_angle_beta 90.000000
_cell_angle_gamma 90.000000
_cell_volume 4682.529996
_symmetry_space_group_name_H-M "I -4 C 2"
_symmetry_group_IT_number 120
_symmetry_cell_setting 'tetragonal'
loop_
_space_group_symop_operation_xyz
x,y,z
y,-x,-z
-x,-y,z
-y,x,-z
y,x,1/2-z
-y,-x,1/2-z
-x,y,1/2+z
x,-y,1/2+z
1/2+x,1/2+y,1/2+z
1/2+y,1/2-x,1/2-z
1/2-x,1/2-y,1/2+z
1/2-y,1/2+x,1/2-z
1/2+y,1/2+x,-z
1/2-y,1/2-x,-z
1/2-x,1/2+y,z
1/2+x,1/2-y,z
loop_
_atom_site_type_symbol
_atom_site_label
_atom_site_fract_x
_atom_site_fract_y
_atom_site_fract_z
Si Si1 0.094529 0.325861 0.808004
Si Si2 0.597966 0.766007 0.853430
Si Si3 0.760932 0.874451 0.393189
Si Si4 0.752028 0.597447 0.403285
Si Si5 0.348326 0.348326 0.750000
Si Si6 0.249359 0.250642 0.500000
Si Si7 0.500000 0.000000 0.750000
Si Si8 0.828043 0.945027 0.788519
O O1 0.191810 0.336072 0.842540
O O2 0.061672 0.429545 0.788380
O O3 0.086487 0.260178 0.751287
O O4 0.012170 0.284376 0.848979
O O5 0.635010 0.673083 0.886221
O O6 0.652334 0.854829 0.879532
O O7 0.636307 0.742523 0.789457
O O8 0.731554 0.825101 0.451627
O O9 0.746998 0.984779 0.403348
O O10 0.738734 0.650506 0.464217
O O11 0.678383 0.608323 0.349497
O O12 0.442029 0.340360 0.709781
O O13 0.914646 0.914646 0.750000
#
# Coordination Sequence:
#
# PCOD9559770 Si02
#       8
#    16  16  16  16   8   8   4  16
#     4  11  23  37  63 100 138 174 209 274 339 423
#     4  10  22  38  62  97 134 172 217 256 335 414
#     4  11  23  45  68  91 131 176 226 282 346 400
#     4  11  23  41  68  92 127 177 222 283 334 400
#     4  10  21  36  60  96 140 173 200 254 324 422
#     4  10  26  44  64  94 124 170 242 286 336 394
#     4  12  24  36  56 106 144 168 228 264 348 438
#     4  11  21  36  62  98 136 172 210 255 338 413
#
# _framework density 21.355976999999999
#
# number of rings (size 3 to 8) (size 9 to 14) (size 15 to 20)
#    0.000    1.280    1.600    5.040    5.600    2.560 
#    0.000    0.000    0.000    0.000    0.000    0.000 
#    0.000    0.000    0.000    0.000    0.000    0.000 
#
# Total GULP energy -278716.128104 kJ/mol
# GULP energy per Si atom -5574.322562 kJ/mol
# Density = 2.130737 g / cm^3
# Si number density = 21.355977 Si / 1000 Ang^3
#
#
#
# Elastic Constant Matrix: (Units=GPa)
#
#
# Indices 1 2 3 4 5 6 
#
# 1 115.0702 38.8410 22.3338 0.0000 0.0000 0.0000
# 2 38.8410 115.0708 22.3342 0.0000 0.0000 0.0000
# 3 22.3338 22.3342 85.3152 0.0000 0.0000 0.0000
# 4 0.0000 0.0000 0.0000 30.7383 0.0000 0.0000
# 5 0.0000 0.0000 0.0000 0.0000 30.7382 0.0000
# 6 0.0000 0.0000 0.0000 0.0000 0.0000 29.0839
#
#
#
# Elastic Compliance Matrix: (Units=1/GPa)
#
#
# Indices 1 2 3 4 5 6 
#
# 1 0.010075 -0.003043 -0.001841 0.000000 0.000000 0.000000
# 2 -0.003043 0.010075 -0.001841 0.000000 0.000000 0.000000
# 3 -0.001841 -0.001841 0.012685 0.000000 0.000000 0.000000
# 4 0.000000 0.000000 0.000000 0.032533 0.000000 0.000000
# 5 0.000000 0.000000 0.000000 0.000000 0.032533 0.000000
# 6 0.000000 0.000000 0.000000 0.000000 0.000000 0.034383
#
#
# Mechanical properties :
#
#
# Convention : Reuss Voigt Hill
#
# Bulk Modulus (GPa) = 51.58616 53.60822 52.59719
# Shear Modulus (GPa) = 32.85263 33.57524 33.21394
#
# Velocity S-wave (km/s) = 3.92642 3.96936 3.94795
# Velocity P-wave (km/s) = 6.69055 6.79444 6.74270
#
# Compressibility (1/GPa) = 0.01938504
#
# Stress axis : x y z
#
# Youngs Moduli (GPa) = 99.25675 99.25715 78.83351
#
# Poissons Ratio (x) = 0.30208 0.14511
# Poissons Ratio (y) = 0.30208 0.14511
# Poissons Ratio (z) = 0.18270 0.18271
#
# Static dielectric constant tensor:
#      x y z
#    x 1.849750 0.000000 0.000000 
#    y 0.000000 1.849750 0.000000 
#    z 0.000000 0.000000 1.856140 
# 
# From -- ./inp_files/5891.got.cif
#   From: 2010.05.17/outbox.cif.g08.bks.cpg/sg120_3_cif.got.tgz:5891.got - 2010.05.20 11:28:13.
