data_PCOD9559558
_publ_section_title
;
Structure prediction by ZEFSAII (Michael W. Deem and Ramdas Pophale) SiO2 
 PCOD9559558
Probable space group: I -4 C 2
;
_chemical_formula_sum "Si O2"
_cell_formula_units_Z 72
_cell_length_a 14.257072
_cell_length_b 14.257072
_cell_length_c 14.321656
_cell_angle_alpha 90.000000
_cell_angle_beta 90.000000
_cell_angle_gamma 90.000000
_cell_volume 2911.078546
_symmetry_space_group_name_H-M "I -4 C 2"
_symmetry_group_IT_number 120
_symmetry_cell_setting 'tetragonal'
loop_
_space_group_symop_operation_xyz
x,y,z
y,-x,-z
-x,-y,z
-y,x,-z
y,x,1/2-z
-y,-x,1/2-z
-x,y,1/2+z
x,-y,1/2+z
1/2+x,1/2+y,1/2+z
1/2+y,1/2-x,1/2-z
1/2-x,1/2-y,1/2+z
1/2-y,1/2+x,1/2-z
1/2+y,1/2+x,-z
1/2-y,1/2-x,-z
1/2-x,1/2+y,z
1/2+x,1/2-y,z
loop_
_atom_site_type_symbol
_atom_site_label
_atom_site_fract_x
_atom_site_fract_y
_atom_site_fract_z
Si Si1 0.097828 0.963393 0.358868
Si Si2 0.169838 0.461974 0.628614
Si Si3 0.820241 0.837268 0.361961
Si Si4 0.000000 0.500000 0.500000
Si Si5 0.500000 0.000000 0.250000
Si Si6 0.149731 0.770706 0.346429
O O1 0.069392 0.930609 0.250000
O O2 0.138353 0.868181 0.401548
O O3 0.162153 0.052865 0.378776
O O4 0.000000 0.000000 0.396677
O O5 0.248490 0.384502 0.605887
O O6 0.230570 0.547168 0.669130
O O7 0.103442 0.497902 0.546075
O O8 0.083123 0.441340 0.699236
O O9 0.835977 0.835977 0.250000
O O10 0.715885 0.807840 0.388686
O O11 0.200722 0.799279 0.250000
#
# Coordination Sequence:
#
# PCOD9559558 Si02
#       6
#    16  16  16   4   4  16
#     4  10  16  30  49  82 134 165 189 260 357 414
#     4  11  22  41  60  93 132 181 230 282 347 422
#     4  11  19  31  59  96 129 163 215 286 357 409
#     4  10  28  46  64  82 144 206 228 274 336 442
#     4  10  20  34  60  86 124 158 232 306 336 382
#     4  10  20  31  58  96 129 162 214 286 356 408
#
# _framework density 24.733104000000001
#
# number of rings (size 3 to 8) (size 9 to 14) (size 15 to 20)
#    0.000    1.556    4.444    4.000    0.000    3.556 
#    0.000    1.111    0.000    0.000    0.000    0.000 
#    0.000    0.889    0.000    0.000    0.000    0.000 
#
# Total GULP energy -200444.883118 kJ/mol
# GULP energy per Si atom -5567.913420 kJ/mol
# Density = 2.467681 g / cm^3
# Si number density = 24.733104 Si / 1000 Ang^3
#
#
#
# Elastic Constant Matrix: (Units=GPa)
#
#
# Indices 1 2 3 4 5 6 
#
# 1 125.9785 32.2156 -5.0199 0.0000 0.0000 0.0000
# 2 32.2156 125.9746 -5.0212 0.0000 0.0000 0.0000
# 3 -5.0199 -5.0212 38.3309 0.0000 0.0000 0.0000
# 4 0.0000 0.0000 0.0000 -2.3928 0.0000 0.0000
# 5 0.0000 0.0000 0.0000 0.0000 -2.3893 0.0000
# 6 0.0000 0.0000 0.0000 0.0000 0.0000 76.2049
#
#
#
# Elastic Compliance Matrix: (Units=1/GPa)
#
#
# Indices 1 2 3 4 5 6 
#
# 1 0.008520 -0.002145 0.000835 0.000000 0.000000 0.000000
# 2 -0.002145 0.008520 0.000835 0.000000 0.000000 0.000000
# 3 0.000835 0.000835 0.026307 0.000000 0.000000 0.000000
# 4 0.000000 0.000000 0.000000 -0.417924 -0.000001 0.000000
# 5 0.000000 0.000000 0.000000 -0.000001 -0.418539 0.000000
# 6 0.000000 0.000000 0.000000 0.000000 0.000000 0.013123
#
#
# Mechanical properties :
#
#
# Convention : Reuss Voigt Hill
#
# Bulk Modulus (GPa) = 23.58725 37.18146 30.38436
# Shear Modulus (GPa) = -6.53671 32.15854 12.81091
#
# Velocity S-wave (km/s) = -1.62746 3.60977 2.27836
# Velocity P-wave (km/s) = 2.45477 5.69558 4.38552
#
# Compressibility (1/GPa) = 0.04239578
#
# Stress axis : x y z
#
# Youngs Moduli (GPa) = 117.37403 117.37006 38.01226
#
# Poissons Ratio (x) = 0.25182 -0.03173
# Poissons Ratio (y) = 0.25183 -0.03174
# Poissons Ratio (z) = -0.09797 -0.09802
#
# Static dielectric constant tensor:
#      x y z
#    x 2.117490 0.000000 0.000000 
#    y 0.000000 2.117500 0.000000 
#    z 0.000000 0.000000 2.056370 
# 
# From -- ./inp_files/4294.got.cif
#   From: 2010.05.17/outbox.cif.g08.bks.cpg/sg120_3_cif.got.tgz:4294.got - 2010.05.20 11:28:13.
