data_PCOD9559679
_publ_section_title
;
Structure prediction by ZEFSAII (Michael W. Deem and Ramdas Pophale) SiO2 
 PCOD9559679
Probable space group: I -4 C 2
;
_chemical_formula_sum "Si O2"
_cell_formula_units_Z 64
_cell_length_a 16.715170
_cell_length_b 16.715170
_cell_length_c 9.245039
_cell_angle_alpha 90.000000
_cell_angle_beta 90.000000
_cell_angle_gamma 90.000000
_cell_volume 2583.035312
_symmetry_space_group_name_H-M "I -4 C 2"
_symmetry_group_IT_number 120
_symmetry_cell_setting 'tetragonal'
loop_
_space_group_symop_operation_xyz
x,y,z
y,-x,-z
-x,-y,z
-y,x,-z
y,x,1/2-z
-y,-x,1/2-z
-x,y,1/2+z
x,-y,1/2+z
1/2+x,1/2+y,1/2+z
1/2+y,1/2-x,1/2-z
1/2-x,1/2-y,1/2+z
1/2-y,1/2+x,1/2-z
1/2+y,1/2+x,-z
1/2-y,1/2-x,-z
1/2-x,1/2+y,z
1/2+x,1/2-y,z
loop_
_atom_site_type_symbol
_atom_site_label
_atom_site_fract_x
_atom_site_fract_y
_atom_site_fract_z
Si Si1 0.178588 0.821413 0.750000
Si Si2 0.000000 0.500000 0.250000
Si Si3 0.671295 0.505646 0.613660
Si Si4 0.245572 0.745572 0.500000
Si Si5 0.000000 0.000000 0.750000
Si Si6 0.078969 0.421032 0.500000
Si Si7 0.251658 0.420660 0.359692
O O1 0.093690 0.809967 0.824152
O O2 0.183189 0.752735 0.628303
O O3 0.982393 0.569599 0.365943
O O4 0.579011 0.494333 0.651677
O O5 0.690380 0.517556 0.445813
O O6 0.725925 0.440040 0.694549
O O7 0.329281 0.737253 0.588910
O O8 0.162936 0.435399 0.420499
#
# Coordination Sequence:
#
# PCOD9559679 Si02
#       7
#     8   4  16   8   4   8  16
#     4   9  20  38  56  82 114 146 190 237 286 344
#     4  10  20  34  60  86 116 150 188 242 300 350
#     4  10  22  38  58  84 116 154 195 243 293 345
#     4   9  20  37  56  79 110 145 186 237 282 341
#     4  10  24  40  60  86 120 156 204 252 292 350
#     4  10  20  37  58  86 118 152 194 243 294 354
#     4  10  21  37  57  82 114 150 192 237 290 347
#
# _framework density 24.777052000000001
#
# number of rings (size 3 to 8) (size 9 to 14) (size 15 to 20)
#    0.000    2.250    0.000    1.500    0.000   10.000 
#    0.000    5.000    0.000    0.000    0.000    0.000 
#    0.000    0.000    0.000    0.000    0.000    0.000 
#
# Total GULP energy -178800.422814 kJ/mol
# GULP energy per Si atom -5587.513213 kJ/mol
# Density = 2.472066 g / cm^3
# Si number density = 24.777052 Si / 1000 Ang^3
#
#
#
# Elastic Constant Matrix: (Units=GPa)
#
#
# Indices 1 2 3 4 5 6 
#
# 1 60.7869 21.4258 18.8834 0.0000 0.0000 0.0000
# 2 21.4258 60.7856 18.8832 0.0000 0.0000 0.0000
# 3 18.8834 18.8832 97.8076 0.0000 0.0000 0.0000
# 4 0.0000 0.0000 0.0000 37.6101 0.0000 0.0000
# 5 0.0000 0.0000 0.0000 0.0000 37.6104 0.0000
# 6 0.0000 0.0000 0.0000 0.0000 0.0000 31.3626
#
#
#
# Elastic Compliance Matrix: (Units=1/GPa)
#
#
# Indices 1 2 3 4 5 6 
#
# 1 0.019377 -0.006029 -0.002577 0.000000 0.000000 0.000000
# 2 -0.006029 0.019377 -0.002577 0.000000 0.000000 0.000000
# 3 -0.002577 -0.002577 0.011219 0.000000 0.000000 0.000000
# 4 0.000000 0.000000 0.000000 0.026589 0.000000 0.000000
# 5 0.000000 0.000000 0.000000 0.000000 0.026588 0.000000
# 6 0.000000 0.000000 0.000000 0.000000 0.000000 0.031885
#
#
# Mechanical properties :
#
#
# Convention : Reuss Voigt Hill
#
# Bulk Modulus (GPa) = 36.22351 37.52942 36.87647
# Shear Modulus (GPa) = 30.01138 31.99582 31.00360
#
# Velocity S-wave (km/s) = 3.48409 3.59743 3.54121
# Velocity P-wave (km/s) = 5.55308 5.69518 5.62458
#
# Compressibility (1/GPa) = 0.02760638
#
# Stress axis : x y z
#
# Youngs Moduli (GPa) = 51.60856 51.60748 89.13303
#
# Poissons Ratio (x) = 0.31116 0.22969
# Poissons Ratio (y) = 0.31117 0.22969
# Poissons Ratio (z) = 0.13299 0.13299
#
# Static dielectric constant tensor:
#      x y z
#    x 2.008130 0.000000 0.000000 
#    y 0.000000 2.008120 0.000000 
#    z 0.000000 0.000000 1.984000 
# 
# From -- ./inp_files/1317.got.cif
#   From: 2010.05.17/outbox.cif.g08.bks.cpg/sg120_1_cif.got.tgz:1317.got - 2010.05.20 11:28:13.
