data_PCOD9559124
_publ_section_title
;
Structure prediction by ZEFSAII (Michael W. Deem and Ramdas Pophale) SiO2 
 PCOD9559124
Probable space group: I -4 M 2
;
_chemical_formula_sum "Si O2"
_cell_formula_units_Z 88
_cell_length_a 14.297930
_cell_length_b 14.297930
_cell_length_c 22.535935
_cell_angle_alpha 90.000000
_cell_angle_beta 90.000000
_cell_angle_gamma 90.000000
_cell_volume 4607.039272
_symmetry_space_group_name_H-M "I -4 M 2"
_symmetry_group_IT_number 119
_symmetry_cell_setting 'tetragonal'
loop_
_space_group_symop_operation_xyz
x,y,z
y,-x,-z
-x,-y,z
-y,x,-z
y,x,-z
-y,-x,-z
-x,y,z
x,-y,z
1/2+x,1/2+y,1/2+z
1/2+y,1/2-x,1/2-z
1/2-x,1/2-y,1/2+z
1/2-y,1/2+x,1/2-z
1/2+y,1/2+x,1/2-z
1/2-y,1/2-x,1/2-z
1/2-x,1/2+y,1/2+z
1/2+x,1/2-y,1/2+z
loop_
_atom_site_type_symbol
_atom_site_label
_atom_site_fract_x
_atom_site_fract_y
_atom_site_fract_z
Si Si1 0.889102 0.768563 0.111620
Si Si2 0.276796 0.108733 0.558919
Si Si3 0.111374 0.111374 0.000000
Si Si4 0.388541 0.735256 0.746442
Si Si5 0.608723 0.744581 0.072282
Si Si6 0.769270 0.388539 0.796233
O O1 0.845242 0.667883 0.099672
O O2 0.854438 0.835969 0.059070
O O3 0.871002 0.799176 0.178728
O O4 0.000000 0.762924 0.105765
O O5 0.175730 0.155350 0.567864
O O6 0.300923 0.122598 0.488992
O O7 0.277216 0.000000 0.572486
O O8 0.000000 0.125924 0.993437
O O9 0.500000 0.740023 0.757379
O O10 0.335215 0.835215 0.750000
O O11 0.330625 0.663122 0.786903
O O12 0.500000 0.716346 0.073016
O O13 0.627873 0.795496 0.134622
O O14 0.763556 0.500000 0.786421
O O15 0.839519 0.339519 0.750000
#
# Coordination Sequence:
#
# PCOD9559124 Si02
#       6
#    16  16   8  16  16  16
#     4  10  21  35  52  77 106 133 169 214 254 304
#     4  10  19  33  54  76 104 139 167 204 259 309
#     4   9  18  34  56  78 100 129 164 208 264 313
#     4  10  22  38  54  77 108 141 180 222 262 308
#     4   9  19  34  52  77 105 132 170 216 257 303
#     4  10  21  37  56  79 108 141 178 219 261 310
#
# _framework density 19.101205
#
# number of rings (size 3 to 8) (size 9 to 14) (size 15 to 20)
#    0.000    2.273    0.000    3.273    0.000    5.091 
#    0.000   10.000    0.000    3.273    0.000    0.000 
#    0.000    0.000    0.000    0.000    0.000    0.000 
#
# Total GULP energy -245374.760901 kJ/mol
# GULP energy per Si atom -5576.699111 kJ/mol
# Density = 1.905773 g / cm^3
# Si number density = 19.101205 Si / 1000 Ang^3
#
#
#
# Elastic Constant Matrix: (Units=GPa)
#
#
# Indices 1 2 3 4 5 6 
#
# 1 47.1935 -4.0813 11.6936 0.0000 0.0000 0.0000
# 2 -4.0813 47.1935 11.6936 0.0000 0.0000 0.0000
# 3 11.6936 11.6936 85.1796 0.0000 0.0000 0.0000
# 4 0.0000 0.0000 0.0000 21.5085 0.0000 0.0000
# 5 0.0000 0.0000 0.0000 0.0000 21.5085 0.0000
# 6 0.0000 0.0000 0.0000 0.0000 0.0000 8.8062
#
#
#
# Elastic Compliance Matrix: (Units=1/GPa)
#
#
# Indices 1 2 3 4 5 6 
#
# 1 0.022282 0.002779 -0.003441 0.000000 0.000000 0.000000
# 2 0.002779 0.022282 -0.003441 0.000000 0.000000 0.000000
# 3 -0.003441 -0.003441 0.012685 0.000000 0.000000 0.000000
# 4 0.000000 0.000000 0.000000 0.046493 0.000000 0.000000
# 5 0.000000 0.000000 0.000000 0.000000 0.046493 0.000000
# 6 0.000000 0.000000 0.000000 0.000000 0.000000 0.113557
#
#
# Mechanical properties :
#
#
# Convention : Reuss Voigt Hill
#
# Bulk Modulus (GPa) = 20.38907 24.24203 22.31555
# Shear Modulus (GPa) = 17.34041 21.04869 19.19455
#
# Velocity S-wave (km/s) = 3.01627 3.32317 3.17343
# Velocity P-wave (km/s) = 4.77786 5.23866 5.01356
#
# Compressibility (1/GPa) = 0.04904588
#
# Stress axis : x y z
#
# Youngs Moduli (GPa) = 44.87886 44.87886 78.83615
#
# Poissons Ratio (x) = -0.12474 0.27124
# Poissons Ratio (y) = -0.12474 0.27124
# Poissons Ratio (z) = 0.15441 0.15441
#
# Static dielectric constant tensor:
#      x y z
#    x 1.644640 0.000000 0.000000 
#    y 0.000000 1.644640 0.000000 
#    z 0.000000 0.000000 1.735100 
# 
# From -- ./inp_files/7683.got.cif
#   From: 2010.05.17/outbox.cif.g08.bks.cpg/sg119_4_cif.got.tgz:7683.got - 2010.05.20 11:21:29.
