data_PCOD9559509
_publ_section_title
;
Structure prediction by ZEFSAII (Michael W. Deem and Ramdas Pophale) SiO2 
 PCOD9559509
Probable space group: I -4 M 2
;
_chemical_formula_sum "Si O2"
_cell_formula_units_Z 52
_cell_length_a 15.119659
_cell_length_b 15.119659
_cell_length_c 10.449366
_cell_angle_alpha 90.000000
_cell_angle_beta 90.000000
_cell_angle_gamma 90.000000
_cell_volume 2388.767787
_symmetry_space_group_name_H-M "I -4 M 2"
_symmetry_group_IT_number 119
_symmetry_cell_setting 'tetragonal'
loop_
_space_group_symop_operation_xyz
x,y,z
y,-x,-z
-x,-y,z
-y,x,-z
y,x,-z
-y,-x,-z
-x,y,z
x,-y,z
1/2+x,1/2+y,1/2+z
1/2+y,1/2-x,1/2-z
1/2-x,1/2-y,1/2+z
1/2-y,1/2+x,1/2-z
1/2+y,1/2+x,1/2-z
1/2-y,1/2-x,1/2-z
1/2-x,1/2+y,1/2+z
1/2+x,1/2-y,1/2+z
loop_
_atom_site_type_symbol
_atom_site_label
_atom_site_fract_x
_atom_site_fract_y
_atom_site_fract_z
Si Si1 0.899800 0.743222 0.792581
Si Si2 0.171161 0.627815 0.437383
Si Si3 0.000000 0.500000 0.458355
Si Si4 0.899922 0.789629 0.311645
O O1 0.833914 0.666086 0.750000
O O2 0.866916 0.834826 0.733247
O O3 0.000000 0.723253 0.755250
O O4 0.891617 0.736905 0.945909
O O5 0.079213 0.575652 0.454565
O O6 0.144867 0.730401 0.421847
O O7 0.221367 0.598911 0.308616
O O8 0.000000 0.816139 0.342082
#
# Coordination Sequence:
#
# PCOD9559509 Si02
#       4
#    16  16   4  16
#     4  12  27  43  65  96 142 182 222 276 346 417
#     4  11  23  39  64 103 135 171 217 286 339 395
#     4  12  20  37  73 104 134 164 237 285 340 410
#     4  11  23  41  70  96 131 173 226 285 337 396
#
# _framework density 21.768546000000001
#
# number of rings (size 3 to 8) (size 9 to 14) (size 15 to 20)
#    0.000    0.615    7.692    0.923    2.154    3.385 
#    0.000    0.000    0.000    3.692    0.000    4.308 
#    0.000    0.000    0.000    0.000    0.000    0.000 
#
# Total GULP energy -144882.909982 kJ/mol
# GULP energy per Si atom -5572.419615 kJ/mol
# Density = 2.171900 g / cm^3
# Si number density = 21.768546 Si / 1000 Ang^3
#
#
#
# Elastic Constant Matrix: (Units=GPa)
#
#
# Indices 1 2 3 4 5 6 
#
# 1 96.1790 55.2334 7.6266 0.0000 0.0000 0.0000
# 2 55.2334 96.1777 7.6238 0.0000 0.0000 0.0000
# 3 7.6266 7.6238 20.7065 0.0000 0.0000 0.0000
# 4 0.0000 0.0000 0.0000 5.4401 0.0000 0.0000
# 5 0.0000 0.0000 0.0000 0.0000 5.4400 0.0000
# 6 0.0000 0.0000 0.0000 0.0000 0.0000 37.1533
#
#
#
# Elastic Compliance Matrix: (Units=1/GPa)
#
#
# Indices 1 2 3 4 5 6 
#
# 1 0.015641 -0.008782 -0.002527 0.000000 0.000000 0.000000
# 2 -0.008782 0.015641 -0.002524 0.000000 0.000000 0.000000
# 3 -0.002527 -0.002524 0.050154 0.000000 0.000000 0.000000
# 4 0.000000 0.000000 0.000000 0.183819 0.000000 0.000000
# 5 0.000000 0.000000 0.000000 0.000000 0.183822 0.000000
# 6 0.000000 0.000000 0.000000 0.000000 0.000000 0.026916
#
#
# Mechanical properties :
#
#
# Convention : Reuss Voigt Hill
#
# Bulk Modulus (GPa) = 18.59809 39.33675 28.96742
# Shear Modulus (GPa) = 9.58620 19.11199 14.34910
#
# Velocity S-wave (km/s) = 2.10077 2.96626 2.57021
# Velocity P-wave (km/s) = 3.80085 5.46272 4.70573
#
# Compressibility (1/GPa) = 0.05376897
#
# Stress axis : x y z
#
# Youngs Moduli (GPa) = 63.93439 63.93491 19.93845
#
# Poissons Ratio (x) = 0.56148 0.05039
# Poissons Ratio (y) = 0.56148 0.05033
# Poissons Ratio (z) = 0.16159 0.16138
#
# Static dielectric constant tensor:
#      x y z
#    x 1.780060 0.000000 0.000000 
#    y 0.000000 1.780060 0.000000 
#    z 0.000000 0.000000 1.934120 
# 
# From -- ./inp_files/3519.got.cif
#   From: 2010.05.17/outbox.cif.g08.bks.cpg/sg119_2_cif.got.tgz:3519.got - 2010.05.20 11:21:29.
