data_PCOD9559218
_publ_section_title
;
Structure prediction by ZEFSAII (Michael W. Deem and Ramdas Pophale) SiO2 
 PCOD9559218
Probable space group: I -4 M 2
;
_chemical_formula_sum "Si O2"
_cell_formula_units_Z 80
_cell_length_a 14.340391
_cell_length_b 14.340391
_cell_length_c 21.477113
_cell_angle_alpha 90.000000
_cell_angle_beta 90.000000
_cell_angle_gamma 90.000000
_cell_volume 4416.699863
_symmetry_space_group_name_H-M "I -4 M 2"
_symmetry_group_IT_number 119
_symmetry_cell_setting 'tetragonal'
loop_
_space_group_symop_operation_xyz
x,y,z
y,-x,-z
-x,-y,z
-y,x,-z
y,x,-z
-y,-x,-z
-x,y,z
x,-y,z
1/2+x,1/2+y,1/2+z
1/2+y,1/2-x,1/2-z
1/2-x,1/2-y,1/2+z
1/2-y,1/2+x,1/2-z
1/2+y,1/2+x,1/2-z
1/2-y,1/2-x,1/2-z
1/2-x,1/2+y,1/2+z
1/2+x,1/2-y,1/2+z
loop_
_atom_site_type_symbol
_atom_site_label
_atom_site_fract_x
_atom_site_fract_y
_atom_site_fract_z
Si Si1 0.712228 0.887245 0.556680
Si Si2 0.607635 0.113381 0.433723
Si Si3 0.891315 0.386359 0.181824
Si Si4 0.891176 0.894118 0.378103
Si Si5 0.211709 0.389276 0.805525
O O1 0.663011 0.851906 0.494487
O O2 0.662959 0.854606 0.620659
O O3 0.820724 0.869071 0.568217
O O4 0.701788 0.000000 0.555271
O O5 0.500000 0.143621 0.434629
O O6 0.658449 0.137018 0.369412
O O7 0.607642 0.000000 0.436141
O O8 0.887208 0.500000 0.183273
O O9 0.855744 0.355744 0.250000
O O10 0.000000 0.361138 0.175676
O O11 0.821052 0.878066 0.321074
O O12 0.000000 0.883386 0.360882
O O13 0.875436 0.000000 0.399978
O O14 0.194647 0.500000 0.793540
O O15 0.171531 0.328470 0.750000
#
# Coordination Sequence:
#
# PCOD9559218 Si02
#       5
#    16  16  16  16  16
#     4   9  16  27  44  65  92 128 164 199 243 293
#     4   9  17  29  47  73 102 129 160 202 254 309
#     4   8  13  21  35  58  88 121 157 196 239 291
#     4   9  19  35  52  72 101 137 177 217 255 306
#     4  10  20  34  53  76 101 132 170 215 269 321
#
# _framework density 18.113071999999999
#
# number of rings (size 3 to 8) (size 9 to 14) (size 15 to 20)
#    0.000    3.000    0.000    1.800    0.000    5.000 
#    0.000    3.000    0.000    9.600    0.000    0.000 
#    0.000    0.000    0.000    0.400    0.000   37.200 
#
# Total GULP energy -223023.161527 kJ/mol
# GULP energy per Si atom -5575.579038 kJ/mol
# Density = 1.807185 g / cm^3
# Si number density = 18.113072 Si / 1000 Ang^3
#
#
#
# Elastic Constant Matrix: (Units=GPa)
#
#
# Indices 1 2 3 4 5 6 
#
# 1 74.2847 37.0134 58.7944 0.0000 0.0000 0.0000
# 2 37.0134 74.2850 58.7948 0.0000 0.0000 0.0000
# 3 58.7944 58.7948 153.6072 0.0000 0.0000 0.0000
# 4 0.0000 0.0000 0.0000 17.9865 0.0000 0.0000
# 5 0.0000 0.0000 0.0000 0.0000 17.9860 0.0000
# 6 0.0000 0.0000 0.0000 0.0000 0.0000 11.5216
#
#
#
# Elastic Compliance Matrix: (Units=1/GPa)
#
#
# Indices 1 2 3 4 5 6 
#
# 1 0.020958 -0.005872 -0.005774 0.000000 0.000000 0.000000
# 2 -0.005872 0.020958 -0.005774 0.000000 0.000000 0.000000
# 3 -0.005774 -0.005774 0.010930 0.000000 0.000000 0.000000
# 4 0.000000 0.000000 0.000000 0.055597 0.000000 0.000000
# 5 0.000000 0.000000 0.000000 0.000000 0.055599 0.000000
# 6 0.000000 0.000000 0.000000 0.000000 0.000000 0.086793
#
#
# Mechanical properties :
#
#
# Convention : Reuss Voigt Hill
#
# Bulk Modulus (GPa) = 55.54118 67.93134 61.73626
# Shear Modulus (GPa) = 17.14219 19.33710 18.23964
#
# Velocity S-wave (km/s) = 3.07970 3.27092 3.17675
# Velocity P-wave (km/s) = 6.58606 7.20074 6.90025
#
# Compressibility (1/GPa) = 0.01800466
#
# Stress axis : x y z
#
# Youngs Moduli (GPa) = 47.71510 47.71518 91.48937
#
# Poissons Ratio (x) = 0.28020 0.52826
# Poissons Ratio (y) = 0.28020 0.52826
# Poissons Ratio (z) = 0.27551 0.27551
#
# Static dielectric constant tensor:
#      x y z
#    x 1.642000 0.000000 0.000000 
#    y 0.000000 1.642000 0.000000 
#    z 0.000000 0.000000 1.622090 
# 
# From -- ./inp_files/7547.got.cif
#   From: 2010.05.17/outbox.cif.g08.bks.cpg/sg119_4_cif.got.tgz:7547.got - 2010.05.20 11:21:29.
