data_PCOD9559559
_publ_section_title
;
Structure prediction by ZEFSAII (Michael W. Deem and Ramdas Pophale) SiO2 
 PCOD9559559
Probable space group: I -4 C 2
;
_chemical_formula_sum "Si O2"
_cell_formula_units_Z 88
_cell_length_a 13.400170
_cell_length_b 13.400170
_cell_length_c 21.595102
_cell_angle_alpha 90.000000
_cell_angle_beta 90.000000
_cell_angle_gamma 90.000000
_cell_volume 3877.714903
_symmetry_space_group_name_H-M "I -4 C 2"
_symmetry_group_IT_number 120
_symmetry_cell_setting 'tetragonal'
loop_
_space_group_symop_operation_xyz
x,y,z
y,-x,-z
-x,-y,z
-y,x,-z
y,x,1/2-z
-y,-x,1/2-z
-x,y,1/2+z
x,-y,1/2+z
1/2+x,1/2+y,1/2+z
1/2+y,1/2-x,1/2-z
1/2-x,1/2-y,1/2+z
1/2-y,1/2+x,1/2-z
1/2+y,1/2+x,-z
1/2-y,1/2-x,-z
1/2-x,1/2+y,z
1/2+x,1/2-y,z
loop_
_atom_site_type_symbol
_atom_site_label
_atom_site_fract_x
_atom_site_fract_y
_atom_site_fract_z
Si Si1 0.132453 0.073087 0.028254
Si Si2 0.257118 0.757118 0.000000
Si Si3 0.367547 0.926913 0.221746
Si Si4 0.257118 0.257118 0.750000
Si Si5 0.415164 0.151675 0.592626
Si Si6 0.000000 0.500000 0.500000
Si Si7 0.000000 0.000000 0.250000
Si Si8 0.084836 0.151675 0.157374
O O1 0.116690 0.078297 0.101754
O O2 0.223372 0.140504 0.007143
O O3 0.037496 0.129040 0.997399
O O4 0.315937 0.808415 0.057500
O O5 0.462504 0.870960 0.252601
O O6 0.276628 0.859496 0.242857
O O7 0.383310 0.921703 0.148246
O O8 0.315937 0.308415 0.692500
O O9 0.460747 0.250000 0.625000
O O10 0.486833 0.094839 0.545277
O O11 0.013167 0.094839 0.204723
#
# Coordination Sequence:
#
# PCOD9559559 Si02
#       8
#    16   8  16   8  16   4   4  16
#     4  10  20  37  60  85 117 156 200 246 299 364
#     4   9  20  39  57  81 116 153 195 250 300 353
#     4  10  20  37  60  85 117 156 200 246 299 364
#     4   9  20  39  57  81 116 153 195 250 300 353
#     4   9  19  36  56  84 116 149 201 244 291 368
#     4  10  16  32  64  84 116 162 186 252 316 332
#     4  10  16  32  64  84 116 162 186 252 316 332
#     4   9  19  36  56  84 116 149 201 244 291 368
#
# _framework density 22.693777000000001
#
# number of rings (size 3 to 8) (size 9 to 14) (size 15 to 20)
#    0.000    2.545    0.000    2.182    0.000    1.455 
#    0.000   36.364    0.000    0.000    0.000    0.000 
#    0.000    0.000    0.000    0.000    0.000    0.000 
#
# Total GULP energy -245801.703919 kJ/mol
# GULP energy per Si atom -5586.402362 kJ/mol
# Density = 2.264212 g / cm^3
# Si number density = 22.693777 Si / 1000 Ang^3
#
#
#
# Elastic Constant Matrix: (Units=GPa)
#
#
# Indices 1 2 3 4 5 6 
#
# 1 51.3392 28.0642 24.5194 0.0000 0.0000 0.0000
# 2 28.0642 51.3392 24.5194 0.0000 0.0000 0.0000
# 3 24.5194 24.5194 133.2741 0.0000 0.0000 0.0000
# 4 0.0000 0.0000 0.0000 18.7608 0.0000 0.0000
# 5 0.0000 0.0000 0.0000 0.0000 18.7608 0.0000
# 6 0.0000 0.0000 0.0000 0.0000 0.0000 40.6156
#
#
#
# Elastic Compliance Matrix: (Units=1/GPa)
#
#
# Indices 1 2 3 4 5 6 
#
# 1 0.028586 -0.014378 -0.002614 0.000000 0.000000 0.000000
# 2 -0.014378 0.028586 -0.002614 0.000000 0.000000 0.000000
# 3 -0.002614 -0.002614 0.008465 0.000000 0.000000 0.000000
# 4 0.000000 0.000000 0.000000 0.053303 0.000000 0.000000
# 5 0.000000 0.000000 0.000000 0.000000 0.053303 0.000000
# 6 0.000000 0.000000 0.000000 0.000000 0.000000 0.024621
#
#
# Mechanical properties :
#
#
# Convention : Reuss Voigt Hill
#
# Bulk Modulus (GPa) = 37.84189 43.35097 40.59643
# Shear Modulus (GPa) = 20.41772 26.21739 23.31756
#
# Velocity S-wave (km/s) = 3.00276 3.40261 3.20892
# Velocity P-wave (km/s) = 5.36035 5.88057 5.62647
#
# Compressibility (1/GPa) = 0.02642574
#
# Stress axis : x y z
#
# Youngs Moduli (GPa) = 34.98164 34.98164 118.13114
#
# Poissons Ratio (x) = 0.50297 0.30880
# Poissons Ratio (y) = 0.50297 0.30880
# Poissons Ratio (z) = 0.09144 0.09144
#
# Static dielectric constant tensor:
#      x y z
#    x 1.845350 0.000000 0.000000 
#    y 0.000000 1.845350 0.000000 
#    z 0.000000 0.000000 1.876770 
# 
# From -- ./inp_files/5313.got.cif
#   From: 2010.05.17/outbox.cif.g08.bks.cpg/sg120_3_cif.got.tgz:5313.got - 2010.05.20 11:28:13.
