data_PCOD9559045
_publ_section_title
;
Structure prediction by ZEFSAII (Michael W. Deem and Ramdas Pophale) SiO2 
 PCOD9559045
Probable space group: I -4 M 2
;
_chemical_formula_sum "Si O2"
_cell_formula_units_Z 96
_cell_length_a 14.440541
_cell_length_b 14.440541
_cell_length_c 28.690416
_cell_angle_alpha 90.000000
_cell_angle_beta 90.000000
_cell_angle_gamma 90.000000
_cell_volume 5982.790195
_symmetry_space_group_name_H-M "I -4 M 2"
_symmetry_group_IT_number 119
_symmetry_cell_setting 'tetragonal'
loop_
_space_group_symop_operation_xyz
x,y,z
y,-x,-z
-x,-y,z
-y,x,-z
y,x,-z
-y,-x,-z
-x,y,z
x,-y,z
1/2+x,1/2+y,1/2+z
1/2+y,1/2-x,1/2-z
1/2-x,1/2-y,1/2+z
1/2-y,1/2+x,1/2-z
1/2+y,1/2+x,1/2-z
1/2-y,1/2-x,1/2-z
1/2-x,1/2+y,1/2+z
1/2+x,1/2-y,1/2+z
loop_
_atom_site_type_symbol
_atom_site_label
_atom_site_fract_x
_atom_site_fract_y
_atom_site_fract_z
Si Si1 0.798869 0.112474 0.882804
Si Si2 0.287652 0.313614 0.713652
Si Si3 0.611784 0.893366 0.335099
Si Si4 0.000000 0.893845 0.775044
Si Si5 0.112389 0.394668 0.941984
Si Si6 0.610685 0.749214 0.518122
Si Si7 0.895809 0.000000 0.112112
O O1 0.781522 0.156987 0.832627
O O2 0.735381 0.133588 0.927262
O O3 0.901621 0.147904 0.898649
O O4 0.804642 0.000000 0.877340
O O5 0.268003 0.231998 0.750000
O O6 0.186211 0.346577 0.696639
O O7 0.340041 0.403964 0.734968
O O8 0.500000 0.887134 0.332850
O O9 0.640696 0.874951 0.388750
O O10 0.636377 0.000000 0.323017
O O11 0.000000 0.899565 0.831624
O O12 0.000000 0.000000 0.757613
O O13 0.139062 0.500000 0.952413
O O14 0.000000 0.390915 0.941608
O O15 0.145052 0.326774 0.982278
O O16 0.654909 0.654909 0.500000
O O17 0.500000 0.743732 0.515630
O O18 0.000000 0.000000 0.092623
#
# Coordination Sequence:
#
# PCOD9559045 Si02
#       7
#    16  16  16   8  16  16   8
#     4   9  18  31  44  62  91 127 161 199 240 283
#     4  11  20  29  47  69  92 125 172 209 241 291
#     4   9  17  28  41  61  95 128 153 190 235 277
#     4   9  18  34  49  65  91 133 170 200 245 311
#     4   8  15  29  46  62  85 126 164 185 222 276
#     4  10  19  27  42  68  99 127 154 191 227 277
#     4   7  12  24  42  55  77 119 157 176 212 279
#
# _framework density 16.046023999999999
#
# number of rings (size 3 to 8) (size 9 to 14) (size 15 to 20)
#    0.000    2.833    0.833    3.500    2.333    0.167 
#    0.000    0.833    0.000    2.000    0.000    0.000 
#    0.000    3.333    0.000    0.000    0.000    0.000 
#
# Total GULP energy -267249.509950 kJ/mol
# GULP energy per Si atom -5567.698124 kJ/mol
# Density = 1.600950 g / cm^3
# Si number density = 16.046024 Si / 1000 Ang^3
#
#
#
# Elastic Constant Matrix: (Units=GPa)
#
#
# Indices 1 2 3 4 5 6 
#
# 1 44.7242 15.1428 28.9317 0.0000 0.0000 0.0000
# 2 15.1428 44.7251 28.9321 0.0000 0.0000 0.0000
# 3 28.9317 28.9321 73.9746 0.0000 0.0000 0.0000
# 4 0.0000 0.0000 0.0000 22.5236 0.0000 0.0000
# 5 0.0000 0.0000 0.0000 0.0000 22.5231 0.0000
# 6 0.0000 0.0000 0.0000 0.0000 0.0000 11.5204
#
#
#
# Elastic Compliance Matrix: (Units=1/GPa)
#
#
# Indices 1 2 3 4 5 6 
#
# 1 0.030330 -0.003475 -0.010503 0.000000 0.000000 0.000000
# 2 -0.003475 0.030330 -0.010503 0.000000 0.000000 0.000000
# 3 -0.010503 -0.010503 0.021734 0.000000 0.000000 0.000000
# 4 0.000000 0.000000 0.000000 0.044398 0.000000 0.000000
# 5 0.000000 0.000000 0.000000 0.000000 0.044399 0.000000
# 6 0.000000 0.000000 0.000000 0.000000 0.000000 0.086803
#
#
# Mechanical properties :
#
#
# Convention : Reuss Voigt Hill
#
# Bulk Modulus (GPa) = 29.91192 34.38189 32.14690
# Shear Modulus (GPa) = 15.71836 17.34124 16.52980
#
# Velocity S-wave (km/s) = 3.13322 3.29099 3.21308
# Velocity P-wave (km/s) = 5.63660 5.99286 5.81746
#
# Compressibility (1/GPa) = 0.03343149
#
# Stress axis : x y z
#
# Youngs Moduli (GPa) = 32.97053 32.97102 46.01098
#
# Poissons Ratio (x) = 0.11456 0.48327
# Poissons Ratio (y) = 0.11456 0.48327
# Poissons Ratio (z) = 0.34630 0.34630
#
# Static dielectric constant tensor:
#      x y z
#    x 1.555140 0.000000 0.000000 
#    y 0.000000 1.555140 0.000000 
#    z 0.000000 0.000000 1.575270 
# 
# From -- ./inp_files/10394.got.cif
#   From: 2010.05.17/outbox.cif.g08.bks.cpg/sg119_6_cif.got.tgz:10394.got - 2010.05.20 11:21:29.
