data_PCOD9559572
_publ_section_title
;
Structure prediction by ZEFSAII (Michael W. Deem and Ramdas Pophale) SiO2 
 PCOD9559572
Probable space group: I -4 C 2
;
_chemical_formula_sum "Si O2"
_cell_formula_units_Z 64
_cell_length_a 21.940909
_cell_length_b 21.940909
_cell_length_c 5.382235
_cell_angle_alpha 90.000000
_cell_angle_beta 90.000000
_cell_angle_gamma 90.000000
_cell_volume 2591.026701
_symmetry_space_group_name_H-M "I -4 C 2"
_symmetry_group_IT_number 120
_symmetry_cell_setting 'tetragonal'
loop_
_space_group_symop_operation_xyz
x,y,z
y,-x,-z
-x,-y,z
-y,x,-z
y,x,1/2-z
-y,-x,1/2-z
-x,y,1/2+z
x,-y,1/2+z
1/2+x,1/2+y,1/2+z
1/2+y,1/2-x,1/2-z
1/2-x,1/2-y,1/2+z
1/2-y,1/2+x,1/2-z
1/2+y,1/2+x,-z
1/2-y,1/2-x,-z
1/2-x,1/2+y,z
1/2+x,1/2-y,z
loop_
_atom_site_type_symbol
_atom_site_label
_atom_site_fract_x
_atom_site_fract_y
_atom_site_fract_z
Si Si1 0.373275 0.016784 0.352885
Si Si2 0.619251 0.531452 0.357182
Si Si3 0.247244 0.428359 0.362304
Si Si4 0.128087 0.287584 0.136655
O O1 0.346934 0.084538 0.330494
O O2 0.405970 0.005018 0.608791
O O3 0.312420 0.972075 0.366946
O O4 0.595801 0.595801 0.250000
O O5 0.598150 0.512114 0.631263
O O6 0.691709 0.533768 0.394258
O O7 0.241386 0.378906 0.588369
O O8 0.250925 0.401327 0.085553
O O9 0.189354 0.310647 0.000000
#
# Coordination Sequence:
#
# PCOD9559572 Si02
#       4
#    16  16  16  16
#     4   8  14  25  43  66  99 136 174 221 272 324
#     4  12  25  42  65  91 119 156 199 249 311 376
#     4  10  19  35  55  79 113 154 196 237 292 363
#     4  10  18  29  51  83 115 145 189 249 295 334
#
# _framework density 24.700634999999998
#
# number of rings (size 3 to 8) (size 9 to 14) (size 15 to 20)
#    0.000    2.000    0.000    7.500    0.000    1.500 
#    0.000    0.000    0.000    3.000    0.000    0.000 
#    0.000  243.000    0.000    0.000    0.000    0.000 
#
# Total GULP energy -178526.238910 kJ/mol
# GULP energy per Si atom -5578.944966 kJ/mol
# Density = 2.464442 g / cm^3
# Si number density = 24.700635 Si / 1000 Ang^3
#
#
#
# Elastic Constant Matrix: (Units=GPa)
#
#
# Indices 1 2 3 4 5 6 
#
# 1 28.5468 37.3821 27.8401 0.0000 0.0000 0.0000
# 2 37.3821 28.5481 27.8387 0.0000 0.0000 0.0000
# 3 27.8401 27.8387 192.0923 0.0000 0.0000 0.0000
# 4 0.0000 0.0000 0.0000 27.2476 0.0000 0.0000
# 5 0.0000 0.0000 0.0000 0.0000 27.2471 0.0000
# 6 0.0000 0.0000 0.0000 0.0000 0.0000 18.3373
#
#
#
# Elastic Compliance Matrix: (Units=1/GPa)
#
#
# Indices 1 2 3 4 5 6 
#
# 1 -0.047956 0.065237 -0.002504 0.000000 0.000000 0.000000
# 2 0.065237 -0.047952 -0.002505 0.000000 0.000000 0.000000
# 3 -0.002504 -0.002505 0.005932 0.000000 0.000000 0.000000
# 4 0.000000 0.000000 0.000000 0.036701 0.000000 0.000000
# 5 0.000000 0.000000 0.000000 0.000000 0.036701 0.000000
# 6 0.000000 0.000000 0.000000 0.000000 0.000000 0.054534
#
#
# Mechanical properties :
#
#
# Convention : Reuss Voigt Hill
#
# Bulk Modulus (GPa) = 32.80964 48.36764 40.58864
# Shear Modulus (GPa) = -69.12198 24.97483 -22.07357
#
# Velocity S-wave (km/s) = -5.29572 3.18323 -2.99263
# Velocity P-wave (km/s) = 4.90725 5.75627 2.12762
#
# Compressibility (1/GPa) = 0.03047884
#
# Stress axis : x y z
#
# Youngs Moduli (GPa) = -20.85263 -20.85409 168.58141
#
# Poissons Ratio (x) = 1.36046 0.42215
# Poissons Ratio (y) = 1.36036 0.42237
# Poissons Ratio (z) = -0.05222 -0.05225
#
# Static dielectric constant tensor:
#      x y z
#    x 1.999350 0.000000 0.000000 
#    y 0.000000 1.999350 0.000000 
#    z 0.000000 0.000000 2.034540 
# 
# From -- ./inp_files/343.got.cif
#   From: 2010.05.17/outbox.cif.g08.bks.cpg/sg120_1_cif.got.tgz:343.got - 2010.05.20 11:28:13.
