data_PCOD9559530
_publ_section_title
;
Structure prediction by ZEFSAII (Michael W. Deem and Ramdas Pophale) SiO2 
 PCOD9559530
Probable space group: I -4 M 2
;
_chemical_formula_sum "Si O2"
_cell_formula_units_Z 56
_cell_length_a 17.771122
_cell_length_b 17.771122
_cell_length_c 8.202226
_cell_angle_alpha 90.000000
_cell_angle_beta 90.000000
_cell_angle_gamma 90.000000
_cell_volume 2590.367772
_symmetry_space_group_name_H-M "I -4 M 2"
_symmetry_group_IT_number 119
_symmetry_cell_setting 'tetragonal'
loop_
_space_group_symop_operation_xyz
x,y,z
y,-x,-z
-x,-y,z
-y,x,-z
y,x,-z
-y,-x,-z
-x,y,z
x,-y,z
1/2+x,1/2+y,1/2+z
1/2+y,1/2-x,1/2-z
1/2-x,1/2-y,1/2+z
1/2-y,1/2+x,1/2-z
1/2+y,1/2+x,1/2-z
1/2-y,1/2-x,1/2-z
1/2-x,1/2+y,1/2+z
1/2+x,1/2-y,1/2+z
loop_
_atom_site_type_symbol
_atom_site_label
_atom_site_fract_x
_atom_site_fract_y
_atom_site_fract_z
Si Si1 0.863231 0.000000 0.660925
Si Si2 0.115175 0.000000 0.309146
Si Si3 0.000000 0.786474 0.993586
Si Si4 0.335348 0.217769 0.426040
Si Si5 0.583621 0.914747 0.944595
O O1 0.833074 0.000000 0.473760
O O2 0.922374 0.068696 0.675809
O O3 0.805977 0.000000 0.812982
O O4 0.142388 0.000000 0.124890
O O5 0.079204 0.748543 0.942592
O O6 0.278323 0.278323 0.500000
O O7 0.304244 0.195757 0.250000
O O8 0.346565 0.138272 0.515185
O O9 0.500000 0.901104 0.009889
O O10 0.580678 0.919323 0.750000
O O11 0.605740 0.000000 0.999882
#
# Coordination Sequence:
#
# PCOD9559530 Si02
#       5
#     8   8   8  16  16
#     4   9  18  36  66  99 145 175 238 304 355 446
#     4   9  18  36  64 107 133 181 239 298 360 440
#     4  12  24  45  69  98 138 206 241 296 381 465
#     4  12  27  47  68 105 149 186 245 315 388 451
#     4   9  19  41  74 105 137 184 242 301 368 448
#
# _framework density 21.618552000000001
#
# number of rings (size 3 to 8) (size 9 to 14) (size 15 to 20)
#    0.000    1.714    1.429    5.143    2.000    1.143 
#   15.429    1.429    0.000    0.000    0.000    0.000 
#    0.000    0.571    0.000    0.000    0.000    0.000 
#
# Total GULP energy -155951.142579 kJ/mol
# GULP energy per Si atom -5569.683664 kJ/mol
# Density = 2.156935 g / cm^3
# Si number density = 21.618552 Si / 1000 Ang^3
#
#
#
# Elastic Constant Matrix: (Units=GPa)
#
#
# Indices 1 2 3 4 5 6 
#
# 1 106.3984 71.8750 38.4376 0.0000 0.0000 0.0000
# 2 71.8750 106.3982 38.4378 0.0000 0.0000 0.0000
# 3 38.4376 38.4378 100.3712 0.0000 0.0000 0.0000
# 4 0.0000 0.0000 0.0000 87.3507 0.0000 0.0000
# 5 0.0000 0.0000 0.0000 0.0000 87.3843 0.0000
# 6 0.0000 0.0000 0.0000 0.0000 0.0000 0.6464
#
#
#
# Elastic Compliance Matrix: (Units=1/GPa)
#
#
# Indices 1 2 3 4 5 6 
#
# 1 0.017842 -0.011124 -0.002573 0.000000 0.000000 0.000000
# 2 -0.011124 0.017842 -0.002573 0.000000 0.000000 0.000000
# 3 -0.002573 -0.002573 0.011934 0.000000 0.000000 0.000000
# 4 0.000000 0.000000 0.000000 0.011448 0.000000 0.000000
# 5 0.000000 0.000000 0.000000 0.000000 0.011444 0.000000
# 6 0.000000 0.000000 0.000000 0.000000 0.000000 1.546983
#
#
# Mechanical properties :
#
#
# Convention : Reuss Voigt Hill
#
# Bulk Modulus (GPa) = 66.31565 67.85205 67.08385
# Shear Modulus (GPa) = 3.02104 46.03744 24.52924
#
# Velocity S-wave (km/s) = 1.18341 4.61969 3.37209
# Velocity P-wave (km/s) = 5.71045 7.74013 6.80143
#
# Compressibility (1/GPa) = 0.01507940
#
# Stress axis : x y z
#
# Youngs Moduli (GPa) = 56.04622 56.04599 83.79608
#
# Poissons Ratio (x) = 0.62343 0.21561
# Poissons Ratio (y) = 0.62343 0.21561
# Poissons Ratio (z) = 0.14421 0.14421
#
# Static dielectric constant tensor:
#      x y z
#    x 1.765130 0.000000 0.000000 
#    y 0.000000 1.765150 0.000000 
#    z 0.000000 0.000000 1.773160 
# 
# From -- ./inp_files/2048.got.cif
#   From: 2010.05.17/outbox.cif.g08.bks.cpg/sg119_2_cif.got.tgz:2048.got - 2010.05.20 11:21:29.
