data_PCOD9559506
_publ_section_title
;
Structure prediction by ZEFSAII (Michael W. Deem and Ramdas Pophale) SiO2 
 PCOD9559506
Probable space group: I -4 M 2
;
_chemical_formula_sum "Si O2"
_cell_formula_units_Z 48
_cell_length_a 7.584582
_cell_length_b 7.584582
_cell_length_c 40.475044
_cell_angle_alpha 90.000000
_cell_angle_beta 90.000000
_cell_angle_gamma 90.000000
_cell_volume 2328.362691
_symmetry_space_group_name_H-M "I -4 M 2"
_symmetry_group_IT_number 119
_symmetry_cell_setting 'tetragonal'
loop_
_space_group_symop_operation_xyz
x,y,z
y,-x,-z
-x,-y,z
-y,x,-z
y,x,-z
-y,-x,-z
-x,y,z
x,-y,z
1/2+x,1/2+y,1/2+z
1/2+y,1/2-x,1/2-z
1/2-x,1/2-y,1/2+z
1/2-y,1/2+x,1/2-z
1/2+y,1/2+x,1/2-z
1/2-y,1/2-x,1/2-z
1/2-x,1/2+y,1/2+z
1/2+x,1/2-y,1/2+z
loop_
_atom_site_type_symbol
_atom_site_label
_atom_site_fract_x
_atom_site_fract_y
_atom_site_fract_z
Si Si1 0.211364 0.700484 0.821343
Si Si2 0.208353 0.500000 0.373119
Si Si3 0.291176 0.291176 0.000000
Si Si4 0.500000 0.214162 0.552500
Si Si5 0.711473 0.788528 0.250000
O O1 0.276565 0.500000 0.826576
O O2 0.276842 0.774225 0.785766
O O3 0.000000 0.689521 0.817768
O O4 0.245606 0.829322 0.851492
O O5 0.283413 0.500000 0.410172
O O6 0.000000 0.500000 0.376645
O O7 0.172018 0.237522 0.031173
O O8 0.264267 0.500000 0.993721
O O9 0.500000 0.000000 0.553874
O O10 0.500000 0.759611 0.248421
#
# Coordination Sequence:
#
# PCOD9559506 Si02
#       5
#    16   8   8   8   8
#     4   9  18  36  58  79 108 149 198 244 289 343
#     4  11  23  37  53  83 125 155 181 235 300 358
#     4   9  18  37  62  84 110 147 192 239 286 338
#     4   9  20  38  58  82 113 149 191 230 277 353
#     4   7  12  28  55  76  96 140 197 245 282 328
#
# _framework density 20.615344
#
# number of rings (size 3 to 8) (size 9 to 14) (size 15 to 20)
#    0.000    3.000    0.000    2.500    0.000    2.333 
#    9.000    3.333    0.000    0.000    0.000    0.000 
#    0.000    0.000    0.000    0.000    0.000    0.000 
#
# Total GULP energy -133805.444101 kJ/mol
# GULP energy per Si atom -5575.226838 kJ/mol
# Density = 2.056842 g / cm^3
# Si number density = 20.615344 Si / 1000 Ang^3
#
#
#
# Elastic Constant Matrix: (Units=GPa)
#
#
# Indices 1 2 3 4 5 6 
#
# 1 78.3626 22.4721 66.0166 0.0000 0.0000 0.0000
# 2 22.4721 78.3630 66.0165 0.0000 0.0000 0.0000
# 3 66.0166 66.0165 249.0612 0.0000 0.0000 0.0000
# 4 0.0000 0.0000 0.0000 29.7884 0.0000 0.0000
# 5 0.0000 0.0000 0.0000 0.0000 29.7885 0.0000
# 6 0.0000 0.0000 0.0000 0.0000 0.0000 16.2843
#
#
#
# Elastic Compliance Matrix: (Units=1/GPa)
#
#
# Indices 1 2 3 4 5 6 
#
# 1 0.016540 -0.001352 -0.004026 0.000000 0.000000 0.000000
# 2 -0.001352 0.016540 -0.004026 0.000000 0.000000 0.000000
# 3 -0.004026 -0.004026 0.006149 0.000000 0.000000 0.000000
# 4 0.000000 0.000000 0.000000 0.033570 0.000000 0.000000
# 5 0.000000 0.000000 0.000000 0.000000 0.033570 0.000000
# 6 0.000000 0.000000 0.000000 0.000000 0.000000 0.061409
#
#
# Mechanical properties :
#
#
# Convention : Reuss Voigt Hill
#
# Bulk Modulus (GPa) = 48.96425 79.42191 64.19308
# Shear Modulus (GPa) = 25.85397 31.92435 28.88916
#
# Velocity S-wave (km/s) = 3.54519 3.93946 3.74751
# Velocity P-wave (km/s) = 6.36873 7.70076 7.06620
#
# Compressibility (1/GPa) = 0.02042306
#
# Stress axis : x y z
#
# Youngs Moduli (GPa) = 60.45767 60.45810 162.61921
#
# Poissons Ratio (x) = 0.08172 0.65470
# Poissons Ratio (y) = 0.08172 0.65470
# Poissons Ratio (z) = 0.24340 0.24340
#
# Static dielectric constant tensor:
#      x y z
#    x 1.735280 0.000000 0.000000 
#    y 0.000000 1.735280 0.000000 
#    z 0.000000 0.000000 1.762430 
# 
# From -- ./inp_files/9907.got.cif
#   From: 2010.05.17/outbox.cif.g08.bks.cpg/sg119_5_cif.got.tgz:9907.got - 2010.05.20 11:21:29.
