data_PCOD9559800
_publ_section_title
;
Structure prediction by ZEFSAII (Michael W. Deem and Ramdas Pophale) SiO2 
 PCOD9559800
Probable space group: I -4 C 2
;
_chemical_formula_sum "Si O2"
_cell_formula_units_Z 64
_cell_length_a 15.611181
_cell_length_b 15.611181
_cell_length_c 12.788883
_cell_angle_alpha 90.000000
_cell_angle_beta 90.000000
_cell_angle_gamma 90.000000
_cell_volume 3116.765532
_symmetry_space_group_name_H-M "I -4 C 2"
_symmetry_group_IT_number 120
_symmetry_cell_setting 'tetragonal'
loop_
_space_group_symop_operation_xyz
x,y,z
y,-x,-z
-x,-y,z
-y,x,-z
y,x,1/2-z
-y,-x,1/2-z
-x,y,1/2+z
x,-y,1/2+z
1/2+x,1/2+y,1/2+z
1/2+y,1/2-x,1/2-z
1/2-x,1/2-y,1/2+z
1/2-y,1/2+x,1/2-z
1/2+y,1/2+x,-z
1/2-y,1/2-x,-z
1/2-x,1/2+y,z
1/2+x,1/2-y,z
loop_
_atom_site_type_symbol
_atom_site_label
_atom_site_fract_x
_atom_site_fract_y
_atom_site_fract_z
Si Si1 0.373939 0.983550 0.201035
Si Si2 0.645135 0.724997 0.541135
Si Si3 0.932965 0.822035 0.822636
Si Si4 0.384752 0.384752 0.750000
Si Si5 0.092668 0.407332 0.000000
O O1 0.428042 0.907908 0.254557
O O2 0.275415 0.959192 0.203119
O O3 0.403252 0.982099 0.081231
O O4 0.737756 0.762245 0.500000
O O5 0.599341 0.677207 0.443334
O O6 0.640638 0.673334 0.648969
O O7 0.594472 0.814627 0.556917
O O8 0.857230 0.857230 0.750000
O O9 0.018585 0.873005 0.791704
#
# Coordination Sequence:
#
# PCOD9559800 Si02
#       5
#    16  16  16   8   8
#     4  10  21  40  69  97 137 179 222 289 358 417
#     4   9  23  43  69 101 144 183 244 296 351 436
#     4  11  26  44  71 104 144 184 245 298 354 439
#     4  12  25  46  76 100 146 201 232 294 378 429
#     4   8  18  41  62  98 144 164 223 292 334 424
#
# _framework density 20.534108
#
# number of rings (size 3 to 8) (size 9 to 14) (size 15 to 20)
#    0.750    1.250    0.000    1.875    5.250    2.000 
#    0.000    0.000    5.500    0.000    0.000    0.000 
#    0.000    0.000    0.000    0.000    0.000    0.000 
#
# Total GULP energy -178271.747489 kJ/mol
# GULP energy per Si atom -5570.992109 kJ/mol
# Density = 2.048737 g / cm^3
# Si number density = 20.534108 Si / 1000 Ang^3
#
#
#
# Elastic Constant Matrix: (Units=GPa)
#
#
# Indices 1 2 3 4 5 6 
#
# 1 77.6619 51.2800 57.9053 0.0000 0.0000 0.0000
# 2 51.2800 77.6626 57.9052 0.0000 0.0000 0.0000
# 3 57.9053 57.9052 148.4131 0.0000 0.0000 0.0000
# 4 0.0000 0.0000 0.0000 32.5924 0.0000 0.0000
# 5 0.0000 0.0000 0.0000 0.0000 32.5902 0.0000
# 6 0.0000 0.0000 0.0000 0.0000 0.0000 22.5383
#
#
#
# Elastic Compliance Matrix: (Units=1/GPa)
#
#
# Indices 1 2 3 4 5 6 
#
# 1 0.024922 -0.012983 -0.004658 0.000000 0.000000 0.000000
# 2 -0.012983 0.024922 -0.004658 0.000000 0.000000 0.000000
# 3 -0.004658 -0.004658 0.010373 0.000000 0.000000 0.000000
# 4 0.000000 0.000000 0.000000 0.030682 0.000000 0.000000
# 5 0.000000 0.000000 0.000000 0.000000 0.030684 0.000000
# 6 0.000000 0.000000 0.000000 0.000000 0.000000 0.044369
#
#
# Mechanical properties :
#
#
# Convention : Reuss Voigt Hill
#
# Bulk Modulus (GPa) = 64.02705 70.87985 67.45345
# Shear Modulus (GPa) = 23.17438 26.65400 24.91419
#
# Velocity S-wave (km/s) = 3.36308 3.60673 3.48704
# Velocity P-wave (km/s) = 6.80653 7.20678 7.00952
#
# Compressibility (1/GPa) = 0.01561840
#
# Stress axis : x y z
#
# Youngs Moduli (GPa) = 40.12529 40.12584 96.40519
#
# Poissons Ratio (x) = 0.52094 0.44909
# Poissons Ratio (y) = 0.52093 0.44907
# Poissons Ratio (z) = 0.18692 0.18691
#
# Static dielectric constant tensor:
#      x y z
#    x 1.715090 0.000000 0.000000 
#    y 0.000000 1.715080 0.000000 
#    z 0.000000 0.000000 1.762800 
# 
# From -- ./inp_files/2403.got.cif
#   From: 2010.05.17/outbox.cif.g08.bks.cpg/sg120_2_cif.got.tgz:2403.got - 2010.05.20 11:28:13.
