data_PCOD9559210
_publ_section_title
;
Structure prediction by ZEFSAII (Michael W. Deem and Ramdas Pophale) SiO2 
 PCOD9559210
Probable space group: I -4 M 2
;
_chemical_formula_sum "Si O2"
_cell_formula_units_Z 72
_cell_length_a 11.752485
_cell_length_b 11.752485
_cell_length_c 31.222284
_cell_angle_alpha 90.000000
_cell_angle_beta 90.000000
_cell_angle_gamma 90.000000
_cell_volume 4312.450081
_symmetry_space_group_name_H-M "I -4 M 2"
_symmetry_group_IT_number 119
_symmetry_cell_setting 'tetragonal'
loop_
_space_group_symop_operation_xyz
x,y,z
y,-x,-z
-x,-y,z
-y,x,-z
y,x,-z
-y,-x,-z
-x,y,z
x,-y,z
1/2+x,1/2+y,1/2+z
1/2+y,1/2-x,1/2-z
1/2-x,1/2-y,1/2+z
1/2-y,1/2+x,1/2-z
1/2+y,1/2+x,1/2-z
1/2-y,1/2-x,1/2-z
1/2-x,1/2+y,1/2+z
1/2+x,1/2-y,1/2+z
loop_
_atom_site_type_symbol
_atom_site_label
_atom_site_fract_x
_atom_site_fract_y
_atom_site_fract_z
Si Si1 0.870964 0.750952 0.540390
Si Si2 0.864602 0.500000 0.426520
Si Si3 0.635243 0.500000 0.595563
Si Si4 0.635731 0.134265 0.800140
Si Si5 0.212212 0.251526 0.119193
Si Si6 0.800316 0.500000 0.521490
O O1 0.802502 0.802502 0.500000
O O2 0.815186 0.775492 0.586528
O O3 0.863947 0.614755 0.534817
O O4 0.000000 0.790631 0.538230
O O5 0.825513 0.390365 0.400684
O O6 0.794727 0.500000 0.470604
O O7 0.000000 0.500000 0.434769
O O8 0.500000 0.500000 0.597626
O O9 0.681980 0.617330 0.616002
O O10 0.681561 0.500000 0.546795
O O11 0.500000 0.146142 0.807729
O O12 0.656965 0.156965 0.750000
O O13 0.705907 0.214326 0.832084
O O14 0.663752 0.000000 0.807646
#
# Coordination Sequence:
#
# PCOD9559210 Si02
#       6
#    16   8   8  16  16   8
#     4  11  23  37  52  73 105 144 183 217 253 302
#     4  12  20  31  53  76 102 134 173 217 257 305
#     4  10  20  34  50  78 115 137 164 208 265 316
#     4   9  17  31  55  83 104 126 165 216 263 311
#     4  11  21  34  53  79 106 138 168 212 264 314
#     4  10  22  36  52  77 102 142 181 216 257 308
#
# _framework density 16.695847000000001
#
# number of rings (size 3 to 8) (size 9 to 14) (size 15 to 20)
#    0.000    1.556    4.444    2.333    0.000    1.111 
#    2.000    0.000    2.444    0.000    0.000    0.000 
#    0.000    0.000    0.000    0.000    0.000    0.000 
#
# Total GULP energy -200798.736506 kJ/mol
# GULP energy per Si atom -5577.742681 kJ/mol
# Density = 1.665785 g / cm^3
# Si number density = 16.695847 Si / 1000 Ang^3
#
#
#
# Elastic Constant Matrix: (Units=GPa)
#
#
# Indices 1 2 3 4 5 6 
#
# 1 62.8975 37.6723 38.8335 0.0000 0.0000 0.0000
# 2 37.6723 62.8975 38.8335 0.0000 0.0000 0.0000
# 3 38.8335 38.8335 125.7138 0.0000 0.0000 0.0000
# 4 0.0000 0.0000 0.0000 22.3269 0.0000 0.0000
# 5 0.0000 0.0000 0.0000 0.0000 22.3269 0.0000
# 6 0.0000 0.0000 0.0000 0.0000 0.0000 5.0112
#
#
#
# Elastic Compliance Matrix: (Units=1/GPa)
#
#
# Indices 1 2 3 4 5 6 
#
# 1 0.026351 -0.013292 -0.004034 0.000000 0.000000 0.000000
# 2 -0.013292 0.026351 -0.004034 0.000000 0.000000 0.000000
# 3 -0.004034 -0.004034 0.010447 0.000000 0.000000 0.000000
# 4 0.000000 0.000000 0.000000 0.044789 0.000000 0.000000
# 5 0.000000 0.000000 0.000000 0.000000 0.044789 0.000000
# 6 0.000000 0.000000 0.000000 0.000000 0.000000 0.199553
#
#
# Mechanical properties :
#
#
# Convention : Reuss Voigt Hill
#
# Bulk Modulus (GPa) = 48.95130 53.57636 51.26383
# Shear Modulus (GPa) = 12.44376 19.01099 15.72738
#
# Velocity S-wave (km/s) = 2.73302 3.37807 3.07252
# Velocity P-wave (km/s) = 6.27234 6.88291 6.58471
#
# Compressibility (1/GPa) = 0.02042847
#
# Stress axis : x y z
#
# Youngs Moduli (GPa) = 37.94973 37.94973 95.72394
#
# Poissons Ratio (x) = 0.50443 0.38613
# Poissons Ratio (y) = 0.50443 0.38613
# Poissons Ratio (z) = 0.15308 0.15308
#
# Static dielectric constant tensor:
#      x y z
#    x 1.573810 0.000000 0.000000 
#    y 0.000000 1.573810 0.000000 
#    z 0.000000 0.000000 1.581160 
# 
# From -- ./inp_files/10053.got.cif
#   From: 2010.05.17/outbox.cif.g08.bks.cpg/sg119_6_cif.got.tgz:10053.got - 2010.05.20 11:21:29.
