data_PCOD9559014
_publ_section_title
;
Structure prediction by ZEFSAII (Michael W. Deem and Ramdas Pophale) SiO2 
 PCOD9559014
Probable space group: I -4 M 2
;
_chemical_formula_sum "Si O2"
_cell_formula_units_Z 88
_cell_length_a 14.963280
_cell_length_b 14.963280
_cell_length_c 20.036113
_cell_angle_alpha 90.000000
_cell_angle_beta 90.000000
_cell_angle_gamma 90.000000
_cell_volume 4486.080659
_symmetry_space_group_name_H-M "I -4 M 2"
_symmetry_group_IT_number 119
_symmetry_cell_setting 'tetragonal'
loop_
_space_group_symop_operation_xyz
x,y,z
y,-x,-z
-x,-y,z
-y,x,-z
y,x,-z
-y,-x,-z
-x,y,z
x,-y,z
1/2+x,1/2+y,1/2+z
1/2+y,1/2-x,1/2-z
1/2-x,1/2-y,1/2+z
1/2-y,1/2+x,1/2-z
1/2+y,1/2+x,1/2-z
1/2-y,1/2-x,1/2-z
1/2-x,1/2+y,1/2+z
1/2+x,1/2-y,1/2+z
loop_
_atom_site_type_symbol
_atom_site_label
_atom_site_fract_x
_atom_site_fract_y
_atom_site_fract_z
Si Si1 0.500000 0.893421 0.331400
Si Si2 0.696792 0.602984 0.852297
Si Si3 0.000000 0.891088 0.178833
Si Si4 0.189502 0.677308 0.963850
Si Si5 0.891891 0.000000 0.665933
Si Si6 0.500000 0.104152 0.490844
Si Si7 0.331036 0.831036 0.250000
Si Si8 0.349400 0.395017 0.577242
O O1 0.500000 0.889375 0.410754
O O2 0.414173 0.846898 0.299803
O O3 0.500000 0.000000 0.317491
O O4 0.692500 0.500000 0.829563
O O5 0.762531 0.606475 0.916084
O O6 0.595246 0.635152 0.865725
O O7 0.741463 0.657798 0.792283
O O8 0.000000 0.864294 0.255887
O O9 0.083557 0.861886 0.133733
O O10 0.000000 0.000000 0.178669
O O11 0.099987 0.646603 0.005435
O O12 0.152661 0.756007 0.917223
O O13 0.270744 0.729257 0.000000
O O14 0.000000 0.000000 0.663148
O O15 0.500000 0.000000 0.511250
O O16 0.381019 0.381019 0.500000
O O17 0.338737 0.500000 0.586063
#
# Coordination Sequence:
#
# PCOD9559014 Si02
#       8
#     8  16   8  16   8   8   8  16
#     4  11  18  28  51  93 135 161 180 218 305 391
#     4  11  23  41  60  84 121 158 204 260 308 364
#     4   9  18  29  51  79 114 163 197 222 282 350
#     4  11  24  38  58  89 119 161 207 253 311 381
#     4   9  22  40  55  76 112 160 207 256 294 350
#     4  11  22  39  59  88 129 164 200 256 319 383
#     4  12  19  30  58  96 130 157 186 228 304 392
#     4  10  18  31  51  81 122 157 191 227 282 361
#
# _framework density 19.616232
#
# number of rings (size 3 to 8) (size 9 to 14) (size 15 to 20)
#    0.000    1.455    5.455    0.545    2.545    0.000 
#    3.273    0.000    0.000    0.000    0.000    0.000 
#    0.000    0.000    0.000    0.000    0.000    0.000 
#
# Total GULP energy -245141.616849 kJ/mol
# GULP energy per Si atom -5571.400383 kJ/mol
# Density = 1.957158 g / cm^3
# Si number density = 19.616232 Si / 1000 Ang^3
#
#
#
# Elastic Constant Matrix: (Units=GPa)
#
#
# Indices 1 2 3 4 5 6 
#
# 1 92.0762 22.3047 3.7262 0.0000 0.0000 0.0000
# 2 22.3047 92.0765 3.7255 0.0000 0.0000 0.0000
# 3 3.7262 3.7255 27.4052 0.0000 0.0000 0.0000
# 4 0.0000 0.0000 0.0000 22.4793 0.0000 0.0000
# 5 0.0000 0.0000 0.0000 0.0000 22.4789 0.0000
# 6 0.0000 0.0000 0.0000 0.0000 0.0000 25.0021
#
#
#
# Elastic Compliance Matrix: (Units=1/GPa)
#
#
# Indices 1 2 3 4 5 6 
#
# 1 0.011577 -0.002756 -0.001199 0.000000 0.000000 0.000000
# 2 -0.002756 0.011577 -0.001199 0.000000 0.000000 0.000000
# 3 -0.001199 -0.001199 0.036816 0.000000 0.000000 0.000000
# 4 0.000000 0.000000 0.000000 0.044485 0.000000 0.000000
# 5 0.000000 0.000000 0.000000 0.000000 0.044486 0.000000
# 6 0.000000 0.000000 0.000000 0.000000 0.000000 0.039997
#
#
# Mechanical properties :
#
#
# Convention : Reuss Voigt Hill
#
# Bulk Modulus (GPa) = 20.13683 30.11897 25.12790
# Shear Modulus (GPa) = 23.16972 26.11217 24.64095
#
# Velocity S-wave (km/s) = 3.44052 3.65245 3.54807
# Velocity P-wave (km/s) = 5.10593 5.75974 5.44266
#
# Compressibility (1/GPa) = 0.04966025
#
# Stress axis : x y z
#
# Youngs Moduli (GPa) = 86.38057 86.38103 27.16247
#
# Poissons Ratio (x) = 0.23805 0.03258
# Poissons Ratio (y) = 0.23805 0.03257
# Poissons Ratio (z) = 0.10361 0.10357
#
# Static dielectric constant tensor:
#      x y z
#    x 1.737630 0.000000 0.000000 
#    y 0.000000 1.737630 0.000000 
#    z 0.000000 0.000000 1.728780 
# 
# From -- ./inp_files/7754.got.cif
#   From: 2010.05.17/outbox.cif.g08.bks.cpg/sg119_4_cif.got.tgz:7754.got - 2010.05.20 11:21:29.
