data_PCOD9559490
_publ_section_title
;
Structure prediction by ZEFSAII (Michael W. Deem and Ramdas Pophale) SiO2 
 PCOD9559490
Probable space group: I -4 M 2
;
_chemical_formula_sum "Si O2"
_cell_formula_units_Z 68
_cell_length_a 12.302243
_cell_length_b 12.302243
_cell_length_c 23.839994
_cell_angle_alpha 90.000000
_cell_angle_beta 90.000000
_cell_angle_gamma 90.000000
_cell_volume 3608.068251
_symmetry_space_group_name_H-M "I -4 M 2"
_symmetry_group_IT_number 119
_symmetry_cell_setting 'tetragonal'
loop_
_space_group_symop_operation_xyz
x,y,z
y,-x,-z
-x,-y,z
-y,x,-z
y,x,-z
-y,-x,-z
-x,y,z
x,-y,z
1/2+x,1/2+y,1/2+z
1/2+y,1/2-x,1/2-z
1/2-x,1/2-y,1/2+z
1/2-y,1/2+x,1/2-z
1/2+y,1/2+x,1/2-z
1/2-y,1/2-x,1/2-z
1/2-x,1/2+y,1/2+z
1/2+x,1/2-y,1/2+z
loop_
_atom_site_type_symbol
_atom_site_label
_atom_site_fract_x
_atom_site_fract_y
_atom_site_fract_z
Si Si1 0.623114 0.383163 0.645005
Si Si2 0.000000 0.000000 0.420888
Si Si3 0.777745 0.372903 0.539032
Si Si4 0.845631 0.620005 0.314474
Si Si5 0.000000 0.235894 0.387098
Si Si6 0.000000 0.243673 0.522786
O O1 0.500000 0.376342 0.619919
O O2 0.630927 0.500000 0.673363
O O3 0.714365 0.376166 0.597830
O O4 0.634694 0.282924 0.685628
O O5 0.117346 0.000000 0.455088
O O6 0.000000 0.893116 0.382856
O O7 0.696742 0.303259 0.500000
O O8 0.793077 0.500000 0.521065
O O9 0.891363 0.307546 0.541742
O O10 0.870838 0.500000 0.338017
O O11 0.879421 0.620580 0.250000
O O12 0.899815 0.707387 0.355262
O O13 0.000000 0.250463 0.454605
#
# Coordination Sequence:
#
# PCOD9559490 Si02
#       6
#    16   4  16  16   8   8
#     4   9  19  36  58  82 113 151 192 246 309 361
#     4  12  25  44  64  92 132 172 212 268 317 394
#     4  11  22  36  58  88 124 161 208 255 313 381
#     4  11  22  39  59  84 117 153 199 256 314 370
#     4  12  24  38  61  87 120 162 206 249 319 369
#     4  12  24  40  61  91 132 170 214 259 315 393
#
# _framework density 18.846651000000001
#
# number of rings (size 3 to 8) (size 9 to 14) (size 15 to 20)
#    0.000    1.176    1.176    6.706    0.000    4.941 
#    2.118    0.000    0.000    0.000    0.000    0.000 
#    0.000    0.000    0.000    0.000    0.000    0.000 
#
# Total GULP energy -189585.795419 kJ/mol
# GULP energy per Si atom -5576.052806 kJ/mol
# Density = 1.880376 g / cm^3
# Si number density = 18.846651 Si / 1000 Ang^3
#
#
#
# Elastic Constant Matrix: (Units=GPa)
#
#
# Indices 1 2 3 4 5 6 
#
# 1 172.3221 69.1745 36.8796 0.0000 0.0000 0.0000
# 2 69.1745 172.3216 36.8803 0.0000 0.0000 0.0000
# 3 36.8796 36.8803 45.7405 0.0000 0.0000 0.0000
# 4 0.0000 0.0000 0.0000 22.9513 0.0000 0.0000
# 5 0.0000 0.0000 0.0000 0.0000 22.9513 0.0000
# 6 0.0000 0.0000 0.0000 0.0000 0.0000 23.7562
#
#
#
# Elastic Compliance Matrix: (Units=1/GPa)
#
#
# Indices 1 2 3 4 5 6 
#
# 1 0.007594 -0.002101 -0.004429 0.000000 0.000000 0.000000
# 2 -0.002101 0.007594 -0.004430 0.000000 0.000000 0.000000
# 3 -0.004429 -0.004430 0.029005 0.000000 0.000000 0.000000
# 4 0.000000 0.000000 0.000000 0.043571 0.000000 0.000000
# 5 0.000000 0.000000 0.000000 0.000000 0.043570 0.000000
# 6 0.000000 0.000000 0.000000 0.000000 0.000000 0.042094
#
#
# Mechanical properties :
#
#
# Convention : Reuss Voigt Hill
#
# Bulk Modulus (GPa) = 44.89384 75.13923 60.01654
# Shear Modulus (GPa) = 24.65805 30.42841 27.54323
#
# Velocity S-wave (km/s) = 3.62104 4.02248 3.82702
# Velocity P-wave (km/s) = 6.43077 7.84405 7.17230
#
# Compressibility (1/GPa) = 0.02227477
#
# Stress axis : x y z
#
# Youngs Moduli (GPa) = 131.67826 131.67666 34.47630
#
# Poissons Ratio (x) = 0.27659 0.15271
# Poissons Ratio (y) = 0.27660 0.15272
# Poissons Ratio (z) = 0.58326 0.58328
#
# Static dielectric constant tensor:
#      x y z
#    x 1.697440 0.000000 0.000000 
#    y 0.000000 1.697450 0.000000 
#    z 0.000000 0.000000 1.611890 
# 
# From -- ./inp_files/9381.got.cif
#   From: 2010.05.17/outbox.cif.g08.bks.cpg/sg119_5_cif.got.tgz:9381.got - 2010.05.20 11:21:29.
