data_PCOD9559611
_publ_section_title
;
Structure prediction by ZEFSAII (Michael W. Deem and Ramdas Pophale) SiO2 
 PCOD9559611
Probable space group: I -4 C 2
;
_chemical_formula_sum "Si O2"
_cell_formula_units_Z 80
_cell_length_a 10.123636
_cell_length_b 10.123636
_cell_length_c 28.344068
_cell_angle_alpha 90.000000
_cell_angle_beta 90.000000
_cell_angle_gamma 90.000000
_cell_volume 2904.927007
_symmetry_space_group_name_H-M "I -4 C 2"
_symmetry_group_IT_number 120
_symmetry_cell_setting 'tetragonal'
loop_
_space_group_symop_operation_xyz
x,y,z
y,-x,-z
-x,-y,z
-y,x,-z
y,x,1/2-z
-y,-x,1/2-z
-x,y,1/2+z
x,-y,1/2+z
1/2+x,1/2+y,1/2+z
1/2+y,1/2-x,1/2-z
1/2-x,1/2-y,1/2+z
1/2-y,1/2+x,1/2-z
1/2+y,1/2+x,-z
1/2-y,1/2-x,-z
1/2-x,1/2+y,z
1/2+x,1/2-y,z
loop_
_atom_site_type_symbol
_atom_site_label
_atom_site_fract_x
_atom_site_fract_y
_atom_site_fract_z
Si Si1 0.402282 0.754686 0.349772
Si Si2 0.739140 0.495449 0.348289
Si Si3 0.778688 0.512355 0.247503
Si Si4 0.500395 0.228604 0.549780
Si Si5 0.992224 0.284802 0.447446
O O1 0.271395 0.663882 0.348583
O O2 0.482646 0.719684 0.303253
O O3 0.478670 0.721407 0.397363
O O4 0.369489 0.911185 0.348497
O O5 0.692722 0.529444 0.294815
O O6 0.690960 0.523951 0.402154
O O7 0.880806 0.632936 0.243170
O O8 0.610410 0.113187 0.549101
O O9 0.497084 0.288909 0.497517
O O10 0.364030 0.145629 0.554617
#
# Coordination Sequence:
#
# PCOD9559611 Si02
#       5
#    16  16  16  16  16
#     4  10  19  31  50  79 116 152 191 244 308 366
#     4  10  19  31  49  78 114 151 190 242 304 366
#     4   9  17  30  52  79 105 142 200 261 299 334
#     4   8  14  27  47  70  95 129 184 246 294 329
#     4   8  14  27  48  70  95 130 181 246 294 332
#
# _framework density 27.539418999999999
#
# number of rings (size 3 to 8) (size 9 to 14) (size 15 to 20)
#    0.000    3.000    0.000    3.000    0.000    4.800 
#    0.000    8.000    0.000    4.800    0.000   11.200 
#    0.000    0.000    0.000    2.000    0.000    1.000 
#
# Total GULP energy -222923.531668 kJ/mol
# GULP energy per Si atom -5573.088292 kJ/mol
# Density = 2.747674 g / cm^3
# Si number density = 27.539419 Si / 1000 Ang^3
#
#
#
# Elastic Constant Matrix: (Units=GPa)
#
#
# Indices 1 2 3 4 5 6 
#
# 1 68.9456 89.3007 43.1564 0.0000 0.0000 0.0000
# 2 89.3007 68.9456 43.1564 0.0000 0.0000 0.0000
# 3 43.1564 43.1564 397.4679 0.0000 0.0000 0.0000
# 4 0.0000 0.0000 0.0000 -33.2729 0.0000 0.0000
# 5 0.0000 0.0000 0.0000 0.0000 -33.2729 0.0000
# 6 0.0000 0.0000 0.0000 0.0000 0.0000 65.3529
#
#
#
# Elastic Compliance Matrix: (Units=1/GPa)
#
#
# Indices 1 2 3 4 5 6 
#
# 1 -0.021205 0.027922 -0.000729 0.000000 0.000000 0.000000
# 2 0.027922 -0.021205 -0.000729 0.000000 0.000000 0.000000
# 3 -0.000729 -0.000729 0.002674 0.000000 0.000000 0.000000
# 4 0.000000 0.000000 0.000000 -0.030055 0.000000 0.000000
# 5 0.000000 0.000000 0.000000 0.000000 -0.030055 0.000000
# 6 0.000000 0.000000 0.000000 0.000000 0.000000 0.015302
#
#
# Mechanical properties :
#
#
# Convention : Reuss Voigt Hill
#
# Bulk Modulus (GPa) = 75.80858 98.50957 87.15908
# Shear Modulus (GPa) = -37.57303 23.74447 -6.91428
#
# Velocity S-wave (km/s) = -3.69770 2.93951 -1.58623
# Velocity P-wave (km/s) = 3.05883 6.88251 5.32566
#
# Compressibility (1/GPa) = 0.01319112
#
# Stress axis : x y z
#
# Youngs Moduli (GPa) = -47.15802 -47.15801 373.92897
#
# Poissons Ratio (x) = 1.31676 0.27272
# Poissons Ratio (y) = 1.31676 0.27272
# Poissons Ratio (z) = -0.03439 -0.03439
#
# Static dielectric constant tensor:
#      x y z
#    x 2.092400 0.000000 0.000000 
#    y 0.000000 2.092400 0.000000 
#    z 0.000000 0.000000 2.161000 
# 
# From -- ./inp_files/6501.got.cif
#   From: 2010.05.17/outbox.cif.g08.bks.cpg/sg120_4_cif.got.tgz:6501.got - 2010.05.20 11:28:13.
