data_PCOD9559498
_publ_section_title
;
Structure prediction by ZEFSAII (Michael W. Deem and Ramdas Pophale) SiO2 
 PCOD9559498
Probable space group: I -4 M 2
;
_chemical_formula_sum "Si O2"
_cell_formula_units_Z 64
_cell_length_a 14.389134
_cell_length_b 14.389134
_cell_length_c 14.711591
_cell_angle_alpha 90.000000
_cell_angle_beta 90.000000
_cell_angle_gamma 90.000000
_cell_volume 3045.993390
_symmetry_space_group_name_H-M "I -4 M 2"
_symmetry_group_IT_number 119
_symmetry_cell_setting 'tetragonal'
loop_
_space_group_symop_operation_xyz
x,y,z
y,-x,-z
-x,-y,z
-y,x,-z
y,x,-z
-y,-x,-z
-x,y,z
x,-y,z
1/2+x,1/2+y,1/2+z
1/2+y,1/2-x,1/2-z
1/2-x,1/2-y,1/2+z
1/2-y,1/2+x,1/2-z
1/2+y,1/2+x,1/2-z
1/2-y,1/2-x,1/2-z
1/2-x,1/2+y,1/2+z
1/2+x,1/2-y,1/2+z
loop_
_atom_site_type_symbol
_atom_site_label
_atom_site_fract_x
_atom_site_fract_y
_atom_site_fract_z
Si Si1 0.359627 0.896340 0.855723
Si Si2 0.258242 0.104797 0.489393
Si Si3 0.896428 0.139676 0.107035
Si Si4 0.605931 0.192589 0.340507
O O1 0.379561 0.879561 0.750000
O O2 0.249865 0.895326 0.876145
O O3 0.393152 0.000000 0.880886
O O4 0.399371 0.813567 0.915784
O O5 0.166167 0.166167 0.500000
O O6 0.328366 0.158033 0.421811
O O7 0.240171 0.000000 0.456962
O O8 0.804869 0.104256 0.158209
O O9 0.000000 0.106757 0.133517
O O10 0.882388 0.117613 0.000000
O O11 0.500000 0.159656 0.352347
O O12 0.650776 0.150776 0.250000
#
# Coordination Sequence:
#
# PCOD9559498 Si02
#       4
#    16  16  16  16
#     4  11  22  40  67  99 135 173 216 274 343 407
#     4  12  26  45  68  95 132 178 229 283 343 410
#     4  11  22  40  70 102 137 179 221 274 340 405
#     4  12  25  45  70  99 137 180 228 283 343 405
#
# _framework density 21.011206999999999
#
# number of rings (size 3 to 8) (size 9 to 14) (size 15 to 20)
#    0.000    0.500    5.000    3.750    0.000    6.500 
#    0.000    0.000    0.000    3.000    0.000    0.000 
#    0.000    0.000    0.000    0.000    0.000    0.000 
#
# Total GULP energy -178959.771997 kJ/mol
# GULP energy per Si atom -5592.492875 kJ/mol
# Density = 2.096338 g / cm^3
# Si number density = 21.011207 Si / 1000 Ang^3
#
#
#
# Elastic Constant Matrix: (Units=GPa)
#
#
# Indices 1 2 3 4 5 6 
#
# 1 167.6620 57.1843 24.8973 0.0000 0.0000 0.0000
# 2 57.1843 167.6621 24.8976 0.0000 0.0000 0.0000
# 3 24.8973 24.8976 55.2291 0.0000 0.0000 0.0000
# 4 0.0000 0.0000 0.0000 -4.6844 0.0000 0.0000
# 5 0.0000 0.0000 0.0000 0.0000 -4.6843 0.0000
# 6 0.0000 0.0000 0.0000 0.0000 0.0000 -24.2029
#
#
#
# Elastic Compliance Matrix: (Units=1/GPa)
#
#
# Indices 1 2 3 4 5 6 
#
# 1 0.006996 -0.002055 -0.002227 0.000000 0.000000 0.000000
# 2 -0.002055 0.006996 -0.002227 0.000000 0.000000 0.000000
# 3 -0.002227 -0.002227 0.020115 0.000000 0.000000 0.000000
# 4 0.000000 0.000000 0.000000 -0.213472 0.000000 0.000000
# 5 0.000000 0.000000 0.000000 0.000000 -0.213479 0.000000
# 6 0.000000 0.000000 0.000000 0.000000 0.000000 -0.041317
#
#
# Mechanical properties :
#
#
# Convention : Reuss Voigt Hill
#
# Bulk Modulus (GPa) = 47.42295 67.16794 57.29544
# Shear Modulus (GPa) = -12.07400 12.19061 0.05831
#
# Velocity S-wave (km/s) = -2.39978 2.41134 0.16676
# Velocity P-wave (km/s) = 3.86532 6.30792 5.23118
#
# Compressibility (1/GPa) = 0.02108684
#
# Stress axis : x y z
#
# Youngs Moduli (GPa) = 142.93544 142.93525 49.71523
#
# Poissons Ratio (x) = 0.29379 0.11073
# Poissons Ratio (y) = 0.29379 0.11073
# Poissons Ratio (z) = 0.31836 0.31836
#
# Static dielectric constant tensor:
#      x y z
#    x 1.769260 0.000000 0.000000 
#    y 0.000000 1.769260 0.000000 
#    z 0.000000 0.000000 1.737030 
# 
# From -- ./inp_files/5085.got.cif
#   From: 2010.05.17/outbox.cif.g08.bks.cpg/sg119_3_cif.got.tgz:5085.got - 2010.05.20 11:21:29.
