data_PCOD9559598
_publ_section_title
;
Structure prediction by ZEFSAII (Michael W. Deem and Ramdas Pophale) SiO2 
 PCOD9559598
Probable space group: I -4 C 2
;
_chemical_formula_sum "Si O2"
_cell_formula_units_Z 128
_cell_length_a 24.503257
_cell_length_b 24.503257
_cell_length_c 11.105226
_cell_angle_alpha 90.000000
_cell_angle_beta 90.000000
_cell_angle_gamma 90.000000
_cell_volume 6667.684341
_symmetry_space_group_name_H-M "I -4 C 2"
_symmetry_group_IT_number 120
_symmetry_cell_setting 'tetragonal'
loop_
_space_group_symop_operation_xyz
x,y,z
y,-x,-z
-x,-y,z
-y,x,-z
y,x,1/2-z
-y,-x,1/2-z
-x,y,1/2+z
x,-y,1/2+z
1/2+x,1/2+y,1/2+z
1/2+y,1/2-x,1/2-z
1/2-x,1/2-y,1/2+z
1/2-y,1/2+x,1/2-z
1/2+y,1/2+x,-z
1/2-y,1/2-x,-z
1/2-x,1/2+y,z
1/2+x,1/2-y,z
loop_
_atom_site_type_symbol
_atom_site_label
_atom_site_fract_x
_atom_site_fract_y
_atom_site_fract_z
Si Si1 0.174801 0.473639 0.069080
Si Si2 0.207882 0.261209 0.865647
Si Si3 0.661268 0.915917 0.922131
Si Si4 0.656060 0.367221 0.615910
Si Si5 0.587327 0.277344 0.486063
Si Si6 0.208703 0.038065 0.477116
Si Si7 0.723784 0.056679 0.752708
Si Si8 0.869563 0.633480 0.832569
O O1 0.194672 0.504947 0.190299
O O2 0.135648 0.422329 0.081350
O O3 0.156401 0.523404 0.981070
O O4 0.232221 0.447866 0.030732
O O5 0.247640 0.247640 0.750000
O O6 0.163250 0.213389 0.865123
O O7 0.172280 0.316043 0.850374
O O8 0.235695 0.264306 0.000000
O O9 0.726273 0.905439 0.923839
O O10 0.639080 0.902652 0.791900
O O11 0.627904 0.872097 0.000000
O O12 0.629384 0.370617 0.750000
O O13 0.624351 0.326363 0.527424
O O14 0.666046 0.423204 0.543436
O O15 0.525316 0.298602 0.493573
O O16 0.593319 0.248185 0.356241
O O17 0.223939 0.044058 0.336207
O O18 0.673308 0.084667 0.820382
#
# Coordination Sequence:
#
# PCOD9559598 Si02
#       8
#    16  16  16  16  16  16  16  16
#     4  10  21  36  59  87 113 163 208 257 309 379
#     4  11  25  38  58  87 134 171 203 251 321 391
#     4  10  18  37  57  87 115 156 210 255 314 376
#     4  11  23  39  59  89 125 165 199 247 308 374
#     4  10  23  36  65  90 117 167 201 249 308 371
#     4  10  21  40  58  88 127 151 210 247 299 369
#     4  10  22  37  60  89 116 161 202 260 303 367
#     4  12  21  37  60  86 121 163 213 255 319 379
#
# _framework density 19.197068999999999
#
# number of rings (size 3 to 8) (size 9 to 14) (size 15 to 20)
#    0.000    1.750    3.750    3.750    5.250    1.500 
#    0.000    0.000    0.000    0.750    6.500    0.875 
#    0.000    0.000    0.000    0.000    0.000    0.000 
#
# Total GULP energy -356399.807467 kJ/mol
# GULP energy per Si atom -5568.746992 kJ/mol
# Density = 1.915338 g / cm^3
# Si number density = 19.197069 Si / 1000 Ang^3
#
#
#
# Elastic Constant Matrix: (Units=GPa)
#
#
# Indices 1 2 3 4 5 6 
#
# 1 55.4839 46.5874 18.6358 0.0000 0.0000 0.0000
# 2 46.5874 55.4873 18.6413 0.0000 0.0000 0.0000
# 3 18.6358 18.6413 68.7027 0.0000 0.0000 0.0000
# 4 0.0000 0.0000 0.0000 16.3810 0.0000 0.0000
# 5 0.0000 0.0000 0.0000 0.0000 16.3813 0.0000
# 6 0.0000 0.0000 0.0000 0.0000 0.0000 17.2216
#
#
#
# Elastic Compliance Matrix: (Units=1/GPa)
#
#
# Indices 1 2 3 4 5 6 
#
# 1 0.061629 -0.050754 -0.002946 0.000000 0.000000 0.000000
# 2 -0.050754 0.061628 -0.002955 0.000000 0.000000 0.000000
# 3 -0.002946 -0.002955 0.016156 0.000000 0.000000 0.000000
# 4 0.000000 0.000000 0.000000 0.061046 0.000000 0.000000
# 5 0.000000 0.000000 0.000000 0.000000 0.061045 0.000000
# 6 0.000000 0.000000 0.000000 0.000000 0.000000 0.058067
#
#
# Mechanical properties :
#
#
# Convention : Reuss Voigt Hill
#
# Bulk Modulus (GPa) = 38.30790 38.60033 38.45412
# Shear Modulus (GPa) = 11.32292 16.38405 13.85349
#
# Velocity S-wave (km/s) = 2.43127 2.92458 2.68926
# Velocity P-wave (km/s) = 5.28013 5.61741 5.45138
#
# Compressibility (1/GPa) = 0.02610427
#
# Stress axis : x y z
#
# Youngs Moduli (GPa) = 16.22618 16.22631 61.89590
#
# Poissons Ratio (x) = 0.82355 0.18232
# Poissons Ratio (y) = 0.82355 0.18288
# Poissons Ratio (z) = 0.04780 0.04794
#
# Static dielectric constant tensor:
#      x y z
#    x 1.670830 0.000000 0.000000 
#    y 0.000000 1.670830 0.000000 
#    z 0.000000 0.000000 1.748790 
# 
# From -- ./inp_files/2915.got.cif
#   From: 2010.05.17/outbox.cif.g08.bks.cpg/sg120_2_cif.got.tgz:2915.got - 2010.05.20 11:28:13.
