data_PCOD9559690
_publ_section_title
;
Structure prediction by ZEFSAII (Michael W. Deem and Ramdas Pophale) SiO2 
 PCOD9559690
Probable space group: I -4 C 2
;
_chemical_formula_sum "Si O2"
_cell_formula_units_Z 80
_cell_length_a 10.050263
_cell_length_b 10.050263
_cell_length_c 28.698952
_cell_angle_alpha 90.000000
_cell_angle_beta 90.000000
_cell_angle_gamma 90.000000
_cell_volume 2898.817613
_symmetry_space_group_name_H-M "I -4 C 2"
_symmetry_group_IT_number 120
_symmetry_cell_setting 'tetragonal'
loop_
_space_group_symop_operation_xyz
x,y,z
y,-x,-z
-x,-y,z
-y,x,-z
y,x,1/2-z
-y,-x,1/2-z
-x,y,1/2+z
x,-y,1/2+z
1/2+x,1/2+y,1/2+z
1/2+y,1/2-x,1/2-z
1/2-x,1/2-y,1/2+z
1/2-y,1/2+x,1/2-z
1/2+y,1/2+x,-z
1/2-y,1/2-x,-z
1/2-x,1/2+y,z
1/2+x,1/2-y,z
loop_
_atom_site_type_symbol
_atom_site_label
_atom_site_fract_x
_atom_site_fract_y
_atom_site_fract_z
Si Si1 0.028453 0.807223 0.644399
Si Si2 0.240470 0.127933 0.653887
Si Si3 0.135283 0.845642 0.985444
Si Si4 0.040823 0.707399 0.246023
Si Si5 0.620156 0.926291 0.089007
O O1 0.906828 0.912318 0.636967
O O2 0.011890 0.779404 0.700085
O O3 0.952948 0.698354 0.612174
O O4 0.184982 0.767437 0.640175
O O5 0.229563 0.112454 0.709535
O O6 0.337642 0.022734 0.630867
O O7 0.091652 0.750384 0.942973
O O8 0.270866 0.770866 0.000000
O O9 0.004551 0.840863 0.019597
O O10 0.137860 0.588623 0.231211
O O11 0.500000 0.000000 0.061451
#
# Coordination Sequence:
#
# PCOD9559690 Si02
#       5
#    16  16  16  16  16
#     4  10  20  35  59  95 128 181 232 291 350 432
#     4  10  20  36  59  94 132 181 230 295 351 427
#     4  11  29  52  80 116 148 195 253 321 396 474
#     4   9  15  30  57  85 125 172 238 281 338 420
#     4  10  23  43  70 102 139 186 246 295 381 437
#
# _framework density 27.597460999999999
#
# number of rings (size 3 to 8) (size 9 to 14) (size 15 to 20)
#    0.000    2.000    2.000    0.600    5.600    1.600 
#    3.600    0.000    0.000    0.000    0.000    0.000 
#    0.000    0.000    0.000    0.000    0.000    0.000 
#
# Total GULP energy -222742.410207 kJ/mol
# GULP energy per Si atom -5568.560255 kJ/mol
# Density = 2.753465 g / cm^3
# Si number density = 27.597461 Si / 1000 Ang^3
#
#
#
# Elastic Constant Matrix: (Units=GPa)
#
#
# Indices 1 2 3 4 5 6 
#
# 1 61.2029 20.6694 15.4239 0.0000 0.0000 0.0000
# 2 20.6694 61.2029 15.4239 0.0000 0.0000 0.0000
# 3 15.4239 15.4239 96.0321 0.0000 0.0000 0.0000
# 4 0.0000 0.0000 0.0000 21.4821 0.0000 0.0000
# 5 0.0000 0.0000 0.0000 0.0000 21.4821 0.0000
# 6 0.0000 0.0000 0.0000 0.0000 0.0000 53.5748
#
#
#
# Elastic Compliance Matrix: (Units=1/GPa)
#
#
# Indices 1 2 3 4 5 6 
#
# 1 0.018836 -0.005835 -0.002088 0.000000 0.000000 0.000000
# 2 -0.005835 0.018836 -0.002088 0.000000 0.000000 0.000000
# 3 -0.002088 -0.002088 0.011084 0.000000 0.000000 0.000000
# 4 0.000000 0.000000 0.000000 0.046550 0.000000 0.000000
# 5 0.000000 0.000000 0.000000 0.000000 0.046550 0.000000
# 6 0.000000 0.000000 0.000000 0.000000 0.000000 0.018665
#
#
# Mechanical properties :
#
#
# Convention : Reuss Voigt Hill
#
# Bulk Modulus (GPa) = 34.80280 35.71915 35.26098
# Shear Modulus (GPa) = 26.29889 30.43586 28.36738
#
# Velocity S-wave (km/s) = 3.09033 3.32452 3.20956
# Velocity P-wave (km/s) = 5.03704 5.26380 5.15167
#
# Compressibility (1/GPa) = 0.02873332
#
# Stress axis : x y z
#
# Youngs Moduli (GPa) = 53.09008 53.09008 90.22069
#
# Poissons Ratio (x) = 0.30978 0.18839
# Poissons Ratio (y) = 0.30978 0.18839
# Poissons Ratio (z) = 0.11086 0.11086
#
# Static dielectric constant tensor:
#      x y z
#    x 2.301180 0.000000 0.000000 
#    y 0.000000 2.301180 0.000000 
#    z 0.000000 0.000000 2.131050 
# 
# From -- ./inp_files/6470.got.cif
#   From: 2010.05.17/outbox.cif.g08.bks.cpg/sg120_4_cif.got.tgz:6470.got - 2010.05.20 11:28:13.
