data_PCOD9559384
_publ_section_title
;
Structure prediction by ZEFSAII (Michael W. Deem and Ramdas Pophale) SiO2 
 PCOD9559384
Probable space group: I -4 M 2
;
_chemical_formula_sum "Si O2"
_cell_formula_units_Z 116
_cell_length_a 17.661513
_cell_length_b 17.661513
_cell_length_c 18.497667
_cell_angle_alpha 90.000000
_cell_angle_beta 90.000000
_cell_angle_gamma 90.000000
_cell_volume 5769.959536
_symmetry_space_group_name_H-M "I -4 M 2"
_symmetry_group_IT_number 119
_symmetry_cell_setting 'tetragonal'
loop_
_space_group_symop_operation_xyz
x,y,z
y,-x,-z
-x,-y,z
-y,x,-z
y,x,-z
-y,-x,-z
-x,y,z
x,-y,z
1/2+x,1/2+y,1/2+z
1/2+y,1/2-x,1/2-z
1/2-x,1/2-y,1/2+z
1/2-y,1/2+x,1/2-z
1/2+y,1/2+x,1/2-z
1/2-y,1/2-x,1/2-z
1/2-x,1/2+y,1/2+z
1/2+x,1/2-y,1/2+z
loop_
_atom_site_type_symbol
_atom_site_label
_atom_site_fract_x
_atom_site_fract_y
_atom_site_fract_z
Si Si1 0.207839 0.083946 0.197052
Si Si2 0.500000 0.500000 0.164935
Si Si3 0.348498 0.912612 0.096774
Si Si4 0.415362 0.790381 0.899543
Si Si5 0.254994 0.085265 0.432893
Si Si6 0.126535 0.861063 0.332737
Si Si7 0.202277 0.585845 0.429828
Si Si8 0.914956 0.119040 0.082503
O O1 0.286937 0.102274 0.159094
O O2 0.172463 0.136215 0.257864
O O3 0.147321 0.082059 0.132461
O O4 0.215157 0.000000 0.229545
O O5 0.431455 0.432983 0.164525
O O6 0.403275 0.840517 0.096172
O O7 0.376919 0.000000 0.104784
O O8 0.310260 0.909330 0.016890
O O9 0.500000 0.824311 0.897996
O O10 0.411490 0.720020 0.845548
O O11 0.350906 0.853315 0.891354
O O12 0.403992 0.758515 0.981067
O O13 0.191535 0.134235 0.394165
O O14 0.231092 0.000000 0.418620
O O15 0.182379 0.500000 0.408681
O O16 0.290720 0.597618 0.415563
O O17 0.000000 0.102073 0.108364
O O18 0.906911 0.093090 0.000000
#
# Coordination Sequence:
#
# PCOD9559384 Si02
#       8
#    16   4  16  16  16  16  16  16
#     4  11  23  38  59  83 119 163 202 243 304 362
#     4  12  24  44  61  80 129 172 208 274 308 356
#     4   9  19  37  61  88 120 157 197 245 299 368
#     4  10  22  38  62  89 116 156 208 254 305 363
#     4  10  21  39  60  89 121 157 203 250 305 365
#     4  12  24  41  59  85 121 166 209 256 307 363
#     4   9  19  38  60  87 123 154 194 249 308 364
#     4  11  22  35  56  87 118 153 196 243 300 365
#
# _framework density 20.104126999999998
#
# number of rings (size 3 to 8) (size 9 to 14) (size 15 to 20)
#    0.000    1.655    3.448    0.828    2.897    2.069 
#    0.000    4.138    0.000    0.000    0.000    1.931 
#    0.000    2.207    0.000    0.000    0.000    0.000 
#
# Total GULP energy -323098.872748 kJ/mol
# GULP energy per Si atom -5570.670220 kJ/mol
# Density = 2.005837 g / cm^3
# Si number density = 20.104127 Si / 1000 Ang^3
#
#
#
# Elastic Constant Matrix: (Units=GPa)
#
#
# Indices 1 2 3 4 5 6 
#
# 1 62.4133 24.3868 8.2450 0.0000 0.0000 0.0000
# 2 24.3868 62.4137 8.2452 0.0000 0.0000 0.0000
# 3 8.2450 8.2452 28.3564 0.0000 0.0000 0.0000
# 4 0.0000 0.0000 0.0000 7.6112 0.0000 0.0000
# 5 0.0000 0.0000 0.0000 0.0000 7.6116 0.0000
# 6 0.0000 0.0000 0.0000 0.0000 0.0000 32.0096
#
#
#
# Elastic Compliance Matrix: (Units=1/GPa)
#
#
# Indices 1 2 3 4 5 6 
#
# 1 0.019246 -0.007052 -0.003546 0.000000 0.000000 0.000000
# 2 -0.007052 0.019246 -0.003546 0.000000 0.000000 0.000000
# 3 -0.003546 -0.003546 0.037327 0.000000 0.000000 0.000000
# 4 0.000000 0.000000 0.000000 0.131386 0.000000 0.000000
# 5 0.000000 0.000000 0.000000 0.000000 0.131378 0.000000
# 6 0.000000 0.000000 0.000000 0.000000 0.000000 0.031241
#
#
# Mechanical properties :
#
#
# Convention : Reuss Voigt Hill
#
# Bulk Modulus (GPa) = 21.03797 26.10416 23.57106
# Shear Modulus (GPa) = 12.07864 16.93356 14.50610
#
# Velocity S-wave (km/s) = 2.45379 2.90538 2.68908
# Velocity P-wave (km/s) = 4.30294 4.92622 4.62509
#
# Compressibility (1/GPa) = 0.04753311
#
# Stress axis : x y z
#
# Youngs Moduli (GPa) = 51.95919 51.95941 26.79004
#
# Poissons Ratio (x) = 0.36639 0.09499
# Poissons Ratio (y) = 0.36639 0.09499
# Poissons Ratio (z) = 0.18423 0.18424
#
# Static dielectric constant tensor:
#      x y z
#    x 1.728810 0.000000 0.000000 
#    y 0.000000 1.728810 0.000000 
#    z 0.000000 0.000000 1.715930 
# 
# From -- ./inp_files/6778.got.cif
#   From: 2010.05.17/outbox.cif.g08.bks.cpg/sg119_4_cif.got.tgz:6778.got - 2010.05.20 11:21:29.
