data_PCOD9559774
_publ_section_title
;
Structure prediction by ZEFSAII (Michael W. Deem and Ramdas Pophale) SiO2 
 PCOD9559774
Probable space group: I -4 C 2
;
_chemical_formula_sum "Si O2"
_cell_formula_units_Z 128
_cell_length_a 23.163918
_cell_length_b 23.163918
_cell_length_c 11.622728
_cell_angle_alpha 90.000000
_cell_angle_beta 90.000000
_cell_angle_gamma 90.000000
_cell_volume 6236.373423
_symmetry_space_group_name_H-M "I -4 C 2"
_symmetry_group_IT_number 120
_symmetry_cell_setting 'tetragonal'
loop_
_space_group_symop_operation_xyz
x,y,z
y,-x,-z
-x,-y,z
-y,x,-z
y,x,1/2-z
-y,-x,1/2-z
-x,y,1/2+z
x,-y,1/2+z
1/2+x,1/2+y,1/2+z
1/2+y,1/2-x,1/2-z
1/2-x,1/2-y,1/2+z
1/2-y,1/2+x,1/2-z
1/2+y,1/2+x,-z
1/2-y,1/2-x,-z
1/2-x,1/2+y,z
1/2+x,1/2-y,z
loop_
_atom_site_type_symbol
_atom_site_label
_atom_site_fract_x
_atom_site_fract_y
_atom_site_fract_z
Si Si1 0.593071 0.670284 0.313436
Si Si2 0.783064 0.034097 0.734939
Si Si3 0.088180 0.634220 0.216615
Si Si4 0.734255 0.842245 0.851582
Si Si5 0.316502 0.099929 0.530302
Si Si6 0.966849 0.652880 0.185532
Si Si7 0.340073 0.729871 0.383968
Si Si8 0.105835 0.810720 0.562635
O O1 0.612080 0.612080 0.250000
O O2 0.526033 0.690229 0.309259
O O3 0.632578 0.720969 0.246389
O O4 0.607686 0.654169 0.445646
O O5 0.718978 0.019888 0.782320
O O6 0.774119 0.092260 0.656210
O O7 0.820551 0.056939 0.843009
O O8 0.111117 0.683298 0.133351
O O9 0.087589 0.665419 0.341208
O O10 0.130805 0.581088 0.226712
O O11 0.024082 0.615957 0.189894
O O12 0.698339 0.782218 0.828300
O O13 0.761544 0.836683 0.977346
O O14 0.335117 0.164884 0.500000
O O15 0.350240 0.059906 0.441020
O O16 0.251228 0.093759 0.495106
O O17 0.311998 0.666558 0.371440
#
# Coordination Sequence:
#
# PCOD9559774 Si02
#       8
#    16  16  16  16  16  16  16  16
#     4  12  25  42  67  98 133 175 227 275 336 406
#     4  11  24  42  64  93 132 177 217 272 334 417
#     4  11  20  40  58  86 121 169 220 267 321 381
#     4  11  23  40  62  97 135 168 212 274 335 407
#     4   9  20  34  56  85 115 159 210 257 323 392
#     4  10  21  37  59  83 119 168 222 267 320 380
#     4  11  25  42  61  99 137 168 216 274 342 406
#     4  11  23  39  66  95 125 176 212 272 341 404
#
# _framework density 20.524749
#
# number of rings (size 3 to 8) (size 9 to 14) (size 15 to 20)
#    0.000    1.250    5.000    0.375    3.500    2.250 
#    0.000    0.000    0.000    3.750    0.000    3.500 
#    0.000    0.000    0.000    0.000    0.000    0.000 
#
# Total GULP energy -356530.725938 kJ/mol
# GULP energy per Si atom -5570.792593 kJ/mol
# Density = 2.047803 g / cm^3
# Si number density = 20.524749 Si / 1000 Ang^3
#
#
#
# Elastic Constant Matrix: (Units=GPa)
#
#
# Indices 1 2 3 4 5 6 
#
# 1 76.1575 26.8006 10.8285 0.0000 0.0000 0.0000
# 2 26.8006 76.1568 10.8278 0.0000 0.0000 0.0000
# 3 10.8285 10.8278 55.8170 0.0000 0.0000 0.0000
# 4 0.0000 0.0000 0.0000 20.8722 0.0000 0.0000
# 5 0.0000 0.0000 0.0000 0.0000 20.8741 0.0000
# 6 0.0000 0.0000 0.0000 0.0000 0.0000 20.7313
#
#
#
# Elastic Compliance Matrix: (Units=1/GPa)
#
#
# Indices 1 2 3 4 5 6 
#
# 1 0.015193 -0.005067 -0.001964 0.000000 0.000000 0.000000
# 2 -0.005067 0.015193 -0.001964 0.000000 0.000000 0.000000
# 3 -0.001964 -0.001964 0.018678 0.000000 0.000000 0.000000
# 4 0.000000 0.000000 0.000000 0.047911 0.000000 0.000000
# 5 0.000000 0.000000 0.000000 0.000000 0.047906 0.000000
# 6 0.000000 0.000000 0.000000 0.000000 0.000000 0.048236
#
#
# Mechanical properties :
#
#
# Convention : Reuss Voigt Hill
#
# Bulk Modulus (GPa) = 32.18309 33.89389 33.03849
# Shear Modulus (GPa) = 22.57671 23.14049 22.85860
#
# Velocity S-wave (km/s) = 3.32019 3.36139 3.34085
# Velocity P-wave (km/s) = 5.51474 5.62270 5.56898
#
# Compressibility (1/GPa) = 0.03107222
#
# Stress axis : x y z
#
# Youngs Moduli (GPa) = 65.81857 65.81818 53.53941
#
# Poissons Ratio (x) = 0.33353 0.10518
# Poissons Ratio (y) = 0.33353 0.10516
# Poissons Ratio (z) = 0.12930 0.12928
#
# Static dielectric constant tensor:
#      x y z
#    x 1.756900 0.000000 0.000000 
#    y 0.000000 1.756910 0.000000 
#    z 0.000000 0.000000 1.837440 
# 
# From -- ./inp_files/2905.got.cif
#   From: 2010.05.17/outbox.cif.g08.bks.cpg/sg120_2_cif.got.tgz:2905.got - 2010.05.20 11:28:13.
