data_PCOD9559740
_publ_section_title
;
Structure prediction by ZEFSAII (Michael W. Deem and Ramdas Pophale) SiO2 
 PCOD9559740
Probable space group: I -4 C 2
;
_chemical_formula_sum "Si O2"
_cell_formula_units_Z 112
_cell_length_a 14.290643
_cell_length_b 14.290643
_cell_length_c 24.387425
_cell_angle_alpha 90.000000
_cell_angle_beta 90.000000
_cell_angle_gamma 90.000000
_cell_volume 4980.460350
_symmetry_space_group_name_H-M "I -4 C 2"
_symmetry_group_IT_number 120
_symmetry_cell_setting 'tetragonal'
loop_
_space_group_symop_operation_xyz
x,y,z
y,-x,-z
-x,-y,z
-y,x,-z
y,x,1/2-z
-y,-x,1/2-z
-x,y,1/2+z
x,-y,1/2+z
1/2+x,1/2+y,1/2+z
1/2+y,1/2-x,1/2-z
1/2-x,1/2-y,1/2+z
1/2-y,1/2+x,1/2-z
1/2+y,1/2+x,-z
1/2-y,1/2-x,-z
1/2-x,1/2+y,z
1/2+x,1/2-y,z
loop_
_atom_site_type_symbol
_atom_site_label
_atom_site_fract_x
_atom_site_fract_y
_atom_site_fract_z
Si Si1 0.407525 0.943981 0.647148
Si Si2 0.019913 0.898025 0.416532
Si Si3 0.798825 0.715765 0.695540
Si Si4 0.297148 0.948807 0.058489
Si Si5 0.124266 0.046881 0.805772
Si Si6 0.673253 0.376399 0.369982
Si Si7 0.179438 0.478221 0.939734
O O1 0.350161 0.884453 0.691406
O O2 0.452329 0.879412 0.598628
O O3 0.500000 0.000000 0.667617
O O4 0.330281 0.005231 0.615540
O O5 0.077845 0.812641 0.442480
O O6 0.064317 0.921947 0.358023
O O7 0.919094 0.853489 0.404146
O O8 0.000000 0.000000 0.442347
O O9 0.743066 0.743066 0.750000
O O10 0.885489 0.786363 0.691998
O O11 0.720191 0.721454 0.647810
O O12 0.376327 0.869346 0.055951
O O13 0.310238 0.009278 0.002651
O O14 0.071262 0.071262 0.750000
O O15 0.148921 0.938341 0.816032
O O16 0.727649 0.451447 0.407279
#
# Coordination Sequence:
#
# PCOD9559740 Si02
#       7
#    16  16  16  16  16  16  16
#     4  10  20  40  71  98 133 173 225 289 338 411
#     4  10  22  39  58  89 124 170 215 271 327 396
#     4  11  23  41  67 100 130 176 225 277 349 421
#     4  10  20  40  66  94 129 173 225 270 350 409
#     4  10  23  41  63  87 125 171 219 275 336 407
#     4  11  22  39  61  90 129 169 217 273 331 397
#     4  10  21  39  65  97 130 173 219 281 339 416
#
# _framework density 22.487881999999999
#
# number of rings (size 3 to 8) (size 9 to 14) (size 15 to 20)
#    0.000    1.714    2.857    1.286    2.000    3.714 
#    5.143    1.429    0.000    0.000    0.000    0.000 
#    0.000    0.000    0.000    0.000    0.000    0.000 
#
# Total GULP energy -312167.954467 kJ/mol
# GULP energy per Si atom -5574.427758 kJ/mol
# Density = 2.243670 g / cm^3
# Si number density = 22.487882 Si / 1000 Ang^3
#
#
#
# Elastic Constant Matrix: (Units=GPa)
#
#
# Indices 1 2 3 4 5 6 
#
# 1 75.4656 0.8950 12.6514 0.0000 0.0000 0.0000
# 2 0.8950 75.4656 12.6514 0.0000 0.0000 0.0000
# 3 12.6514 12.6514 67.1622 0.0000 0.0000 0.0000
# 4 0.0000 0.0000 0.0000 38.5140 0.0000 0.0000
# 5 0.0000 0.0000 0.0000 0.0000 38.5140 0.0000
# 6 0.0000 0.0000 0.0000 0.0000 0.0000 34.8551
#
#
#
# Elastic Compliance Matrix: (Units=1/GPa)
#
#
# Indices 1 2 3 4 5 6 
#
# 1 0.013689 0.000279 -0.002631 0.000000 0.000000 0.000000
# 2 0.000279 0.013689 -0.002631 0.000000 0.000000 0.000000
# 3 -0.002631 -0.002631 0.015881 0.000000 0.000000 0.000000
# 4 0.000000 0.000000 0.000000 0.025965 0.000000 0.000000
# 5 0.000000 0.000000 0.000000 0.000000 0.025965 0.000000
# 6 0.000000 0.000000 0.000000 0.000000 0.000000 0.028690
#
#
# Mechanical properties :
#
#
# Convention : Reuss Voigt Hill
#
# Bulk Modulus (GPa) = 30.03779 30.05434 30.04607
# Shear Modulus (GPa) = 34.49663 35.16965 34.83314
#
# Velocity S-wave (km/s) = 3.92089 3.95896 3.93997
# Velocity P-wave (km/s) = 5.82101 5.85589 5.83848
#
# Compressibility (1/GPa) = 0.03329140
#
# Stress axis : x y z
#
# Youngs Moduli (GPa) = 73.05219 73.05219 62.97008
#
# Poissons Ratio (x) = -0.02036 0.16568
# Poissons Ratio (y) = -0.02036 0.16568
# Poissons Ratio (z) = 0.19221 0.19221
#
# Static dielectric constant tensor:
#      x y z
#    x 1.906650 0.000000 0.000000 
#    y 0.000000 1.906650 0.000000 
#    z 0.000000 0.000000 1.862750 
# 
# From -- ./inp_files/5943.got.cif
#   From: 2010.05.17/outbox.cif.g08.bks.cpg/sg120_3_cif.got.tgz:5943.got - 2010.05.20 11:28:13.
