data_PCOD9559201
_publ_section_title
;
Structure prediction by ZEFSAII (Michael W. Deem and Ramdas Pophale) SiO2 
 PCOD9559201
Probable space group: I -4 M 2
;
_chemical_formula_sum "Si O2"
_cell_formula_units_Z 80
_cell_length_a 14.710401
_cell_length_b 14.710401
_cell_length_c 22.024805
_cell_angle_alpha 90.000000
_cell_angle_beta 90.000000
_cell_angle_gamma 90.000000
_cell_volume 4766.077447
_symmetry_space_group_name_H-M "I -4 M 2"
_symmetry_group_IT_number 119
_symmetry_cell_setting 'tetragonal'
loop_
_space_group_symop_operation_xyz
x,y,z
y,-x,-z
-x,-y,z
-y,x,-z
y,x,-z
-y,-x,-z
-x,y,z
x,-y,z
1/2+x,1/2+y,1/2+z
1/2+y,1/2-x,1/2-z
1/2-x,1/2-y,1/2+z
1/2-y,1/2+x,1/2-z
1/2+y,1/2+x,1/2-z
1/2-y,1/2-x,1/2-z
1/2-x,1/2+y,1/2+z
1/2+x,1/2-y,1/2+z
loop_
_atom_site_type_symbol
_atom_site_label
_atom_site_fract_x
_atom_site_fract_y
_atom_site_fract_z
Si Si1 0.393730 0.393768 0.174565
Si Si2 0.783645 0.108992 0.447454
Si Si3 0.100826 0.281872 0.962857
Si Si4 0.252837 0.893048 0.776082
Si Si5 0.684489 0.395348 0.411070
O O1 0.500000 0.382279 0.188896
O O2 0.379401 0.500000 0.158275
O O3 0.371598 0.332075 0.116787
O O4 0.333079 0.373166 0.232891
O O5 0.841300 0.158700 0.500000
O O6 0.682965 0.151443 0.447068
O O7 0.782696 0.000000 0.456678
O O8 0.115519 0.184705 0.929265
O O9 0.000000 0.317074 0.949508
O O10 0.107071 0.258016 0.034542
O O11 0.334656 0.834656 0.750000
O O12 0.228218 0.874488 0.845998
O O13 0.272900 0.000000 0.771561
O O14 0.648345 0.500000 0.409526
#
# Coordination Sequence:
#
# PCOD9559201 Si02
#       5
#    16  16  16  16  16
#     4   9  19  35  54  78 103 129 169 220 266 306
#     4  11  21  35  56  78 105 138 175 216 264 316
#     4  10  20  35  54  78 110 139 172 216 262 314
#     4  10  20  33  52  75 106 141 174 213 257 309
#     4   9  18  34  54  77 105 138 179 218 255 305
#
# _framework density 16.785291999999998
#
# number of rings (size 3 to 8) (size 9 to 14) (size 15 to 20)
#    0.000    2.200    2.000    1.800    0.000    2.800 
#    0.000    4.000    0.000    3.600    0.000    0.000 
#    0.000    4.800    0.000    0.000    0.000    0.200 
#
# Total GULP energy -223033.360143 kJ/mol
# GULP energy per Si atom -5575.834004 kJ/mol
# Density = 1.674709 g / cm^3
# Si number density = 16.785292 Si / 1000 Ang^3
#
#
#
# Elastic Constant Matrix: (Units=GPa)
#
#
# Indices 1 2 3 4 5 6 
#
# 1 79.3237 55.1593 63.0213 0.0000 0.0000 0.0000
# 2 55.1593 79.3242 63.0207 0.0000 0.0000 0.0000
# 3 63.0213 63.0207 134.2198 0.0000 0.0000 0.0000
# 4 0.0000 0.0000 0.0000 17.7727 0.0000 0.0000
# 5 0.0000 0.0000 0.0000 0.0000 17.7727 0.0000
# 6 0.0000 0.0000 0.0000 0.0000 0.0000 22.7092
#
#
#
# Elastic Compliance Matrix: (Units=1/GPa)
#
#
# Indices 1 2 3 4 5 6 
#
# 1 0.027332 -0.014051 -0.006236 0.000000 0.000000 0.000000
# 2 -0.014051 0.027331 -0.006235 0.000000 0.000000 0.000000
# 3 -0.006236 -0.006235 0.013306 0.000000 0.000000 0.000000
# 4 0.000000 0.000000 0.000000 0.056266 0.000000 0.000000
# 5 0.000000 0.000000 0.000000 0.000000 0.056266 0.000000
# 6 0.000000 0.000000 0.000000 0.000000 0.000000 0.044035
#
#
# Mechanical properties :
#
#
# Convention : Reuss Voigt Hill
#
# Bulk Modulus (GPa) = 67.00544 72.80781 69.90663
# Shear Modulus (GPa) = 17.69567 19.09533 18.39550
#
# Velocity S-wave (km/s) = 3.25042 3.37653 3.31407
# Velocity P-wave (km/s) = 7.35478 7.65972 7.50880
#
# Compressibility (1/GPa) = 0.01492416
#
# Stress axis : x y z
#
# Youngs Moduli (GPa) = 36.58769 36.58846 75.15446
#
# Poissons Ratio (x) = 0.51412 0.46863
# Poissons Ratio (y) = 0.51411 0.46860
# Poissons Ratio (z) = 0.22815 0.22813
#
# Static dielectric constant tensor:
#      x y z
#    x 1.561280 0.000000 0.000000 
#    y 0.000000 1.561280 0.000000 
#    z 0.000000 0.000000 1.548580 
# 
# From -- ./inp_files/7531.got.cif
#   From: 2010.05.17/outbox.cif.g08.bks.cpg/sg119_4_cif.got.tgz:7531.got - 2010.05.20 11:21:29.
