data_PCOD9559962
_publ_section_title
;
Structure prediction by ZEFSAII (Michael W. Deem and Ramdas Pophale) SiO2 
 PCOD9559962
Probable space group: I -4 C 2
;
_chemical_formula_sum "Si O2"
_cell_formula_units_Z 116
_cell_length_a 18.046672
_cell_length_b 18.046672
_cell_length_c 18.846450
_cell_angle_alpha 90.000000
_cell_angle_beta 90.000000
_cell_angle_gamma 90.000000
_cell_volume 6137.956507
_symmetry_space_group_name_H-M "I -4 C 2"
_symmetry_group_IT_number 120
_symmetry_cell_setting 'tetragonal'
loop_
_space_group_symop_operation_xyz
x,y,z
y,-x,-z
-x,-y,z
-y,x,-z
y,x,1/2-z
-y,-x,1/2-z
-x,y,1/2+z
x,-y,1/2+z
1/2+x,1/2+y,1/2+z
1/2+y,1/2-x,1/2-z
1/2-x,1/2-y,1/2+z
1/2-y,1/2+x,1/2-z
1/2+y,1/2+x,-z
1/2-y,1/2-x,-z
1/2-x,1/2+y,z
1/2+x,1/2-y,z
loop_
_atom_site_type_symbol
_atom_site_label
_atom_site_fract_x
_atom_site_fract_y
_atom_site_fract_z
Si Si1 0.124059 0.497968 0.006958
Si Si2 0.969965 0.887429 0.584058
Si Si3 0.000000 0.500000 0.750000
Si Si4 0.534445 0.617148 0.912993
Si Si5 0.737215 0.862337 0.740455
Si Si6 0.723659 0.956247 0.873743
Si Si7 0.346972 0.924434 0.779733
Si Si8 0.273404 0.006388 0.145926
O O1 0.179411 0.528576 0.945891
O O2 0.058580 0.558580 0.000000
O O3 0.172650 0.493065 0.078788
O O4 0.080985 0.419016 0.000000
O O5 0.966978 0.881472 0.498667
O O6 0.945862 0.809711 0.613162
O O7 0.053959 0.906547 0.606418
O O8 0.917438 0.954655 0.607177
O O9 0.955503 0.432169 0.711216
O O10 0.544622 0.698121 0.881414
O O11 0.803305 0.803305 0.750000
O O12 0.707226 0.891388 0.817221
O O13 0.661339 0.833868 0.705820
O O14 0.753415 0.933620 0.690405
O O15 0.705318 0.029686 0.830553
O O16 0.321143 0.945994 0.701009
#
# Coordination Sequence:
#
# PCOD9559962 Si02
#       8
#    16  16   4  16  16  16  16  16
#     4  11  24  36  58  89 124 154 206 263 314 384
#     4   9  18  35  60  86 115 154 194 236 292 364
#     4  12  20  44  64  82 112 164 236 242 304 392
#     4   9  18  35  60  86 115 154 194 236 292 364
#     4  11  24  41  61  88 122 164 208 253 313 380
#     4  11  21  39  60  89 118 159 199 255 317 364
#     4  11  24  37  66  83 117 165 210 261 308 366
#     4  11  21  39  60  89 118 159 199 255 317 364
#
# _framework density 18.898797999999999
#
# number of rings (size 3 to 8) (size 9 to 14) (size 15 to 20)
#    0.000    1.517    4.138    3.310    0.000    1.103 
#    0.000    2.069    0.000   11.586    0.000    0.000 
#    0.000    0.000    0.000    0.000    0.000    0.000 
#
# Total GULP energy -322945.279725 kJ/mol
# GULP energy per Si atom -5568.022064 kJ/mol
# Density = 1.885578 g / cm^3
# Si number density = 18.898798 Si / 1000 Ang^3
#
#
#
# Elastic Constant Matrix: (Units=GPa)
#
#
# Indices 1 2 3 4 5 6 
#
# 1 48.7944 5.1570 7.1591 0.0000 0.0000 0.0000
# 2 5.1570 48.7948 7.1587 0.0000 0.0000 0.0000
# 3 7.1591 7.1587 59.8209 0.0000 0.0000 0.0000
# 4 0.0000 0.0000 0.0000 -22.5354 0.0000 0.0000
# 5 0.0000 0.0000 0.0000 0.0000 -22.5122 0.0000
# 6 0.0000 0.0000 0.0000 0.0000 0.0000 25.4400
#
#
#
# Elastic Compliance Matrix: (Units=1/GPa)
#
#
# Indices 1 2 3 4 5 6 
#
# 1 0.021030 -0.001886 -0.002291 0.000000 0.000000 0.000000
# 2 -0.001886 0.021029 -0.002291 0.000000 0.000000 0.000000
# 3 -0.002291 -0.002291 0.017265 0.000000 0.000000 0.000000
# 4 0.000000 0.000000 0.000000 -0.044375 0.000000 0.000000
# 5 0.000000 0.000000 0.000000 0.000000 -0.044420 0.000000
# 6 0.000000 0.000000 0.000000 0.000000 0.000000 0.039308
#
#
# Mechanical properties :
#
#
# Convention : Reuss Voigt Hill
#
# Bulk Modulus (GPa) = 21.55753 21.81773 21.68763
# Shear Modulus (GPa) = 130.76683 5.27419 68.02051
#
# Velocity S-wave (km/s) = 8.32727 1.67237 6.00584
# Velocity P-wave (km/s) = 10.19262 3.91135 7.71972
#
# Compressibility (1/GPa) = 0.04638750
#
# Stress axis : x y z
#
# Youngs Moduli (GPa) = 47.55193 47.55233 57.92105
#
# Poissons Ratio (x) = 0.08971 0.13270
# Poissons Ratio (y) = 0.08970 0.13269
# Poissons Ratio (z) = 0.10894 0.10893
#
# Static dielectric constant tensor:
#      x y z
#    x 1.747380 0.000000 0.000000 
#    y 0.000000 1.747460 0.000000 
#    z 0.000000 0.000000 1.727190 
# 
# From -- ./inp_files/4579.got.cif
#   From: 2010.05.17/outbox.cif.g08.bks.cpg/sg120_3_cif.got.tgz:4579.got - 2010.05.20 11:28:13.
