data_PCOD9559330
_publ_section_title
;
Structure prediction by ZEFSAII (Michael W. Deem and Ramdas Pophale) SiO2 
 PCOD9559330
Probable space group: I -4 M 2
;
_chemical_formula_sum "Si O2"
_cell_formula_units_Z 112
_cell_length_a 14.119971
_cell_length_b 14.119971
_cell_length_c 28.587328
_cell_angle_alpha 90.000000
_cell_angle_beta 90.000000
_cell_angle_gamma 90.000000
_cell_volume 5699.557956
_symmetry_space_group_name_H-M "I -4 M 2"
_symmetry_group_IT_number 119
_symmetry_cell_setting 'tetragonal'
loop_
_space_group_symop_operation_xyz
x,y,z
y,-x,-z
-x,-y,z
-y,x,-z
y,x,-z
-y,-x,-z
-x,y,z
x,-y,z
1/2+x,1/2+y,1/2+z
1/2+y,1/2-x,1/2-z
1/2-x,1/2-y,1/2+z
1/2-y,1/2+x,1/2-z
1/2+y,1/2+x,1/2-z
1/2-y,1/2-x,1/2-z
1/2-x,1/2+y,1/2+z
1/2+x,1/2-y,1/2+z
loop_
_atom_site_type_symbol
_atom_site_label
_atom_site_fract_x
_atom_site_fract_y
_atom_site_fract_z
Si Si1 0.115626 0.891590 0.266037
Si Si2 0.887537 0.889536 0.628568
Si Si3 0.112873 0.773705 0.178772
Si Si4 0.388337 0.258033 0.383271
Si Si5 0.216569 0.761600 0.446043
Si Si6 0.114876 0.608042 0.802313
Si Si7 0.110715 0.386576 0.388415
O O1 0.146522 0.869154 0.318703
O O2 0.145637 0.813438 0.228620
O O3 0.000000 0.893705 0.267036
O O4 0.145181 0.000000 0.253289
O O5 0.837547 0.831896 0.588118
O O6 0.000000 0.886263 0.622751
O O7 0.858678 0.000000 0.626131
O O8 0.146574 0.852286 0.141675
O O9 0.143906 0.672882 0.157066
O O10 0.000000 0.769557 0.181196
O O11 0.500000 0.256603 0.391262
O O12 0.325065 0.246298 0.429183
O O13 0.362463 0.176748 0.345178
O O14 0.212194 0.787807 0.500000
O O15 0.160093 0.666057 0.431861
O O16 0.148631 0.500000 0.809997
O O17 0.141621 0.641621 0.750000
O O18 0.000000 0.604573 0.800507
O O19 0.118133 0.500000 0.393004
O O20 0.000000 0.362996 0.383969
#
# Coordination Sequence:
#
# PCOD9559330 Si02
#       7
#    16  16  16  16  16  16  16
#     4   8  14  27  50  81 116 149 177 211 262 324
#     4   9  19  36  57  82 112 143 177 225 284 341
#     4   9  17  31  55  86 115 143 176 214 260 320
#     4  10  21  35  52  77 107 139 177 222 271 323
#     4  11  24  39  57  79 104 140 187 241 294 342
#     4   8  15  30  51  75 107 143 172 202 248 313
#     4   9  19  38  62  85 112 148 188 230 280 339
#
# _framework density 19.650648
#
# number of rings (size 3 to 8) (size 9 to 14) (size 15 to 20)
#    0.000    2.857    0.000    2.143    0.000    4.286 
#    0.000    5.714    0.000    4.286    0.000    8.000 
#    0.000    0.000    0.000    0.000    0.000    0.000 
#
# Total GULP energy -312553.163488 kJ/mol
# GULP energy per Si atom -5581.306491 kJ/mol
# Density = 1.960592 g / cm^3
# Si number density = 19.650648 Si / 1000 Ang^3
#
#
#
# Elastic Constant Matrix: (Units=GPa)
#
#
# Indices 1 2 3 4 5 6 
#
# 1 96.9016 20.7002 45.2053 0.0000 0.0000 0.0000
# 2 20.7002 96.9010 45.2050 0.0000 0.0000 0.0000
# 3 45.2053 45.2050 139.9430 0.0000 0.0000 0.0000
# 4 0.0000 0.0000 0.0000 19.3331 0.0000 0.0000
# 5 0.0000 0.0000 0.0000 0.0000 19.3333 0.0000
# 6 0.0000 0.0000 0.0000 0.0000 0.0000 19.2934
#
#
#
# Elastic Compliance Matrix: (Units=1/GPa)
#
#
# Indices 1 2 3 4 5 6 
#
# 1 0.012218 -0.000905 -0.003654 0.000000 0.000000 0.000000
# 2 -0.000905 0.012218 -0.003654 0.000000 0.000000 0.000000
# 3 -0.003654 -0.003654 0.009507 0.000000 0.000000 0.000000
# 4 0.000000 0.000000 0.000000 0.051725 0.000000 0.000000
# 5 0.000000 0.000000 0.000000 0.000000 0.051724 0.000000
# 6 0.000000 0.000000 0.000000 0.000000 0.000000 0.051831
#
#
# Mechanical properties :
#
#
# Convention : Reuss Voigt Hill
#
# Bulk Modulus (GPa) = 57.09453 61.77406 59.43429
# Shear Modulus (GPa) = 23.64197 26.43432 25.03815
#
# Velocity S-wave (km/s) = 3.47236 3.67169 3.57342
# Velocity P-wave (km/s) = 6.72266 7.03417 6.88018
#
# Compressibility (1/GPa) = 0.01751481
#
# Stress axis : x y z
#
# Youngs Moduli (GPa) = 81.84730 81.84686 105.18994
#
# Poissons Ratio (x) = 0.07409 0.38439
# Poissons Ratio (y) = 0.07409 0.38439
# Poissons Ratio (z) = 0.29909 0.29909
#
# Static dielectric constant tensor:
#      x y z
#    x 1.726320 0.000000 0.000000 
#    y 0.000000 1.726320 0.000000 
#    z 0.000000 0.000000 1.654580 
# 
# From -- ./inp_files/9586.got.cif
#   From: 2010.05.17/outbox.cif.g08.bks.cpg/sg119_5_cif.got.tgz:9586.got - 2010.05.20 11:21:29.
