data_PCOD9559123
_publ_section_title
;
Structure prediction by ZEFSAII (Michael W. Deem and Ramdas Pophale) SiO2 
 PCOD9559123
Probable space group: I -4 M 2
;
_chemical_formula_sum "Si O2"
_cell_formula_units_Z 80
_cell_length_a 30.241265
_cell_length_b 30.241265
_cell_length_c 5.230177
_cell_angle_alpha 90.000000
_cell_angle_beta 90.000000
_cell_angle_gamma 90.000000
_cell_volume 4783.175262
_symmetry_space_group_name_H-M "I -4 M 2"
_symmetry_group_IT_number 119
_symmetry_cell_setting 'tetragonal'
loop_
_space_group_symop_operation_xyz
x,y,z
y,-x,-z
-x,-y,z
-y,x,-z
y,x,-z
-y,-x,-z
-x,y,z
x,-y,z
1/2+x,1/2+y,1/2+z
1/2+y,1/2-x,1/2-z
1/2-x,1/2-y,1/2+z
1/2-y,1/2+x,1/2-z
1/2+y,1/2+x,1/2-z
1/2-y,1/2-x,1/2-z
1/2-x,1/2+y,1/2+z
1/2+x,1/2-y,1/2+z
loop_
_atom_site_type_symbol
_atom_site_label
_atom_site_fract_x
_atom_site_fract_y
_atom_site_fract_z
Si Si1 0.596327 0.447071 0.250000
Si Si2 0.331450 0.626491 0.250000
Si Si3 0.596740 0.234658 0.749999
Si Si4 0.672528 0.901887 0.250000
Si Si5 0.500000 0.169645 0.250000
Si Si6 0.500000 0.769548 0.750000
O O1 0.569812 0.430189 0.500000
O O2 0.601084 0.500000 0.250000
O O3 0.643296 0.421054 0.250000
O O4 0.569812 0.430189 0.000000
O O5 0.348741 0.651260 0.500000
O O6 0.278512 0.625566 0.249999
O O7 0.348741 0.651260 0.000000
O O8 0.601818 0.203829 0.500176
O O9 0.546654 0.254075 0.750000
O O10 0.601818 0.203829 0.999821
O O11 0.636091 0.863910 0.250000
O O12 0.649202 0.950734 0.250000
O O13 0.500000 0.199849 0.500837
O O14 0.500000 0.199849 0.999164
#
# Coordination Sequence:
#
# PCOD9559123 Si02
#       6
#    16  16  16  16   8   8
#     4  10  21  35  51  74 100 132 172 212 260 314
#     4  10  21  36  52  72 100 134 169 213 263 311
#     4  10  19  33  54  76 100 133 169 210 258 299
#     4  10  19  33  54  80 107 133 167 207 245 294
#     4   8  16  30  46  75 108 130 156 194 247 286
#     4   8  16  28  48  76  96 121 163 206 252 298
#
# _framework density 16.725290999999999
#
# number of rings (size 3 to 8) (size 9 to 14) (size 15 to 20)
#    0.000    2.400    0.000    2.400    1.400    1.200 
#    0.000    0.000    0.000   12.300    0.000    0.000 
#    0.000    9.600    0.000    0.000    0.000    1.600 
#
# Total GULP energy -222679.803219 kJ/mol
# GULP energy per Si atom -5566.995080 kJ/mol
# Density = 1.668722 g / cm^3
# Si number density = 16.725291 Si / 1000 Ang^3
#
#
#
# Elastic Constant Matrix: (Units=GPa)
#
#
# Indices 1 2 3 4 5 6 
#
# 1 113.5015 65.7139 45.0429 0.0000 0.0000 0.0000
# 2 65.7139 113.5057 45.0435 0.0000 0.0000 0.0000
# 3 45.0429 45.0435 152.1821 0.0000 0.0000 0.0000
# 4 0.0000 0.0000 0.0000 15.2703 0.0000 0.0000
# 5 0.0000 0.0000 0.0000 0.0000 15.2688 0.0000
# 6 0.0000 0.0000 0.0000 0.0000 0.0000 13.8822
#
#
#
# Elastic Compliance Matrix: (Units=1/GPa)
#
#
# Indices 1 2 3 4 5 6 
#
# 1 0.013740 -0.007185 -0.001940 0.000000 0.000000 0.000000
# 2 -0.007185 0.013740 -0.001940 0.000000 0.000000 0.000000
# 3 -0.001940 -0.001940 0.007720 0.000000 0.000000 0.000000
# 4 0.000000 0.000000 0.000000 0.065487 0.000000 0.000000
# 5 0.000000 0.000000 0.000000 0.000000 0.065493 0.000000
# 6 0.000000 0.000000 0.000000 0.000000 0.000000 0.072035
#
#
# Mechanical properties :
#
#
# Convention : Reuss Voigt Hill
#
# Bulk Modulus (GPa) = 76.51691 76.75442 76.63567
# Shear Modulus (GPa) = 18.88923 23.77686 21.33305
#
# Velocity S-wave (km/s) = 3.36427 3.77452 3.57528
# Velocity P-wave (km/s) = 7.80639 8.06144 7.93494
#
# Compressibility (1/GPa) = 0.01306901
#
# Stress axis : x y z
#
# Youngs Moduli (GPa) = 72.77859 72.78144 129.54048
#
# Poissons Ratio (x) = 0.52293 0.25134
# Poissons Ratio (y) = 0.52291 0.25133
# Poissons Ratio (z) = 0.14121 0.14121
#
# Static dielectric constant tensor:
#      x y z
#    x 1.558130 0.000000 0.000000 
#    y 0.000000 1.558130 0.000000 
#    z 0.000000 0.000000 1.552350 
# 
# From -- ./inp_files/1036.got.cif
#   From: 2010.05.17/outbox.cif.g08.bks.cpg/sg119_1_cif.got.tgz:1036.got - 2010.05.20 11:21:29.
