data_PCOD9559785
_publ_section_title
;
Structure prediction by ZEFSAII (Michael W. Deem and Ramdas Pophale) SiO2 
 PCOD9559785
Probable space group: I -4 C 2
;
_chemical_formula_sum "Si O2"
_cell_formula_units_Z 84
_cell_length_a 14.708045
_cell_length_b 14.708045
_cell_length_c 17.896376
_cell_angle_alpha 90.000000
_cell_angle_beta 90.000000
_cell_angle_gamma 90.000000
_cell_volume 3871.461953
_symmetry_space_group_name_H-M "I -4 C 2"
_symmetry_group_IT_number 120
_symmetry_cell_setting 'tetragonal'
loop_
_space_group_symop_operation_xyz
x,y,z
y,-x,-z
-x,-y,z
-y,x,-z
y,x,1/2-z
-y,-x,1/2-z
-x,y,1/2+z
x,-y,1/2+z
1/2+x,1/2+y,1/2+z
1/2+y,1/2-x,1/2-z
1/2-x,1/2-y,1/2+z
1/2-y,1/2+x,1/2-z
1/2+y,1/2+x,-z
1/2-y,1/2-x,-z
1/2-x,1/2+y,z
1/2+x,1/2-y,z
loop_
_atom_site_type_symbol
_atom_site_label
_atom_site_fract_x
_atom_site_fract_y
_atom_site_fract_z
Si Si1 0.207668 0.292333 0.500000
Si Si2 0.762513 0.068613 0.608733
Si Si3 0.464497 0.851915 0.244356
Si Si4 0.000000 0.000000 0.500000
Si Si5 0.398878 0.601123 0.750000
Si Si6 0.608352 0.653801 0.418815
Si Si7 0.676098 0.589192 0.812909
O O1 0.134456 0.302015 0.435767
O O2 0.304031 0.310753 0.461223
O O3 0.714064 0.042417 0.684995
O O4 0.859641 0.120483 0.622066
O O5 0.781622 0.976699 0.565379
O O6 0.564849 0.895005 0.244177
O O7 0.439168 0.781299 0.177407
O O8 0.943998 0.928224 0.551561
O O9 0.347130 0.620786 0.671815
O O10 0.375058 0.498844 0.777962
O O11 0.668329 0.668329 0.750000
#
# Coordination Sequence:
#
# PCOD9559785 Si02
#       7
#     8  16  16   4   8  16  16
#     4  12  30  48  70 104 156 202 248 300 390 462
#     4  11  25  46  69 107 145 189 250 293 375 453
#     4  10  23  44  67 101 143 186 238 303 367 431
#     4  12  24  46  80 108 156 194 236 328 392 458
#     4  12  23  40  78 110 142 187 246 314 376 427
#     4  12  26  47  73 112 148 199 247 315 382 455
#     4  10  21  38  69 109 142 171 237 310 367 431
#
# _framework density 21.697230000000001
#
# number of rings (size 3 to 8) (size 9 to 14) (size 15 to 20)
#    0.000    0.952    5.714    1.429    5.333    0.000 
#    3.429    0.000    0.000    0.000    0.000    0.000 
#    0.000    0.000    0.000    0.000    0.000    0.000 
#
# Total GULP energy -234223.595507 kJ/mol
# GULP energy per Si atom -5576.752274 kJ/mol
# Density = 2.164785 g / cm^3
# Si number density = 21.697230 Si / 1000 Ang^3
#
#
#
# Elastic Constant Matrix: (Units=GPa)
#
#
# Indices 1 2 3 4 5 6 
#
# 1 69.2039 65.2105 12.1321 0.0000 0.0000 0.0000
# 2 65.2105 69.1991 12.1276 0.0000 0.0000 0.0000
# 3 12.1321 12.1276 75.2121 0.0000 0.0000 0.0000
# 4 0.0000 0.0000 0.0000 26.2072 0.0000 0.0000
# 5 0.0000 0.0000 0.0000 0.0000 26.2070 0.0000
# 6 0.0000 0.0000 0.0000 0.0000 0.0000 36.9293
#
#
#
# Elastic Compliance Matrix: (Units=1/GPa)
#
#
# Indices 1 2 3 4 5 6 
#
# 1 0.129110 -0.121450 -0.001243 0.000000 0.000000 0.000000
# 2 -0.121450 0.129116 -0.001229 0.000000 0.000000 0.000000
# 3 -0.001243 -0.001229 0.013694 0.000000 0.000000 0.000000
# 4 0.000000 0.000000 0.000000 0.038157 0.000000 0.000000
# 5 0.000000 0.000000 0.000000 0.000000 0.038158 0.000000
# 6 0.000000 0.000000 0.000000 0.000000 0.000000 0.027079
#
#
# Mechanical properties :
#
#
# Convention : Reuss Voigt Hill
#
# Bulk Modulus (GPa) = 41.53385 43.61730 42.57557
# Shear Modulus (GPa) = 7.92163 26.14503 17.03333
#
# Velocity S-wave (km/s) = 1.91283 3.47507 2.80491
# Velocity P-wave (km/s) = 4.90536 6.02062 5.49137
#
# Compressibility (1/GPa) = 0.02407675
#
# Stress axis : x y z
#
# Youngs Moduli (GPa) = 7.74535 7.74497 73.02283
#
# Poissons Ratio (x) = 0.94063 0.09075
# Poissons Ratio (y) = 0.94067 0.08974
# Poissons Ratio (z) = 0.00963 0.00952
#
# Static dielectric constant tensor:
#      x y z
#    x 1.811510 0.000000 0.000000 
#    y 0.000000 1.811510 0.000000 
#    z 0.000000 0.000000 1.871090 
# 
# From -- ./inp_files/5297.got.cif
#   From: 2010.05.17/outbox.cif.g08.bks.cpg/sg120_3_cif.got.tgz:5297.got - 2010.05.20 11:28:13.
