data_PCOD9559910
_publ_section_title
;
Structure prediction by ZEFSAII (Michael W. Deem and Ramdas Pophale) SiO2 
 PCOD9559910
Probable space group: I -4 C 2
;
_chemical_formula_sum "Si O2"
_cell_formula_units_Z 60
_cell_length_a 15.870733
_cell_length_b 15.870733
_cell_length_c 10.485827
_cell_angle_alpha 90.000000
_cell_angle_beta 90.000000
_cell_angle_gamma 90.000000
_cell_volume 2641.171845
_symmetry_space_group_name_H-M "I -4 C 2"
_symmetry_group_IT_number 120
_symmetry_cell_setting 'tetragonal'
loop_
_space_group_symop_operation_xyz
x,y,z
y,-x,-z
-x,-y,z
-y,x,-z
y,x,1/2-z
-y,-x,1/2-z
-x,y,1/2+z
x,-y,1/2+z
1/2+x,1/2+y,1/2+z
1/2+y,1/2-x,1/2-z
1/2-x,1/2-y,1/2+z
1/2-y,1/2+x,1/2-z
1/2+y,1/2+x,-z
1/2-y,1/2-x,-z
1/2-x,1/2+y,z
1/2+x,1/2-y,z
loop_
_atom_site_type_symbol
_atom_site_label
_atom_site_fract_x
_atom_site_fract_y
_atom_site_fract_z
Si Si1 0.000000 0.000000 0.500000
Si Si2 0.652222 0.536287 0.178104
Si Si3 0.123240 0.679692 0.861855
Si Si4 0.642111 0.357890 0.250000
Si Si5 0.329986 0.925519 0.113981
O O1 0.918515 0.000100 0.586711
O O2 0.615969 0.615969 0.250000
O O3 0.660170 0.457920 0.278684
O O4 0.730107 0.565721 0.093557
O O5 0.148317 0.778635 0.846501
O O6 0.160544 0.629328 0.741980
O O7 0.024165 0.652817 0.859141
O O8 0.153748 0.653748 0.000000
O O9 0.383516 0.883516 0.000000
#
# Coordination Sequence:
#
# PCOD9559910 Si02
#       5
#     4  16  16   8  16
#     4  12  22  40  80 102 152 204 250 316 398 488
#     4  11  24  45  69 110 149 198 247 313 395 465
#     4  11  26  48  74 108 150 202 257 323 388 466
#     4  10  23  46  66 102 152 185 256 306 386 454
#     4  11  27  47  76 112 153 200 264 324 388 464
#
# _framework density 22.717188
#
# number of rings (size 3 to 8) (size 9 to 14) (size 15 to 20)
#    0.000    1.067    2.667    1.600    5.600    8.533 
#    0.000    0.000    0.000    0.000    0.000    0.000 
#    0.000    0.000    0.000    0.000    0.000    0.000 
#
# Total GULP energy -167167.090824 kJ/mol
# GULP energy per Si atom -5572.236361 kJ/mol
# Density = 2.266548 g / cm^3
# Si number density = 22.717188 Si / 1000 Ang^3
#
#
#
# Elastic Constant Matrix: (Units=GPa)
#
#
# Indices 1 2 3 4 5 6 
#
# 1 -2.6758 158.4321 35.6776 0.0000 0.0000 0.0000
# 2 158.4321 -2.6581 35.6863 0.0000 0.0000 0.0000
# 3 35.6776 35.6863 99.8831 0.0000 0.0000 0.0000
# 4 0.0000 0.0000 0.0000 40.0535 0.0000 0.0000
# 5 0.0000 0.0000 0.0000 0.0000 40.0549 0.0000
# 6 0.0000 0.0000 0.0000 0.0000 0.0000 42.3909
#
#
#
# Elastic Compliance Matrix: (Units=1/GPa)
#
#
# Indices 1 2 3 4 5 6 
#
# 1 0.000734 0.006942 -0.002742 0.000000 0.000000 0.000000
# 2 0.006942 0.000735 -0.002742 0.000000 0.000000 0.000000
# 3 -0.002742 -0.002742 0.011971 0.000000 0.000000 0.000000
# 4 0.000000 0.000000 0.000000 0.024967 0.000000 0.000000
# 5 0.000000 0.000000 0.000000 0.000000 0.024966 0.000000
# 6 0.000000 0.000000 0.000000 0.000000 0.000000 0.023590
#
#
# Mechanical properties :
#
#
# Convention : Reuss Voigt Hill
#
# Bulk Modulus (GPa) = 61.14513 61.57124 61.35818
# Shear Modulus (GPa) = 55.86646 15.48339 35.67492
#
# Velocity S-wave (km/s) = 4.96443 2.61352 3.96712
# Velocity P-wave (km/s) = 7.73531 6.02242 6.93197
#
# Compressibility (1/GPa) = 0.01635453
#
# Stress axis : x y z
#
# Youngs Moduli (GPa) = 1362.05171 1361.03229 83.53539
#
# Poissons Ratio (x) = -9.44804 0.22909
# Poissons Ratio (y) = -9.45512 0.22906
# Poissons Ratio (z) = 3.73532 3.73206
#
# Static dielectric constant tensor:
#      x y z
#    x 1.890620 0.000000 0.000000 
#    y 0.000000 1.890620 0.000000 
#    z 0.000000 0.000000 1.909690 
# 
# From -- ./inp_files/1105.got.cif
#   From: 2010.05.17/outbox.cif.g08.bks.cpg/sg120_1_cif.got.tgz:1105.got - 2010.05.20 11:28:13.
