data_PCOD9559561
_publ_section_title
;
Structure prediction by ZEFSAII (Michael W. Deem and Ramdas Pophale) SiO2 
 PCOD9559561
Probable space group: I -4 C 2
;
_chemical_formula_sum "Si O2"
_cell_formula_units_Z 128
_cell_length_a 20.192107
_cell_length_b 20.192107
_cell_length_c 13.850809
_cell_angle_alpha 90.000000
_cell_angle_beta 90.000000
_cell_angle_gamma 90.000000
_cell_volume 5647.268260
_symmetry_space_group_name_H-M "I -4 C 2"
_symmetry_group_IT_number 120
_symmetry_cell_setting 'tetragonal'
loop_
_space_group_symop_operation_xyz
x,y,z
y,-x,-z
-x,-y,z
-y,x,-z
y,x,1/2-z
-y,-x,1/2-z
-x,y,1/2+z
x,-y,1/2+z
1/2+x,1/2+y,1/2+z
1/2+y,1/2-x,1/2-z
1/2-x,1/2-y,1/2+z
1/2-y,1/2+x,1/2-z
1/2+y,1/2+x,-z
1/2-y,1/2-x,-z
1/2-x,1/2+y,z
1/2+x,1/2-y,z
loop_
_atom_site_type_symbol
_atom_site_label
_atom_site_fract_x
_atom_site_fract_y
_atom_site_fract_z
Si Si1 0.744922 0.025463 0.392658
Si Si2 0.393799 0.498120 0.134239
Si Si3 0.830769 0.780226 0.616317
Si Si4 0.501876 0.393799 0.134239
Si Si5 0.383941 0.774824 0.881453
Si Si6 0.883940 0.274825 0.618550
Si Si7 0.025467 0.255080 0.392658
Si Si8 0.330766 0.719779 0.383680
O O1 0.755956 0.097801 0.346592
O O2 0.820320 0.000131 0.401854
O O3 0.715548 0.035917 0.499999
O O4 0.712842 0.959372 0.348419
O O5 0.436980 0.435079 0.105483
O O6 0.435094 0.563006 0.105481
O O7 0.391146 0.499999 0.250000
O O8 0.320321 0.500143 0.098146
O O9 0.794087 0.847673 0.649475
O O10 0.777419 0.722585 0.632986
O O11 0.839137 0.787628 0.499998
O O12 0.334057 0.834055 0.854996
O O13 0.459374 0.787156 0.848422
O O14 0.385842 0.772950 0.000001
O O15 0.847669 0.205915 0.649479
O O16 0.097806 0.244052 0.346590
#
# Coordination Sequence:
#
# PCOD9559561 Si02
#       8
#    16  16  16  16  16  16  16  16
#     4  10  17  25  43  65  78  98 141 182 198 222
#     4   9  18  30  40  54  83 117 136 152 196 255
#     4   8  14  24  37  56  83 108 128 160 210 253
#     4   9  18  30  40  54  83 117 136 152 196 255
#     4   8  14  24  37  56  83 108 128 160 210 253
#     4   8  14  24  37  56  83 108 128 160 210 253
#     4  10  17  25  43  65  78  98 141 182 198 222
#     4   8  14  24  37  56  83 108 128 160 210 253
#
# _framework density 22.665827
#
# number of rings (size 3 to 8) (size 9 to 14) (size 15 to 20)
#    0.000    3.250    0.000    3.750    0.000    3.000 
#    0.000    1.250    0.000    2.250    0.000   12.250 
#    0.000    0.000    0.000    2.250    0.000    3.000 
#
# Total GULP energy -357264.063167 kJ/mol
# GULP energy per Si atom -5582.250987 kJ/mol
# Density = 2.261424 g / cm^3
# Si number density = 22.665827 Si / 1000 Ang^3
#
#
#
# Elastic Constant Matrix: (Units=GPa)
#
#
# Indices 1 2 3 4 5 6 
#
# 1 120.1267 24.3978 4.0797 0.0000 0.0000 0.0000
# 2 24.3978 120.1267 4.0797 0.0000 0.0000 0.0000
# 3 4.0797 4.0797 92.6033 0.0000 0.0000 0.0000
# 4 0.0000 0.0000 0.0000 18.6507 0.0000 0.0000
# 5 0.0000 0.0000 0.0000 0.0000 18.6507 0.0000
# 6 0.0000 0.0000 0.0000 0.0000 0.0000 16.6857
#
#
#
# Elastic Compliance Matrix: (Units=1/GPa)
#
#
# Indices 1 2 3 4 5 6 
#
# 1 0.008691 -0.001755 -0.000306 0.000000 0.000000 0.000000
# 2 -0.001755 0.008691 -0.000306 0.000000 0.000000 0.000000
# 3 -0.000306 -0.000306 0.010826 0.000000 0.000000 0.000000
# 4 0.000000 0.000000 0.000000 0.053617 0.000000 0.000000
# 5 0.000000 0.000000 0.000000 0.000000 0.053617 0.000000
# 6 0.000000 0.000000 0.000000 0.000000 0.000000 0.059932
#
#
# Mechanical properties :
#
#
# Convention : Reuss Voigt Hill
#
# Bulk Modulus (GPa) = 42.59615 44.21901 43.40758
# Shear Modulus (GPa) = 24.04631 30.81737 27.43184
#
# Velocity S-wave (km/s) = 3.26069 3.69133 3.48267
# Velocity P-wave (km/s) = 5.74544 6.14161 5.94682
#
# Compressibility (1/GPa) = 0.02347630
#
# Stress axis : x y z
#
# Youngs Moduli (GPa) = 115.05719 115.05719 92.37297
#
# Poissons Ratio (x) = 0.20191 0.02823
# Poissons Ratio (y) = 0.20191 0.02823
# Poissons Ratio (z) = 0.03516 0.03516
#
# Static dielectric constant tensor:
#      x y z
#    x 1.844380 0.000000 0.000000 
#    y 0.000000 1.844380 0.000000 
#    z 0.000000 0.000000 1.929190 
# 
# From -- ./inp_files/6049.got.cif
#   From: 2010.05.17/outbox.cif.g08.bks.cpg/sg120_4_cif.got.tgz:6049.got - 2010.05.20 11:28:13.
