data_PCOD9559458
_publ_section_title
;
Structure prediction by ZEFSAII (Michael W. Deem and Ramdas Pophale) SiO2 
 PCOD9559458
Probable space group: I -4 M 2
;
_chemical_formula_sum "Si O2"
_cell_formula_units_Z 96
_cell_length_a 23.737244
_cell_length_b 23.737244
_cell_length_c 9.790591
_cell_angle_alpha 90.000000
_cell_angle_beta 90.000000
_cell_angle_gamma 90.000000
_cell_volume 5516.574612
_symmetry_space_group_name_H-M "I -4 M 2"
_symmetry_group_IT_number 119
_symmetry_cell_setting 'tetragonal'
loop_
_space_group_symop_operation_xyz
x,y,z
y,-x,-z
-x,-y,z
-y,x,-z
y,x,-z
-y,-x,-z
-x,y,z
x,-y,z
1/2+x,1/2+y,1/2+z
1/2+y,1/2-x,1/2-z
1/2-x,1/2-y,1/2+z
1/2-y,1/2+x,1/2-z
1/2+y,1/2+x,1/2-z
1/2-y,1/2-x,1/2-z
1/2-x,1/2+y,1/2+z
1/2+x,1/2-y,1/2+z
loop_
_atom_site_type_symbol
_atom_site_label
_atom_site_fract_x
_atom_site_fract_y
_atom_site_fract_z
Si Si1 0.362764 0.564263 0.602866
Si Si2 0.360544 0.066773 0.340260
Si Si3 0.568591 0.262976 0.211821
Si Si4 0.431821 0.724735 0.897962
Si Si5 0.648213 0.931636 0.659512
Si Si6 0.933152 0.100917 0.347421
O O1 0.393788 0.606213 0.500000
O O2 0.357776 0.500000 0.547962
O O3 0.303297 0.585323 0.664228
O O4 0.436487 0.598544 0.262174
O O5 0.410047 0.089954 0.250000
O O6 0.301425 0.087546 0.277470
O O7 0.365078 0.080222 0.500174
O O8 0.358358 0.000000 0.333833
O O9 0.500000 0.265411 0.211851
O O10 0.586297 0.279841 0.057473
O O11 0.500000 0.725777 0.902170
O O12 0.416467 0.784795 0.830770
O O13 0.415459 0.666438 0.826882
O O14 0.606434 0.893567 0.750000
O O15 0.642183 0.000000 0.683569
O O16 0.917442 0.082559 0.500000
O O17 0.000000 0.096714 0.330647
#
# Coordination Sequence:
#
# PCOD9559458 Si02
#       6
#    16  16  16  16  16  16
#     4  11  22  35  49  71 107 143 171 213 273 325
#     4   9  18  33  54  79 105 136 174 214 254 303
#     4   8  15  32  53  70  95 135 177 208 245 304
#     4   8  15  31  52  73  97 130 175 214 244 294
#     4   9  18  33  53  78 109 140 168 207 261 315
#     4  11  20  31  51  77 100 130 174 220 264 316
#
# _framework density 17.402104000000001
#
# number of rings (size 3 to 8) (size 9 to 14) (size 15 to 20)
#    0.000    2.667    1.667    3.000    0.000    3.000 
#    3.000    1.667    0.000    1.000    0.000    0.000 
#    0.000    0.000    0.000    0.000    0.000    0.000 
#
# Total GULP energy -267202.727309 kJ/mol
# GULP energy per Si atom -5566.723486 kJ/mol
# Density = 1.736250 g / cm^3
# Si number density = 17.402104 Si / 1000 Ang^3
#
#
#
# Elastic Constant Matrix: (Units=GPa)
#
#
# Indices 1 2 3 4 5 6 
#
# 1 -67.2488 123.1207 36.9338 0.0000 0.0000 0.0000
# 2 123.1207 -67.1109 36.9201 0.0000 0.0000 0.0000
# 3 36.9338 36.9201 63.8042 0.0000 0.0000 0.0000
# 4 0.0000 0.0000 0.0000 26.6439 0.0000 0.0000
# 5 0.0000 0.0000 0.0000 0.0000 26.6442 0.0000
# 6 0.0000 0.0000 0.0000 0.0000 0.0000 -4.4638
#
#
#
# Elastic Compliance Matrix: (Units=1/GPa)
#
#
# Indices 1 2 3 4 5 6 
#
# 1 0.035228 0.040513 -0.043835 0.000000 0.000000 0.000000
# 2 0.040513 0.035289 -0.043872 0.000000 0.000000 0.000000
# 3 -0.043835 -0.043872 0.066434 0.000000 0.000000 0.000000
# 4 0.000000 0.000000 0.000000 0.037532 0.000000 0.000000
# 5 0.000000 0.000000 0.000000 0.000000 0.037532 0.000000
# 6 0.000000 0.000000 0.000000 0.000000 0.000000 -0.224027
#
#
# Mechanical properties :
#
#
# Convention : Reuss Voigt Hill
#
# Bulk Modulus (GPa) = 23.49403 35.93263 29.71333
# Shear Modulus (GPa) = 51.78013 -8.07048 21.85482
#
# Velocity S-wave (km/s) = 5.46074 -2.15586 3.54767
# Velocity P-wave (km/s) = 7.29997 3.80740 5.82177
#
# Compressibility (1/GPa) = 0.04256400
#
# Stress axis : x y z
#
# Youngs Moduli (GPa) = 28.38660 28.33736 15.05263
#
# Poissons Ratio (x) = -1.14804 0.65983
# Poissons Ratio (y) = -1.15004 0.66038
# Poissons Ratio (z) = 1.24433 1.24320
#
# Static dielectric constant tensor:
#      x y z
#    x 1.612210 0.000000 0.000000 
#    y 0.000000 1.612210 0.000000 
#    z 0.000000 0.000000 1.601180 
# 
# From -- ./inp_files/2707.got.cif
#   From: 2010.05.17/outbox.cif.g08.bks.cpg/sg119_2_cif.got.tgz:2707.got - 2010.05.20 11:21:29.
