data_PCOD9559065
_publ_section_title
;
Structure prediction by ZEFSAII (Michael W. Deem and Ramdas Pophale) SiO2 
 PCOD9559065
Probable space group: I -4 M 2
;
_chemical_formula_sum "Si O2"
_cell_formula_units_Z 96
_cell_length_a 31.529583
_cell_length_b 31.529583
_cell_length_c 5.505573
_cell_angle_alpha 90.000000
_cell_angle_beta 90.000000
_cell_angle_gamma 90.000000
_cell_volume 5473.170524
_symmetry_space_group_name_H-M "I -4 M 2"
_symmetry_group_IT_number 119
_symmetry_cell_setting 'tetragonal'
loop_
_space_group_symop_operation_xyz
x,y,z
y,-x,-z
-x,-y,z
-y,x,-z
y,x,-z
-y,-x,-z
-x,y,z
x,-y,z
1/2+x,1/2+y,1/2+z
1/2+y,1/2-x,1/2-z
1/2-x,1/2-y,1/2+z
1/2-y,1/2+x,1/2-z
1/2+y,1/2+x,1/2-z
1/2-y,1/2-x,1/2-z
1/2-x,1/2+y,1/2+z
1/2+x,1/2-y,1/2+z
loop_
_atom_site_type_symbol
_atom_site_label
_atom_site_fract_x
_atom_site_fract_y
_atom_site_fract_z
Si Si1 0.928688 0.500000 0.750000
Si Si2 0.388531 0.296240 0.250000
Si Si3 0.708504 0.690710 0.250000
Si Si4 0.684351 0.081711 0.750000
Si Si5 0.370536 0.805029 0.250000
Si Si6 0.720644 0.406852 0.250000
Si Si7 0.500000 0.124829 0.750000
O O1 0.958938 0.458938 0.750000
O O2 0.902103 0.500000 0.499691
O O3 0.902103 0.500000 0.000309
O O4 0.342576 0.317974 0.250000
O O5 0.377149 0.245599 0.250000
O O6 0.413155 0.303685 0.498945
O O7 0.413155 0.303685 0.001055
O O8 0.715207 0.715207 0.500000
O O9 0.730301 0.644695 0.250000
O O10 0.715207 0.715207 0.000000
O O11 0.678565 0.107584 0.498529
O O12 0.734441 0.069800 0.750000
O O13 0.654135 0.041554 0.750000
O O14 0.678565 0.107584 0.001471
O O15 0.322686 0.822686 0.250000
#
# Coordination Sequence:
#
# PCOD9559065 Si02
#       7
#     8  16  16  16  16  16   8
#     4  11  26  46  64  80  92 100 116 148 194 252
#     4   8  14  23  37  56  77 104 136 162 183 209
#     4   8  12  20  36  53  73 104 137 163 185 205
#     4  10  21  33  47  67  87 106 129 153 183 226
#     4  10  19  31  46  64  87 111 133 158 186 220
#     4   8  14  25  39  55  79 106 131 160 185 208
#     4  12  24  39  60  80  94 110 128 152 194 252
#
# _framework density 17.540109000000001
#
# number of rings (size 3 to 8) (size 9 to 14) (size 15 to 20)
#    0.000    2.750    0.000    2.000    0.000    4.667 
#    0.000    0.000    0.000   25.000    0.000    0.000 
#    0.000    0.000    0.000    0.000    0.000    0.000 
#
# Total GULP energy -267284.478875 kJ/mol
# GULP energy per Si atom -5568.426643 kJ/mol
# Density = 1.750019 g / cm^3
# Si number density = 17.540109 Si / 1000 Ang^3
#
#
#
# Elastic Constant Matrix: (Units=GPa)
#
#
# Indices 1 2 3 4 5 6 
#
# 1 33.6746 34.4885 22.1957 0.0000 0.0000 0.0000
# 2 34.4885 33.6746 22.1957 0.0000 0.0000 0.0000
# 3 22.1957 22.1957 200.8674 0.0000 0.0000 0.0000
# 4 0.0000 0.0000 0.0000 17.3908 0.0000 0.0000
# 5 0.0000 0.0000 0.0000 0.0000 17.3908 0.0000
# 6 0.0000 0.0000 0.0000 0.0000 0.0000 10.6801
#
#
#
# Elastic Compliance Matrix: (Units=1/GPa)
#
#
# Indices 1 2 3 4 5 6 
#
# 1 -0.606467 0.622275 -0.001747 0.000000 0.000000 0.000000
# 2 0.622275 -0.606467 -0.001747 0.000000 0.000000 0.000000
# 3 -0.001747 -0.001747 0.005364 0.000000 0.000000 0.000000
# 4 0.000000 0.000000 0.000000 0.057502 0.000000 0.000000
# 5 0.000000 0.000000 0.000000 0.000000 0.057502 0.000000
# 6 0.000000 0.000000 0.000000 0.000000 0.000000 0.093632
#
#
# Mechanical properties :
#
#
# Convention : Reuss Voigt Hill
#
# Bulk Modulus (GPa) = 33.34016 47.33068 40.33542
# Shear Modulus (GPa) = -2.24568 21.71481 9.73457
#
# Velocity S-wave (km/s) = -1.13274 3.52235 2.35838
# Velocity P-wave (km/s) = 4.16394 6.60193 5.51923
#
# Compressibility (1/GPa) = 0.02999385
#
# Stress axis : x y z
#
# Youngs Moduli (GPa) = -1.64889 -1.64889 186.41240
#
# Poissons Ratio (x) = 1.02607 0.32563
# Poissons Ratio (y) = 1.02607 0.32563
# Poissons Ratio (z) = -0.00288 -0.00288
#
# Static dielectric constant tensor:
#      x y z
#    x 1.581140 0.000000 0.000000 
#    y 0.000000 1.581140 0.000000 
#    z 0.000000 0.000000 1.738180 
# 
# From -- ./inp_files/1169.got.cif
#   From: 2010.05.17/outbox.cif.g08.bks.cpg/sg119_1_cif.got.tgz:1169.got - 2010.05.20 11:21:29.
