data_PCOD9559362
_publ_section_title
;
Structure prediction by ZEFSAII (Michael W. Deem and Ramdas Pophale) SiO2 
 PCOD9559362
Probable space group: I -4 M 2
;
_chemical_formula_sum "Si O2"
_cell_formula_units_Z 96
_cell_length_a 23.194881
_cell_length_b 23.194881
_cell_length_c 9.100852
_cell_angle_alpha 90.000000
_cell_angle_beta 90.000000
_cell_angle_gamma 90.000000
_cell_volume 4896.281170
_symmetry_space_group_name_H-M "I -4 M 2"
_symmetry_group_IT_number 119
_symmetry_cell_setting 'tetragonal'
loop_
_space_group_symop_operation_xyz
x,y,z
y,-x,-z
-x,-y,z
-y,x,-z
y,x,-z
-y,-x,-z
-x,y,z
x,-y,z
1/2+x,1/2+y,1/2+z
1/2+y,1/2-x,1/2-z
1/2-x,1/2-y,1/2+z
1/2-y,1/2+x,1/2-z
1/2+y,1/2+x,1/2-z
1/2-y,1/2-x,1/2-z
1/2-x,1/2+y,1/2+z
1/2+x,1/2-y,1/2+z
loop_
_atom_site_type_symbol
_atom_site_label
_atom_site_fract_x
_atom_site_fract_y
_atom_site_fract_z
Si Si1 0.872302 0.256720 0.371688
Si Si2 0.069364 0.156172 0.553970
Si Si3 0.066617 0.766438 0.821560
Si Si4 0.736762 0.829499 0.953707
Si Si5 0.560523 0.140229 0.836730
Si Si6 0.937746 0.354050 0.676683
O O1 0.892002 0.201493 0.460740
O O2 0.844048 0.246281 0.213758
O O3 0.827764 0.301091 0.453836
O O4 0.929952 0.291996 0.333535
O O5 0.094978 0.094978 0.500000
O O6 0.078531 0.176122 0.724759
O O7 0.000000 0.160955 0.528970
O O8 0.066970 0.714139 0.702514
O O9 0.000000 0.769124 0.878413
O O10 0.114744 0.748681 0.942354
O O11 0.778457 0.778457 0.000000
O O12 0.500000 0.121897 0.770581
O O13 0.611409 0.111409 0.750000
O O14 0.561551 0.126986 0.008300
O O15 0.885169 0.385169 0.750000
O O16 0.000000 0.371145 0.742645
#
# Coordination Sequence:
#
# PCOD9559362 Si02
#       6
#    16  16  16  16  16  16
#     4  11  22  40  58  90 122 161 196 244 305 362
#     4  11  23  41  65  90 120 158 199 248 310 372
#     4  10  22  39  60  88 119 157 198 245 302 358
#     4  11  23  38  59  90 123 156 201 245 298 361
#     4  11  22  39  57  81 116 154 202 245 289 345
#     4  10  21  37  57  81 112 152 200 247 289 337
#
# _framework density 19.606717
#
# number of rings (size 3 to 8) (size 9 to 14) (size 15 to 20)
#    0.000    1.333    3.333    3.000    0.000    3.833 
#    0.000    1.667    0.000    0.000    0.000    0.000 
#    0.000    4.000    0.000    0.000    0.000    0.000 
#
# Total GULP energy -267510.250095 kJ/mol
# GULP energy per Si atom -5573.130210 kJ/mol
# Density = 1.956209 g / cm^3
# Si number density = 19.606717 Si / 1000 Ang^3
#
#
#
# Elastic Constant Matrix: (Units=GPa)
#
#
# Indices 1 2 3 4 5 6 
#
# 1 88.4982 38.2409 32.8676 0.0000 0.0000 0.0000
# 2 38.2409 88.4982 32.8676 0.0000 0.0000 0.0000
# 3 32.8676 32.8676 69.0246 0.0000 0.0000 0.0000
# 4 0.0000 0.0000 0.0000 -26.5898 0.0000 0.0000
# 5 0.0000 0.0000 0.0000 0.0000 -26.5898 0.0000
# 6 0.0000 0.0000 0.0000 0.0000 0.0000 13.0826
#
#
#
# Elastic Compliance Matrix: (Units=1/GPa)
#
#
# Indices 1 2 3 4 5 6 
#
# 1 0.015188 -0.004710 -0.004989 0.000000 0.000000 0.000000
# 2 -0.004710 0.015188 -0.004989 0.000000 0.000000 0.000000
# 3 -0.004989 -0.004989 0.019239 0.000000 0.000000 0.000000
# 4 0.000000 0.000000 0.000000 -0.037608 0.000000 0.000000
# 5 0.000000 0.000000 0.000000 0.000000 -0.037608 0.000000
# 6 0.000000 0.000000 0.000000 0.000000 0.000000 0.076437
#
#
# Mechanical properties :
#
#
# Convention : Reuss Voigt Hill
#
# Bulk Modulus (GPa) = 49.41242 50.44149 49.92695
# Shear Modulus (GPa) = 57.49888 1.45025 29.47457
#
# Velocity S-wave (km/s) = 5.42123 0.86097 3.88143
# Velocity P-wave (km/s) = 8.02763 5.17406 6.75329
#
# Compressibility (1/GPa) = 0.02023783
#
# Stress axis : x y z
#
# Youngs Moduli (GPa) = 65.84220 65.84220 51.97730
#
# Poissons Ratio (x) = 0.31010 0.25933
# Poissons Ratio (y) = 0.31010 0.25933
# Poissons Ratio (z) = 0.32851 0.32851
#
# Static dielectric constant tensor:
#      x y z
#    x 1.789360 0.000000 0.000000 
#    y 0.000000 1.789360 0.000000 
#    z 0.000000 0.000000 1.832270 
# 
# From -- ./inp_files/2729.got.cif
#   From: 2010.05.17/outbox.cif.g08.bks.cpg/sg119_2_cif.got.tgz:2729.got - 2010.05.20 11:21:29.
