data_PCOD9559726
_publ_section_title
;
Structure prediction by ZEFSAII (Michael W. Deem and Ramdas Pophale) SiO2 
 PCOD9559726
Probable space group: I -4 C 2
;
_chemical_formula_sum "Si O2"
_cell_formula_units_Z 96
_cell_length_a 23.305973
_cell_length_b 23.305973
_cell_length_c 8.733064
_cell_angle_alpha 90.000000
_cell_angle_beta 90.000000
_cell_angle_gamma 90.000000
_cell_volume 4743.524203
_symmetry_space_group_name_H-M "I -4 C 2"
_symmetry_group_IT_number 120
_symmetry_cell_setting 'tetragonal'
loop_
_space_group_symop_operation_xyz
x,y,z
y,-x,-z
-x,-y,z
-y,x,-z
y,x,1/2-z
-y,-x,1/2-z
-x,y,1/2+z
x,-y,1/2+z
1/2+x,1/2+y,1/2+z
1/2+y,1/2-x,1/2-z
1/2-x,1/2-y,1/2+z
1/2-y,1/2+x,1/2-z
1/2+y,1/2+x,-z
1/2-y,1/2-x,-z
1/2-x,1/2+y,z
1/2+x,1/2-y,z
loop_
_atom_site_type_symbol
_atom_site_label
_atom_site_fract_x
_atom_site_fract_y
_atom_site_fract_z
Si Si1 0.212470 0.199499 0.067818
Si Si2 0.618009 0.042353 0.583069
Si Si3 0.703842 0.580246 0.963874
Si Si4 0.268917 0.920959 0.479979
Si Si5 0.002108 0.211152 0.777247
Si Si6 0.156464 0.427370 0.932449
O O1 0.208332 0.208332 0.250000
O O2 0.146826 0.193432 0.016637
O O3 0.246652 0.253349 0.000000
O O4 0.245033 0.141653 0.016750
O O5 0.558323 0.058323 0.500000
O O6 0.663173 0.077455 0.477008
O O7 0.631319 0.058967 0.760903
O O8 0.632945 0.976430 0.546755
O O9 0.678450 0.546347 0.818555
O O10 0.773790 0.573577 0.941284
O O11 0.680435 0.543921 0.105479
O O12 0.243341 0.953254 0.333711
O O13 0.252442 0.963402 0.618552
O O14 0.131847 0.368154 0.000000
#
# Coordination Sequence:
#
# PCOD9559726 Si02
#       6
#    16  16  16  16  16  16
#     4  12  26  40  58  94 138 171 203 262 328 393
#     4  12  23  38  58  80 108 151 196 247 298 350
#     4  11  21  40  62  87 122 161 211 245 305 367
#     4  11  21  40  62  87 122 161 211 245 305 367
#     4  10  20  38  66  84 113 165 208 256 284 362
#     4  12  23  38  58  80 108 151 196 247 298 350
#
# _framework density 20.238116000000002
#
# number of rings (size 3 to 8) (size 9 to 14) (size 15 to 20)
#    0.000    0.667    6.667    2.000    4.667    0.333 
#    0.000    1.667    0.000    0.000    0.000    0.000 
#    0.000   46.667    0.000    0.000    0.000    0.000 
#
# Total GULP energy -267676.851666 kJ/mol
# GULP energy per Si atom -5576.601076 kJ/mol
# Density = 2.019205 g / cm^3
# Si number density = 20.238116 Si / 1000 Ang^3
#
#
#
# Elastic Constant Matrix: (Units=GPa)
#
#
# Indices 1 2 3 4 5 6 
#
# 1 69.6628 16.0164 -1.4515 0.0000 0.0000 0.0000
# 2 16.0164 69.6585 -1.4489 0.0000 0.0000 0.0000
# 3 -1.4515 -1.4489 67.5595 0.0000 0.0000 0.0000
# 4 0.0000 0.0000 0.0000 -9.0210 0.0000 0.0000
# 5 0.0000 0.0000 0.0000 0.0000 -9.0049 0.0000
# 6 0.0000 0.0000 0.0000 0.0000 0.0000 29.9388
#
#
#
# Elastic Compliance Matrix: (Units=1/GPa)
#
#
# Indices 1 2 3 4 5 6 
#
# 1 0.015160 -0.003481 0.000251 0.000000 0.000000 0.000000
# 2 -0.003481 0.015161 0.000250 0.000000 0.000000 0.000000
# 3 0.000251 0.000250 0.014813 0.000000 0.000000 0.000000
# 4 0.000000 0.000000 0.000000 -0.110853 0.000000 0.000000
# 5 0.000000 0.000000 0.000000 0.000000 -0.111050 0.000000
# 6 0.000000 0.000000 0.000000 0.000000 0.000000 0.033401
#
#
# Mechanical properties :
#
#
# Convention : Reuss Voigt Hill
#
# Bulk Modulus (GPa) = 25.52590 25.90141 25.71366
# Shear Modulus (GPa) = -40.20897 15.30023 -12.45437
#
# Velocity S-wave (km/s) = -4.46218 2.75255 -2.48340
# Velocity P-wave (km/s) = 3.72933 4.78833 2.12370
#
# Compressibility (1/GPa) = 0.03917589
#
# Stress axis : x y z
#
# Youngs Moduli (GPa) = 65.96163 65.95769 67.51037
#
# Poissons Ratio (x) = 0.22957 -0.01695
# Poissons Ratio (y) = 0.22958 -0.01690
# Poissons Ratio (z) = -0.01656 -0.01651
#
# Static dielectric constant tensor:
#      x y z
#    x 1.735970 0.000000 0.000000 
#    y 0.000000 1.735970 0.000000 
#    z 0.000000 0.000000 1.822750 
# 
# From -- ./inp_files/1554.got.cif
#   From: 2010.05.17/outbox.cif.g08.bks.cpg/sg120_1_cif.got.tgz:1554.got - 2010.05.20 11:28:13.
