data_PCOD9559434
_publ_section_title
;
Structure prediction by ZEFSAII (Michael W. Deem and Ramdas Pophale) SiO2 
 PCOD9559434
Probable space group: I -4 M 2
;
_chemical_formula_sum "Si O2"
_cell_formula_units_Z 48
_cell_length_a 7.383012
_cell_length_b 7.383012
_cell_length_c 40.573994
_cell_angle_alpha 90.000000
_cell_angle_beta 90.000000
_cell_angle_gamma 90.000000
_cell_volume 2211.642410
_symmetry_space_group_name_H-M "I -4 M 2"
_symmetry_group_IT_number 119
_symmetry_cell_setting 'tetragonal'
loop_
_space_group_symop_operation_xyz
x,y,z
y,-x,-z
-x,-y,z
-y,x,-z
y,x,-z
-y,-x,-z
-x,y,z
x,-y,z
1/2+x,1/2+y,1/2+z
1/2+y,1/2-x,1/2-z
1/2-x,1/2-y,1/2+z
1/2-y,1/2+x,1/2-z
1/2+y,1/2+x,1/2-z
1/2-y,1/2-x,1/2-z
1/2-x,1/2+y,1/2+z
1/2+x,1/2-y,1/2+z
loop_
_atom_site_type_symbol
_atom_site_label
_atom_site_fract_x
_atom_site_fract_y
_atom_site_fract_z
Si Si1 0.500000 0.279991 0.157620
Si Si2 0.217619 0.791548 0.964967
Si Si3 0.500000 0.720523 0.235059
Si Si4 0.204137 0.284569 0.107276
O O1 0.500000 0.500000 0.155948
O O2 0.500000 0.237623 0.195973
O O3 0.327045 0.215235 0.136840
O O4 0.256782 0.712538 0.929156
O O5 0.000000 0.794523 0.968131
O O6 0.283450 0.000000 0.962695
O O7 0.284689 0.715312 0.000000
O O8 0.500000 0.500000 0.239822
O O9 0.676431 0.823570 0.250000
O O10 0.191381 0.500000 0.111409
O O11 0.000000 0.209498 0.107678
#
# Coordination Sequence:
#
# PCOD9559434 Si02
#       4
#     8  16   8  16
#     4   9  19  37  59  82 117 153 194 253 305 376
#     4   8  14  27  45  65  96 137 183 238 291 345
#     4  10  23  45  70 101 139 176 219 273 342 409
#     4   9  17  31  51  75 105 143 189 240 298 356
#
# _framework density 21.703325
#
# number of rings (size 3 to 8) (size 9 to 14) (size 15 to 20)
#    0.000    3.167    0.000    1.000    0.000    1.667 
#    9.000    3.333    0.000    0.000    0.000    0.000 
#    0.000    0.000    0.000    0.000    0.000    0.000 
#
# Total GULP energy -133760.795546 kJ/mol
# GULP energy per Si atom -5573.366481 kJ/mol
# Density = 2.165393 g / cm^3
# Si number density = 21.703325 Si / 1000 Ang^3
#
#
#
# Elastic Constant Matrix: (Units=GPa)
#
#
# Indices 1 2 3 4 5 6 
#
# 1 114.8065 26.1657 59.3072 0.0000 0.0000 0.0000
# 2 26.1657 114.8068 59.3070 0.0000 0.0000 0.0000
# 3 59.3072 59.3070 238.0385 0.0000 0.0000 0.0000
# 4 0.0000 0.0000 0.0000 31.6937 0.0000 0.0000
# 5 0.0000 0.0000 0.0000 0.0000 31.6937 0.0000
# 6 0.0000 0.0000 0.0000 0.0000 0.0000 2.1499
#
#
#
# Elastic Compliance Matrix: (Units=1/GPa)
#
#
# Indices 1 2 3 4 5 6 
#
# 1 0.010128 -0.001153 -0.002236 0.000000 0.000000 0.000000
# 2 -0.001153 0.010128 -0.002236 0.000000 0.000000 0.000000
# 3 -0.002236 -0.002236 0.005315 0.000000 0.000000 0.000000
# 4 0.000000 0.000000 0.000000 0.031552 0.000000 0.000000
# 5 0.000000 0.000000 0.000000 0.000000 0.031552 0.000000
# 6 0.000000 0.000000 0.000000 0.000000 0.000000 0.465147
#
#
# Mechanical properties :
#
#
# Convention : Reuss Voigt Hill
#
# Bulk Modulus (GPa) = 69.82812 84.13462 76.98137
# Shear Modulus (GPa) = 8.77428 34.63223 21.70326
#
# Velocity S-wave (km/s) = 2.01286 3.99897 3.16570
# Velocity P-wave (km/s) = 6.13563 7.75708 6.99350
#
# Compressibility (1/GPa) = 0.01432088
#
# Stress axis : x y z
#
# Youngs Moduli (GPa) = 98.73332 98.73375 188.13742
#
# Poissons Ratio (x) = 0.11386 0.42070
# Poissons Ratio (y) = 0.11386 0.42070
# Poissons Ratio (z) = 0.22078 0.22078
#
# Static dielectric constant tensor:
#      x y z
#    x 1.828690 0.000000 0.000000 
#    y 0.000000 1.828690 0.000000 
#    z 0.000000 0.000000 1.788040 
# 
# From -- ./inp_files/9892.got.cif
#   From: 2010.05.17/outbox.cif.g08.bks.cpg/sg119_5_cif.got.tgz:9892.got - 2010.05.20 11:21:29.
