data_PCOD9559121
_publ_section_title
;
Structure prediction by ZEFSAII (Michael W. Deem and Ramdas Pophale) SiO2 
 PCOD9559121
Probable space group: I -4 M 2
;
_chemical_formula_sum "Si O2"
_cell_formula_units_Z 128
_cell_length_a 18.212472
_cell_length_b 18.212472
_cell_length_c 21.158163
_cell_angle_alpha 90.000000
_cell_angle_beta 90.000000
_cell_angle_gamma 90.000000
_cell_volume 7018.038603
_symmetry_space_group_name_H-M "I -4 M 2"
_symmetry_group_IT_number 119
_symmetry_cell_setting 'tetragonal'
loop_
_space_group_symop_operation_xyz
x,y,z
y,-x,-z
-x,-y,z
-y,x,-z
y,x,-z
-y,-x,-z
-x,y,z
x,-y,z
1/2+x,1/2+y,1/2+z
1/2+y,1/2-x,1/2-z
1/2-x,1/2-y,1/2+z
1/2-y,1/2+x,1/2-z
1/2+y,1/2+x,1/2-z
1/2-y,1/2-x,1/2-z
1/2-x,1/2+y,1/2+z
1/2+x,1/2-y,1/2+z
loop_
_atom_site_type_symbol
_atom_site_label
_atom_site_fract_x
_atom_site_fract_y
_atom_site_fract_z
Si Si1 0.586241 0.735587 0.751986
Si Si2 0.588326 0.579492 0.690201
Si Si3 0.211647 0.637458 0.379981
Si Si4 0.148755 0.083779 0.941180
Si Si5 0.713687 0.085221 0.541462
Si Si6 0.613894 0.419568 0.071281
Si Si7 0.081829 0.757456 0.604028
Si Si8 0.733677 0.277008 0.818708
O O1 0.500000 0.741374 0.769347
O O2 0.604261 0.652136 0.730073
O O3 0.602650 0.788707 0.691467
O O4 0.647131 0.743908 0.806148
O O5 0.500000 0.575685 0.691809
O O6 0.617846 0.500000 0.710525
O O7 0.607427 0.598642 0.618123
O O8 0.267271 0.586847 0.418560
O O9 0.140116 0.659809 0.420762
O O10 0.254962 0.713940 0.367901
O O11 0.128842 0.000000 0.957465
O O12 0.135007 0.135007 0.000000
O O13 0.797961 0.089826 0.566487
O O14 0.725497 0.100034 0.466075
O O15 0.690788 0.000000 0.548511
O O16 0.597969 0.500000 0.099505
O O17 0.582226 0.346665 0.101754
O O18 0.583389 0.416612 0.000000
O O19 0.145966 0.743620 0.653055
O O20 0.000000 0.732435 0.620424
O O21 0.767387 0.267387 0.750000
#
# Coordination Sequence:
#
# PCOD9559121 Si02
#       8
#    16  16  16  16  16  16  16  16
#     4   9  19  34  50  73 101 136 184 227 263 310
#     4   8  14  27  45  64  95 135 165 195 240 295
#     4  10  19  33  54  74 104 139 177 222 264 319
#     4  10  20  30  48  79 107 136 167 201 249 311
#     4   9  18  31  51  78 104 138 177 217 272 323
#     4   9  16  26  41  66 104 141 169 198 241 310
#     4  10  20  32  48  74 107 135 172 223 264 314
#     4  10  21  34  49  71  99 143 182 220 265 302
#
# _framework density 18.238714999999999
#
# number of rings (size 3 to 8) (size 9 to 14) (size 15 to 20)
#    0.000    2.625    1.250    2.625    1.750    3.000 
#    0.000    0.000    0.000    1.500    0.000    0.000 
#    0.000    0.250    0.000    0.000    0.000    0.000 
#
# Total GULP energy -356294.186178 kJ/mol
# GULP energy per Si atom -5567.096659 kJ/mol
# Density = 1.819720 g / cm^3
# Si number density = 18.238715 Si / 1000 Ang^3
#
#
#
# Elastic Constant Matrix: (Units=GPa)
#
#
# Indices 1 2 3 4 5 6 
#
# 1 66.0959 16.2064 23.5816 0.0000 0.0000 0.0000
# 2 16.2064 66.0958 23.5816 0.0000 0.0000 0.0000
# 3 23.5816 23.5816 57.0035 0.0000 0.0000 0.0000
# 4 0.0000 0.0000 0.0000 16.6159 0.0000 0.0000
# 5 0.0000 0.0000 0.0000 0.0000 16.6158 0.0000
# 6 0.0000 0.0000 0.0000 0.0000 0.0000 23.0130
#
#
#
# Elastic Compliance Matrix: (Units=1/GPa)
#
#
# Indices 1 2 3 4 5 6 
#
# 1 0.017985 -0.002059 -0.006588 0.000000 0.000000 0.000000
# 2 -0.002059 0.017985 -0.006588 0.000000 0.000000 0.000000
# 3 -0.006588 -0.006588 0.022994 0.000000 0.000000 0.000000
# 4 0.000000 0.000000 0.000000 0.060183 0.000000 0.000000
# 5 0.000000 0.000000 0.000000 0.000000 0.060184 0.000000
# 6 0.000000 0.000000 0.000000 0.000000 0.000000 0.043454
#
#
# Mechanical properties :
#
#
# Convention : Reuss Voigt Hill
#
# Bulk Modulus (GPa) = 35.09739 35.10381 35.10060
# Shear Modulus (GPa) = 19.02922 19.63729 19.33326
#
# Velocity S-wave (km/s) = 3.23358 3.28484 3.25931
# Velocity P-wave (km/s) = 5.76425 5.80307 5.78369
#
# Compressibility (1/GPa) = 0.02849215
#
# Stress axis : x y z
#
# Youngs Moduli (GPa) = 55.60182 55.60181 43.49004
#
# Poissons Ratio (x) = 0.11450 0.28652
# Poissons Ratio (y) = 0.11450 0.28652
# Poissons Ratio (z) = 0.36632 0.36632
#
# Static dielectric constant tensor:
#      x y z
#    x 1.668770 0.000000 0.000000 
#    y 0.000000 1.668770 0.000000 
#    z 0.000000 0.000000 1.678710 
# 
# From -- ./inp_files/9024.got.cif
#   From: 2010.05.17/outbox.cif.g08.bks.cpg/sg119_5_cif.got.tgz:9024.got - 2010.05.20 11:21:29.
