data_PCOD9559044
_publ_section_title
;
Structure prediction by ZEFSAII (Michael W. Deem and Ramdas Pophale) SiO2 
 PCOD9559044
Probable space group: I -4 M 2
;
_chemical_formula_sum "Si O2"
_cell_formula_units_Z 84
_cell_length_a 11.762458
_cell_length_b 11.762458
_cell_length_c 29.606893
_cell_angle_alpha 90.000000
_cell_angle_beta 90.000000
_cell_angle_gamma 90.000000
_cell_volume 4096.274063
_symmetry_space_group_name_H-M "I -4 M 2"
_symmetry_group_IT_number 119
_symmetry_cell_setting 'tetragonal'
loop_
_space_group_symop_operation_xyz
x,y,z
y,-x,-z
-x,-y,z
-y,x,-z
y,x,-z
-y,-x,-z
-x,y,z
x,-y,z
1/2+x,1/2+y,1/2+z
1/2+y,1/2-x,1/2-z
1/2-x,1/2-y,1/2+z
1/2-y,1/2+x,1/2-z
1/2+y,1/2+x,1/2-z
1/2-y,1/2-x,1/2-z
1/2-x,1/2+y,1/2+z
1/2+x,1/2-y,1/2+z
loop_
_atom_site_type_symbol
_atom_site_label
_atom_site_fract_x
_atom_site_fract_y
_atom_site_fract_z
Si Si1 0.233069 0.133035 0.787075
Si Si2 0.500000 0.366539 0.137888
Si Si3 0.249935 0.500000 0.693866
Si Si4 0.363958 0.750553 0.864074
Si Si5 0.000000 0.500000 0.836173
Si Si6 0.500000 0.166329 0.079945
Si Si7 0.297859 0.243199 0.448898
Si Si8 0.868111 0.000000 0.096341
O O1 0.318416 0.181585 0.750000
O O2 0.294556 0.159740 0.834561
O O3 0.113918 0.199159 0.784952
O O4 0.212714 0.000000 0.781359
O O5 0.500000 0.500000 0.130339
O O6 0.375477 0.340745 0.158108
O O7 0.500000 0.300007 0.090797
O O8 0.291890 0.500000 0.641547
O O9 0.114186 0.500000 0.692531
O O10 0.500000 0.768914 0.864758
O O11 0.307239 0.748752 0.913609
O O12 0.106028 0.500000 0.871094
O O13 0.618866 0.143361 0.056162
O O14 0.261776 0.261776 0.500000
O O15 0.389429 0.335060 0.432333
O O16 0.000000 0.000000 0.109272
#
# Coordination Sequence:
#
# PCOD9559044 Si02
#       8
#    16   8   8  16   4   8  16   8
#     4  12  27  47  71 101 137 182 227 284 356 433
#     4   8  16  33  59  87 121 164 213 267 328 387
#     4  12  24  46  76 105 137 177 234 293 362 426
#     4  10  21  40  65  94 132 176 226 280 340 414
#     4  12  20  42  75 102 134 188 220 284 369 414
#     4  10  18  38  58  87 134 174 224 277 342 406
#     4  11  24  38  64  97 130 182 231 286 346 410
#     4  12  24  44  66  92 137 183 229 287 346 422
#
# _framework density 20.506440000000001
#
# number of rings (size 3 to 8) (size 9 to 14) (size 15 to 20)
#    0.000    1.143    3.810    2.571    2.667    2.857 
#    0.000    1.905    0.000    0.000    0.000    0.000 
#    0.000    0.000    0.000    0.000    0.000    0.000 
#
# Total GULP energy -234594.956805 kJ/mol
# GULP energy per Si atom -5585.594210 kJ/mol
# Density = 2.045977 g / cm^3
# Si number density = 20.506440 Si / 1000 Ang^3
#
#
#
# Elastic Constant Matrix: (Units=GPa)
#
#
# Indices 1 2 3 4 5 6 
#
# 1 125.5136 40.3850 13.6336 0.0000 0.0000 0.0000
# 2 40.3850 125.5149 13.6348 0.0000 0.0000 0.0000
# 3 13.6336 13.6348 57.4227 0.0000 0.0000 0.0000
# 4 0.0000 0.0000 0.0000 15.7299 0.0000 0.0000
# 5 0.0000 0.0000 0.0000 0.0000 15.7311 0.0000
# 6 0.0000 0.0000 0.0000 0.0000 0.0000 22.6984
#
#
#
# Elastic Compliance Matrix: (Units=1/GPa)
#
#
# Indices 1 2 3 4 5 6 
#
# 1 0.009010 -0.002737 -0.001489 0.000000 0.000000 0.000000
# 2 -0.002737 0.009010 -0.001489 0.000000 0.000000 0.000000
# 3 -0.001489 -0.001489 0.018122 0.000000 0.000000 0.000000
# 4 0.000000 0.000000 0.000000 0.063573 0.000000 0.000000
# 5 0.000000 0.000000 0.000000 0.000000 0.063568 0.000000
# 6 0.000000 0.000000 0.000000 0.000000 0.000000 0.044056
#
#
# Mechanical properties :
#
#
# Convention : Reuss Voigt Hill
#
# Bulk Modulus (GPa) = 40.46987 49.30644 44.88815
# Shear Modulus (GPa) = 22.02576 26.88507 24.45542
#
# Velocity S-wave (km/s) = 3.28089 3.62478 3.45711
# Velocity P-wave (km/s) = 5.84212 6.45099 6.15409
#
# Compressibility (1/GPa) = 0.02470974
#
# Stress axis : x y z
#
# Youngs Moduli (GPa) = 110.99117 110.99184 55.18170
#
# Poissons Ratio (x) = 0.30380 0.08218
# Poissons Ratio (y) = 0.30380 0.08219
# Poissons Ratio (z) = 0.16529 0.16532
#
# Static dielectric constant tensor:
#      x y z
#    x 1.756290 0.000000 0.000000 
#    y 0.000000 1.756290 0.000000 
#    z 0.000000 0.000000 1.723160 
# 
# From -- ./inp_files/10313.got.cif
#   From: 2010.05.17/outbox.cif.g08.bks.cpg/sg119_6_cif.got.tgz:10313.got - 2010.05.20 11:21:29.
