data_PCOD9559556
_publ_section_title
;
Structure prediction by ZEFSAII (Michael W. Deem and Ramdas Pophale) SiO2 
 PCOD9559556
Probable space group: I -4 C 2
;
_chemical_formula_sum "Si O2"
_cell_formula_units_Z 120
_cell_length_a 27.782248
_cell_length_b 27.782248
_cell_length_c 9.236301
_cell_angle_alpha 90.000000
_cell_angle_beta 90.000000
_cell_angle_gamma 90.000000
_cell_volume 7129.069443
_symmetry_space_group_name_H-M "I -4 C 2"
_symmetry_group_IT_number 120
_symmetry_cell_setting 'tetragonal'
loop_
_space_group_symop_operation_xyz
x,y,z
y,-x,-z
-x,-y,z
-y,x,-z
y,x,1/2-z
-y,-x,1/2-z
-x,y,1/2+z
x,-y,1/2+z
1/2+x,1/2+y,1/2+z
1/2+y,1/2-x,1/2-z
1/2-x,1/2-y,1/2+z
1/2-y,1/2+x,1/2-z
1/2+y,1/2+x,-z
1/2-y,1/2-x,-z
1/2-x,1/2+y,z
1/2+x,1/2-y,z
loop_
_atom_site_type_symbol
_atom_site_label
_atom_site_fract_x
_atom_site_fract_y
_atom_site_fract_z
Si Si1 0.251739 0.183279 0.825676
Si Si2 0.673982 0.676857 0.911713
Si Si3 0.483945 0.309245 0.212931
Si Si4 0.817267 0.063778 0.579391
Si Si5 0.768664 0.899766 0.592410
Si Si6 0.790049 0.468660 0.405214
Si Si7 0.661372 0.838629 0.000000
Si Si8 0.300752 0.058884 0.090220
O O1 0.230585 0.230585 0.750000
O O2 0.242209 0.137902 0.720680
O O3 0.307275 0.181230 0.865835
O O4 0.219995 0.178684 0.972002
O O5 0.689884 0.689884 0.750000
O O6 0.617606 0.665236 0.903305
O O7 0.702553 0.631126 0.973961
O O8 0.528192 0.333910 0.293933
O O9 0.443691 0.297242 0.333244
O O10 0.506820 0.259545 0.152391
O O11 0.458344 0.332095 0.074924
O O12 0.757952 0.065516 0.582719
O O13 0.724051 0.925188 0.512247
O O14 0.813549 0.511606 0.496866
O O15 0.813979 0.449931 0.258099
O O16 0.606112 0.825592 0.973951
#
# Coordination Sequence:
#
# PCOD9559556 Si02
#       8
#    16  16  16  16  16  16   8  16
#     4  10  23  38  49  70 112 162 195 229 262 318
#     4  11  21  31  51  74 106 144 198 236 266 323
#     4  10  16  27  49  72  96 132 177 226 283 326
#     4  10  18  31  47  72 101 140 178 230 280 323
#     4  11  19  33  54  76 103 145 192 230 272 325
#     4  10  18  34  56  81 100 141 183 232 296 313
#     4  12  22  38  56  78 114 153 204 224 272 331
#     4  10  20  33  58  77 107 143 185 235 276 332
#
# _framework density 16.832491000000001
#
# number of rings (size 3 to 8) (size 9 to 14) (size 15 to 20)
#    0.000    1.600    6.667    2.400    0.000    0.533 
#    2.400    0.000    0.000    0.000    0.000    0.000 
#    0.000    2.133    4.800    0.000    0.000    0.000 
#
# Total GULP energy -334552.255924 kJ/mol
# GULP energy per Si atom -5575.870932 kJ/mol
# Density = 1.679418 g / cm^3
# Si number density = 16.832491 Si / 1000 Ang^3
#
#
#
# Elastic Constant Matrix: (Units=GPa)
#
#
# Indices 1 2 3 4 5 6 
#
# 1 43.6316 38.5764 34.5662 0.0000 0.0000 0.0000
# 2 38.5764 43.6311 34.5654 0.0000 0.0000 0.0000
# 3 34.5662 34.5654 122.4975 0.0000 0.0000 0.0000
# 4 0.0000 0.0000 0.0000 11.2282 0.0000 0.0000
# 5 0.0000 0.0000 0.0000 0.0000 11.2284 0.0000
# 6 0.0000 0.0000 0.0000 0.0000 0.0000 12.5192
#
#
#
# Elastic Compliance Matrix: (Units=1/GPa)
#
#
# Indices 1 2 3 4 5 6 
#
# 1 0.106887 -0.090938 -0.004501 0.000000 0.000000 0.000000
# 2 -0.090938 0.106887 -0.004500 0.000000 0.000000 0.000000
# 3 -0.004501 -0.004500 0.010703 0.000000 0.000000 0.000000
# 4 0.000000 0.000000 0.000000 0.089062 0.000000 0.000000
# 5 0.000000 0.000000 0.000000 0.000000 0.089060 0.000000
# 6 0.000000 0.000000 0.000000 0.000000 0.000000 0.079878
#
#
# Mechanical properties :
#
#
# Convention : Reuss Voigt Hill
#
# Bulk Modulus (GPa) = 40.65139 47.24180 43.94659
# Shear Modulus (GPa) = 7.24058 13.79864 10.51961
#
# Velocity S-wave (km/s) = 2.07627 2.86625 2.50263
# Velocity P-wave (km/s) = 5.47273 6.25145 5.87501
#
# Compressibility (1/GPa) = 0.02459941
#
# Stress axis : x y z
#
# Youngs Moduli (GPa) = 9.35570 9.35570 93.42986
#
# Poissons Ratio (x) = 0.85079 0.42053
# Poissons Ratio (y) = 0.85079 0.42041
# Poissons Ratio (z) = 0.04211 0.04210
#
# Static dielectric constant tensor:
#      x y z
#    x 1.561320 0.000000 0.000000 
#    y 0.000000 1.561320 0.000000 
#    z 0.000000 0.000000 1.633730 
# 
# From -- ./inp_files/1726.got.cif
#   From: 2010.05.17/outbox.cif.g08.bks.cpg/sg120_1_cif.got.tgz:1726.got - 2010.05.20 11:28:13.
