data_PCOD9559609
_publ_section_title
;
Structure prediction by ZEFSAII (Michael W. Deem and Ramdas Pophale) SiO2 
 PCOD9559609
Probable space group: I -4 C 2
;
_chemical_formula_sum "Si O2"
_cell_formula_units_Z 96
_cell_length_a 14.170495
_cell_length_b 14.170495
_cell_length_c 25.511643
_cell_angle_alpha 90.000000
_cell_angle_beta 90.000000
_cell_angle_gamma 90.000000
_cell_volume 5122.812626
_symmetry_space_group_name_H-M "I -4 C 2"
_symmetry_group_IT_number 120
_symmetry_cell_setting 'tetragonal'
loop_
_space_group_symop_operation_xyz
x,y,z
y,-x,-z
-x,-y,z
-y,x,-z
y,x,1/2-z
-y,-x,1/2-z
-x,y,1/2+z
x,-y,1/2+z
1/2+x,1/2+y,1/2+z
1/2+y,1/2-x,1/2-z
1/2-x,1/2-y,1/2+z
1/2-y,1/2+x,1/2-z
1/2+y,1/2+x,-z
1/2-y,1/2-x,-z
1/2-x,1/2+y,z
1/2+x,1/2-y,z
loop_
_atom_site_type_symbol
_atom_site_label
_atom_site_fract_x
_atom_site_fract_y
_atom_site_fract_z
Si Si1 0.268099 0.837894 0.943451
Si Si2 0.235388 0.438921 0.111629
Si Si3 0.745914 0.140614 0.639161
Si Si4 0.845963 0.970590 0.503901
Si Si5 0.141909 0.811900 0.189913
Si Si6 0.095537 0.050935 0.310920
O O1 0.360471 0.839247 0.907048
O O2 0.194908 0.767849 0.915108
O O3 0.296609 0.796609 0.000000
O O4 0.221684 0.938026 0.956752
O O5 0.199493 0.538281 0.133082
O O6 0.293805 0.465709 0.059350
O O7 0.303681 0.387732 0.153271
O O8 0.684090 0.211028 0.674001
O O9 0.851068 0.121837 0.662035
O O10 0.929213 0.893395 0.505160
O O11 0.164995 0.835006 0.250000
O O12 0.029689 0.825343 0.183549
O O13 0.074747 0.074747 0.250000
O O14 0.000000 0.000000 0.331811
#
# Coordination Sequence:
#
# PCOD9559609 Si02
#       6
#    16  16  16  16  16  16
#     4   9  20  35  49  81 119 156 191 253 307 366
#     4  10  20  35  55  84 121 155 204 251 309 372
#     4  11  21  35  59  86 119 159 202 254 311 379
#     4  10  19  30  54  88 120 156 202 256 314 368
#     4  11  22  36  57  90 124 160 202 255 320 368
#     4  11  20  36  60  89 122 150 199 261 306 362
#
# _framework density 18.739705000000001
#
# number of rings (size 3 to 8) (size 9 to 14) (size 15 to 20)
#    0.000    1.667    5.000    0.500    2.333    0.000 
#    0.000    0.000    0.000    4.000    0.000    9.333 
#    0.000    0.000    0.000    0.000    0.000    0.000 
#
# Total GULP energy -267850.791265 kJ/mol
# GULP energy per Si atom -5580.224818 kJ/mol
# Density = 1.869705 g / cm^3
# Si number density = 18.739705 Si / 1000 Ang^3
#
#
#
# Elastic Constant Matrix: (Units=GPa)
#
#
# Indices 1 2 3 4 5 6 
#
# 1 101.2735 42.3376 16.4548 0.0000 0.0000 0.0000
# 2 42.3376 101.2735 16.4548 0.0000 0.0000 0.0000
# 3 16.4548 16.4548 52.9838 0.0000 0.0000 0.0000
# 4 0.0000 0.0000 0.0000 14.5795 0.0000 0.0000
# 5 0.0000 0.0000 0.0000 0.0000 14.5794 0.0000
# 6 0.0000 0.0000 0.0000 0.0000 0.0000 24.1415
#
#
#
# Elastic Compliance Matrix: (Units=1/GPa)
#
#
# Indices 1 2 3 4 5 6 
#
# 1 0.012232 -0.004735 -0.002328 0.000000 0.000000 0.000000
# 2 -0.004735 0.012232 -0.002328 0.000000 0.000000 0.000000
# 3 -0.002328 -0.002328 0.020320 0.000000 0.000000 0.000000
# 4 0.000000 0.000000 0.000000 0.068589 0.000000 0.000000
# 5 0.000000 0.000000 0.000000 0.000000 0.068590 0.000000
# 6 0.000000 0.000000 0.000000 0.000000 0.000000 0.041423
#
#
# Mechanical properties :
#
#
# Convention : Reuss Voigt Hill
#
# Bulk Modulus (GPa) = 38.46082 45.11390 41.78736
# Shear Modulus (GPa) = 19.93331 22.67899 21.30615
#
# Velocity S-wave (km/s) = 3.26497 3.48258 3.37553
# Velocity P-wave (km/s) = 5.89760 6.34802 6.12695
#
# Compressibility (1/GPa) = 0.02600049
#
# Stress axis : x y z
#
# Youngs Moduli (GPa) = 81.75154 81.75150 49.21312
#
# Poissons Ratio (x) = 0.38713 0.11458
# Poissons Ratio (y) = 0.38713 0.11458
# Poissons Ratio (z) = 0.19033 0.19033
#
# Static dielectric constant tensor:
#      x y z
#    x 1.661320 0.000000 0.000000 
#    y 0.000000 1.661320 0.000000 
#    z 0.000000 0.000000 1.655360 
# 
# From -- ./inp_files/5343.got.cif
#   From: 2010.05.17/outbox.cif.g08.bks.cpg/sg120_3_cif.got.tgz:5343.got - 2010.05.20 11:28:13.
