data_PCOD9559998
_publ_section_title
;
Structure prediction by ZEFSAII (Michael W. Deem and Ramdas Pophale) SiO2 
 PCOD9559998
Probable space group: I -4 C 2
;
_chemical_formula_sum "Si O2"
_cell_formula_units_Z 112
_cell_length_a 15.389518
_cell_length_b 15.389518
_cell_length_c 21.409010
_cell_angle_alpha 90.000000
_cell_angle_beta 90.000000
_cell_angle_gamma 90.000000
_cell_volume 5070.451359
_symmetry_space_group_name_H-M "I -4 C 2"
_symmetry_group_IT_number 120
_symmetry_cell_setting 'tetragonal'
loop_
_space_group_symop_operation_xyz
x,y,z
y,-x,-z
-x,-y,z
-y,x,-z
y,x,1/2-z
-y,-x,1/2-z
-x,y,1/2+z
x,-y,1/2+z
1/2+x,1/2+y,1/2+z
1/2+y,1/2-x,1/2-z
1/2-x,1/2-y,1/2+z
1/2-y,1/2+x,1/2-z
1/2+y,1/2+x,-z
1/2-y,1/2-x,-z
1/2-x,1/2+y,z
1/2+x,1/2-y,z
loop_
_atom_site_type_symbol
_atom_site_label
_atom_site_fract_x
_atom_site_fract_y
_atom_site_fract_z
Si Si1 0.429352 0.783442 0.304334
Si Si2 0.929352 0.716558 0.695666
Si Si3 0.616187 0.410393 0.000000
Si Si4 0.354990 0.003565 0.430901
Si Si5 0.996435 0.645010 0.930901
Si Si6 0.881023 0.913679 0.136717
Si Si7 0.881023 0.086321 0.363283
O O1 0.359753 0.859753 0.295176
O O2 0.500000 0.783576 0.250000
O O3 0.479292 0.800500 0.370323
O O4 0.384606 0.690006 0.313754
O O5 0.979292 0.699500 0.629677
O O6 0.884606 0.809994 0.686246
O O7 0.650367 0.383428 0.067564
O O8 0.514776 0.385199 0.000000
O O9 0.650367 0.383428 0.932436
O O10 0.312305 0.002282 0.500000
O O11 0.430358 0.930358 0.432904
O O12 0.404906 0.095094 0.423650
O O13 0.885192 0.019092 0.142846
O O14 0.980908 0.885192 0.142846
#
# Coordination Sequence:
#
# PCOD9559998 Si02
#       7
#    16  16  16  16  16  16  16
#     4  11  23  37  56  85 120 158 197 244 299 354
#     4  11  23  37  56  85 120 158 197 244 299 354
#     4   7  12  28  57  88 114 143 185 237 290 353
#     4   8  15  30  52  76 104 144 193 237 280 340
#     4   8  15  30  52  76 104 144 193 237 280 340
#     4   9  19  38  63  89 116 153 199 244 297 362
#     4   9  19  38  63  89 116 153 199 244 297 362
#
# _framework density 22.088764000000001
#
# number of rings (size 3 to 8) (size 9 to 14) (size 15 to 20)
#    0.000    3.000    0.000    3.429    2.000    2.571 
#    0.000    5.714    0.000    0.000    0.000    0.000 
#    0.000    0.000    0.000    0.000    0.000    0.000 
#
# Total GULP energy -312385.298871 kJ/mol
# GULP energy per Si atom -5578.308908 kJ/mol
# Density = 2.203849 g / cm^3
# Si number density = 22.088764 Si / 1000 Ang^3
#
#
#
# Elastic Constant Matrix: (Units=GPa)
#
#
# Indices 1 2 3 4 5 6 
#
# 1 47.3790 8.8742 17.9469 0.0000 0.0000 0.0000
# 2 8.8742 47.3790 17.9469 0.0000 0.0000 0.0000
# 3 17.9469 17.9469 105.6880 0.0000 0.0000 0.0000
# 4 0.0000 0.0000 0.0000 27.6047 0.0000 0.0000
# 5 0.0000 0.0000 0.0000 0.0000 27.6047 0.0000
# 6 0.0000 0.0000 0.0000 0.0000 0.0000 0.9997
#
#
#
# Elastic Compliance Matrix: (Units=1/GPa)
#
#
# Indices 1 2 3 4 5 6 
#
# 1 0.022954 -0.003017 -0.003386 0.000000 0.000000 0.000000
# 2 -0.003017 0.022954 -0.003386 0.000000 0.000000 0.000000
# 3 -0.003386 -0.003386 0.010612 0.000000 0.000000 0.000000
# 4 0.000000 0.000000 0.000000 0.036226 0.000000 0.000000
# 5 0.000000 0.000000 0.000000 0.000000 0.036226 0.000000
# 6 0.000000 0.000000 0.000000 0.000000 0.000000 1.000330
#
#
# Mechanical properties :
#
#
# Convention : Reuss Voigt Hill
#
# Bulk Modulus (GPa) = 27.06832 32.22021 29.64427
# Shear Modulus (GPa) = 4.30592 21.62033 12.96313
#
# Velocity S-wave (km/s) = 1.39771 3.13196 2.42516
# Velocity P-wave (km/s) = 3.85820 5.26282 4.61427
#
# Compressibility (1/GPa) = 0.03694356
#
# Stress axis : x y z
#
# Youngs Moduli (GPa) = 43.56557 43.56557 94.23648
#
# Poissons Ratio (x) = 0.13143 0.31904
# Poissons Ratio (y) = 0.13143 0.31904
# Poissons Ratio (z) = 0.14749 0.14749
#
# Static dielectric constant tensor:
#      x y z
#    x 1.818480 0.000000 0.000000 
#    y 0.000000 1.818480 0.000000 
#    z 0.000000 0.000000 1.858920 
# 
# From -- ./inp_files/4633.got.cif
#   From: 2010.05.17/outbox.cif.g08.bks.cpg/sg120_3_cif.got.tgz:4633.got - 2010.05.20 11:28:13.
