data_PCOD9559111
_publ_section_title
;
Structure prediction by ZEFSAII (Michael W. Deem and Ramdas Pophale) SiO2 
 PCOD9559111
Probable space group: I -4 M 2
;
_chemical_formula_sum "Si O2"
_cell_formula_units_Z 112
_cell_length_a 14.326996
_cell_length_b 14.326996
_cell_length_c 27.483972
_cell_angle_alpha 90.000000
_cell_angle_beta 90.000000
_cell_angle_gamma 90.000000
_cell_volume 5641.437443
_symmetry_space_group_name_H-M "I -4 M 2"
_symmetry_group_IT_number 119
_symmetry_cell_setting 'tetragonal'
loop_
_space_group_symop_operation_xyz
x,y,z
y,-x,-z
-x,-y,z
-y,x,-z
y,x,-z
-y,-x,-z
-x,y,z
x,-y,z
1/2+x,1/2+y,1/2+z
1/2+y,1/2-x,1/2-z
1/2-x,1/2-y,1/2+z
1/2-y,1/2+x,1/2-z
1/2+y,1/2+x,1/2-z
1/2-y,1/2-x,1/2-z
1/2-x,1/2+y,1/2+z
1/2+x,1/2-y,1/2+z
loop_
_atom_site_type_symbol
_atom_site_label
_atom_site_fract_x
_atom_site_fract_y
_atom_site_fract_z
Si Si1 0.605555 0.612574 0.262949
Si Si2 0.387794 0.215863 0.792633
Si Si3 0.393832 0.606493 0.940860
Si Si4 0.104969 0.613504 0.696325
Si Si5 0.761319 0.277122 0.444082
Si Si6 0.388496 0.717101 0.363102
Si Si7 0.388741 0.106841 0.887937
O O1 0.500000 0.644330 0.252395
O O2 0.606167 0.500000 0.265173
O O3 0.679643 0.641273 0.221965
O O4 0.631176 0.651782 0.316214
O O5 0.500000 0.212421 0.792432
O O6 0.349241 0.150760 0.750000
O O7 0.357412 0.174607 0.844160
O O8 0.500000 0.632241 0.924765
O O9 0.375287 0.500000 0.924540
O O10 0.316373 0.682568 0.927957
O O11 0.395432 0.604569 0.000000
O O12 0.101151 0.500000 0.698877
O O13 0.140652 0.640652 0.750000
O O14 0.179117 0.635970 0.655491
O O15 0.000000 0.647441 0.687841
O O16 0.734004 0.265997 0.500000
O O17 0.673598 0.300680 0.410094
O O18 0.836403 0.358899 0.435730
O O19 0.500000 0.710893 0.372422
O O20 0.500000 0.114362 0.893555
O O21 0.366633 0.000000 0.875443
#
# Coordination Sequence:
#
# PCOD9559111 Si02
#       7
#    16  16  16  16  16  16  16
#     4   9  19  37  59  81 109 146 184 225 277 338
#     4  10  19  32  55  87 119 149 185 230 284 351
#     4   8  15  31  55  79 102 131 174 233 298 358
#     4   8  15  30  51  74 103 137 169 206 258 322
#     4  11  23  37  56  79 108 150 200 250 292 338
#     4  10  21  35  52  78 110 146 189 235 283 335
#     4  10  22  40  61  86 117 151 187 233 293 354
#
# _framework density 19.853095
#
# number of rings (size 3 to 8) (size 9 to 14) (size 15 to 20)
#    0.000    2.571    0.000    2.571    0.000    5.857 
#    0.000    0.714    0.000    4.286    0.000    1.000 
#    0.000    0.000    0.000    0.000    0.000    0.000 
#
# Total GULP energy -312607.883892 kJ/mol
# GULP energy per Si atom -5582.283641 kJ/mol
# Density = 1.980791 g / cm^3
# Si number density = 19.853095 Si / 1000 Ang^3
#
#
#
# Elastic Constant Matrix: (Units=GPa)
#
#
# Indices 1 2 3 4 5 6 
#
# 1 77.3252 37.6763 41.9317 0.0000 0.0000 0.0000
# 2 37.6763 77.3277 41.9312 0.0000 0.0000 0.0000
# 3 41.9317 41.9312 87.3232 0.0000 0.0000 0.0000
# 4 0.0000 0.0000 0.0000 25.0806 0.0000 0.0000
# 5 0.0000 0.0000 0.0000 0.0000 25.0805 0.0000
# 6 0.0000 0.0000 0.0000 0.0000 0.0000 24.8444
#
#
#
# Elastic Compliance Matrix: (Units=1/GPa)
#
#
# Indices 1 2 3 4 5 6 
#
# 1 0.019301 -0.005920 -0.006426 0.000000 0.000000 0.000000
# 2 -0.005920 0.019300 -0.006425 0.000000 0.000000 0.000000
# 3 -0.006426 -0.006425 0.017622 0.000000 0.000000 0.000000
# 4 0.000000 0.000000 0.000000 0.039871 0.000000 0.000000
# 5 0.000000 0.000000 0.000000 0.000000 0.039872 0.000000
# 6 0.000000 0.000000 0.000000 0.000000 0.000000 0.040251
#
#
# Mechanical properties :
#
#
# Convention : Reuss Voigt Hill
#
# Bulk Modulus (GPa) = 53.52471 53.89492 53.70982
# Shear Modulus (GPa) = 22.72869 23.03024 22.87946
#
# Velocity S-wave (km/s) = 3.38722 3.40962 3.39844
# Velocity P-wave (km/s) = 6.50512 6.53502 6.52009
#
# Compressibility (1/GPa) = 0.01868296
#
# Stress axis : x y z
#
# Youngs Moduli (GPa) = 51.81007 51.81270 56.74579
#
# Poissons Ratio (x) = 0.30672 0.36463
# Poissons Ratio (y) = 0.30670 0.36460
# Poissons Ratio (z) = 0.33291 0.33290
#
# Static dielectric constant tensor:
#      x y z
#    x 1.720310 0.000000 0.000000 
#    y 0.000000 1.720310 0.000000 
#    z 0.000000 0.000000 1.675910 
# 
# From -- ./inp_files/9651.got.cif
#   From: 2010.05.17/outbox.cif.g08.bks.cpg/sg119_5_cif.got.tgz:9651.got - 2010.05.20 11:21:29.
