data_PCOD9559849
_publ_section_title
;
Structure prediction by ZEFSAII (Michael W. Deem and Ramdas Pophale) SiO2 
 PCOD9559849
Probable space group: I -4 C 2
;
_chemical_formula_sum "Si O2"
_cell_formula_units_Z 44
_cell_length_a 14.372748
_cell_length_b 14.372748
_cell_length_c 9.090921
_cell_angle_alpha 90.000000
_cell_angle_beta 90.000000
_cell_angle_gamma 90.000000
_cell_volume 1877.965052
_symmetry_space_group_name_H-M "I -4 C 2"
_symmetry_group_IT_number 120
_symmetry_cell_setting 'tetragonal'
loop_
_space_group_symop_operation_xyz
x,y,z
y,-x,-z
-x,-y,z
-y,x,-z
y,x,1/2-z
-y,-x,1/2-z
-x,y,1/2+z
x,-y,1/2+z
1/2+x,1/2+y,1/2+z
1/2+y,1/2-x,1/2-z
1/2-x,1/2-y,1/2+z
1/2-y,1/2+x,1/2-z
1/2+y,1/2+x,-z
1/2-y,1/2-x,-z
1/2-x,1/2+y,z
1/2+x,1/2-y,z
loop_
_atom_site_type_symbol
_atom_site_label
_atom_site_fract_x
_atom_site_fract_y
_atom_site_fract_z
Si Si1 0.575065 0.734074 0.741583
Si Si2 0.310234 0.404541 0.081561
Si Si3 0.500000 0.500000 0.000000
Si Si4 0.195176 0.304825 0.500000
O O1 0.636638 0.636638 0.750000
O O2 0.469191 0.728495 0.791821
O O3 0.575080 0.748549 0.567634
O O4 0.622896 0.799589 0.864519
O O5 0.309767 0.294352 0.082621
O O6 0.417178 0.440655 0.072967
#
# Coordination Sequence:
#
# PCOD9559849 Si02
#       4
#    16  16   4   8
#     4  10  22  40  60  97 131 184 220 279 347 410
#     4  11  23  39  65  98 138 179 223 282 353 411
#     4  12  20  42  64 110 136 170 232 294 356 422
#     4  10  22  42  58  96 144 184 230 278 354 418
#
# _framework density 23.429617
#
# number of rings (size 3 to 8) (size 9 to 14) (size 15 to 20)
#    0.000    1.455    7.273    0.000    0.000   11.636 
#    0.000    0.000    0.000    1.091    0.000   10.182 
#    0.000    0.000    0.000    0.000    0.000    0.000 
#
# Total GULP energy -122713.067213 kJ/mol
# GULP energy per Si atom -5577.866692 kJ/mol
# Density = 2.337629 g / cm^3
# Si number density = 23.429617 Si / 1000 Ang^3
#
#
#
# Elastic Constant Matrix: (Units=GPa)
#
#
# Indices 1 2 3 4 5 6 
#
# 1 89.7857 38.9477 26.4143 0.0000 0.0000 0.0000
# 2 38.9477 89.7830 26.4142 0.0000 0.0000 0.0000
# 3 26.4143 26.4142 157.6443 0.0000 0.0000 0.0000
# 4 0.0000 0.0000 0.0000 30.2152 0.0000 0.0000
# 5 0.0000 0.0000 0.0000 0.0000 30.2152 0.0000
# 6 0.0000 0.0000 0.0000 0.0000 0.0000 22.0616
#
#
#
# Elastic Compliance Matrix: (Units=1/GPa)
#
#
# Indices 1 2 3 4 5 6 
#
# 1 0.014006 -0.005665 -0.001398 0.000000 0.000000 0.000000
# 2 -0.005665 0.014006 -0.001398 0.000000 0.000000 0.000000
# 3 -0.001398 -0.001398 0.006812 0.000000 0.000000 0.000000
# 4 0.000000 0.000000 0.000000 0.033096 0.000000 0.000000
# 5 0.000000 0.000000 0.000000 0.000000 0.033096 0.000000
# 6 0.000000 0.000000 0.000000 0.000000 0.000000 0.045328
#
#
# Mechanical properties :
#
#
# Convention : Reuss Voigt Hill
#
# Bulk Modulus (GPa) = 55.85249 57.86283 56.85766
# Shear Modulus (GPa) = 29.54524 32.86083 31.20304
#
# Velocity S-wave (km/s) = 3.55494 3.74910 3.65331
# Velocity P-wave (km/s) = 6.38281 6.59478 6.48966
#
# Compressibility (1/GPa) = 0.01790431
#
# Stress axis : x y z
#
# Youngs Moduli (GPa) = 71.39785 71.39555 146.80450
#
# Poissons Ratio (x) = 0.40443 0.20518
# Poissons Ratio (y) = 0.40444 0.20519
# Poissons Ratio (z) = 0.09979 0.09979
#
# Static dielectric constant tensor:
#      x y z
#    x 1.930200 0.000000 0.000000 
#    y 0.000000 1.930200 0.000000 
#    z 0.000000 0.000000 2.016590 
# 
# From -- ./inp_files/2032.got.cif
#   From: 2010.05.17/outbox.cif.g08.bks.cpg/sg120_2_cif.got.tgz:2032.got - 2010.05.20 11:28:13.
