data_PCOD9559571
_publ_section_title
;
Structure prediction by ZEFSAII (Michael W. Deem and Ramdas Pophale) SiO2 
 PCOD9559571
Probable space group: I -4 C 2
;
_chemical_formula_sum "Si O2"
_cell_formula_units_Z 100
_cell_length_a 28.581228
_cell_length_b 28.581228
_cell_length_c 8.777048
_cell_angle_alpha 90.000000
_cell_angle_beta 90.000000
_cell_angle_gamma 90.000000
_cell_volume 7169.852846
_symmetry_space_group_name_H-M "I -4 C 2"
_symmetry_group_IT_number 120
_symmetry_cell_setting 'tetragonal'
loop_
_space_group_symop_operation_xyz
x,y,z
y,-x,-z
-x,-y,z
-y,x,-z
y,x,1/2-z
-y,-x,1/2-z
-x,y,1/2+z
x,-y,1/2+z
1/2+x,1/2+y,1/2+z
1/2+y,1/2-x,1/2-z
1/2-x,1/2-y,1/2+z
1/2-y,1/2+x,1/2-z
1/2+y,1/2+x,-z
1/2-y,1/2-x,-z
1/2-x,1/2+y,z
1/2+x,1/2-y,z
loop_
_atom_site_type_symbol
_atom_site_label
_atom_site_fract_x
_atom_site_fract_y
_atom_site_fract_z
Si Si1 0.837956 0.949438 0.950848
Si Si2 0.633974 0.734286 0.359919
Si Si3 0.933019 0.920188 0.080621
Si Si4 0.703643 0.796358 0.500000
Si Si5 0.176544 0.043839 0.593359
Si Si6 0.781598 0.218403 0.750000
Si Si7 0.000000 0.000000 0.500000
Si Si8 0.795980 0.152129 0.471768
O O1 0.835809 0.957310 0.771026
O O2 0.817982 0.898818 0.995252
O O3 0.891982 0.946859 0.993550
O O4 0.812308 0.992061 0.034333
O O5 0.652581 0.780363 0.445438
O O6 0.582347 0.717732 0.409879
O O7 0.643064 0.737040 0.176961
O O8 0.666039 0.690419 0.415233
O O9 0.913906 0.913906 0.250000
O O10 0.942022 0.870306 0.000622
O O11 0.976600 0.955928 0.085634
O O12 0.736731 0.782574 0.358382
O O13 0.779594 0.174604 0.631890
#
# Coordination Sequence:
#
# PCOD9559571 Si02
#       8
#    16  16  16   8  16   8   4  16
#     4  11  22  34  48  62  82 110 140 177 221 269
#     4   9  18  33  45  63  87 111 132 179 220 263
#     4  12  24  34  48  59  77 104 141 181 230 273
#     4  10  18  28  46  66  88 106 134 168 218 264
#     4  11  22  35  47  63  85 108 142 180 224 269
#     4  10  18  28  46  70  86 107 136 165 216 272
#     4  12  26  36  44  62  78 100 142 196 226 276
#     4   9  18  30  47  62  87 108 135 167 219 264
#
# _framework density 13.947286999999999
#
# number of rings (size 3 to 8) (size 9 to 14) (size 15 to 20)
#    0.000    1.600    3.200    3.600    1.120    3.840 
#    0.000    0.000    0.000    0.000    0.000    0.000 
#    0.000    0.000    0.000    0.000    0.000    0.000 
#
# Total GULP energy -278434.463021 kJ/mol
# GULP energy per Si atom -5568.689260 kJ/mol
# Density = 1.391554 g / cm^3
# Si number density = 13.947287 Si / 1000 Ang^3
#
#
#
# Elastic Constant Matrix: (Units=GPa)
#
#
# Indices 1 2 3 4 5 6 
#
# 1 52.1178 33.6047 31.7559 0.0000 0.0000 0.0000
# 2 33.6047 52.1195 31.7561 0.0000 0.0000 0.0000
# 3 31.7559 31.7561 78.2208 0.0000 0.0000 0.0000
# 4 0.0000 0.0000 0.0000 32.2756 0.0000 0.0000
# 5 0.0000 0.0000 0.0000 0.0000 32.2757 0.0000
# 6 0.0000 0.0000 0.0000 0.0000 0.0000 19.1505
#
#
#
# Elastic Compliance Matrix: (Units=1/GPa)
#
#
# Indices 1 2 3 4 5 6 
#
# 1 0.035349 -0.018665 -0.006773 0.000000 0.000000 0.000000
# 2 -0.018665 0.035348 -0.006773 0.000000 0.000000 0.000000
# 3 -0.006773 -0.006773 0.018284 0.000000 0.000000 0.000000
# 4 0.000000 0.000000 0.000000 0.030983 0.000000 0.000000
# 5 0.000000 0.000000 0.000000 0.000000 0.030983 0.000000
# 6 0.000000 0.000000 0.000000 0.000000 0.000000 0.052218
#
#
# Mechanical properties :
#
#
# Convention : Reuss Voigt Hill
#
# Bulk Modulus (GPa) = 40.71934 41.85462 41.28698
# Shear Modulus (GPa) = 18.13080 22.42980 20.28030
#
# Velocity S-wave (km/s) = 3.60940 4.01457 3.81736
# Velocity P-wave (km/s) = 6.82853 7.18076 7.00686
#
# Compressibility (1/GPa) = 0.02455835
#
# Stress axis : x y z
#
# Youngs Moduli (GPa) = 28.28917 28.29030 54.69294
#
# Poissons Ratio (x) = 0.52803 0.37046
# Poissons Ratio (y) = 0.52801 0.37043
# Poissons Ratio (z) = 0.19162 0.19161
#
# Static dielectric constant tensor:
#      x y z
#    x 1.462670 0.000000 0.000000 
#    y 0.000000 1.462660 0.000000 
#    z 0.000000 0.000000 1.503390 
# 
# From -- ./inp_files/1748.got.cif
#   From: 2010.05.17/outbox.cif.g08.bks.cpg/sg120_1_cif.got.tgz:1748.got - 2010.05.20 11:28:13.
