data_PCOD9559086
_publ_section_title
;
Structure prediction by ZEFSAII (Michael W. Deem and Ramdas Pophale) SiO2 
 PCOD9559086
Probable space group: I -4 M 2
;
_chemical_formula_sum "Si O2"
_cell_formula_units_Z 72
_cell_length_a 28.437029
_cell_length_b 28.437029
_cell_length_c 5.297367
_cell_angle_alpha 90.000000
_cell_angle_beta 90.000000
_cell_angle_gamma 90.000000
_cell_volume 4283.793263
_symmetry_space_group_name_H-M "I -4 M 2"
_symmetry_group_IT_number 119
_symmetry_cell_setting 'tetragonal'
loop_
_space_group_symop_operation_xyz
x,y,z
y,-x,-z
-x,-y,z
-y,x,-z
y,x,-z
-y,-x,-z
-x,y,z
x,-y,z
1/2+x,1/2+y,1/2+z
1/2+y,1/2-x,1/2-z
1/2-x,1/2-y,1/2+z
1/2-y,1/2+x,1/2-z
1/2+y,1/2+x,1/2-z
1/2-y,1/2-x,1/2-z
1/2-x,1/2+y,1/2+z
1/2+x,1/2-y,1/2+z
loop_
_atom_site_type_symbol
_atom_site_label
_atom_site_fract_x
_atom_site_fract_y
_atom_site_fract_z
Si Si1 0.783302 0.216699 0.500000
Si Si2 0.192111 0.307890 0.750000
Si Si3 0.826046 0.826046 0.000000
Si Si4 0.897518 0.747822 0.936658
Si Si5 0.897908 0.443343 0.999983
Si Si6 0.944744 0.286936 0.448938
O O1 0.729196 0.205035 0.466839
O O2 0.809166 0.199284 0.252862
O O3 0.142398 0.290869 0.856565
O O4 0.876938 0.801222 0.955623
O O5 0.933097 0.741705 0.703434
O O6 0.917582 0.733029 0.206896
O O7 0.903605 0.500000 0.992556
O O8 0.920522 0.420522 0.750000
O O9 0.922480 0.422480 0.250000
O O10 0.842115 0.432755 0.011113
O O11 0.000000 0.284749 0.395590
#
# Coordination Sequence:
#
# PCOD9559086 Si02
#       6
#     8   8   8  16  16  16
#     4  10  19  32  44  70 124 130 150 204 251 316
#     4  10  20  30  50  80  98 138 165 200 270 300
#     4  10  21  36  50  82 106 134 170 207 261 292
#     4  11  22  35  58  76 107 137 173 218 254 314
#     4  11  24  41  59  79  99 122 167 227 282 337
#     4  11  25  41  54  75 105 143 179 214 257 323
#
# _framework density 16.807531999999998
#
# number of rings (size 3 to 8) (size 9 to 14) (size 15 to 20)
#    0.000    1.333    0.000    8.000    4.667    8.444 
#    0.000    0.000    0.000    0.000    0.000    0.000 
#    0.000    0.000    0.000    0.000    0.000   38.889 
#
# Total GULP energy -200776.478187 kJ/mol
# GULP energy per Si atom -5577.124394 kJ/mol
# Density = 1.676928 g / cm^3
# Si number density = 16.807532 Si / 1000 Ang^3
#
#
#
# Elastic Constant Matrix: (Units=GPa)
#
#
# Indices 1 2 3 4 5 6 
#
# 1 64.0390 42.6756 33.9026 0.0000 0.0000 0.0000
# 2 42.6756 64.0409 33.9041 0.0000 0.0000 0.0000
# 3 33.9026 33.9041 129.6988 0.0000 0.0000 0.0000
# 4 0.0000 0.0000 0.0000 26.9594 0.0000 0.0000
# 5 0.0000 0.0000 0.0000 0.0000 26.9584 0.0000
# 6 0.0000 0.0000 0.0000 0.0000 0.0000 28.1411
#
#
#
# Elastic Compliance Matrix: (Units=1/GPa)
#
#
# Indices 1 2 3 4 5 6 
#
# 1 0.029022 -0.017785 -0.002937 0.000000 0.000000 0.000000
# 2 -0.017785 0.029022 -0.002938 0.000000 0.000000 0.000000
# 3 -0.002937 -0.002938 0.009246 0.000000 0.000000 0.000000
# 4 0.000000 0.000000 0.000000 0.037093 0.000000 0.000000
# 5 0.000000 0.000000 0.000000 0.000000 0.037094 0.000000
# 6 0.000000 0.000000 0.000000 0.000000 0.000000 0.035535
#
#
# Mechanical properties :
#
#
# Convention : Reuss Voigt Hill
#
# Bulk Modulus (GPa) = 50.07383 53.19371 51.63377
# Shear Modulus (GPa) = 21.64612 26.23154 23.93883
#
# Velocity S-wave (km/s) = 3.59260 3.95486 3.77807
# Velocity P-wave (km/s) = 6.86048 7.25065 7.05826
#
# Compressibility (1/GPa) = 0.01997051
#
# Stress axis : x y z
#
# Youngs Moduli (GPa) = 34.45624 34.45694 108.15675
#
# Poissons Ratio (x) = 0.61281 0.31768
# Poissons Ratio (y) = 0.61280 0.31772
# Poissons Ratio (z) = 0.10120 0.10122
#
# Static dielectric constant tensor:
#      x y z
#    x 1.594630 0.000000 0.000000 
#    y 0.000000 1.594620 0.000000 
#    z 0.000000 0.000000 1.558680 
# 
# From -- ./inp_files/973.got.cif
#   From: 2010.05.17/outbox.cif.g08.bks.cpg/sg119_1_cif.got.tgz:973.got - 2010.05.20 11:21:29.
