data_PCOD9559262
_publ_section_title
;
Structure prediction by ZEFSAII (Michael W. Deem and Ramdas Pophale) SiO2 
 PCOD9559262
Probable space group: I -4 M 2
;
_chemical_formula_sum "Si O2"
_cell_formula_units_Z 96
_cell_length_a 27.093509
_cell_length_b 27.093509
_cell_length_c 7.406670
_cell_angle_alpha 90.000000
_cell_angle_beta 90.000000
_cell_angle_gamma 90.000000
_cell_volume 5436.927070
_symmetry_space_group_name_H-M "I -4 M 2"
_symmetry_group_IT_number 119
_symmetry_cell_setting 'tetragonal'
loop_
_space_group_symop_operation_xyz
x,y,z
y,-x,-z
-x,-y,z
-y,x,-z
y,x,-z
-y,-x,-z
-x,y,z
x,-y,z
1/2+x,1/2+y,1/2+z
1/2+y,1/2-x,1/2-z
1/2-x,1/2-y,1/2+z
1/2-y,1/2+x,1/2-z
1/2+y,1/2+x,1/2-z
1/2-y,1/2-x,1/2-z
1/2-x,1/2+y,1/2+z
1/2+x,1/2-y,1/2+z
loop_
_atom_site_type_symbol
_atom_site_label
_atom_site_fract_x
_atom_site_fract_y
_atom_site_fract_z
Si Si1 0.205683 0.630066 0.296859
Si Si2 0.606105 0.655197 0.843589
Si Si3 0.362755 0.781819 0.276005
Si Si4 0.554432 0.442677 0.282248
Si Si5 0.057913 0.253935 0.478128
Si Si6 0.692692 0.294681 0.698504
O O1 0.152754 0.652754 0.250000
O O2 0.218166 0.625520 0.509166
O O3 0.215369 0.580003 0.189903
O O4 0.244720 0.670944 0.218611
O O5 0.582429 0.602844 0.796429
O O6 0.569760 0.697134 0.918817
O O7 0.641198 0.674874 0.684795
O O8 0.645343 0.645343 0.000000
O O9 0.332679 0.832679 0.250000
O O10 0.325840 0.737122 0.219178
O O11 0.410405 0.771820 0.151534
O O12 0.558291 0.441710 0.500000
O O13 0.500000 0.421748 0.233405
O O14 0.554575 0.500000 0.227553
O O15 0.000000 0.259930 0.505816
O O16 0.714294 0.285707 0.500000
#
# Coordination Sequence:
#
# PCOD9559262 Si02
#       6
#    16  16  16  16  16  16
#     4  10  20  35  58  86 114 154 196 238 285 344
#     4  11  20  34  53  74 111 145 192 237 295 345
#     4  11  20  36  60  84 116 152 192 239 285 346
#     4   9  19  35  52  69  92 135 201 263 308 347
#     4  11  24  39  56  85 124 156 190 240 292 347
#     4   9  19  32  50  81 111 143 189 235 283 340
#
# _framework density 17.657033999999999
#
# number of rings (size 3 to 8) (size 9 to 14) (size 15 to 20)
#    0.000    1.833    3.333    2.000    0.000    2.000 
#    0.000    0.833    0.000    0.000    0.000    0.000 
#    0.000    2.000    0.000    0.000    0.000    0.000 
#
# Total GULP energy -267374.154454 kJ/mol
# GULP energy per Si atom -5570.294884 kJ/mol
# Density = 1.761685 g / cm^3
# Si number density = 17.657034 Si / 1000 Ang^3
#
#
#
# Elastic Constant Matrix: (Units=GPa)
#
#
# Indices 1 2 3 4 5 6 
#
# 1 97.9567 63.3782 33.9177 0.0000 0.0000 0.0000
# 2 63.3782 97.9569 33.9176 0.0000 0.0000 0.0000
# 3 33.9177 33.9176 96.9255 0.0000 0.0000 0.0000
# 4 0.0000 0.0000 0.0000 20.5146 0.0000 0.0000
# 5 0.0000 0.0000 0.0000 0.0000 20.5147 0.0000
# 6 0.0000 0.0000 0.0000 0.0000 0.0000 29.2095
#
#
#
# Elastic Compliance Matrix: (Units=1/GPa)
#
#
# Indices 1 2 3 4 5 6 
#
# 1 0.018094 -0.010826 -0.002543 0.000000 0.000000 0.000000
# 2 -0.010826 0.018094 -0.002543 0.000000 0.000000 0.000000
# 3 -0.002543 -0.002543 0.012097 0.000000 0.000000 0.000000
# 4 0.000000 0.000000 0.000000 0.048746 0.000000 0.000000
# 5 0.000000 0.000000 0.000000 0.000000 0.048745 0.000000
# 6 0.000000 0.000000 0.000000 0.000000 0.000000 0.034235
#
#
# Mechanical properties :
#
#
# Convention : Reuss Voigt Hill
#
# Bulk Modulus (GPa) = 60.75500 61.69622 61.22561
# Shear Modulus (GPa) = 23.00732 24.82282 23.91507
#
# Velocity S-wave (km/s) = 3.61364 3.75351 3.68424
# Velocity P-wave (km/s) = 7.20377 7.33501 7.26969
#
# Compressibility (1/GPa) = 0.01645955
#
# Stress axis : x y z
#
# Youngs Moduli (GPa) = 55.26812 55.26828 82.66442
#
# Poissons Ratio (x) = 0.59833 0.21023
# Poissons Ratio (y) = 0.59833 0.21023
# Poissons Ratio (z) = 0.14056 0.14056
#
# Static dielectric constant tensor:
#      x y z
#    x 1.620480 0.000000 0.000000 
#    y 0.000000 1.620480 0.000000 
#    z 0.000000 0.000000 1.689190 
# 
# From -- ./inp_files/2650.got.cif
#   From: 2010.05.17/outbox.cif.g08.bks.cpg/sg119_2_cif.got.tgz:2650.got - 2010.05.20 11:21:29.
