data_PCOD9559247
_publ_section_title
;
Structure prediction by ZEFSAII (Michael W. Deem and Ramdas Pophale) SiO2 
 PCOD9559247
Probable space group: I -4 M 2
;
_chemical_formula_sum "Si O2"
_cell_formula_units_Z 64
_cell_length_a 12.091247
_cell_length_b 12.091247
_cell_length_c 24.247515
_cell_angle_alpha 90.000000
_cell_angle_beta 90.000000
_cell_angle_gamma 90.000000
_cell_volume 3544.944357
_symmetry_space_group_name_H-M "I -4 M 2"
_symmetry_group_IT_number 119
_symmetry_cell_setting 'tetragonal'
loop_
_space_group_symop_operation_xyz
x,y,z
y,-x,-z
-x,-y,z
-y,x,-z
y,x,-z
-y,-x,-z
-x,y,z
x,-y,z
1/2+x,1/2+y,1/2+z
1/2+y,1/2-x,1/2-z
1/2-x,1/2-y,1/2+z
1/2-y,1/2+x,1/2-z
1/2+y,1/2+x,1/2-z
1/2-y,1/2-x,1/2-z
1/2-x,1/2+y,1/2+z
1/2+x,1/2-y,1/2+z
loop_
_atom_site_type_symbol
_atom_site_label
_atom_site_fract_x
_atom_site_fract_y
_atom_site_fract_z
Si Si1 0.500000 0.872610 0.940780
Si Si2 0.129351 0.746834 0.047715
Si Si3 0.000000 0.127496 0.229024
Si Si4 0.000000 0.265309 0.328193
Si Si5 0.867533 0.632468 0.750000
Si Si6 0.703005 0.250172 0.672319
O O1 0.617509 0.862411 0.970187
O O2 0.500000 0.778964 0.893799
O O3 0.500000 0.000000 0.916508
O O4 0.191041 0.760770 0.106350
O O5 0.000000 0.770536 0.057443
O O6 0.178130 0.821871 0.000000
O O7 0.106210 0.182580 0.201553
O O8 0.000000 0.151743 0.294451
O O9 0.000000 0.000000 0.217457
O O10 0.879842 0.314922 0.313646
O O11 0.849006 0.500000 0.745082
O O12 0.815281 0.699558 0.698103
#
# Coordination Sequence:
#
# PCOD9559247 Si02
#       6
#     8  16   8   8   8  16
#     4   8  18  38  62  82 117 153 191 245 291 346
#     4  10  21  39  61  87 117 152 195 245 298 350
#     4  12  22  35  57  86 128 162 188 238 301 353
#     4  10  20  34  60  87 114 154 195 236 301 352
#     4  11  24  42  60  83 124 168 204 239 288 366
#     4  11  22  39  59  90 120 155 196 250 300 359
#
# _framework density 18.053878999999998
#
# number of rings (size 3 to 8) (size 9 to 14) (size 15 to 20)
#    0.000    1.625    3.750    0.750    1.750    2.250 
#    4.500    0.000    2.750    0.000    0.000    0.000 
#    0.000    0.000    0.000    0.000    0.000    0.000 
#
# Total GULP energy -178158.547851 kJ/mol
# GULP energy per Si atom -5567.454620 kJ/mol
# Density = 1.801279 g / cm^3
# Si number density = 18.053879 Si / 1000 Ang^3
#
#
#
# Elastic Constant Matrix: (Units=GPa)
#
#
# Indices 1 2 3 4 5 6 
#
# 1 110.2022 44.1118 33.7382 0.0000 0.0000 0.0000
# 2 44.1118 110.1980 33.7354 0.0000 0.0000 0.0000
# 3 33.7382 33.7354 85.3763 0.0000 0.0000 0.0000
# 4 0.0000 0.0000 0.0000 28.1295 0.0000 0.0000
# 5 0.0000 0.0000 0.0000 0.0000 28.1293 0.0000
# 6 0.0000 0.0000 0.0000 0.0000 0.0000 23.6188
#
#
#
# Elastic Compliance Matrix: (Units=1/GPa)
#
#
# Indices 1 2 3 4 5 6 
#
# 1 0.011482 -0.003649 -0.003096 0.000000 0.000000 0.000000
# 2 -0.003649 0.011483 -0.003095 0.000000 0.000000 0.000000
# 3 -0.003096 -0.003095 0.014159 0.000000 0.000000 0.000000
# 4 0.000000 0.000000 0.000000 0.035550 0.000000 0.000000
# 5 0.000000 0.000000 0.000000 0.000000 0.035550 0.000000
# 6 0.000000 0.000000 0.000000 0.000000 0.000000 0.042339
#
#
# Mechanical properties :
#
#
# Convention : Reuss Voigt Hill
#
# Bulk Modulus (GPa) = 57.32376 58.77193 58.04784
# Shear Modulus (GPa) = 28.39967 28.92160 28.66063
#
# Velocity S-wave (km/s) = 3.97047 4.00679 3.98867
# Velocity P-wave (km/s) = 7.26911 7.35052 7.30993
#
# Compressibility (1/GPa) = 0.01744477
#
# Stress axis : x y z
#
# Youngs Moduli (GPa) = 87.08907 87.08727 70.62472
#
# Poissons Ratio (x) = 0.31775 0.21864
# Poissons Ratio (y) = 0.31776 0.21861
# Poissons Ratio (z) = 0.26961 0.26957
#
# Static dielectric constant tensor:
#      x y z
#    x 1.632940 0.000000 0.000000 
#    y 0.000000 1.632940 0.000000 
#    z 0.000000 0.000000 1.618140 
# 
# From -- ./inp_files/8540.got.cif
#   From: 2010.05.17/outbox.cif.g08.bks.cpg/sg119_5_cif.got.tgz:8540.got - 2010.05.20 11:21:29.
