data_PCOD9559551
_publ_section_title
;
Structure prediction by ZEFSAII (Michael W. Deem and Ramdas Pophale) SiO2 
 PCOD9559551
Probable space group: I -4 M 2
;
_chemical_formula_sum "Si O2"
_cell_formula_units_Z 56
_cell_length_a 15.000000
_cell_length_b 15.000000
_cell_length_c 24.000000
_cell_angle_alpha 90.000000
_cell_angle_beta 90.000000
_cell_angle_gamma 90.000000
_cell_volume 5400.000000
_symmetry_space_group_name_H-M "I -4 M 2"
_symmetry_group_IT_number 119
_symmetry_cell_setting 'tetragonal'
loop_
_space_group_symop_operation_xyz
x,y,z
y,-x,-z
-x,-y,z
-y,x,-z
y,x,-z
-y,-x,-z
-x,y,z
x,-y,z
1/2+x,1/2+y,1/2+z
1/2+y,1/2-x,1/2-z
1/2-x,1/2-y,1/2+z
1/2-y,1/2+x,1/2-z
1/2+y,1/2+x,1/2-z
1/2-y,1/2-x,1/2-z
1/2-x,1/2+y,1/2+z
1/2+x,1/2-y,1/2+z
loop_
_atom_site_type_symbol
_atom_site_label
_atom_site_fract_x
_atom_site_fract_y
_atom_site_fract_z
Si Si1 0.286881 0.397768 0.642882
Si Si2 0.137652 0.402914 0.884237
Si Si3 0.398437 0.608501 0.746131
Si Si4 0.398409 0.347848 0.132676
Si Si5 0.594536 0.331341 0.551090
Si Si6 0.592863 0.712329 0.966048
Si Si7 0.630052 0.904794 0.987252
O O1 0.314637 0.500000 0.632038
O O2 0.181540 0.395710 0.649259
O O3 0.336552 0.361455 0.696351
O O4 0.321584 0.342052 0.590842
O O5 0.110916 0.500000 0.863143
O O6 0.244506 0.398405 0.884115
O O7 0.104754 0.391702 0.947513
O O8 0.500000 0.637468 0.740166
O O9 0.397314 0.500000 0.744797
O O10 0.358788 0.635267 0.804984
O O11 0.500000 0.380792 0.130518
O O12 0.337692 0.401885 0.091456
O O13 0.601730 0.398271 0.500000
O O14 0.500000 0.344030 0.581620
O O15 0.595908 0.235131 0.523021
O O16 0.500000 0.687840 0.996180
O O17 0.594993 0.816907 0.958706
O O18 0.677131 0.677131 0.000000
O O19 0.597056 0.000000 0.967063
#
# Coordination Sequence:
#
# PCOD9559551 Si02
#       7
#    16  16  16  16  16  16  16
#     4  11  22  36  56  86 119 157 205 252 302 361
#     4  11  22  38  58  81 115 158 205 251 296 352
#     4   9  19  37  59  83 116 156 194 236 296 370
#     4  10  21  38  60  86 119 157 195 243 303 361
#     4  11  21  34  55  83 118 156 196 247 304 359
#     4  12  23  36  58  90 122 153 193 245 300 360
#     4  11  23  40  58  80 118 166 207 243 293 362
#
# _framework density 10.370369999999999
#
# number of rings (size 3 to 8) (size 9 to 14) (size 15 to 20)
#    0.000    1.286    2.857    3.857    0.000    5.714 
#    0.000    0.000    0.000    0.857    0.000    8.000 
#    0.000    1.143    0.000    8.857    0.000    0.000 
#
# Total GULP energy -312364.354807 kJ/mol
# GULP energy per Si atom -5577.934907 kJ/mol
# Density = 1.034677 g / cm^3
# Si number density = 10.370370 Si / 1000 Ang^3
#
#
#
# Elastic Constant Matrix: (Units=GPa)
#
#
# Indices 1 2 3 4 5 6 
#
# 1 115.5791 31.9420 38.9633 0.0000 0.0000 0.0000
# 2 31.9420 115.5789 38.9634 0.0000 0.0000 0.0000
# 3 38.9633 38.9634 88.3825 0.0000 0.0000 0.0000
# 4 0.0000 0.0000 0.0000 6.0586 0.0000 0.0000
# 5 0.0000 0.0000 0.0000 0.0000 6.0577 0.0000
# 6 0.0000 0.0000 0.0000 0.0000 0.0000 30.5790
#
#
#
# Elastic Compliance Matrix: (Units=1/GPa)
#
#
# Indices 1 2 3 4 5 6 
#
# 1 0.010396 -0.001560 -0.003896 0.000000 0.000000 0.000000
# 2 -0.001560 0.010396 -0.003896 0.000000 0.000000 0.000000
# 3 -0.003896 -0.003896 0.014749 0.000000 0.000000 0.000000
# 4 0.000000 0.000000 0.000000 0.165054 0.000000 0.000000
# 5 0.000000 0.000000 0.000000 0.000000 0.165080 0.000000
# 6 0.000000 0.000000 0.000000 0.000000 0.000000 0.032702
#
#
# Mechanical properties :
#
#
# Convention : Reuss Voigt Hill
#
# Bulk Modulus (GPa) = 59.38274 59.91976 59.65125
# Shear Modulus (GPa) = 11.82889 22.51718 17.17304
#
# Velocity S-wave (km/s) = 2.39073 3.29849 2.88060
# Velocity P-wave (km/s) = 6.02610 6.59237 6.31559
#
# Compressibility (1/GPa) = 0.01683991
#
# Stress axis : x y z
#
# Youngs Moduli (GPa) = 96.18677 96.18646 67.80050
#
# Poissons Ratio (x) = 0.15005 0.26412
# Poissons Ratio (y) = 0.15005 0.26412
# Poissons Ratio (z) = 0.37470 0.37470
#
# Static dielectric constant tensor:
#      x y z
#    x 1.779290 0.000000 0.000000 
#    y 0.000000 1.779290 0.000000 
#    z 0.000000 0.000000 1.729080 
# 
# From -- ./inp_files/8876.got.cif
#   From: 2010.05.17/outbox.ucp.g08.bks.cvg/sg119_5_cif.got.tgz:8876.got - 2010.06.11 11:34:25.
