data_PCOD9559827
_publ_section_title
;
Structure prediction by ZEFSAII (Michael W. Deem and Ramdas Pophale) SiO2 
 PCOD9559827
Probable space group: I -4 C 2
;
_chemical_formula_sum "Si O2"
_cell_formula_units_Z 96
_cell_length_a 19.572026
_cell_length_b 19.572026
_cell_length_c 11.919350
_cell_angle_alpha 90.000000
_cell_angle_beta 90.000000
_cell_angle_gamma 90.000000
_cell_volume 4565.876293
_symmetry_space_group_name_H-M "I -4 C 2"
_symmetry_group_IT_number 120
_symmetry_cell_setting 'tetragonal'
loop_
_space_group_symop_operation_xyz
x,y,z
y,-x,-z
-x,-y,z
-y,x,-z
y,x,1/2-z
-y,-x,1/2-z
-x,y,1/2+z
x,-y,1/2+z
1/2+x,1/2+y,1/2+z
1/2+y,1/2-x,1/2-z
1/2-x,1/2-y,1/2+z
1/2-y,1/2+x,1/2-z
1/2+y,1/2+x,-z
1/2-y,1/2-x,-z
1/2-x,1/2+y,z
1/2+x,1/2-y,z
loop_
_atom_site_type_symbol
_atom_site_label
_atom_site_fract_x
_atom_site_fract_y
_atom_site_fract_z
Si Si1 0.171646 0.466795 0.678380
Si Si2 0.087890 0.087890 0.250000
Si Si3 0.820917 0.032723 0.194404
Si Si4 0.877375 0.613282 0.132405
Si Si5 0.247705 0.350027 0.294085
Si Si6 0.438047 0.402732 0.509984
Si Si7 0.345956 0.845956 0.500000
O O1 0.252451 0.486984 0.677242
O O2 0.124756 0.531809 0.650082
O O3 0.150356 0.438881 0.801358
O O4 0.156983 0.410393 0.583522
O O5 0.098750 0.119042 0.126324
O O6 0.011112 0.112607 0.273352
O O7 0.800091 0.087324 0.286509
O O8 0.843834 0.070563 0.081295
O O9 0.811251 0.635175 0.203615
O O10 0.872901 0.627100 0.000000
O O11 0.282894 0.282894 0.250000
O O12 0.217943 0.345675 0.417235
O O13 0.412162 0.479016 0.476977
#
# Coordination Sequence:
#
# PCOD9559827 Si02
#       7
#    16   8  16  16  16  16   8
#     4  10  24  45  66 102 129 174 216 278 349 406
#     4  10  22  37  62  92 134 188 224 282 328 403
#     4  10  23  38  63  97 135 176 226 280 338 402
#     4  10  24  44  71  97 137 166 221 281 337 416
#     4  10  24  42  68 100 132 184 225 275 337 397
#     4   9  20  35  54  90 131 178 230 277 322 388
#     4  10  24  46  71  90 140 172 224 285 332 416
#
# _framework density 21.025535999999999
#
# number of rings (size 3 to 8) (size 9 to 14) (size 15 to 20)
#    0.000    2.167    0.000    0.000   12.833    7.667 
#    6.000    0.000    0.000    0.000    0.000    0.000 
#    0.000    0.000    0.000    0.000    0.000    0.000 
#
# Total GULP energy -267624.735943 kJ/mol
# GULP energy per Si atom -5575.515332 kJ/mol
# Density = 2.097768 g / cm^3
# Si number density = 21.025536 Si / 1000 Ang^3
#
#
#
# Elastic Constant Matrix: (Units=GPa)
#
#
# Indices 1 2 3 4 5 6 
#
# 1 18.2810 82.5904 49.2861 0.0000 0.0000 0.0000
# 2 82.5904 18.2815 49.2866 0.0000 0.0000 0.0000
# 3 49.2861 49.2866 181.2173 0.0000 0.0000 0.0000
# 4 0.0000 0.0000 0.0000 23.9848 0.0000 0.0000
# 5 0.0000 0.0000 0.0000 0.0000 23.9852 0.0000
# 6 0.0000 0.0000 0.0000 0.0000 0.0000 35.2084
#
#
#
# Elastic Compliance Matrix: (Units=1/GPa)
#
#
# Indices 1 2 3 4 5 6 
#
# 1 -0.001024 0.014526 -0.003672 0.000000 0.000000 0.000000
# 2 0.014526 -0.001024 -0.003672 0.000000 0.000000 0.000000
# 3 -0.003672 -0.003672 0.007516 0.000000 0.000000 0.000000
# 4 0.000000 0.000000 0.000000 0.041693 0.000000 0.000000
# 5 0.000000 0.000000 0.000000 0.000000 0.041692 0.000000
# 6 0.000000 0.000000 0.000000 0.000000 0.000000 0.028402
#
#
# Mechanical properties :
#
#
# Convention : Reuss Voigt Hill
#
# Bulk Modulus (GPa) = 50.42591 64.45621 57.44106
# Shear Modulus (GPa) = 45.66082 19.07678 32.36880
#
# Velocity S-wave (km/s) = 4.66519 3.01543 3.92790
# Velocity P-wave (km/s) = 7.28381 6.54572 6.92461
#
# Compressibility (1/GPa) = 0.01983107
#
# Stress axis : x y z
#
# Youngs Moduli (GPa) = -976.63978 -976.69139 133.05428
#
# Poissons Ratio (x) = 14.18742 0.48861
# Poissons Ratio (y) = 14.18667 0.48860
# Poissons Ratio (z) = -3.58645 -3.58661
#
# Static dielectric constant tensor:
#      x y z
#    x 1.784060 0.000000 0.000000 
#    y 0.000000 1.784060 0.000000 
#    z 0.000000 0.000000 1.772530 
# 
# From -- ./inp_files/2767.got.cif
#   From: 2010.05.17/outbox.cif.g08.bks.cpg/sg120_2_cif.got.tgz:2767.got - 2010.05.20 11:28:13.
