data_PCOD9559043
_publ_section_title
;
Structure prediction by ZEFSAII (Michael W. Deem and Ramdas Pophale) SiO2 
 PCOD9559043
Probable space group: I -4 M 2
;
_chemical_formula_sum "Si O2"
_cell_formula_units_Z 80
_cell_length_a 22.770518
_cell_length_b 22.770518
_cell_length_c 9.272213
_cell_angle_alpha 90.000000
_cell_angle_beta 90.000000
_cell_angle_gamma 90.000000
_cell_volume 4807.609895
_symmetry_space_group_name_H-M "I -4 M 2"
_symmetry_group_IT_number 119
_symmetry_cell_setting 'tetragonal'
loop_
_space_group_symop_operation_xyz
x,y,z
y,-x,-z
-x,-y,z
-y,x,-z
y,x,-z
-y,-x,-z
-x,y,z
x,-y,z
1/2+x,1/2+y,1/2+z
1/2+y,1/2-x,1/2-z
1/2-x,1/2-y,1/2+z
1/2-y,1/2+x,1/2-z
1/2+y,1/2+x,1/2-z
1/2-y,1/2-x,1/2-z
1/2-x,1/2+y,1/2+z
1/2+x,1/2-y,1/2+z
loop_
_atom_site_type_symbol
_atom_site_label
_atom_site_fract_x
_atom_site_fract_y
_atom_site_fract_z
Si Si1 0.000000 0.239099 0.784830
Si Si2 0.801364 0.281090 0.920435
Si Si3 0.206766 0.500000 0.028359
Si Si4 0.000000 0.651470 0.006481
Si Si5 0.903851 0.187492 0.972946
Si Si6 0.236141 0.000000 0.814403
Si Si7 0.614782 0.870796 0.922461
O O1 0.945219 0.199817 0.836041
O O2 0.000000 0.261145 0.624274
O O3 0.000000 0.300050 0.878438
O O4 0.791228 0.291228 0.750000
O O5 0.850243 0.231321 0.945634
O O6 0.742748 0.257253 0.000000
O O7 0.830937 0.336500 0.998495
O O8 0.259534 0.500000 0.144625
O O9 0.163866 0.555248 0.047604
O O10 0.937940 0.617299 0.015322
O O11 0.000000 0.695115 0.142898
O O12 0.876201 0.123800 0.000000
O O13 0.943286 0.207551 0.109545
O O14 0.625742 0.874259 0.750000
#
# Coordination Sequence:
#
# PCOD9559043 Si02
#       7
#     8  16   8   8  16   8  16
#     4  10  20  38  56  83 113 144 186 224 291 329
#     4  11  21  33  52  79 108 141 184 237 288 344
#     4  12  24  33  57  82 111 152 186 249 278 328
#     4  10  20  37  55  72 107 156 180 241 262 332
#     4   9  18  36  60  76 106 150 186 219 281 352
#     4  10  18  38  54  81 109 146 184 224 285 329
#     4  12  21  37  55  77 109 147 201 230 290 327
#
# _framework density 16.640286
#
# number of rings (size 3 to 8) (size 9 to 14) (size 15 to 20)
#    0.000    1.600    6.000    1.800    0.000    2.000 
#    0.000    2.000    0.000    6.000    0.000    0.000 
#    0.000    6.400    0.000    0.000    0.000    0.000 
#
# Total GULP energy -222787.106630 kJ/mol
# GULP energy per Si atom -5569.677666 kJ/mol
# Density = 1.660241 g / cm^3
# Si number density = 16.640286 Si / 1000 Ang^3
#
#
#
# Elastic Constant Matrix: (Units=GPa)
#
#
# Indices 1 2 3 4 5 6 
#
# 1 106.1066 72.5350 57.5681 0.0000 0.0000 0.0000
# 2 72.5350 106.1070 57.5682 0.0000 0.0000 0.0000
# 3 57.5681 57.5682 154.1005 0.0000 0.0000 0.0000
# 4 0.0000 0.0000 0.0000 10.9746 0.0000 0.0000
# 5 0.0000 0.0000 0.0000 0.0000 10.9769 0.0000
# 6 0.0000 0.0000 0.0000 0.0000 0.0000 44.4659
#
#
#
# Elastic Compliance Matrix: (Units=1/GPa)
#
#
# Indices 1 2 3 4 5 6 
#
# 1 0.018580 -0.011207 -0.002754 0.000000 0.000000 0.000000
# 2 -0.011207 0.018580 -0.002754 0.000000 0.000000 0.000000
# 3 -0.002754 -0.002754 0.008547 0.000000 0.000000 0.000000
# 4 0.000000 0.000000 0.000000 0.091119 0.000000 0.000000
# 5 0.000000 0.000000 0.000000 0.000000 0.091100 0.000000
# 6 0.000000 0.000000 0.000000 0.000000 0.000000 0.022489
#
#
# Mechanical properties :
#
#
# Convention : Reuss Voigt Hill
#
# Bulk Modulus (GPa) = 81.46154 82.40630 81.93392
# Shear Modulus (GPa) = 17.36481 25.19302 21.27892
#
# Velocity S-wave (km/s) = 3.23389 3.89521 3.57985
# Velocity P-wave (km/s) = 7.93755 8.35822 8.15060
#
# Compressibility (1/GPa) = 0.01227573
#
# Stress axis : x y z
#
# Youngs Moduli (GPa) = 53.82136 53.82162 116.99735
#
# Poissons Ratio (x) = 0.60317 0.32226
# Poissons Ratio (y) = 0.60317 0.32225
# Poissons Ratio (z) = 0.14824 0.14824
#
# Static dielectric constant tensor:
#      x y z
#    x 1.472020 0.000000 0.000000 
#    y 0.000000 1.471880 0.000000 
#    z 0.000000 0.000000 1.577200 
# 
# From -- ./inp_files/2635.got.cif
#   From: 2010.05.17/outbox.cif.g08.bks.cpg/sg119_2_cif.got.tgz:2635.got - 2010.05.20 11:21:29.
