data_PCOD9559659
_publ_section_title
;
Structure prediction by ZEFSAII (Michael W. Deem and Ramdas Pophale) SiO2 
 PCOD9559659
Probable space group: I -4 C 2
;
_chemical_formula_sum "Si O2"
_cell_formula_units_Z 112
_cell_length_a 13.603879
_cell_length_b 13.603879
_cell_length_c 36.300938
_cell_angle_alpha 90.000000
_cell_angle_beta 90.000000
_cell_angle_gamma 90.000000
_cell_volume 6718.052107
_symmetry_space_group_name_H-M "I -4 C 2"
_symmetry_group_IT_number 120
_symmetry_cell_setting 'tetragonal'
loop_
_space_group_symop_operation_xyz
x,y,z
y,-x,-z
-x,-y,z
-y,x,-z
y,x,1/2-z
-y,-x,1/2-z
-x,y,1/2+z
x,-y,1/2+z
1/2+x,1/2+y,1/2+z
1/2+y,1/2-x,1/2-z
1/2-x,1/2-y,1/2+z
1/2-y,1/2+x,1/2-z
1/2+y,1/2+x,-z
1/2-y,1/2-x,-z
1/2-x,1/2+y,z
1/2+x,1/2-y,z
loop_
_atom_site_type_symbol
_atom_site_label
_atom_site_fract_x
_atom_site_fract_y
_atom_site_fract_z
Si Si1 0.458138 0.844513 0.294000
Si Si2 0.232737 0.632537 0.592403
Si Si3 0.458342 0.165394 0.711172
Si Si4 0.752382 0.925433 0.127924
Si Si5 0.735511 0.408327 0.361652
Si Si6 0.900979 0.452716 0.458011
Si Si7 0.782858 0.595940 0.412154
O O1 0.447830 0.799108 0.253212
O O2 0.567233 0.892114 0.294183
O O3 0.443848 0.778997 0.329845
O O4 0.377914 0.932371 0.295316
O O5 0.263592 0.526046 0.606034
O O6 0.173063 0.684568 0.625607
O O7 0.149252 0.626233 0.561244
O O8 0.326984 0.695732 0.580833
O O9 0.431072 0.245461 0.680951
O O10 0.853450 0.864921 0.128634
O O11 0.664422 0.865151 0.107619
O O12 0.752264 0.508445 0.384356
O O13 0.926346 0.426346 0.500000
O O14 0.821680 0.537119 0.448180
O O15 0.000000 0.500000 0.440993
#
# Coordination Sequence:
#
# PCOD9559659 Si02
#       7
#    16  16  16  16  16  16  16
#     4   9  17  27  49  73 104 139 182 240 292 337
#     4  10  21  36  56  83 111 142 181 228 281 330
#     4   9  16  29  46  75 103 138 185 240 293 329
#     4  11  19  32  54  78 104 151 188 227 283 338
#     4  10  20  31  54  77 105 147 189 231 283 332
#     4  10  20  38  62  88 114 145 181 222 269 327
#     4  10  21  37  55  84 112 140 181 235 272 329
#
# _framework density 16.671500000000002
#
# number of rings (size 3 to 8) (size 9 to 14) (size 15 to 20)
#    0.000    2.143    4.286    0.857    0.000    1.143 
#    2.571    0.000    0.000    0.857    0.000    2.000 
#    0.000    0.000    0.000    0.000    0.000    0.000 
#
# Total GULP energy -311895.149529 kJ/mol
# GULP energy per Si atom -5569.556242 kJ/mol
# Density = 1.663356 g / cm^3
# Si number density = 16.671500 Si / 1000 Ang^3
#
#
#
# Elastic Constant Matrix: (Units=GPa)
#
#
# Indices 1 2 3 4 5 6 
#
# 1 88.5141 64.9962 36.8939 0.0000 0.0000 0.0000
# 2 64.9962 88.5141 36.8939 0.0000 0.0000 0.0000
# 3 36.8939 36.8939 82.3838 0.0000 0.0000 0.0000
# 4 0.0000 0.0000 0.0000 11.0912 0.0000 0.0000
# 5 0.0000 0.0000 0.0000 0.0000 11.0912 0.0000
# 6 0.0000 0.0000 0.0000 0.0000 0.0000 29.1833
#
#
#
# Elastic Compliance Matrix: (Units=1/GPa)
#
#
# Indices 1 2 3 4 5 6 
#
# 1 0.025411 -0.017110 -0.003717 0.000000 0.000000 0.000000
# 2 -0.017110 0.025411 -0.003717 0.000000 0.000000 0.000000
# 3 -0.003717 -0.003717 0.015468 0.000000 0.000000 0.000000
# 4 0.000000 0.000000 0.000000 0.090161 0.000000 0.000000
# 5 0.000000 0.000000 0.000000 0.000000 0.090161 0.000000
# 6 0.000000 0.000000 0.000000 0.000000 0.000000 0.034266
#
#
# Mechanical properties :
#
#
# Convention : Reuss Voigt Hill
#
# Bulk Modulus (GPa) = 58.13889 59.66444 58.90167
# Shear Modulus (GPa) = 14.89419 18.31502 16.60460
#
# Velocity S-wave (km/s) = 2.99221 3.31808 3.15935
# Velocity P-wave (km/s) = 6.84739 7.10954 6.97969
#
# Compressibility (1/GPa) = 0.01720019
#
# Stress axis : x y z
#
# Youngs Moduli (GPa) = 39.35308 39.35308 64.65002
#
# Poissons Ratio (x) = 0.67333 0.24034
# Poissons Ratio (y) = 0.67333 0.24034
# Poissons Ratio (z) = 0.14629 0.14629
#
# Static dielectric constant tensor:
#      x y z
#    x 1.560850 0.000000 0.000000 
#    y 0.000000 1.560850 0.000000 
#    z 0.000000 0.000000 1.567570 
# 
# From -- ./inp_files/6680.got.cif
#   From: 2010.05.17/outbox.cif.g08.bks.cpg/sg120_4_cif.got.tgz:6680.got - 2010.05.20 11:28:13.
