data_PCOD9559995
_publ_section_title
;
Structure prediction by ZEFSAII (Michael W. Deem and Ramdas Pophale) SiO2 
 PCOD9559995
Probable space group: I -4 C 2
;
_chemical_formula_sum "Si O2"
_cell_formula_units_Z 64
_cell_length_a 15.358818
_cell_length_b 15.358818
_cell_length_c 14.267390
_cell_angle_alpha 90.000000
_cell_angle_beta 90.000000
_cell_angle_gamma 90.000000
_cell_volume 3365.581572
_symmetry_space_group_name_H-M "I -4 C 2"
_symmetry_group_IT_number 120
_symmetry_cell_setting 'tetragonal'
loop_
_space_group_symop_operation_xyz
x,y,z
y,-x,-z
-x,-y,z
-y,x,-z
y,x,1/2-z
-y,-x,1/2-z
-x,y,1/2+z
x,-y,1/2+z
1/2+x,1/2+y,1/2+z
1/2+y,1/2-x,1/2-z
1/2-x,1/2-y,1/2+z
1/2-y,1/2+x,1/2-z
1/2+y,1/2+x,-z
1/2-y,1/2-x,-z
1/2-x,1/2+y,z
1/2+x,1/2-y,z
loop_
_atom_site_type_symbol
_atom_site_label
_atom_site_fract_x
_atom_site_fract_y
_atom_site_fract_z
Si Si1 0.098092 0.598092 0.000000
Si Si2 0.096376 0.903625 0.750000
Si Si3 0.096374 0.096374 0.750000
Si Si4 0.346075 0.272066 0.096045
Si Si5 0.772065 0.153925 0.903955
Si Si6 0.598091 0.098091 0.000000
O O1 0.109478 0.680321 0.069543
O O2 0.104786 0.500000 0.041106
O O3 0.168873 0.893756 0.829313
O O4 0.000001 0.895820 0.792834
O O5 0.106244 0.168871 0.670687
O O6 0.250000 0.250000 0.133578
O O7 0.325650 0.325651 1.000000
O O8 0.680320 0.109478 0.930456
#
# Coordination Sequence:
#
# PCOD9559995 Si02
#       6
#     8   8   8  16  16   8
#     4   9  17  32  58  86 109 141 182 222 272 329
#     4  11  23  36  54  82 113 147 186 224 266 321
#     4  11  23  36  54  82 113 147 186 224 266 321
#     4   9  20  37  56  79 110 146 181 224 274 321
#     4   9  20  37  56  79 110 146 181 224 274 321
#     4   9  17  32  58  86 109 141 182 222 272 329
#
# _framework density 19.016029
#
# number of rings (size 3 to 8) (size 9 to 14) (size 15 to 20)
#    0.000    3.000    0.000    2.250    0.000   10.000 
#    0.000    2.500    0.000    3.000    0.000   28.000 
#    0.000    0.000    0.000    0.000    0.000    0.000 
#
# Total GULP energy -178195.724736 kJ/mol
# GULP energy per Si atom -5568.616398 kJ/mol
# Density = 1.897275 g / cm^3
# Si number density = 19.016029 Si / 1000 Ang^3
#
#
#
# Elastic Constant Matrix: (Units=GPa)
#
#
# Indices 1 2 3 4 5 6 
#
# 1 130.7281 72.1540 43.9455 0.0000 0.0000 0.0000
# 2 72.1540 130.7283 43.9450 0.0000 0.0000 0.0000
# 3 43.9455 43.9450 62.1744 0.0000 0.0000 0.0000
# 4 0.0000 0.0000 0.0000 7.4587 0.0000 0.0000
# 5 0.0000 0.0000 0.0000 0.0000 7.4597 0.0000
# 6 0.0000 0.0000 0.0000 0.0000 0.0000 30.6958
#
#
#
# Elastic Compliance Matrix: (Units=1/GPa)
#
#
# Indices 1 2 3 4 5 6 
#
# 1 0.012088 -0.004984 -0.005021 0.000000 0.000000 0.000000
# 2 -0.004984 0.012088 -0.005021 0.000000 0.000000 0.000000
# 3 -0.005021 -0.005021 0.023182 0.000000 0.000000 0.000000
# 4 0.000000 0.000000 0.000000 0.134072 0.000000 0.000000
# 5 0.000000 0.000000 0.000000 0.000000 0.134054 0.000000
# 6 0.000000 0.000000 0.000000 0.000000 0.000000 0.032578
#
#
# Mechanical properties :
#
#
# Convention : Reuss Voigt Hill
#
# Bulk Modulus (GPa) = 57.78616 71.52444 64.65530
# Shear Modulus (GPa) = 13.02474 20.02859 16.52667
#
# Velocity S-wave (km/s) = 2.61997 3.24890 2.95123
# Velocity P-wave (km/s) = 6.29336 7.19501 6.75924
#
# Compressibility (1/GPa) = 0.01730518
#
# Stress axis : x y z
#
# Youngs Moduli (GPa) = 82.72418 82.72503 43.13694
#
# Poissons Ratio (x) = 0.41231 0.21661
# Poissons Ratio (y) = 0.41230 0.21660
# Poissons Ratio (z) = 0.41540 0.41538
#
# Static dielectric constant tensor:
#      x y z
#    x 1.681150 0.000000 0.000000 
#    y 0.000000 1.681150 0.000000 
#    z 0.000000 0.000000 1.639780 
# 
# From -- ./inp_files/4223.got.cif
#   From: 2010.05.17/outbox.cif.g08.bks.cpg/sg120_3_cif.got.tgz:4223.got - 2010.05.20 11:28:13.
