data_PCOD9559089
_publ_section_title
;
Structure prediction by ZEFSAII (Michael W. Deem and Ramdas Pophale) SiO2 
 PCOD9559089
Probable space group: I -4 M 2
;
_chemical_formula_sum "Si O2"
_cell_formula_units_Z 112
_cell_length_a 17.932823
_cell_length_b 17.932823
_cell_length_c 21.389259
_cell_angle_alpha 90.000000
_cell_angle_beta 90.000000
_cell_angle_gamma 90.000000
_cell_volume 6878.489255
_symmetry_space_group_name_H-M "I -4 M 2"
_symmetry_group_IT_number 119
_symmetry_cell_setting 'tetragonal'
loop_
_space_group_symop_operation_xyz
x,y,z
y,-x,-z
-x,-y,z
-y,x,-z
y,x,-z
-y,-x,-z
-x,y,z
x,-y,z
1/2+x,1/2+y,1/2+z
1/2+y,1/2-x,1/2-z
1/2-x,1/2-y,1/2+z
1/2-y,1/2+x,1/2-z
1/2+y,1/2+x,1/2-z
1/2-y,1/2-x,1/2-z
1/2-x,1/2+y,1/2+z
1/2+x,1/2-y,1/2+z
loop_
_atom_site_type_symbol
_atom_site_label
_atom_site_fract_x
_atom_site_fract_y
_atom_site_fract_z
Si Si1 0.209289 0.212748 0.310418
Si Si2 0.081998 0.589002 0.561203
Si Si3 0.741429 0.085769 0.112911
Si Si4 0.202044 0.230102 0.068416
Si Si5 0.085366 0.290793 0.743250
Si Si6 0.677119 0.913415 0.697539
Si Si7 0.641318 0.088278 0.922386
O O1 0.249752 0.250249 0.250000
O O2 0.239239 0.248203 0.374480
O O3 0.234518 0.127723 0.303296
O O4 0.124729 0.241347 0.305883
O O5 0.079055 0.500000 0.573105
O O6 0.157471 0.613884 0.595722
O O7 0.097782 0.599054 0.487566
O O8 0.000000 0.619691 0.577980
O O9 0.799894 0.141741 0.081779
O O10 0.745963 0.087108 0.187691
O O11 0.748062 0.000000 0.091302
O O12 0.125888 0.277139 0.070226
O O13 0.238220 0.238220 0.000000
O O14 0.133265 0.366736 0.750000
O O15 0.000000 0.305867 0.726789
O O16 0.630416 0.869585 0.750000
O O17 0.632891 0.898959 0.633033
O O18 0.680998 0.000000 0.711784
O O19 0.645300 0.000000 0.909618
#
# Coordination Sequence:
#
# PCOD9559089 Si02
#       7
#    16  16  16  16  16  16  16
#     4   9  18  35  51  69 101 135 173 208 253 305
#     4   9  17  29  44  66 100 131 155 195 249 302
#     4  10  19  32  49  72  98 132 174 211 252 302
#     4  11  19  31  52  72  96 135 178 214 248 309
#     4  10  19  33  53  74 103 138 172 213 259 303
#     4  10  20  32  49  72  98 129 163 206 252 306
#     4  10  20  31  47  71  98 132 168 201 255 315
#
# _framework density 16.282644999999999
#
# number of rings (size 3 to 8) (size 9 to 14) (size 15 to 20)
#    0.000    2.143    4.286    0.857    0.000    2.286 
#    0.000    1.429    0.000    0.857    0.000    3.000 
#    0.000    0.000    0.000    2.571    0.000    0.000 
#
# Total GULP energy -311871.722509 kJ/mol
# GULP energy per Si atom -5569.137902 kJ/mol
# Density = 1.624558 g / cm^3
# Si number density = 16.282645 Si / 1000 Ang^3
#
#
#
# Elastic Constant Matrix: (Units=GPa)
#
#
# Indices 1 2 3 4 5 6 
#
# 1 62.7933 64.8386 2.5848 0.0000 0.0000 0.0000
# 2 64.8386 62.7890 2.5802 0.0000 0.0000 0.0000
# 3 2.5848 2.5802 61.3527 0.0000 0.0000 0.0000
# 4 0.0000 0.0000 0.0000 18.3240 0.0000 0.0000
# 5 0.0000 0.0000 0.0000 0.0000 18.3240 0.0000
# 6 0.0000 0.0000 0.0000 0.0000 0.0000 16.7401
#
#
#
# Elastic Compliance Matrix: (Units=1/GPa)
#
#
# Indices 1 2 3 4 5 6 
#
# 1 -0.240270 0.248126 -0.000312 0.000000 0.000000 0.000000
# 2 0.248126 -0.240285 -0.000348 0.000000 0.000000 0.000000
# 3 -0.000312 -0.000348 0.016327 0.000000 0.000000 0.000000
# 4 0.000000 0.000000 0.000000 0.054573 0.000000 0.000000
# 5 0.000000 0.000000 0.000000 0.000000 0.054573 0.000000
# 6 0.000000 0.000000 0.000000 0.000000 0.000000 0.059737
#
#
# Mechanical properties :
#
#
# Convention : Reuss Voigt Hill
#
# Bulk Modulus (GPa) = 32.57053 36.32693 34.44873
# Shear Modulus (GPa) = -6.40992 18.47305 6.03156
#
# Velocity S-wave (km/s) = -1.98625 3.37192 1.92674
# Velocity P-wave (km/s) = 3.84530 6.12523 5.11394
#
# Compressibility (1/GPa) = 0.03070260
#
# Stress axis : x y z
#
# Youngs Moduli (GPa) = -4.16199 -4.16173 61.24817
#
# Poissons Ratio (x) = 1.03263 0.01913
# Poissons Ratio (y) = 1.03270 0.02133
# Poissons Ratio (z) = -0.00130 -0.00145
#
# Static dielectric constant tensor:
#      x y z
#    x 1.563720 0.000000 0.000000 
#    y 0.000000 1.563720 0.000000 
#    z 0.000000 0.000000 1.587140 
# 
# From -- ./inp_files/7997.got.cif
#   From: 2010.05.17/outbox.cif.g08.bks.cpg/sg119_4_cif.got.tgz:7997.got - 2010.05.20 11:21:29.
