data_PCOD9559862
_publ_section_title
;
Structure prediction by ZEFSAII (Michael W. Deem and Ramdas Pophale) SiO2 
 PCOD9559862
Probable space group: I -4 C 2
;
_chemical_formula_sum "Si O2"
_cell_formula_units_Z 60
_cell_length_a 13.202989
_cell_length_b 13.202989
_cell_length_c 14.670063
_cell_angle_alpha 90.000000
_cell_angle_beta 90.000000
_cell_angle_gamma 90.000000
_cell_volume 2557.269517
_symmetry_space_group_name_H-M "I -4 C 2"
_symmetry_group_IT_number 120
_symmetry_cell_setting 'tetragonal'
loop_
_space_group_symop_operation_xyz
x,y,z
y,-x,-z
-x,-y,z
-y,x,-z
y,x,1/2-z
-y,-x,1/2-z
-x,y,1/2+z
x,-y,1/2+z
1/2+x,1/2+y,1/2+z
1/2+y,1/2-x,1/2-z
1/2-x,1/2-y,1/2+z
1/2-y,1/2+x,1/2-z
1/2+y,1/2+x,-z
1/2-y,1/2-x,-z
1/2-x,1/2+y,z
1/2+x,1/2-y,z
loop_
_atom_site_type_symbol
_atom_site_label
_atom_site_fract_x
_atom_site_fract_y
_atom_site_fract_z
Si Si1 0.640122 0.830123 0.806401
Si Si2 0.971386 0.188816 0.275696
Si Si3 0.860700 0.939321 0.524746
Si Si4 0.500000 0.000000 0.250000
Si Si5 0.734776 0.765225 0.000000
O O1 0.729632 0.884965 0.750211
O O2 0.580600 0.739687 0.751480
O O3 0.686610 0.807720 0.906111
O O4 0.554092 0.916284 0.811918
O O5 0.919279 0.080722 0.250000
O O6 0.986425 0.180036 0.383626
O O7 0.786060 0.853467 0.494365
O O8 0.968775 0.884204 0.542584
#
# Coordination Sequence:
#
# PCOD9559862 Si02
#       5
#    16  16  16   4   8
#     4  10  22  41  70 103 139 188 235 298 360 425
#     4  11  22  44  71 102 145 184 237 295 363 437
#     4  11  25  46  69 102 147 185 238 296 360 428
#     4   8  20  42  64 100 148 166 244 300 356 426
#     4  12  22  43  72 101 142 192 242 288 352 438
#
# _framework density 23.462524999999999
#
# number of rings (size 3 to 8) (size 9 to 14) (size 15 to 20)
#    0.000    1.333    5.333    0.000    0.000    2.667 
#    4.800    2.667    0.000    0.000    0.000    0.000 
#    0.000    0.000    0.000    0.000    0.000    0.000 
#
# Total GULP energy -167283.442274 kJ/mol
# GULP energy per Si atom -5576.114742 kJ/mol
# Density = 2.340912 g / cm^3
# Si number density = 23.462525 Si / 1000 Ang^3
#
#
#
# Elastic Constant Matrix: (Units=GPa)
#
#
# Indices 1 2 3 4 5 6 
#
# 1 83.3236 62.3023 -3.6820 0.0000 0.0000 0.0000
# 2 62.3023 83.3230 -3.6832 0.0000 0.0000 0.0000
# 3 -3.6820 -3.6832 44.9853 0.0000 0.0000 0.0000
# 4 0.0000 0.0000 0.0000 23.6217 0.0000 0.0000
# 5 0.0000 0.0000 0.0000 0.0000 23.6212 0.0000
# 6 0.0000 0.0000 0.0000 0.0000 0.0000 68.6666
#
#
#
# Elastic Compliance Matrix: (Units=1/GPa)
#
#
# Indices 1 2 3 4 5 6 
#
# 1 0.027233 -0.020338 0.000564 0.000000 0.000000 0.000000
# 2 -0.020338 0.027234 0.000565 0.000000 0.000000 0.000000
# 3 0.000564 0.000565 0.022322 0.000000 0.000000 0.000000
# 4 0.000000 0.000000 0.000000 0.042334 0.000000 0.000000
# 5 0.000000 0.000000 0.000000 0.000000 0.042335 0.000000
# 6 0.000000 0.000000 0.000000 0.000000 0.000000 0.014563
#
#
# Mechanical properties :
#
#
# Convention : Reuss Voigt Hill
#
# Bulk Modulus (GPa) = 26.06148 35.72289 30.89218
# Shear Modulus (GPa) = 22.00425 33.62823 27.81624
#
# Velocity S-wave (km/s) = 3.06575 3.78997 3.44693
# Velocity P-wave (km/s) = 4.86452 5.86604 5.38860
#
# Compressibility (1/GPa) = 0.03837081
#
# Stress axis : x y z
#
# Youngs Moduli (GPa) = 36.71978 36.71943 44.79901
#
# Poissons Ratio (x) = 0.74680 -0.02526
# Poissons Ratio (y) = 0.74680 -0.02532
# Poissons Ratio (z) = -0.02070 -0.02075
#
# Static dielectric constant tensor:
#      x y z
#    x 1.928420 0.000000 0.000000 
#    y 0.000000 1.928420 0.000000 
#    z 0.000000 0.000000 1.829450 
# 
# From -- ./inp_files/3335.got.cif
#   From: 2010.05.17/outbox.cif.g08.bks.cpg/sg120_2_cif.got.tgz:3335.got - 2010.05.20 11:28:13.
