data_PCOD9559844
_publ_section_title
;
Structure prediction by ZEFSAII (Michael W. Deem and Ramdas Pophale) SiO2 
 PCOD9559844
Probable space group: I -4 C 2
;
_chemical_formula_sum "Si O2"
_cell_formula_units_Z 112
_cell_length_a 15.195584
_cell_length_b 15.195584
_cell_length_c 22.611068
_cell_angle_alpha 90.000000
_cell_angle_beta 90.000000
_cell_angle_gamma 90.000000
_cell_volume 5221.026137
_symmetry_space_group_name_H-M "I -4 C 2"
_symmetry_group_IT_number 120
_symmetry_cell_setting 'tetragonal'
loop_
_space_group_symop_operation_xyz
x,y,z
y,-x,-z
-x,-y,z
-y,x,-z
y,x,1/2-z
-y,-x,1/2-z
-x,y,1/2+z
x,-y,1/2+z
1/2+x,1/2+y,1/2+z
1/2+y,1/2-x,1/2-z
1/2-x,1/2-y,1/2+z
1/2-y,1/2+x,1/2-z
1/2+y,1/2+x,-z
1/2-y,1/2-x,-z
1/2-x,1/2+y,z
1/2+x,1/2-y,z
loop_
_atom_site_type_symbol
_atom_site_label
_atom_site_fract_x
_atom_site_fract_y
_atom_site_fract_z
Si Si1 0.646549 0.594131 0.620242
Si Si2 0.859103 0.275271 0.770716
Si Si3 0.895017 0.953749 0.539031
Si Si4 0.441490 0.083264 0.157100
Si Si5 0.254543 0.310052 0.064147
Si Si6 0.084892 0.719327 0.638849
Si Si7 0.322801 0.872791 0.563724
O O1 0.704776 0.603520 0.680686
O O2 0.596584 0.506886 0.600907
O O3 0.585679 0.679951 0.618138
O O4 0.720951 0.601725 0.569052
O O5 0.763593 0.236408 0.750000
O O6 0.872068 0.373801 0.796375
O O7 0.911561 0.276204 0.709776
O O8 0.810589 0.895220 0.550664
O O9 0.894668 0.023990 0.484657
O O10 0.504387 0.155589 0.127145
O O11 0.375415 0.059270 0.104039
O O12 0.500000 0.000000 0.177185
O O13 0.174504 0.318968 0.110001
O O14 0.315839 0.228935 0.086949
O O15 0.219229 0.280772 0.000000
O O16 0.364589 0.864589 0.500000
#
# Coordination Sequence:
#
# PCOD9559844 Si02
#       7
#    16  16  16  16  16  16  16
#     4   9  20  40  63  89 129 179 235 280 348 436
#     4   9  21  43  66  89 131 185 232 283 361 453
#     4  11  23  37  63  99 133 180 238 302 357 421
#     4  11  25  37  60 102 130 166 230 304 358 421
#     4  10  22  40  63  94 130 184 230 277 360 449
#     4  10  22  39  64  95 130 181 227 290 369 434
#     4   9  19  38  60  81 130 177 214 270 348 443
#
# _framework density 21.451720999999999
#
# number of rings (size 3 to 8) (size 9 to 14) (size 15 to 20)
#    0.000    2.143    0.000    3.429    6.000    6.000 
#    0.000    0.000    0.000    0.000    0.000   22.000 
#    0.000    0.000    0.000    0.000    0.000    0.000 
#
# Total GULP energy -311787.615511 kJ/mol
# GULP energy per Si atom -5567.635991 kJ/mol
# Density = 2.140290 g / cm^3
# Si number density = 21.451721 Si / 1000 Ang^3
#
#
#
# Elastic Constant Matrix: (Units=GPa)
#
#
# Indices 1 2 3 4 5 6 
#
# 1 90.4441 74.1331 36.9376 0.0000 0.0000 0.0000
# 2 74.1331 90.4445 36.9372 0.0000 0.0000 0.0000
# 3 36.9376 36.9372 93.2377 0.0000 0.0000 0.0000
# 4 0.0000 0.0000 0.0000 21.9263 0.0000 0.0000
# 5 0.0000 0.0000 0.0000 0.0000 21.9279 0.0000
# 6 0.0000 0.0000 0.0000 0.0000 0.0000 34.3604
#
#
#
# Elastic Compliance Matrix: (Units=1/GPa)
#
#
# Indices 1 2 3 4 5 6 
#
# 1 0.034349 -0.026958 -0.002928 0.000000 0.000000 0.000000
# 2 -0.026958 0.034349 -0.002928 0.000000 0.000000 0.000000
# 3 -0.002928 -0.002928 0.013045 0.000000 0.000000 0.000000
# 4 0.000000 0.000000 0.000000 0.045607 0.000000 0.000000
# 5 0.000000 0.000000 0.000000 0.000000 0.045604 0.000000
# 6 0.000000 0.000000 0.000000 0.000000 0.000000 0.029103
#
#
# Mechanical properties :
#
#
# Convention : Reuss Voigt Hill
#
# Bulk Modulus (GPa) = 62.05548 63.34913 62.70230
# Shear Modulus (GPa) = 18.31120 24.05082 21.18101
#
# Velocity S-wave (km/s) = 2.92481 3.35201 3.14567
# Velocity P-wave (km/s) = 6.35585 6.67656 6.51817
#
# Compressibility (1/GPa) = 0.01611461
#
# Stress axis : x y z
#
# Youngs Moduli (GPa) = 29.11296 29.11321 76.65744
#
# Poissons Ratio (x) = 0.78485 0.22445
# Poissons Ratio (y) = 0.78484 0.22443
# Poissons Ratio (z) = 0.08524 0.08523
#
# Static dielectric constant tensor:
#      x y z
#    x 1.854790 0.000000 0.000000 
#    y 0.000000 1.854790 0.000000 
#    z 0.000000 0.000000 1.819010 
# 
# From -- ./inp_files/5939.got.cif
#   From: 2010.05.17/outbox.cif.g08.bks.cpg/sg120_3_cif.got.tgz:5939.got - 2010.05.20 11:28:13.
