data_PCOD9559528
_publ_section_title
;
Structure prediction by ZEFSAII (Michael W. Deem and Ramdas Pophale) SiO2 
 PCOD9559528
Probable space group: I -4 M 2
;
_chemical_formula_sum "Si O2"
_cell_formula_units_Z 26
_cell_length_a 10.829634
_cell_length_b 10.829634
_cell_length_c 8.978638
_cell_angle_alpha 90.000000
_cell_angle_beta 90.000000
_cell_angle_gamma 90.000000
_cell_volume 1053.023397
_symmetry_space_group_name_H-M "I -4 M 2"
_symmetry_group_IT_number 119
_symmetry_cell_setting 'tetragonal'
loop_
_space_group_symop_operation_xyz
x,y,z
y,-x,-z
-x,-y,z
-y,x,-z
y,x,-z
-y,-x,-z
-x,y,z
x,-y,z
1/2+x,1/2+y,1/2+z
1/2+y,1/2-x,1/2-z
1/2-x,1/2-y,1/2+z
1/2-y,1/2+x,1/2-z
1/2+y,1/2+x,1/2-z
1/2-y,1/2-x,1/2-z
1/2-x,1/2+y,1/2+z
1/2+x,1/2-y,1/2+z
loop_
_atom_site_type_symbol
_atom_site_label
_atom_site_fract_x
_atom_site_fract_y
_atom_site_fract_z
Si Si1 0.772080 0.227921 0.000000
Si Si2 0.723468 0.000000 0.482602
Si Si3 0.644240 0.500000 0.695155
Si Si4 0.500000 0.000000 0.250000
O O1 0.632058 0.215847 0.937841
O O2 0.794938 0.121398 0.121624
O O3 0.614893 0.000000 0.360159
O O4 0.839821 0.000000 0.371939
O O5 0.500000 0.500000 0.660758
#
# Coordination Sequence:
#
# PCOD9559528 Si02
#       4
#     8   8   8   2
#     4  12  23  45  70 100 132 184 224 285 345 406
#     4  12  26  42  70 101 136 177 232 290 336 413
#     4  12  24  46  68  97 136 183 227 278 348 416
#     4  12  20  44  68  92 134 172 228 288 344 376
#
# _framework density 24.690811
#
# number of rings (size 3 to 8) (size 9 to 14) (size 15 to 20)
#    0.000    0.000    9.231    0.000    4.308    0.000 
#    0.000    0.000    0.000    0.000    0.000    0.000 
#    0.000    0.000    0.000    0.000    0.000    0.000 
#
# Total GULP energy -72778.802937 kJ/mol
# GULP energy per Si atom -5598.369457 kJ/mol
# Density = 2.463461 g / cm^3
# Si number density = 24.690811 Si / 1000 Ang^3
#
#
#
# Elastic Constant Matrix: (Units=GPa)
#
#
# Indices 1 2 3 4 5 6 
#
# 1 234.1680 36.9542 34.1440 0.0000 0.0000 0.0000
# 2 36.9542 234.1685 34.1432 0.0000 0.0000 0.0000
# 3 34.1440 34.1432 73.9821 0.0000 0.0000 0.0000
# 4 0.0000 0.0000 0.0000 32.7756 0.0000 0.0000
# 5 0.0000 0.0000 0.0000 0.0000 32.7755 0.0000
# 6 0.0000 0.0000 0.0000 0.0000 0.0000 25.1791
#
#
#
# Elastic Compliance Matrix: (Units=1/GPa)
#
#
# Indices 1 2 3 4 5 6 
#
# 1 0.004622 -0.000449 -0.001926 0.000000 0.000000 0.000000
# 2 -0.000449 0.004622 -0.001926 0.000000 0.000000 0.000000
# 3 -0.001926 -0.001926 0.015295 0.000000 0.000000 0.000000
# 4 0.000000 0.000000 0.000000 0.030511 0.000000 0.000000
# 5 0.000000 0.000000 0.000000 0.000000 0.030511 0.000000
# 6 0.000000 0.000000 0.000000 0.000000 0.000000 0.039715
#
#
# Mechanical properties :
#
#
# Convention : Reuss Voigt Hill
#
# Bulk Modulus (GPa) = 62.74645 83.64460 73.19553
# Shear Modulus (GPa) = 35.92231 47.28453 41.60342
#
# Velocity S-wave (km/s) = 3.81843 4.38089 4.10930
# Velocity P-wave (km/s) = 6.70139 7.71622 7.22664
#
# Compressibility (1/GPa) = 0.01593716
#
# Stress axis : x y z
#
# Youngs Moduli (GPa) = 216.35284 216.35412 65.38242
#
# Poissons Ratio (x) = 0.09705 0.12594
# Poissons Ratio (y) = 0.09705 0.12593
# Poissons Ratio (z) = 0.41673 0.41672
#
# Static dielectric constant tensor:
#      x y z
#    x 2.040890 0.000000 0.000000 
#    y 0.000000 2.040890 0.000000 
#    z 0.000000 0.000000 1.878180 
# 
# From -- ./inp_files/1342.got.cif
#   From: 2010.05.17/outbox.cif.g08.bks.cpg/sg119_1_cif.got.tgz:1342.got - 2010.05.20 11:21:29.
