data_PCOD9559049
_publ_section_title
;
Structure prediction by ZEFSAII (Michael W. Deem and Ramdas Pophale) SiO2 
 PCOD9559049
Probable space group: I -4 M 2
;
_chemical_formula_sum "Si O2"
_cell_formula_units_Z 80
_cell_length_a 13.807668
_cell_length_b 13.807668
_cell_length_c 27.411081
_cell_angle_alpha 90.000000
_cell_angle_beta 90.000000
_cell_angle_gamma 90.000000
_cell_volume 5225.969071
_symmetry_space_group_name_H-M "I -4 M 2"
_symmetry_group_IT_number 119
_symmetry_cell_setting 'tetragonal'
loop_
_space_group_symop_operation_xyz
x,y,z
y,-x,-z
-x,-y,z
-y,x,-z
y,x,-z
-y,-x,-z
-x,y,z
x,-y,z
1/2+x,1/2+y,1/2+z
1/2+y,1/2-x,1/2-z
1/2-x,1/2-y,1/2+z
1/2-y,1/2+x,1/2-z
1/2+y,1/2+x,1/2-z
1/2-y,1/2-x,1/2-z
1/2-x,1/2+y,1/2+z
1/2+x,1/2-y,1/2+z
loop_
_atom_site_type_symbol
_atom_site_label
_atom_site_fract_x
_atom_site_fract_y
_atom_site_fract_z
Si Si1 0.886069 0.293225 0.296581
Si Si2 0.803148 0.116817 0.550457
Si Si3 0.891833 0.617308 0.101329
Si Si4 0.308455 0.386355 0.849342
Si Si5 0.883079 0.391043 0.694226
O O1 0.825411 0.325411 0.250000
O O2 0.856972 0.356281 0.344200
O O3 0.868213 0.182925 0.313244
O O4 0.000000 0.309400 0.287254
O O5 0.839597 0.160404 0.500000
O O6 0.692478 0.145079 0.563703
O O7 0.865630 0.155086 0.596143
O O8 0.809633 0.000000 0.549028
O O9 0.894253 0.500000 0.100541
O O10 0.000000 0.653142 0.091246
O O11 0.317837 0.500000 0.838013
O O12 0.195806 0.356380 0.841745
O O13 0.845305 0.500000 0.684704
O O14 0.860708 0.360708 0.750000
O O15 0.000000 0.397805 0.692820
#
# Coordination Sequence:
#
# PCOD9559049 Si02
#       5
#    16  16  16  16  16
#     4  10  19  29  44  67  92 119 151 183 220 269
#     4  10  20  32  46  64  87 117 150 182 221 270
#     4   8  15  29  47  65  86 111 139 177 223 263
#     4  10  19  30  45  66  92 120 152 188 223 264
#     4   8  14  26  44  64  88 119 149 178 218 264
#
# _framework density 15.308165000000001
#
# number of rings (size 3 to 8) (size 9 to 14) (size 15 to 20)
#    0.000    2.800    0.000    4.200    0.000    3.600 
#    0.000    1.000    0.000    4.800    0.000    0.000 
#    0.000   15.600    0.000    0.000    0.000    0.000 
#
# Total GULP energy -222694.021010 kJ/mol
# GULP energy per Si atom -5567.350525 kJ/mol
# Density = 1.527332 g / cm^3
# Si number density = 15.308165 Si / 1000 Ang^3
#
#
#
# Elastic Constant Matrix: (Units=GPa)
#
#
# Indices 1 2 3 4 5 6 
#
# 1 77.6718 22.7329 48.1349 0.0000 0.0000 0.0000
# 2 22.7329 77.6717 48.1353 0.0000 0.0000 0.0000
# 3 48.1349 48.1353 112.6408 0.0000 0.0000 0.0000
# 4 0.0000 0.0000 0.0000 13.2074 0.0000 0.0000
# 5 0.0000 0.0000 0.0000 0.0000 13.2089 0.0000
# 6 0.0000 0.0000 0.0000 0.0000 0.0000 14.0548
#
#
#
# Elastic Compliance Matrix: (Units=1/GPa)
#
#
# Indices 1 2 3 4 5 6 
#
# 1 0.017538 -0.000664 -0.007210 0.000000 0.000000 0.000000
# 2 -0.000664 0.017538 -0.007211 0.000000 0.000000 0.000000
# 3 -0.007210 -0.007211 0.015040 0.000000 0.000000 0.000000
# 4 0.000000 0.000000 0.000000 0.075715 0.000000 0.000000
# 5 0.000000 0.000000 0.000000 0.000000 0.075707 0.000000
# 6 0.000000 0.000000 0.000000 0.000000 0.000000 0.071150
#
#
# Mechanical properties :
#
#
# Convention : Reuss Voigt Hill
#
# Bulk Modulus (GPa) = 50.13816 56.22118 53.17967
# Shear Modulus (GPa) = 16.15474 18.02629 17.09051
#
# Velocity S-wave (km/s) = 3.25207 3.43528 3.34493
# Velocity P-wave (km/s) = 6.85018 7.24851 7.05216
#
# Compressibility (1/GPa) = 0.01994489
#
# Stress axis : x y z
#
# Youngs Moduli (GPa) = 57.02033 57.01984 66.48778
#
# Poissons Ratio (x) = 0.03788 0.47941
# Poissons Ratio (y) = 0.03788 0.47942
# Poissons Ratio (z) = 0.41114 0.41115
#
# Static dielectric constant tensor:
#      x y z
#    x 1.526370 0.000000 0.000000 
#    y 0.000000 1.526370 0.000000 
#    z 0.000000 0.000000 1.492100 
# 
# From -- ./inp_files/8607.got.cif
#   From: 2010.05.17/outbox.cif.g08.bks.cpg/sg119_5_cif.got.tgz:8607.got - 2010.05.20 11:21:29.
