data_PCOD9559963
_publ_section_title
;
Structure prediction by ZEFSAII (Michael W. Deem and Ramdas Pophale) SiO2 
 PCOD9559963
Probable space group: I -4 C 2
;
_chemical_formula_sum "Si O2"
_cell_formula_units_Z 64
_cell_length_a 12.886313
_cell_length_b 12.886313
_cell_length_c 15.012652
_cell_angle_alpha 90.000000
_cell_angle_beta 90.000000
_cell_angle_gamma 90.000000
_cell_volume 2492.956895
_symmetry_space_group_name_H-M "I -4 C 2"
_symmetry_group_IT_number 120
_symmetry_cell_setting 'tetragonal'
loop_
_space_group_symop_operation_xyz
x,y,z
y,-x,-z
-x,-y,z
-y,x,-z
y,x,1/2-z
-y,-x,1/2-z
-x,y,1/2+z
x,-y,1/2+z
1/2+x,1/2+y,1/2+z
1/2+y,1/2-x,1/2-z
1/2-x,1/2-y,1/2+z
1/2-y,1/2+x,1/2-z
1/2+y,1/2+x,-z
1/2-y,1/2-x,-z
1/2-x,1/2+y,z
1/2+x,1/2-y,z
loop_
_atom_site_type_symbol
_atom_site_label
_atom_site_fract_x
_atom_site_fract_y
_atom_site_fract_z
Si Si1 0.404033 0.143993 0.750000
Si Si2 0.744573 0.573579 0.930525
Si Si3 0.744573 0.573579 0.569475
Si Si4 0.913209 0.086791 0.153935
O O1 0.528747 0.138300 0.750000
O O2 0.379694 0.198227 0.655819
O O3 0.379694 0.198227 0.844181
O O4 0.667605 0.667605 0.962335
O O5 0.672499 0.479668 0.895435
O O6 0.809218 0.500000 0.000000
O O7 0.672498 0.479667 0.604564
O O8 0.874744 0.125257 0.250000
O O9 0.000000 0.000000 0.167276
#
# Coordination Sequence:
#
# PCOD9559963 Si02
#       4
#    16  16  16  16
#     4  11  27  49  64  83 130 189 228 261 313 384
#     4  11  21  39  68 103 131 159 209 269 335 391
#     4  11  21  39  68 103 131 159 209 269 335 391
#     4   9  16  30  58  92 130 164 190 249 327 386
#
# _framework density 25.672326000000002
#
# number of rings (size 3 to 8) (size 9 to 14) (size 15 to 20)
#    0.000    1.500    5.000    0.750    0.000    2.000 
#    9.000    5.000    0.000    0.000    0.000    0.000 
#    0.000    0.000    0.000    0.000    0.000    0.000 
#
# Total GULP energy -178353.466845 kJ/mol
# GULP energy per Si atom -5573.545839 kJ/mol
# Density = 2.561389 g / cm^3
# Si number density = 25.672326 Si / 1000 Ang^3
#
#
#
# Elastic Constant Matrix: (Units=GPa)
#
#
# Indices 1 2 3 4 5 6 
#
# 1 40.7164 32.6528 19.3587 0.0000 0.0000 0.0000
# 2 32.6528 40.7164 19.3589 0.0000 0.0000 0.0000
# 3 19.3587 19.3589 80.4654 0.0000 0.0000 0.0000
# 4 0.0000 0.0000 0.0000 10.0540 0.0000 0.0000
# 5 0.0000 0.0000 0.0000 0.0000 10.0555 0.0000
# 6 0.0000 0.0000 0.0000 0.0000 0.0000 39.2090
#
#
#
# Elastic Compliance Matrix: (Units=1/GPa)
#
#
# Indices 1 2 3 4 5 6 
#
# 1 0.069813 -0.054201 -0.003756 0.000000 0.000000 0.000000
# 2 -0.054201 0.069813 -0.003756 0.000000 0.000000 0.000000
# 3 -0.003756 -0.003756 0.014235 0.000000 0.000000 0.000000
# 4 0.000000 0.000000 0.000000 0.099463 0.000000 0.000000
# 5 0.000000 0.000000 0.000000 0.000000 0.099448 0.000000
# 6 0.000000 0.000000 0.000000 0.000000 0.000000 0.025504
#
#
# Mechanical properties :
#
#
# Convention : Reuss Voigt Hill
#
# Bulk Modulus (GPa) = 32.85733 33.84879 33.35306
# Shear Modulus (GPa) = 9.76853 17.89888 13.83371
#
# Velocity S-wave (km/s) = 1.95278 2.64333 2.32385
# Velocity P-wave (km/s) = 4.23214 4.74656 4.49671
#
# Compressibility (1/GPa) = 0.03043461
#
# Stress axis : x y z
#
# Youngs Moduli (GPa) = 14.32403 14.32398 70.24961
#
# Poissons Ratio (x) = 0.77638 0.26384
# Poissons Ratio (y) = 0.77638 0.26387
# Poissons Ratio (z) = 0.05380 0.05380
#
# Static dielectric constant tensor:
#      x y z
#    x 1.996040 0.000000 0.000000 
#    y 0.000000 1.996050 0.000000 
#    z 0.000000 0.000000 2.790010 
# 
# From -- ./inp_files/3299.got.cif
#   From: 2010.05.17/outbox.cif.g08.bks.cpg/sg120_2_cif.got.tgz:3299.got - 2010.05.20 11:28:13.
