data_PCOD9559831
_publ_section_title
;
Structure prediction by ZEFSAII (Michael W. Deem and Ramdas Pophale) SiO2 
 PCOD9559831
Probable space group: I -4 C 2
;
_chemical_formula_sum "Si O2"
_cell_formula_units_Z 128
_cell_length_a 23.403482
_cell_length_b 23.403482
_cell_length_c 12.235370
_cell_angle_alpha 90.000000
_cell_angle_beta 90.000000
_cell_angle_gamma 90.000000
_cell_volume 6701.593192
_symmetry_space_group_name_H-M "I -4 C 2"
_symmetry_group_IT_number 120
_symmetry_cell_setting 'tetragonal'
loop_
_space_group_symop_operation_xyz
x,y,z
y,-x,-z
-x,-y,z
-y,x,-z
y,x,1/2-z
-y,-x,1/2-z
-x,y,1/2+z
x,-y,1/2+z
1/2+x,1/2+y,1/2+z
1/2+y,1/2-x,1/2-z
1/2-x,1/2-y,1/2+z
1/2-y,1/2+x,1/2-z
1/2+y,1/2+x,-z
1/2-y,1/2-x,-z
1/2-x,1/2+y,z
1/2+x,1/2-y,z
loop_
_atom_site_type_symbol
_atom_site_label
_atom_site_fract_x
_atom_site_fract_y
_atom_site_fract_z
Si Si1 0.518787 0.093575 0.922131
Si Si2 0.421053 0.390041 0.483323
Si Si3 0.184757 0.507045 0.397252
Si Si4 0.992955 0.815243 0.147252
Si Si5 0.184180 0.630730 0.892168
Si Si6 0.481213 0.593576 0.327869
Si Si7 0.109959 0.578947 0.233323
Si Si8 0.315820 0.630730 0.857832
O O1 0.454534 0.088279 0.875118
O O2 0.558620 0.092281 0.815456
O O3 0.543957 0.043957 0.000000
O O4 0.525006 0.152196 0.991306
O O5 0.464312 0.349750 0.548700
O O6 0.454534 0.411721 0.374882
O O7 0.407719 0.441381 0.565455
O O8 0.362826 0.357873 0.451517
O O9 0.250000 0.523701 0.375001
O O10 0.182567 0.438314 0.399280
O O11 0.150250 0.535687 0.298699
O O12 0.974994 0.847803 0.258695
O O13 0.061685 0.817433 0.149279
O O14 0.137173 0.642127 0.798484
O O15 0.250000 0.647487 0.874999
O O16 0.160137 0.660137 0.000000
O O17 0.456043 0.543958 0.250000
O O18 0.339864 0.660137 0.750000
#
# Coordination Sequence:
#
# PCOD9559831 Si02
#       8
#    16  16  16  16  16  16  16  16
#     4  10  22  38  57  92 130 160 207 257 326 384
#     4  11  21  40  59  93 129 166 201 261 325 381
#     4  10  22  40  64  91 123 166 214 265 316 383
#     4  10  22  40  64  91 123 166 214 265 316 383
#     4  11  23  41  63  92 125 168 217 261 317 385
#     4  10  22  38  57  92 130 160 207 257 326 384
#     4  11  21  40  59  93 129 166 201 261 325 381
#     4  11  23  41  63  92 125 168 217 261 317 385
#
# _framework density 19.099934999999999
#
# number of rings (size 3 to 8) (size 9 to 14) (size 15 to 20)
#    0.000    1.500    5.000    0.000    0.000    3.500 
#    4.500    1.250    0.000    0.000    0.000    0.000 
#    0.000    0.000    0.000    0.000    0.000    0.000 
#
# Total GULP energy -357106.442293 kJ/mol
# GULP energy per Si atom -5579.788161 kJ/mol
# Density = 1.905646 g / cm^3
# Si number density = 19.099935 Si / 1000 Ang^3
#
#
#
# Elastic Constant Matrix: (Units=GPa)
#
#
# Indices 1 2 3 4 5 6 
#
# 1 125.7796 41.9519 58.6939 0.0000 0.0000 0.0000
# 2 41.9519 125.7813 58.6939 0.0000 0.0000 0.0000
# 3 58.6939 58.6939 117.3255 0.0000 0.0000 0.0000
# 4 0.0000 0.0000 0.0000 19.9427 0.0000 0.0000
# 5 0.0000 0.0000 0.0000 0.0000 19.9426 0.0000
# 6 0.0000 0.0000 0.0000 0.0000 0.0000 8.6808
#
#
#
# Elastic Compliance Matrix: (Units=1/GPa)
#
#
# Indices 1 2 3 4 5 6 
#
# 1 0.010551 -0.001378 -0.004589 0.000000 0.000000 0.000000
# 2 -0.001378 0.010551 -0.004589 0.000000 0.000000 0.000000
# 3 -0.004589 -0.004589 0.013115 0.000000 0.000000 0.000000
# 4 0.000000 0.000000 0.000000 0.050144 0.000000 0.000000
# 5 0.000000 0.000000 0.000000 0.000000 0.050144 0.000000
# 6 0.000000 0.000000 0.000000 0.000000 0.000000 0.115196
#
#
# Mechanical properties :
#
#
# Convention : Reuss Voigt Hill
#
# Bulk Modulus (GPa) = 76.30515 76.39620 76.35068
# Shear Modulus (GPa) = 18.16975 23.68301 20.92638
#
# Velocity S-wave (km/s) = 3.08766 3.52512 3.31361
# Velocity P-wave (km/s) = 7.26283 7.52686 7.39602
#
# Compressibility (1/GPa) = 0.01310528
#
# Stress axis : x y z
#
# Youngs Moduli (GPa) = 94.77327 94.77500 76.24847
#
# Poissons Ratio (x) = 0.13057 0.34993
# Poissons Ratio (y) = 0.13057 0.34992
# Poissons Ratio (z) = 0.43495 0.43494
#
# Static dielectric constant tensor:
#      x y z
#    x 1.684560 0.000000 0.000000 
#    y 0.000000 1.684560 0.000000 
#    z 0.000000 0.000000 1.687960 
# 
# From -- ./inp_files/2913.got.cif
#   From: 2010.05.17/outbox.cif.g08.bks.cpg/sg120_2_cif.got.tgz:2913.got - 2010.05.20 11:28:13.
