data_PCOD9559079
_publ_section_title
;
Structure prediction by ZEFSAII (Michael W. Deem and Ramdas Pophale) SiO2 
 PCOD9559079
Probable space group: I -4 M 2
;
_chemical_formula_sum "Si O2"
_cell_formula_units_Z 96
_cell_length_a 15.655963
_cell_length_b 15.655963
_cell_length_c 19.412059
_cell_angle_alpha 90.000000
_cell_angle_beta 90.000000
_cell_angle_gamma 90.000000
_cell_volume 4758.073814
_symmetry_space_group_name_H-M "I -4 M 2"
_symmetry_group_IT_number 119
_symmetry_cell_setting 'tetragonal'
loop_
_space_group_symop_operation_xyz
x,y,z
y,-x,-z
-x,-y,z
-y,x,-z
y,x,-z
-y,-x,-z
-x,y,z
x,-y,z
1/2+x,1/2+y,1/2+z
1/2+y,1/2-x,1/2-z
1/2-x,1/2-y,1/2+z
1/2-y,1/2+x,1/2-z
1/2+y,1/2+x,1/2-z
1/2-y,1/2-x,1/2-z
1/2-x,1/2+y,1/2+z
1/2+x,1/2-y,1/2+z
loop_
_atom_site_type_symbol
_atom_site_label
_atom_site_fract_x
_atom_site_fract_y
_atom_site_fract_z
Si Si1 0.398414 0.093946 0.521375
Si Si2 0.906616 0.669897 0.630381
Si Si3 0.232666 0.409781 0.247397
Si Si4 0.773991 0.904483 0.907911
Si Si5 0.093362 0.849758 0.704543
Si Si6 0.724410 0.595136 0.640415
O O1 0.500000 0.096694 0.503813
O O2 0.343926 0.095659 0.451647
O O3 0.381374 0.180348 0.563251
O O4 0.384111 0.000000 0.554826
O O5 0.902037 0.767075 0.655771
O O6 0.820998 0.624104 0.654755
O O7 0.000000 0.636357 0.654073
O O8 0.189551 0.500000 0.229722
O O9 0.169769 0.330232 0.250000
O O10 0.263158 0.414576 0.326074
O O11 0.316712 0.398255 0.200380
O O12 0.842845 0.828077 0.910888
O O13 0.799052 0.000000 0.934117
O O14 0.092402 0.818522 0.784192
O O15 0.000000 0.891703 0.692461
O O16 0.724723 0.500000 0.611146
#
# Coordination Sequence:
#
# PCOD9559079 Si02
#       6
#    16  16  16  16  16  16
#     4   9  18  33  53  77 105 138 179 226 273 323
#     4  10  19  32  51  73 100 135 174 216 262 314
#     4  10  20  34  53  77 107 142 180 224 271 320
#     4   9  19  35  53  74 103 139 178 221 266 314
#     4   9  18  33  53  77 106 139 175 218 269 326
#     4  10  19  31  50  76 107 141 174 213 263 319
#
# _framework density 20.176231000000001
#
# number of rings (size 3 to 8) (size 9 to 14) (size 15 to 20)
#    0.000    2.500    0.000    3.000    0.000    3.167 
#    0.000    5.833    0.000    6.000    0.000    2.333 
#    0.000    1.333    0.000    0.333    0.000    0.500 
#
# Total GULP energy -267220.717217 kJ/mol
# GULP energy per Si atom -5567.098275 kJ/mol
# Density = 2.013031 g / cm^3
# Si number density = 20.176231 Si / 1000 Ang^3
#
#
#
# Elastic Constant Matrix: (Units=GPa)
#
#
# Indices 1 2 3 4 5 6 
#
# 1 104.2098 62.7147 7.3673 0.0000 0.0000 0.0000
# 2 62.7147 104.2121 7.3679 0.0000 0.0000 0.0000
# 3 7.3673 7.3679 31.6187 0.0000 0.0000 0.0000
# 4 0.0000 0.0000 0.0000 32.9042 0.0000 0.0000
# 5 0.0000 0.0000 0.0000 0.0000 32.9097 0.0000
# 6 0.0000 0.0000 0.0000 0.0000 0.0000 -12.0699
#
#
#
# Elastic Compliance Matrix: (Units=1/GPa)
#
#
# Indices 1 2 3 4 5 6 
#
# 1 0.015108 -0.008991 -0.001425 0.000000 0.000000 0.000000
# 2 -0.008991 0.015107 -0.001425 0.000000 0.000000 0.000000
# 3 -0.001425 -0.001425 0.032291 0.000000 0.000000 0.000000
# 4 0.000000 0.000000 0.000000 0.030391 0.000000 0.000000
# 5 0.000000 0.000000 0.000000 0.000000 0.030386 0.000000
# 6 0.000000 0.000000 0.000000 0.000000 0.000000 -0.082851
#
#
# Mechanical properties :
#
#
# Convention : Reuss Voigt Hill
#
# Bulk Modulus (GPa) = 25.75781 43.88225 34.82003
# Shear Modulus (GPa) = 64.88717 21.58818 43.23767
#
# Velocity S-wave (km/s) = 5.67715 3.27461 4.63428
# Velocity P-wave (km/s) = 7.46776 6.00783 6.77723
#
# Compressibility (1/GPa) = 0.03882318
#
# Stress axis : x y z
#
# Youngs Moduli (GPa) = 66.19157 66.19286 30.96831
#
# Poissons Ratio (x) = 0.59514 0.04413
# Poissons Ratio (y) = 0.59513 0.04414
# Poissons Ratio (z) = 0.09433 0.09435
#
# Static dielectric constant tensor:
#      x y z
#    x 1.760390 0.000000 0.000000 
#    y 0.000000 1.760390 0.000000 
#    z 0.000000 0.000000 1.714950 
# 
# From -- ./inp_files/7758.got.cif
#   From: 2010.05.17/outbox.cif.g08.bks.cpg/sg119_4_cif.got.tgz:7758.got - 2010.05.20 11:21:29.
