data_PCOD9559568
_publ_section_title
;
Structure prediction by ZEFSAII (Michael W. Deem and Ramdas Pophale) SiO2 
 PCOD9559568
Probable space group: I -4 C 2
;
_chemical_formula_sum "Si O2"
_cell_formula_units_Z 96
_cell_length_a 19.708154
_cell_length_b 19.708154
_cell_length_c 12.713609
_cell_angle_alpha 90.000000
_cell_angle_beta 90.000000
_cell_angle_gamma 90.000000
_cell_volume 4938.109833
_symmetry_space_group_name_H-M "I -4 C 2"
_symmetry_group_IT_number 120
_symmetry_cell_setting 'tetragonal'
loop_
_space_group_symop_operation_xyz
x,y,z
y,-x,-z
-x,-y,z
-y,x,-z
y,x,1/2-z
-y,-x,1/2-z
-x,y,1/2+z
x,-y,1/2+z
1/2+x,1/2+y,1/2+z
1/2+y,1/2-x,1/2-z
1/2-x,1/2-y,1/2+z
1/2-y,1/2+x,1/2-z
1/2+y,1/2+x,-z
1/2-y,1/2-x,-z
1/2-x,1/2+y,z
1/2+x,1/2-y,z
loop_
_atom_site_type_symbol
_atom_site_label
_atom_site_fract_x
_atom_site_fract_y
_atom_site_fract_z
Si Si1 0.394730 0.004245 0.535353
Si Si2 0.681649 0.069779 0.201225
Si Si3 0.748515 0.867203 0.499419
Si Si4 0.205283 0.692951 0.182395
Si Si5 0.000985 0.262857 0.599765
Si Si6 0.126408 0.219022 0.503273
O O1 0.450697 0.950697 0.500000
O O2 0.330459 0.983154 0.467692
O O3 0.422214 0.077787 0.500000
O O4 0.375971 0.019021 0.656166
O O5 0.661755 0.143233 0.249582
O O6 0.725299 0.029244 0.285108
O O7 0.726126 0.090174 0.100600
O O8 0.698819 0.801182 0.500000
O O9 0.826089 0.846090 0.502503
O O10 0.742930 0.920264 0.404395
O O11 0.257053 0.742948 0.250000
O O12 0.245614 0.639048 0.110259
O O13 0.163876 0.737005 0.095262
O O14 0.049048 0.209529 0.539029
#
# Coordination Sequence:
#
# PCOD9559568 Si02
#       6
#    16  16  16  16  16  16
#     4  10  23  39  51  73 116 165 207 242 286 363
#     4  10  20  35  57  81 112 156 199 247 309 363
#     4  11  20  40  59  81 120 158 195 252 319 374
#     4  10  17  32  58  86 106 146 197 254 322 368
#     4  10  23  35  57  84 114 150 200 260 302 371
#     4  10  20  35  56  86 113 143 197 264 308 372
#
# _framework density 19.440638
#
# number of rings (size 3 to 8) (size 9 to 14) (size 15 to 20)
#    0.000    1.833    3.333    2.000    4.667    2.667 
#   12.000    1.667    0.000    0.500    0.000    0.000 
#    0.000    6.000    0.000    0.000    0.000    0.000 
#
# Total GULP energy -267361.045638 kJ/mol
# GULP energy per Si atom -5570.021784 kJ/mol
# Density = 1.939639 g / cm^3
# Si number density = 19.440638 Si / 1000 Ang^3
#
#
#
# Elastic Constant Matrix: (Units=GPa)
#
#
# Indices 1 2 3 4 5 6 
#
# 1 51.6674 30.9082 7.3814 0.0000 0.0000 0.0000
# 2 30.9082 51.6673 7.3819 0.0000 0.0000 0.0000
# 3 7.3814 7.3819 64.4813 0.0000 0.0000 0.0000
# 4 0.0000 0.0000 0.0000 27.2875 0.0000 0.0000
# 5 0.0000 0.0000 0.0000 0.0000 27.2877 0.0000
# 6 0.0000 0.0000 0.0000 0.0000 0.0000 33.1470
#
#
#
# Elastic Compliance Matrix: (Units=1/GPa)
#
#
# Indices 1 2 3 4 5 6 
#
# 1 0.030267 -0.017904 -0.001415 0.000000 0.000000 0.000000
# 2 -0.017904 0.030267 -0.001415 0.000000 0.000000 0.000000
# 3 -0.001415 -0.001415 0.015832 0.000000 0.000000 0.000000
# 4 0.000000 0.000000 0.000000 0.036647 0.000000 0.000000
# 5 0.000000 0.000000 0.000000 0.000000 0.036647 0.000000
# 6 0.000000 0.000000 0.000000 0.000000 0.000000 0.030169
#
#
# Mechanical properties :
#
#
# Convention : Reuss Voigt Hill
#
# Bulk Modulus (GPa) = 28.65532 28.79543 28.72537
# Shear Modulus (GPa) = 21.46556 25.68740 23.57648
#
# Velocity S-wave (km/s) = 3.32649 3.63895 3.48622
# Velocity P-wave (km/s) = 5.43378 5.70088 5.56893
#
# Compressibility (1/GPa) = 0.03489754
#
# Stress axis : x y z
#
# Youngs Moduli (GPa) = 33.03897 33.03883 63.16158
#
# Poissons Ratio (x) = 0.59153 0.08938
# Poissons Ratio (y) = 0.59154 0.08941
# Poissons Ratio (z) = 0.04675 0.04677
#
# Static dielectric constant tensor:
#      x y z
#    x 1.745330 0.000000 0.000000 
#    y 0.000000 1.745340 0.000000 
#    z 0.000000 0.000000 1.749420 
# 
# From -- ./inp_files/2717.got.cif
#   From: 2010.05.17/outbox.cif.g08.bks.cpg/sg120_2_cif.got.tgz:2717.got - 2010.05.20 11:28:13.
