data_PCOD9559742
_publ_section_title
;
Structure prediction by ZEFSAII (Michael W. Deem and Ramdas Pophale) SiO2 
 PCOD9559742
Probable space group: I -4 C 2
;
_chemical_formula_sum "Si O2"
_cell_formula_units_Z 80
_cell_length_a 10.075809
_cell_length_b 10.075809
_cell_length_c 30.823230
_cell_angle_alpha 90.000000
_cell_angle_beta 90.000000
_cell_angle_gamma 90.000000
_cell_volume 3129.233706
_symmetry_space_group_name_H-M "I -4 C 2"
_symmetry_group_IT_number 120
_symmetry_cell_setting 'tetragonal'
loop_
_space_group_symop_operation_xyz
x,y,z
y,-x,-z
-x,-y,z
-y,x,-z
y,x,1/2-z
-y,-x,1/2-z
-x,y,1/2+z
x,-y,1/2+z
1/2+x,1/2+y,1/2+z
1/2+y,1/2-x,1/2-z
1/2-x,1/2-y,1/2+z
1/2-y,1/2+x,1/2-z
1/2+y,1/2+x,-z
1/2-y,1/2-x,-z
1/2-x,1/2+y,z
1/2+x,1/2-y,z
loop_
_atom_site_type_symbol
_atom_site_label
_atom_site_fract_x
_atom_site_fract_y
_atom_site_fract_z
Si Si1 0.813922 0.106926 0.016020
Si Si2 0.801602 0.593768 0.849945
Si Si3 0.232581 0.551912 0.164412
Si Si4 0.611182 0.406938 0.893819
Si Si5 0.992601 0.783667 0.743224
O O1 0.803648 0.128452 0.068133
O O2 0.686051 0.186051 0.000000
O O3 0.952318 0.174859 0.998747
O O4 0.700812 0.722702 0.847818
O O5 0.953563 0.628998 0.858009
O O6 0.739005 0.492888 0.883697
O O7 0.779626 0.524706 0.802911
O O8 0.361121 0.463370 0.150329
O O9 0.199216 0.532706 0.214868
O O10 0.500000 0.500000 0.915270
O O11 0.845731 0.845731 0.750000
O O12 0.094642 0.905358 0.750000
#
# Coordination Sequence:
#
# PCOD9559742 Si02
#       5
#    16  16  16  16  16
#     4  11  25  46  75 108 144 186 232 292 364 436
#     4  10  21  38  64  93 127 173 229 277 337 404
#     4  10  21  35  64  92 122 171 222 280 324 400
#     4  10  20  40  68  95 131 178 230 269 344 429
#     4   9  16  33  55  84 115 167 217 255 317 396
#
# _framework density 25.565363999999999
#
# number of rings (size 3 to 8) (size 9 to 14) (size 15 to 20)
#    0.000    2.000    4.000    0.000    2.800    2.800 
#    0.000    1.000    4.400    0.000    0.000    0.000 
#    0.000    0.000    0.000    0.000    0.000    0.000 
#
# Total GULP energy -223325.285557 kJ/mol
# GULP energy per Si atom -5583.132139 kJ/mol
# Density = 2.550718 g / cm^3
# Si number density = 25.565364 Si / 1000 Ang^3
#
#
#
# Elastic Constant Matrix: (Units=GPa)
#
#
# Indices 1 2 3 4 5 6 
#
# 1 74.2523 53.6043 -2.5254 0.0000 0.0000 0.0000
# 2 53.6043 74.2521 -2.5255 0.0000 0.0000 0.0000
# 3 -2.5254 -2.5255 114.2229 0.0000 0.0000 0.0000
# 4 0.0000 0.0000 0.0000 8.5235 0.0000 0.0000
# 5 0.0000 0.0000 0.0000 0.0000 8.5236 0.0000
# 6 0.0000 0.0000 0.0000 0.0000 0.0000 53.4250
#
#
#
# Elastic Compliance Matrix: (Units=1/GPa)
#
#
# Indices 1 2 3 4 5 6 
#
# 1 0.028130 -0.020302 0.000173 0.000000 0.000000 0.000000
# 2 -0.020302 0.028130 0.000173 0.000000 0.000000 0.000000
# 3 0.000173 0.000173 0.008762 0.000000 0.000000 0.000000
# 4 0.000000 0.000000 0.000000 0.117323 0.000000 0.000000
# 5 0.000000 0.000000 0.000000 0.000000 0.117321 0.000000
# 6 0.000000 0.000000 0.000000 0.000000 0.000000 0.018718
#
#
# Mechanical properties :
#
#
# Convention : Reuss Voigt Hill
#
# Bulk Modulus (GPa) = 39.82319 39.98155 39.90237
# Shear Modulus (GPa) = 13.63644 28.37269 21.00457
#
# Velocity S-wave (km/s) = 2.31204 3.33500 2.86947
# Velocity P-wave (km/s) = 4.76846 5.52291 5.15949
#
# Compressibility (1/GPa) = 0.02511100
#
# Stress axis : x y z
#
# Youngs Moduli (GPa) = 35.54976 35.54967 114.12312
#
# Poissons Ratio (x) = 0.72171 -0.01975
# Poissons Ratio (y) = 0.72171 -0.01976
# Poissons Ratio (z) = -0.00615 -0.00615
#
# Static dielectric constant tensor:
#      x y z
#    x 2.154840 0.000000 0.000000 
#    y 0.000000 2.154840 0.000000 
#    z 0.000000 0.000000 2.042890 
# 
# From -- ./inp_files/6469.got.cif
#   From: 2010.05.17/outbox.cif.g08.bks.cpg/sg120_4_cif.got.tgz:6469.got - 2010.05.20 11:28:13.
