data_PCOD9559390
_publ_section_title
;
Structure prediction by ZEFSAII (Michael W. Deem and Ramdas Pophale) SiO2 
 PCOD9559390
Probable space group: I -4 M 2
;
_chemical_formula_sum "Si O2"
_cell_formula_units_Z 84
_cell_length_a 11.687391
_cell_length_b 11.687391
_cell_length_c 27.378468
_cell_angle_alpha 90.000000
_cell_angle_beta 90.000000
_cell_angle_gamma 90.000000
_cell_volume 3739.764804
_symmetry_space_group_name_H-M "I -4 M 2"
_symmetry_group_IT_number 119
_symmetry_cell_setting 'tetragonal'
loop_
_space_group_symop_operation_xyz
x,y,z
y,-x,-z
-x,-y,z
-y,x,-z
y,x,-z
-y,-x,-z
-x,y,z
x,-y,z
1/2+x,1/2+y,1/2+z
1/2+y,1/2-x,1/2-z
1/2-x,1/2-y,1/2+z
1/2-y,1/2+x,1/2-z
1/2+y,1/2+x,1/2-z
1/2-y,1/2-x,1/2-z
1/2-x,1/2+y,1/2+z
1/2+x,1/2-y,1/2+z
loop_
_atom_site_type_symbol
_atom_site_label
_atom_site_fract_x
_atom_site_fract_y
_atom_site_fract_z
Si Si1 0.365283 0.000000 0.137784
Si Si2 0.365286 0.364036 0.891142
Si Si3 0.335445 0.758930 0.440086
Si Si4 0.500000 0.500000 0.666707
Si Si5 0.000000 0.365960 0.018233
Si Si6 0.772430 0.000000 0.231059
Si Si7 0.784532 0.135251 0.717398
Si Si8 0.500000 0.672800 0.581489
O O1 0.308897 0.894335 0.109050
O O2 0.333171 0.000000 0.194389
O O3 0.500000 0.000000 0.130102
O O4 0.500000 0.363721 0.901643
O O5 0.332397 0.500000 0.885043
O O6 0.293564 0.300122 0.932705
O O7 0.349128 0.290872 0.841015
O O8 0.394208 0.819562 0.485910
O O9 0.361237 0.623228 0.440973
O O10 0.384754 0.500000 0.696904
O O11 0.500000 0.613818 0.633660
O O12 0.000000 0.500000 0.020394
O O13 0.000000 0.308128 0.071420
O O14 0.788259 0.110804 0.263644
O O15 0.677868 0.177868 0.750000
O O16 0.805406 0.000000 0.726223
#
# Coordination Sequence:
#
# PCOD9559390 Si02
#       8
#     8  16  16   4   8   8  16   8
#     4  11  22  37  64  93 130 172 220 276 344 411
#     4  10  21  40  64  93 127 177 232 278 333 410
#     4  11  22  41  67  94 132 172 215 275 354 428
#     4  12  22  42  71 102 136 184 240 280 355 416
#     4  11  25  44  69 100 136 176 214 284 360 420
#     4  12  21  41  68  93 137 187 232 284 343 416
#     4  11  23  38  62  90 130 178 232 286 335 401
#     4  12  25  41  68 103 131 169 236 290 342 431
#
# _framework density 22.461304999999999
#
# number of rings (size 3 to 8) (size 9 to 14) (size 15 to 20)
#    0.000    0.952    3.810    4.571    0.000    1.714 
#    1.714    0.000    0.000    0.000    0.000    2.667 
#    0.000    0.000    0.000    0.000    0.000    0.000 
#
# Total GULP energy -234672.393802 kJ/mol
# GULP energy per Si atom -5587.437948 kJ/mol
# Density = 2.241018 g / cm^3
# Si number density = 22.461305 Si / 1000 Ang^3
#
#
#
# Elastic Constant Matrix: (Units=GPa)
#
#
# Indices 1 2 3 4 5 6 
#
# 1 130.3312 24.9042 29.6797 0.0000 0.0000 0.0000
# 2 24.9042 130.3312 29.6797 0.0000 0.0000 0.0000
# 3 29.6797 29.6797 64.9767 0.0000 0.0000 0.0000
# 4 0.0000 0.0000 0.0000 26.7229 0.0000 0.0000
# 5 0.0000 0.0000 0.0000 0.0000 26.7229 0.0000
# 6 0.0000 0.0000 0.0000 0.0000 0.0000 26.5373
#
#
#
# Elastic Compliance Matrix: (Units=1/GPa)
#
#
# Indices 1 2 3 4 5 6 
#
# 1 0.008645 -0.000840 -0.003565 0.000000 0.000000 0.000000
# 2 -0.000840 0.008645 -0.003565 0.000000 0.000000 0.000000
# 3 -0.003565 -0.003565 0.018647 0.000000 0.000000 0.000000
# 4 0.000000 0.000000 0.000000 0.037421 0.000000 0.000000
# 5 0.000000 0.000000 0.000000 0.000000 0.037421 0.000000
# 6 0.000000 0.000000 0.000000 0.000000 0.000000 0.037683
#
#
# Mechanical properties :
#
#
# Convention : Reuss Voigt Hill
#
# Bulk Modulus (GPa) = 50.00853 54.90738 52.45795
# Shear Modulus (GPa) = 29.22802 32.08832 30.65817
#
# Velocity S-wave (km/s) = 3.61121 3.78379 3.69851
# Velocity P-wave (km/s) = 6.30083 6.60211 6.45323
#
# Compressibility (1/GPa) = 0.01999659
#
# Stress axis : x y z
#
# Youngs Moduli (GPa) = 115.67158 115.67158 53.62771
#
# Poissons Ratio (x) = 0.09717 0.19119
# Poissons Ratio (y) = 0.09717 0.19119
# Poissons Ratio (z) = 0.41239 0.41239
#
# Static dielectric constant tensor:
#      x y z
#    x 1.860320 0.000000 0.000000 
#    y 0.000000 1.860320 0.000000 
#    z 0.000000 0.000000 1.814980 
# 
# From -- ./inp_files/10309.got.cif
#   From: 2010.05.17/outbox.cif.g08.bks.cpg/sg119_6_cif.got.tgz:10309.got - 2010.05.20 11:21:29.
