data_PCOD9559198
_publ_section_title
;
Structure prediction by ZEFSAII (Michael W. Deem and Ramdas Pophale) SiO2 
 PCOD9559198
Probable space group: I -4 M 2
;
_chemical_formula_sum "Si O2"
_cell_formula_units_Z 112
_cell_length_a 34.908205
_cell_length_b 34.908205
_cell_length_c 5.121225
_cell_angle_alpha 90.000000
_cell_angle_beta 90.000000
_cell_angle_gamma 90.000000
_cell_volume 6240.636579
_symmetry_space_group_name_H-M "I -4 M 2"
_symmetry_group_IT_number 119
_symmetry_cell_setting 'tetragonal'
loop_
_space_group_symop_operation_xyz
x,y,z
y,-x,-z
-x,-y,z
-y,x,-z
y,x,-z
-y,-x,-z
-x,y,z
x,-y,z
1/2+x,1/2+y,1/2+z
1/2+y,1/2-x,1/2-z
1/2-x,1/2-y,1/2+z
1/2-y,1/2+x,1/2-z
1/2+y,1/2+x,1/2-z
1/2-y,1/2-x,1/2-z
1/2-x,1/2+y,1/2+z
1/2+x,1/2-y,1/2+z
loop_
_atom_site_type_symbol
_atom_site_label
_atom_site_fract_x
_atom_site_fract_y
_atom_site_fract_z
Si Si1 0.619626 0.759857 0.683178
Si Si2 0.891059 0.954789 0.973533
Si Si3 0.591786 0.154158 0.664244
Si Si4 0.577932 0.741566 0.183893
Si Si5 0.326150 0.044654 0.339893
Si Si6 0.160358 0.044544 0.490638
Si Si7 0.765474 0.299314 0.499181
O O1 0.615143 0.805776 0.666466
O O2 0.588248 0.741288 0.490090
O O3 0.659194 0.748623 0.549640
O O4 0.613294 0.748987 0.983733
O O5 0.863250 0.940269 0.740122
O O6 0.900232 0.000000 0.926058
O O7 0.928579 0.928579 0.000000
O O8 0.867194 0.952403 0.240760
O O9 0.619800 0.119800 0.750000
O O10 0.571292 0.154432 0.382184
O O11 0.558929 0.158482 0.882139
O O12 0.552315 0.780055 0.154612
O O13 0.561349 0.701493 0.086291
O O14 0.333143 0.000000 0.292384
O O15 0.167331 0.000000 0.550024
O O16 0.731595 0.268406 0.500000
O O17 0.791276 0.291276 0.250000
O O18 0.791512 0.291512 0.750000
#
# Coordination Sequence:
#
# PCOD9559198 Si02
#       7
#    16  16  16  16  16  16  16
#     4  10  20  33  51  75 103 134 174 217 260 307
#     4  10  21  37  57  80 104 132 170 216 266 322
#     4  10  20  33  52  78 108 140 172 212 262 314
#     4  10  20  34  52  76 105 138 172 208 253 306
#     4  10  20  34  53  78 109 140 174 214 254 303
#     4  10  20  36  57  78 104 137 172 205 246 311
#     4  10  20  34  51  68  91 128 174 220 261 301
#
# _framework density 17.946885999999999
#
# number of rings (size 3 to 8) (size 9 to 14) (size 15 to 20)
#    0.000    2.000    0.000    3.857    0.000    2.429 
#    0.000    8.571    0.000    2.571    0.000    0.000 
#    0.000   20.000    0.000    0.000    0.000    0.000 
#
# Total GULP energy -312191.070925 kJ/mol
# GULP energy per Si atom -5574.840552 kJ/mol
# Density = 1.790604 g / cm^3
# Si number density = 17.946886 Si / 1000 Ang^3
#
#
#
# Elastic Constant Matrix: (Units=GPa)
#
#
# Indices 1 2 3 4 5 6 
#
# 1 66.2806 29.5435 10.9331 0.0000 0.0000 0.0000
# 2 29.5435 66.2829 10.9323 0.0000 0.0000 0.0000
# 3 10.9331 10.9323 88.8940 0.0000 0.0000 0.0000
# 4 0.0000 0.0000 0.0000 23.5125 0.0000 0.0000
# 5 0.0000 0.0000 0.0000 0.0000 23.5150 0.0000
# 6 0.0000 0.0000 0.0000 0.0000 0.0000 9.7387
#
#
#
# Elastic Compliance Matrix: (Units=1/GPa)
#
#
# Indices 1 2 3 4 5 6 
#
# 1 0.018979 -0.008241 -0.001321 0.000000 0.000000 0.000000
# 2 -0.008241 0.018978 -0.001320 0.000000 0.000000 0.000000
# 3 -0.001321 -0.001320 0.011574 0.000000 0.000000 0.000000
# 4 0.000000 0.000000 0.000000 0.042531 0.000000 0.000000
# 5 0.000000 0.000000 0.000000 0.000000 0.042526 0.000000
# 6 0.000000 0.000000 0.000000 0.000000 0.000000 0.102683
#
#
# Mechanical properties :
#
#
# Convention : Reuss Voigt Hill
#
# Bulk Modulus (GPa) = 36.01512 36.03060 36.02286
# Shear Modulus (GPa) = 18.63653 22.68980 20.66317
#
# Velocity S-wave (km/s) = 3.22596 3.55952 3.39684
# Velocity P-wave (km/s) = 5.82983 6.08387 5.95820
#
# Compressibility (1/GPa) = 0.02776612
#
# Stress axis : x y z
#
# Youngs Moduli (GPa) = 52.69074 52.69279 86.39935
#
# Poissons Ratio (x) = 0.43426 0.11410
# Poissons Ratio (y) = 0.43424 0.11408
# Poissons Ratio (z) = 0.06959 0.06957
#
# Static dielectric constant tensor:
#      x y z
#    x 1.603380 0.000000 0.000000 
#    y 0.000000 1.603380 0.000000 
#    z 0.000000 0.000000 1.613940 
# 
# From -- ./inp_files/1243.got.cif
#   From: 2010.05.17/outbox.cif.g08.bks.cpg/sg119_1_cif.got.tgz:1243.got - 2010.05.20 11:21:29.
