data_PCOD9559756
_publ_section_title
;
Structure prediction by ZEFSAII (Michael W. Deem and Ramdas Pophale) SiO2 
 PCOD9559756
Probable space group: I -4 C 2
;
_chemical_formula_sum "Si O2"
_cell_formula_units_Z 112
_cell_length_a 17.077429
_cell_length_b 17.077429
_cell_length_c 21.819508
_cell_angle_alpha 90.000000
_cell_angle_beta 90.000000
_cell_angle_gamma 90.000000
_cell_volume 6363.410357
_symmetry_space_group_name_H-M "I -4 C 2"
_symmetry_group_IT_number 120
_symmetry_cell_setting 'tetragonal'
loop_
_space_group_symop_operation_xyz
x,y,z
y,-x,-z
-x,-y,z
-y,x,-z
y,x,1/2-z
-y,-x,1/2-z
-x,y,1/2+z
x,-y,1/2+z
1/2+x,1/2+y,1/2+z
1/2+y,1/2-x,1/2-z
1/2-x,1/2-y,1/2+z
1/2-y,1/2+x,1/2-z
1/2+y,1/2+x,-z
1/2-y,1/2-x,-z
1/2-x,1/2+y,z
1/2+x,1/2-y,z
loop_
_atom_site_type_symbol
_atom_site_label
_atom_site_fract_x
_atom_site_fract_y
_atom_site_fract_z
Si Si1 0.286505 0.693567 0.446348
Si Si2 0.368320 0.816430 0.365525
Si Si3 0.255540 0.014387 0.562129
Si Si4 0.861482 0.460798 0.955138
Si Si5 0.100413 0.413465 0.756491
Si Si6 0.379446 0.137357 0.604668
Si Si7 0.431425 0.398211 0.491599
O O1 0.246487 0.746487 0.500000
O O2 0.309917 0.750418 0.390525
O O3 0.224822 0.632746 0.418889
O O4 0.358066 0.641505 0.473071
O O5 0.451694 0.780832 0.387140
O O6 0.348565 0.893701 0.405192
O O7 0.375937 0.845429 0.296218
O O8 0.309082 0.089234 0.574987
O O9 0.166047 0.041948 0.558560
O O10 0.286014 0.978328 0.497553
O O11 0.891021 0.538733 0.922883
O O12 0.926429 0.426429 0.000000
O O13 0.106068 0.508390 0.753720
O O14 0.126248 0.383444 0.822943
O O15 0.408956 0.486249 0.471263
#
# Coordination Sequence:
#
# PCOD9559756 Si02
#       7
#    16  16  16  16  16  16  16
#     4  12  23  38  63  94 126 157 205 270 332 375
#     4  11  23  38  59  86 123 167 207 256 308 380
#     4  11  20  36  57  89 126 153 199 256 315 371
#     4  10  21  32  56  90 124 160 195 246 324 383
#     4  11  23  40  59  84 124 172 213 245 299 382
#     4  12  22  37  59  88 123 165 203 259 307 385
#     4  11  23  39  61  89 126 165 202 246 319 392
#
# _framework density 17.600625000000001
#
# number of rings (size 3 to 8) (size 9 to 14) (size 15 to 20)
#    0.000    0.857    7.143    1.714    0.000    4.571 
#    0.000    0.000    0.000    0.000    0.000    0.000 
#    0.000    0.000    0.000    0.000    0.000    0.000 
#
# Total GULP energy -312421.708311 kJ/mol
# GULP energy per Si atom -5578.959077 kJ/mol
# Density = 1.756056 g / cm^3
# Si number density = 17.600625 Si / 1000 Ang^3
#
#
#
# Elastic Constant Matrix: (Units=GPa)
#
#
# Indices 1 2 3 4 5 6 
#
# 1 85.4264 24.6748 31.3206 0.0000 0.0000 0.0000
# 2 24.6748 85.4264 31.3206 0.0000 0.0000 0.0000
# 3 31.3206 31.3206 70.9985 0.0000 0.0000 0.0000
# 4 0.0000 0.0000 0.0000 17.4494 0.0000 0.0000
# 5 0.0000 0.0000 0.0000 0.0000 17.4494 0.0000
# 6 0.0000 0.0000 0.0000 0.0000 0.0000 33.1625
#
#
#
# Elastic Compliance Matrix: (Units=1/GPa)
#
#
# Indices 1 2 3 4 5 6 
#
# 1 0.014293 -0.002167 -0.005349 0.000000 0.000000 0.000000
# 2 -0.002167 0.014293 -0.005349 0.000000 0.000000 0.000000
# 3 -0.005349 -0.005349 0.018804 0.000000 0.000000 0.000000
# 4 0.000000 0.000000 0.000000 0.057309 0.000000 0.000000
# 5 0.000000 0.000000 0.000000 0.000000 0.057309 0.000000
# 6 0.000000 0.000000 0.000000 0.000000 0.000000 0.030155
#
#
# Mechanical properties :
#
#
# Convention : Reuss Voigt Hill
#
# Bulk Modulus (GPa) = 46.16982 46.27595 46.22289
# Shear Modulus (GPa) = 22.21093 23.91460 23.06277
#
# Velocity S-wave (km/s) = 3.55623 3.69010 3.62379
# Velocity P-wave (km/s) = 6.56896 6.67121 6.62029
#
# Compressibility (1/GPa) = 0.02165917
#
# Stress axis : x y z
#
# Youngs Moduli (GPa) = 69.96317 69.96317 53.17888
#
# Poissons Ratio (x) = 0.15163 0.28447
# Poissons Ratio (y) = 0.15163 0.28447
# Poissons Ratio (z) = 0.37426 0.37426
#
# Static dielectric constant tensor:
#      x y z
#    x 1.641920 0.000000 0.000000 
#    y 0.000000 1.641920 0.000000 
#    z 0.000000 0.000000 1.571450 
# 
# From -- ./inp_files/5503.got.cif
#   From: 2010.05.17/outbox.cif.g08.bks.cpg/sg120_3_cif.got.tgz:5503.got - 2010.05.20 11:28:13.
