data_PCOD9559929
_publ_section_title
;
Structure prediction by ZEFSAII (Michael W. Deem and Ramdas Pophale) SiO2 
 PCOD9559929
Probable space group: I -4 C 2
;
_chemical_formula_sum "Si O2"
_cell_formula_units_Z 88
_cell_length_a 11.836250
_cell_length_b 11.836250
_cell_length_c 25.869669
_cell_angle_alpha 90.000000
_cell_angle_beta 90.000000
_cell_angle_gamma 90.000000
_cell_volume 3624.258208
_symmetry_space_group_name_H-M "I -4 C 2"
_symmetry_group_IT_number 120
_symmetry_cell_setting 'tetragonal'
loop_
_space_group_symop_operation_xyz
x,y,z
y,-x,-z
-x,-y,z
-y,x,-z
y,x,1/2-z
-y,-x,1/2-z
-x,y,1/2+z
x,-y,1/2+z
1/2+x,1/2+y,1/2+z
1/2+y,1/2-x,1/2-z
1/2-x,1/2-y,1/2+z
1/2-y,1/2+x,1/2-z
1/2+y,1/2+x,-z
1/2-y,1/2-x,-z
1/2-x,1/2+y,z
1/2+x,1/2-y,z
loop_
_atom_site_type_symbol
_atom_site_label
_atom_site_fract_x
_atom_site_fract_y
_atom_site_fract_z
Si Si1 0.418497 0.604501 0.677198
Si Si2 0.270033 0.959847 0.618846
Si Si3 0.267196 0.732805 0.750000
Si Si4 0.492246 0.881872 0.581826
Si Si5 0.878832 0.755421 0.151802
Si Si6 0.481839 0.689496 0.496896
O O1 0.500000 0.500000 0.695689
O O2 0.307070 0.545574 0.653416
O O3 0.375348 0.705909 0.713948
O O4 0.505532 0.673930 0.642507
O O5 0.398819 0.918384 0.624202
O O6 0.212998 0.838874 0.630340
O O7 0.246396 0.986592 0.559056
O O8 0.265936 0.841134 0.788470
O O9 0.604036 0.850685 0.614708
O O10 0.466194 0.782448 0.541625
O O11 0.500000 0.000000 0.552808
O O12 0.597702 0.619029 0.503992
#
# Coordination Sequence:
#
# PCOD9559929 Si02
#       6
#    16  16   8  16  16  16
#     4  10  24  45  77 107 147 200 261 316 393 479
#     4  11  24  47  76 110 152 203 250 320 385 482
#     4  12  25  44  75 108 140 202 256 330 381 465
#     4  12  26  47  73 119 159 202 249 333 399 468
#     4  11  25  47  74 110 153 196 266 312 394 466
#     4  11  24  46  81 113 151 209 266 315 389 485
#
# _framework density 24.280830999999999
#
# number of rings (size 3 to 8) (size 9 to 14) (size 15 to 20)
#    0.000    0.909    1.818    4.091   10.182    2.909 
#    6.545    0.000    0.000    0.000    0.000    0.000 
#    0.000    0.000    0.000    0.000    0.000    0.000 
#
# Total GULP energy -245216.278211 kJ/mol
# GULP energy per Si atom -5573.097232 kJ/mol
# Density = 2.422557 g / cm^3
# Si number density = 24.280831 Si / 1000 Ang^3
#
#
#
# Elastic Constant Matrix: (Units=GPa)
#
#
# Indices 1 2 3 4 5 6 
#
# 1 127.3895 36.6764 39.7849 0.0000 0.0000 0.0000
# 2 36.6764 127.3892 39.7850 0.0000 0.0000 0.0000
# 3 39.7849 39.7850 115.8268 0.0000 0.0000 0.0000
# 4 0.0000 0.0000 0.0000 33.1480 0.0000 0.0000
# 5 0.0000 0.0000 0.0000 0.0000 33.1480 0.0000
# 6 0.0000 0.0000 0.0000 0.0000 0.0000 16.9623
#
#
#
# Elastic Compliance Matrix: (Units=1/GPa)
#
#
# Indices 1 2 3 4 5 6 
#
# 1 0.009169 -0.001855 -0.002512 0.000000 0.000000 0.000000
# 2 -0.001855 0.009169 -0.002512 0.000000 0.000000 0.000000
# 3 -0.002512 -0.002512 0.010359 0.000000 0.000000 0.000000
# 4 0.000000 0.000000 0.000000 0.030168 0.000000 0.000000
# 5 0.000000 0.000000 0.000000 0.000000 0.030168 0.000000
# 6 0.000000 0.000000 0.000000 0.000000 0.000000 0.058954
#
#
# Mechanical properties :
#
#
# Convention : Reuss Voigt Hill
#
# Bulk Modulus (GPa) = 66.94378 67.01092 66.97735
# Shear Modulus (GPa) = 29.98961 33.60891 31.79926
#
# Velocity S-wave (km/s) = 3.51823 3.72449 3.62283
# Velocity P-wave (km/s) = 6.64338 6.79367 6.71894
#
# Compressibility (1/GPa) = 0.01493791
#
# Stress axis : x y z
#
# Youngs Moduli (GPa) = 109.06793 109.06755 96.53151
#
# Poissons Ratio (x) = 0.20234 0.24249
# Poissons Ratio (y) = 0.20234 0.24249
# Poissons Ratio (z) = 0.27399 0.27399
#
# Static dielectric constant tensor:
#      x y z
#    x 2.238170 0.000000 0.000000 
#    y 0.000000 2.238160 0.000000 
#    z 0.000000 0.000000 1.996610 
# 
# From -- ./inp_files/6592.got.cif
#   From: 2010.05.17/outbox.cif.g08.bks.cpg/sg120_4_cif.got.tgz:6592.got - 2010.05.20 11:28:13.
