data_PCOD9559324
_publ_section_title
;
Structure prediction by ZEFSAII (Michael W. Deem and Ramdas Pophale) SiO2 
 PCOD9559324
Probable space group: I -4 M 2
;
_chemical_formula_sum "Si O2"
_cell_formula_units_Z 64
_cell_length_a 14.715100
_cell_length_b 14.715100
_cell_length_c 15.892331
_cell_angle_alpha 90.000000
_cell_angle_beta 90.000000
_cell_angle_gamma 90.000000
_cell_volume 3441.232671
_symmetry_space_group_name_H-M "I -4 M 2"
_symmetry_group_IT_number 119
_symmetry_cell_setting 'tetragonal'
loop_
_space_group_symop_operation_xyz
x,y,z
y,-x,-z
-x,-y,z
-y,x,-z
y,x,-z
-y,-x,-z
-x,y,z
x,-y,z
1/2+x,1/2+y,1/2+z
1/2+y,1/2-x,1/2-z
1/2-x,1/2-y,1/2+z
1/2-y,1/2+x,1/2-z
1/2+y,1/2+x,1/2-z
1/2-y,1/2-x,1/2-z
1/2-x,1/2+y,1/2+z
1/2+x,1/2-y,1/2+z
loop_
_atom_site_type_symbol
_atom_site_label
_atom_site_fract_x
_atom_site_fract_y
_atom_site_fract_z
Si Si1 0.714458 0.392416 0.826919
Si Si2 0.606384 0.606384 0.000000
Si Si3 0.393786 0.108682 0.898062
Si Si4 0.291232 0.208769 0.750000
Si Si5 0.609657 0.899864 0.089345
O O1 0.702784 0.500000 0.806710
O O2 0.662963 0.374764 0.915756
O O3 0.687186 0.315986 0.760367
O O4 0.819765 0.371761 0.847102
O O5 0.620739 0.500000 0.019863
O O6 0.500000 0.136641 0.890699
O O7 0.333182 0.160239 0.831308
O O8 0.390943 0.000000 0.883613
O O9 0.362262 0.123814 0.994122
O O10 0.500000 0.905385 0.084427
O O11 0.643899 0.000000 0.113251
#
# Coordination Sequence:
#
# PCOD9559324 Si02
#       5
#    16   8  16   8  16
#     4  10  21  34  47  69 100 131 165 198 228 276
#     4   9  18  34  54  70  88 122 164 203 240 276
#     4   9  18  33  54  79 100 117 148 200 256 299
#     4  12  22  29  46  73 104 136 156 182 240 298
#     4   8  15  31  54  73  90 119 160 205 247 281
#
# _framework density 18.597988000000001
#
# number of rings (size 3 to 8) (size 9 to 14) (size 15 to 20)
#    0.000    2.625    0.000    3.750    0.000    6.000 
#    0.000    0.000    0.000    0.000    0.000    0.000 
#    0.000    4.000    0.000    0.000    0.000    0.000 
#
# Total GULP energy -178484.473097 kJ/mol
# GULP energy per Si atom -5577.639784 kJ/mol
# Density = 1.855566 g / cm^3
# Si number density = 18.597988 Si / 1000 Ang^3
#
#
#
# Elastic Constant Matrix: (Units=GPa)
#
#
# Indices 1 2 3 4 5 6 
#
# 1 50.2777 33.6998 34.3251 0.0000 0.0000 0.0000
# 2 33.6998 50.2787 34.3258 0.0000 0.0000 0.0000
# 3 34.3251 34.3258 37.8840 0.0000 0.0000 0.0000
# 4 0.0000 0.0000 0.0000 14.9716 0.0000 0.0000
# 5 0.0000 0.0000 0.0000 0.0000 14.9707 0.0000
# 6 0.0000 0.0000 0.0000 0.0000 0.0000 18.1657
#
#
#
# Elastic Compliance Matrix: (Units=1/GPa)
#
#
# Indices 1 2 3 4 5 6 
#
# 1 0.053121 -0.007198 -0.041609 0.000000 0.000000 0.000000
# 2 -0.007198 0.053122 -0.041610 0.000000 0.000000 0.000000
# 3 -0.041609 -0.041610 0.101798 0.000000 0.000000 0.000000
# 4 0.000000 0.000000 0.000000 0.066793 0.000000 0.000000
# 5 0.000000 0.000000 0.000000 0.000000 0.066797 0.000000
# 6 0.000000 0.000000 0.000000 0.000000 0.000000 0.055049
#
#
# Mechanical properties :
#
#
# Convention : Reuss Voigt Hill
#
# Bulk Modulus (GPa) = 36.75558 38.12686 37.44122
# Shear Modulus (GPa) = 8.52393 12.02756 10.27575
#
# Velocity S-wave (km/s) = 2.14318 2.54581 2.35312
# Velocity P-wave (km/s) = 5.09219 5.40246 5.24962
#
# Compressibility (1/GPa) = 0.02720675
#
# Stress axis : x y z
#
# Youngs Moduli (GPa) = 18.82495 18.82471 9.82333
#
# Poissons Ratio (x) = 0.13550 0.40874
# Poissons Ratio (y) = 0.13551 0.40875
# Poissons Ratio (z) = 0.78328 0.78330
#
# Static dielectric constant tensor:
#      x y z
#    x 1.672150 0.000000 0.000000 
#    y 0.000000 1.672150 0.000000 
#    z 0.000000 0.000000 1.651910 
# 
# From -- ./inp_files/6267.got.cif
#   From: 2010.05.17/outbox.cif.g08.bks.cpg/sg119_4_cif.got.tgz:6267.got - 2010.05.20 11:21:29.
