data_PCOD9559308
_publ_section_title
;
Structure prediction by ZEFSAII (Michael W. Deem and Ramdas Pophale) SiO2 
 PCOD9559308
Probable space group: I -4 M 2
;
_chemical_formula_sum "Si O2"
_cell_formula_units_Z 96
_cell_length_a 15.177371
_cell_length_b 15.177371
_cell_length_c 19.757074
_cell_angle_alpha 90.000000
_cell_angle_beta 90.000000
_cell_angle_gamma 90.000000
_cell_volume 4551.093176
_symmetry_space_group_name_H-M "I -4 M 2"
_symmetry_group_IT_number 119
_symmetry_cell_setting 'tetragonal'
loop_
_space_group_symop_operation_xyz
x,y,z
y,-x,-z
-x,-y,z
-y,x,-z
y,x,-z
-y,-x,-z
-x,y,z
x,-y,z
1/2+x,1/2+y,1/2+z
1/2+y,1/2-x,1/2-z
1/2-x,1/2-y,1/2+z
1/2-y,1/2+x,1/2-z
1/2+y,1/2+x,1/2-z
1/2-y,1/2-x,1/2-z
1/2-x,1/2+y,1/2+z
1/2+x,1/2-y,1/2+z
loop_
_atom_site_type_symbol
_atom_site_label
_atom_site_fract_x
_atom_site_fract_y
_atom_site_fract_z
Si Si1 0.400529 0.650684 0.193018
Si Si2 0.905462 0.218432 0.541191
Si Si3 0.899160 0.299261 0.310930
Si Si4 0.399324 0.767278 0.600096
Si Si5 0.804863 0.900933 0.157773
Si Si6 0.097410 0.665173 0.956432
O O1 0.500000 0.608424 0.196362
O O2 0.398558 0.698603 0.120922
O O3 0.307132 0.600008 0.194312
O O4 0.395021 0.708307 0.261582
O O5 0.829002 0.170999 0.500000
O O6 0.899494 0.322449 0.533422
O O7 0.000000 0.184458 0.516173
O O8 0.844212 0.344212 0.250000
O O9 0.843765 0.333303 0.375243
O O10 0.000000 0.330023 0.311831
O O11 0.500000 0.787970 0.621020
O O12 0.369439 0.675998 0.633357
O O13 0.397358 0.765861 0.518808
O O14 0.717108 0.890824 0.113622
O O15 0.839125 0.000000 0.143656
O O16 0.000000 0.625365 0.958778
#
# Coordination Sequence:
#
# PCOD9559308 Si02
#       6
#    16  16  16  16  16  16
#     4  10  23  41  66  96 123 161 214 266 322 382
#     4  11  24  42  65  94 128 170 216 268 325 384
#     4  12  25  41  63  91 127 170 212 262 317 379
#     4  11  23  39  59  90 128 170 216 260 312 381
#     4  10  20  38  63  91 122 162 210 267 325 381
#     4  10  22  39  63  92 126 168 214 263 324 390
#
# _framework density 21.093831999999999
#
# number of rings (size 3 to 8) (size 9 to 14) (size 15 to 20)
#    0.000    1.333    1.667    4.000    0.000    5.000 
#    0.000    5.000    0.000    3.000    0.000    4.667 
#    0.000    0.000    0.000    0.000    0.000    0.000 
#
# Total GULP energy -267816.934658 kJ/mol
# GULP energy per Si atom -5579.519472 kJ/mol
# Density = 2.104582 g / cm^3
# Si number density = 21.093832 Si / 1000 Ang^3
#
#
#
# Elastic Constant Matrix: (Units=GPa)
#
#
# Indices 1 2 3 4 5 6 
#
# 1 121.2269 57.1391 27.7470 0.0000 0.0000 0.0000
# 2 57.1391 121.2250 27.7457 0.0000 0.0000 0.0000
# 3 27.7470 27.7457 102.6988 0.0000 0.0000 0.0000
# 4 0.0000 0.0000 0.0000 10.1362 0.0000 0.0000
# 5 0.0000 0.0000 0.0000 0.0000 10.1365 0.0000
# 6 0.0000 0.0000 0.0000 0.0000 0.0000 -2.5746
#
#
#
# Elastic Compliance Matrix: (Units=1/GPa)
#
#
# Indices 1 2 3 4 5 6 
#
# 1 0.010862 -0.004741 -0.001654 0.000000 0.000000 0.000000
# 2 -0.004741 0.010862 -0.001654 0.000000 0.000000 0.000000
# 3 -0.001654 -0.001654 0.010631 0.000000 0.000000 0.000000
# 4 0.000000 0.000000 0.000000 0.098657 0.000000 0.000000
# 5 0.000000 0.000000 0.000000 0.000000 0.098653 0.000000
# 6 0.000000 0.000000 0.000000 0.000000 0.000000 -0.388403
#
#
# Mechanical properties :
#
#
# Convention : Reuss Voigt Hill
#
# Bulk Modulus (GPa) = 61.50862 63.37936 62.44399
# Shear Modulus (GPa) = -36.43761 19.04086 -8.69837
#
# Velocity S-wave (km/s) = -4.16072 3.00771 -2.03288
# Velocity P-wave (km/s) = 2.47805 6.49411 4.91499
#
# Compressibility (1/GPa) = 0.01625788
#
# Stress axis : x y z
#
# Youngs Moduli (GPa) = 92.06107 92.06018 94.06636
#
# Poissons Ratio (x) = 0.43650 0.15557
# Poissons Ratio (y) = 0.43650 0.15555
# Poissons Ratio (z) = 0.15225 0.15223
#
# Static dielectric constant tensor:
#      x y z
#    x 1.754260 0.000000 0.000000 
#    y 0.000000 1.754260 0.000000 
#    z 0.000000 0.000000 1.791810 
# 
# From -- ./inp_files/7771.got.cif
#   From: 2010.05.17/outbox.cif.g08.bks.cpg/sg119_4_cif.got.tgz:7771.got - 2010.05.20 11:21:29.
