data_PCOD9559950
_publ_section_title
;
Structure prediction by ZEFSAII (Michael W. Deem and Ramdas Pophale) SiO2 
 PCOD9559950
Probable space group: I -4 C 2
;
_chemical_formula_sum "Si O2"
_cell_formula_units_Z 104
_cell_length_a 19.796755
_cell_length_b 19.796755
_cell_length_c 16.025563
_cell_angle_alpha 90.000000
_cell_angle_beta 90.000000
_cell_angle_gamma 90.000000
_cell_volume 6280.602570
_symmetry_space_group_name_H-M "I -4 C 2"
_symmetry_group_IT_number 120
_symmetry_cell_setting 'tetragonal'
loop_
_space_group_symop_operation_xyz
x,y,z
y,-x,-z
-x,-y,z
-y,x,-z
y,x,1/2-z
-y,-x,1/2-z
-x,y,1/2+z
x,-y,1/2+z
1/2+x,1/2+y,1/2+z
1/2+y,1/2-x,1/2-z
1/2-x,1/2-y,1/2+z
1/2-y,1/2+x,1/2-z
1/2+y,1/2+x,-z
1/2-y,1/2-x,-z
1/2-x,1/2+y,z
1/2+x,1/2-y,z
loop_
_atom_site_type_symbol
_atom_site_label
_atom_site_fract_x
_atom_site_fract_y
_atom_site_fract_z
Si Si1 0.731089 0.768912 0.000000
Si Si2 0.822398 0.753778 0.830985
Si Si3 0.719793 0.599019 0.587477
Si Si4 0.639708 0.756369 0.741966
Si Si5 0.423824 0.665174 0.113521
Si Si6 0.310666 0.555457 0.570558
Si Si7 0.454638 0.433300 0.153518
O O1 0.745112 0.727679 0.087051
O O2 0.752744 0.846319 0.021128
O O3 0.798963 0.798963 0.750000
O O4 0.819160 0.677255 0.798260
O O5 0.895024 0.775657 0.863942
O O6 0.766691 0.610601 0.667490
O O7 0.642538 0.617152 0.616058
O O8 0.715914 0.520640 0.567402
O O9 0.700782 0.700782 0.750000
O O10 0.585408 0.721266 0.683559
O O11 0.494010 0.626218 0.127770
O O12 0.417994 0.697410 0.022802
O O13 0.390259 0.559658 0.593816
O O14 0.500000 0.500000 0.147019
O O15 0.430043 0.430043 0.250000
#
# Coordination Sequence:
#
# PCOD9559950 Si02
#       7
#     8  16  16  16  16  16  16
#     4  12  20  40  60  78 108 162 196 240 306 346
#     4  11  20  36  58  83 109 152 201 256 289 344
#     4  11  21  37  55  77 112 155 193 238 292 349
#     4   9  18  35  55  72 101 152 195 236 289 336
#     4  11  20  33  52  74 110 155 200 226 274 342
#     4  12  23  34  51  85 115 147 196 246 286 345
#     4  11  23  33  46  69 112 163 193 223 275 341
#
# _framework density 16.558921000000002
#
# number of rings (size 3 to 8) (size 9 to 14) (size 15 to 20)
#    0.000    1.077    7.692    2.308    4.308    0.000 
#    0.000    0.000    0.000    0.000    0.000    0.000 
#    0.000   13.538    0.000    0.000    0.000    0.000 
#
# Total GULP energy -289701.900512 kJ/mol
# GULP energy per Si atom -5571.190394 kJ/mol
# Density = 1.652123 g / cm^3
# Si number density = 16.558921 Si / 1000 Ang^3
#
#
#
# Elastic Constant Matrix: (Units=GPa)
#
#
# Indices 1 2 3 4 5 6 
#
# 1 51.7232 34.8547 11.0251 0.0000 0.0000 0.0000
# 2 34.8547 51.7245 11.0251 0.0000 0.0000 0.0000
# 3 11.0251 11.0251 83.7479 0.0000 0.0000 0.0000
# 4 0.0000 0.0000 0.0000 22.3746 0.0000 0.0000
# 5 0.0000 0.0000 0.0000 0.0000 22.3745 0.0000
# 6 0.0000 0.0000 0.0000 0.0000 0.0000 31.3256
#
#
#
# Elastic Compliance Matrix: (Units=1/GPa)
#
#
# Indices 1 2 3 4 5 6 
#
# 1 0.035616 -0.023664 -0.001573 0.000000 0.000000 0.000000
# 2 -0.023664 0.035615 -0.001573 0.000000 0.000000 0.000000
# 3 -0.001573 -0.001573 0.012355 0.000000 0.000000 0.000000
# 4 0.000000 0.000000 0.000000 0.044693 0.000000 0.000000
# 5 0.000000 0.000000 0.000000 0.000000 0.044694 0.000000
# 6 0.000000 0.000000 0.000000 0.000000 0.000000 0.031923
#
#
# Mechanical properties :
#
#
# Convention : Reuss Voigt Hill
#
# Bulk Modulus (GPa) = 33.37399 33.44506 33.40953
# Shear Modulus (GPa) = 18.62162 23.90099 21.26131
#
# Velocity S-wave (km/s) = 3.35710 3.80332 3.58715
# Velocity P-wave (km/s) = 5.93508 6.28716 6.11366
#
# Compressibility (1/GPa) = 0.02996345
#
# Stress axis : x y z
#
# Youngs Moduli (GPa) = 28.07749 28.07819 80.93997
#
# Poissons Ratio (x) = 0.66445 0.12735
# Poissons Ratio (y) = 0.66444 0.12734
# Poissons Ratio (z) = 0.04418 0.04417
#
# Static dielectric constant tensor:
#      x y z
#    x 1.570560 0.000000 0.000000 
#    y 0.000000 1.570560 0.000000 
#    z 0.000000 0.000000 1.616430 
# 
# From -- ./inp_files/4516.got.cif
#   From: 2010.05.17/outbox.cif.g08.bks.cpg/sg120_3_cif.got.tgz:4516.got - 2010.05.20 11:28:13.
