data_PCOD9559620
_publ_section_title
;
Structure prediction by ZEFSAII (Michael W. Deem and Ramdas Pophale) SiO2 
 PCOD9559620
Probable space group: I -4 C 2
;
_chemical_formula_sum "Si O2"
_cell_formula_units_Z 112
_cell_length_a 13.128246
_cell_length_b 13.128246
_cell_length_c 29.205669
_cell_angle_alpha 90.000000
_cell_angle_beta 90.000000
_cell_angle_gamma 90.000000
_cell_volume 5033.621674
_symmetry_space_group_name_H-M "I -4 C 2"
_symmetry_group_IT_number 120
_symmetry_cell_setting 'tetragonal'
loop_
_space_group_symop_operation_xyz
x,y,z
y,-x,-z
-x,-y,z
-y,x,-z
y,x,1/2-z
-y,-x,1/2-z
-x,y,1/2+z
x,-y,1/2+z
1/2+x,1/2+y,1/2+z
1/2+y,1/2-x,1/2-z
1/2-x,1/2-y,1/2+z
1/2-y,1/2+x,1/2-z
1/2+y,1/2+x,-z
1/2-y,1/2-x,-z
1/2-x,1/2+y,z
1/2+x,1/2-y,z
loop_
_atom_site_type_symbol
_atom_site_label
_atom_site_fract_x
_atom_site_fract_y
_atom_site_fract_z
Si Si1 0.150623 0.375701 0.104268
Si Si2 0.686177 0.359389 0.122683
Si Si3 0.755753 0.388853 0.847304
Si Si4 0.320168 0.951312 0.439535
Si Si5 0.459028 0.297958 0.321728
Si Si6 0.490869 0.166027 0.238087
Si Si7 0.263662 0.972305 0.540144
O O1 0.153035 0.256418 0.115828
O O2 0.195346 0.438796 0.147026
O O3 0.221520 0.416993 0.062916
O O4 0.039295 0.387668 0.083489
O O5 0.796378 0.336313 0.146926
O O6 0.641979 0.445966 0.156011
O O7 0.685168 0.411909 0.072522
O O8 0.741750 0.420378 0.899836
O O9 0.649146 0.353590 0.826141
O O10 0.803816 0.473557 0.814437
O O11 0.260825 0.980525 0.485685
O O12 0.399741 0.861953 0.450647
O O13 0.484921 0.263134 0.270885
O O14 0.592663 0.102688 0.247342
#
# Coordination Sequence:
#
# PCOD9559620 Si02
#       7
#    16  16  16  16  16  16  16
#     4  10  19  33  58  83 110 155 194 247 312 365
#     4   9  19  37  53  83 116 152 202 245 297 386
#     4  10  20  36  57  82 122 160 198 252 319 375
#     4  10  19  35  54  87 118 151 198 256 312 374
#     4  10  20  37  56  83 118 161 199 252 312 376
#     4  11  21  34  59  90 120 152 202 267 329 380
#     4   9  19  35  55  85 121 149 193 260 312 366
#
# _framework density 22.250381999999998
#
# number of rings (size 3 to 8) (size 9 to 14) (size 15 to 20)
#    0.000    2.143    1.429    2.143    0.000    1.143 
#   18.000    0.714    0.000    0.000    0.000    2.000 
#    0.000    0.000    0.000    0.000    0.000    0.000 
#
# Total GULP energy -312103.869137 kJ/mol
# GULP energy per Si atom -5573.283377 kJ/mol
# Density = 2.219974 g / cm^3
# Si number density = 22.250382 Si / 1000 Ang^3
#
#
#
# Elastic Constant Matrix: (Units=GPa)
#
#
# Indices 1 2 3 4 5 6 
#
# 1 59.0775 5.3410 15.3893 0.0000 0.0000 0.0000
# 2 5.3410 59.0775 15.3893 0.0000 0.0000 0.0000
# 3 15.3893 15.3893 134.8522 0.0000 0.0000 0.0000
# 4 0.0000 0.0000 0.0000 17.2620 0.0000 0.0000
# 5 0.0000 0.0000 0.0000 0.0000 17.2620 0.0000
# 6 0.0000 0.0000 0.0000 0.0000 0.0000 6.0434
#
#
#
# Elastic Compliance Matrix: (Units=1/GPa)
#
#
# Indices 1 2 3 4 5 6 
#
# 1 0.017514 -0.001095 -0.001874 0.000000 0.000000 0.000000
# 2 -0.001095 0.017514 -0.001874 0.000000 0.000000 0.000000
# 3 -0.001874 -0.001874 0.007843 0.000000 0.000000 0.000000
# 4 0.000000 0.000000 0.000000 0.057931 0.000000 0.000000
# 5 0.000000 0.000000 0.000000 0.000000 0.057931 0.000000
# 6 0.000000 0.000000 0.000000 0.000000 0.000000 0.165469
#
#
# Mechanical properties :
#
#
# Convention : Reuss Voigt Hill
#
# Bulk Modulus (GPa) = 30.13335 36.13848 33.13591
# Shear Modulus (GPa) = 14.49492 22.57267 18.53379
#
# Velocity S-wave (km/s) = 2.55511 3.18855 2.88924
# Velocity P-wave (km/s) = 4.71986 5.46194 5.10440
#
# Compressibility (1/GPa) = 0.03318582
#
# Stress axis : x y z
#
# Youngs Moduli (GPa) = 57.09708 57.09708 127.49934
#
# Poissons Ratio (x) = 0.06254 0.23890
# Poissons Ratio (y) = 0.06254 0.23890
# Poissons Ratio (z) = 0.10698 0.10698
#
# Static dielectric constant tensor:
#      x y z
#    x 1.877280 0.000000 0.000000 
#    y 0.000000 1.877280 0.000000 
#    z 0.000000 0.000000 1.833500 
# 
# From -- ./inp_files/6272.got.cif
#   From: 2010.05.17/outbox.cif.g08.bks.cpg/sg120_4_cif.got.tgz:6272.got - 2010.05.20 11:28:13.
