data_PCOD9559394
_publ_section_title
;
Structure prediction by ZEFSAII (Michael W. Deem and Ramdas Pophale) SiO2 
 PCOD9559394
Probable space group: I -4 M 2
;
_chemical_formula_sum "Si O2"
_cell_formula_units_Z 96
_cell_length_a 24.354099
_cell_length_b 24.354099
_cell_length_c 8.326545
_cell_angle_alpha 90.000000
_cell_angle_beta 90.000000
_cell_angle_gamma 90.000000
_cell_volume 4938.658173
_symmetry_space_group_name_H-M "I -4 M 2"
_symmetry_group_IT_number 119
_symmetry_cell_setting 'tetragonal'
loop_
_space_group_symop_operation_xyz
x,y,z
y,-x,-z
-x,-y,z
-y,x,-z
y,x,-z
-y,-x,-z
-x,y,z
x,-y,z
1/2+x,1/2+y,1/2+z
1/2+y,1/2-x,1/2-z
1/2-x,1/2-y,1/2+z
1/2-y,1/2+x,1/2-z
1/2+y,1/2+x,1/2-z
1/2-y,1/2-x,1/2-z
1/2-x,1/2+y,1/2+z
1/2+x,1/2-y,1/2+z
loop_
_atom_site_type_symbol
_atom_site_label
_atom_site_fract_x
_atom_site_fract_y
_atom_site_fract_z
Si Si1 0.062737 0.772905 0.127132
Si Si2 0.339867 0.283823 0.146347
Si Si3 0.935365 0.736206 0.483395
Si Si4 0.106443 0.565795 0.075841
Si Si5 0.439687 0.833268 0.407287
Si Si6 0.675750 0.175750 0.250000
Si Si7 0.832833 0.167168 0.000000
O O1 0.078465 0.763417 0.311885
O O2 0.105331 0.813564 0.042134
O O3 0.000000 0.792940 0.116924
O O4 0.062195 0.711561 0.049885
O O5 0.314967 0.222761 0.119140
O O6 0.323663 0.302562 0.326112
O O7 0.320841 0.320841 0.000000
O O8 0.404085 0.271500 0.117487
O O9 0.922832 0.670750 0.464305
O O10 0.000000 0.739972 0.506324
O O11 0.097832 0.500000 0.067437
O O12 0.088630 0.588630 0.250000
O O13 0.070009 0.603941 0.960184
O O14 0.500000 0.828553 0.329990
O O15 0.385761 0.818638 0.309724
#
# Coordination Sequence:
#
# PCOD9559394 Si02
#       7
#    16  16  16  16  16   8   8
#     4  10  21  40  66  96 128 163 212 265 316 389
#     4  12  26  42  63  97 131 165 215 268 323 396
#     4  10  21  40  66  92 126 172 216 267 325 384
#     4  11  21  35  58  88 123 169 228 289 343 389
#     4  11  23  39  57  82 119 167 224 280 331 389
#     4  12  26  40  58  87 122 174 214 272 337 386
#     4  12  24  42  70  99 130 170 214 256 330 392
#
# _framework density 19.438479000000001
#
# number of rings (size 3 to 8) (size 9 to 14) (size 15 to 20)
#    0.000    1.000    6.667    0.500    1.167    3.167 
#    1.500    0.000    0.000    0.250    0.000    0.000 
#    0.000    0.333    0.000    0.000    0.000    0.000 
#
# Total GULP energy -267494.029604 kJ/mol
# GULP energy per Si atom -5572.792283 kJ/mol
# Density = 1.939424 g / cm^3
# Si number density = 19.438479 Si / 1000 Ang^3
#
#
#
# Elastic Constant Matrix: (Units=GPa)
#
#
# Indices 1 2 3 4 5 6 
#
# 1 79.4522 50.5282 32.1773 0.0000 0.0000 0.0000
# 2 50.5282 79.4508 32.1772 0.0000 0.0000 0.0000
# 3 32.1773 32.1772 102.2606 0.0000 0.0000 0.0000
# 4 0.0000 0.0000 0.0000 29.9154 0.0000 0.0000
# 5 0.0000 0.0000 0.0000 0.0000 29.9155 0.0000
# 6 0.0000 0.0000 0.0000 0.0000 0.0000 31.1905
#
#
#
# Elastic Compliance Matrix: (Units=1/GPa)
#
#
# Indices 1 2 3 4 5 6 
#
# 1 0.021844 -0.012730 -0.002868 0.000000 0.000000 0.000000
# 2 -0.012730 0.021844 -0.002868 0.000000 0.000000 0.000000
# 3 -0.002868 -0.002868 0.011584 0.000000 0.000000 0.000000
# 4 0.000000 0.000000 0.000000 0.033428 0.000000 0.000000
# 5 0.000000 0.000000 0.000000 0.000000 0.033427 0.000000
# 6 0.000000 0.000000 0.000000 0.000000 0.000000 0.032061
#
#
# Mechanical properties :
#
#
# Convention : Reuss Voigt Hill
#
# Bulk Modulus (GPa) = 54.52622 54.54768 54.53695
# Shear Modulus (GPa) = 25.35088 27.95633 26.65360
#
# Velocity S-wave (km/s) = 3.61523 3.79647 3.70696
# Velocity P-wave (km/s) = 6.74819 6.88042 6.81463
#
# Compressibility (1/GPa) = 0.01833980
#
# Stress axis : x y z
#
# Youngs Moduli (GPa) = 45.78010 45.77918 86.32920
#
# Poissons Ratio (x) = 0.58279 0.24755
# Poissons Ratio (y) = 0.58280 0.24756
# Poissons Ratio (z) = 0.13128 0.13128
#
# Static dielectric constant tensor:
#      x y z
#    x 1.693410 0.000000 0.000000 
#    y 0.000000 1.693420 0.000000 
#    z 0.000000 0.000000 1.781210 
# 
# From -- ./inp_files/2736.got.cif
#   From: 2010.05.17/outbox.cif.g08.bks.cpg/sg119_2_cif.got.tgz:2736.got - 2010.05.20 11:21:29.
