data_PCOD9559117
_publ_section_title
;
Structure prediction by ZEFSAII (Michael W. Deem and Ramdas Pophale) SiO2 
 PCOD9559117
Probable space group: I -4 M 2
;
_chemical_formula_sum "Si O2"
_cell_formula_units_Z 120
_cell_length_a 17.883470
_cell_length_b 17.883470
_cell_length_c 20.117307
_cell_angle_alpha 90.000000
_cell_angle_beta 90.000000
_cell_angle_gamma 90.000000
_cell_volume 6433.886934
_symmetry_space_group_name_H-M "I -4 M 2"
_symmetry_group_IT_number 119
_symmetry_cell_setting 'tetragonal'
loop_
_space_group_symop_operation_xyz
x,y,z
y,-x,-z
-x,-y,z
-y,x,-z
y,x,-z
-y,-x,-z
-x,y,z
x,-y,z
1/2+x,1/2+y,1/2+z
1/2+y,1/2-x,1/2-z
1/2-x,1/2-y,1/2+z
1/2-y,1/2+x,1/2-z
1/2+y,1/2+x,1/2-z
1/2-y,1/2-x,1/2-z
1/2-x,1/2+y,1/2+z
1/2+x,1/2-y,1/2+z
loop_
_atom_site_type_symbol
_atom_site_label
_atom_site_fract_x
_atom_site_fract_y
_atom_site_fract_z
Si Si1 0.180624 0.821623 0.889481
Si Si2 0.089967 0.089967 0.000000
Si Si3 0.317328 0.916856 0.841173
Si Si4 0.716902 0.686212 0.089401
Si Si5 0.415775 0.765142 0.286928
Si Si6 0.285737 0.083170 0.684320
Si Si7 0.913793 0.743810 0.530940
Si Si8 0.144943 0.414565 0.842931
O O1 0.245979 0.881393 0.876654
O O2 0.230436 0.751421 0.915444
O O3 0.140939 0.790919 0.822928
O O4 0.120916 0.859598 0.938665
O O5 0.000000 0.101257 0.009447
O O6 0.295518 0.917414 0.763261
O O7 0.389853 0.864830 0.845557
O O8 0.332177 0.000000 0.864380
O O9 0.730737 0.648175 0.159992
O O10 0.630675 0.691497 0.070351
O O11 0.759928 0.633545 0.036646
O O12 0.500000 0.736903 0.294114
O O13 0.402954 0.786306 0.209616
O O14 0.408129 0.845778 0.324283
O O15 0.264317 0.000000 0.662524
O O16 0.910818 0.673991 0.581661
O O17 0.000000 0.760030 0.517632
O O18 0.117488 0.500000 0.830701
#
# Coordination Sequence:
#
# PCOD9559117 Si02
#       8
#    16   8  16  16  16  16  16  16
#     4  11  21  35  56  78 106 134 178 224 262 313
#     4  11  24  40  56  74 100 136 174 217 270 320
#     4   9  19  33  52  78 106 140 176 216 264 311
#     4  10  20  33  55  81 106 138 177 217 265 311
#     4  10  20  33  53  80 109 142 178 220 268 315
#     4   9  18  32  53  80 108 138 173 214 264 316
#     4  10  19  33  52  77 107 137 174 216 261 312
#     4   9  19  33  52  78 110 143 175 215 265 320
#
# _framework density 18.651244999999999
#
# number of rings (size 3 to 8) (size 9 to 14) (size 15 to 20)
#    0.000    2.200    1.333    2.000    1.867    1.600 
#    0.000    2.667    0.000    6.800    0.000    3.733 
#    0.000    0.000    0.000    0.000    0.000    0.000 
#
# Total GULP energy -334112.436775 kJ/mol
# GULP energy per Si atom -5568.540613 kJ/mol
# Density = 1.860879 g / cm^3
# Si number density = 18.651245 Si / 1000 Ang^3
#
#
#
# Elastic Constant Matrix: (Units=GPa)
#
#
# Indices 1 2 3 4 5 6 
#
# 1 54.2373 11.4771 2.5615 0.0000 0.0000 0.0000
# 2 11.4771 54.2373 2.5615 0.0000 0.0000 0.0000
# 3 2.5615 2.5615 29.5060 0.0000 0.0000 0.0000
# 4 0.0000 0.0000 0.0000 22.5517 0.0000 0.0000
# 5 0.0000 0.0000 0.0000 0.0000 22.5517 0.0000
# 6 0.0000 0.0000 0.0000 0.0000 0.0000 15.2597
#
#
#
# Elastic Compliance Matrix: (Units=1/GPa)
#
#
# Indices 1 2 3 4 5 6 
#
# 1 0.019354 -0.004033 -0.001330 0.000000 0.000000 0.000000
# 2 -0.004033 0.019354 -0.001330 0.000000 0.000000 0.000000
# 3 -0.001330 -0.001330 0.034122 0.000000 0.000000 0.000000
# 4 0.000000 0.000000 0.000000 0.044343 0.000000 0.000000
# 5 0.000000 0.000000 0.000000 0.000000 0.044343 0.000000
# 6 0.000000 0.000000 0.000000 0.000000 0.000000 0.065532
#
#
# Mechanical properties :
#
#
# Convention : Reuss Voigt Hill
#
# Bulk Modulus (GPa) = 16.82251 19.02009 17.92130
# Shear Modulus (GPa) = 19.21251 20.16464 19.68858
#
# Velocity S-wave (km/s) = 3.21299 3.29164 3.25255
# Velocity P-wave (km/s) = 4.77530 4.96653 4.87185
#
# Compressibility (1/GPa) = 0.05944418
#
# Stress axis : x y z
#
# Youngs Moduli (GPa) = 51.66985 51.66985 29.30628
#
# Poissons Ratio (x) = 0.20836 0.03898
# Poissons Ratio (y) = 0.20836 0.03898
# Poissons Ratio (z) = 0.06873 0.06873
#
# Static dielectric constant tensor:
#      x y z
#    x 1.651550 0.000000 0.000000 
#    y 0.000000 1.651550 0.000000 
#    z 0.000000 0.000000 1.692480 
# 
# From -- ./inp_files/8091.got.cif
#   From: 2010.05.17/outbox.cif.g08.bks.cpg/sg119_5_cif.got.tgz:8091.got - 2010.05.20 11:21:29.
