data_PCOD9559903
_publ_section_title
;
Structure prediction by ZEFSAII (Michael W. Deem and Ramdas Pophale) SiO2 
 PCOD9559903
Probable space group: I -4 C 2
;
_chemical_formula_sum "Si O2"
_cell_formula_units_Z 100
_cell_length_a 14.635165
_cell_length_b 14.635165
_cell_length_c 23.875405
_cell_angle_alpha 90.000000
_cell_angle_beta 90.000000
_cell_angle_gamma 90.000000
_cell_volume 5113.826549
_symmetry_space_group_name_H-M "I -4 C 2"
_symmetry_group_IT_number 120
_symmetry_cell_setting 'tetragonal'
loop_
_space_group_symop_operation_xyz
x,y,z
y,-x,-z
-x,-y,z
-y,x,-z
y,x,1/2-z
-y,-x,1/2-z
-x,y,1/2+z
x,-y,1/2+z
1/2+x,1/2+y,1/2+z
1/2+y,1/2-x,1/2-z
1/2-x,1/2-y,1/2+z
1/2-y,1/2+x,1/2-z
1/2+y,1/2+x,-z
1/2-y,1/2-x,-z
1/2-x,1/2+y,z
1/2+x,1/2-y,z
loop_
_atom_site_type_symbol
_atom_site_label
_atom_site_fract_x
_atom_site_fract_y
_atom_site_fract_z
Si Si1 0.113505 0.714930 0.919489
Si Si2 0.004264 0.280509 0.717548
Si Si3 0.500000 0.000000 0.500000
Si Si4 0.500000 0.500000 0.846018
Si Si5 0.409161 0.681511 0.118780
Si Si6 0.603955 0.396046 0.750000
Si Si7 0.536073 0.800720 0.038957
Si Si8 0.403008 0.947647 0.676241
O O1 0.163964 0.803648 0.895383
O O2 0.188062 0.637557 0.935481
O O3 0.045352 0.667282 0.874819
O O4 0.055330 0.734016 0.975792
O O5 0.074642 0.207111 0.741450
O O6 0.063148 0.343984 0.677307
O O7 0.928581 0.228380 0.679798
O O8 0.968274 0.346615 0.766885
O O9 0.501939 0.093854 0.534765
O O10 0.581145 0.545911 0.879843
O O11 0.547526 0.428577 0.804125
O O12 0.464451 0.741597 0.073650
O O13 0.500000 0.000000 0.672680
#
# Coordination Sequence:
#
# PCOD9559903 Si02
#       8
#    16  16   4   8  16   8  16  16
#     4  10  24  41  66  97 130 178 228 278 345 412
#     4  11  22  39  65  96 131 176 221 280 340 409
#     4   8  20  40  68  92 122 184 214 274 356 382
#     4   9  20  40  61  88 128 180 217 273 346 414
#     4  11  23  43  66  97 136 177 230 286 344 418
#     4   9  20  38  62  90 130 177 226 262 340 421
#     4  10  23  43  66  96 133 174 232 284 340 417
#     4  12  23  43  64  98 138 171 224 283 342 414
#
# _framework density 19.554828000000001
#
# number of rings (size 3 to 8) (size 9 to 14) (size 15 to 20)
#    0.000    1.760    3.200    0.960    4.480    5.760 
#    1.440    1.600    0.000    0.000    0.000    0.000 
#    0.000    0.000    0.000    0.000    0.000    0.000 
#
# Total GULP energy -278851.162373 kJ/mol
# GULP energy per Si atom -5577.023247 kJ/mol
# Density = 1.951032 g / cm^3
# Si number density = 19.554828 Si / 1000 Ang^3
#
#
#
# Elastic Constant Matrix: (Units=GPa)
#
#
# Indices 1 2 3 4 5 6 
#
# 1 138.3437 61.5199 46.0216 0.0000 0.0000 0.0000
# 2 61.5199 138.3427 46.0210 0.0000 0.0000 0.0000
# 3 46.0216 46.0210 108.7624 0.0000 0.0000 0.0000
# 4 0.0000 0.0000 0.0000 4.1190 0.0000 0.0000
# 5 0.0000 0.0000 0.0000 0.0000 4.1199 0.0000
# 6 0.0000 0.0000 0.0000 0.0000 0.0000 25.4883
#
#
#
# Elastic Compliance Matrix: (Units=1/GPa)
#
#
# Indices 1 2 3 4 5 6 
#
# 1 0.009616 -0.003401 -0.002630 0.000000 0.000000 0.000000
# 2 -0.003401 0.009616 -0.002630 0.000000 0.000000 0.000000
# 3 -0.002630 -0.002630 0.011420 0.000000 0.000000 0.000000
# 4 0.000000 0.000000 0.000000 0.242777 0.000000 0.000000
# 5 0.000000 0.000000 0.000000 0.000000 0.242727 0.000000
# 6 0.000000 0.000000 0.000000 0.000000 0.000000 0.039234
#
#
# Mechanical properties :
#
#
# Convention : Reuss Voigt Hill
#
# Bulk Modulus (GPa) = 75.01699 76.95263 75.98481
# Shear Modulus (GPa) = 8.66321 22.20452 15.43387
#
# Velocity S-wave (km/s) = 2.10709 3.37337 2.81243
# Velocity P-wave (km/s) = 6.66074 7.38989 7.03477
#
# Compressibility (1/GPa) = 0.01333031
#
# Stress axis : x y z
#
# Youngs Moduli (GPa) = 103.99747 103.99694 87.56831
#
# Poissons Ratio (x) = 0.35372 0.23027
# Poissons Ratio (y) = 0.35372 0.23026
# Poissons Ratio (z) = 0.27347 0.27346
#
# Static dielectric constant tensor:
#      x y z
#    x 1.706540 0.000000 0.000000 
#    y 0.000000 1.706530 0.000000 
#    z 0.000000 0.000000 1.837200 
# 
# From -- ./inp_files/5885.got.cif
#   From: 2010.05.17/outbox.cif.g08.bks.cpg/sg120_3_cif.got.tgz:5885.got - 2010.05.20 11:28:13.
