data_PCOD9559990
_publ_section_title
;
Structure prediction by ZEFSAII (Michael W. Deem and Ramdas Pophale) SiO2 
 PCOD9559990
Probable space group: I -4 C 2
;
_chemical_formula_sum "Si O2"
_cell_formula_units_Z 88
_cell_length_a 16.066465
_cell_length_b 16.066465
_cell_length_c 15.874009
_cell_angle_alpha 90.000000
_cell_angle_beta 90.000000
_cell_angle_gamma 90.000000
_cell_volume 4097.578541
_symmetry_space_group_name_H-M "I -4 C 2"
_symmetry_group_IT_number 120
_symmetry_cell_setting 'tetragonal'
loop_
_space_group_symop_operation_xyz
x,y,z
y,-x,-z
-x,-y,z
-y,x,-z
y,x,1/2-z
-y,-x,1/2-z
-x,y,1/2+z
x,-y,1/2+z
1/2+x,1/2+y,1/2+z
1/2+y,1/2-x,1/2-z
1/2-x,1/2-y,1/2+z
1/2-y,1/2+x,1/2-z
1/2+y,1/2+x,-z
1/2-y,1/2-x,-z
1/2-x,1/2+y,z
1/2+x,1/2-y,z
loop_
_atom_site_type_symbol
_atom_site_label
_atom_site_fract_x
_atom_site_fract_y
_atom_site_fract_z
Si Si1 0.657461 0.657461 0.750000
Si Si2 0.953220 0.875130 0.101363
Si Si3 0.691931 0.074546 0.167427
Si Si4 0.622910 0.171596 0.325784
Si Si5 0.558093 0.633063 0.412510
Si Si6 0.402090 0.902090 0.000000
Si Si7 0.399430 0.100571 0.000000
O O1 0.578717 0.663306 0.687869
O O2 0.735253 0.653506 0.688507
O O3 0.052498 0.885596 0.103724
O O4 0.906235 0.965275 0.097432
O O5 0.933434 0.836765 0.009759
O O6 0.664452 0.119216 0.252042
O O7 0.789994 0.074602 0.147717
O O8 0.645564 0.117006 0.087080
O O9 0.666531 0.977675 0.177059
O O10 0.641768 0.140142 0.418430
O O11 0.501246 0.887388 0.008808
#
# Coordination Sequence:
#
# PCOD9559990 Si02
#       7
#     8  16  16  16  16   8   8
#     4  12  24  45  64  98 140 171 222 290 330 394
#     4   9  20  41  68  97 131 173 221 274 336 417
#     4  11  22  43  67 108 135 179 224 285 338 409
#     4  11  25  44  66  96 139 177 230 278 341 400
#     4   9  19  41  70  98 130 174 224 273 342 404
#     4   9  20  36  73 100 130 174 225 274 343 402
#     4   9  20  46  65  90 132 188 227 273 332 408
#
# _framework density 21.476099999999999
#
# number of rings (size 3 to 8) (size 9 to 14) (size 15 to 20)
#    0.000    2.000    1.818    2.182    2.545    3.273 
#    6.545    0.000    4.000    0.000    0.000    0.000 
#    0.000    0.000    0.000    0.000    0.000    0.000 
#
# Total GULP energy -245834.676496 kJ/mol
# GULP energy per Si atom -5587.151739 kJ/mol
# Density = 2.142722 g / cm^3
# Si number density = 21.476100 Si / 1000 Ang^3
#
#
#
# Elastic Constant Matrix: (Units=GPa)
#
#
# Indices 1 2 3 4 5 6 
#
# 1 40.2420 49.9047 69.4882 0.0000 0.0000 0.0000
# 2 49.9047 40.2420 69.4876 0.0000 0.0000 0.0000
# 3 69.4882 69.4876 192.0853 0.0000 0.0000 0.0000
# 4 0.0000 0.0000 0.0000 20.9898 0.0000 0.0000
# 5 0.0000 0.0000 0.0000 0.0000 20.9905 0.0000
# 6 0.0000 0.0000 0.0000 0.0000 0.0000 12.5034
#
#
#
# Elastic Compliance Matrix: (Units=1/GPa)
#
#
# Indices 1 2 3 4 5 6 
#
# 1 -0.039205 0.064285 -0.009073 0.000000 0.000000 0.000000
# 2 0.064285 -0.039204 -0.009073 0.000000 0.000000 0.000000
# 3 -0.009073 -0.009073 0.011770 0.000000 0.000000 0.000000
# 4 0.000000 0.000000 0.000000 0.047642 0.000000 0.000000
# 5 0.000000 0.000000 0.000000 0.000000 0.047641 0.000000
# 6 0.000000 0.000000 0.000000 0.000000 0.000000 0.079978
#
#
# Mechanical properties :
#
#
# Convention : Reuss Voigt Hill
#
# Bulk Modulus (GPa) = 39.00232 72.25894 55.63063
# Shear Modulus (GPa) = 200.88629 16.47599 108.68114
#
# Velocity S-wave (km/s) = 9.68207 2.77280 7.12148
# Velocity P-wave (km/s) = 11.96621 6.63103 9.67370
#
# Compressibility (1/GPa) = 0.02563950
#
# Stress axis : x y z
#
# Youngs Moduli (GPa) = -25.50668 -25.50750 84.95838
#
# Poissons Ratio (x) = 1.63976 0.77080
# Poissons Ratio (y) = 1.63971 0.77086
# Poissons Ratio (z) = -0.23141 -0.23144
#
# Static dielectric constant tensor:
#      x y z
#    x 1.780460 0.000000 0.000000 
#    y 0.000000 1.780460 0.000000 
#    z 0.000000 0.000000 1.778660 
# 
# From -- ./inp_files/3557.got.cif
#   From: 2010.05.17/outbox.cif.g08.bks.cpg/sg120_2_cif.got.tgz:3557.got - 2010.05.20 11:28:13.
