data_PCOD9559185
_publ_section_title
;
Structure prediction by ZEFSAII (Michael W. Deem and Ramdas Pophale) SiO2 
 PCOD9559185
Probable space group: I -4 M 2
;
_chemical_formula_sum "Si O2"
_cell_formula_units_Z 112
_cell_length_a 14.959794
_cell_length_b 14.959794
_cell_length_c 25.646814
_cell_angle_alpha 90.000000
_cell_angle_beta 90.000000
_cell_angle_gamma 90.000000
_cell_volume 5739.639935
_symmetry_space_group_name_H-M "I -4 M 2"
_symmetry_group_IT_number 119
_symmetry_cell_setting 'tetragonal'
loop_
_space_group_symop_operation_xyz
x,y,z
y,-x,-z
-x,-y,z
-y,x,-z
y,x,-z
-y,-x,-z
-x,y,z
x,-y,z
1/2+x,1/2+y,1/2+z
1/2+y,1/2-x,1/2-z
1/2-x,1/2-y,1/2+z
1/2-y,1/2+x,1/2-z
1/2+y,1/2+x,1/2-z
1/2-y,1/2-x,1/2-z
1/2-x,1/2+y,1/2+z
1/2+x,1/2-y,1/2+z
loop_
_atom_site_type_symbol
_atom_site_label
_atom_site_fract_x
_atom_site_fract_y
_atom_site_fract_z
Si Si1 0.153849 0.400951 0.193430
Si Si2 0.898462 0.358268 0.590026
Si Si3 0.203164 0.601082 0.793567
Si Si4 0.152679 0.100912 0.443596
Si Si5 0.102158 0.605881 0.418437
Si Si6 0.895654 0.256216 0.995843
Si Si7 0.359445 0.402475 0.168684
O O1 0.113070 0.500000 0.191855
O O2 0.135660 0.364341 0.250000
O O3 0.120574 0.358644 0.139516
O O4 0.259254 0.405118 0.188575
O O5 0.883554 0.350711 0.652231
O O6 0.902114 0.256320 0.570708
O O7 0.814818 0.396627 0.557729
O O8 0.000000 0.395406 0.580422
O O9 0.182561 0.500000 0.775562
O O10 0.171728 0.671728 0.750000
O O11 0.309162 0.602804 0.808582
O O12 0.141920 0.141920 0.500000
O O13 0.106115 0.145263 0.393999
O O14 0.117538 0.000000 0.445895
O O15 0.094835 0.500000 0.427192
O O16 0.171496 0.638694 0.461374
O O17 0.000000 0.643031 0.422270
O O18 0.000000 0.231477 0.006621
O O19 0.828373 0.171628 0.000000
O O20 0.400520 0.500000 0.181360
#
# Coordination Sequence:
#
# PCOD9559185 Si02
#       7
#    16  16  16  16  16  16  16
#     4  10  20  33  54  82 114 153 191 232 285 349
#     4   9  20  37  61  91 119 149 189 244 309 367
#     4  10  22  40  62  89 118 154 201 255 309 359
#     4  10  20  32  51  82 119 158 194 232 283 352
#     4   9  19  35  57  88 119 148 189 242 300 358
#     4  11  24  40  61  87 117 159 202 247 299 351
#     4  10  21  35  53  84 122 161 199 236 289 359
#
# _framework density 19.513418000000001
#
# number of rings (size 3 to 8) (size 9 to 14) (size 15 to 20)
#    0.000    2.143    0.000    3.429    6.000    4.286 
#    0.000    1.429    0.000    0.000    0.000    2.000 
#    0.000    0.286    0.000    0.000    0.000    0.000 
#
# Total GULP energy -312046.718142 kJ/mol
# GULP energy per Si atom -5572.262824 kJ/mol
# Density = 1.946900 g / cm^3
# Si number density = 19.513418 Si / 1000 Ang^3
#
#
#
# Elastic Constant Matrix: (Units=GPa)
#
#
# Indices 1 2 3 4 5 6 
#
# 1 82.6546 39.3183 46.6334 0.0000 0.0000 0.0000
# 2 39.3183 82.6527 46.6334 0.0000 0.0000 0.0000
# 3 46.6334 46.6334 126.2742 0.0000 0.0000 0.0000
# 4 0.0000 0.0000 0.0000 11.5768 0.0000 0.0000
# 5 0.0000 0.0000 0.0000 0.0000 11.5755 0.0000
# 6 0.0000 0.0000 0.0000 0.0000 0.0000 -39.9287
#
#
#
# Elastic Compliance Matrix: (Units=1/GPa)
#
#
# Indices 1 2 3 4 5 6 
#
# 1 0.017250 -0.005825 -0.004219 0.000000 0.000000 0.000000
# 2 -0.005825 0.017251 -0.004219 0.000000 0.000000 0.000000
# 3 -0.004219 -0.004219 0.011036 0.000000 0.000000 0.000000
# 4 0.000000 0.000000 0.000000 0.086380 0.000000 0.000000
# 5 0.000000 0.000000 0.000000 0.000000 0.086390 0.000000
# 6 0.000000 0.000000 0.000000 0.000000 0.000000 -0.025045
#
#
# Mechanical properties :
#
#
# Convention : Reuss Voigt Hill
#
# Bulk Modulus (GPa) = 58.79437 61.86130 60.32783
# Shear Modulus (GPa) = 21.98204 7.24448 14.61326
#
# Velocity S-wave (km/s) = 3.35999 1.92889 2.73954
# Velocity P-wave (km/s) = 6.72669 6.06066 6.40234
#
# Compressibility (1/GPa) = 0.01700843
#
# Stress axis : x y z
#
# Youngs Moduli (GPa) = 57.97067 57.96894 90.61563
#
# Poissons Ratio (x) = 0.33770 0.38232
# Poissons Ratio (y) = 0.33771 0.38234
# Poissons Ratio (z) = 0.24459 0.24459
#
# Static dielectric constant tensor:
#      x y z
#    x 1.714940 0.000000 0.000000 
#    y 0.000000 1.714940 0.000000 
#    z 0.000000 0.000000 1.744520 
# 
# From -- ./inp_files/8828.got.cif
#   From: 2010.05.17/outbox.cif.g08.bks.cpg/sg119_5_cif.got.tgz:8828.got - 2010.05.20 11:21:29.
