data_PCOD9559449
_publ_section_title
;
Structure prediction by ZEFSAII (Michael W. Deem and Ramdas Pophale) SiO2 
 PCOD9559449
Probable space group: I -4 M 2
;
_chemical_formula_sum "Si O2"
_cell_formula_units_Z 120
_cell_length_a 22.195819
_cell_length_b 22.195819
_cell_length_c 14.867018
_cell_angle_alpha 90.000000
_cell_angle_beta 90.000000
_cell_angle_gamma 90.000000
_cell_volume 7324.301551
_symmetry_space_group_name_H-M "I -4 M 2"
_symmetry_group_IT_number 119
_symmetry_cell_setting 'tetragonal'
loop_
_space_group_symop_operation_xyz
x,y,z
y,-x,-z
-x,-y,z
-y,x,-z
y,x,-z
-y,-x,-z
-x,y,z
x,-y,z
1/2+x,1/2+y,1/2+z
1/2+y,1/2-x,1/2-z
1/2-x,1/2-y,1/2+z
1/2-y,1/2+x,1/2-z
1/2+y,1/2+x,1/2-z
1/2-y,1/2-x,1/2-z
1/2-x,1/2+y,1/2+z
1/2+x,1/2-y,1/2+z
loop_
_atom_site_type_symbol
_atom_site_label
_atom_site_fract_x
_atom_site_fract_y
_atom_site_fract_z
Si Si1 0.643459 0.754721 0.731254
Si Si2 0.664540 0.767129 0.019209
Si Si3 0.758446 0.160329 0.280528
Si Si4 0.197016 0.069772 0.140783
Si Si5 0.934750 0.929198 0.108144
Si Si6 0.069744 0.313196 0.369990
Si Si7 0.071154 0.571154 0.250000
Si Si8 0.736846 0.637241 0.480600
O O1 0.689590 0.810411 0.750000
O O2 0.679581 0.698445 0.772569
O O3 0.583189 0.771322 0.783619
O O4 0.632527 0.746451 0.625594
O O5 0.639722 0.753825 0.118210
O O6 0.710638 0.710638 0.000000
O O7 0.614298 0.785290 0.945592
O O8 0.707202 0.825813 0.020809
O O9 0.706868 0.206868 0.250000
O O10 0.763401 0.106977 0.209914
O O11 0.128038 0.094263 0.145915
O O12 0.196082 0.000000 0.162596
O O13 0.222113 0.079341 0.039981
O O14 0.000000 0.901748 0.131845
O O15 0.937261 0.000000 0.132555
O O16 0.928460 0.928460 0.000000
O O17 0.082910 0.381298 0.331675
O O18 0.000000 0.311516 0.397647
O O19 0.079184 0.500000 0.274505
O O20 0.680676 0.680676 0.500000
#
# Coordination Sequence:
#
# PCOD9559449 Si02
#       8
#    16  16  16  16  16  16   8  16
#     4  11  18  33  55  79 104 137 172 215 267 327
#     4  11  19  35  58  76  99 144 183 225 277 322
#     4  11  20  35  57  74 100 144 181 221 273 328
#     4  11  22  33  49  81 111 134 179 224 257 319
#     4   8  15  29  47  67  99 141 168 188 236 306
#     4  11  21  34  54  85 112 138 186 225 260 329
#     4   9  18  34  56  84 126 158 164 198 272 345
#     4  11  18  31  55  78 103 138 174 211 263 333
#
# _framework density 16.383814000000001
#
# number of rings (size 3 to 8) (size 9 to 14) (size 15 to 20)
#    0.000    1.533    6.000    2.400    0.000    1.067 
#    0.000    1.333    0.000    0.000    0.000    0.000 
#    0.000    0.533    0.000    0.000    0.000    0.000 
#
# Total GULP energy -334128.139230 kJ/mol
# GULP energy per Si atom -5568.802321 kJ/mol
# Density = 1.634652 g / cm^3
# Si number density = 16.383814 Si / 1000 Ang^3
#
#
#
# Elastic Constant Matrix: (Units=GPa)
#
#
# Indices 1 2 3 4 5 6 
#
# 1 78.2015 37.8648 37.0424 0.0000 0.0000 0.0000
# 2 37.8648 78.2016 37.0422 0.0000 0.0000 0.0000
# 3 37.0424 37.0422 104.7304 0.0000 0.0000 0.0000
# 4 0.0000 0.0000 0.0000 18.6699 0.0000 0.0000
# 5 0.0000 0.0000 0.0000 0.0000 18.6698 0.0000
# 6 0.0000 0.0000 0.0000 0.0000 0.0000 20.2830
#
#
#
# Elastic Compliance Matrix: (Units=1/GPa)
#
#
# Indices 1 2 3 4 5 6 
#
# 1 0.017960 -0.006832 -0.003936 0.000000 0.000000 0.000000
# 2 -0.006832 0.017960 -0.003936 0.000000 0.000000 0.000000
# 3 -0.003936 -0.003936 0.012333 0.000000 0.000000 0.000000
# 4 0.000000 0.000000 0.000000 0.053562 0.000000 0.000000
# 5 0.000000 0.000000 0.000000 0.000000 0.053562 0.000000
# 6 0.000000 0.000000 0.000000 0.000000 0.000000 0.049302
#
#
# Mechanical properties :
#
#
# Convention : Reuss Voigt Hill
#
# Bulk Modulus (GPa) = 53.06450 53.89247 53.47849
# Shear Modulus (GPa) = 20.80149 21.47014 21.13581
#
# Velocity S-wave (km/s) = 3.56706 3.62394 3.59561
# Velocity P-wave (km/s) = 7.03021 7.10463 7.06752
#
# Compressibility (1/GPa) = 0.01884499
#
# Stress axis : x y z
#
# Youngs Moduli (GPa) = 55.68017 55.68043 81.08648
#
# Poissons Ratio (x) = 0.38039 0.31915
# Poissons Ratio (y) = 0.38039 0.31914
# Poissons Ratio (z) = 0.21915 0.21915
#
# Static dielectric constant tensor:
#      x y z
#    x 1.575350 0.000000 0.000000 
#    y 0.000000 1.575360 0.000000 
#    z 0.000000 0.000000 1.558310 
# 
# From -- ./inp_files/5655.got.cif
#   From: 2010.05.17/outbox.cif.g08.bks.cpg/sg119_3_cif.got.tgz:5655.got - 2010.05.20 11:21:29.
