data_PCOD9559638
_publ_section_title
;
Structure prediction by ZEFSAII (Michael W. Deem and Ramdas Pophale) SiO2 
 PCOD9559638
Probable space group: I -4 C 2
;
_chemical_formula_sum "Si O2"
_cell_formula_units_Z 112
_cell_length_a 14.086348
_cell_length_b 14.086348
_cell_length_c 25.166452
_cell_angle_alpha 90.000000
_cell_angle_beta 90.000000
_cell_angle_gamma 90.000000
_cell_volume 4993.658271
_symmetry_space_group_name_H-M "I -4 C 2"
_symmetry_group_IT_number 120
_symmetry_cell_setting 'tetragonal'
loop_
_space_group_symop_operation_xyz
x,y,z
y,-x,-z
-x,-y,z
-y,x,-z
y,x,1/2-z
-y,-x,1/2-z
-x,y,1/2+z
x,-y,1/2+z
1/2+x,1/2+y,1/2+z
1/2+y,1/2-x,1/2-z
1/2-x,1/2-y,1/2+z
1/2-y,1/2+x,1/2-z
1/2+y,1/2+x,-z
1/2-y,1/2-x,-z
1/2-x,1/2+y,z
1/2+x,1/2-y,z
loop_
_atom_site_type_symbol
_atom_site_label
_atom_site_fract_x
_atom_site_fract_y
_atom_site_fract_z
Si Si1 0.906520 0.815394 0.053385
Si Si2 0.913487 0.793517 0.795870
Si Si3 0.769934 0.983391 0.045279
Si Si4 0.580708 0.603925 0.111918
Si Si5 0.453476 0.769075 0.681231
Si Si6 0.747866 0.330556 0.342955
Si Si7 0.686410 0.077044 0.652095
O O1 0.825911 0.886033 0.031764
O O2 0.857717 0.745183 0.095189
O O3 0.977050 0.891436 0.084402
O O4 0.964634 0.755228 0.010558
O O5 0.941141 0.887671 0.830734
O O6 0.914020 0.788036 0.732250
O O7 0.821239 0.743338 0.820080
O O8 0.990378 0.713303 0.811198
O O9 0.692297 0.956453 0.090198
O O10 0.842047 0.057677 0.074012
O O11 0.582862 0.714696 0.128244
O O12 0.566945 0.758750 0.684456
O O13 0.407918 0.871689 0.673246
O O14 0.648258 0.275926 0.339634
#
# Coordination Sequence:
#
# PCOD9559638 Si02
#       7
#    16  16  16  16  16  16  16
#     4  10  19  35  60  91 128 164 208 262 321 379
#     4  11  22  39  63  88 127 173 212 265 329 382
#     4  10  19  35  60  91 128 164 208 262 321 379
#     4  10  20  32  55  89 116 157 205 252 314 373
#     4  11  22  39  63  88 127 173 212 265 329 382
#     4  10  23  41  61  92 128 165 220 268 316 392
#     4  10  23  41  61  92 128 165 220 268 316 392
#
# _framework density 22.428446999999998
#
# number of rings (size 3 to 8) (size 9 to 14) (size 15 to 20)
#    0.000    1.714    2.857    1.714    0.000    3.429 
#    0.000    8.571    0.000    8.571    0.000    8.000 
#    0.000    0.000    0.000    0.000    0.000    0.000 
#
# Total GULP energy -311811.563010 kJ/mol
# GULP energy per Si atom -5568.063625 kJ/mol
# Density = 2.237740 g / cm^3
# Si number density = 22.428447 Si / 1000 Ang^3
#
#
#
# Elastic Constant Matrix: (Units=GPa)
#
#
# Indices 1 2 3 4 5 6 
#
# 1 46.5854 -12.9509 12.0069 0.0000 0.0000 0.0000
# 2 -12.9509 46.5854 12.0069 0.0000 0.0000 0.0000
# 3 12.0069 12.0069 98.7860 0.0000 0.0000 0.0000
# 4 0.0000 0.0000 0.0000 24.1928 0.0000 0.0000
# 5 0.0000 0.0000 0.0000 0.0000 24.1928 0.0000
# 6 0.0000 0.0000 0.0000 0.0000 0.0000 -16.5453
#
#
#
# Elastic Compliance Matrix: (Units=1/GPa)
#
#
# Indices 1 2 3 4 5 6 
#
# 1 0.024677 0.007880 -0.003957 0.000000 0.000000 0.000000
# 2 0.007880 0.024677 -0.003957 0.000000 0.000000 0.000000
# 3 -0.003957 -0.003957 0.011085 0.000000 0.000000 0.000000
# 4 0.000000 0.000000 0.000000 0.041335 0.000000 0.000000
# 5 0.000000 0.000000 0.000000 0.000000 0.041335 0.000000
# 6 0.000000 0.000000 0.000000 0.000000 0.000000 -0.060440
#
#
# Mechanical properties :
#
#
# Convention : Reuss Voigt Hill
#
# Bulk Modulus (GPa) = 16.56460 23.78697 20.17578
# Shear Modulus (GPa) = 48.61049 18.42765 33.51907
#
# Velocity S-wave (km/s) = 4.66054 2.86950 3.87006
# Velocity P-wave (km/s) = 6.03013 4.64838 5.38377
#
# Compressibility (1/GPa) = 0.06036971
#
# Stress axis : x y z
#
# Youngs Moduli (GPa) = 40.52429 40.52429 90.21351
#
# Poissons Ratio (x) = -0.31933 0.35698
# Poissons Ratio (y) = -0.31933 0.35698
# Poissons Ratio (z) = 0.16036 0.16036
#
# Static dielectric constant tensor:
#      x y z
#    x 1.923140 0.000000 0.000000 
#    y 0.000000 1.923140 0.000000 
#    z 0.000000 0.000000 1.926370 
# 
# From -- ./inp_files/5907.got.cif
#   From: 2010.05.17/outbox.cif.g08.bks.cpg/sg120_3_cif.got.tgz:5907.got - 2010.05.20 11:28:13.
