data_PCOD9559709
_publ_section_title
;
Structure prediction by ZEFSAII (Michael W. Deem and Ramdas Pophale) SiO2 
 PCOD9559709
Probable space group: I -4 C 2
;
_chemical_formula_sum "Si O2"
_cell_formula_units_Z 120
_cell_length_a 20.170682
_cell_length_b 20.170682
_cell_length_c 14.474336
_cell_angle_alpha 90.000000
_cell_angle_beta 90.000000
_cell_angle_gamma 90.000000
_cell_volume 5888.976416
_symmetry_space_group_name_H-M "I -4 C 2"
_symmetry_group_IT_number 120
_symmetry_cell_setting 'tetragonal'
loop_
_space_group_symop_operation_xyz
x,y,z
y,-x,-z
-x,-y,z
-y,x,-z
y,x,1/2-z
-y,-x,1/2-z
-x,y,1/2+z
x,-y,1/2+z
1/2+x,1/2+y,1/2+z
1/2+y,1/2-x,1/2-z
1/2-x,1/2-y,1/2+z
1/2-y,1/2+x,1/2-z
1/2+y,1/2+x,-z
1/2-y,1/2-x,-z
1/2-x,1/2+y,z
1/2+x,1/2-y,z
loop_
_atom_site_type_symbol
_atom_site_label
_atom_site_fract_x
_atom_site_fract_y
_atom_site_fract_z
Si Si1 0.176634 0.686752 0.853538
Si Si2 0.247746 0.747746 0.500000
Si Si3 0.918792 0.434061 0.635959
Si Si4 0.817579 0.091665 0.629457
Si Si5 0.816435 0.055469 0.827275
Si Si6 0.480147 0.605555 0.522267
Si Si7 0.430090 0.919184 0.640060
Si Si8 0.699985 0.857431 0.360653
O O1 0.240163 0.697390 0.919659
O O2 0.128782 0.748230 0.879585
O O3 0.140935 0.618542 0.880733
O O4 0.178795 0.695261 0.740904
O O5 0.183150 0.740818 0.563764
O O6 0.920005 0.432622 0.747974
O O7 0.901602 0.509237 0.609925
O O8 0.870734 0.374981 0.608235
O O9 0.994198 0.417959 0.606569
O O10 0.817154 0.043996 0.718279
O O11 0.875597 0.144614 0.652030
O O12 0.838640 0.051428 0.541074
O O13 0.739993 0.073356 0.849344
O O14 0.858224 0.002403 0.884327
O O15 0.545119 0.572344 0.474338
#
# Coordination Sequence:
#
# PCOD9559709 Si02
#       8
#    16   8  16  16  16  16  16  16
#     4  10  20  37  59  83 114 152 191 233 291 352
#     4  12  22  36  56  84 106 146 198 242 276 334
#     4   8  15  32  58  85 114 148 187 233 286 345
#     4   9  17  33  55  76 106 151 192 230 285 353
#     4   9  17  33  55  76 106 151 192 230 285 353
#     4   9  18  32  52  82 114 145 192 248 282 323
#     4   8  15  32  58  85 114 148 187 233 286 345
#     4  10  20  37  59  83 114 152 191 233 291 352
#
# _framework density 20.377054000000001
#
# number of rings (size 3 to 8) (size 9 to 14) (size 15 to 20)
#    0.000    2.800    1.333    1.200    0.000    0.533 
#    4.800    2.667    0.000    3.200    0.000    0.000 
#    0.000    0.000    0.000    0.000    0.000    0.000 
#
# Total GULP energy -334097.439823 kJ/mol
# GULP energy per Si atom -5568.290664 kJ/mol
# Density = 2.033068 g / cm^3
# Si number density = 20.377054 Si / 1000 Ang^3
#
#
#
# Elastic Constant Matrix: (Units=GPa)
#
#
# Indices 1 2 3 4 5 6 
#
# 1 39.0913 9.6241 15.3229 0.0000 0.0000 0.0000
# 2 9.6241 39.0913 15.3229 0.0000 0.0000 0.0000
# 3 15.3229 15.3229 77.6308 0.0000 0.0000 0.0000
# 4 0.0000 0.0000 0.0000 8.3342 0.0000 0.0000
# 5 0.0000 0.0000 0.0000 0.0000 8.3342 0.0000
# 6 0.0000 0.0000 0.0000 0.0000 0.0000 17.6237
#
#
#
# Elastic Compliance Matrix: (Units=1/GPa)
#
#
# Indices 1 2 3 4 5 6 
#
# 1 0.028687 -0.005249 -0.004626 0.000000 0.000000 0.000000
# 2 -0.005249 0.028687 -0.004626 0.000000 0.000000 0.000000
# 3 -0.004626 -0.004626 0.014708 0.000000 0.000000 0.000000
# 4 0.000000 0.000000 0.000000 0.119988 0.000000 0.000000
# 5 0.000000 0.000000 0.000000 0.000000 0.119988 0.000000
# 6 0.000000 0.000000 0.000000 0.000000 0.000000 0.056742
#
#
# Mechanical properties :
#
#
# Convention : Reuss Voigt Hill
#
# Bulk Modulus (GPa) = 23.21356 26.26149 24.73752
# Shear Modulus (GPa) = 12.13118 14.56132 13.34625
#
# Velocity S-wave (km/s) = 2.44260 2.67609 2.56200
# Velocity P-wave (km/s) = 4.40134 4.73966 4.57363
#
# Compressibility (1/GPa) = 0.04307826
#
# Stress axis : x y z
#
# Youngs Moduli (GPa) = 34.85926 34.85926 67.99143
#
# Poissons Ratio (x) = 0.18298 0.31454
# Poissons Ratio (y) = 0.18298 0.31454
# Poissons Ratio (z) = 0.16126 0.16126
#
# Static dielectric constant tensor:
#      x y z
#    x 1.739990 0.000000 0.000000 
#    y 0.000000 1.739990 0.000000 
#    z 0.000000 0.000000 1.768590 
# 
# From -- ./inp_files/3714.got.cif
#   From: 2010.05.17/outbox.cif.g08.bks.cpg/sg120_2_cif.got.tgz:3714.got - 2010.05.20 11:28:13.
