data_PCOD9559211
_publ_section_title
;
Structure prediction by ZEFSAII (Michael W. Deem and Ramdas Pophale) SiO2 
 PCOD9559211
Probable space group: I -4 M 2
;
_chemical_formula_sum "Si O2"
_cell_formula_units_Z 96
_cell_length_a 19.324839
_cell_length_b 19.324839
_cell_length_c 13.519884
_cell_angle_alpha 90.000000
_cell_angle_beta 90.000000
_cell_angle_gamma 90.000000
_cell_volume 5048.992600
_symmetry_space_group_name_H-M "I -4 M 2"
_symmetry_group_IT_number 119
_symmetry_cell_setting 'tetragonal'
loop_
_space_group_symop_operation_xyz
x,y,z
y,-x,-z
-x,-y,z
-y,x,-z
y,x,-z
-y,-x,-z
-x,y,z
x,-y,z
1/2+x,1/2+y,1/2+z
1/2+y,1/2-x,1/2-z
1/2-x,1/2-y,1/2+z
1/2-y,1/2+x,1/2-z
1/2+y,1/2+x,1/2-z
1/2-y,1/2-x,1/2-z
1/2-x,1/2+y,1/2+z
1/2+x,1/2-y,1/2+z
loop_
_atom_site_type_symbol
_atom_site_label
_atom_site_fract_x
_atom_site_fract_y
_atom_site_fract_z
Si Si1 0.376574 0.926751 0.150599
Si Si2 0.196566 0.577827 0.355238
Si Si3 0.578728 0.819974 0.876254
Si Si4 0.278340 0.577709 0.742530
Si Si5 0.777897 0.791769 0.845852
Si Si6 0.639882 0.220035 0.064169
O O1 0.421066 0.921066 0.250000
O O2 0.298202 0.924373 0.193038
O O3 0.385744 0.858340 0.086948
O O4 0.388564 0.000000 0.099791
O O5 0.207471 0.500000 0.392821
O O6 0.206805 0.577461 0.236427
O O7 0.119798 0.607466 0.372625
O O8 0.245047 0.639825 0.393954
O O9 0.500000 0.827191 0.909853
O O10 0.619628 0.769201 0.950691
O O11 0.307656 0.500000 0.733265
O O12 0.310778 0.644555 0.689549
O O13 0.267261 0.599408 0.856989
O O14 0.732225 0.767776 0.750000
O O15 0.778817 0.720844 0.908519
#
# Coordination Sequence:
#
# PCOD9559211 Si02
#       6
#    16  16  16  16  16  16
#     4   8  14  24  36  57  90 126 155 187 242 307
#     4  10  21  37  51  66 100 143 184 224 264 313
#     4  10  20  34  51  72  99 133 178 223 269 316
#     4   8  14  26  46  71 101 129 154 201 270 329
#     4   9  16  32  51  75 101 133 176 218 271 326
#     4   9  17  27  49  73  98 123 164 222 261 314
#
# _framework density 19.013694000000001
#
# number of rings (size 3 to 8) (size 9 to 14) (size 15 to 20)
#    0.000    3.000    1.667    2.500    0.000    2.500 
#    0.000    1.667    0.000    0.500    0.000    0.000 
#    0.000    0.000    0.000    5.833    0.000    0.000 
#
# Total GULP energy -267438.071022 kJ/mol
# GULP energy per Si atom -5571.626480 kJ/mol
# Density = 1.897042 g / cm^3
# Si number density = 19.013694 Si / 1000 Ang^3
#
#
#
# Elastic Constant Matrix: (Units=GPa)
#
#
# Indices 1 2 3 4 5 6 
#
# 1 89.0330 38.4527 0.9798 0.0000 0.0000 0.0000
# 2 38.4527 89.0332 0.9801 0.0000 0.0000 0.0000
# 3 0.9798 0.9801 54.9771 0.0000 0.0000 0.0000
# 4 0.0000 0.0000 0.0000 15.0496 0.0000 0.0000
# 5 0.0000 0.0000 0.0000 0.0000 15.0497 0.0000
# 6 0.0000 0.0000 0.0000 0.0000 0.0000 10.9194
#
#
#
# Elastic Compliance Matrix: (Units=1/GPa)
#
#
# Indices 1 2 3 4 5 6 
#
# 1 0.013808 -0.005962 -0.000140 0.000000 0.000000 0.000000
# 2 -0.005962 0.013808 -0.000140 0.000000 0.000000 0.000000
# 3 -0.000140 -0.000140 0.018194 0.000000 0.000000 0.000000
# 4 0.000000 0.000000 0.000000 0.066447 0.000000 0.000000
# 5 0.000000 0.000000 0.000000 0.000000 0.066447 0.000000
# 6 0.000000 0.000000 0.000000 0.000000 0.000000 0.091581
#
#
# Mechanical properties :
#
#
# Convention : Reuss Voigt Hill
#
# Bulk Modulus (GPa) = 30.00543 34.87425 32.43984
# Shear Modulus (GPa) = 17.01387 21.04578 19.02983
#
# Velocity S-wave (km/s) = 2.99460 3.33058 3.16705
# Velocity P-wave (km/s) = 5.26992 5.75950 5.52014
#
# Compressibility (1/GPa) = 0.03332730
#
# Stress axis : x y z
#
# Youngs Moduli (GPa) = 72.41998 72.42014 54.96203
#
# Poissons Ratio (x) = 0.43178 0.00768
# Poissons Ratio (y) = 0.43178 0.00769
# Poissons Ratio (z) = 0.01012 0.01013
#
# Static dielectric constant tensor:
#      x y z
#    x 1.680490 0.000000 0.000000 
#    y 0.000000 1.680490 0.000000 
#    z 0.000000 0.000000 1.766890 
# 
# From -- ./inp_files/5553.got.cif
#   From: 2010.05.17/outbox.cif.g08.bks.cpg/sg119_3_cif.got.tgz:5553.got - 2010.05.20 11:21:29.
