data_PCOD9559444
_publ_section_title
;
Structure prediction by ZEFSAII (Michael W. Deem and Ramdas Pophale) SiO2 
 PCOD9559444
Probable space group: I -4 M 2
;
_chemical_formula_sum "Si O2"
_cell_formula_units_Z 46
_cell_length_a 10.543229
_cell_length_b 10.543229
_cell_length_c 17.101129
_cell_angle_alpha 90.000000
_cell_angle_beta 90.000000
_cell_angle_gamma 90.000000
_cell_volume 1900.955989
_symmetry_space_group_name_H-M "I -4 M 2"
_symmetry_group_IT_number 119
_symmetry_cell_setting 'tetragonal'
loop_
_space_group_symop_operation_xyz
x,y,z
y,-x,-z
-x,-y,z
-y,x,-z
y,x,-z
-y,-x,-z
-x,y,z
x,-y,z
1/2+x,1/2+y,1/2+z
1/2+y,1/2-x,1/2-z
1/2-x,1/2-y,1/2+z
1/2-y,1/2+x,1/2-z
1/2+y,1/2+x,1/2-z
1/2-y,1/2-x,1/2-z
1/2-x,1/2+y,1/2+z
1/2+x,1/2-y,1/2+z
loop_
_atom_site_type_symbol
_atom_site_label
_atom_site_fract_x
_atom_site_fract_y
_atom_site_fract_z
Si Si1 0.500000 0.000000 0.250000
Si Si2 0.500000 0.000000 0.750000
Si Si3 0.000000 0.209014 0.703169
Si Si4 0.221227 0.215033 0.411889
Si Si5 0.000000 0.000000 0.000000
Si Si6 0.500000 0.268739 0.384243
Si Si7 0.843763 0.500000 0.366032
O O1 0.363587 0.000000 0.291894
O O2 0.500000 0.843867 0.727339
O O3 0.876141 0.165907 0.654860
O O4 0.000000 0.178822 0.795461
O O5 0.181121 0.181121 0.500000
O O6 0.372073 0.195289 0.403459
O O7 0.201051 0.366748 0.399766
O O8 0.000000 0.881814 0.944434
O O9 0.000000 0.500000 0.365283
#
# Coordination Sequence:
#
# PCOD9559444 Si02
#       7
#     2   2   8  16   2   8   8
#     4  12  20  44  70 112 148 200 246 320 408 450
#     4   8  24  40  74  92 132 188 262 296 376 458
#     4  12  26  42  78 112 153 193 258 328 392 473
#     4  12  25  47  73 111 154 203 258 316 393 469
#     4  12  24  44  64 112 130 212 268 332 352 464
#     4  12  23  43  71 107 148 192 257 322 377 454
#     4  10  26  46  74  98 146 203 258 307 384 470
#
# _framework density 24.198350999999999
#
# number of rings (size 3 to 8) (size 9 to 14) (size 15 to 20)
#    0.522    0.000    5.217    2.087    7.304    0.000 
#    3.130    0.000    0.000    0.000    0.000    0.000 
#    0.000    0.000    0.000    0.000    0.000    0.000 
#
# Total GULP energy -128228.825596 kJ/mol
# GULP energy per Si atom -5575.166330 kJ/mol
# Density = 2.414327 g / cm^3
# Si number density = 24.198351 Si / 1000 Ang^3
#
#
#
# Elastic Constant Matrix: (Units=GPa)
#
#
# Indices 1 2 3 4 5 6 
#
# 1 88.4696 14.2998 35.4416 0.0000 0.0000 0.0000
# 2 14.2998 88.4696 35.4416 0.0000 0.0000 0.0000
# 3 35.4416 35.4416 215.4301 0.0000 0.0000 0.0000
# 4 0.0000 0.0000 0.0000 40.7604 0.0000 0.0000
# 5 0.0000 0.0000 0.0000 0.0000 40.7604 0.0000
# 6 0.0000 0.0000 0.0000 0.0000 0.0000 9.1821
#
#
#
# Elastic Compliance Matrix: (Units=1/GPa)
#
#
# Indices 1 2 3 4 5 6 
#
# 1 0.012229 -0.001253 -0.001806 0.000000 0.000000 0.000000
# 2 -0.001253 0.012229 -0.001806 0.000000 0.000000 0.000000
# 3 -0.001806 -0.001806 0.005236 0.000000 0.000000 0.000000
# 4 0.000000 0.000000 0.000000 0.024534 0.000000 0.000000
# 5 0.000000 0.000000 0.000000 0.000000 0.024534 0.000000
# 6 0.000000 0.000000 0.000000 0.000000 0.000000 0.108907
#
#
# Mechanical properties :
#
#
# Convention : Reuss Voigt Hill
#
# Bulk Modulus (GPa) = 50.08740 62.52614 56.30677
# Shear Modulus (GPa) = 24.50340 38.61966 31.56153
#
# Velocity S-wave (km/s) = 3.18560 3.99928 3.61541
# Velocity P-wave (km/s) = 5.85443 6.87174 6.38338
#
# Compressibility (1/GPa) = 0.01996510
#
# Stress axis : x y z
#
# Youngs Moduli (GPa) = 81.77100 81.77099 190.98500
#
# Poissons Ratio (x) = 0.10248 0.34487
# Poissons Ratio (y) = 0.10248 0.34487
# Poissons Ratio (z) = 0.14766 0.14766
#
# Static dielectric constant tensor:
#      x y z
#    x 2.020940 0.000000 0.000000 
#    y 0.000000 2.020940 0.000000 
#    z 0.000000 0.000000 2.521450 
# 
# From -- ./inp_files/6117.got.cif
#   From: 2010.05.17/outbox.cif.g08.bks.cpg/sg119_4_cif.got.tgz:6117.got - 2010.05.20 11:21:29.
