data_PCOD9559457
_publ_section_title
;
Structure prediction by ZEFSAII (Michael W. Deem and Ramdas Pophale) SiO2 
 PCOD9559457
Probable space group: I -4 M 2
;
_chemical_formula_sum "Si O2"
_cell_formula_units_Z 96
_cell_length_a 23.240446
_cell_length_b 23.240446
_cell_length_c 8.427595
_cell_angle_alpha 90.000000
_cell_angle_beta 90.000000
_cell_angle_gamma 90.000000
_cell_volume 4551.898540
_symmetry_space_group_name_H-M "I -4 M 2"
_symmetry_group_IT_number 119
_symmetry_cell_setting 'tetragonal'
loop_
_space_group_symop_operation_xyz
x,y,z
y,-x,-z
-x,-y,z
-y,x,-z
y,x,-z
-y,-x,-z
-x,y,z
x,-y,z
1/2+x,1/2+y,1/2+z
1/2+y,1/2-x,1/2-z
1/2-x,1/2-y,1/2+z
1/2-y,1/2+x,1/2-z
1/2+y,1/2+x,1/2-z
1/2-y,1/2-x,1/2-z
1/2-x,1/2+y,1/2+z
1/2+x,1/2-y,1/2+z
loop_
_atom_site_type_symbol
_atom_site_label
_atom_site_fract_x
_atom_site_fract_y
_atom_site_fract_z
Si Si1 0.930379 0.064064 0.319611
Si Si2 0.067215 0.377418 0.390832
Si Si3 0.266169 0.432513 0.647310
Si Si4 0.679114 0.570751 0.324890
Si Si5 0.562800 0.867509 0.357135
Si Si6 0.568941 0.253856 0.994792
O O1 0.917616 0.082385 0.500000
O O2 0.911955 0.113042 0.201144
O O3 0.000000 0.060990 0.314337
O O4 0.908157 0.000000 0.289185
O O5 0.111855 0.388146 0.250000
O O6 0.085802 0.429198 0.506103
O O7 0.076261 0.314553 0.467373
O O8 0.000000 0.380820 0.344669
O O9 0.282325 0.500000 0.658042
O O10 0.297580 0.407826 0.493023
O O11 0.198685 0.432260 0.598813
O O12 0.271369 0.409117 0.828524
O O13 0.682244 0.500000 0.326449
O O14 0.713496 0.589136 0.164946
O O15 0.500000 0.874284 0.278795
O O16 0.616165 0.883836 0.250000
O O17 0.500000 0.263899 0.000693
#
# Coordination Sequence:
#
# PCOD9559457 Si02
#       6
#    16  16  16  16  16  16
#     4   8  14  26  47  78 114 147 176 207 253 326
#     4  11  21  31  41  57  85 124 173 237 308 374
#     4   9  17  30  45  63  88 123 175 233 282 333
#     4   9  16  27  48  71  91 130 178 212 258 325
#     4  11  20  30  42  57  84 127 176 232 305 374
#     4   9  17  30  44  61  87 121 169 227 281 328
#
# _framework density 21.090101000000001
#
# number of rings (size 3 to 8) (size 9 to 14) (size 15 to 20)
#    0.000    2.500    1.667    2.500    0.000    4.667 
#    0.000    0.000    0.000    2.000    0.000   11.667 
#    0.000    8.000   17.000    0.000    1.000    0.167 
#
# Total GULP energy -267441.785462 kJ/mol
# GULP energy per Si atom -5571.703864 kJ/mol
# Density = 2.104210 g / cm^3
# Si number density = 21.090101 Si / 1000 Ang^3
#
#
#
# Elastic Constant Matrix: (Units=GPa)
#
#
# Indices 1 2 3 4 5 6 
#
# 1 63.3507 22.5858 55.7415 0.0000 0.0000 0.0000
# 2 22.5858 63.3545 55.7431 0.0000 0.0000 0.0000
# 3 55.7415 55.7431 159.8265 0.0000 0.0000 0.0000
# 4 0.0000 0.0000 0.0000 27.7613 0.0000 0.0000
# 5 0.0000 0.0000 0.0000 0.0000 27.7600 0.0000
# 6 0.0000 0.0000 0.0000 0.0000 0.0000 -0.9300
#
#
#
# Elastic Compliance Matrix: (Units=1/GPa)
#
#
# Indices 1 2 3 4 5 6 
#
# 1 0.022891 -0.001639 -0.007412 0.000000 0.000000 0.000000
# 2 -0.001639 0.022890 -0.007412 0.000000 0.000000 0.000000
# 3 -0.007412 -0.007412 0.011427 0.000000 0.000000 0.000000
# 4 0.000000 0.000000 0.000000 0.036021 0.000000 0.000000
# 5 0.000000 0.000000 0.000000 0.000000 0.036023 0.000000
# 6 0.000000 0.000000 0.000000 0.000000 0.000000 -1.075237
#
#
# Mechanical properties :
#
#
# Convention : Reuss Voigt Hill
#
# Bulk Modulus (GPa) = 41.18242 61.63027 51.40634
# Shear Modulus (GPa) = -5.52508 21.08234 7.77863
#
# Velocity S-wave (km/s) = -1.62032 3.16513 1.92257
# Velocity P-wave (km/s) = 4.00858 6.53017 5.41811
#
# Compressibility (1/GPa) = 0.02428221
#
# Stress axis : x y z
#
# Youngs Moduli (GPa) = 43.68495 43.68764 87.51410
#
# Poissons Ratio (x) = 0.07162 0.64864
# Poissons Ratio (y) = 0.07161 0.64862
# Poissons Ratio (z) = 0.32379 0.32380
#
# Static dielectric constant tensor:
#      x y z
#    x 1.739930 0.000000 0.000000 
#    y 0.000000 1.739930 0.000000 
#    z 0.000000 0.000000 1.918750 
# 
# From -- ./inp_files/2720.got.cif
#   From: 2010.05.17/outbox.cif.g08.bks.cpg/sg119_2_cif.got.tgz:2720.got - 2010.05.20 11:21:29.
