data_PCOD9559669
_publ_section_title
;
Structure prediction by ZEFSAII (Michael W. Deem and Ramdas Pophale) SiO2 
 PCOD9559669
Probable space group: I -4 C 2
;
_chemical_formula_sum "Si O2"
_cell_formula_units_Z 72
_cell_length_a 28.178268
_cell_length_b 28.178268
_cell_length_c 4.976189
_cell_angle_alpha 90.000000
_cell_angle_beta 90.000000
_cell_angle_gamma 90.000000
_cell_volume 3951.167651
_symmetry_space_group_name_H-M "I -4 C 2"
_symmetry_group_IT_number 120
_symmetry_cell_setting 'tetragonal'
loop_
_space_group_symop_operation_xyz
x,y,z
y,-x,-z
-x,-y,z
-y,x,-z
y,x,1/2-z
-y,-x,1/2-z
-x,y,1/2+z
x,-y,1/2+z
1/2+x,1/2+y,1/2+z
1/2+y,1/2-x,1/2-z
1/2-x,1/2-y,1/2+z
1/2-y,1/2+x,1/2-z
1/2+y,1/2+x,-z
1/2-y,1/2-x,-z
1/2-x,1/2+y,z
1/2+x,1/2-y,z
loop_
_atom_site_type_symbol
_atom_site_label
_atom_site_fract_x
_atom_site_fract_y
_atom_site_fract_z
Si Si1 0.878805 0.378805 0.000000
Si Si2 0.026406 0.745491 0.792336
Si Si3 0.744159 0.318619 0.408650
Si Si4 0.877357 0.727963 0.581216
Si Si5 0.131561 0.527914 0.311767
O O1 0.827504 0.385618 0.854295
O O2 0.920702 0.382348 0.787520
O O3 0.025961 0.688958 0.726959
O O4 0.014693 0.763656 0.494467
O O5 0.075506 0.751624 0.954176
O O6 0.696313 0.303688 0.250000
O O7 0.770875 0.270875 0.500000
O O8 0.745036 0.353171 0.667668
O O9 0.774420 0.342540 0.174171
O O10 0.115386 0.512315 0.602727
#
# Coordination Sequence:
#
# PCOD9559669 Si02
#       5
#     8  16  16  16  16
#     4  10  20  34  52  69  86 108 154 184 222 308
#     4   9  17  31  47  68  92 110 139 189 239 281
#     4  12  22  35  47  67  96 126 157 194 229 270
#     4  11  21  33  51  72  89 121 156 187 237 284
#     4   9  19  31  46  65  86 108 131 178 236 280
#
# _framework density 18.222462
#
# number of rings (size 3 to 8) (size 9 to 14) (size 15 to 20)
#    0.000    1.778    2.222    3.333    0.000    8.000 
#    0.000    0.000    0.000    2.000    0.000    0.000 
#    0.000    0.000    0.000    0.000    0.000    0.000 
#
# Total GULP energy -200701.766460 kJ/mol
# GULP energy per Si atom -5575.049068 kJ/mol
# Density = 1.818099 g / cm^3
# Si number density = 18.222462 Si / 1000 Ang^3
#
#
#
# Elastic Constant Matrix: (Units=GPa)
#
#
# Indices 1 2 3 4 5 6 
#
# 1 25.0562 12.7336 8.1870 0.0000 0.0000 0.0000
# 2 12.7336 25.0526 8.1856 0.0000 0.0000 0.0000
# 3 8.1870 8.1856 91.1178 0.0000 0.0000 0.0000
# 4 0.0000 0.0000 0.0000 23.0956 0.0000 0.0000
# 5 0.0000 0.0000 0.0000 0.0000 23.0958 0.0000
# 6 0.0000 0.0000 0.0000 0.0000 0.0000 10.4780
#
#
#
# Elastic Compliance Matrix: (Units=1/GPa)
#
#
# Indices 1 2 3 4 5 6 
#
# 1 0.054346 -0.026814 -0.002474 0.000000 0.000000 0.000000
# 2 -0.026814 0.054353 -0.002474 0.000000 0.000000 0.000000
# 3 -0.002474 -0.002474 0.011419 0.000000 0.000000 0.000000
# 4 0.000000 0.000000 0.000000 0.043298 0.000000 0.000000
# 5 0.000000 0.000000 0.000000 0.000000 0.043298 0.000000
# 6 0.000000 0.000000 0.000000 0.000000 0.000000 0.095438
#
#
# Mechanical properties :
#
#
# Convention : Reuss Voigt Hill
#
# Bulk Modulus (GPa) = 17.66958 22.15990 19.91474
# Shear Modulus (GPa) = 13.00253 18.80860 15.90556
#
# Velocity S-wave (km/s) = 2.67412 3.21622 2.95762
# Velocity P-wave (km/s) = 4.38773 5.09698 4.75560
#
# Compressibility (1/GPa) = 0.05659445
#
# Stress axis : x y z
#
# Youngs Moduli (GPa) = 18.40071 18.39821 87.57094
#
# Poissons Ratio (x) = 0.49333 0.21666
# Poissons Ratio (y) = 0.49340 0.21661
# Poissons Ratio (z) = 0.04553 0.04551
#
# Static dielectric constant tensor:
#      x y z
#    x 1.695990 0.000000 0.000000 
#    y 0.000000 1.696000 0.000000 
#    z 0.000000 0.000000 1.687680 
# 
# From -- ./inp_files/414.got.cif
#   From: 2010.05.17/outbox.cif.g08.bks.cpg/sg120_1_cif.got.tgz:414.got - 2010.05.20 11:28:13.
