data_PCOD9559912
_publ_section_title
;
Structure prediction by ZEFSAII (Michael W. Deem and Ramdas Pophale) SiO2 
 PCOD9559912
Probable space group: I -4 C 2
;
_chemical_formula_sum "Si O2"
_cell_formula_units_Z 60
_cell_length_a 19.059124
_cell_length_b 19.059124
_cell_length_c 8.538401
_cell_angle_alpha 90.000000
_cell_angle_beta 90.000000
_cell_angle_gamma 90.000000
_cell_volume 3101.575936
_symmetry_space_group_name_H-M "I -4 C 2"
_symmetry_group_IT_number 120
_symmetry_cell_setting 'tetragonal'
loop_
_space_group_symop_operation_xyz
x,y,z
y,-x,-z
-x,-y,z
-y,x,-z
y,x,1/2-z
-y,-x,1/2-z
-x,y,1/2+z
x,-y,1/2+z
1/2+x,1/2+y,1/2+z
1/2+y,1/2-x,1/2-z
1/2-x,1/2-y,1/2+z
1/2-y,1/2+x,1/2-z
1/2+y,1/2+x,-z
1/2-y,1/2-x,-z
1/2-x,1/2+y,z
1/2+x,1/2-y,z
loop_
_atom_site_type_symbol
_atom_site_label
_atom_site_fract_x
_atom_site_fract_y
_atom_site_fract_z
Si Si1 0.278700 0.602448 0.740056
Si Si2 0.217926 0.322617 0.677385
Si Si3 0.076608 0.076608 0.250000
Si Si4 0.000000 0.000000 0.000000
Si Si5 0.459491 0.721117 0.415585
O O1 0.347046 0.652955 0.750000
O O2 0.212044 0.653960 0.728575
O O3 0.275913 0.542638 0.609453
O O4 0.276361 0.560696 0.903241
O O5 0.287920 0.287920 0.750000
O O6 0.206840 0.293161 0.500000
O O7 0.222791 0.406546 0.665707
O O8 0.148880 0.064857 0.163929
O O9 0.018558 0.063439 0.115213
#
# Coordination Sequence:
#
# PCOD9559912 Si02
#       5
#    16  16   8   4  16
#     4  10  24  38  56  82 114 145 188 227 275 330
#     4   9  19  38  56  78 107 145 187 232 272 327
#     4  11  22  34  50  72 108 150 182 217 264 322
#     4  10  24  34  44  70 112 150 184 218 256 322
#     4  11  22  36  57  80 110 147 186 228 275 327
#
# _framework density 19.345003999999999
#
# number of rings (size 3 to 8) (size 9 to 14) (size 15 to 20)
#    0.000    1.867    1.333    1.600   11.200    2.133 
#    0.000    0.000    0.000    0.800    0.000    5.600 
#    0.000    0.000    0.000    0.000    0.000    0.000 
#
# Total GULP energy -167455.537735 kJ/mol
# GULP energy per Si atom -5581.851258 kJ/mol
# Density = 1.930097 g / cm^3
# Si number density = 19.345004 Si / 1000 Ang^3
#
#
#
# Elastic Constant Matrix: (Units=GPa)
#
#
# Indices 1 2 3 4 5 6 
#
# 1 53.9450 46.0251 7.8178 0.0000 0.0000 0.0000
# 2 46.0251 53.9499 7.8201 0.0000 0.0000 0.0000
# 3 7.8178 7.8201 37.6054 0.0000 0.0000 0.0000
# 4 0.0000 0.0000 0.0000 18.9357 0.0000 0.0000
# 5 0.0000 0.0000 0.0000 0.0000 18.9352 0.0000
# 6 0.0000 0.0000 0.0000 0.0000 0.0000 23.8732
#
#
#
# Elastic Compliance Matrix: (Units=1/GPa)
#
#
# Indices 1 2 3 4 5 6 
#
# 1 0.068284 -0.057943 -0.002146 0.000000 0.000000 0.000000
# 2 -0.057943 0.068279 -0.002153 0.000000 0.000000 0.000000
# 3 -0.002146 -0.002153 0.027486 0.000000 0.000000 0.000000
# 4 0.000000 0.000000 0.000000 0.052810 0.000000 0.000000
# 5 0.000000 0.000000 0.000000 0.000000 0.052812 0.000000
# 6 0.000000 0.000000 0.000000 0.000000 0.000000 0.041888
#
#
# Mechanical properties :
#
#
# Convention : Reuss Voigt Hill
#
# Bulk Modulus (GPa) = 25.27481 29.86957 27.57219
# Shear Modulus (GPa) = 11.13011 17.93799 14.53405
#
# Velocity S-wave (km/s) = 2.40124 3.04841 2.74397
# Velocity P-wave (km/s) = 4.55869 5.27867 4.93184
#
# Compressibility (1/GPa) = 0.03956509
#
# Stress axis : x y z
#
# Youngs Moduli (GPa) = 14.64464 14.64574 36.38239
#
# Poissons Ratio (x) = 0.84862 0.07809
# Poissons Ratio (y) = 0.84855 0.07834
# Poissons Ratio (z) = 0.03143 0.03153
#
# Static dielectric constant tensor:
#      x y z
#    x 1.708670 0.000000 0.000000 
#    y 0.000000 1.708670 0.000000 
#    z 0.000000 0.000000 1.760260 
# 
# From -- ./inp_files/1085.got.cif
#   From: 2010.05.17/outbox.cif.g08.bks.cpg/sg120_1_cif.got.tgz:1085.got - 2010.05.20 11:28:13.
