data_PCOD9559525
_publ_section_title
;
Structure prediction by ZEFSAII (Michael W. Deem and Ramdas Pophale) SiO2 
 PCOD9559525
Probable space group: I -4 M 2
;
_chemical_formula_sum "Si O2"
_cell_formula_units_Z 40
_cell_length_a 14.399185
_cell_length_b 14.399185
_cell_length_c 7.410740
_cell_angle_alpha 90.000000
_cell_angle_beta 90.000000
_cell_angle_gamma 90.000000
_cell_volume 1536.517106
_symmetry_space_group_name_H-M "I -4 M 2"
_symmetry_group_IT_number 119
_symmetry_cell_setting 'tetragonal'
loop_
_space_group_symop_operation_xyz
x,y,z
y,-x,-z
-x,-y,z
-y,x,-z
y,x,-z
-y,-x,-z
-x,y,z
x,-y,z
1/2+x,1/2+y,1/2+z
1/2+y,1/2-x,1/2-z
1/2-x,1/2-y,1/2+z
1/2-y,1/2+x,1/2-z
1/2+y,1/2+x,1/2-z
1/2-y,1/2-x,1/2-z
1/2-x,1/2+y,1/2+z
1/2+x,1/2-y,1/2+z
loop_
_atom_site_type_symbol
_atom_site_label
_atom_site_fract_x
_atom_site_fract_y
_atom_site_fract_z
Si Si1 0.394606 0.894669 0.968061
Si Si2 0.104968 0.890928 0.715183
Si Si3 0.280442 0.719559 0.500000
O O1 0.500000 0.876974 0.028704
O O2 0.395516 0.895516 0.750000
O O3 0.367863 0.000000 0.024167
O O4 0.324072 0.815314 0.026197
O O5 0.115223 0.884778 0.500000
O O6 0.000000 0.860572 0.762502
O O7 0.112785 0.000000 0.760943
O O8 0.180694 0.836554 0.827770
#
# Coordination Sequence:
#
# PCOD9559525 Si02
#       3
#    16  16   8
#     4   9  20  41  69 103 146 192 237 297 369 430
#     4   9  18  32  54  98 156 195 228 292 371 440
#     4  12  20  35  72 105 128 186 260 302 348 436
#
# _framework density 26.032902
#
# number of rings (size 3 to 8) (size 9 to 14) (size 15 to 20)
#    0.000    2.400    0.000    6.000    0.000    1.600 
#    3.600    0.000    0.000    7.800    0.000   25.200 
#    0.000    0.000    0.000    0.000    0.000    0.000 
#
# Total GULP energy -112271.664467 kJ/mol
# GULP energy per Si atom -5613.583223 kJ/mol
# Density = 2.597365 g / cm^3
# Si number density = 26.032902 Si / 1000 Ang^3
#
#
#
# Elastic Constant Matrix: (Units=GPa)
#
#
# Indices 1 2 3 4 5 6 
#
# 1 168.3846 101.7949 9.3488 0.0000 0.0000 0.0000
# 2 101.7949 168.3860 9.3487 0.0000 0.0000 0.0000
# 3 9.3488 9.3487 88.3529 0.0000 0.0000 0.0000
# 4 0.0000 0.0000 0.0000 36.8545 0.0000 0.0000
# 5 0.0000 0.0000 0.0000 0.0000 36.8548 0.0000
# 6 0.0000 0.0000 0.0000 0.0000 0.0000 39.4598
#
#
#
# Elastic Compliance Matrix: (Units=1/GPa)
#
#
# Indices 1 2 3 4 5 6 
#
# 1 0.009373 -0.005644 -0.000395 0.000000 0.000000 0.000000
# 2 -0.005644 0.009373 -0.000395 0.000000 0.000000 0.000000
# 3 -0.000395 -0.000395 0.011402 0.000000 0.000000 0.000000
# 4 0.000000 0.000000 0.000000 0.027134 0.000000 0.000000
# 5 0.000000 0.000000 0.000000 0.000000 0.027134 0.000000
# 6 0.000000 0.000000 0.000000 0.000000 0.000000 0.025342
#
#
# Mechanical properties :
#
#
# Convention : Reuss Voigt Hill
#
# Bulk Modulus (GPa) = 57.86793 74.01202 65.93998
# Shear Modulus (GPa) = 38.94569 42.94256 40.94413
#
# Velocity S-wave (km/s) = 3.87204 4.06587 3.97014
# Velocity P-wave (km/s) = 6.50133 7.10870 6.81179
#
# Compressibility (1/GPa) = 0.01728073
#
# Stress axis : x y z
#
# Youngs Moduli (GPa) = 106.69063 106.69158 87.70591
#
# Poissons Ratio (x) = 0.60220 0.03460
# Poissons Ratio (y) = 0.60220 0.03460
# Poissons Ratio (z) = 0.04209 0.04209
#
# Static dielectric constant tensor:
#      x y z
#    x 2.032390 0.000000 0.000000 
#    y 0.000000 2.032380 0.000000 
#    z 0.000000 0.000000 2.035040 
# 
# From -- ./inp_files/1580.got.cif
#   From: 2010.05.17/outbox.cif.g08.bks.cpg/sg119_1_cif.got.tgz:1580.got - 2010.05.20 11:21:29.
