data_PCOD9559845
_publ_section_title
;
Structure prediction by ZEFSAII (Michael W. Deem and Ramdas Pophale) SiO2 
 PCOD9559845
Probable space group: I -4 C 2
;
_chemical_formula_sum "Si O2"
_cell_formula_units_Z 112
_cell_length_a 14.870127
_cell_length_b 14.870127
_cell_length_c 25.512148
_cell_angle_alpha 90.000000
_cell_angle_beta 90.000000
_cell_angle_gamma 90.000000
_cell_volume 5641.263437
_symmetry_space_group_name_H-M "I -4 C 2"
_symmetry_group_IT_number 120
_symmetry_cell_setting 'tetragonal'
loop_
_space_group_symop_operation_xyz
x,y,z
y,-x,-z
-x,-y,z
-y,x,-z
y,x,1/2-z
-y,-x,1/2-z
-x,y,1/2+z
x,-y,1/2+z
1/2+x,1/2+y,1/2+z
1/2+y,1/2-x,1/2-z
1/2-x,1/2-y,1/2+z
1/2-y,1/2+x,1/2-z
1/2+y,1/2+x,-z
1/2-y,1/2-x,-z
1/2-x,1/2+y,z
1/2+x,1/2-y,z
loop_
_atom_site_type_symbol
_atom_site_label
_atom_site_fract_x
_atom_site_fract_y
_atom_site_fract_z
Si Si1 0.355079 0.010825 0.742510
Si Si2 0.036718 0.214234 0.051727
Si Si3 0.831901 0.058256 0.555855
Si Si4 0.421656 0.560407 0.871809
Si Si5 0.275298 0.643643 0.800601
Si Si6 0.038682 0.400574 0.554201
Si Si7 0.603828 0.185404 0.358822
O O1 0.411141 0.928885 0.768780
O O2 0.320713 0.966617 0.688780
O O3 0.278530 0.055023 0.779102
O O4 0.126537 0.156686 0.045835
O O5 0.991573 0.161146 0.100354
O O6 0.035548 0.321739 0.055774
O O7 0.978580 0.198197 0.999711
O O8 0.758463 0.071582 0.600218
O O9 0.896159 0.981499 0.581390
O O10 0.500000 0.500000 0.844843
O O11 0.367646 0.622505 0.831318
O O12 0.299363 0.700638 0.750000
O O13 0.203297 0.697601 0.835437
O O14 0.097685 0.402316 0.500000
O O15 0.096227 0.388516 0.606338
O O16 0.000000 0.500000 0.556280
#
# Coordination Sequence:
#
# PCOD9559845 Si02
#       7
#    16  16  16  16  16  16  16
#     4   9  21  41  68  94 119 173 229 277 337 400
#     4  11  21  41  66  96 136 174 217 269 330 410
#     4  11  22  40  66 101 132 173 223 267 336 412
#     4  10  22  39  67  96 124 175 220 268 334 395
#     4  11  23  43  61  91 134 170 222 286 339 393
#     4  11  24  42  64  99 135 168 218 272 327 399
#     4  11  23  42  65  92 130 174 220 278 333 399
#
# _framework density 19.853707
#
# number of rings (size 3 to 8) (size 9 to 14) (size 15 to 20)
#    0.000    1.429    4.286    0.857    4.000    0.286 
#   15.429    2.857    0.000    0.000    0.000    0.000 
#    0.000    0.000    0.000    0.000    0.000    0.000 
#
# Total GULP energy -312084.615295 kJ/mol
# GULP energy per Si atom -5572.939559 kJ/mol
# Density = 1.980852 g / cm^3
# Si number density = 19.853707 Si / 1000 Ang^3
#
#
#
# Elastic Constant Matrix: (Units=GPa)
#
#
# Indices 1 2 3 4 5 6 
#
# 1 67.8389 7.8461 0.6530 0.0000 0.0000 0.0000
# 2 7.8461 67.8375 0.6524 0.0000 0.0000 0.0000
# 3 0.6530 0.6524 53.6744 0.0000 0.0000 0.0000
# 4 0.0000 0.0000 0.0000 36.4920 0.0000 0.0000
# 5 0.0000 0.0000 0.0000 0.0000 36.4913 0.0000
# 6 0.0000 0.0000 0.0000 0.0000 0.0000 25.0803
#
#
#
# Elastic Compliance Matrix: (Units=1/GPa)
#
#
# Indices 1 2 3 4 5 6 
#
# 1 0.014942 -0.001727 -0.000161 0.000000 0.000000 0.000000
# 2 -0.001727 0.014942 -0.000161 0.000000 0.000000 0.000000
# 3 -0.000161 -0.000161 0.018635 0.000000 0.000000 0.000000
# 4 0.000000 0.000000 0.000000 0.027403 0.000000 0.000000
# 5 0.000000 0.000000 0.000000 0.000000 0.027404 0.000000
# 6 0.000000 0.000000 0.000000 0.000000 0.000000 0.039872
#
#
# Mechanical properties :
#
#
# Convention : Reuss Voigt Hill
#
# Bulk Modulus (GPa) = 22.51084 23.07264 22.79174
# Shear Modulus (GPa) = 30.84476 31.62599 31.23538
#
# Velocity S-wave (km/s) = 3.94585 3.99551 3.97076
# Velocity P-wave (km/s) = 5.66768 5.73864 5.70327
#
# Compressibility (1/GPa) = 0.04442305
#
# Stress axis : x y z
#
# Youngs Moduli (GPa) = 66.92519 66.92385 53.66315
#
# Poissons Ratio (x) = 0.11555 0.00863
# Poissons Ratio (y) = 0.11556 0.00862
# Poissons Ratio (z) = 0.01076 0.01075
#
# Static dielectric constant tensor:
#      x y z
#    x 1.687280 0.000000 0.000000 
#    y 0.000000 1.687270 0.000000 
#    z 0.000000 0.000000 1.692890 
# 
# From -- ./inp_files/5921.got.cif
#   From: 2010.05.17/outbox.cif.g08.bks.cpg/sg120_3_cif.got.tgz:5921.got - 2010.05.20 11:28:13.
