data_PCOD9559565
_publ_section_title
;
Structure prediction by ZEFSAII (Michael W. Deem and Ramdas Pophale) SiO2 
 PCOD9559565
Probable space group: I -4 C 2
;
_chemical_formula_sum "Si O2"
_cell_formula_units_Z 72
_cell_length_a 25.041227
_cell_length_b 25.041227
_cell_length_c 5.427618
_cell_angle_alpha 90.000000
_cell_angle_beta 90.000000
_cell_angle_gamma 90.000000
_cell_volume 3403.458695
_symmetry_space_group_name_H-M "I -4 C 2"
_symmetry_group_IT_number 120
_symmetry_cell_setting 'tetragonal'
loop_
_space_group_symop_operation_xyz
x,y,z
y,-x,-z
-x,-y,z
-y,x,-z
y,x,1/2-z
-y,-x,1/2-z
-x,y,1/2+z
x,-y,1/2+z
1/2+x,1/2+y,1/2+z
1/2+y,1/2-x,1/2-z
1/2-x,1/2-y,1/2+z
1/2-y,1/2+x,1/2-z
1/2+y,1/2+x,-z
1/2-y,1/2-x,-z
1/2-x,1/2+y,z
1/2+x,1/2-y,z
loop_
_atom_site_type_symbol
_atom_site_label
_atom_site_fract_x
_atom_site_fract_y
_atom_site_fract_z
Si Si1 0.128191 0.697580 0.385221
Si Si2 0.158724 0.811615 0.511095
Si Si3 0.282856 0.217145 0.000000
Si Si4 0.033973 0.877035 0.195870
Si Si5 0.251103 0.467548 0.337924
O O1 0.138870 0.638870 0.500000
O O2 0.126880 0.755549 0.527771
O O3 0.079309 0.708141 0.203321
O O4 0.182835 0.699598 0.230797
O O5 0.158569 0.841432 0.250000
O O6 0.221190 0.795696 0.519935
O O7 0.151033 0.848968 0.750000
O O8 0.080808 0.919193 0.250000
O O9 0.049077 0.813591 0.191000
O O10 0.993614 0.884921 0.428477
O O11 0.243487 0.492228 0.608044
#
# Coordination Sequence:
#
# PCOD9559565 Si02
#       5
#    16  16   8  16  16
#     4  11  21  34  60  82 117 159 197 240 286 352
#     4  10  17  29  44  76 120 140 171 235 275 337
#     4  10  18  30  48  86 122 138 183 242 281 350
#     4  10  21  39  60  85 113 149 209 263 318 363
#     4  10  25  44  58  81 125 169 200 243 304 376
#
# _framework density 21.154949999999999
#
# number of rings (size 3 to 8) (size 9 to 14) (size 15 to 20)
#    0.000    1.778    3.333    1.333    3.111    4.000 
#    0.000    4.444    0.000    0.000    0.000    0.000 
#    0.000    2.667    0.000    0.000    0.000    0.000 
#
# Total GULP energy -200568.749252 kJ/mol
# GULP energy per Si atom -5571.354146 kJ/mol
# Density = 2.110680 g / cm^3
# Si number density = 21.154950 Si / 1000 Ang^3
#
#
#
# Elastic Constant Matrix: (Units=GPa)
#
#
# Indices 1 2 3 4 5 6 
#
# 1 28.1108 44.8487 2.7027 0.0000 0.0000 0.0000
# 2 44.8487 28.1204 2.7050 0.0000 0.0000 0.0000
# 3 2.7027 2.7050 112.9425 0.0000 0.0000 0.0000
# 4 0.0000 0.0000 0.0000 8.6393 0.0000 0.0000
# 5 0.0000 0.0000 0.0000 0.0000 8.6371 0.0000
# 6 0.0000 0.0000 0.0000 0.0000 0.0000 39.5992
#
#
#
# Elastic Compliance Matrix: (Units=1/GPa)
#
#
# Indices 1 2 3 4 5 6 
#
# 1 -0.023020 0.036746 -0.000329 0.000000 0.000000 0.000000
# 2 0.036746 -0.023012 -0.000328 0.000000 0.000000 0.000000
# 3 -0.000329 -0.000328 0.008870 0.000000 0.000000 0.000000
# 4 0.000000 0.000000 0.000000 0.115750 0.000000 0.000000
# 5 0.000000 0.000000 0.000000 0.000000 0.115780 0.000000
# 6 0.000000 0.000000 0.000000 0.000000 0.000000 0.025253
#
#
# Mechanical properties :
#
#
# Convention : Reuss Voigt Hill
#
# Bulk Modulus (GPa) = 28.55963 29.96515 29.26239
# Shear Modulus (GPa) = 31.42369 19.30293 25.36331
#
# Velocity S-wave (km/s) = 3.85828 3.02396 3.46631
# Velocity P-wave (km/s) = 5.77736 5.13691 5.46652
#
# Compressibility (1/GPa) = 0.03501445
#
# Stress axis : x y z
#
# Youngs Moduli (GPa) = -43.44047 -43.45524 112.74211
#
# Poissons Ratio (x) = 1.59680 0.03711
# Poissons Ratio (y) = 1.59625 0.03700
# Poissons Ratio (z) = -0.01430 -0.01426
#
# Static dielectric constant tensor:
#      x y z
#    x 1.803950 0.000000 0.000000 
#    y 0.000000 1.803950 0.000000 
#    z 0.000000 0.000000 2.152460 
# 
# From -- ./inp_files/409.got.cif
#   From: 2010.05.17/outbox.cif.g08.bks.cpg/sg120_1_cif.got.tgz:409.got - 2010.05.20 11:28:13.
