data_PCOD9559786
_publ_section_title
;
Structure prediction by ZEFSAII (Michael W. Deem and Ramdas Pophale) SiO2 
 PCOD9559786
Probable space group: I -4 C 2
;
_chemical_formula_sum "Si O2"
_cell_formula_units_Z 112
_cell_length_a 14.139134
_cell_length_b 14.139134
_cell_length_c 27.093593
_cell_angle_alpha 90.000000
_cell_angle_beta 90.000000
_cell_angle_gamma 90.000000
_cell_volume 5416.418632
_symmetry_space_group_name_H-M "I -4 C 2"
_symmetry_group_IT_number 120
_symmetry_cell_setting 'tetragonal'
loop_
_space_group_symop_operation_xyz
x,y,z
y,-x,-z
-x,-y,z
-y,x,-z
y,x,1/2-z
-y,-x,1/2-z
-x,y,1/2+z
x,-y,1/2+z
1/2+x,1/2+y,1/2+z
1/2+y,1/2-x,1/2-z
1/2-x,1/2-y,1/2+z
1/2-y,1/2+x,1/2-z
1/2+y,1/2+x,-z
1/2-y,1/2-x,-z
1/2-x,1/2+y,z
1/2+x,1/2-y,z
loop_
_atom_site_type_symbol
_atom_site_label
_atom_site_fract_x
_atom_site_fract_y
_atom_site_fract_z
Si Si1 0.149060 0.339132 0.774456
Si Si2 0.199906 0.500982 0.650854
Si Si3 0.799590 0.016273 0.390628
Si Si4 0.138715 0.938770 0.993392
Si Si5 0.045400 0.369941 0.679395
Si Si6 0.179107 0.186919 0.150092
Si Si7 0.275549 0.346799 0.084543
O O1 0.124042 0.328139 0.717404
O O2 0.129328 0.449733 0.788357
O O3 0.248644 0.317888 0.800577
O O4 0.071949 0.278533 0.804360
O O5 0.094147 0.464152 0.659432
O O6 0.263714 0.409081 0.650643
O O7 0.214950 0.564356 0.602989
O O8 0.805711 0.975969 0.445928
O O9 0.840137 0.930245 0.358744
O O10 0.696231 0.029193 0.367556
O O11 0.846677 0.119514 0.390626
O O12 0.198091 0.867127 0.027516
O O13 0.037478 0.891004 0.979149
O O14 0.221084 0.254413 0.105837
#
# Coordination Sequence:
#
# PCOD9559786 Si02
#       7
#    16  16  16  16  16  16  16
#     4  10  22  37  59  87 116 161 203 250 299 374
#     4  11  21  36  59  89 120 155 202 253 304 363
#     4  10  21  39  60  89 123 162 201 259 312 365
#     4   9  18  35  62  88 118 166 210 246 308 382
#     4  11  20  38  60  85 119 157 211 248 304 362
#     4  10  22  38  59  91 119 159 202 258 308 361
#     4  10  21  39  58  91 124 156 207 256 307 370
#
# _framework density 20.677871
#
# number of rings (size 3 to 8) (size 9 to 14) (size 15 to 20)
#    0.000    1.857    2.857    1.286    0.000    2.857 
#    0.000    0.714    0.000    0.000    3.714    6.000 
#    0.000    0.000    0.000    0.000    0.000    0.000 
#
# Total GULP energy -312116.124071 kJ/mol
# GULP energy per Si atom -5573.502216 kJ/mol
# Density = 2.063081 g / cm^3
# Si number density = 20.677871 Si / 1000 Ang^3
#
#
#
# Elastic Constant Matrix: (Units=GPa)
#
#
# Indices 1 2 3 4 5 6 
#
# 1 56.7606 0.9753 9.2445 0.0000 0.0000 0.0000
# 2 0.9753 56.7606 9.2445 0.0000 0.0000 0.0000
# 3 9.2445 9.2445 64.7750 0.0000 0.0000 0.0000
# 4 0.0000 0.0000 0.0000 21.9868 0.0000 0.0000
# 5 0.0000 0.0000 0.0000 0.0000 21.9868 0.0000
# 6 0.0000 0.0000 0.0000 0.0000 0.0000 25.6865
#
#
#
# Elastic Compliance Matrix: (Units=1/GPa)
#
#
# Indices 1 2 3 4 5 6 
#
# 1 0.018038 0.000112 -0.002590 0.000000 0.000000 0.000000
# 2 0.000112 0.018038 -0.002590 0.000000 0.000000 0.000000
# 3 -0.002590 -0.002590 0.016177 0.000000 0.000000 0.000000
# 4 0.000000 0.000000 0.000000 0.045482 0.000000 0.000000
# 5 0.000000 0.000000 0.000000 0.000000 0.045482 0.000000
# 6 0.000000 0.000000 0.000000 0.000000 0.000000 0.038931
#
#
# Mechanical properties :
#
#
# Convention : Reuss Voigt Hill
#
# Bulk Modulus (GPa) = 23.74410 24.13612 23.94011
# Shear Modulus (GPa) = 24.23377 24.52080 24.37729
#
# Velocity S-wave (km/s) = 3.42711 3.44735 3.43725
# Velocity P-wave (km/s) = 5.21229 5.24818 5.23026
#
# Compressibility (1/GPa) = 0.04211573
#
# Stress axis : x y z
#
# Youngs Moduli (GPa) = 55.43913 55.43913 61.81459
#
# Poissons Ratio (x) = -0.00621 0.16012
# Poissons Ratio (y) = -0.00621 0.16012
# Poissons Ratio (z) = 0.14360 0.14360
#
# Static dielectric constant tensor:
#      x y z
#    x 1.772350 0.000000 0.000000 
#    y 0.000000 1.772350 0.000000 
#    z 0.000000 0.000000 1.779580 
# 
# From -- ./inp_files/6286.got.cif
#   From: 2010.05.17/outbox.cif.g08.bks.cpg/sg120_4_cif.got.tgz:6286.got - 2010.05.20 11:28:13.
