data_PCOD9559038
_publ_section_title
;
Structure prediction by ZEFSAII (Michael W. Deem and Ramdas Pophale) SiO2 
 PCOD9559038
Probable space group: I -4 M 2
;
_chemical_formula_sum "Si O2"
_cell_formula_units_Z 50
_cell_length_a 11.521927
_cell_length_b 11.521927
_cell_length_c 19.662910
_cell_angle_alpha 90.000000
_cell_angle_beta 90.000000
_cell_angle_gamma 90.000000
_cell_volume 2610.345720
_symmetry_space_group_name_H-M "I -4 M 2"
_symmetry_group_IT_number 119
_symmetry_cell_setting 'tetragonal'
loop_
_space_group_symop_operation_xyz
x,y,z
y,-x,-z
-x,-y,z
-y,x,-z
y,x,-z
-y,-x,-z
-x,y,z
x,-y,z
1/2+x,1/2+y,1/2+z
1/2+y,1/2-x,1/2-z
1/2-x,1/2-y,1/2+z
1/2-y,1/2+x,1/2-z
1/2+y,1/2+x,1/2-z
1/2-y,1/2-x,1/2-z
1/2-x,1/2+y,1/2+z
1/2+x,1/2-y,1/2+z
loop_
_atom_site_type_symbol
_atom_site_label
_atom_site_fract_x
_atom_site_fract_y
_atom_site_fract_z
Si Si1 0.255387 0.362791 0.183926
Si Si2 0.000000 0.248425 0.704280
Si Si3 0.864740 0.765163 0.065963
Si Si4 0.630384 0.500000 0.653534
Si Si5 0.500000 0.000000 0.250000
O O1 0.263644 0.500000 0.195004
O O2 0.196322 0.303679 0.250000
O O3 0.382801 0.307115 0.175501
O O4 0.180641 0.331943 0.117477
O O5 0.000000 0.218465 0.784722
O O6 0.000000 0.386619 0.702591
O O7 0.858810 0.885826 0.108111
O O8 0.000000 0.747113 0.047376
O O9 0.785936 0.785936 0.000000
O O10 0.500000 0.500000 0.683700
#
# Coordination Sequence:
#
# PCOD9559038 Si02
#       5
#    16   8  16   8   2
#     4  12  25  42  67  97 134 176 221 269 328 394
#     4  12  22  42  68 102 132 167 212 273 341 393
#     4  11  22  39  65  94 130 171 219 276 333 389
#     4  10  18  34  64  98 128 165 213 266 333 391
#     4  12  20  36  68 100 136 148 208 272 326 396
#
# _framework density 19.15455
#
# number of rings (size 3 to 8) (size 9 to 14) (size 15 to 20)
#    0.000    0.640    6.400    2.400    0.000    2.240 
#    2.880    0.000    0.000    0.000    0.000    0.000 
#    0.000    0.000    0.000    0.000    0.000    0.000 
#
# Total GULP energy -139790.302114 kJ/mol
# GULP energy per Si atom -5591.612085 kJ/mol
# Density = 1.911095 g / cm^3
# Si number density = 19.154550 Si / 1000 Ang^3
#
#
#
# Elastic Constant Matrix: (Units=GPa)
#
#
# Indices 1 2 3 4 5 6 
#
# 1 112.5755 29.0319 12.8564 0.0000 0.0000 0.0000
# 2 29.0319 112.5770 12.8562 0.0000 0.0000 0.0000
# 3 12.8564 12.8562 75.4593 0.0000 0.0000 0.0000
# 4 0.0000 0.0000 0.0000 25.6390 0.0000 0.0000
# 5 0.0000 0.0000 0.0000 0.0000 25.6390 0.0000
# 6 0.0000 0.0000 0.0000 0.0000 0.0000 27.0678
#
#
#
# Elastic Compliance Matrix: (Units=1/GPa)
#
#
# Indices 1 2 3 4 5 6 
#
# 1 0.009628 -0.002341 -0.001242 0.000000 0.000000 0.000000
# 2 -0.002341 0.009628 -0.001242 0.000000 0.000000 0.000000
# 3 -0.001242 -0.001242 0.013675 0.000000 0.000000 0.000000
# 4 0.000000 0.000000 0.000000 0.039003 0.000000 0.000000
# 5 0.000000 0.000000 0.000000 0.000000 0.039003 0.000000
# 6 0.000000 0.000000 0.000000 0.000000 0.000000 0.036944
#
#
# Mechanical properties :
#
#
# Convention : Reuss Voigt Hill
#
# Bulk Modulus (GPa) = 42.94906 45.56676 44.25791
# Shear Modulus (GPa) = 30.24946 32.06033 31.15490
#
# Velocity S-wave (km/s) = 3.97827 4.09561 4.03737
# Velocity P-wave (km/s) = 6.60100 6.79750 6.69997
#
# Compressibility (1/GPa) = 0.02328340
#
# Stress axis : x y z
#
# Youngs Moduli (GPa) = 103.85836 103.85981 73.12494
#
# Poissons Ratio (x) = 0.24316 0.09079
# Poissons Ratio (y) = 0.24316 0.09079
# Poissons Ratio (z) = 0.12895 0.12894
#
# Static dielectric constant tensor:
#      x y z
#    x 1.671540 0.000000 0.000000 
#    y 0.000000 1.671540 0.000000 
#    z 0.000000 0.000000 1.642630 
# 
# From -- ./inp_files/7169.got.cif
#   From: 2010.05.17/outbox.cif.g08.bks.cpg/sg119_4_cif.got.tgz:7169.got - 2010.05.20 11:21:29.
