data_PCOD9559299
_publ_section_title
;
Structure prediction by ZEFSAII (Michael W. Deem and Ramdas Pophale) SiO2 
 PCOD9559299
Probable space group: I -4 M 2
;
_chemical_formula_sum "Si O2"
_cell_formula_units_Z 74
_cell_length_a 20.713584
_cell_length_b 20.713584
_cell_length_c 8.946649
_cell_angle_alpha 90.000000
_cell_angle_beta 90.000000
_cell_angle_gamma 90.000000
_cell_volume 3838.582676
_symmetry_space_group_name_H-M "I -4 M 2"
_symmetry_group_IT_number 119
_symmetry_cell_setting 'tetragonal'
loop_
_space_group_symop_operation_xyz
x,y,z
y,-x,-z
-x,-y,z
-y,x,-z
y,x,-z
-y,-x,-z
-x,y,z
x,-y,z
1/2+x,1/2+y,1/2+z
1/2+y,1/2-x,1/2-z
1/2-x,1/2-y,1/2+z
1/2-y,1/2+x,1/2-z
1/2+y,1/2+x,1/2-z
1/2-y,1/2-x,1/2-z
1/2-x,1/2+y,1/2+z
1/2+x,1/2-y,1/2+z
loop_
_atom_site_type_symbol
_atom_site_label
_atom_site_fract_x
_atom_site_fract_y
_atom_site_fract_z
Si Si1 0.206255 0.000000 0.768889
Si Si2 0.000000 0.307355 0.500558
Si Si3 0.000000 0.790208 0.750879
Si Si4 0.000000 0.500000 0.750000
Si Si5 0.424974 0.000000 0.959754
Si Si6 0.778558 0.887796 0.011009
Si Si7 0.500000 0.606755 0.983625
Si Si8 0.132857 0.361623 0.081555
O O1 0.139341 0.000000 0.678992
O O2 0.257747 0.000000 0.636559
O O3 0.214714 0.936288 0.869405
O O4 0.929390 0.339934 0.482284
O O5 0.000000 0.277130 0.664127
O O6 0.935680 0.794000 0.851153
O O7 0.000000 0.842449 0.618831
O O8 0.938580 0.500000 0.639137
O O9 0.382678 0.058896 0.906308
O O10 0.500000 0.000000 0.906537
O O11 0.829403 0.829403 0.000000
O O12 0.704285 0.862767 0.013133
O O13 0.562334 0.562334 0.000000
O O14 0.155058 0.344943 0.250000
#
# Coordination Sequence:
#
# PCOD9559299 Si02
#       8
#     8   8   8   2   8  16   8  16
#     4  10  20  41  65  83 129 171 206 266 323 392
#     4  11  22  42  62  90 125 166 214 267 312 382
#     4  10  24  43  64  95 127 173 213 267 339 378
#     4   8  20  36  50  92 128 156 200 258 328 356
#     4  10  21  33  61  88 123 160 208 264 312 377
#     4  11  24  43  65  94 131 174 220 266 333 406
#     4  10  20  37  66 100 124 157 215 276 332 393
#     4  12  23  40  62  91 126 169 220 261 321 385
#
# _framework density 19.277949
#
# number of rings (size 3 to 8) (size 9 to 14) (size 15 to 20)
#    0.324    0.973    3.243    3.243    0.000    4.324 
#    3.892    1.081    0.000    5.189    0.000    0.000 
#    0.000    0.000    0.000    0.000    0.000    0.000 
#
# Total GULP energy -206281.145033 kJ/mol
# GULP energy per Si atom -5575.166082 kJ/mol
# Density = 1.923407 g / cm^3
# Si number density = 19.277949 Si / 1000 Ang^3
#
#
#
# Elastic Constant Matrix: (Units=GPa)
#
#
# Indices 1 2 3 4 5 6 
#
# 1 117.5138 56.4919 21.3398 0.0000 0.0000 0.0000
# 2 56.4919 117.5142 21.3401 0.0000 0.0000 0.0000
# 3 21.3398 21.3401 78.1426 0.0000 0.0000 0.0000
# 4 0.0000 0.0000 0.0000 14.0961 0.0000 0.0000
# 5 0.0000 0.0000 0.0000 0.0000 14.0961 0.0000
# 6 0.0000 0.0000 0.0000 0.0000 0.0000 -21.7242
#
#
#
# Elastic Compliance Matrix: (Units=1/GPa)
#
#
# Indices 1 2 3 4 5 6 
#
# 1 0.011274 -0.005114 -0.001682 0.000000 0.000000 0.000000
# 2 -0.005114 0.011274 -0.001682 0.000000 0.000000 0.000000
# 3 -0.001682 -0.001682 0.013716 0.000000 0.000000 0.000000
# 4 0.000000 0.000000 0.000000 0.070942 0.000000 0.000000
# 5 0.000000 0.000000 0.000000 0.000000 0.070942 0.000000
# 6 0.000000 0.000000 0.000000 0.000000 0.000000 -0.046032
#
#
# Mechanical properties :
#
#
# Convention : Reuss Voigt Hill
#
# Bulk Modulus (GPa) = 51.79612 56.83493 54.31552
# Shear Modulus (GPa) = 32.15299 15.56018 23.85659
#
# Velocity S-wave (km/s) = 4.08838 2.84412 3.52164
# Velocity P-wave (km/s) = 7.01519 6.35068 6.69119
#
# Compressibility (1/GPa) = 0.01930647
#
# Stress axis : x y z
#
# Youngs Moduli (GPa) = 88.70337 88.70355 72.90841
#
# Poissons Ratio (x) = 0.45363 0.12264
# Poissons Ratio (y) = 0.45363 0.12264
# Poissons Ratio (z) = 0.14921 0.14921
#
# Static dielectric constant tensor:
#      x y z
#    x 1.571340 0.000000 0.000000 
#    y 0.000000 1.571400 0.000000 
#    z 0.000000 0.000000 1.865330 
# 
# From -- ./inp_files/2514.got.cif
#   From: 2010.05.17/outbox.cif.g08.bks.cpg/sg119_2_cif.got.tgz:2514.got - 2010.05.20 11:21:29.
