data_PCOD9559820
_publ_section_title
;
Structure prediction by ZEFSAII (Michael W. Deem and Ramdas Pophale) SiO2 
 PCOD9559820
Probable space group: I -4 C 2
;
_chemical_formula_sum "Si O2"
_cell_formula_units_Z 56
_cell_length_a 22.101436
_cell_length_b 22.101436
_cell_length_c 5.054800
_cell_angle_alpha 90.000000
_cell_angle_beta 90.000000
_cell_angle_gamma 90.000000
_cell_volume 2469.135713
_symmetry_space_group_name_H-M "I -4 C 2"
_symmetry_group_IT_number 120
_symmetry_cell_setting 'tetragonal'
loop_
_space_group_symop_operation_xyz
x,y,z
y,-x,-z
-x,-y,z
-y,x,-z
y,x,1/2-z
-y,-x,1/2-z
-x,y,1/2+z
x,-y,1/2+z
1/2+x,1/2+y,1/2+z
1/2+y,1/2-x,1/2-z
1/2-x,1/2-y,1/2+z
1/2-y,1/2+x,1/2-z
1/2+y,1/2+x,-z
1/2-y,1/2-x,-z
1/2-x,1/2+y,z
1/2+x,1/2-y,z
loop_
_atom_site_type_symbol
_atom_site_label
_atom_site_fract_x
_atom_site_fract_y
_atom_site_fract_z
Si Si1 0.467181 0.701329 0.810192
Si Si2 0.348980 0.151021 0.000000
Si Si3 0.036106 0.652120 0.334588
Si Si4 0.344611 0.709549 0.512977
O O1 0.519218 0.680223 0.606310
O O2 0.467912 0.774422 0.836342
O O3 0.404349 0.687201 0.666917
O O4 0.360713 0.103040 0.769700
O O5 0.278708 0.143670 0.075177
O O6 0.011272 0.630296 0.612891
O O7 0.294570 0.705431 0.750000
O O8 0.325887 0.674114 0.250000
#
# Coordination Sequence:
#
# PCOD9559820 Si02
#       4
#    16   8  16  16
#     4   9  17  32  51  70  99 140 178 211 246 292
#     4  10  22  36  56  75 108 148 170 212 280 321
#     4   9  19  33  51  73  94 130 185 223 250 305
#     4  11  22  34  51  82 116 139 169 210 263 329
#
# _framework density 22.679998000000001
#
# number of rings (size 3 to 8) (size 9 to 14) (size 15 to 20)
#    0.000    2.286    0.000    2.571    0.000   10.286 
#    0.000    0.000    0.000    2.571    0.000    0.000 
#    0.000   40.000    0.000    0.000    0.000    0.000 
#
# Total GULP energy -156415.886131 kJ/mol
# GULP energy per Si atom -5586.281648 kJ/mol
# Density = 2.262838 g / cm^3
# Si number density = 22.679998 Si / 1000 Ang^3
#
#
#
# Elastic Constant Matrix: (Units=GPa)
#
#
# Indices 1 2 3 4 5 6 
#
# 1 64.3949 19.8864 12.0329 0.0000 0.0000 0.0000
# 2 19.8864 64.3981 12.0325 0.0000 0.0000 0.0000
# 3 12.0329 12.0325 99.9697 0.0000 0.0000 0.0000
# 4 0.0000 0.0000 0.0000 26.4805 0.0000 0.0000
# 5 0.0000 0.0000 0.0000 0.0000 26.4808 0.0000
# 6 0.0000 0.0000 0.0000 0.0000 0.0000 9.2338
#
#
#
# Elastic Compliance Matrix: (Units=1/GPa)
#
#
# Indices 1 2 3 4 5 6 
#
# 1 0.017377 -0.005090 -0.001479 0.000000 0.000000 0.000000
# 2 -0.005090 0.017377 -0.001479 0.000000 0.000000 0.000000
# 3 -0.001479 -0.001479 0.010359 0.000000 0.000000 0.000000
# 4 0.000000 0.000000 0.000000 0.037764 0.000000 0.000000
# 5 0.000000 0.000000 0.000000 0.000000 0.037763 0.000000
# 6 0.000000 0.000000 0.000000 0.000000 0.000000 0.108298
#
#
# Mechanical properties :
#
#
# Convention : Reuss Voigt Hill
#
# Bulk Modulus (GPa) = 34.46193 35.18516 34.82355
# Shear Modulus (GPa) = 19.63049 24.75972 22.19511
#
# Velocity S-wave (km/s) = 2.94520 3.30767 3.13168
# Velocity P-wave (km/s) = 5.17624 5.48954 5.33519
#
# Compressibility (1/GPa) = 0.02901753
#
# Stress axis : x y z
#
# Youngs Moduli (GPa) = 57.54600 57.54899 96.53400
#
# Poissons Ratio (x) = 0.29292 0.14278
# Poissons Ratio (y) = 0.29290 0.14276
# Poissons Ratio (z) = 0.08511 0.08510
#
# Static dielectric constant tensor:
#      x y z
#    x 1.900320 0.000000 0.000000 
#    y 0.000000 1.900320 0.000000 
#    z 0.000000 0.000000 1.843600 
# 
# From -- ./inp_files/309.got.cif
#   From: 2010.05.17/outbox.cif.g08.bks.cpg/sg120_1_cif.got.tgz:309.got - 2010.05.20 11:28:13.
