data_PCOD9559222
_publ_section_title
;
Structure prediction by ZEFSAII (Michael W. Deem and Ramdas Pophale) SiO2 
 PCOD9559222
Probable space group: I -4 M 2
;
_chemical_formula_sum "Si O2"
_cell_formula_units_Z 96
_cell_length_a 18.019171
_cell_length_b 18.019171
_cell_length_c 16.636063
_cell_angle_alpha 90.000000
_cell_angle_beta 90.000000
_cell_angle_gamma 90.000000
_cell_volume 5401.572005
_symmetry_space_group_name_H-M "I -4 M 2"
_symmetry_group_IT_number 119
_symmetry_cell_setting 'tetragonal'
loop_
_space_group_symop_operation_xyz
x,y,z
y,-x,-z
-x,-y,z
-y,x,-z
y,x,-z
-y,-x,-z
-x,y,z
x,-y,z
1/2+x,1/2+y,1/2+z
1/2+y,1/2-x,1/2-z
1/2-x,1/2-y,1/2+z
1/2-y,1/2+x,1/2-z
1/2+y,1/2+x,1/2-z
1/2-y,1/2-x,1/2-z
1/2-x,1/2+y,1/2+z
1/2+x,1/2-y,1/2+z
loop_
_atom_site_type_symbol
_atom_site_label
_atom_site_fract_x
_atom_site_fract_y
_atom_site_fract_z
Si Si1 0.414746 0.758904 0.996404
Si Si2 0.418216 0.136711 0.512232
Si Si3 0.823929 0.818743 0.186447
Si Si4 0.317180 0.081824 0.804487
Si Si5 0.297710 0.299814 0.871465
Si Si6 0.806191 0.915549 0.046363
O O1 0.500000 0.733520 0.993148
O O2 0.411668 0.847431 0.008517
O O3 0.368314 0.738317 0.915483
O O4 0.366079 0.725749 0.069380
O O5 0.500000 0.110491 0.486503
O O6 0.418803 0.144892 0.608650
O O7 0.406845 0.219718 0.476905
O O8 0.897643 0.768533 0.180481
O O9 0.761834 0.766716 0.142157
O O10 0.811444 0.827077 0.281130
O O11 0.820464 0.895108 0.139038
O O12 0.355474 0.144527 0.750000
O O13 0.325125 0.000000 0.767733
O O14 0.826742 0.000000 0.027225
O O15 0.856167 0.856167 0.000000
#
# Coordination Sequence:
#
# PCOD9559222 Si02
#       6
#    16  16  16  16  16  16
#     4  11  21  37  60  84 115 148 188 236 282 342
#     4  10  20  34  53  80 112 149 188 225 275 340
#     4  11  19  37  60  81 111 149 191 243 276 337
#     4  11  21  33  52  82 115 151 186 225 282 338
#     4  10  21  36  58  86 109 143 193 239 282 332
#     4  11  21  35  58  83 114 150 189 239 289 337
#
# _framework density 17.772604000000001
#
# number of rings (size 3 to 8) (size 9 to 14) (size 15 to 20)
#    0.000    1.333    6.667    0.000    0.000    4.000 
#    0.000    1.667    0.000    4.000    0.000    4.667 
#    0.000    0.000    0.000    0.000    0.000    0.000 
#
# Total GULP energy -267673.942666 kJ/mol
# GULP energy per Si atom -5576.540472 kJ/mol
# Density = 1.773215 g / cm^3
# Si number density = 17.772604 Si / 1000 Ang^3
#
#
#
# Elastic Constant Matrix: (Units=GPa)
#
#
# Indices 1 2 3 4 5 6 
#
# 1 69.9507 24.4246 23.7627 0.0000 0.0000 0.0000
# 2 24.4246 69.9506 23.7629 0.0000 0.0000 0.0000
# 3 23.7627 23.7629 82.4575 0.0000 0.0000 0.0000
# 4 0.0000 0.0000 0.0000 14.7231 0.0000 0.0000
# 5 0.0000 0.0000 0.0000 0.0000 14.7233 0.0000
# 6 0.0000 0.0000 0.0000 0.0000 0.0000 17.0516
#
#
#
# Elastic Compliance Matrix: (Units=1/GPa)
#
#
# Indices 1 2 3 4 5 6 
#
# 1 0.017180 -0.004785 -0.003572 0.000000 0.000000 0.000000
# 2 -0.004785 0.017180 -0.003572 0.000000 0.000000 0.000000
# 3 -0.003572 -0.003572 0.014186 0.000000 0.000000 0.000000
# 4 0.000000 0.000000 0.000000 0.067921 0.000000 0.000000
# 5 0.000000 0.000000 0.000000 0.000000 0.067919 0.000000
# 6 0.000000 0.000000 0.000000 0.000000 0.000000 0.058645
#
#
# Mechanical properties :
#
#
# Convention : Reuss Voigt Hill
#
# Bulk Modulus (GPa) = 40.50565 40.69549 40.60057
# Shear Modulus (GPa) = 18.17391 19.32684 18.75037
#
# Velocity S-wave (km/s) = 3.20125 3.30123 3.25162
# Velocity P-wave (km/s) = 6.04190 6.12196 6.08206
#
# Compressibility (1/GPa) = 0.02468792
#
# Stress axis : x y z
#
# Youngs Moduli (GPa) = 58.20688 58.20670 70.49101
#
# Poissons Ratio (x) = 0.27854 0.25179
# Poissons Ratio (y) = 0.27854 0.25179
# Poissons Ratio (z) = 0.20791 0.20791
#
# Static dielectric constant tensor:
#      x y z
#    x 1.614740 0.000000 0.000000 
#    y 0.000000 1.614740 0.000000 
#    z 0.000000 0.000000 1.628160 
# 
# From -- ./inp_files/6605.got.cif
#   From: 2010.05.17/outbox.cif.g08.bks.cpg/sg119_4_cif.got.tgz:6605.got - 2010.05.20 11:21:29.
