data_PCOD9559133
_publ_section_title
;
Structure prediction by ZEFSAII (Michael W. Deem and Ramdas Pophale) SiO2 
 PCOD9559133
Probable space group: I -4 M 2
;
_chemical_formula_sum "Si O2"
_cell_formula_units_Z 96
_cell_length_a 15.148473
_cell_length_b 15.148473
_cell_length_c 20.037370
_cell_angle_alpha 90.000000
_cell_angle_beta 90.000000
_cell_angle_gamma 90.000000
_cell_volume 4598.100212
_symmetry_space_group_name_H-M "I -4 M 2"
_symmetry_group_IT_number 119
_symmetry_cell_setting 'tetragonal'
loop_
_space_group_symop_operation_xyz
x,y,z
y,-x,-z
-x,-y,z
-y,x,-z
y,x,-z
-y,-x,-z
-x,y,z
x,-y,z
1/2+x,1/2+y,1/2+z
1/2+y,1/2-x,1/2-z
1/2-x,1/2-y,1/2+z
1/2-y,1/2+x,1/2-z
1/2+y,1/2+x,1/2-z
1/2-y,1/2-x,1/2-z
1/2-x,1/2+y,1/2+z
1/2+x,1/2-y,1/2+z
loop_
_atom_site_type_symbol
_atom_site_label
_atom_site_fract_x
_atom_site_fract_y
_atom_site_fract_z
Si Si1 0.280863 0.607103 0.682863
Si Si2 0.895969 0.104023 0.689107
Si Si3 0.904627 0.835653 0.064611
Si Si4 0.904681 0.605209 0.639250
Si Si5 0.793516 0.900107 0.553500
Si Si6 0.134011 0.399800 0.481627
O O1 0.281375 0.500000 0.676864
O O2 0.334541 0.629485 0.749087
O O3 0.330521 0.644846 0.618364
O O4 0.180171 0.638735 0.677837
O O5 0.836926 0.121671 0.624386
O O6 0.000000 0.118214 0.673764
O O7 0.886049 0.000000 0.706376
O O8 0.898559 0.737858 0.033951
O O9 0.000000 0.847279 0.097416
O O10 0.896487 0.896487 0.000000
O O11 0.909446 0.500000 0.652249
O O12 0.887771 0.613709 0.559917
O O13 0.000000 0.644810 0.657123
O O14 0.830416 0.830416 0.500000
O O15 0.687249 0.900524 0.555137
O O16 0.822484 0.000000 0.534772
O O17 0.103270 0.500000 0.464520
#
# Coordination Sequence:
#
# PCOD9559133 Si02
#       6
#    16  16  16  16  16  16
#     4  10  19  33  56  88 127 168 208 256 317 384
#     4   9  19  37  60  90 130 170 207 254 319 386
#     4  11  20  31  51  84 126 166 208 257 310 372
#     4   9  17  31  54  85 123 167 209 249 301 369
#     4  11  23  39  65  96 126 164 214 266 319 378
#     4  10  21  38  59  88 127 166 208 262 317 368
#
# _framework density 20.878188999999999
#
# number of rings (size 3 to 8) (size 9 to 14) (size 15 to 20)
#    0.000    2.000    1.667    2.500    0.000    3.667 
#    0.000    0.833    0.000    1.000    0.000    3.500 
#    0.000   10.667    0.000    0.000    0.000    0.000 
#
# Total GULP energy -268240.485046 kJ/mol
# GULP energy per Si atom -5588.343438 kJ/mol
# Density = 2.083067 g / cm^3
# Si number density = 20.878189 Si / 1000 Ang^3
#
#
#
# Elastic Constant Matrix: (Units=GPa)
#
#
# Indices 1 2 3 4 5 6 
#
# 1 116.4178 46.6966 69.6256 0.0000 0.0000 0.0000
# 2 46.6966 116.4178 69.6256 0.0000 0.0000 0.0000
# 3 69.6256 69.6256 108.9729 0.0000 0.0000 0.0000
# 4 0.0000 0.0000 0.0000 21.8605 0.0000 0.0000
# 5 0.0000 0.0000 0.0000 0.0000 21.8605 0.0000
# 6 0.0000 0.0000 0.0000 0.0000 0.0000 18.8059
#
#
#
# Elastic Compliance Matrix: (Units=1/GPa)
#
#
# Indices 1 2 3 4 5 6 
#
# 1 0.013915 -0.000428 -0.008617 0.000000 0.000000 0.000000
# 2 -0.000428 0.013915 -0.008617 0.000000 0.000000 0.000000
# 3 -0.008617 -0.008617 0.020188 0.000000 0.000000 0.000000
# 4 0.000000 0.000000 0.000000 0.045745 0.000000 0.000000
# 5 0.000000 0.000000 0.000000 0.000000 0.045745 0.000000
# 6 0.000000 0.000000 0.000000 0.000000 0.000000 0.053175
#
#
# Mechanical properties :
#
#
# Convention : Reuss Voigt Hill
#
# Bulk Modulus (GPa) = 78.78094 79.30045 79.04070
# Shear Modulus (GPa) = 21.52951 22.89608 22.21280
#
# Velocity S-wave (km/s) = 3.21471 3.31516 3.26532
# Velocity P-wave (km/s) = 7.18294 7.26076 7.22196
#
# Compressibility (1/GPa) = 0.01269343
#
# Stress axis : x y z
#
# Youngs Moduli (GPa) = 71.86420 71.86420 49.53325
#
# Poissons Ratio (x) = 0.03074 0.42685
# Poissons Ratio (y) = 0.03074 0.42685
# Poissons Ratio (z) = 0.61929 0.61929
#
# Static dielectric constant tensor:
#      x y z
#    x 1.801330 0.000000 0.000000 
#    y 0.000000 1.801330 0.000000 
#    z 0.000000 0.000000 1.687510 
# 
# From -- ./inp_files/7787.got.cif
#   From: 2010.05.17/outbox.cif.g08.bks.cpg/sg119_4_cif.got.tgz:7787.got - 2010.05.20 11:21:29.
