data_PCOD9559832
_publ_section_title
;
Structure prediction by ZEFSAII (Michael W. Deem and Ramdas Pophale) SiO2 
 PCOD9559832
Probable space group: I -4 C 2
;
_chemical_formula_sum "Si O2"
_cell_formula_units_Z 108
_cell_length_a 14.925683
_cell_length_b 14.925683
_cell_length_c 23.333598
_cell_angle_alpha 90.000000
_cell_angle_beta 90.000000
_cell_angle_gamma 90.000000
_cell_volume 5198.165932
_symmetry_space_group_name_H-M "I -4 C 2"
_symmetry_group_IT_number 120
_symmetry_cell_setting 'tetragonal'
loop_
_space_group_symop_operation_xyz
x,y,z
y,-x,-z
-x,-y,z
-y,x,-z
y,x,1/2-z
-y,-x,1/2-z
-x,y,1/2+z
x,-y,1/2+z
1/2+x,1/2+y,1/2+z
1/2+y,1/2-x,1/2-z
1/2-x,1/2-y,1/2+z
1/2-y,1/2+x,1/2-z
1/2+y,1/2+x,-z
1/2-y,1/2-x,-z
1/2-x,1/2+y,z
1/2+x,1/2-y,z
loop_
_atom_site_type_symbol
_atom_site_label
_atom_site_fract_x
_atom_site_fract_y
_atom_site_fract_z
Si Si1 0.906847 0.451187 0.395386
Si Si2 0.500000 0.500000 0.000000
Si Si3 0.476660 0.777479 0.518024
Si Si4 0.370209 0.442937 0.397669
Si Si5 0.858253 0.998100 0.271706
Si Si6 0.780388 0.280388 0.000000
Si Si7 0.996125 0.354236 0.729638
Si Si8 0.751744 0.115284 0.076652
O O1 0.868581 0.484873 0.456210
O O2 0.854032 0.478044 0.338310
O O3 0.910352 0.343371 0.397404
O O4 0.000000 0.500000 0.387734
O O5 0.575425 0.473273 0.954100
O O6 0.449542 0.728057 0.576283
O O7 0.384589 0.774019 0.482996
O O8 0.553633 0.735527 0.479476
O O9 0.373961 0.499867 0.340566
O O10 0.395547 0.339915 0.385201
O O11 0.915867 0.084134 0.250000
O O12 0.752234 0.001518 0.255211
O O13 0.909196 0.909196 0.250000
O O14 0.716098 0.252527 0.947993
O O15 0.086012 0.413306 0.743864
#
# Coordination Sequence:
#
# PCOD9559832 Si02
#       8
#    16   4  16  16  16   8  16  16
#     4  12  23  42  72  99 135 181 225 291 358 424
#     4  12  20  40  70  96 140 180 224 270 352 436
#     4  11  21  41  62  98 140 176 222 272 344 425
#     4  11  24  41  67  99 136 186 223 287 348 412
#     4  11  26  50  72 104 145 188 252 306 354 431
#     4  10  22  38  58  92 144 178 218 270 330 426
#     4  11  25  49  72 101 138 181 245 309 367 424
#     4  11  23  41  64 103 142 178 227 279 349 435
#
# _framework density 20.776558999999999
#
# number of rings (size 3 to 8) (size 9 to 14) (size 15 to 20)
#    0.000    0.889    5.926    1.778    2.074    1.185 
#    0.000    1.481    0.000    0.000    0.000    0.000 
#    0.000    0.000    0.000    0.000    0.000    0.000 
#
# Total GULP energy -300939.241893 kJ/mol
# GULP energy per Si atom -5572.948924 kJ/mol
# Density = 2.072927 g / cm^3
# Si number density = 20.776559 Si / 1000 Ang^3
#
#
#
# Elastic Constant Matrix: (Units=GPa)
#
#
# Indices 1 2 3 4 5 6 
#
# 1 156.1474 29.9515 36.5794 0.0000 0.0000 0.0000
# 2 29.9515 156.1483 36.5805 0.0000 0.0000 0.0000
# 3 36.5794 36.5805 73.5865 0.0000 0.0000 0.0000
# 4 0.0000 0.0000 0.0000 16.7277 0.0000 0.0000
# 5 0.0000 0.0000 0.0000 0.0000 16.7252 0.0000
# 6 0.0000 0.0000 0.0000 0.0000 0.0000 18.9982
#
#
#
# Elastic Compliance Matrix: (Units=1/GPa)
#
#
# Indices 1 2 3 4 5 6 
#
# 1 0.007301 -0.000623 -0.003320 0.000000 0.000000 0.000000
# 2 -0.000623 0.007301 -0.003320 0.000000 0.000000 0.000000
# 3 -0.003320 -0.003320 0.016890 0.000000 0.000000 0.000000
# 4 0.000000 0.000000 0.000000 0.059781 0.000000 0.000000
# 5 0.000000 0.000000 0.000000 0.000000 0.059790 0.000000
# 6 0.000000 0.000000 0.000000 0.000000 0.000000 0.052636
#
#
# Mechanical properties :
#
#
# Convention : Reuss Voigt Hill
#
# Bulk Modulus (GPa) = 58.93588 65.78945 62.36267
# Shear Modulus (GPa) = 22.33323 29.34162 25.83742
#
# Velocity S-wave (km/s) = 3.28216 3.76206 3.53028
# Velocity P-wave (km/s) = 6.54152 7.11371 6.83361
#
# Compressibility (1/GPa) = 0.01696759
#
# Stress axis : x y z
#
# Youngs Moduli (GPa) = 136.96029 136.96013 59.20606
#
# Poissons Ratio (x) = 0.08529 0.19656
# Poissons Ratio (y) = 0.08529 0.19656
# Poissons Ratio (z) = 0.45469 0.45471
#
# Static dielectric constant tensor:
#      x y z
#    x 1.934240 0.000000 0.000000 
#    y 0.000000 1.934210 0.000000 
#    z 0.000000 0.000000 1.730030 
# 
# From -- ./inp_files/5969.got.cif
#   From: 2010.05.17/outbox.cif.g08.bks.cpg/sg120_3_cif.got.tgz:5969.got - 2010.05.20 11:28:13.
