data_PCOD9559142
_publ_section_title
;
Structure prediction by ZEFSAII (Michael W. Deem and Ramdas Pophale) SiO2 
 PCOD9559142
Probable space group: I -4 M 2
;
_chemical_formula_sum "Si O2"
_cell_formula_units_Z 88
_cell_length_a 15.403583
_cell_length_b 15.403583
_cell_length_c 22.996927
_cell_angle_alpha 90.000000
_cell_angle_beta 90.000000
_cell_angle_gamma 90.000000
_cell_volume 5456.489361
_symmetry_space_group_name_H-M "I -4 M 2"
_symmetry_group_IT_number 119
_symmetry_cell_setting 'tetragonal'
loop_
_space_group_symop_operation_xyz
x,y,z
y,-x,-z
-x,-y,z
-y,x,-z
y,x,-z
-y,-x,-z
-x,y,z
x,-y,z
1/2+x,1/2+y,1/2+z
1/2+y,1/2-x,1/2-z
1/2-x,1/2-y,1/2+z
1/2-y,1/2+x,1/2-z
1/2+y,1/2+x,1/2-z
1/2-y,1/2-x,1/2-z
1/2-x,1/2+y,1/2+z
1/2+x,1/2-y,1/2+z
loop_
_atom_site_type_symbol
_atom_site_label
_atom_site_fract_x
_atom_site_fract_y
_atom_site_fract_z
Si Si1 0.681193 0.845973 0.349311
Si Si2 0.098189 0.259228 0.263809
Si Si3 0.102856 0.500000 0.925441
Si Si4 0.901081 0.000000 0.415504
Si Si5 0.636236 0.307756 0.888868
Si Si6 0.743859 0.500000 0.015481
Si Si7 0.212449 0.901934 0.234457
O O1 0.759269 0.804916 0.387636
O O2 0.730678 0.888545 0.293510
O O3 0.619537 0.774713 0.319946
O O4 0.630678 0.916789 0.386790
O O5 0.161632 0.338369 0.250000
O O6 0.102523 0.242839 0.332833
O O7 0.139535 0.172117 0.236598
O O8 0.000000 0.273715 0.244988
O O9 0.000000 0.500000 0.937066
O O10 0.164242 0.500000 0.982547
O O11 0.886700 0.089918 0.381928
O O12 0.830835 0.000000 0.466603
O O13 0.000000 0.000000 0.435833
O O14 0.584731 0.273039 0.944702
O O15 0.180079 0.000000 0.232651
#
# Coordination Sequence:
#
# PCOD9559142 Si02
#       7
#    16  16   8   8  16   8  16
#     4  10  19  35  53  76 112 148 186 223 275 342
#     4  11  22  39  58  81 112 148 192 237 281 332
#     4  12  24  36  52  80 114 156 196 230 268 334
#     4  12  22  30  54  90 116 148 180 214 288 368
#     4  11  21  35  52  79 112 144 183 233 282 336
#     4  12  24  34  54  78 120 146 190 228 290 334
#     4  10  19  34  57  83 111 147 177 231 292 338
#
# _framework density 16.127586999999998
#
# number of rings (size 3 to 8) (size 9 to 14) (size 15 to 20)
#    0.000    1.091    8.182    1.091    5.091    0.545 
#    0.000    0.909    0.000    0.000    0.000    0.000 
#    0.000    0.000    0.000    0.000    0.000    0.000 
#
# Total GULP energy -245535.391411 kJ/mol
# GULP energy per Si atom -5580.349805 kJ/mol
# Density = 1.609088 g / cm^3
# Si number density = 16.127587 Si / 1000 Ang^3
#
#
#
# Elastic Constant Matrix: (Units=GPa)
#
#
# Indices 1 2 3 4 5 6 
#
# 1 130.3965 53.3218 39.7265 0.0000 0.0000 0.0000
# 2 53.3218 130.3967 39.7263 0.0000 0.0000 0.0000
# 3 39.7265 39.7263 63.9093 0.0000 0.0000 0.0000
# 4 0.0000 0.0000 0.0000 24.7486 0.0000 0.0000
# 5 0.0000 0.0000 0.0000 0.0000 24.7490 0.0000
# 6 0.0000 0.0000 0.0000 0.0000 0.0000 7.6522
#
#
#
# Elastic Compliance Matrix: (Units=1/GPa)
#
#
# Indices 1 2 3 4 5 6 
#
# 1 0.010209 -0.002765 -0.004627 0.000000 0.000000 0.000000
# 2 -0.002765 0.010209 -0.004627 0.000000 0.000000 0.000000
# 3 -0.004627 -0.004627 0.021400 0.000000 0.000000 0.000000
# 4 0.000000 0.000000 0.000000 0.040406 0.000000 0.000000
# 5 0.000000 0.000000 0.000000 0.000000 0.040406 0.000000
# 6 0.000000 0.000000 0.000000 0.000000 0.000000 0.130682
#
#
# Mechanical properties :
#
#
# Convention : Reuss Voigt Hill
#
# Bulk Modulus (GPa) = 56.24621 65.58350 60.91485
# Shear Modulus (GPa) = 17.65048 24.22517 20.93783
#
# Velocity S-wave (km/s) = 3.31180 3.87989 3.60705
# Velocity P-wave (km/s) = 7.04099 7.79905 7.42969
#
# Compressibility (1/GPa) = 0.01777897
#
# Stress axis : x y z
#
# Youngs Moduli (GPa) = 97.94896 97.94940 46.72884
#
# Poissons Ratio (x) = 0.27083 0.21624
# Poissons Ratio (y) = 0.27083 0.21623
# Poissons Ratio (z) = 0.45326 0.45325
#
# Static dielectric constant tensor:
#      x y z
#    x 1.551210 0.000000 0.000000 
#    y 0.000000 1.551210 0.000000 
#    z 0.000000 0.000000 1.550730 
# 
# From -- ./inp_files/8728.got.cif
#   From: 2010.05.17/outbox.cif.g08.bks.cpg/sg119_5_cif.got.tgz:8728.got - 2010.05.20 11:21:29.
