data_PCOD9559351
_publ_section_title
;
Structure prediction by ZEFSAII (Michael W. Deem and Ramdas Pophale) SiO2 
 PCOD9559351
Probable space group: I -4 M 2
;
_chemical_formula_sum "Si O2"
_cell_formula_units_Z 88
_cell_length_a 14.387785
_cell_length_b 14.387785
_cell_length_c 20.941129
_cell_angle_alpha 90.000000
_cell_angle_beta 90.000000
_cell_angle_gamma 90.000000
_cell_volume 4334.988712
_symmetry_space_group_name_H-M "I -4 M 2"
_symmetry_group_IT_number 119
_symmetry_cell_setting 'tetragonal'
loop_
_space_group_symop_operation_xyz
x,y,z
y,-x,-z
-x,-y,z
-y,x,-z
y,x,-z
-y,-x,-z
-x,y,z
x,-y,z
1/2+x,1/2+y,1/2+z
1/2+y,1/2-x,1/2-z
1/2-x,1/2-y,1/2+z
1/2-y,1/2+x,1/2-z
1/2+y,1/2+x,1/2-z
1/2-y,1/2-x,1/2-z
1/2-x,1/2+y,1/2+z
1/2+x,1/2-y,1/2+z
loop_
_atom_site_type_symbol
_atom_site_label
_atom_site_fract_x
_atom_site_fract_y
_atom_site_fract_z
Si Si1 0.606507 0.609878 0.692114
Si Si2 0.157555 0.711008 0.861396
Si Si3 0.350693 0.609335 0.842461
Si Si4 0.761327 0.392371 0.496292
Si Si5 0.098072 0.401929 0.750000
Si Si6 0.765884 0.104371 0.543925
O O1 0.500000 0.632813 0.677545
O O2 0.620792 0.500000 0.676286
O O3 0.679890 0.671221 0.653049
O O4 0.622709 0.620048 0.768236
O O5 0.245807 0.644203 0.854137
O O6 0.099155 0.679400 0.800409
O O7 0.113421 0.701341 0.930545
O O8 0.363713 0.500000 0.858591
O O9 0.402194 0.681098 0.888724
O O10 0.663258 0.336743 0.500000
O O11 0.754095 0.500000 0.477117
O O12 0.832773 0.327163 0.456564
O O13 0.102051 0.500000 0.785890
O O14 0.838142 0.161859 0.500000
O O15 0.748100 0.000000 0.519908
#
# Coordination Sequence:
#
# PCOD9559351 Si02
#       6
#    16  16  16  16   8  16
#     4  10  21  36  58  89 121 155 197 249 309 366
#     4  12  21  38  60  86 121 161 201 258 306 368
#     4  11  21  38  63  91 125 160 199 253 315 375
#     4  11  25  44  63  88 122 165 216 264 308 362
#     4  11  22  34  56  90 124 158 189 230 308 392
#     4  11  23  40  62  91 124 161 202 249 307 372
#
# _framework density 20.299937
#
# number of rings (size 3 to 8) (size 9 to 14) (size 15 to 20)
#    0.000    1.000    5.455    3.273    0.000    4.000 
#    0.000    0.000    0.000    0.000    0.000    0.000 
#    0.000    1.455    0.000    0.000    0.000    0.000 
#
# Total GULP energy -245494.717369 kJ/mol
# GULP energy per Si atom -5579.425395 kJ/mol
# Density = 2.025373 g / cm^3
# Si number density = 20.299937 Si / 1000 Ang^3
#
#
#
# Elastic Constant Matrix: (Units=GPa)
#
#
# Indices 1 2 3 4 5 6 
#
# 1 142.3536 44.6328 17.7858 0.0000 0.0000 0.0000
# 2 44.6328 142.3539 17.7859 0.0000 0.0000 0.0000
# 3 17.7858 17.7859 64.9828 0.0000 0.0000 0.0000
# 4 0.0000 0.0000 0.0000 11.2341 0.0000 0.0000
# 5 0.0000 0.0000 0.0000 0.0000 11.2354 0.0000
# 6 0.0000 0.0000 0.0000 0.0000 0.0000 14.9048
#
#
#
# Elastic Compliance Matrix: (Units=1/GPa)
#
#
# Indices 1 2 3 4 5 6 
#
# 1 0.007937 -0.002296 -0.001544 0.000000 0.000000 0.000000
# 2 -0.002296 0.007937 -0.001544 0.000000 0.000000 0.000000
# 3 -0.001544 -0.001544 0.016234 0.000000 0.000000 0.000000
# 4 0.000000 0.000000 0.000000 0.089015 0.000000 0.000000
# 5 0.000000 0.000000 0.000000 0.000000 0.089005 0.000000
# 6 0.000000 0.000000 0.000000 0.000000 0.000000 0.067092
#
#
# Mechanical properties :
#
#
# Convention : Reuss Voigt Hill
#
# Bulk Modulus (GPa) = 46.85851 56.67770 51.76811
# Shear Modulus (GPa) = 16.94328 25.44058 21.19193
#
# Velocity S-wave (km/s) = 2.89216 3.54395 3.23451
# Velocity P-wave (km/s) = 5.85542 6.68781 6.28541
#
# Compressibility (1/GPa) = 0.02134084
#
# Stress axis : x y z
#
# Youngs Moduli (GPa) = 125.98456 125.98478 61.59923
#
# Poissons Ratio (x) = 0.28923 0.09512
# Poissons Ratio (y) = 0.28923 0.09512
# Poissons Ratio (z) = 0.19454 0.19454
#
# Static dielectric constant tensor:
#      x y z
#    x 1.781850 0.000000 0.000000 
#    y 0.000000 1.781850 0.000000 
#    z 0.000000 0.000000 1.758830 
# 
# From -- ./inp_files/7711.got.cif
#   From: 2010.05.17/outbox.cif.g08.bks.cpg/sg119_4_cif.got.tgz:7711.got - 2010.05.20 11:21:29.
