data_PCOD9559859
_publ_section_title
;
Structure prediction by ZEFSAII (Michael W. Deem and Ramdas Pophale) SiO2 
 PCOD9559859
Probable space group: I -4 C 2
;
_chemical_formula_sum "Si O2"
_cell_formula_units_Z 100
_cell_length_a 15.216586
_cell_length_b 15.216586
_cell_length_c 22.194943
_cell_angle_alpha 90.000000
_cell_angle_beta 90.000000
_cell_angle_gamma 90.000000
_cell_volume 5139.116746
_symmetry_space_group_name_H-M "I -4 C 2"
_symmetry_group_IT_number 120
_symmetry_cell_setting 'tetragonal'
loop_
_space_group_symop_operation_xyz
x,y,z
y,-x,-z
-x,-y,z
-y,x,-z
y,x,1/2-z
-y,-x,1/2-z
-x,y,1/2+z
x,-y,1/2+z
1/2+x,1/2+y,1/2+z
1/2+y,1/2-x,1/2-z
1/2-x,1/2-y,1/2+z
1/2-y,1/2+x,1/2-z
1/2+y,1/2+x,-z
1/2-y,1/2-x,-z
1/2-x,1/2+y,z
1/2+x,1/2-y,z
loop_
_atom_site_type_symbol
_atom_site_label
_atom_site_fract_x
_atom_site_fract_y
_atom_site_fract_z
Si Si1 0.393913 0.095382 0.255737
Si Si2 0.931439 0.183167 0.525897
Si Si3 0.751215 0.860146 0.348395
Si Si4 0.400320 0.400320 0.250000
Si Si5 0.347631 0.246976 0.161601
Si Si6 0.399073 0.600928 0.250000
Si Si7 0.000000 0.000000 0.000000
Si Si8 0.384466 0.747220 0.526484
O O1 0.496126 0.113825 0.267976
O O2 0.335084 0.103970 0.315181
O O3 0.361454 0.165145 0.206344
O O4 0.899319 0.229095 0.586578
O O5 0.968525 0.084345 0.537843
O O6 0.844936 0.167320 0.485222
O O7 0.016866 0.234184 0.500155
O O8 0.743934 0.755320 0.351792
O O9 0.831776 0.881501 0.303747
O O10 0.380983 0.332292 0.196874
O O11 0.388198 0.500450 0.229375
O O12 0.394682 0.238040 0.097742
O O13 0.326212 0.826212 0.500000
#
# Coordination Sequence:
#
# PCOD9559859 Si02
#       8
#    16  16  16   8  16   8   4  16
#     4  11  23  41  63  91 125 169 209 249 303 367
#     4  10  22  41  66  91 128 161 208 259 310 379
#     4  12  22  39  64  90 127 166 207 254 311 369
#     4  11  23  38  60  94 127 159 196 260 322 369
#     4  12  23  41  65  92 127 163 206 256 314 368
#     4  11  23  36  60  94 127 161 202 252 318 377
#     4   8  20  40  64  94 120 164 200 256 328 366
#     4  11  23  43  64  93 122 167 210 256 316 367
#
# _framework density 19.458596
#
# number of rings (size 3 to 8) (size 9 to 14) (size 15 to 20)
#    0.000    0.960    4.800    2.880    0.000    5.120 
#    2.880    0.000    0.000    0.480    0.000    0.000 
#    0.000    0.000    0.000    0.000    0.000    0.000 
#
# Total GULP energy -279346.002909 kJ/mol
# GULP energy per Si atom -5586.920058 kJ/mol
# Density = 1.941431 g / cm^3
# Si number density = 19.458596 Si / 1000 Ang^3
#
#
#
# Elastic Constant Matrix: (Units=GPa)
#
#
# Indices 1 2 3 4 5 6 
#
# 1 102.9807 48.2416 17.9275 0.0000 0.0000 0.0000
# 2 48.2416 102.9818 17.9283 0.0000 0.0000 0.0000
# 3 17.9275 17.9283 64.5663 0.0000 0.0000 0.0000
# 4 0.0000 0.0000 0.0000 9.0111 0.0000 0.0000
# 5 0.0000 0.0000 0.0000 0.0000 9.0096 0.0000
# 6 0.0000 0.0000 0.0000 0.0000 0.0000 32.2912
#
#
#
# Elastic Compliance Matrix: (Units=1/GPa)
#
#
# Indices 1 2 3 4 5 6 
#
# 1 0.012674 -0.005595 -0.001965 0.000000 0.000000 0.000000
# 2 -0.005595 0.012674 -0.001966 0.000000 0.000000 0.000000
# 3 -0.001965 -0.001966 0.016579 0.000000 0.000000 0.000000
# 4 0.000000 0.000000 0.000000 0.110975 0.000000 0.000000
# 5 0.000000 0.000000 0.000000 0.000000 0.110993 0.000000
# 6 0.000000 0.000000 0.000000 0.000000 0.000000 0.030968
#
#
# Mechanical properties :
#
#
# Convention : Reuss Voigt Hill
#
# Bulk Modulus (GPa) = 43.71603 48.74707 46.23155
# Shear Modulus (GPa) = 15.55023 22.49113 19.02068
#
# Velocity S-wave (km/s) = 2.82998 3.40346 3.12988
# Velocity P-wave (km/s) = 5.76137 6.36795 6.07224
#
# Compressibility (1/GPa) = 0.02287491
#
# Stress axis : x y z
#
# Youngs Moduli (GPa) = 78.90422 78.90478 60.31549
#
# Poissons Ratio (x) = 0.44145 0.11855
# Poissons Ratio (y) = 0.44145 0.11856
# Poissons Ratio (z) = 0.15508 0.15510
#
# Static dielectric constant tensor:
#      x y z
#    x 1.702060 0.000000 0.000000 
#    y 0.000000 1.702060 0.000000 
#    z 0.000000 0.000000 1.648760 
# 
# From -- ./inp_files/5888.got.cif
#   From: 2010.05.17/outbox.cif.g08.bks.cpg/sg120_3_cif.got.tgz:5888.got - 2010.05.20 11:28:13.
