data_PCOD9559810
_publ_section_title
;
Structure prediction by ZEFSAII (Michael W. Deem and Ramdas Pophale) SiO2 
 PCOD9559810
Probable space group: I -4 C 2
;
_chemical_formula_sum "Si O2"
_cell_formula_units_Z 80
_cell_length_a 17.026199
_cell_length_b 17.026199
_cell_length_c 13.457504
_cell_angle_alpha 90.000000
_cell_angle_beta 90.000000
_cell_angle_gamma 90.000000
_cell_volume 3901.215380
_symmetry_space_group_name_H-M "I -4 C 2"
_symmetry_group_IT_number 120
_symmetry_cell_setting 'tetragonal'
loop_
_space_group_symop_operation_xyz
x,y,z
y,-x,-z
-x,-y,z
-y,x,-z
y,x,1/2-z
-y,-x,1/2-z
-x,y,1/2+z
x,-y,1/2+z
1/2+x,1/2+y,1/2+z
1/2+y,1/2-x,1/2-z
1/2-x,1/2-y,1/2+z
1/2-y,1/2+x,1/2-z
1/2+y,1/2+x,-z
1/2-y,1/2-x,-z
1/2-x,1/2+y,z
1/2+x,1/2-y,z
loop_
_atom_site_type_symbol
_atom_site_label
_atom_site_fract_x
_atom_site_fract_y
_atom_site_fract_z
Si Si1 0.496351 0.625624 0.281335
Si Si2 0.607453 0.783983 0.569613
Si Si3 0.326364 0.202867 0.785067
Si Si4 0.669941 0.609507 0.558789
Si Si5 0.254312 0.947662 0.371300
O O1 0.563295 0.563295 0.250000
O O2 0.413305 0.586695 0.250000
O O3 0.473382 0.637993 0.396489
O O4 0.516231 0.703509 0.219664
O O5 0.664951 0.835050 0.500000
O O6 0.627183 0.803591 0.683212
O O7 0.619923 0.689976 0.557313
O O8 0.514531 0.796590 0.563506
O O9 0.245455 0.245455 0.750000
O O10 0.367016 0.258412 0.867056
O O11 0.310859 0.118278 0.829628
O O12 0.695490 0.594907 0.446820
#
# Coordination Sequence:
#
# PCOD9559810 Si02
#       5
#    16  16  16  16  16
#     4  11  23  39  59  95 141 177 209 273 351 412
#     4  11  24  41  66  97 132 175 228 284 332 408
#     4  10  21  43  66  90 125 175 229 272 328 404
#     4  11  22  43  63  93 135 179 226 273 335 410
#     4  12  24  38  68  97 128 175 225 285 339 404
#
# _framework density 20.506430000000002
#
# number of rings (size 3 to 8) (size 9 to 14) (size 15 to 20)
#    0.000    1.000    4.000    4.200    5.600    0.000 
#    0.000    2.000    0.000    7.800    0.000    0.000 
#    0.000    0.000    0.000    0.000    0.000    0.000 
#
# Total GULP energy -223153.716857 kJ/mol
# GULP energy per Si atom -5578.842921 kJ/mol
# Density = 2.045976 g / cm^3
# Si number density = 20.506430 Si / 1000 Ang^3
#
#
#
# Elastic Constant Matrix: (Units=GPa)
#
#
# Indices 1 2 3 4 5 6 
#
# 1 79.8268 36.2212 11.3389 0.0000 0.0000 0.0000
# 2 36.2212 79.8261 11.3361 0.0000 0.0000 0.0000
# 3 11.3389 11.3361 51.1849 0.0000 0.0000 0.0000
# 4 0.0000 0.0000 0.0000 28.0044 0.0000 0.0000
# 5 0.0000 0.0000 0.0000 0.0000 28.0044 0.0000
# 6 0.0000 0.0000 0.0000 0.0000 0.0000 21.0865
#
#
#
# Elastic Compliance Matrix: (Units=1/GPa)
#
#
# Indices 1 2 3 4 5 6 
#
# 1 0.015970 -0.006963 -0.001996 0.000000 0.000000 0.000000
# 2 -0.006963 0.015970 -0.001994 0.000000 0.000000 0.000000
# 3 -0.001996 -0.001994 0.020421 0.000000 0.000000 0.000000
# 4 0.000000 0.000000 0.000000 0.035709 0.000000 0.000000
# 5 0.000000 0.000000 0.000000 0.000000 0.035709 0.000000
# 6 0.000000 0.000000 0.000000 0.000000 0.000000 0.047424
#
#
# Mechanical properties :
#
#
# Convention : Reuss Voigt Hill
#
# Bulk Modulus (GPa) = 32.83581 36.51447 34.67514
# Shear Modulus (GPa) = 24.59910 25.54852 25.07381
#
# Velocity S-wave (km/s) = 3.46725 3.53353 3.50055
# Velocity P-wave (km/s) = 5.66360 5.87306 5.76928
#
# Compressibility (1/GPa) = 0.03045455
#
# Stress axis : x y z
#
# Youngs Moduli (GPa) = 62.61724 62.61774 48.96966
#
# Poissons Ratio (x) = 0.43601 0.09773
# Poissons Ratio (y) = 0.43600 0.09766
# Poissons Ratio (z) = 0.12497 0.12488
#
# Static dielectric constant tensor:
#      x y z
#    x 1.763210 0.000000 0.000000 
#    y 0.000000 1.763220 0.000000 
#    z 0.000000 0.000000 1.790540 
# 
# From -- ./inp_files/3435.got.cif
#   From: 2010.05.17/outbox.cif.g08.bks.cpg/sg120_2_cif.got.tgz:3435.got - 2010.05.20 11:28:13.
