data_PCOD9559763
_publ_section_title
;
Structure prediction by ZEFSAII (Michael W. Deem and Ramdas Pophale) SiO2 
 PCOD9559763
Probable space group: I -4 C 2
;
_chemical_formula_sum "Si O2"
_cell_formula_units_Z 80
_cell_length_a 12.783009
_cell_length_b 12.783009
_cell_length_c 27.624817
_cell_angle_alpha 90.000000
_cell_angle_beta 90.000000
_cell_angle_gamma 90.000000
_cell_volume 4514.042037
_symmetry_space_group_name_H-M "I -4 C 2"
_symmetry_group_IT_number 120
_symmetry_cell_setting 'tetragonal'
loop_
_space_group_symop_operation_xyz
x,y,z
y,-x,-z
-x,-y,z
-y,x,-z
y,x,1/2-z
-y,-x,1/2-z
-x,y,1/2+z
x,-y,1/2+z
1/2+x,1/2+y,1/2+z
1/2+y,1/2-x,1/2-z
1/2-x,1/2-y,1/2+z
1/2-y,1/2+x,1/2-z
1/2+y,1/2+x,-z
1/2-y,1/2-x,-z
1/2-x,1/2+y,z
1/2+x,1/2-y,z
loop_
_atom_site_type_symbol
_atom_site_label
_atom_site_fract_x
_atom_site_fract_y
_atom_site_fract_z
Si Si1 0.636898 0.391761 0.944757
Si Si2 0.217709 0.280554 0.368946
Si Si3 0.780383 0.644518 0.218406
Si Si4 0.387059 0.633904 0.446785
Si Si5 0.884799 0.444923 0.195022
O O1 0.693053 0.333759 0.901205
O O2 0.654193 0.515950 0.940772
O O3 0.512612 0.372706 0.943918
O O4 0.671809 0.359584 0.998933
O O5 0.269039 0.218289 0.323785
O O6 0.156464 0.205177 0.404754
O O7 0.138639 0.366999 0.347330
O O8 0.678614 0.678614 0.250000
O O9 0.793301 0.532078 0.193343
O O10 0.877548 0.637173 0.256079
O O11 0.000000 0.500000 0.193103
#
# Coordination Sequence:
#
# PCOD9559763 Si02
#       5
#    16  16  16  16  16
#     4   9  19  37  57  80 115 159 177 231 288 332
#     4  11  22  32  60  90 107 142 204 232 264 343
#     4  10  21  35  56  78 107 150 188 224 284 335
#     4   9  19  37  57  79 119 150 187 227 288 330
#     4  11  21  39  57  77 117 152 178 234 298 330
#
# _framework density 17.722477000000001
#
# number of rings (size 3 to 8) (size 9 to 14) (size 15 to 20)
#    0.000    2.000    2.000    3.000    2.800    0.000 
#    0.000    0.000    0.000    5.400    0.000    0.000 
#    0.000    0.000    0.000    0.000    0.000    0.000 
#
# Total GULP energy -222727.776248 kJ/mol
# GULP energy per Si atom -5568.194406 kJ/mol
# Density = 1.768214 g / cm^3
# Si number density = 17.722477 Si / 1000 Ang^3
#
#
#
# Elastic Constant Matrix: (Units=GPa)
#
#
# Indices 1 2 3 4 5 6 
#
# 1 51.7385 26.7379 28.8552 0.0000 0.0000 0.0000
# 2 26.7379 51.7385 28.8552 0.0000 0.0000 0.0000
# 3 28.8552 28.8552 106.3506 0.0000 0.0000 0.0000
# 4 0.0000 0.0000 0.0000 24.0398 0.0000 0.0000
# 5 0.0000 0.0000 0.0000 0.0000 24.0398 0.0000
# 6 0.0000 0.0000 0.0000 0.0000 0.0000 30.2640
#
#
#
# Elastic Compliance Matrix: (Units=1/GPa)
#
#
# Indices 1 2 3 4 5 6 
#
# 1 0.027959 -0.012040 -0.004319 0.000000 0.000000 0.000000
# 2 -0.012040 0.027959 -0.004319 0.000000 0.000000 0.000000
# 3 -0.004319 -0.004319 0.011747 0.000000 0.000000 0.000000
# 4 0.000000 0.000000 0.000000 0.041598 0.000000 0.000000
# 5 0.000000 0.000000 0.000000 0.000000 0.041598 0.000000
# 6 0.000000 0.000000 0.000000 0.000000 0.000000 0.033043
#
#
# Mechanical properties :
#
#
# Convention : Reuss Voigt Hill
#
# Bulk Modulus (GPa) = 38.01143 42.08048 40.04596
# Shear Modulus (GPa) = 21.36492 24.02734 22.69613
#
# Velocity S-wave (km/s) = 3.47584 3.68605 3.58249
# Velocity P-wave (km/s) = 6.13215 6.47392 6.30535
#
# Compressibility (1/GPa) = 0.02630788
#
# Stress axis : x y z
#
# Youngs Moduli (GPa) = 35.76664 35.76664 85.13086
#
# Poissons Ratio (x) = 0.43063 0.36769
# Poissons Ratio (y) = 0.43063 0.36769
# Poissons Ratio (z) = 0.15448 0.15448
#
# Static dielectric constant tensor:
#      x y z
#    x 1.605320 0.000000 0.000000 
#    y 0.000000 1.605320 0.000000 
#    z 0.000000 0.000000 1.626920 
# 
# From -- ./inp_files/6492.got.cif
#   From: 2010.05.17/outbox.cif.g08.bks.cpg/sg120_4_cif.got.tgz:6492.got - 2010.05.20 11:28:13.
