data_PCOD9559275
_publ_section_title
;
Structure prediction by ZEFSAII (Michael W. Deem and Ramdas Pophale) SiO2 
 PCOD9559275
Probable space group: I -4 M 2
;
_chemical_formula_sum "Si O2"
_cell_formula_units_Z 80
_cell_length_a 16.884636
_cell_length_b 16.884636
_cell_length_c 12.837042
_cell_angle_alpha 90.000000
_cell_angle_beta 90.000000
_cell_angle_gamma 90.000000
_cell_volume 3659.724279
_symmetry_space_group_name_H-M "I -4 M 2"
_symmetry_group_IT_number 119
_symmetry_cell_setting 'tetragonal'
loop_
_space_group_symop_operation_xyz
x,y,z
y,-x,-z
-x,-y,z
-y,x,-z
y,x,-z
-y,-x,-z
-x,y,z
x,-y,z
1/2+x,1/2+y,1/2+z
1/2+y,1/2-x,1/2-z
1/2-x,1/2-y,1/2+z
1/2-y,1/2+x,1/2-z
1/2+y,1/2+x,1/2-z
1/2-y,1/2-x,1/2-z
1/2-x,1/2+y,1/2+z
1/2+x,1/2-y,1/2+z
loop_
_atom_site_type_symbol
_atom_site_label
_atom_site_fract_x
_atom_site_fract_y
_atom_site_fract_z
Si Si1 0.414699 0.093409 0.579294
Si Si2 0.908160 0.845626 0.225537
Si Si3 0.860954 0.860954 0.000000
Si Si4 0.820279 0.320279 0.250000
Si Si5 0.366287 0.192685 0.400233
Si Si6 0.763566 0.087891 0.321735
O O1 0.500000 0.120370 0.623371
O O2 0.347042 0.130703 0.649207
O O3 0.409121 0.122732 0.461270
O O4 0.410921 0.000000 0.584927
O O5 0.849640 0.768526 0.225633
O O6 0.857025 0.901493 0.301369
O O7 0.000000 0.830301 0.253262
O O8 0.905607 0.879146 0.107316
O O9 0.872765 0.768829 0.973404
O O10 0.277216 0.159430 0.384848
O O11 0.403302 0.219597 0.290740
O O12 0.747408 0.000000 0.364358
#
# Coordination Sequence:
#
# PCOD9559275 Si02
#       6
#    16  16   8   8  16  16
#     4  11  22  34  55  88 123 157 193 243 307 363
#     4  11  23  39  62  90 123 162 202 250 304 359
#     4  10  20  36  60  87 114 151 206 242 296 356
#     4  12  22  39  58  86 120 161 198 250 298 366
#     4  10  20  37  61  84 114 155 196 248 293 354
#     4  10  22  39  60  88 119 156 202 249 297 354
#
# _framework density 21.859570999999999
#
# number of rings (size 3 to 8) (size 9 to 14) (size 15 to 20)
#    0.000    1.400    2.000    5.400    0.000    4.400 
#    0.000    0.000    0.000    4.800    0.000    0.000 
#    0.000    0.000    0.000    0.000    0.000    0.000 
#
# Total GULP energy -223247.351306 kJ/mol
# GULP energy per Si atom -5581.183783 kJ/mol
# Density = 2.180982 g / cm^3
# Si number density = 21.859571 Si / 1000 Ang^3
#
#
#
# Elastic Constant Matrix: (Units=GPa)
#
#
# Indices 1 2 3 4 5 6 
#
# 1 77.3240 6.7698 -6.8946 0.0000 0.0000 0.0000
# 2 6.7698 77.3240 -6.8946 0.0000 0.0000 0.0000
# 3 -6.8946 -6.8946 26.8012 0.0000 0.0000 0.0000
# 4 0.0000 0.0000 0.0000 13.2860 0.0000 0.0000
# 5 0.0000 0.0000 0.0000 0.0000 13.2860 0.0000
# 6 0.0000 0.0000 0.0000 0.0000 0.0000 19.9633
#
#
#
# Elastic Compliance Matrix: (Units=1/GPa)
#
#
# Indices 1 2 3 4 5 6 
#
# 1 0.013294 -0.000879 0.003194 0.000000 0.000000 0.000000
# 2 -0.000879 0.013294 0.003194 0.000000 0.000000 0.000000
# 3 0.003194 0.003194 0.038955 0.000000 0.000000 0.000000
# 4 0.000000 0.000000 0.000000 0.075267 0.000000 0.000000
# 5 0.000000 0.000000 0.000000 0.000000 0.075267 0.000000
# 6 0.000000 0.000000 0.000000 0.000000 0.000000 0.050092
#
#
# Mechanical properties :
#
#
# Convention : Reuss Voigt Hill
#
# Bulk Modulus (GPa) = 13.06155 18.60114 15.83135
# Shear Modulus (GPa) = 17.81429 21.87162 19.84295
#
# Velocity S-wave (km/s) = 2.85782 3.16658 3.01615
# Velocity P-wave (km/s) = 4.10824 4.67948 4.40313
#
# Compressibility (1/GPa) = 0.07656057
#
# Stress axis : x y z
#
# Youngs Moduli (GPa) = 75.21993 75.21993 25.67069
#
# Poissons Ratio (x) = 0.06613 -0.08199
# Poissons Ratio (y) = 0.06613 -0.08199
# Poissons Ratio (z) = -0.24024 -0.24024
#
# Static dielectric constant tensor:
#      x y z
#    x 1.844310 0.000000 0.000000 
#    y 0.000000 1.844310 0.000000 
#    z 0.000000 0.000000 1.824230 
# 
# From -- ./inp_files/5314.got.cif
#   From: 2010.05.17/outbox.cif.g08.bks.cpg/sg119_3_cif.got.tgz:5314.got - 2010.05.20 11:21:29.
