data_PCOD9559944
_publ_section_title
;
Structure prediction by ZEFSAII (Michael W. Deem and Ramdas Pophale) SiO2 
 PCOD9559944
Probable space group: I -4 C 2
;
_chemical_formula_sum "Si O2"
_cell_formula_units_Z 28
_cell_length_a 11.030008
_cell_length_b 11.030008
_cell_length_c 7.625969
_cell_angle_alpha 90.000000
_cell_angle_beta 90.000000
_cell_angle_gamma 90.000000
_cell_volume 927.783598
_symmetry_space_group_name_H-M "I -4 C 2"
_symmetry_group_IT_number 120
_symmetry_cell_setting 'tetragonal'
loop_
_space_group_symop_operation_xyz
x,y,z
y,-x,-z
-x,-y,z
-y,x,-z
y,x,1/2-z
-y,-x,1/2-z
-x,y,1/2+z
x,-y,1/2+z
1/2+x,1/2+y,1/2+z
1/2+y,1/2-x,1/2-z
1/2-x,1/2-y,1/2+z
1/2-y,1/2+x,1/2-z
1/2+y,1/2+x,-z
1/2-y,1/2-x,-z
1/2-x,1/2+y,z
1/2+x,1/2-y,z
loop_
_atom_site_type_symbol
_atom_site_label
_atom_site_fract_x
_atom_site_fract_y
_atom_site_fract_z
Si Si1 0.594375 0.749387 0.111170
Si Si2 0.000000 0.500000 0.500000
Si Si3 0.862193 0.137808 0.750000
O O1 0.688520 0.688520 0.250000
O O2 0.482746 0.655981 0.140418
O O3 0.632166 0.738656 0.905235
O O4 0.513352 0.875020 0.110248
#
# Coordination Sequence:
#
# PCOD9559944 Si02
#       3
#    16   4   8
#     4  10  28  46  85 115 165 213 276 342 415 512
#     4   8  24  50  80 118 154 216 284 330 416 530
#     4  12  28  51  78 121 162 222 270 343 428 488
#
# _framework density 30.179452999999999
#
# number of rings (size 3 to 8) (size 9 to 14) (size 15 to 20)
#    1.714    0.000    0.000    0.000   12.000    8.000 
#    0.000    0.000    0.000    0.000    0.000    0.000 
#    0.000    0.000    0.000    0.000    0.000    0.000 
#
# Total GULP energy -78171.144776 kJ/mol
# GULP energy per Si atom -5583.653198 kJ/mol
# Density = 3.011076 g / cm^3
# Si number density = 30.179453 Si / 1000 Ang^3
#
#
#
# Elastic Constant Matrix: (Units=GPa)
#
#
# Indices 1 2 3 4 5 6 
#
# 1 216.2264 84.7915 94.7107 0.0000 0.0000 0.0000
# 2 84.7915 216.2261 94.7118 0.0000 0.0000 0.0000
# 3 94.7107 94.7118 210.7091 0.0000 0.0000 0.0000
# 4 0.0000 0.0000 0.0000 57.2151 0.0000 0.0000
# 5 0.0000 0.0000 0.0000 0.0000 57.2468 0.0000
# 6 0.0000 0.0000 0.0000 0.0000 0.0000 -12.2755
#
#
#
# Elastic Compliance Matrix: (Units=1/GPa)
#
#
# Indices 1 2 3 4 5 6 
#
# 1 0.006120 -0.001488 -0.002082 0.000000 0.000000 0.000000
# 2 -0.001488 0.006120 -0.002082 0.000000 0.000000 0.000000
# 3 -0.002082 -0.002082 0.006618 0.000000 0.000000 0.000000
# 4 0.000000 0.000000 0.000000 0.017478 0.000000 0.000000
# 5 0.000000 0.000000 0.000000 0.000000 0.017468 0.000000
# 6 0.000000 0.000000 0.000000 0.000000 0.000000 -0.081463
#
#
# Mechanical properties :
#
#
# Convention : Reuss Voigt Hill
#
# Bulk Modulus (GPa) = 132.38631 132.39884 132.39257
# Shear Modulus (GPa) = -361.37012 45.03380 -158.16816
#
# Velocity S-wave (km/s) = -10.95447 3.86709 -7.24728
# Velocity P-wave (km/s) = 10.77214 7.99406 5.10558
#
# Compressibility (1/GPa) = 0.00755365
#
# Stress axis : x y z
#
# Youngs Moduli (GPa) = 163.39058 163.38937 151.10980
#
# Poissons Ratio (x) = 0.24312 0.31463
# Poissons Ratio (y) = 0.24313 0.31464
# Poissons Ratio (z) = 0.34020 0.34021
#
# Static dielectric constant tensor:
#      x y z
#    x 2.582520 0.000000 0.000000 
#    y 0.000000 2.582580 0.000000 
#    z 0.000000 0.000000 2.161270 
# 
# From -- ./inp_files/586.got.cif
#   From: 2010.05.17/outbox.cif.g08.bks.cpg/sg120_1_cif.got.tgz:586.got - 2010.05.20 11:28:13.
