data_PCOD9559635
_publ_section_title
;
Structure prediction by ZEFSAII (Michael W. Deem and Ramdas Pophale) SiO2 
 PCOD9559635
Probable space group: I -4 C 2
;
_chemical_formula_sum "Si O2"
_cell_formula_units_Z 96
_cell_length_a 23.211596
_cell_length_b 23.211596
_cell_length_c 9.603415
_cell_angle_alpha 90.000000
_cell_angle_beta 90.000000
_cell_angle_gamma 90.000000
_cell_volume 5174.110541
_symmetry_space_group_name_H-M "I -4 C 2"
_symmetry_group_IT_number 120
_symmetry_cell_setting 'tetragonal'
loop_
_space_group_symop_operation_xyz
x,y,z
y,-x,-z
-x,-y,z
-y,x,-z
y,x,1/2-z
-y,-x,1/2-z
-x,y,1/2+z
x,-y,1/2+z
1/2+x,1/2+y,1/2+z
1/2+y,1/2-x,1/2-z
1/2-x,1/2-y,1/2+z
1/2-y,1/2+x,1/2-z
1/2+y,1/2+x,-z
1/2-y,1/2-x,-z
1/2-x,1/2+y,z
1/2+x,1/2-y,z
loop_
_atom_site_type_symbol
_atom_site_label
_atom_site_fract_x
_atom_site_fract_y
_atom_site_fract_z
Si Si1 0.244749 0.541978 0.237991
Si Si2 0.127782 0.274443 0.014506
Si Si3 0.378701 0.954870 0.401665
Si Si4 0.275702 0.698546 0.902623
Si Si5 0.065502 0.243100 0.573739
Si Si6 0.649456 0.965019 0.620119
O O1 0.236658 0.597205 0.337437
O O2 0.272450 0.489672 0.329228
O O3 0.181537 0.519155 0.192380
O O4 0.273247 0.554424 0.088250
O O5 0.163756 0.219116 0.968092
O O6 0.077851 0.297938 0.913184
O O7 0.174458 0.325542 0.000000
O O8 0.418072 0.918072 0.500000
O O9 0.312698 0.933650 0.414350
O O10 0.393793 0.946904 0.240565
O O11 0.377750 0.017401 0.474388
O O12 0.272683 0.727318 0.750000
O O13 0.275460 0.629788 0.886757
O O14 0.224747 0.724747 0.000000
#
# Coordination Sequence:
#
# PCOD9559635 Si02
#       6
#    16  16  16  16  16  16
#     4  10  19  37  56  80 109 156 197 243 294 354
#     4  11  23  35  58  82 121 155 198 240 301 363
#     4  10  20  32  55  75  97 136 190 237 290 342
#     4  11  25  38  56  88 128 161 200 249 310 372
#     4  10  21  36  59  81 115 151 200 240 293 362
#     4  10  19  35  51  80 101 146 189 239 289 348
#
# _framework density 18.553913999999999
#
# number of rings (size 3 to 8) (size 9 to 14) (size 15 to 20)
#    0.000    1.667    5.000    2.500    9.333    0.000 
#    0.000    0.000    0.000    4.000    0.000    0.000 
#    0.000    0.667    6.000    0.000    0.000    0.000 
#
# Total GULP energy -267388.275208 kJ/mol
# GULP energy per Si atom -5570.589067 kJ/mol
# Density = 1.851168 g / cm^3
# Si number density = 18.553914 Si / 1000 Ang^3
#
#
#
# Elastic Constant Matrix: (Units=GPa)
#
#
# Indices 1 2 3 4 5 6 
#
# 1 48.7478 30.0040 22.8751 0.0000 0.0000 0.0000
# 2 30.0040 48.7447 22.8727 0.0000 0.0000 0.0000
# 3 22.8751 22.8727 130.6523 0.0000 0.0000 0.0000
# 4 0.0000 0.0000 0.0000 26.1675 0.0000 0.0000
# 5 0.0000 0.0000 0.0000 0.0000 26.1668 0.0000
# 6 0.0000 0.0000 0.0000 0.0000 0.0000 19.3595
#
#
#
# Elastic Compliance Matrix: (Units=1/GPa)
#
#
# Indices 1 2 3 4 5 6 
#
# 1 0.033745 -0.019610 -0.002475 0.000000 0.000000 0.000000
# 2 -0.019610 0.033747 -0.002475 0.000000 0.000000 0.000000
# 3 -0.002475 -0.002475 0.008520 0.000000 0.000000 0.000000
# 4 0.000000 0.000000 0.000000 0.038215 0.000000 0.000000
# 5 0.000000 0.000000 0.000000 0.000000 0.038216 0.000000
# 6 0.000000 0.000000 0.000000 0.000000 0.000000 0.051654
#
#
# Mechanical properties :
#
#
# Convention : Reuss Voigt Hill
#
# Bulk Modulus (GPa) = 37.18420 42.18318 39.68369
# Shear Modulus (GPa) = 19.07078 24.49829 21.78453
#
# Velocity S-wave (km/s) = 3.20950 3.63765 3.43026
# Velocity P-wave (km/s) = 5.81543 6.35831 6.09292
#
# Compressibility (1/GPa) = 0.02689314
#
# Stress axis : x y z
#
# Youngs Moduli (GPa) = 29.63412 29.63262 117.36434
#
# Poissons Ratio (x) = 0.58109 0.29050
# Poissons Ratio (y) = 0.58112 0.29042
# Poissons Ratio (z) = 0.07335 0.07333
#
# Static dielectric constant tensor:
#      x y z
#    x 1.676480 0.000000 0.000000 
#    y 0.000000 1.676480 0.000000 
#    z 0.000000 0.000000 1.738760 
# 
# From -- ./inp_files/1524.got.cif
#   From: 2010.05.17/outbox.cif.g08.bks.cpg/sg120_1_cif.got.tgz:1524.got - 2010.05.20 11:28:13.
