data_PCOD9559671
_publ_section_title
;
Structure prediction by ZEFSAII (Michael W. Deem and Ramdas Pophale) SiO2 
 PCOD9559671
Probable space group: I -4 C 2
;
_chemical_formula_sum "Si O2"
_cell_formula_units_Z 112
_cell_length_a 14.829486
_cell_length_b 14.829486
_cell_length_c 29.328502
_cell_angle_alpha 90.000000
_cell_angle_beta 90.000000
_cell_angle_gamma 90.000000
_cell_volume 6449.738071
_symmetry_space_group_name_H-M "I -4 C 2"
_symmetry_group_IT_number 120
_symmetry_cell_setting 'tetragonal'
loop_
_space_group_symop_operation_xyz
x,y,z
y,-x,-z
-x,-y,z
-y,x,-z
y,x,1/2-z
-y,-x,1/2-z
-x,y,1/2+z
x,-y,1/2+z
1/2+x,1/2+y,1/2+z
1/2+y,1/2-x,1/2-z
1/2-x,1/2-y,1/2+z
1/2-y,1/2+x,1/2-z
1/2+y,1/2+x,-z
1/2-y,1/2-x,-z
1/2-x,1/2+y,z
1/2+x,1/2-y,z
loop_
_atom_site_type_symbol
_atom_site_label
_atom_site_fract_x
_atom_site_fract_y
_atom_site_fract_z
Si Si1 0.452476 0.147561 0.700540
Si Si2 0.773705 0.370701 0.111604
Si Si3 0.456553 0.857435 0.302342
Si Si4 0.733501 0.590452 0.886410
Si Si5 0.285536 0.396390 0.423443
Si Si6 0.287675 0.845149 0.044317
Si Si7 0.182122 0.545102 0.014187
O O1 0.441949 0.184006 0.752086
O O2 0.552928 0.105995 0.696135
O O3 0.429571 0.216805 0.661011
O O4 0.389209 0.059851 0.695532
O O5 0.799074 0.432823 0.153944
O O6 0.672287 0.336199 0.117585
O O7 0.847109 0.289477 0.108228
O O8 0.784982 0.414504 0.062083
O O9 0.692287 0.494700 0.902824
O O10 0.805906 0.635644 0.921907
O O11 0.351676 0.311258 0.432454
O O12 0.244872 0.423650 0.472603
O O13 0.315595 0.939670 0.023091
O O14 0.280054 0.780054 0.000000
O O15 0.085324 0.585324 0.000000
#
# Coordination Sequence:
#
# PCOD9559671 Si02
#       7
#    16  16  16  16  16  16  16
#     4   9  18  31  54  79 108 141 176 230 297 352
#     4  10  20  34  54  76 111 145 183 233 279 335
#     4   9  17  33  52  80 111 137 174 235 295 344
#     4  11  20  34  54  78 105 152 191 224 286 344
#     4  10  20  35  52  75 111 145 181 228 277 333
#     4  11  21  36  54  79 114 145 189 240 282 335
#     4  10  21  36  53  79 109 142 184 233 285 328
#
# _framework density 17.365046
#
# number of rings (size 3 to 8) (size 9 to 14) (size 15 to 20)
#    0.000    2.000    2.857    3.857    0.000    0.857 
#    0.000    0.714    0.000    0.000    0.000    0.000 
#    0.000    2.286    0.000    0.000    0.000    0.000 
#
# Total GULP energy -311880.645327 kJ/mol
# GULP energy per Si atom -5569.297238 kJ/mol
# Density = 1.732552 g / cm^3
# Si number density = 17.365046 Si / 1000 Ang^3
#
#
#
# Elastic Constant Matrix: (Units=GPa)
#
#
# Indices 1 2 3 4 5 6 
#
# 1 73.1053 17.3854 32.2450 0.0000 0.0000 0.0000
# 2 17.3854 73.1053 32.2450 0.0000 0.0000 0.0000
# 3 32.2450 32.2450 122.6628 0.0000 0.0000 0.0000
# 4 0.0000 0.0000 0.0000 11.1860 0.0000 0.0000
# 5 0.0000 0.0000 0.0000 0.0000 11.1860 0.0000
# 6 0.0000 0.0000 0.0000 0.0000 0.0000 18.2976
#
#
#
# Elastic Compliance Matrix: (Units=1/GPa)
#
#
# Indices 1 2 3 4 5 6 
#
# 1 0.015773 -0.002174 -0.003575 0.000000 0.000000 0.000000
# 2 -0.002174 0.015773 -0.003575 0.000000 0.000000 0.000000
# 3 -0.003575 -0.003575 0.010032 0.000000 0.000000 0.000000
# 4 0.000000 0.000000 0.000000 0.089398 0.000000 0.000000
# 5 0.000000 0.000000 0.000000 0.000000 0.089398 0.000000
# 6 0.000000 0.000000 0.000000 0.000000 0.000000 0.054652
#
#
# Mechanical properties :
#
#
# Convention : Reuss Voigt Hill
#
# Bulk Modulus (GPa) = 43.61109 48.06934 45.84021
# Shear Modulus (GPa) = 16.59395 20.60046 18.59720
#
# Velocity S-wave (km/s) = 3.09462 3.44803 3.27610
# Velocity P-wave (km/s) = 6.15936 6.60255 6.38480
#
# Compressibility (1/GPa) = 0.02292995
#
# Stress axis : x y z
#
# Youngs Moduli (GPa) = 63.40080 63.40080 99.68284
#
# Poissons Ratio (x) = 0.13785 0.35633
# Poissons Ratio (y) = 0.13785 0.35633
# Poissons Ratio (z) = 0.22664 0.22664
#
# Static dielectric constant tensor:
#      x y z
#    x 1.597320 0.000000 0.000000 
#    y 0.000000 1.597320 0.000000 
#    z 0.000000 0.000000 1.605180 
# 
# From -- ./inp_files/6684.got.cif
#   From: 2010.05.17/outbox.cif.g08.bks.cpg/sg120_4_cif.got.tgz:6684.got - 2010.05.20 11:28:13.
