data_PCOD9559340
_publ_section_title
;
Structure prediction by ZEFSAII (Michael W. Deem and Ramdas Pophale) SiO2 
 PCOD9559340
Probable space group: I -4 M 2
;
_chemical_formula_sum "Si O2"
_cell_formula_units_Z 48
_cell_length_a 9.310080
_cell_length_b 9.310080
_cell_length_c 32.202475
_cell_angle_alpha 90.000000
_cell_angle_beta 90.000000
_cell_angle_gamma 90.000000
_cell_volume 2791.232912
_symmetry_space_group_name_H-M "I -4 M 2"
_symmetry_group_IT_number 119
_symmetry_cell_setting 'tetragonal'
loop_
_space_group_symop_operation_xyz
x,y,z
y,-x,-z
-x,-y,z
-y,x,-z
y,x,-z
-y,-x,-z
-x,y,z
x,-y,z
1/2+x,1/2+y,1/2+z
1/2+y,1/2-x,1/2-z
1/2-x,1/2-y,1/2+z
1/2-y,1/2+x,1/2-z
1/2+y,1/2+x,1/2-z
1/2-y,1/2-x,1/2-z
1/2-x,1/2+y,1/2+z
1/2+x,1/2-y,1/2+z
loop_
_atom_site_type_symbol
_atom_site_label
_atom_site_fract_x
_atom_site_fract_y
_atom_site_fract_z
Si Si1 0.324964 0.166088 0.204516
Si Si2 0.828352 0.670220 0.462542
Si Si3 0.828144 0.831327 0.378321
O O1 0.500000 0.168397 0.205936
O O2 0.278634 0.221367 0.250000
O O3 0.280987 0.255181 0.164314
O O4 0.281247 0.000000 0.199832
O O5 0.745101 0.745101 0.500000
O O6 0.803020 0.500000 0.461998
O O7 0.785310 0.741313 0.418707
O O8 0.000000 0.694353 0.467680
O O9 0.000000 0.821663 0.373944
O O10 0.791632 0.000000 0.384679
#
# Coordination Sequence:
#
# PCOD9559340 Si02
#       3
#    16  16  16
#     4   8  14  26  45  68  93 122 157 195 233 276
#     4  10  21  36  53  73  98 128 162 201 245 293
#     4   9  17  30  49  71  94 122 158 198 237 281
#
# _framework density 17.196701999999998
#
# number of rings (size 3 to 8) (size 9 to 14) (size 15 to 20)
#    0.000    3.000    0.000    2.000    0.000    3.333 
#    0.000    5.000    0.000    2.000    0.000    0.000 
#    0.000    0.000    0.000    0.000    0.000    0.000 
#
# Total GULP energy -133733.851654 kJ/mol
# GULP energy per Si atom -5572.243819 kJ/mol
# Density = 1.715756 g / cm^3
# Si number density = 17.196702 Si / 1000 Ang^3
#
#
#
# Elastic Constant Matrix: (Units=GPa)
#
#
# Indices 1 2 3 4 5 6 
#
# 1 41.2985 40.1487 75.4058 0.0000 0.0000 0.0000
# 2 40.1487 41.2983 75.4058 0.0000 0.0000 0.0000
# 3 75.4058 75.4058 225.0753 0.0000 0.0000 0.0000
# 4 0.0000 0.0000 0.0000 30.0180 0.0000 0.0000
# 5 0.0000 0.0000 0.0000 0.0000 30.0181 0.0000
# 6 0.0000 0.0000 0.0000 0.0000 0.0000 15.4557
#
#
#
# Elastic Compliance Matrix: (Units=1/GPa)
#
#
# Indices 1 2 3 4 5 6 
#
# 1 0.451071 -0.418734 -0.010834 0.000000 0.000000 0.000000
# 2 -0.418734 0.451078 -0.010836 0.000000 0.000000 0.000000
# 3 -0.010834 -0.010836 0.011703 0.000000 0.000000 0.000000
# 4 0.000000 0.000000 0.000000 0.033313 0.000000 0.000000
# 5 0.000000 0.000000 0.000000 0.000000 0.033313 0.000000
# 6 0.000000 0.000000 0.000000 0.000000 0.000000 0.064701
#
#
# Mechanical properties :
#
#
# Convention : Reuss Voigt Hill
#
# Bulk Modulus (GPa) = 30.26276 76.62141 53.44209
# Shear Modulus (GPa) = 2.58131 22.87915 12.73023
#
# Velocity S-wave (km/s) = 1.22650 3.65147 2.72375
# Velocity P-wave (km/s) = 4.43192 7.90128 6.40594
#
# Compressibility (1/GPa) = 0.03304391
#
# Stress axis : x y z
#
# Youngs Moduli (GPa) = 2.21694 2.21691 85.45007
#
# Poissons Ratio (x) = 0.92830 0.92575
# Poissons Ratio (y) = 0.92831 0.92590
# Poissons Ratio (z) = 0.02402 0.02402
#
# Static dielectric constant tensor:
#      x y z
#    x 1.575840 0.000000 0.000000 
#    y 0.000000 1.575840 0.000000 
#    z 0.000000 0.000000 1.580170 
# 
# From -- ./inp_files/9778.got.cif
#   From: 2010.05.17/outbox.cif.g08.bks.cpg/sg119_5_cif.got.tgz:9778.got - 2010.05.20 11:21:29.
