data_PCOD9559405
_publ_section_title
;
Structure prediction by ZEFSAII (Michael W. Deem and Ramdas Pophale) SiO2 
 PCOD9559405
Probable space group: I -4 M 2
;
_chemical_formula_sum "Si O2"
_cell_formula_units_Z 46
_cell_length_a 10.084995
_cell_length_b 10.084995
_cell_length_c 22.254168
_cell_angle_alpha 90.000000
_cell_angle_beta 90.000000
_cell_angle_gamma 90.000000
_cell_volume 2263.407428
_symmetry_space_group_name_H-M "I -4 M 2"
_symmetry_group_IT_number 119
_symmetry_cell_setting 'tetragonal'
loop_
_space_group_symop_operation_xyz
x,y,z
y,-x,-z
-x,-y,z
-y,x,-z
y,x,-z
-y,-x,-z
-x,y,z
x,-y,z
1/2+x,1/2+y,1/2+z
1/2+y,1/2-x,1/2-z
1/2-x,1/2-y,1/2+z
1/2-y,1/2+x,1/2-z
1/2+y,1/2+x,1/2-z
1/2-y,1/2-x,1/2-z
1/2-x,1/2+y,1/2+z
1/2+x,1/2-y,1/2+z
loop_
_atom_site_type_symbol
_atom_site_label
_atom_site_fract_x
_atom_site_fract_y
_atom_site_fract_z
Si Si1 0.000000 0.651848 0.579042
Si Si2 0.000000 0.301312 0.719653
Si Si3 0.210061 0.154180 0.066811
Si Si4 0.500000 0.000000 0.750000
Si Si5 0.744974 0.000000 0.842074
Si Si6 0.500000 0.500000 0.742269
O O1 0.140953 0.708427 0.560529
O O2 0.000000 0.500000 0.556315
O O3 0.000000 0.655196 0.650897
O O4 0.128645 0.371355 0.750000
O O5 0.000000 0.142088 0.723948
O O6 0.125429 0.240751 0.113173
O O7 0.213516 0.000000 0.089042
O O8 0.152117 0.152117 0.000000
O O9 0.376609 0.000000 0.796141
O O10 0.872798 0.000000 0.800051
#
# Coordination Sequence:
#
# PCOD9559405 Si02
#       6
#     8   8  16   2   8   4
#     4  10  22  39  64  99 126 168 218 274 347 402
#     4  11  22  41  64  91 129 169 218 270 326 406
#     4  11  22  42  70 101 133 176 237 298 354 417
#     4  12  36  48  60 108 156 208 228 278 412 448
#     4  12  26  47  69  94 144 184 238 287 347 448
#     4  12  26  38  65  96 127 178 222 278 340 404
#
# _framework density 20.323342
#
# number of rings (size 3 to 8) (size 9 to 14) (size 15 to 20)
#    0.000    0.870    5.217    2.087    7.304    1.391 
#    0.000    1.739    0.000    0.000    0.000    0.000 
#    0.000    0.000    0.000    0.000    0.000    0.000 
#
# Total GULP energy -128389.176283 kJ/mol
# GULP energy per Si atom -5582.138099 kJ/mol
# Density = 2.027709 g / cm^3
# Si number density = 20.323342 Si / 1000 Ang^3
#
#
#
# Elastic Constant Matrix: (Units=GPa)
#
#
# Indices 1 2 3 4 5 6 
#
# 1 150.1373 35.9913 38.0760 0.0000 0.0000 0.0000
# 2 35.9913 150.1384 38.0764 0.0000 0.0000 0.0000
# 3 38.0760 38.0764 82.5147 0.0000 0.0000 0.0000
# 4 0.0000 0.0000 0.0000 11.2237 0.0000 0.0000
# 5 0.0000 0.0000 0.0000 0.0000 11.2272 0.0000
# 6 0.0000 0.0000 0.0000 0.0000 0.0000 1.9698
#
#
#
# Elastic Compliance Matrix: (Units=1/GPa)
#
#
# Indices 1 2 3 4 5 6 
#
# 1 0.007692 -0.001069 -0.003056 0.000000 0.000000 0.000000
# 2 -0.001069 0.007692 -0.003056 0.000000 0.000000 0.000000
# 3 -0.003056 -0.003056 0.014940 0.000000 0.000000 0.000000
# 4 0.000000 0.000000 0.000000 0.089097 0.000000 0.000000
# 5 0.000000 0.000000 0.000000 0.000000 0.089069 0.000000
# 6 0.000000 0.000000 0.000000 0.000000 0.000000 0.507675
#
#
# Mechanical properties :
#
#
# Convention : Reuss Voigt Hill
#
# Bulk Modulus (GPa) = 62.65304 67.45307 65.05306
# Shear Modulus (GPa) = 6.79489 22.92726 14.86107
#
# Velocity S-wave (km/s) = 1.83048 3.36240 2.70706
# Velocity P-wave (km/s) = 5.94664 6.95243 6.46911
#
# Compressibility (1/GPa) = 0.01596092
#
# Stress axis : x y z
#
# Youngs Moduli (GPa) = 130.00763 130.00833 66.93628
#
# Poissons Ratio (x) = 0.13896 0.20457
# Poissons Ratio (y) = 0.13896 0.20457
# Poissons Ratio (z) = 0.39732 0.39733
#
# Static dielectric constant tensor:
#      x y z
#    x 1.761380 0.000000 0.000000 
#    y 0.000000 1.761380 0.000000 
#    z 0.000000 0.000000 1.682910 
# 
# From -- ./inp_files/6099.got.cif
#   From: 2010.05.17/outbox.cif.g08.bks.cpg/sg119_4_cif.got.tgz:6099.got - 2010.05.20 11:21:29.
