data_PCOD9559422
_publ_section_title
;
Structure prediction by ZEFSAII (Michael W. Deem and Ramdas Pophale) SiO2 
 PCOD9559422
Probable space group: I -4 M 2
;
_chemical_formula_sum "Si O2"
_cell_formula_units_Z 112
_cell_length_a 31.179117
_cell_length_b 31.179117
_cell_length_c 5.327995
_cell_angle_alpha 90.000000
_cell_angle_beta 90.000000
_cell_angle_gamma 90.000000
_cell_volume 5179.542870
_symmetry_space_group_name_H-M "I -4 M 2"
_symmetry_group_IT_number 119
_symmetry_cell_setting 'tetragonal'
loop_
_space_group_symop_operation_xyz
x,y,z
y,-x,-z
-x,-y,z
-y,x,-z
y,x,-z
-y,-x,-z
-x,y,z
x,-y,z
1/2+x,1/2+y,1/2+z
1/2+y,1/2-x,1/2-z
1/2-x,1/2-y,1/2+z
1/2-y,1/2+x,1/2-z
1/2+y,1/2+x,1/2-z
1/2-y,1/2-x,1/2-z
1/2-x,1/2+y,1/2+z
1/2+x,1/2-y,1/2+z
loop_
_atom_site_type_symbol
_atom_site_label
_atom_site_fract_x
_atom_site_fract_y
_atom_site_fract_z
Si Si1 0.315525 0.746733 0.337336
Si Si2 0.050371 0.323562 0.312706
Si Si3 0.378936 0.949606 0.189638
Si Si4 0.397132 0.751775 0.571317
Si Si5 0.449049 0.591998 0.252295
Si Si6 0.130170 0.807819 0.435876
Si Si7 0.306997 0.451016 0.773406
O O1 0.286355 0.713646 0.500000
O O2 0.281024 0.781024 0.250000
O O3 0.356291 0.773934 0.443622
O O4 0.339288 0.720885 0.111703
O O5 0.056730 0.345018 0.583558
O O6 0.081660 0.283580 0.267951
O O7 0.000000 0.310872 0.294299
O O8 0.058389 0.356561 0.080663
O O9 0.418538 0.918538 0.250000
O O10 0.391509 0.000000 0.194355
O O11 0.434503 0.730430 0.409147
O O12 0.369743 0.709761 0.658587
O O13 0.432024 0.567977 0.500000
O O14 0.500000 0.584226 0.215363
O O15 0.444785 0.643339 0.308273
O O16 0.424711 0.575290 0.000000
O O17 0.145033 0.854968 0.500000
O O18 0.080596 0.802737 0.495307
O O19 0.300716 0.500000 0.836821
#
# Coordination Sequence:
#
# PCOD9559422 Si02
#       7
#    16  16  16  16  16  16  16
#     4  11  24  42  63  91 129 166 215 274 336 396
#     4  10  23  43  67  97 139 182 223 279 341 401
#     4  10  22  43  69 102 140 183 229 281 340 399
#     4  11  25  42  65  94 127 174 225 272 333 408
#     4  11  25  44  67  96 129 168 213 267 332 402
#     4  11  23  42  66  93 125 168 216 271 338 395
#     4  10  25  41  64  97 127 165 216 272 331 399
#
# _framework density 21.623529000000001
#
# number of rings (size 3 to 8) (size 9 to 14) (size 15 to 20)
#    0.000    1.429    1.429    2.143    8.000    2.714 
#    2.571    0.000    0.000    2.571    0.000    0.000 
#    0.000    0.000    0.000    0.000    0.000    0.000 
#
# Total GULP energy -312217.083977 kJ/mol
# GULP energy per Si atom -5575.305071 kJ/mol
# Density = 2.157431 g / cm^3
# Si number density = 21.623529 Si / 1000 Ang^3
#
#
#
# Elastic Constant Matrix: (Units=GPa)
#
#
# Indices 1 2 3 4 5 6 
#
# 1 104.4113 52.3549 4.1804 0.0000 0.0000 0.0000
# 2 52.3549 104.4178 4.1830 0.0000 0.0000 0.0000
# 3 4.1804 4.1830 44.1324 0.0000 0.0000 0.0000
# 4 0.0000 0.0000 0.0000 -488.6546 0.0000 0.0000
# 5 0.0000 0.0000 0.0000 0.0000 -488.9703 0.0000
# 6 0.0000 0.0000 0.0000 0.0000 0.0000 40.6591
#
#
#
# Elastic Compliance Matrix: (Units=1/GPa)
#
#
# Indices 1 2 3 4 5 6 
#
# 1 0.012810 -0.006399 -0.000607 0.000000 0.000000 0.000000
# 2 -0.006399 0.012810 -0.000608 0.000000 0.000000 0.000000
# 3 -0.000607 -0.000608 0.022774 0.000000 0.000000 0.000000
# 4 0.000000 0.000000 0.000000 -0.002046 0.000000 0.000000
# 5 0.000000 0.000000 0.000000 0.000000 -0.002045 0.000000
# 6 0.000000 0.000000 0.000000 0.000000 0.000000 0.024595
#
#
# Mechanical properties :
#
#
# Convention : Reuss Voigt Hill
#
# Bulk Modulus (GPa) = 30.15076 41.59980 35.87528
# Shear Modulus (GPa) = 52.53184 -174.57696 -61.02256
#
# Velocity S-wave (km/s) = 4.93422 -8.99500 -5.31806
# Velocity P-wave (km/s) = 6.81439 9.41276 4.59152
#
# Compressibility (1/GPa) = 0.03316667
#
# Stress axis : x y z
#
# Youngs Moduli (GPa) = 78.06194 78.06642 43.90933
#
# Poissons Ratio (x) = 0.49953 0.02665
# Poissons Ratio (y) = 0.49950 0.02670
# Poissons Ratio (z) = 0.04738 0.04747
#
# Static dielectric constant tensor:
#      x y z
#    x 2.565430 0.000000 0.000000 
#    y 0.000000 2.565340 0.000000 
#    z 0.000000 0.000000 1.908770 
# 
# From -- ./inp_files/1242.got.cif
#   From: 2010.05.17/outbox.cif.g08.bks.cpg/sg119_1_cif.got.tgz:1242.got - 2010.05.20 11:21:29.
