data_PCOD9559933
_publ_section_title
;
Structure prediction by ZEFSAII (Michael W. Deem and Ramdas Pophale) SiO2 
 PCOD9559933
Probable space group: I -4 C 2
;
_chemical_formula_sum "Si O2"
_cell_formula_units_Z 88
_cell_length_a 14.445470
_cell_length_b 14.445470
_cell_length_c 18.695187
_cell_angle_alpha 90.000000
_cell_angle_beta 90.000000
_cell_angle_gamma 90.000000
_cell_volume 3901.154649
_symmetry_space_group_name_H-M "I -4 C 2"
_symmetry_group_IT_number 120
_symmetry_cell_setting 'tetragonal'
loop_
_space_group_symop_operation_xyz
x,y,z
y,-x,-z
-x,-y,z
-y,x,-z
y,x,1/2-z
-y,-x,1/2-z
-x,y,1/2+z
x,-y,1/2+z
1/2+x,1/2+y,1/2+z
1/2+y,1/2-x,1/2-z
1/2-x,1/2-y,1/2+z
1/2-y,1/2+x,1/2-z
1/2+y,1/2+x,-z
1/2-y,1/2-x,-z
1/2-x,1/2+y,z
1/2+x,1/2-y,z
loop_
_atom_site_type_symbol
_atom_site_label
_atom_site_fract_x
_atom_site_fract_y
_atom_site_fract_z
Si Si1 0.573885 0.920192 0.414174
Si Si2 0.319213 0.680788 0.250000
Si Si3 0.859475 0.208544 0.985458
Si Si4 0.007248 0.767850 0.850537
Si Si5 0.263732 0.407234 0.874116
Si Si6 0.553484 0.406814 0.613333
O O1 0.591554 0.908447 0.500000
O O2 0.543600 0.829441 0.368314
O O3 0.668364 0.958229 0.380522
O O4 0.500000 0.000000 0.407388
O O5 0.416390 0.715457 0.288162
O O6 0.321152 0.744383 0.180139
O O7 0.935024 0.221174 0.924105
O O8 0.789339 0.134414 0.950945
O O9 0.802165 0.302165 0.000000
O O10 0.908922 0.160567 0.051827
O O11 0.938601 0.855596 0.844526
O O12 0.347267 0.472950 0.849198
O O13 0.500000 0.500000 0.588222
#
# Coordination Sequence:
#
# PCOD9559933 Si02
#       6
#    16   8  16  16  16  16
#     4  11  25  48  73 107 144 189 244 309 384 450
#     4  10  24  49  66  98 142 189 242 290 354 447
#     4  11  23  36  66 102 140 176 232 298 379 440
#     4  11  25  42  69 100 146 187 239 300 368 451
#     4  11  24  42  67  98 141 186 239 297 364 442
#     4  12  22  38  70 103 138 178 239 312 382 437
#
# _framework density 22.557423
#
# number of rings (size 3 to 8) (size 9 to 14) (size 15 to 20)
#    0.000    0.909    3.636    4.909    7.636    1.455 
#    3.273    0.000    0.000    0.000    0.000    0.000 
#    0.000    0.000    0.000    0.000    0.000    0.000 
#
# Total GULP energy -245213.101999 kJ/mol
# GULP energy per Si atom -5573.025045 kJ/mol
# Density = 2.250608 g / cm^3
# Si number density = 22.557423 Si / 1000 Ang^3
#
#
#
# Elastic Constant Matrix: (Units=GPa)
#
#
# Indices 1 2 3 4 5 6 
#
# 1 105.4899 35.7266 7.4030 0.0000 0.0000 0.0000
# 2 35.7266 105.4896 7.4026 0.0000 0.0000 0.0000
# 3 7.4030 7.4026 46.3987 0.0000 0.0000 0.0000
# 4 0.0000 0.0000 0.0000 6.8934 0.0000 0.0000
# 5 0.0000 0.0000 0.0000 0.0000 6.8938 0.0000
# 6 0.0000 0.0000 0.0000 0.0000 0.0000 52.2826
#
#
#
# Elastic Compliance Matrix: (Units=1/GPa)
#
#
# Indices 1 2 3 4 5 6 
#
# 1 0.010768 -0.003566 -0.001149 0.000000 0.000000 0.000000
# 2 -0.003566 0.010768 -0.001149 0.000000 0.000000 0.000000
# 3 -0.001149 -0.001149 0.021919 0.000000 0.000000 0.000000
# 4 0.000000 0.000000 0.000000 0.145066 0.000000 0.000000
# 5 0.000000 0.000000 0.000000 0.000000 0.145058 0.000000
# 6 0.000000 0.000000 0.000000 0.000000 0.000000 0.019127
#
#
# Mechanical properties :
#
#
# Convention : Reuss Voigt Hill
#
# Bulk Modulus (GPa) = 31.51943 39.82695 35.67319
# Shear Modulus (GPa) = 13.33300 27.00371 20.16835
#
# Velocity S-wave (km/s) = 2.43383 3.46368 2.99338
# Velocity P-wave (km/s) = 4.67989 5.80433 5.27217
#
# Compressibility (1/GPa) = 0.03172646
#
# Stress axis : x y z
#
# Youngs Moduli (GPa) = 92.86781 92.86767 45.62258
#
# Poissons Ratio (x) = 0.33118 0.05242
# Poissons Ratio (y) = 0.33119 0.05242
# Poissons Ratio (z) = 0.10671 0.10670
#
# Static dielectric constant tensor:
#      x y z
#    x 1.880570 0.000000 0.000000 
#    y 0.000000 1.880570 0.000000 
#    z 0.000000 0.000000 1.832950 
# 
# From -- ./inp_files/5292.got.cif
#   From: 2010.05.17/outbox.cif.g08.bks.cpg/sg120_3_cif.got.tgz:5292.got - 2010.05.20 11:28:13.
