data_PCOD9559046
_publ_section_title
;
Structure prediction by ZEFSAII (Michael W. Deem and Ramdas Pophale) SiO2 
 PCOD9559046
Probable space group: I -4 M 2
;
_chemical_formula_sum "Si O2"
_cell_formula_units_Z 104
_cell_length_a 15.069186
_cell_length_b 15.069186
_cell_length_c 29.501775
_cell_angle_alpha 90.000000
_cell_angle_beta 90.000000
_cell_angle_gamma 90.000000
_cell_volume 6699.273885
_symmetry_space_group_name_H-M "I -4 M 2"
_symmetry_group_IT_number 119
_symmetry_cell_setting 'tetragonal'
loop_
_space_group_symop_operation_xyz
x,y,z
y,-x,-z
-x,-y,z
-y,x,-z
y,x,-z
-y,-x,-z
-x,y,z
x,-y,z
1/2+x,1/2+y,1/2+z
1/2+y,1/2-x,1/2-z
1/2-x,1/2-y,1/2+z
1/2-y,1/2+x,1/2-z
1/2+y,1/2+x,1/2-z
1/2-y,1/2-x,1/2-z
1/2-x,1/2+y,1/2+z
1/2+x,1/2-y,1/2+z
loop_
_atom_site_type_symbol
_atom_site_label
_atom_site_fract_x
_atom_site_fract_y
_atom_site_fract_z
Si Si1 0.604448 0.895553 0.250000
Si Si2 0.901181 0.653946 0.019396
Si Si3 0.902171 0.209049 0.466394
Si Si4 0.105225 0.711006 0.658977
Si Si5 0.899047 0.288912 0.914738
Si Si6 0.355945 0.597382 0.448973
Si Si7 0.104232 0.900952 0.627005
O O1 0.500000 0.883224 0.261020
O O2 0.663900 0.874295 0.293551
O O3 0.815060 0.602803 0.036071
O O4 0.898744 0.750167 0.043252
O O5 0.000000 0.615868 0.026593
O O6 0.890221 0.671372 0.965495
O O7 0.827359 0.172642 0.500000
O O8 0.890435 0.163696 0.417740
O O9 0.000000 0.182805 0.483839
O O10 0.163805 0.667930 0.619279
O O11 0.119997 0.816848 0.659046
O O12 0.000000 0.695522 0.649602
O O13 0.884686 0.183278 0.920816
O O14 0.000000 0.305338 0.899513
O O15 0.394393 0.605607 0.500000
O O16 0.379814 0.500000 0.430608
O O17 0.000000 0.897463 0.613811
O O18 0.120575 0.000000 0.645906
#
# Coordination Sequence:
#
# PCOD9559046 Si02
#       7
#     8  16  16  16  16  16  16
#     4   9  18  32  50  72  92 110 136 167 208 268
#     4   9  18  30  42  59  85 119 158 195 228 262
#     4  11  20  29  43  62  89 123 155 188 222 256
#     4  10  19  32  50  68  89 116 142 176 221 263
#     4  10  19  28  41  63  89 117 151 187 222 264
#     4   9  16  27  43  60  83 119 158 192 224 258
#     4   9  18  31  47  68  90 115 150 184 215 256
#
# _framework density 15.52407
#
# number of rings (size 3 to 8) (size 9 to 14) (size 15 to 20)
#    0.000    2.385    0.000    5.538    0.000    4.923 
#    0.000    1.538    0.000    0.923    0.000    2.154 
#    0.000    0.000    0.000    0.000    0.000    0.000 
#
# Total GULP energy -289851.162527 kJ/mol
# GULP energy per Si atom -5574.060818 kJ/mol
# Density = 1.548874 g / cm^3
# Si number density = 15.524070 Si / 1000 Ang^3
#
#
#
# Elastic Constant Matrix: (Units=GPa)
#
#
# Indices 1 2 3 4 5 6 
#
# 1 83.6784 37.2777 33.9220 0.0000 0.0000 0.0000
# 2 37.2777 83.6788 33.9214 0.0000 0.0000 0.0000
# 3 33.9220 33.9214 41.8263 0.0000 0.0000 0.0000
# 4 0.0000 0.0000 0.0000 17.2170 0.0000 0.0000
# 5 0.0000 0.0000 0.0000 0.0000 17.2171 0.0000
# 6 0.0000 0.0000 0.0000 0.0000 0.0000 20.0331
#
#
#
# Elastic Compliance Matrix: (Units=1/GPa)
#
#
# Indices 1 2 3 4 5 6 
#
# 1 0.018359 -0.003192 -0.012301 0.000000 0.000000 0.000000
# 2 -0.003192 0.018359 -0.012300 0.000000 0.000000 0.000000
# 3 -0.012301 -0.012300 0.043860 0.000000 0.000000 0.000000
# 4 0.000000 0.000000 0.000000 0.058082 0.000000 0.000000
# 5 0.000000 0.000000 0.000000 0.000000 0.058082 0.000000
# 6 0.000000 0.000000 0.000000 0.000000 0.000000 0.049917
#
#
# Mechanical properties :
#
#
# Convention : Reuss Voigt Hill
#
# Bulk Modulus (GPa) = 40.01316 46.60284 43.30800
# Shear Modulus (GPa) = 16.09914 17.83093 16.96503
#
# Velocity S-wave (km/s) = 3.22381 3.39277 3.30937
# Velocity P-wave (km/s) = 6.29985 6.74039 6.52384
#
# Compressibility (1/GPa) = 0.02499178
#
# Stress axis : x y z
#
# Youngs Moduli (GPa) = 54.46864 54.47003 22.79993
#
# Poissons Ratio (x) = 0.17389 0.28045
# Poissons Ratio (y) = 0.17388 0.28044
# Poissons Ratio (z) = 0.67000 0.66998
#
# Static dielectric constant tensor:
#      x y z
#    x 1.547110 0.000000 0.000000 
#    y 0.000000 1.547110 0.000000 
#    z 0.000000 0.000000 1.464010 
# 
# From -- ./inp_files/10474.got.cif
#   From: 2010.05.17/outbox.cif.g08.bks.cpg/sg119_6_cif.got.tgz:10474.got - 2010.05.20 11:21:29.
