data_PCOD9559586
_publ_section_title
;
Structure prediction by ZEFSAII (Michael W. Deem and Ramdas Pophale) SiO2 
 PCOD9559586
Probable space group: I -4 C 2
;
_chemical_formula_sum "Si O2"
_cell_formula_units_Z 112
_cell_length_a 15.109724
_cell_length_b 15.109724
_cell_length_c 30.466203
_cell_angle_alpha 90.000000
_cell_angle_beta 90.000000
_cell_angle_gamma 90.000000
_cell_volume 6955.548678
_symmetry_space_group_name_H-M "I -4 C 2"
_symmetry_group_IT_number 120
_symmetry_cell_setting 'tetragonal'
loop_
_space_group_symop_operation_xyz
x,y,z
y,-x,-z
-x,-y,z
-y,x,-z
y,x,1/2-z
-y,-x,1/2-z
-x,y,1/2+z
x,-y,1/2+z
1/2+x,1/2+y,1/2+z
1/2+y,1/2-x,1/2-z
1/2-x,1/2-y,1/2+z
1/2-y,1/2+x,1/2-z
1/2+y,1/2+x,-z
1/2-y,1/2-x,-z
1/2-x,1/2+y,z
1/2+x,1/2-y,z
loop_
_atom_site_type_symbol
_atom_site_label
_atom_site_fract_x
_atom_site_fract_y
_atom_site_fract_z
Si Si1 0.572008 0.928154 0.900265
Si Si2 0.497877 0.235250 0.656633
Si Si3 0.821237 0.171904 0.371945
Si Si4 0.801427 0.298917 0.051277
Si Si5 0.003074 0.351221 0.750347
Si Si6 0.319937 0.686235 0.369590
Si Si7 0.235867 0.499849 0.156235
O O1 0.626856 0.875153 0.937260
O O2 0.523634 0.853013 0.871107
O O3 0.500000 0.000000 0.915089
O O4 0.646396 0.975497 0.870159
O O5 0.576441 0.305077 0.648571
O O6 0.491292 0.207678 0.707203
O O7 0.407161 0.275908 0.638980
O O8 0.790595 0.169263 0.423064
O O9 0.746405 0.237497 0.351883
O O10 0.915230 0.215103 0.363680
O O11 0.713570 0.326290 0.078847
O O12 0.788564 0.288564 0.000000
O O13 0.917267 0.413977 0.755996
O O14 0.016091 0.294009 0.793999
O O15 0.414745 0.701276 0.348044
#
# Coordination Sequence:
#
# PCOD9559586 Si02
#       7
#    16  16  16  16  16  16  16
#     4  10  18  33  57  81 114 140 189 247 288 335
#     4  11  20  36  53  82 114 154 191 229 290 334
#     4   9  20  36  57  76 113 153 181 236 289 337
#     4   8  18  37  55  80 113 143 180 234 294 344
#     4  11  20  30  54  85 112 148 196 241 276 331
#     4   9  20  36  57  76 113 153 181 236 289 337
#     4  11  20  36  53  82 114 154 191 229 290 334
#
# _framework density 16.102253000000001
#
# number of rings (size 3 to 8) (size 9 to 14) (size 15 to 20)
#    0.857    1.286    2.857    2.571    0.000    2.000 
#    0.000    8.571    0.000    1.714    0.000    8.000 
#    0.000    0.000    0.000    0.000    0.000    0.000 
#
# Total GULP energy -311854.281528 kJ/mol
# GULP energy per Si atom -5568.826456 kJ/mol
# Density = 1.606560 g / cm^3
# Si number density = 16.102253 Si / 1000 Ang^3
#
#
#
# Elastic Constant Matrix: (Units=GPa)
#
#
# Indices 1 2 3 4 5 6 
#
# 1 11.1493 -37.3178 -13.1746 0.0000 0.0000 0.0000
# 2 -37.3178 11.1493 -13.1746 0.0000 0.0000 0.0000
# 3 -13.1746 -13.1746 63.9122 0.0000 0.0000 0.0000
# 4 0.0000 0.0000 0.0000 5.6801 0.0000 0.0000
# 5 0.0000 0.0000 0.0000 0.0000 5.6801 0.0000
# 6 0.0000 0.0000 0.0000 0.0000 0.0000 30.3713
#
#
#
# Elastic Compliance Matrix: (Units=1/GPa)
#
#
# Indices 1 2 3 4 5 6 
#
# 1 -0.005506 -0.026139 -0.006523 0.000000 0.000000 0.000000
# 2 -0.026139 -0.005506 -0.006523 0.000000 0.000000 0.000000
# 3 -0.006523 -0.006523 0.012957 0.000000 0.000000 0.000000
# 4 0.000000 0.000000 0.000000 0.176052 0.000000 0.000000
# 5 0.000000 0.000000 0.000000 0.000000 0.176052 0.000000
# 6 0.000000 0.000000 0.000000 0.000000 0.000000 0.032926
#
#
# Mechanical properties :
#
#
# Convention : Reuss Voigt Hill
#
# Bulk Modulus (GPa) = -13.08438 -4.56925 -8.82681
# Shear Modulus (GPa) = 11.36700 18.33816 14.85258
#
# Velocity S-wave (km/s) = 2.65981 3.37836 3.04038
# Velocity P-wave (km/s) = 1.13549 3.51766 2.61374
#
# Compressibility (1/GPa) = -0.07642703
#
# Stress axis : x y z
#
# Youngs Moduli (GPa) = -181.60404 -181.60404 77.17775
#
# Poissons Ratio (x) = -4.74695 0.50345
# Poissons Ratio (y) = -4.74695 0.50345
# Poissons Ratio (z) = -1.18465 -1.18465
#
# Static dielectric constant tensor:
#      x y z
#    x 1.539090 0.000000 0.000000 
#    y 0.000000 1.539090 0.000000 
#    z 0.000000 0.000000 1.524540 
# 
# From -- ./inp_files/6682.got.cif
#   From: 2010.05.17/outbox.cif.g08.bks.cpg/sg120_4_cif.got.tgz:6682.got - 2010.05.20 11:28:13.
