data_PCOD9559453
_publ_section_title
;
Structure prediction by ZEFSAII (Michael W. Deem and Ramdas Pophale) SiO2 
 PCOD9559453
Probable space group: I -4 M 2
;
_chemical_formula_sum "Si O2"
_cell_formula_units_Z 60
_cell_length_a 11.742676
_cell_length_b 11.742676
_cell_length_c 19.101056
_cell_angle_alpha 90.000000
_cell_angle_beta 90.000000
_cell_angle_gamma 90.000000
_cell_volume 2633.853009
_symmetry_space_group_name_H-M "I -4 M 2"
_symmetry_group_IT_number 119
_symmetry_cell_setting 'tetragonal'
loop_
_space_group_symop_operation_xyz
x,y,z
y,-x,-z
-x,-y,z
-y,x,-z
y,x,-z
-y,-x,-z
-x,y,z
x,-y,z
1/2+x,1/2+y,1/2+z
1/2+y,1/2-x,1/2-z
1/2-x,1/2-y,1/2+z
1/2-y,1/2+x,1/2-z
1/2+y,1/2+x,1/2-z
1/2-y,1/2-x,1/2-z
1/2-x,1/2+y,1/2+z
1/2+x,1/2-y,1/2+z
loop_
_atom_site_type_symbol
_atom_site_label
_atom_site_fract_x
_atom_site_fract_y
_atom_site_fract_z
Si Si1 0.241302 0.500000 0.661159
Si Si2 0.764646 0.500000 0.359011
Si Si3 0.000000 0.191531 0.997965
Si Si4 0.245690 0.634821 0.852449
Si Si5 0.307983 0.192018 0.750000
Si Si6 0.500000 0.500000 0.326494
Si Si7 0.363322 0.363322 0.000000
O O1 0.257196 0.500000 0.578038
O O2 0.176594 0.380532 0.670391
O O3 0.366500 0.500000 0.696695
O O4 0.786635 0.500000 0.441439
O O5 0.809420 0.396102 0.313411
O O6 0.626022 0.500000 0.361425
O O7 0.889638 0.110363 0.000000
O O8 0.249040 0.500000 0.849917
O O9 0.324004 0.692180 0.793647
O O10 0.289694 0.667715 0.930685
O O11 0.347430 0.500000 0.013372
#
# Coordination Sequence:
#
# PCOD9559453 Si02
#       7
#     8   8   8  16   8   4   8
#     4  12  23  41  71 102 136 175 233 300 360 420
#     4  12  26  44  69 105 141 191 230 291 360 432
#     4  11  18  37  69 103 133 168 235 307 345 410
#     4  11  26  44  68 102 140 181 227 293 358 426
#     4  12  28  45  71 102 144 190 230 288 354 442
#     4  12  20  43  66 102 134 177 248 282 356 431
#     4   9  22  48  74  97 128 180 240 289 340 424
#
# _framework density 22.780313
#
# number of rings (size 3 to 8) (size 9 to 14) (size 15 to 20)
#    0.000    0.800    5.333    0.400   11.200    0.267 
#    0.000    0.000    2.933    0.000    0.000    0.000 
#    0.000    0.000    0.000    0.000    0.000    0.000 
#
# Total GULP energy -167313.221715 kJ/mol
# GULP energy per Si atom -5577.107390 kJ/mol
# Density = 2.272846 g / cm^3
# Si number density = 22.780313 Si / 1000 Ang^3
#
#
#
# Elastic Constant Matrix: (Units=GPa)
#
#
# Indices 1 2 3 4 5 6 
#
# 1 76.9136 25.4301 49.4444 0.0000 0.0000 0.0000
# 2 25.4301 76.9144 49.4441 0.0000 0.0000 0.0000
# 3 49.4444 49.4441 171.5212 0.0000 0.0000 0.0000
# 4 0.0000 0.0000 0.0000 25.9276 0.0000 0.0000
# 5 0.0000 0.0000 0.0000 0.0000 25.9270 0.0000
# 6 0.0000 0.0000 0.0000 0.0000 0.0000 31.6124
#
#
#
# Elastic Compliance Matrix: (Units=1/GPa)
#
#
# Indices 1 2 3 4 5 6 
#
# 1 0.016484 -0.002940 -0.003904 0.000000 0.000000 0.000000
# 2 -0.002940 0.016483 -0.003904 0.000000 0.000000 0.000000
# 3 -0.003904 -0.003904 0.008081 0.000000 0.000000 0.000000
# 4 0.000000 0.000000 0.000000 0.038569 0.000000 0.000000
# 5 0.000000 0.000000 0.000000 0.000000 0.038570 0.000000
# 6 0.000000 0.000000 0.000000 0.000000 0.000000 0.031633
#
#
# Mechanical properties :
#
#
# Convention : Reuss Voigt Hill
#
# Bulk Modulus (GPa) = 51.14794 63.77628 57.46211
# Shear Modulus (GPa) = 28.11620 30.09545 29.10583
#
# Velocity S-wave (km/s) = 3.51698 3.63866 3.57834
# Velocity P-wave (km/s) = 6.24449 6.76093 6.50783
#
# Compressibility (1/GPa) = 0.01955113
#
# Stress axis : x y z
#
# Youngs Moduli (GPa) = 60.66664 60.66759 123.74640
#
# Poissons Ratio (x) = 0.17837 0.48312
# Poissons Ratio (y) = 0.17837 0.48311
# Poissons Ratio (z) = 0.23685 0.23685
#
# Static dielectric constant tensor:
#      x y z
#    x 2.065320 0.000000 0.000000 
#    y 0.000000 2.065250 0.000000 
#    z 0.000000 0.000000 1.917180 
# 
# From -- ./inp_files/7462.got.cif
#   From: 2010.05.17/outbox.cif.g08.bks.cpg/sg119_4_cif.got.tgz:7462.got - 2010.05.20 11:21:29.
