data_PCOD9559908
_publ_section_title
;
Structure prediction by ZEFSAII (Michael W. Deem and Ramdas Pophale) SiO2 
 PCOD9559908
Probable space group: I -4 C 2
;
_chemical_formula_sum "Si O2"
_cell_formula_units_Z 60
_cell_length_a 10.835598
_cell_length_b 10.835598
_cell_length_c 22.821088
_cell_angle_alpha 90.000000
_cell_angle_beta 90.000000
_cell_angle_gamma 90.000000
_cell_volume 2679.428142
_symmetry_space_group_name_H-M "I -4 C 2"
_symmetry_group_IT_number 120
_symmetry_cell_setting 'tetragonal'
loop_
_space_group_symop_operation_xyz
x,y,z
y,-x,-z
-x,-y,z
-y,x,-z
y,x,1/2-z
-y,-x,1/2-z
-x,y,1/2+z
x,-y,1/2+z
1/2+x,1/2+y,1/2+z
1/2+y,1/2-x,1/2-z
1/2-x,1/2-y,1/2+z
1/2-y,1/2+x,1/2-z
1/2+y,1/2+x,-z
1/2-y,1/2-x,-z
1/2-x,1/2+y,z
1/2+x,1/2-y,z
loop_
_atom_site_type_symbol
_atom_site_label
_atom_site_fract_x
_atom_site_fract_y
_atom_site_fract_z
Si Si1 0.000000 0.000000 0.500000
Si Si2 0.631762 0.868239 0.500000
Si Si3 0.789497 0.006075 0.581962
Si Si4 0.954061 0.368197 0.112781
Si Si5 0.588716 0.378902 0.684374
O O1 0.093756 0.941112 0.547380
O O2 0.602967 0.751622 0.461447
O O3 0.526422 0.864441 0.550710
O O4 0.687442 0.108265 0.594302
O O5 0.809064 0.932971 0.641568
O O6 0.964273 0.246504 0.153855
O O7 0.000000 0.500000 0.140188
O O8 0.500000 0.500000 0.686258
O O9 0.638639 0.361362 0.750000
#
# Coordination Sequence:
#
# PCOD9559908 Si02
#       5
#     4   8  16  16  16
#     4  12  24  36  62 108 140 188 228 310 380 448
#     4  10  23  44  74 104 145 174 241 322 390 458
#     4  11  23  40  67 105 140 187 241 300 383 450
#     4  10  23  48  73 109 145 196 249 323 387 468
#     4  11  26  50  71 104 153 202 257 314 380 467
#
# _framework density 22.392838000000001
#
# number of rings (size 3 to 8) (size 9 to 14) (size 15 to 20)
#    0.000    1.333    1.333    5.200    3.733    2.133 
#   14.400    0.000    0.000    0.000    0.000    0.000 
#    0.000    0.000    0.000    0.000    0.000    0.000 
#
# Total GULP energy -167034.625304 kJ/mol
# GULP energy per Si atom -5567.820843 kJ/mol
# Density = 2.234187 g / cm^3
# Si number density = 22.392838 Si / 1000 Ang^3
#
#
#
# Elastic Constant Matrix: (Units=GPa)
#
#
# Indices 1 2 3 4 5 6 
#
# 1 94.3008 22.6295 51.7819 0.0000 0.0000 0.0000
# 2 22.6295 94.3013 51.7822 0.0000 0.0000 0.0000
# 3 51.7819 51.7822 194.0701 0.0000 0.0000 0.0000
# 4 0.0000 0.0000 0.0000 21.0630 0.0000 0.0000
# 5 0.0000 0.0000 0.0000 0.0000 21.0624 0.0000
# 6 0.0000 0.0000 0.0000 0.0000 0.0000 -5.6347
#
#
#
# Elastic Compliance Matrix: (Units=1/GPa)
#
#
# Indices 1 2 3 4 5 6 
#
# 1 0.012576 -0.001377 -0.002988 0.000000 0.000000 0.000000
# 2 -0.001377 0.012576 -0.002988 0.000000 0.000000 0.000000
# 3 -0.002988 -0.002988 0.006747 0.000000 0.000000 0.000000
# 4 0.000000 0.000000 0.000000 0.047477 0.000000 0.000000
# 5 0.000000 0.000000 0.000000 0.000000 0.047478 0.000000
# 6 0.000000 0.000000 0.000000 0.000000 0.000000 -0.177473
#
#
# Mechanical properties :
#
#
# Convention : Reuss Voigt Hill
#
# Bulk Modulus (GPa) = 58.16547 70.56215 64.36381
# Shear Modulus (GPa) = -165.65698 24.39671 -70.63014
#
# Velocity S-wave (km/s) = -8.61036 3.30432 -5.62227
# Velocity P-wave (km/s) = 8.53344 6.79246 3.65254
#
# Compressibility (1/GPa) = 0.01719233
#
# Stress axis : x y z
#
# Youngs Moduli (GPa) = 79.51933 79.51968 148.20731
#
# Poissons Ratio (x) = 0.10950 0.44284
# Poissons Ratio (y) = 0.10950 0.44284
# Poissons Ratio (z) = 0.23760 0.23761
#
# Static dielectric constant tensor:
#      x y z
#    x 1.958960 0.000000 0.000000 
#    y 0.000000 1.958960 0.000000 
#    z 0.000000 0.000000 1.811220 
# 
# From -- ./inp_files/5061.got.cif
#   From: 2010.05.17/outbox.cif.g08.bks.cpg/sg120_3_cif.got.tgz:5061.got - 2010.05.20 11:28:13.
