data_PCOD9559716
_publ_section_title
;
Structure prediction by ZEFSAII (Michael W. Deem and Ramdas Pophale) SiO2 
 PCOD9559716
Probable space group: I -4 C 2
;
_chemical_formula_sum "Si O2"
_cell_formula_units_Z 96
_cell_length_a 14.113030
_cell_length_b 14.113030
_cell_length_c 27.427198
_cell_angle_alpha 90.000000
_cell_angle_beta 90.000000
_cell_angle_gamma 90.000000
_cell_volume 5462.883905
_symmetry_space_group_name_H-M "I -4 C 2"
_symmetry_group_IT_number 120
_symmetry_cell_setting 'tetragonal'
loop_
_space_group_symop_operation_xyz
x,y,z
y,-x,-z
-x,-y,z
-y,x,-z
y,x,1/2-z
-y,-x,1/2-z
-x,y,1/2+z
x,-y,1/2+z
1/2+x,1/2+y,1/2+z
1/2+y,1/2-x,1/2-z
1/2-x,1/2-y,1/2+z
1/2-y,1/2+x,1/2-z
1/2+y,1/2+x,-z
1/2-y,1/2-x,-z
1/2-x,1/2+y,z
1/2+x,1/2-y,z
loop_
_atom_site_type_symbol
_atom_site_label
_atom_site_fract_x
_atom_site_fract_y
_atom_site_fract_z
Si Si1 0.798155 0.723182 0.334720
Si Si2 0.334784 0.665217 0.750000
Si Si3 0.274335 0.404969 0.415882
Si Si4 0.232005 0.732005 0.000000
Si Si5 0.870555 0.189904 0.583431
Si Si6 0.958474 0.825450 0.283059
Si Si7 0.889531 0.013549 0.109589
O O1 0.714118 0.708493 0.297134
O O2 0.792759 0.637241 0.373374
O O3 0.781770 0.818089 0.366550
O O4 0.894308 0.739213 0.303580
O O5 0.446375 0.688522 0.752159
O O6 0.239021 0.361857 0.466784
O O7 0.286513 0.518306 0.415045
O O8 0.380579 0.363278 0.405828
O O9 0.235458 0.818666 0.962294
O O10 0.847130 0.076588 0.581373
O O11 0.890887 0.890887 0.250000
O O12 0.995718 0.873964 0.332979
O O13 0.000000 0.000000 0.099893
#
# Coordination Sequence:
#
# PCOD9559716 Si02
#       7
#    16   8  16   8  16  16  16
#     4  10  22  36  54  89 114 156 187 233 290 343
#     4  12  21  34  60  83 118 156 182 244 282 325
#     4  10  20  38  58  83 116 147 188 243 300 346
#     4  10  22  36  56  88 106 154 186 236 310 350
#     4   9  21  37  57  83 117 142 193 239 291 359
#     4  11  21  33  56  89 117 148 200 232 284 348
#     4   9  17  32  54  84 112 142 174 239 304 334
#
# _framework density 17.573135000000001
#
# number of rings (size 3 to 8) (size 9 to 14) (size 15 to 20)
#    0.000    2.000    2.500    1.250    7.000    0.000 
#    0.000    0.000    0.000    6.000    0.000    0.000 
#    0.000    0.000    0.000    0.000    0.000    0.000 
#
# Total GULP energy -267321.509523 kJ/mol
# GULP energy per Si atom -5569.198115 kJ/mol
# Density = 1.753314 g / cm^3
# Si number density = 17.573135 Si / 1000 Ang^3
#
#
#
# Elastic Constant Matrix: (Units=GPa)
#
#
# Indices 1 2 3 4 5 6 
#
# 1 81.4004 51.8252 37.3473 0.0000 0.0000 0.0000
# 2 51.8252 81.3990 37.3460 0.0000 0.0000 0.0000
# 3 37.3473 37.3460 80.1966 0.0000 0.0000 0.0000
# 4 0.0000 0.0000 0.0000 20.1326 0.0000 0.0000
# 5 0.0000 0.0000 0.0000 0.0000 20.1323 0.0000
# 6 0.0000 0.0000 0.0000 0.0000 0.0000 19.9945
#
#
#
# Elastic Compliance Matrix: (Units=1/GPa)
#
#
# Indices 1 2 3 4 5 6 
#
# 1 0.021986 -0.011827 -0.004731 0.000000 0.000000 0.000000
# 2 -0.011827 0.021986 -0.004730 0.000000 0.000000 0.000000
# 3 -0.004731 -0.004730 0.016875 0.000000 0.000000 0.000000
# 4 0.000000 0.000000 0.000000 0.049671 0.000000 0.000000
# 5 0.000000 0.000000 0.000000 0.000000 0.049672 0.000000
# 6 0.000000 0.000000 0.000000 0.000000 0.000000 0.050014
#
#
# Mechanical properties :
#
#
# Convention : Reuss Voigt Hill
#
# Bulk Modulus (GPa) = 54.73588 55.11478 54.92533
# Shear Modulus (GPa) = 19.31475 19.81704 19.56589
#
# Velocity S-wave (km/s) = 3.31887 3.36175 3.34038
# Velocity P-wave (km/s) = 6.77508 6.81907 6.79711
#
# Compressibility (1/GPa) = 0.01826955
#
# Stress axis : x y z
#
# Youngs Moduli (GPa) = 45.48430 45.48417 59.25799
#
# Poissons Ratio (x) = 0.53795 0.28034
# Poissons Ratio (y) = 0.53796 0.28031
# Poissons Ratio (z) = 0.21518 0.21516
#
# Static dielectric constant tensor:
#      x y z
#    x 1.622390 0.000000 0.000000 
#    y 0.000000 1.622390 0.000000 
#    z 0.000000 0.000000 1.628340 
# 
# From -- ./inp_files/6248.got.cif
#   From: 2010.05.17/outbox.cif.g08.bks.cpg/sg120_4_cif.got.tgz:6248.got - 2010.05.20 11:28:13.
