data_PCOD9559377
_publ_section_title
;
Structure prediction by ZEFSAII (Michael W. Deem and Ramdas Pophale) SiO2 
 PCOD9559377
Probable space group: I -4 M 2
;
_chemical_formula_sum "Si O2"
_cell_formula_units_Z 112
_cell_length_a 15.126651
_cell_length_b 15.126651
_cell_length_c 27.594877
_cell_angle_alpha 90.000000
_cell_angle_beta 90.000000
_cell_angle_gamma 90.000000
_cell_volume 6314.137523
_symmetry_space_group_name_H-M "I -4 M 2"
_symmetry_group_IT_number 119
_symmetry_cell_setting 'tetragonal'
loop_
_space_group_symop_operation_xyz
x,y,z
y,-x,-z
-x,-y,z
-y,x,-z
y,x,-z
-y,-x,-z
-x,y,z
x,-y,z
1/2+x,1/2+y,1/2+z
1/2+y,1/2-x,1/2-z
1/2-x,1/2-y,1/2+z
1/2-y,1/2+x,1/2-z
1/2+y,1/2+x,1/2-z
1/2-y,1/2-x,1/2-z
1/2-x,1/2+y,1/2+z
1/2+x,1/2-y,1/2+z
loop_
_atom_site_type_symbol
_atom_site_label
_atom_site_fract_x
_atom_site_fract_y
_atom_site_fract_z
Si Si1 0.601429 0.603204 0.288632
Si Si2 0.829400 0.899708 0.681262
Si Si3 0.401170 0.105225 0.492639
Si Si4 0.277639 0.739521 0.345500
Si Si5 0.769740 0.286550 0.048835
Si Si6 0.603070 0.599058 0.925184
Si Si7 0.106324 0.395840 0.880805
O O1 0.500000 0.626584 0.300028
O O2 0.615357 0.500000 0.301431
O O3 0.617321 0.610261 0.230924
O O4 0.668737 0.667157 0.315835
O O5 0.761211 0.818794 0.676451
O O6 0.889413 0.893477 0.633068
O O7 0.791089 0.000000 0.680792
O O8 0.500000 0.141362 0.498603
O O9 0.339248 0.138233 0.535115
O O10 0.372429 0.125916 0.437298
O O11 0.404943 0.000000 0.493786
O O12 0.261296 0.710238 0.401044
O O13 0.335388 0.829957 0.348751
O O14 0.674253 0.333455 0.054409
O O15 0.771167 0.228834 0.000000
O O16 0.500000 0.611457 0.939469
O O17 0.630499 0.500000 0.938804
O O18 0.125548 0.500000 0.872649
O O19 0.000000 0.384099 0.874549
#
# Coordination Sequence:
#
# PCOD9559377 Si02
#       7
#    16  16  16  16  16  16  16
#     4  10  21  38  60  83 108 140 183 234 284 335
#     4   9  19  36  56  81 113 148 181 216 269 336
#     4   9  18  34  53  69  93 137 187 226 263 311
#     4  11  21  34  57  82 112 141 185 225 274 323
#     4  11  21  32  46  74 106 140 175 221 266 316
#     4   9  18  31  48  73 108 147 179 210 254 314
#     4   9  18  33  53  77 105 138 176 219 266 321
#
# _framework density 17.737974000000001
#
# number of rings (size 3 to 8) (size 9 to 14) (size 15 to 20)
#    0.000    2.286    1.429    2.571    0.000    6.857 
#    0.000    0.714    0.000    0.429    0.000    5.000 
#    0.000    0.000    0.000    0.000    0.000    0.000 
#
# Total GULP energy -312316.030481 kJ/mol
# GULP energy per Si atom -5577.071973 kJ/mol
# Density = 1.769760 g / cm^3
# Si number density = 17.737974 Si / 1000 Ang^3
#
#
#
# Elastic Constant Matrix: (Units=GPa)
#
#
# Indices 1 2 3 4 5 6 
#
# 1 79.6549 52.1759 35.3394 0.0000 0.0000 0.0000
# 2 52.1759 79.6556 35.3395 0.0000 0.0000 0.0000
# 3 35.3394 35.3395 69.5974 0.0000 0.0000 0.0000
# 4 0.0000 0.0000 0.0000 14.7057 0.0000 0.0000
# 5 0.0000 0.0000 0.0000 0.0000 14.7055 0.0000
# 6 0.0000 0.0000 0.0000 0.0000 0.0000 25.9738
#
#
#
# Elastic Compliance Matrix: (Units=1/GPa)
#
#
# Indices 1 2 3 4 5 6 
#
# 1 0.023407 -0.012984 -0.005292 0.000000 0.000000 0.000000
# 2 -0.012984 0.023407 -0.005292 0.000000 0.000000 0.000000
# 3 -0.005292 -0.005292 0.019743 0.000000 0.000000 0.000000
# 4 0.000000 0.000000 0.000000 0.068001 0.000000 0.000000
# 5 0.000000 0.000000 0.000000 0.000000 0.068002 0.000000
# 6 0.000000 0.000000 0.000000 0.000000 0.000000 0.038500
#
#
# Mechanical properties :
#
#
# Convention : Reuss Voigt Hill
#
# Bulk Modulus (GPa) = 51.49571 52.73529 52.11550
# Shear Modulus (GPa) = 16.96810 18.14721 17.55766
#
# Velocity S-wave (km/s) = 3.09625 3.20202 3.14958
# Velocity P-wave (km/s) = 6.47122 6.59282 6.53230
#
# Compressibility (1/GPa) = 0.01941909
#
# Stress axis : x y z
#
# Youngs Moduli (GPa) = 42.72219 42.72256 50.65081
#
# Poissons Ratio (x) = 0.55471 0.26807
# Poissons Ratio (y) = 0.55471 0.26806
# Poissons Ratio (z) = 0.22611 0.22611
#
# Static dielectric constant tensor:
#      x y z
#    x 1.622260 0.000000 0.000000 
#    y 0.000000 1.622260 0.000000 
#    z 0.000000 0.000000 1.608100 
# 
# From -- ./inp_files/8874.got.cif
#   From: 2010.05.17/outbox.cif.g08.bks.cpg/sg119_5_cif.got.tgz:8874.got - 2010.05.20 11:21:29.
