data_PCOD9559947
_publ_section_title
;
Structure prediction by ZEFSAII (Michael W. Deem and Ramdas Pophale) SiO2 
 PCOD9559947
Probable space group: I -4 C 2
;
_chemical_formula_sum "Si O2"
_cell_formula_units_Z 92
_cell_length_a 14.323414
_cell_length_b 14.323414
_cell_length_c 20.401196
_cell_angle_alpha 90.000000
_cell_angle_beta 90.000000
_cell_angle_gamma 90.000000
_cell_volume 4185.513219
_symmetry_space_group_name_H-M "I -4 C 2"
_symmetry_group_IT_number 120
_symmetry_cell_setting 'tetragonal'
loop_
_space_group_symop_operation_xyz
x,y,z
y,-x,-z
-x,-y,z
-y,x,-z
y,x,1/2-z
-y,-x,1/2-z
-x,y,1/2+z
x,-y,1/2+z
1/2+x,1/2+y,1/2+z
1/2+y,1/2-x,1/2-z
1/2-x,1/2-y,1/2+z
1/2-y,1/2+x,1/2-z
1/2+y,1/2+x,-z
1/2-y,1/2-x,-z
1/2-x,1/2+y,z
1/2+x,1/2-y,z
loop_
_atom_site_type_symbol
_atom_site_label
_atom_site_fract_x
_atom_site_fract_y
_atom_site_fract_z
Si Si1 0.500000 0.500000 0.000000
Si Si2 0.310128 0.402066 0.690567
Si Si3 0.955927 0.636288 0.234013
Si Si4 0.814448 0.314448 0.000000
Si Si5 0.664982 0.617127 0.941013
Si Si6 0.072575 0.087708 0.826415
Si Si7 0.954992 0.270441 0.105342
O O1 0.569238 0.564330 0.958342
O O2 0.382175 0.382175 0.750000
O O3 0.211021 0.395791 0.725413
O O4 0.339801 0.334940 0.632198
O O5 0.324201 0.505581 0.661179
O O6 0.895951 0.543945 0.222085
O O7 0.001176 0.678618 0.168446
O O8 0.828151 0.205423 0.986849
O O9 0.828751 0.377994 0.935142
O O10 0.745393 0.540050 0.943596
O O11 0.097790 0.097790 0.750000
O O12 0.167360 0.078356 0.868014
O O13 0.000000 0.000000 0.833248
#
# Coordination Sequence:
#
# PCOD9559947 Si02
#       7
#     4  16  16   8  16  16  16
#     4  12  24  48  74  96 140 208 232 290 352 428
#     4  12  21  40  73 110 133 169 227 298 367 410
#     4  11  25  46  67  98 144 186 226 282 363 430
#     4  12  30  44  66 108 142 190 246 284 348 432
#     4  12  24  45  72 101 142 182 238 295 356 418
#     4  11  17  34  68 110 140 167 213 292 361 410
#     4  12  24  46  67 100 148 181 236 298 341 428
#
# _framework density 21.980578000000001
#
# number of rings (size 3 to 8) (size 9 to 14) (size 15 to 20)
#    0.000    0.348    8.696    2.087    0.000    1.391 
#    3.130    1.739    0.000    1.043    0.000    0.000 
#    0.000    0.000    0.000    0.000    0.000    0.000 
#
# Total GULP energy -256838.048092 kJ/mol
# GULP energy per Si atom -5583.435828 kJ/mol
# Density = 2.193055 g / cm^3
# Si number density = 21.980578 Si / 1000 Ang^3
#
#
#
# Elastic Constant Matrix: (Units=GPa)
#
#
# Indices 1 2 3 4 5 6 
#
# 1 67.7688 17.0687 15.3889 0.0000 0.0000 0.0000
# 2 17.0687 67.7688 15.3889 0.0000 0.0000 0.0000
# 3 15.3889 15.3889 82.8705 0.0000 0.0000 0.0000
# 4 0.0000 0.0000 0.0000 23.0759 0.0000 0.0000
# 5 0.0000 0.0000 0.0000 0.0000 23.0759 0.0000
# 6 0.0000 0.0000 0.0000 0.0000 0.0000 24.5253
#
#
#
# Elastic Compliance Matrix: (Units=1/GPa)
#
#
# Indices 1 2 3 4 5 6 
#
# 1 0.016181 -0.003543 -0.002347 0.000000 0.000000 0.000000
# 2 -0.003543 0.016181 -0.002347 0.000000 0.000000 0.000000
# 3 -0.002347 -0.002347 0.012939 0.000000 0.000000 0.000000
# 4 0.000000 0.000000 0.000000 0.043335 0.000000 0.000000
# 5 0.000000 0.000000 0.000000 0.000000 0.043335 0.000000
# 6 0.000000 0.000000 0.000000 0.000000 0.000000 0.040774
#
#
# Mechanical properties :
#
#
# Convention : Reuss Voigt Hill
#
# Bulk Modulus (GPa) = 34.68832 34.90011 34.79422
# Shear Modulus (GPa) = 25.14733 25.50621 25.32677
#
# Velocity S-wave (km/s) = 3.38608 3.41016 3.39814
# Velocity P-wave (km/s) = 5.57701 5.60515 5.59110
#
# Compressibility (1/GPa) = 0.02882814
#
# Stress axis : x y z
#
# Youngs Moduli (GPa) = 61.79983 61.79983 77.28759
#
# Poissons Ratio (x) = 0.21893 0.18139
# Poissons Ratio (y) = 0.21893 0.18139
# Poissons Ratio (z) = 0.14504 0.14504
#
# Static dielectric constant tensor:
#      x y z
#    x 1.844420 0.000000 0.000000 
#    y 0.000000 1.844420 0.000000 
#    z 0.000000 0.000000 1.857790 
# 
# From -- ./inp_files/5405.got.cif
#   From: 2010.05.17/outbox.cif.g08.bks.cpg/sg120_3_cif.got.tgz:5405.got - 2010.05.20 11:28:13.
