data_PCOD9559329
_publ_section_title
;
Structure prediction by ZEFSAII (Michael W. Deem and Ramdas Pophale) SiO2 
 PCOD9559329
Probable space group: I -4 M 2
;
_chemical_formula_sum "Si O2"
_cell_formula_units_Z 112
_cell_length_a 15.011570
_cell_length_b 15.011570
_cell_length_c 24.685301
_cell_angle_alpha 90.000000
_cell_angle_beta 90.000000
_cell_angle_gamma 90.000000
_cell_volume 5562.764297
_symmetry_space_group_name_H-M "I -4 M 2"
_symmetry_group_IT_number 119
_symmetry_cell_setting 'tetragonal'
loop_
_space_group_symop_operation_xyz
x,y,z
y,-x,-z
-x,-y,z
-y,x,-z
y,x,-z
-y,-x,-z
-x,y,z
x,-y,z
1/2+x,1/2+y,1/2+z
1/2+y,1/2-x,1/2-z
1/2-x,1/2-y,1/2+z
1/2-y,1/2+x,1/2-z
1/2+y,1/2+x,1/2-z
1/2-y,1/2-x,1/2-z
1/2-x,1/2+y,1/2+z
1/2+x,1/2-y,1/2+z
loop_
_atom_site_type_symbol
_atom_site_label
_atom_site_fract_x
_atom_site_fract_y
_atom_site_fract_z
Si Si1 0.600430 0.656711 0.235877
Si Si2 0.404123 0.212995 0.784965
Si Si3 0.396856 0.602981 0.934014
Si Si4 0.142923 0.404676 0.808697
Si Si5 0.767777 0.267080 0.437562
Si Si6 0.399180 0.720275 0.358850
Si Si7 0.399587 0.101932 0.895006
O O1 0.500000 0.622691 0.227866
O O2 0.681137 0.600883 0.212201
O O3 0.606582 0.753181 0.207137
O O4 0.614319 0.670437 0.300816
O O5 0.500000 0.186901 0.760314
O O6 0.322298 0.177703 0.750000
O O7 0.397299 0.162717 0.841541
O O8 0.500000 0.623790 0.917571
O O9 0.376640 0.500000 0.917028
O O10 0.324313 0.678633 0.918439
O O11 0.396956 0.603045 0.000000
O O12 0.130151 0.500000 0.835416
O O13 0.097518 0.402483 0.750000
O O14 0.106020 0.324002 0.842837
O O15 0.745183 0.254818 0.500000
O O16 0.682110 0.289580 0.400520
O O17 0.832448 0.351480 0.434848
O O18 0.500000 0.698640 0.377844
O O19 0.500000 0.104602 0.916465
O O20 0.377459 0.000000 0.882109
#
# Coordination Sequence:
#
# PCOD9559329 Si02
#       7
#    16  16  16  16  16  16  16
#     4   9  18  34  56  81 112 148 182 222 281 352
#     4  11  21  34  57  87 118 152 190 233 285 350
#     4   8  15  30  52  77 104 134 175 233 300 365
#     4   9  16  28  49  74 103 141 177 209 257 329
#     4  11  22  36  58  81 106 150 204 253 297 341
#     4  10  21  35  51  76 110 146 186 234 286 338
#     4  10  22  40  61  87 120 155 192 238 294 353
#
# _framework density 20.133875
#
# number of rings (size 3 to 8) (size 9 to 14) (size 15 to 20)
#    0.000    2.286    0.000    5.571    0.000    3.714 
#    0.000    0.714    0.000    2.143    0.000    1.000 
#    0.000    0.000    0.000    0.000    0.000    0.000 
#
# Total GULP energy -312509.867212 kJ/mol
# GULP energy per Si atom -5580.533343 kJ/mol
# Density = 2.008805 g / cm^3
# Si number density = 20.133875 Si / 1000 Ang^3
#
#
#
# Elastic Constant Matrix: (Units=GPa)
#
#
# Indices 1 2 3 4 5 6 
#
# 1 101.2139 63.1805 38.7971 0.0000 0.0000 0.0000
# 2 63.1805 101.2147 38.7959 0.0000 0.0000 0.0000
# 3 38.7971 38.7959 57.1014 0.0000 0.0000 0.0000
# 4 0.0000 0.0000 0.0000 11.6122 0.0000 0.0000
# 5 0.0000 0.0000 0.0000 0.0000 11.6070 0.0000
# 6 0.0000 0.0000 0.0000 0.0000 0.0000 19.7518
#
#
#
# Elastic Compliance Matrix: (Units=1/GPa)
#
#
# Indices 1 2 3 4 5 6 
#
# 1 0.017624 -0.008669 -0.006084 0.000000 0.000000 0.000000
# 2 -0.008669 0.017623 -0.006083 0.000000 0.000000 0.000000
# 3 -0.006084 -0.006083 0.025780 0.000000 0.000000 0.000000
# 4 0.000000 0.000000 0.000000 0.086116 0.000000 0.000000
# 5 0.000000 0.000000 0.000000 0.000000 0.086155 0.000000
# 6 0.000000 0.000000 0.000000 0.000000 0.000000 0.050628
#
#
# Mechanical properties :
#
#
# Convention : Reuss Voigt Hill
#
# Bulk Modulus (GPa) = 51.67130 60.11967 55.89548
# Shear Modulus (GPa) = 15.05792 16.51130 15.78461
#
# Velocity S-wave (km/s) = 2.73772 2.86680 2.80301
# Velocity P-wave (km/s) = 5.97604 6.39397 6.18854
#
# Compressibility (1/GPa) = 0.01935310
#
# Stress axis : x y z
#
# Youngs Moduli (GPa) = 56.74163 56.74347 38.78981
#
# Poissons Ratio (x) = 0.49191 0.23601
# Poissons Ratio (y) = 0.49189 0.23598
# Poissons Ratio (z) = 0.34524 0.34520
#
# Static dielectric constant tensor:
#      x y z
#    x 1.754630 0.000000 0.000000 
#    y 0.000000 1.754630 0.000000 
#    z 0.000000 0.000000 1.718860 
# 
# From -- ./inp_files/9650.got.cif
#   From: 2010.05.17/outbox.cif.g08.bks.cpg/sg119_5_cif.got.tgz:9650.got - 2010.05.20 11:21:29.
