data_PCOD9559650
_publ_section_title
;
Structure prediction by ZEFSAII (Michael W. Deem and Ramdas Pophale) SiO2 
 PCOD9559650
Probable space group: I -4 C 2
;
_chemical_formula_sum "Si O2"
_cell_formula_units_Z 88
_cell_length_a 13.805291
_cell_length_b 13.805291
_cell_length_c 21.204442
_cell_angle_alpha 90.000000
_cell_angle_beta 90.000000
_cell_angle_gamma 90.000000
_cell_volume 4041.271047
_symmetry_space_group_name_H-M "I -4 C 2"
_symmetry_group_IT_number 120
_symmetry_cell_setting 'tetragonal'
loop_
_space_group_symop_operation_xyz
x,y,z
y,-x,-z
-x,-y,z
-y,x,-z
y,x,1/2-z
-y,-x,1/2-z
-x,y,1/2+z
x,-y,1/2+z
1/2+x,1/2+y,1/2+z
1/2+y,1/2-x,1/2-z
1/2-x,1/2-y,1/2+z
1/2-y,1/2+x,1/2-z
1/2+y,1/2+x,-z
1/2-y,1/2-x,-z
1/2-x,1/2+y,z
1/2+x,1/2-y,z
loop_
_atom_site_type_symbol
_atom_site_label
_atom_site_fract_x
_atom_site_fract_y
_atom_site_fract_z
Si Si1 0.311849 0.943056 0.359014
Si Si2 0.817884 0.338156 0.366393
Si Si3 0.573379 0.770288 0.007121
Si Si4 0.228482 0.896020 0.628701
Si Si5 0.374329 0.874329 0.000000
Si Si6 0.704306 0.562214 0.226719
O O1 0.238504 0.935646 0.419642
O O2 0.377120 0.845936 0.366144
O O3 0.263756 0.942828 0.291145
O O4 0.356865 0.051512 0.360030
O O5 0.703088 0.328927 0.360400
O O6 0.840679 0.315564 0.438854
O O7 0.863318 0.263035 0.318049
O O8 0.486916 0.849091 0.004804
O O9 0.674716 0.825285 0.000000
O O10 0.566206 0.708720 0.942884
O O11 0.200499 0.967554 0.684401
O O12 0.602271 0.602271 0.250000
#
# Coordination Sequence:
#
# PCOD9559650 Si02
#       6
#    16  16  16  16   8  16
#     4  10  23  39  65  97 133 175 225 283 344 409
#     4  11  24  41  68  98 134 180 235 288 349 428
#     4   9  19  36  62  97 132 173 223 276 345 415
#     4  11  23  43  67  96 139 179 229 284 347 418
#     4  10  19  38  66  96 128 177 226 286 350 412
#     4  12  24  42  67  98 137 177 226 282 349 427
#
# _framework density 21.775326
#
# number of rings (size 3 to 8) (size 9 to 14) (size 15 to 20)
#    0.000    1.455    3.636    1.364    3.818    0.727 
#    0.000    3.636    0.000    0.000    0.000    0.000 
#    0.000    0.000    0.000    0.000    0.000    0.000 
#
# Total GULP energy -245303.751358 kJ/mol
# GULP energy per Si atom -5575.085258 kJ/mol
# Density = 2.172576 g / cm^3
# Si number density = 21.775326 Si / 1000 Ang^3
#
#
#
# Elastic Constant Matrix: (Units=GPa)
#
#
# Indices 1 2 3 4 5 6 
#
# 1 143.0262 -65.1557 30.1967 0.0000 0.0000 0.0000
# 2 -65.1557 143.0506 30.2085 0.0000 0.0000 0.0000
# 3 30.1967 30.2085 210.0177 0.0000 0.0000 0.0000
# 4 0.0000 0.0000 0.0000 20.6238 0.0000 0.0000
# 5 0.0000 0.0000 0.0000 0.0000 20.6233 0.0000
# 6 0.0000 0.0000 0.0000 0.0000 0.0000 14.9374
#
#
#
# Elastic Compliance Matrix: (Units=1/GPa)
#
#
# Indices 1 2 3 4 5 6 
#
# 1 0.009628 0.004824 -0.002078 0.000000 0.000000 0.000000
# 2 0.004824 0.009627 -0.002078 0.000000 0.000000 0.000000
# 3 -0.002078 -0.002078 0.005359 0.000000 0.000000 0.000000
# 4 0.000000 0.000000 0.000000 0.048488 0.000000 0.000000
# 5 0.000000 0.000000 0.000000 0.000000 0.048489 0.000000
# 6 0.000000 0.000000 0.000000 0.000000 0.000000 0.066946
#
#
# Mechanical properties :
#
#
# Convention : Reuss Voigt Hill
#
# Bulk Modulus (GPa) = 38.53635 54.06596 46.30115
# Shear Modulus (GPa) = 25.52959 44.62657 35.07808
#
# Velocity S-wave (km/s) = 3.42776 4.53195 4.01797
# Velocity P-wave (km/s) = 5.77942 7.22964 6.54482
#
# Compressibility (1/GPa) = 0.02594953
#
# Stress axis : x y z
#
# Youngs Moduli (GPa) = 103.86152 103.87728 186.59280
#
# Poissons Ratio (x) = -0.50113 0.38779
# Poissons Ratio (y) = -0.50106 0.38780
# Poissons Ratio (z) = 0.21585 0.21589
#
# Static dielectric constant tensor:
#      x y z
#    x 1.827570 0.000000 0.000000 
#    y 0.000000 1.827570 0.000000 
#    z 0.000000 0.000000 1.747880 
# 
# From -- ./inp_files/5290.got.cif
#   From: 2010.05.17/outbox.cif.g08.bks.cpg/sg120_3_cif.got.tgz:5290.got - 2010.05.20 11:28:13.
