data_PCOD9559381
_publ_section_title
;
Structure prediction by ZEFSAII (Michael W. Deem and Ramdas Pophale) SiO2 
 PCOD9559381
Probable space group: I -4 M 2
;
_chemical_formula_sum "Si O2"
_cell_formula_units_Z 72
_cell_length_a 14.783121
_cell_length_b 14.783121
_cell_length_c 16.314780
_cell_angle_alpha 90.000000
_cell_angle_beta 90.000000
_cell_angle_gamma 90.000000
_cell_volume 3565.442895
_symmetry_space_group_name_H-M "I -4 M 2"
_symmetry_group_IT_number 119
_symmetry_cell_setting 'tetragonal'
loop_
_space_group_symop_operation_xyz
x,y,z
y,-x,-z
-x,-y,z
-y,x,-z
y,x,-z
-y,-x,-z
-x,y,z
x,-y,z
1/2+x,1/2+y,1/2+z
1/2+y,1/2-x,1/2-z
1/2-x,1/2-y,1/2+z
1/2-y,1/2+x,1/2-z
1/2+y,1/2+x,1/2-z
1/2-y,1/2-x,1/2-z
1/2-x,1/2+y,1/2+z
1/2+x,1/2-y,1/2+z
loop_
_atom_site_type_symbol
_atom_site_label
_atom_site_fract_x
_atom_site_fract_y
_atom_site_fract_z
Si Si1 0.392801 0.100478 0.393947
Si Si2 0.255403 0.600744 0.028516
Si Si3 0.106781 0.106781 0.000000
Si Si4 0.604417 0.753994 0.776426
Si Si5 0.607958 0.707504 0.329309
O O1 0.500000 0.104617 0.409570
O O2 0.337604 0.109940 0.478230
O O3 0.370571 0.186208 0.337992
O O4 0.372330 0.000000 0.358971
O O5 0.290568 0.500000 0.008659
O O6 0.246409 0.607520 0.125509
O O7 0.323614 0.676386 0.000000
O O8 0.128788 0.163785 0.918844
O O9 0.000000 0.120361 0.017677
O O10 0.500000 0.751193 0.749934
O O11 0.655741 0.844260 0.750000
O O12 0.657554 0.669354 0.737103
O O13 0.500000 0.696013 0.314515
#
# Coordination Sequence:
#
# PCOD9559381 Si02
#       5
#    16  16   8  16  16
#     4   9  19  37  63  94 124 158 203 251 305 373
#     4  10  22  40  61  86 117 157 203 248 295 356
#     4   9  18  32  54  88 124 158 197 246 312 380
#     4  11  25  41  60  90 126 163 207 256 309 372
#     4  10  21  38  64  94 124 160 202 259 323 376
#
# _framework density 20.193846000000001
#
# number of rings (size 3 to 8) (size 9 to 14) (size 15 to 20)
#    0.000    2.111    0.000    2.000    4.667    3.556 
#    0.000    5.556    0.000    1.333    0.000    6.222 
#    0.000    0.000    0.000    0.000    0.000    0.000 
#
# Total GULP energy -201215.509043 kJ/mol
# GULP energy per Si atom -5589.319696 kJ/mol
# Density = 2.014788 g / cm^3
# Si number density = 20.193846 Si / 1000 Ang^3
#
#
#
# Elastic Constant Matrix: (Units=GPa)
#
#
# Indices 1 2 3 4 5 6 
#
# 1 115.1871 75.7973 50.3757 0.0000 0.0000 0.0000
# 2 75.7973 115.1843 50.3740 0.0000 0.0000 0.0000
# 3 50.3757 50.3740 57.4485 0.0000 0.0000 0.0000
# 4 0.0000 0.0000 0.0000 27.1862 0.0000 0.0000
# 5 0.0000 0.0000 0.0000 0.0000 27.1871 0.0000
# 6 0.0000 0.0000 0.0000 0.0000 0.0000 30.0429
#
#
#
# Elastic Compliance Matrix: (Units=1/GPa)
#
#
# Indices 1 2 3 4 5 6 
#
# 1 0.017566 -0.007823 -0.008544 0.000000 0.000000 0.000000
# 2 -0.007823 0.017566 -0.008543 0.000000 0.000000 0.000000
# 3 -0.008544 -0.008543 0.032390 0.000000 0.000000 0.000000
# 4 0.000000 0.000000 0.000000 0.036783 0.000000 0.000000
# 5 0.000000 0.000000 0.000000 0.000000 0.036782 0.000000
# 6 0.000000 0.000000 0.000000 0.000000 0.000000 0.033286
#
#
# Mechanical properties :
#
#
# Convention : Reuss Voigt Hill
#
# Bulk Modulus (GPa) = 56.48977 71.21265 63.85121
# Shear Modulus (GPa) = 21.73053 24.30143 23.01598
#
# Velocity S-wave (km/s) = 3.28395 3.47278 3.37968
# Velocity P-wave (km/s) = 6.51257 7.17087 6.84963
#
# Compressibility (1/GPa) = 0.01770232
#
# Stress axis : x y z
#
# Youngs Moduli (GPa) = 56.92954 56.92970 30.87419
#
# Poissons Ratio (x) = 0.44534 0.26378
# Poissons Ratio (y) = 0.44534 0.26375
# Poissons Ratio (z) = 0.48639 0.48634
#
# Static dielectric constant tensor:
#      x y z
#    x 1.718000 0.000000 0.000000 
#    y 0.000000 1.718000 0.000000 
#    z 0.000000 0.000000 1.672240 
# 
# From -- ./inp_files/6421.got.cif
#   From: 2010.05.17/outbox.cif.g08.bks.cpg/sg119_4_cif.got.tgz:6421.got - 2010.05.20 11:21:29.
