data_PCOD9559063
_publ_section_title
;
Structure prediction by ZEFSAII (Michael W. Deem and Ramdas Pophale) SiO2 
 PCOD9559063
Probable space group: I -4 M 2
;
_chemical_formula_sum "Si O2"
_cell_formula_units_Z 80
_cell_length_a 14.632834
_cell_length_b 14.632834
_cell_length_c 19.539705
_cell_angle_alpha 90.000000
_cell_angle_beta 90.000000
_cell_angle_gamma 90.000000
_cell_volume 4183.838330
_symmetry_space_group_name_H-M "I -4 M 2"
_symmetry_group_IT_number 119
_symmetry_cell_setting 'tetragonal'
loop_
_space_group_symop_operation_xyz
x,y,z
y,-x,-z
-x,-y,z
-y,x,-z
y,x,-z
-y,-x,-z
-x,y,z
x,-y,z
1/2+x,1/2+y,1/2+z
1/2+y,1/2-x,1/2-z
1/2-x,1/2-y,1/2+z
1/2-y,1/2+x,1/2-z
1/2+y,1/2+x,1/2-z
1/2-y,1/2-x,1/2-z
1/2-x,1/2+y,1/2+z
1/2+x,1/2-y,1/2+z
loop_
_atom_site_type_symbol
_atom_site_label
_atom_site_fract_x
_atom_site_fract_y
_atom_site_fract_z
Si Si1 0.098417 0.607290 0.559451
Si Si2 0.733742 0.604943 0.046636
Si Si3 0.891059 0.197709 0.934386
Si Si4 0.889353 0.268065 0.297745
Si Si5 0.398308 0.390977 0.293776
O O1 0.098035 0.500000 0.542571
O O2 0.100130 0.670527 0.493015
O O3 0.198151 0.624850 0.590898
O O4 0.000000 0.626662 0.595116
O O5 0.697796 0.500000 0.051814
O O6 0.756846 0.639044 0.123004
O O7 0.666127 0.666127 0.000000
O O8 0.869931 0.133293 0.870615
O O9 0.000000 0.188058 0.950932
O O10 0.831795 0.168206 0.000000
O O11 0.846707 0.346707 0.250000
O O12 0.859232 0.174945 0.260591
O O13 0.000000 0.276410 0.297227
O O14 0.500000 0.352957 0.282721
O O15 0.402620 0.500000 0.287727
#
# Coordination Sequence:
#
# PCOD9559063 Si02
#       5
#    16  16  16  16  16
#     4   9  19  34  52  78 112 147 183 226 276 329
#     4  10  22  39  59  85 114 150 199 250 293 340
#     4  10  19  30  52  82 111 144 180 225 278 337
#     4  10  23  39  58  85 119 157 194 239 294 353
#     4   9  19  36  56  81 113 145 180 225 283 346
#
# _framework density 19.121196999999999
#
# number of rings (size 3 to 8) (size 9 to 14) (size 15 to 20)
#    0.000    2.400    0.000    1.200    5.600    3.000 
#    0.000    4.000    0.000    0.000    0.000    0.000 
#    0.000    6.400    0.000    0.000    0.000    0.000 
#
# Total GULP energy -222718.348597 kJ/mol
# GULP energy per Si atom -5567.958715 kJ/mol
# Density = 1.907768 g / cm^3
# Si number density = 19.121197 Si / 1000 Ang^3
#
#
#
# Elastic Constant Matrix: (Units=GPa)
#
#
# Indices 1 2 3 4 5 6 
#
# 1 33.7979 15.0314 7.3857 0.0000 0.0000 0.0000
# 2 15.0314 33.7997 7.3848 0.0000 0.0000 0.0000
# 3 7.3857 7.3848 46.0934 0.0000 0.0000 0.0000
# 4 0.0000 0.0000 0.0000 15.7081 0.0000 0.0000
# 5 0.0000 0.0000 0.0000 0.0000 15.7083 0.0000
# 6 0.0000 0.0000 0.0000 0.0000 0.0000 25.3916
#
#
#
# Elastic Compliance Matrix: (Units=1/GPa)
#
#
# Indices 1 2 3 4 5 6 
#
# 1 0.037404 -0.015881 -0.003449 0.000000 0.000000 0.000000
# 2 -0.015881 0.037402 -0.003448 0.000000 0.000000 0.000000
# 3 -0.003449 -0.003448 0.022800 0.000000 0.000000 0.000000
# 4 0.000000 0.000000 0.000000 0.063661 0.000000 0.000000
# 5 0.000000 0.000000 0.000000 0.000000 0.063661 0.000000
# 6 0.000000 0.000000 0.000000 0.000000 0.000000 0.039383
#
#
# Mechanical properties :
#
#
# Convention : Reuss Voigt Hill
#
# Bulk Modulus (GPa) = 19.21190 19.25498 19.23344
# Shear Modulus (GPa) = 15.28041 16.95423 16.11732
#
# Velocity S-wave (km/s) = 2.82996 2.98093 2.90643
# Velocity P-wave (km/s) = 4.55494 4.68399 4.61992
#
# Compressibility (1/GPa) = 0.05205107
#
# Stress axis : x y z
#
# Youngs Moduli (GPa) = 26.73497 26.73671 43.85947
#
# Poissons Ratio (x) = 0.42460 0.15127
# Poissons Ratio (y) = 0.42457 0.15121
# Poissons Ratio (z) = 0.09221 0.09218
#
# Static dielectric constant tensor:
#      x y z
#    x 1.716420 0.000000 0.000000 
#    y 0.000000 1.716420 0.000000 
#    z 0.000000 0.000000 1.643470 
# 
# From -- ./inp_files/7566.got.cif
#   From: 2010.05.17/outbox.cif.g08.bks.cpg/sg119_4_cif.got.tgz:7566.got - 2010.05.20 11:21:29.
