data_PCOD9559562
_publ_section_title
;
Structure prediction by ZEFSAII (Michael W. Deem and Ramdas Pophale) SiO2 
 PCOD9559562
Probable space group: I -4 C 2
;
_chemical_formula_sum "Si O2"
_cell_formula_units_Z 96
_cell_length_a 25.184093
_cell_length_b 25.184093
_cell_length_c 9.162286
_cell_angle_alpha 90.000000
_cell_angle_beta 90.000000
_cell_angle_gamma 90.000000
_cell_volume 5811.074898
_symmetry_space_group_name_H-M "I -4 C 2"
_symmetry_group_IT_number 120
_symmetry_cell_setting 'tetragonal'
loop_
_space_group_symop_operation_xyz
x,y,z
y,-x,-z
-x,-y,z
-y,x,-z
y,x,1/2-z
-y,-x,1/2-z
-x,y,1/2+z
x,-y,1/2+z
1/2+x,1/2+y,1/2+z
1/2+y,1/2-x,1/2-z
1/2-x,1/2-y,1/2+z
1/2-y,1/2+x,1/2-z
1/2+y,1/2+x,-z
1/2-y,1/2-x,-z
1/2-x,1/2+y,z
1/2+x,1/2-y,z
loop_
_atom_site_type_symbol
_atom_site_label
_atom_site_fract_x
_atom_site_fract_y
_atom_site_fract_z
Si Si1 0.036994 0.164018 0.500000
Si Si2 0.133717 0.720377 0.500000
Si Si3 0.215407 0.099639 0.754212
Si Si4 0.188527 0.774666 0.000000
Si Si5 0.715407 0.599640 0.745788
Si Si6 0.415606 0.634038 1.000000
O O1 0.050859 0.200943 0.639072
O O2 0.050859 0.200943 0.360928
O O3 0.078777 0.115162 0.500001
O O4 0.979142 0.138334 0.500000
O O5 0.164564 0.664564 0.500000
O O6 0.100051 0.734063 0.354660
O O7 0.180662 0.765539 0.500000
O O8 0.100051 0.734063 0.645340
O O9 0.220838 0.150281 0.860272
O O10 0.166426 0.101916 0.642307
O O11 0.219098 0.719098 0.000000
O O12 0.150281 0.779162 0.860272
O O13 0.666426 0.601917 0.857693
#
# Coordination Sequence:
#
# PCOD9559562 Si02
#       6
#    16  16  16  16  16  16
#     4  11  21  33  47  60  78 108 147 193 241 275
#     4  10  17  26  43  65  86 106 126 153 202 269
#     4  10  19  31  44  61  84 106 132 171 221 271
#     4  10  17  26  43  65  86 106 126 153 202 269
#     4  10  19  31  44  61  84 106 132 171 221 271
#     4  11  21  33  47  60  78 108 147 193 241 275
#
# _framework density 16.520178999999999
#
# number of rings (size 3 to 8) (size 9 to 14) (size 15 to 20)
#    0.000    1.667    0.000   10.000    0.000    3.000 
#    0.000    0.000    0.000    4.000    0.000    0.000 
#    0.000    0.000    0.000    0.000    0.000    0.000 
#
# Total GULP energy -267687.293934 kJ/mol
# GULP energy per Si atom -5576.818624 kJ/mol
# Density = 1.648258 g / cm^3
# Si number density = 16.520179 Si / 1000 Ang^3
#
#
#
# Elastic Constant Matrix: (Units=GPa)
#
#
# Indices 1 2 3 4 5 6 
#
# 1 56.8554 58.7737 32.9156 0.0000 0.0000 0.0000
# 2 58.7737 56.8554 32.9156 0.0000 0.0000 0.0000
# 3 32.9156 32.9156 131.7509 0.0000 0.0000 0.0000
# 4 0.0000 0.0000 0.0000 17.8133 0.0000 0.0000
# 5 0.0000 0.0000 0.0000 0.0000 17.8133 0.0000
# 6 0.0000 0.0000 0.0000 0.0000 0.0000 9.9816
#
#
#
# Elastic Compliance Matrix: (Units=1/GPa)
#
#
# Indices 1 2 3 4 5 6 
#
# 1 -0.255603 0.265686 -0.002519 0.000000 0.000000 0.000000
# 2 0.265686 -0.255603 -0.002519 0.000000 0.000000 0.000000
# 3 -0.002519 -0.002519 0.008849 0.000000 0.000000 0.000000
# 4 0.000000 0.000000 0.000000 0.056138 0.000000 0.000000
# 5 0.000000 0.000000 0.000000 0.000000 0.056138 0.000000
# 6 0.000000 0.000000 0.000000 0.000000 0.000000 0.100184
#
#
# Mechanical properties :
#
#
# Convention : Reuss Voigt Hill
#
# Bulk Modulus (GPa) = 52.80416 54.96350 53.88383
# Shear Modulus (GPa) = -6.21210 17.17874 5.48332
#
# Velocity S-wave (km/s) = -1.94126 3.22819 1.82383
# Velocity P-wave (km/s) = 5.19694 6.87297 6.09286
#
# Compressibility (1/GPa) = 0.01893790
#
# Stress axis : x y z
#
# Youngs Moduli (GPa) = -3.91231 -3.91231 113.01106
#
# Poissons Ratio (x) = 1.03945 0.28467
# Poissons Ratio (y) = 1.03945 0.28467
# Poissons Ratio (z) = -0.00985 -0.00985
#
# Static dielectric constant tensor:
#      x y z
#    x 1.574600 0.000000 0.000000 
#    y 0.000000 1.574600 0.000000 
#    z 0.000000 0.000000 1.631970 
# 
# From -- ./inp_files/1622.got.cif
#   From: 2010.05.17/outbox.cif.g08.bks.cpg/sg120_1_cif.got.tgz:1622.got - 2010.05.20 11:28:13.
