data_PCOD9559663
_publ_section_title
;
Structure prediction by ZEFSAII (Michael W. Deem and Ramdas Pophale) SiO2 
 PCOD9559663
Probable space group: I -4 C 2
;
_chemical_formula_sum "Si O2"
_cell_formula_units_Z 96
_cell_length_a 15.724255
_cell_length_b 15.724255
_cell_length_c 19.250316
_cell_angle_alpha 90.000000
_cell_angle_beta 90.000000
_cell_angle_gamma 90.000000
_cell_volume 4759.682891
_symmetry_space_group_name_H-M "I -4 C 2"
_symmetry_group_IT_number 120
_symmetry_cell_setting 'tetragonal'
loop_
_space_group_symop_operation_xyz
x,y,z
y,-x,-z
-x,-y,z
-y,x,-z
y,x,1/2-z
-y,-x,1/2-z
-x,y,1/2+z
x,-y,1/2+z
1/2+x,1/2+y,1/2+z
1/2+y,1/2-x,1/2-z
1/2-x,1/2-y,1/2+z
1/2-y,1/2+x,1/2-z
1/2+y,1/2+x,-z
1/2-y,1/2-x,-z
1/2-x,1/2+y,z
1/2+x,1/2-y,z
loop_
_atom_site_type_symbol
_atom_site_label
_atom_site_fract_x
_atom_site_fract_y
_atom_site_fract_z
Si Si1 0.678245 0.416541 0.447282
Si Si2 0.723653 0.530458 0.564497
Si Si3 0.151737 0.848264 0.750000
Si Si4 0.467718 0.655102 0.676038
Si Si5 0.707953 0.576190 0.189161
Si Si6 0.731852 0.749315 0.625957
Si Si7 0.830404 0.669597 0.500000
O O1 0.697041 0.445296 0.524491
O O2 0.595455 0.356234 0.440608
O O3 0.670233 0.502302 0.401946
O O4 0.751446 0.357278 0.415633
O O5 0.740346 0.501774 0.643188
O O6 0.801731 0.576156 0.524740
O O7 0.180631 0.785766 0.812782
O O8 0.058442 0.849735 0.715350
O O9 0.425652 0.723956 0.728067
O O10 0.395699 0.581688 0.678040
O O11 0.745580 0.662233 0.159630
O O12 0.801099 0.723187 0.568057
#
# Coordination Sequence:
#
# PCOD9559663 Si02
#       7
#    16  16   8  16  16  16   8
#     4  10  21  35  53  79 109 143 183 233 287 347
#     4  11  22  35  55  81 110 147 187 231 294 352
#     4  10  20  35  54  82 116 153 188 236 290 358
#     4  10  20  32  50  79 112 141 179 222 283 345
#     4  11  21  33  53  81 111 149 188 230 286 349
#     4  10  20  36  55  75 110 153 196 234 282 351
#     4  10  20  36  54  77 108 147 194 240 282 352
#
# _framework density 20.169412000000001
#
# number of rings (size 3 to 8) (size 9 to 14) (size 15 to 20)
#    0.000    1.667    0.000    8.000    0.000    6.333 
#    0.000    0.000    0.000    2.000    0.000    0.000 
#    0.000    6.000    0.000    0.000    0.000    0.000 
#
# Total GULP energy -267286.138748 kJ/mol
# GULP energy per Si atom -5568.461224 kJ/mol
# Density = 2.012351 g / cm^3
# Si number density = 20.169412 Si / 1000 Ang^3
#
#
#
# Elastic Constant Matrix: (Units=GPa)
#
#
# Indices 1 2 3 4 5 6 
#
# 1 55.0998 35.9232 11.9489 0.0000 0.0000 0.0000
# 2 35.9232 55.0990 11.9487 0.0000 0.0000 0.0000
# 3 11.9489 11.9487 85.6773 0.0000 0.0000 0.0000
# 4 0.0000 0.0000 0.0000 40.1187 0.0000 0.0000
# 5 0.0000 0.0000 0.0000 0.0000 40.1186 0.0000
# 6 0.0000 0.0000 0.0000 0.0000 0.0000 30.6713
#
#
#
# Elastic Compliance Matrix: (Units=1/GPa)
#
#
# Indices 1 2 3 4 5 6 
#
# 1 0.031776 -0.020372 -0.001590 0.000000 0.000000 0.000000
# 2 -0.020372 0.031776 -0.001590 0.000000 0.000000 0.000000
# 3 -0.001590 -0.001590 0.012115 0.000000 0.000000 0.000000
# 4 0.000000 0.000000 0.000000 0.024926 0.000000 0.000000
# 5 0.000000 0.000000 0.000000 0.000000 0.024926 0.000000
# 6 0.000000 0.000000 0.000000 0.000000 0.000000 0.032604
#
#
# Mechanical properties :
#
#
# Convention : Reuss Voigt Hill
#
# Bulk Modulus (GPa) = 35.01235 35.05751 35.03493
# Shear Modulus (GPa) = 23.28296 31.25206 27.26751
#
# Velocity S-wave (km/s) = 3.40129 3.94061 3.68084
# Velocity P-wave (km/s) = 5.72903 6.17445 5.95591
#
# Compressibility (1/GPa) = 0.02856135
#
# Stress axis : x y z
#
# Youngs Moduli (GPa) = 31.47060 31.47015 82.54018
#
# Poissons Ratio (x) = 0.64111 0.13127
# Poissons Ratio (y) = 0.64112 0.13127
# Poissons Ratio (z) = 0.05005 0.05005
#
# Static dielectric constant tensor:
#      x y z
#    x 1.742660 0.000000 0.000000 
#    y 0.000000 1.742660 0.000000 
#    z 0.000000 0.000000 1.814560 
# 
# From -- ./inp_files/5399.got.cif
#   From: 2010.05.17/outbox.cif.g08.bks.cpg/sg120_3_cif.got.tgz:5399.got - 2010.05.20 11:28:13.
