data_PCOD9559376
_publ_section_title
;
Structure prediction by ZEFSAII (Michael W. Deem and Ramdas Pophale) SiO2 
 PCOD9559376
Probable space group: I -4 M 2
;
_chemical_formula_sum "Si O2"
_cell_formula_units_Z 96
_cell_length_a 23.374446
_cell_length_b 23.374446
_cell_length_c 9.541775
_cell_angle_alpha 90.000000
_cell_angle_beta 90.000000
_cell_angle_gamma 90.000000
_cell_volume 5213.289282
_symmetry_space_group_name_H-M "I -4 M 2"
_symmetry_group_IT_number 119
_symmetry_cell_setting 'tetragonal'
loop_
_space_group_symop_operation_xyz
x,y,z
y,-x,-z
-x,-y,z
-y,x,-z
y,x,-z
-y,-x,-z
-x,y,z
x,-y,z
1/2+x,1/2+y,1/2+z
1/2+y,1/2-x,1/2-z
1/2-x,1/2-y,1/2+z
1/2-y,1/2+x,1/2-z
1/2+y,1/2+x,1/2-z
1/2-y,1/2-x,1/2-z
1/2-x,1/2+y,1/2+z
1/2+x,1/2-y,1/2+z
loop_
_atom_site_type_symbol
_atom_site_label
_atom_site_fract_x
_atom_site_fract_y
_atom_site_fract_z
Si Si1 0.933356 0.755963 0.522602
Si Si2 0.125309 0.830334 0.763497
Si Si3 0.245905 0.066712 0.010663
Si Si4 0.566748 0.435203 0.832089
Si Si5 0.754440 0.351749 0.246503
Si Si6 0.562956 0.841963 0.250534
O O1 0.906748 0.802336 0.629621
O O2 0.891193 0.748471 0.392077
O O3 0.933880 0.697916 0.613446
O O4 0.000000 0.770040 0.487351
O O5 0.096239 0.804908 0.901528
O O6 0.111973 0.897149 0.747919
O O7 0.192940 0.820055 0.758420
O O8 0.299463 0.068429 0.117483
O O9 0.233996 0.000000 0.979502
O O10 0.258850 0.104586 0.875913
O O11 0.500000 0.431702 0.798929
O O12 0.586959 0.500000 0.798355
O O13 0.572097 0.427904 0.000000
O O14 0.805834 0.305834 0.250000
O O15 0.500000 0.868729 0.255770
O O16 0.612175 0.887826 0.250000
#
# Coordination Sequence:
#
# PCOD9559376 Si02
#       6
#    16  16  16  16  16  16
#     4  10  21  38  60  81 106 147 196 237 272 329
#     4  11  22  36  56  82 112 147 187 233 285 342
#     4  10  22  40  59  78 109 152 191 229 276 338
#     4   9  17  30  51  80 111 143 187 243 290 327
#     4  12  25  38  56  85 118 151 188 235 290 345
#     4   9  18  34  57  83 109 140 178 225 282 337
#
# _framework density 18.414477999999999
#
# number of rings (size 3 to 8) (size 9 to 14) (size 15 to 20)
#    0.000    1.833    0.000    6.500    0.000    8.167 
#    0.000    0.000    0.000    0.000    0.000    2.333 
#    0.000   12.000    0.000    0.000    0.000    0.000 
#
# Total GULP energy -268108.372368 kJ/mol
# GULP energy per Si atom -5585.591091 kJ/mol
# Density = 1.837257 g / cm^3
# Si number density = 18.414478 Si / 1000 Ang^3
#
#
#
# Elastic Constant Matrix: (Units=GPa)
#
#
# Indices 1 2 3 4 5 6 
#
# 1 98.7609 53.3862 35.9986 0.0000 0.0000 0.0000
# 2 53.3862 98.7648 35.9992 0.0000 0.0000 0.0000
# 3 35.9986 35.9992 82.7973 0.0000 0.0000 0.0000
# 4 0.0000 0.0000 0.0000 15.5646 0.0000 0.0000
# 5 0.0000 0.0000 0.0000 0.0000 15.5604 0.0000
# 6 0.0000 0.0000 0.0000 0.0000 0.0000 37.7315
#
#
#
# Elastic Compliance Matrix: (Units=1/GPa)
#
#
# Indices 1 2 3 4 5 6 
#
# 1 0.015157 -0.006881 -0.003598 0.000000 0.000000 0.000000
# 2 -0.006881 0.015156 -0.003598 0.000000 0.000000 0.000000
# 3 -0.003598 -0.003598 0.015206 0.000000 0.000000 0.000000
# 4 0.000000 0.000000 0.000000 0.064248 0.000000 0.000000
# 5 0.000000 0.000000 0.000000 0.000000 0.064266 0.000000
# 6 0.000000 0.000000 0.000000 0.000000 0.000000 0.026503
#
#
# Mechanical properties :
#
#
# Convention : Reuss Voigt Hill
#
# Bulk Modulus (GPa) = 57.58735 59.01012 58.29873
# Shear Modulus (GPa) = 21.32393 24.10058 22.71225
#
# Velocity S-wave (km/s) = 3.40663 3.62164 3.51578
# Velocity P-wave (km/s) = 6.84209 7.04297 6.94326
#
# Compressibility (1/GPa) = 0.01736493
#
# Stress axis : x y z
#
# Youngs Moduli (GPa) = 65.97741 65.98002 65.76241
#
# Poissons Ratio (x) = 0.45403 0.23661
# Poissons Ratio (y) = 0.45402 0.23660
# Poissons Ratio (z) = 0.23738 0.23738
#
# Static dielectric constant tensor:
#      x y z
#    x 1.640660 0.000000 0.000000 
#    y 0.000000 1.640670 0.000000 
#    z 0.000000 0.000000 1.632140 
# 
# From -- ./inp_files/2680.got.cif
#   From: 2010.05.17/outbox.cif.g08.bks.cpg/sg119_2_cif.got.tgz:2680.got - 2010.05.20 11:21:29.
