data_PCOD9559698
_publ_section_title
;
Structure prediction by ZEFSAII (Michael W. Deem and Ramdas Pophale) SiO2 
 PCOD9559698
Probable space group: I -4 C 2
;
_chemical_formula_sum "Si O2"
_cell_formula_units_Z 88
_cell_length_a 14.049732
_cell_length_b 14.049732
_cell_length_c 19.835197
_cell_angle_alpha 90.000000
_cell_angle_beta 90.000000
_cell_angle_gamma 90.000000
_cell_volume 3915.368102
_symmetry_space_group_name_H-M "I -4 C 2"
_symmetry_group_IT_number 120
_symmetry_cell_setting 'tetragonal'
loop_
_space_group_symop_operation_xyz
x,y,z
y,-x,-z
-x,-y,z
-y,x,-z
y,x,1/2-z
-y,-x,1/2-z
-x,y,1/2+z
x,-y,1/2+z
1/2+x,1/2+y,1/2+z
1/2+y,1/2-x,1/2-z
1/2-x,1/2-y,1/2+z
1/2-y,1/2+x,1/2-z
1/2+y,1/2+x,-z
1/2-y,1/2-x,-z
1/2-x,1/2+y,z
1/2+x,1/2-y,z
loop_
_atom_site_type_symbol
_atom_site_label
_atom_site_fract_x
_atom_site_fract_y
_atom_site_fract_z
Si Si1 0.043067 0.805567 0.774928
Si Si2 0.338359 0.661642 0.750000
Si Si3 0.788884 0.350969 0.571642
Si Si4 0.844539 0.971116 0.493832
Si Si5 0.027133 0.300485 0.132360
Si Si6 0.178995 0.317464 0.361633
O O1 0.105376 0.894625 0.750000
O O2 0.034354 0.740407 0.707802
O O3 0.096899 0.750466 0.834224
O O4 0.935875 0.836046 0.791594
O O5 0.331945 0.751053 0.701861
O O6 0.838507 0.338507 0.500000
O O7 0.720257 0.438091 0.556221
O O8 0.876166 0.360454 0.622872
O O9 0.732938 0.252170 0.586803
O O10 0.785049 0.971706 0.423667
O O11 0.928257 0.893050 0.491368
O O12 0.925111 0.350538 0.119711
#
# Coordination Sequence:
#
# PCOD9559698 Si02
#       6
#    16   8  16  16  16  16
#     4  11  21  38  60  95 132 170 222 285 348 417
#     4  10  23  36  62  93 122 174 224 276 344 421
#     4  10  20  37  59  90 132 176 222 289 350 429
#     4  10  20  36  60 101 140 182 235 302 365 426
#     4  10  21  37  63  94 127 179 238 272 354 442
#     4  11  20  41  62  90 133 176 222 283 355 422
#
# _framework density 22.475536000000002
#
# number of rings (size 3 to 8) (size 9 to 14) (size 15 to 20)
#    0.000    1.636    4.545    0.273    0.000    1.455 
#    3.273    0.000    0.000   18.545    0.000    5.091 
#    0.000    0.000    0.000    0.000    0.000    0.000 
#
# Total GULP energy -245756.692618 kJ/mol
# GULP energy per Si atom -5585.379378 kJ/mol
# Density = 2.242438 g / cm^3
# Si number density = 22.475536 Si / 1000 Ang^3
#
#
#
# Elastic Constant Matrix: (Units=GPa)
#
#
# Indices 1 2 3 4 5 6 
#
# 1 84.1829 38.8815 3.4652 0.0000 0.0000 0.0000
# 2 38.8815 84.1812 3.4643 0.0000 0.0000 0.0000
# 3 3.4652 3.4643 57.9077 0.0000 0.0000 0.0000
# 4 0.0000 0.0000 0.0000 25.6104 0.0000 0.0000
# 5 0.0000 0.0000 0.0000 0.0000 25.6103 0.0000
# 6 0.0000 0.0000 0.0000 0.0000 0.0000 6.6738
#
#
#
# Elastic Compliance Matrix: (Units=1/GPa)
#
#
# Indices 1 2 3 4 5 6 
#
# 1 0.015114 -0.006961 -0.000488 0.000000 0.000000 0.000000
# 2 -0.006961 0.015114 -0.000488 0.000000 0.000000 0.000000
# 3 -0.000488 -0.000488 0.017327 0.000000 0.000000 0.000000
# 4 0.000000 0.000000 0.000000 0.039047 0.000000 0.000000
# 5 0.000000 0.000000 0.000000 0.000000 0.039047 0.000000
# 6 0.000000 0.000000 0.000000 0.000000 0.000000 0.149840
#
#
# Mechanical properties :
#
#
# Convention : Reuss Voigt Hill
#
# Bulk Modulus (GPa) = 31.56307 35.32155 33.44231
# Shear Modulus (GPa) = 16.56052 23.60961 20.08507
#
# Velocity S-wave (km/s) = 2.71740 3.24459 2.99263
# Velocity P-wave (km/s) = 4.89075 5.45767 5.18197
#
# Compressibility (1/GPa) = 0.03168259
#
# Stress axis : x y z
#
# Youngs Moduli (GPa) = 66.16416 66.16288 57.71262
#
# Poissons Ratio (x) = 0.46054 0.02816
# Poissons Ratio (y) = 0.46055 0.02814
# Poissons Ratio (z) = 0.03229 0.03227
#
# Static dielectric constant tensor:
#      x y z
#    x 1.867140 0.000000 0.000000 
#    y 0.000000 1.867140 0.000000 
#    z 0.000000 0.000000 1.894340 
# 
# From -- ./inp_files/5258.got.cif
#   From: 2010.05.17/outbox.cif.g08.bks.cpg/sg120_3_cif.got.tgz:5258.got - 2010.05.20 11:28:13.
