data_PCOD9559113
_publ_section_title
;
Structure prediction by ZEFSAII (Michael W. Deem and Ramdas Pophale) SiO2 
 PCOD9559113
Probable space group: I -4 M 2
;
_chemical_formula_sum "Si O2"
_cell_formula_units_Z 72
_cell_length_a 15.187127
_cell_length_b 15.187127
_cell_length_c 15.941476
_cell_angle_alpha 90.000000
_cell_angle_beta 90.000000
_cell_angle_gamma 90.000000
_cell_volume 3676.882732
_symmetry_space_group_name_H-M "I -4 M 2"
_symmetry_group_IT_number 119
_symmetry_cell_setting 'tetragonal'
loop_
_space_group_symop_operation_xyz
x,y,z
y,-x,-z
-x,-y,z
-y,x,-z
y,x,-z
-y,-x,-z
-x,y,z
x,-y,z
1/2+x,1/2+y,1/2+z
1/2+y,1/2-x,1/2-z
1/2-x,1/2-y,1/2+z
1/2-y,1/2+x,1/2-z
1/2+y,1/2+x,1/2-z
1/2-y,1/2-x,1/2-z
1/2-x,1/2+y,1/2+z
1/2+x,1/2-y,1/2+z
loop_
_atom_site_type_symbol
_atom_site_label
_atom_site_fract_x
_atom_site_fract_y
_atom_site_fract_z
Si Si1 0.854110 0.754954 0.802928
Si Si2 0.401652 0.257657 0.486620
Si Si3 0.281102 0.164847 0.611453
Si Si4 0.903626 0.596375 0.250000
Si Si5 0.896117 0.099531 0.338367
O O1 0.832995 0.667006 0.750000
O O2 0.907221 0.741634 0.887508
O O3 0.758343 0.780008 0.840232
O O4 0.888697 0.832520 0.742831
O O5 0.350486 0.350486 0.500000
O O6 0.500000 0.258249 0.523279
O O7 0.338044 0.184888 0.529111
O O8 0.332087 0.104396 0.677302
O O9 0.181307 0.131547 0.602522
O O10 0.895301 0.500000 0.289605
O O11 0.000000 0.108143 0.317521
O O12 0.882849 0.000000 0.371728
#
# Coordination Sequence:
#
# PCOD9559113 Si02
#       5
#    16  16  16   8  16
#     4   9  18  34  55  79 110 153 197 239 294 359
#     4  10  21  35  56  86 120 157 199 245 301 363
#     4  10  19  34  53  80 121 162 200 241 301 359
#     4  11  20  30  52  82 114 162 209 244 294 364
#     4  10  19  32  57  91 121 154 199 249 304 367
#
# _framework density 19.581804999999999
#
# number of rings (size 3 to 8) (size 9 to 14) (size 15 to 20)
#    0.000    2.111    3.333    2.000    0.000    3.778 
#    0.000    0.000    0.000   57.333    0.000   38.889 
#    0.000  228.000    0.000    0.000    0.000    0.000 
#
# Total GULP energy -200503.457978 kJ/mol
# GULP energy per Si atom -5569.540499 kJ/mol
# Density = 1.953724 g / cm^3
# Si number density = 19.581805 Si / 1000 Ang^3
#
#
#
# Elastic Constant Matrix: (Units=GPa)
#
#
# Indices 1 2 3 4 5 6 
#
# 1 118.2271 63.2498 33.9176 0.0000 0.0000 0.0000
# 2 63.2498 118.2279 33.9191 0.0000 0.0000 0.0000
# 3 33.9176 33.9191 80.8578 0.0000 0.0000 0.0000
# 4 0.0000 0.0000 0.0000 7.0147 0.0000 0.0000
# 5 0.0000 0.0000 0.0000 0.0000 7.0136 0.0000
# 6 0.0000 0.0000 0.0000 0.0000 0.0000 27.2635
#
#
#
# Elastic Compliance Matrix: (Units=1/GPa)
#
#
# Indices 1 2 3 4 5 6 
#
# 1 0.012362 -0.005827 -0.002741 0.000000 0.000000 0.000000
# 2 -0.005827 0.012362 -0.002742 0.000000 0.000000 0.000000
# 3 -0.002741 -0.002742 0.014667 0.000000 0.000000 0.000000
# 4 0.000000 0.000000 0.000000 0.142558 0.000000 0.000000
# 5 0.000000 0.000000 0.000000 0.000000 0.142580 0.000000
# 6 0.000000 0.000000 0.000000 0.000000 0.000000 0.036679
#
#
# Mechanical properties :
#
#
# Convention : Reuss Voigt Hill
#
# Bulk Modulus (GPa) = 59.62305 64.38731 62.00518
# Shear Modulus (GPa) = 12.83966 20.67346 16.75656
#
# Velocity S-wave (km/s) = 2.56343 3.25275 2.92844
# Velocity P-wave (km/s) = 6.26704 6.86001 6.57022
#
# Compressibility (1/GPa) = 0.01677204
#
# Stress axis : x y z
#
# Youngs Moduli (GPa) = 80.89240 80.89206 68.17904
#
# Poissons Ratio (x) = 0.47136 0.18689
# Poissons Ratio (y) = 0.47137 0.18691
# Poissons Ratio (z) = 0.22174 0.22177
#
# Static dielectric constant tensor:
#      x y z
#    x 1.724610 0.000000 0.000000 
#    y 0.000000 1.724610 0.000000 
#    z 0.000000 0.000000 1.731350 
# 
# From -- ./inp_files/6354.got.cif
#   From: 2010.05.17/outbox.cif.g08.bks.cpg/sg119_4_cif.got.tgz:6354.got - 2010.05.20 11:21:29.
