data_PCOD9559053
_publ_section_title
;
Structure prediction by ZEFSAII (Michael W. Deem and Ramdas Pophale) SiO2 
 PCOD9559053
Probable space group: I -4 M 2
;
_chemical_formula_sum "Si O2"
_cell_formula_units_Z 88
_cell_length_a 32.099648
_cell_length_b 32.099648
_cell_length_c 5.315597
_cell_angle_alpha 90.000000
_cell_angle_beta 90.000000
_cell_angle_gamma 90.000000
_cell_volume 5477.124181
_symmetry_space_group_name_H-M "I -4 M 2"
_symmetry_group_IT_number 119
_symmetry_cell_setting 'tetragonal'
loop_
_space_group_symop_operation_xyz
x,y,z
y,-x,-z
-x,-y,z
-y,x,-z
y,x,-z
-y,-x,-z
-x,y,z
x,-y,z
1/2+x,1/2+y,1/2+z
1/2+y,1/2-x,1/2-z
1/2-x,1/2-y,1/2+z
1/2-y,1/2+x,1/2-z
1/2+y,1/2+x,1/2-z
1/2-y,1/2-x,1/2-z
1/2-x,1/2+y,1/2+z
1/2+x,1/2-y,1/2+z
loop_
_atom_site_type_symbol
_atom_site_label
_atom_site_fract_x
_atom_site_fract_y
_atom_site_fract_z
Si Si1 0.126774 0.050247 0.185895
Si Si2 0.048293 0.951708 0.500000
Si Si3 0.268925 0.949780 0.747078
Si Si4 0.088379 0.588379 0.750000
Si Si5 0.326323 0.551023 0.190169
Si Si6 0.049304 0.549304 0.250000
Si Si7 0.050626 0.679607 0.754544
O O1 0.079484 0.057838 0.273197
O O2 0.154846 0.064212 0.422889
O O3 0.130225 0.000000 0.173024
O O4 0.145409 0.065654 0.923735
O O5 0.000000 0.945794 0.425223
O O6 0.221274 0.935174 0.727833
O O7 0.295585 0.939160 0.500654
O O8 0.266518 0.000000 0.750248
O O9 0.292351 0.938371 0.003616
O O10 0.067054 0.570176 0.499962
O O11 0.075772 0.636676 0.763133
O O12 0.326912 0.500000 0.188605
O O13 0.056809 0.500000 0.263890
O O14 0.000000 0.671787 0.758903
#
# Coordination Sequence:
#
# PCOD9559053 Si02
#       7
#    16   8  16   8  16   8  16
#     4   9  17  28  43  62  84 115 154 192 228 259
#     4   9  18  32  46  64  96 136 174 206 228 250
#     4   9  17  29  45  63  81 102 135 182 231 275
#     4  12  22  33  46  62  86 112 144 184 225 274
#     4   9  16  28  45  63  81 103 141 192 234 269
#     4  11  22  34  46  58  76 110 154 194 225 250
#     4  10  19  30  44  62  83 109 140 176 223 273
#
# _framework density 16.066824
#
# number of rings (size 3 to 8) (size 9 to 14) (size 15 to 20)
#    0.000    2.364    0.000    3.818    0.000    7.273 
#    0.000    2.727    0.000    7.636    0.000    0.000 
#    0.000    0.000    0.000    0.000    0.000   50.909 
#
# Total GULP energy -245502.108174 kJ/mol
# GULP energy per Si atom -5579.593368 kJ/mol
# Density = 1.603026 g / cm^3
# Si number density = 16.066824 Si / 1000 Ang^3
#
#
#
# Elastic Constant Matrix: (Units=GPa)
#
#
# Indices 1 2 3 4 5 6 
#
# 1 109.0663 -6.1104 32.0049 0.0000 0.0000 0.0000
# 2 -6.1104 109.0719 32.0051 0.0000 0.0000 0.0000
# 3 32.0049 32.0051 116.1191 0.0000 0.0000 0.0000
# 4 0.0000 0.0000 0.0000 18.2755 0.0000 0.0000
# 5 0.0000 0.0000 0.0000 0.0000 18.2757 0.0000
# 6 0.0000 0.0000 0.0000 0.0000 0.0000 5.9421
#
#
#
# Elastic Compliance Matrix: (Units=1/GPa)
#
#
# Indices 1 2 3 4 5 6 
#
# 1 0.010202 0.001520 -0.003231 0.000000 0.000000 0.000000
# 2 0.001520 0.010201 -0.003231 0.000000 0.000000 0.000000
# 3 -0.003231 -0.003231 0.010393 0.000000 0.000000 0.000000
# 4 0.000000 0.000000 0.000000 0.054718 0.000000 0.000000
# 5 0.000000 0.000000 0.000000 0.000000 0.054717 0.000000
# 6 0.000000 0.000000 0.000000 0.000000 0.000000 0.168291
#
#
# Mechanical properties :
#
#
# Convention : Reuss Voigt Hill
#
# Bulk Modulus (GPa) = 47.81823 50.00628 48.91226
# Shear Modulus (GPa) = 15.36683 26.92251 21.14467
#
# Velocity S-wave (km/s) = 3.09598 4.09792 3.63167
# Velocity P-wave (km/s) = 6.52739 7.31998 6.93502
#
# Compressibility (1/GPa) = 0.02091253
#
# Stress axis : x y z
#
# Youngs Moduli (GPa) = 98.02103 98.02642 96.22136
#
# Poissons Ratio (x) = -0.14895 0.31086
# Poissons Ratio (y) = -0.14894 0.31085
# Poissons Ratio (z) = 0.31667 0.31668
#
# Static dielectric constant tensor:
#      x y z
#    x 1.534380 0.000000 0.000000 
#    y 0.000000 1.534380 0.000000 
#    z 0.000000 0.000000 1.558210 
# 
# From -- ./inp_files/1151.got.cif
#   From: 2010.05.17/outbox.cif.g08.bks.cpg/sg119_1_cif.got.tgz:1151.got - 2010.05.20 11:21:29.
