data_PCOD9559254
_publ_section_title
;
Structure prediction by ZEFSAII (Michael W. Deem and Ramdas Pophale) SiO2 
 PCOD9559254
Probable space group: I -4 M 2
;
_chemical_formula_sum "Si O2"
_cell_formula_units_Z 112
_cell_length_a 14.921483
_cell_length_b 14.921483
_cell_length_c 27.103101
_cell_angle_alpha 90.000000
_cell_angle_beta 90.000000
_cell_angle_gamma 90.000000
_cell_volume 6034.523188
_symmetry_space_group_name_H-M "I -4 M 2"
_symmetry_group_IT_number 119
_symmetry_cell_setting 'tetragonal'
loop_
_space_group_symop_operation_xyz
x,y,z
y,-x,-z
-x,-y,z
-y,x,-z
y,x,-z
-y,-x,-z
-x,y,z
x,-y,z
1/2+x,1/2+y,1/2+z
1/2+y,1/2-x,1/2-z
1/2-x,1/2-y,1/2+z
1/2-y,1/2+x,1/2-z
1/2+y,1/2+x,1/2-z
1/2-y,1/2-x,1/2-z
1/2-x,1/2+y,1/2+z
1/2+x,1/2-y,1/2+z
loop_
_atom_site_type_symbol
_atom_site_label
_atom_site_fract_x
_atom_site_fract_y
_atom_site_fract_z
Si Si1 0.393543 0.756059 0.774478
Si Si2 0.259052 0.895057 0.054460
Si Si3 0.362533 0.399917 0.057128
Si Si4 0.819768 0.599239 0.112901
Si Si5 0.601050 0.261061 0.559902
Si Si6 0.753480 0.606307 0.771682
Si Si7 0.403566 0.780168 0.111615
O O1 0.500000 0.751817 0.761350
O O2 0.339395 0.839395 0.750000
O O3 0.389705 0.773382 0.833656
O O4 0.336253 0.666199 0.761525
O O5 0.166802 0.844281 0.065560
O O6 0.330554 0.841273 0.086079
O O7 0.256837 0.000000 0.065852
O O8 0.276435 0.884802 0.995746
O O9 0.395311 0.500000 0.069501
O O10 0.257934 0.399024 0.071502
O O11 0.401723 0.318479 0.087983
O O12 0.380937 0.380937 0.000000
O O13 0.862441 0.500000 0.112175
O O14 0.881044 0.682785 0.099170
O O15 0.500000 0.292494 0.563032
O O16 0.748409 0.500000 0.757198
O O17 0.837777 0.662224 0.750000
O O18 0.767986 0.608931 0.830439
O O19 0.500000 0.822218 0.102183
#
# Coordination Sequence:
#
# PCOD9559254 Si02
#       7
#    16  16  16  16  16  16  16
#     4  10  21  39  62  88 118 153 195 243 293 349
#     4  10  21  37  55  77 108 145 191 246 295 343
#     4  11  21  34  54  86 127 162 190 223 270 336
#     4  10  20  36  58  84 119 158 190 228 282 347
#     4  10  20  35  56  79 108 148 192 238 292 349
#     4  10  22  40  62  87 115 151 196 246 297 351
#     4  11  22  37  59  85 115 154 193 230 284 350
#
# _framework density 18.559875000000002
#
# number of rings (size 3 to 8) (size 9 to 14) (size 15 to 20)
#    0.000    1.714    2.857    1.286    0.000    5.286 
#    0.000    7.143    0.000    0.000    0.000    4.000 
#    0.000    0.000    0.000    0.000    0.000    0.000 
#
# Total GULP energy -312309.294594 kJ/mol
# GULP energy per Si atom -5576.951689 kJ/mol
# Density = 1.851763 g / cm^3
# Si number density = 18.559875 Si / 1000 Ang^3
#
#
#
# Elastic Constant Matrix: (Units=GPa)
#
#
# Indices 1 2 3 4 5 6 
#
# 1 125.3306 74.9480 40.7172 0.0000 0.0000 0.0000
# 2 74.9480 125.3329 40.7188 0.0000 0.0000 0.0000
# 3 40.7172 40.7188 45.4403 0.0000 0.0000 0.0000
# 4 0.0000 0.0000 0.0000 5.2004 0.0000 0.0000
# 5 0.0000 0.0000 0.0000 0.0000 5.1996 0.0000
# 6 0.0000 0.0000 0.0000 0.0000 0.0000 -20.1481
#
#
#
# Elastic Compliance Matrix: (Units=1/GPa)
#
#
# Indices 1 2 3 4 5 6 
#
# 1 0.013851 -0.005996 -0.007038 0.000000 0.000000 0.000000
# 2 -0.005996 0.013851 -0.007039 0.000000 0.000000 0.000000
# 3 -0.007038 -0.007039 0.034621 0.000000 0.000000 0.000000
# 4 0.000000 0.000000 0.000000 0.192292 0.000000 0.000000
# 5 0.000000 0.000000 0.000000 0.000000 0.192321 0.000000
# 6 0.000000 0.000000 0.000000 0.000000 0.000000 -0.049632
#
#
# Mechanical properties :
#
#
# Convention : Reuss Voigt Hill
#
# Bulk Modulus (GPa) = 45.09268 67.65241 56.37255
# Shear Modulus (GPa) = 11.23990 7.36505 9.30248
#
# Velocity S-wave (km/s) = 2.46357 1.99421 2.24121
# Velocity P-wave (km/s) = 5.69568 6.46781 6.09398
#
# Compressibility (1/GPa) = 0.02217655
#
# Stress axis : x y z
#
# Youngs Moduli (GPa) = 72.19541 72.19486 28.88394
#
# Poissons Ratio (x) = 0.43290 0.20329
# Poissons Ratio (y) = 0.43291 0.20332
# Poissons Ratio (z) = 0.50813 0.50819
#
# Static dielectric constant tensor:
#      x y z
#    x 1.649870 0.000000 0.000000 
#    y 0.000000 1.649870 0.000000 
#    z 0.000000 0.000000 1.632760 
# 
# From -- ./inp_files/8811.got.cif
#   From: 2010.05.17/outbox.cif.g08.bks.cpg/sg119_5_cif.got.tgz:8811.got - 2010.05.20 11:21:29.
