data_PCOD9559220
_publ_section_title
;
Structure prediction by ZEFSAII (Michael W. Deem and Ramdas Pophale) SiO2 
 PCOD9559220
Probable space group: I -4 M 2
;
_chemical_formula_sum "Si O2"
_cell_formula_units_Z 72
_cell_length_a 13.667644
_cell_length_b 13.667644
_cell_length_c 21.507596
_cell_angle_alpha 90.000000
_cell_angle_beta 90.000000
_cell_angle_gamma 90.000000
_cell_volume 4017.715556
_symmetry_space_group_name_H-M "I -4 M 2"
_symmetry_group_IT_number 119
_symmetry_cell_setting 'tetragonal'
loop_
_space_group_symop_operation_xyz
x,y,z
y,-x,-z
-x,-y,z
-y,x,-z
y,x,-z
-y,-x,-z
-x,y,z
x,-y,z
1/2+x,1/2+y,1/2+z
1/2+y,1/2-x,1/2-z
1/2-x,1/2-y,1/2+z
1/2-y,1/2+x,1/2-z
1/2+y,1/2+x,1/2-z
1/2-y,1/2-x,1/2-z
1/2-x,1/2+y,1/2+z
1/2+x,1/2-y,1/2+z
loop_
_atom_site_type_symbol
_atom_site_label
_atom_site_fract_x
_atom_site_fract_y
_atom_site_fract_z
Si Si1 0.891707 0.108294 0.000000
Si Si2 0.617228 0.771419 0.303903
Si Si3 0.687833 0.886059 0.940551
Si Si4 0.383285 0.217177 0.693750
Si Si5 0.381206 0.111017 0.427798
O O1 0.883556 0.195158 0.048719
O O2 0.000000 0.116948 0.971200
O O3 0.500000 0.758871 0.300543
O O4 0.655349 0.844652 0.250000
O O5 0.679852 0.672491 0.297398
O O6 0.643824 0.818911 0.370755
O O7 0.669997 0.847556 0.871790
O O8 0.656686 0.000000 0.939707
O O9 0.643451 0.843534 0.004138
O O10 0.500000 0.230021 0.690387
O O11 0.351910 0.148091 0.750000
O O12 0.500000 0.113602 0.430902
O O13 0.351343 0.000000 0.414702
#
# Coordination Sequence:
#
# PCOD9559220 Si02
#       5
#     8  16  16  16  16
#     4   9  16  26  44  72 104 134 162 201 260 322
#     4  10  20  34  53  78 108 139 172 214 265 322
#     4   9  17  29  45  67  95 127 166 209 251 301
#     4  10  22  37  52  73 101 136 180 226 270 316
#     4   9  17  29  47  72 100 131 167 204 246 301
#
# _framework density 17.920632000000001
#
# number of rings (size 3 to 8) (size 9 to 14) (size 15 to 20)
#    0.000    2.556    0.000    2.000    0.000    5.333 
#    0.000    4.444    0.000    0.000    0.000    0.000 
#    0.000    0.000    0.000   12.667    0.000    0.222 
#
# Total GULP energy -200559.108373 kJ/mol
# GULP energy per Si atom -5571.086344 kJ/mol
# Density = 1.787984 g / cm^3
# Si number density = 17.920632 Si / 1000 Ang^3
#
#
#
# Elastic Constant Matrix: (Units=GPa)
#
#
# Indices 1 2 3 4 5 6 
#
# 1 62.6359 23.8437 27.9863 0.0000 0.0000 0.0000
# 2 23.8437 62.6350 27.9875 0.0000 0.0000 0.0000
# 3 27.9863 27.9875 129.1373 0.0000 0.0000 0.0000
# 4 0.0000 0.0000 0.0000 18.8299 0.0000 0.0000
# 5 0.0000 0.0000 0.0000 0.0000 18.8295 0.0000
# 6 0.0000 0.0000 0.0000 0.0000 0.0000 9.3371
#
#
#
# Elastic Compliance Matrix: (Units=1/GPa)
#
#
# Indices 1 2 3 4 5 6 
#
# 1 0.019614 -0.006164 -0.002915 0.000000 0.000000 0.000000
# 2 -0.006164 0.019615 -0.002915 0.000000 0.000000 0.000000
# 3 -0.002915 -0.002915 0.009007 0.000000 0.000000 0.000000
# 4 0.000000 0.000000 0.000000 0.053107 0.000000 0.000000
# 5 0.000000 0.000000 0.000000 0.000000 0.053108 0.000000
# 6 0.000000 0.000000 0.000000 0.000000 0.000000 0.107099
#
#
# Mechanical properties :
#
#
# Convention : Reuss Voigt Hill
#
# Bulk Modulus (GPa) = 41.24096 46.00480 43.62288
# Shear Modulus (GPa) = 17.02873 21.03868 19.03371
#
# Velocity S-wave (km/s) = 3.08593 3.43007 3.26254
# Velocity P-wave (km/s) = 5.97999 6.43540 6.21187
#
# Compressibility (1/GPa) = 0.02424774
#
# Stress axis : x y z
#
# Youngs Moduli (GPa) = 50.98354 50.98219 111.02266
#
# Poissons Ratio (x) = 0.31427 0.32361
# Poissons Ratio (y) = 0.31427 0.32365
# Poissons Ratio (z) = 0.14861 0.14862
#
# Static dielectric constant tensor:
#      x y z
#    x 1.619500 0.000000 0.000000 
#    y 0.000000 1.619500 0.000000 
#    z 0.000000 0.000000 1.654580 
# 
# From -- ./inp_files/6424.got.cif
#   From: 2010.05.17/outbox.cif.g08.bks.cpg/sg119_4_cif.got.tgz:6424.got - 2010.05.20 11:21:29.
