data_PCOD9559057
_publ_section_title
;
Structure prediction by ZEFSAII (Michael W. Deem and Ramdas Pophale) SiO2 
 PCOD9559057
Probable space group: I -4 M 2
;
_chemical_formula_sum "Si O2"
_cell_formula_units_Z 88
_cell_length_a 14.357750
_cell_length_b 14.357750
_cell_length_c 22.974621
_cell_angle_alpha 90.000000
_cell_angle_beta 90.000000
_cell_angle_gamma 90.000000
_cell_volume 4736.102903
_symmetry_space_group_name_H-M "I -4 M 2"
_symmetry_group_IT_number 119
_symmetry_cell_setting 'tetragonal'
loop_
_space_group_symop_operation_xyz
x,y,z
y,-x,-z
-x,-y,z
-y,x,-z
y,x,-z
-y,-x,-z
-x,y,z
x,-y,z
1/2+x,1/2+y,1/2+z
1/2+y,1/2-x,1/2-z
1/2-x,1/2-y,1/2+z
1/2-y,1/2+x,1/2-z
1/2+y,1/2+x,1/2-z
1/2-y,1/2-x,1/2-z
1/2-x,1/2+y,1/2+z
1/2+x,1/2-y,1/2+z
loop_
_atom_site_type_symbol
_atom_site_label
_atom_site_fract_x
_atom_site_fract_y
_atom_site_fract_z
Si Si1 0.889668 0.889668 0.500000
Si Si2 0.389589 0.310657 0.871168
Si Si3 0.893741 0.255733 0.992855
Si Si4 0.901519 0.611748 0.595390
Si Si5 0.729105 0.106536 0.291147
Si Si6 0.396893 0.108539 0.603393
O O1 0.867999 0.836655 0.439205
O O2 0.000000 0.875115 0.511355
O O3 0.500000 0.332038 0.862934
O O4 0.322619 0.364881 0.826403
O O5 0.375887 0.199304 0.862499
O O6 0.851691 0.315520 0.940555
O O7 0.000000 0.232583 0.979592
O O8 0.835429 0.164572 0.000000
O O9 0.893393 0.323048 0.048503
O O10 0.898467 0.500000 0.594064
O O11 0.899672 0.649495 0.659768
O O12 0.000000 0.641146 0.567938
O O13 0.688127 0.188127 0.250000
O O14 0.738758 0.000000 0.266453
O O15 0.500000 0.121959 0.631479
O O16 0.393740 0.000000 0.584456
#
# Coordination Sequence:
#
# PCOD9559057 Si02
#       6
#     8  16  16  16  16  16
#     4   9  18  32  52  84 122 154 185 228 292 368
#     4  10  21  36  58  86 118 155 193 237 295 360
#     4  10  19  30  46  70 103 142 181 220 266 324
#     4   9  18  32  51  75 101 131 172 222 274 327
#     4  11  23  38  58  82 112 150 193 239 288 344
#     4   9  18  32  51  78 112 146 181 226 280 340
#
# _framework density 18.580679
#
# number of rings (size 3 to 8) (size 9 to 14) (size 15 to 20)
#    0.000    2.273    0.000    2.727    3.818    4.364 
#    0.000    0.909    0.000    1.091    0.000    2.545 
#    0.000    0.000    0.000    0.000    0.000    0.000 
#
# Total GULP energy -245143.542545 kJ/mol
# GULP energy per Si atom -5571.444149 kJ/mol
# Density = 1.853839 g / cm^3
# Si number density = 18.580679 Si / 1000 Ang^3
#
#
#
# Elastic Constant Matrix: (Units=GPa)
#
#
# Indices 1 2 3 4 5 6 
#
# 1 95.1489 41.8963 29.1904 0.0000 0.0000 0.0000
# 2 41.8963 95.1504 29.1914 0.0000 0.0000 0.0000
# 3 29.1904 29.1914 39.5020 0.0000 0.0000 0.0000
# 4 0.0000 0.0000 0.0000 23.8275 0.0000 0.0000
# 5 0.0000 0.0000 0.0000 0.0000 23.8267 0.0000
# 6 0.0000 0.0000 0.0000 0.0000 0.0000 -6.9552
#
#
#
# Elastic Compliance Matrix: (Units=1/GPa)
#
#
# Indices 1 2 3 4 5 6 
#
# 1 0.014714 -0.004064 -0.007869 0.000000 0.000000 0.000000
# 2 -0.004064 0.014714 -0.007870 0.000000 0.000000 0.000000
# 3 -0.007869 -0.007870 0.036946 0.000000 0.000000 0.000000
# 4 0.000000 0.000000 0.000000 0.041968 0.000000 0.000000
# 5 0.000000 0.000000 0.000000 0.000000 0.041970 0.000000
# 6 0.000000 0.000000 0.000000 0.000000 0.000000 -0.143777
#
#
# Mechanical properties :
#
#
# Convention : Reuss Voigt Hill
#
# Bulk Modulus (GPa) = 37.36033 47.81751 42.58892
# Shear Modulus (GPa) = 90.80494 16.77468 53.78981
#
# Velocity S-wave (km/s) = 6.99834 3.00793 5.38629
# Velocity P-wave (km/s) = 9.24408 6.15260 7.85199
#
# Compressibility (1/GPa) = 0.02676636
#
# Stress axis : x y z
#
# Youngs Moduli (GPa) = 67.96388 67.96388 27.06664
#
# Poissons Ratio (x) = 0.27624 0.21299
# Poissons Ratio (y) = 0.27624 0.21301
# Poissons Ratio (z) = 0.53482 0.53486
#
# Static dielectric constant tensor:
#      x y z
#    x 1.663120 0.000000 0.000000 
#    y 0.000000 1.663130 0.000000 
#    z 0.000000 0.000000 1.621150 
# 
# From -- ./inp_files/7689.got.cif
#   From: 2010.05.17/outbox.cif.g08.bks.cpg/sg119_4_cif.got.tgz:7689.got - 2010.05.20 11:21:29.
