data_PCOD9559913
_publ_section_title
;
Structure prediction by ZEFSAII (Michael W. Deem and Ramdas Pophale) SiO2 
 PCOD9559913
Probable space group: I -4 C 2
;
_chemical_formula_sum "Si O2"
_cell_formula_units_Z 76
_cell_length_a 13.891578
_cell_length_b 13.891578
_cell_length_c 22.251382
_cell_angle_alpha 90.000000
_cell_angle_beta 90.000000
_cell_angle_gamma 90.000000
_cell_volume 4293.981343
_symmetry_space_group_name_H-M "I -4 C 2"
_symmetry_group_IT_number 120
_symmetry_cell_setting 'tetragonal'
loop_
_space_group_symop_operation_xyz
x,y,z
y,-x,-z
-x,-y,z
-y,x,-z
y,x,1/2-z
-y,-x,1/2-z
-x,y,1/2+z
x,-y,1/2+z
1/2+x,1/2+y,1/2+z
1/2+y,1/2-x,1/2-z
1/2-x,1/2-y,1/2+z
1/2-y,1/2+x,1/2-z
1/2+y,1/2+x,-z
1/2-y,1/2-x,-z
1/2-x,1/2+y,z
1/2+x,1/2-y,z
loop_
_atom_site_type_symbol
_atom_site_label
_atom_site_fract_x
_atom_site_fract_y
_atom_site_fract_z
Si Si1 0.794005 0.146362 0.682982
Si Si2 0.560109 0.694440 0.573826
Si Si3 0.725483 0.225483 0.000000
Si Si4 0.500000 0.500000 0.500000
Si Si5 0.139551 0.242504 0.614204
Si Si6 0.548200 0.394972 0.816361
O O1 0.815999 0.184002 0.750000
O O2 0.871861 0.178323 0.632086
O O3 0.691599 0.185649 0.660365
O O4 0.813129 0.032569 0.684819
O O5 0.620431 0.753120 0.525039
O O6 0.528132 0.593260 0.541388
O O7 0.470367 0.756685 0.596136
O O8 0.744911 0.298331 0.945937
O O9 0.135871 0.134494 0.640934
O O10 0.500000 0.500000 0.831194
O O11 0.589907 0.410094 0.750000
#
# Coordination Sequence:
#
# PCOD9559913 Si02
#       6
#    16  16   8   4  16  16
#     4  11  22  36  59  95 128 157 204 261 319 371
#     4  11  21  37  59  91 122 163 205 263 313 371
#     4  10  24  34  54  88 122 154 212 258 306 370
#     4  12  20  36  70  92 124 160 212 270 316 356
#     4  11  22  36  58  89 122 161 201 262 312 368
#     4  11  19  36  63  92 119 152 202 255 303 369
#
# _framework density 17.699193000000001
#
# number of rings (size 3 to 8) (size 9 to 14) (size 15 to 20)
#    0.000    1.053    6.316    1.895    0.000    0.000 
#    0.000    0.000    0.000   12.000    0.000    5.895 
#    0.000    0.000    0.000    0.000    0.000    0.000 
#
# Total GULP energy -211920.343667 kJ/mol
# GULP energy per Si atom -5576.851149 kJ/mol
# Density = 1.765891 g / cm^3
# Si number density = 17.699193 Si / 1000 Ang^3
#
#
#
# Elastic Constant Matrix: (Units=GPa)
#
#
# Indices 1 2 3 4 5 6 
#
# 1 105.1254 14.1765 34.8557 0.0000 0.0000 0.0000
# 2 14.1765 105.1203 34.8521 0.0000 0.0000 0.0000
# 3 34.8557 34.8521 111.8820 0.0000 0.0000 0.0000
# 4 0.0000 0.0000 0.0000 33.7869 0.0000 0.0000
# 5 0.0000 0.0000 0.0000 0.0000 33.7873 0.0000
# 6 0.0000 0.0000 0.0000 0.0000 0.0000 34.6881
#
#
#
# Elastic Compliance Matrix: (Units=1/GPa)
#
#
# Indices 1 2 3 4 5 6 
#
# 1 0.010621 -0.000374 -0.003192 0.000000 0.000000 0.000000
# 2 -0.000374 0.010622 -0.003192 0.000000 0.000000 0.000000
# 3 -0.003192 -0.003192 0.010927 0.000000 0.000000 0.000000
# 4 0.000000 0.000000 0.000000 0.029597 0.000000 0.000000
# 5 0.000000 0.000000 0.000000 0.000000 0.029597 0.000000
# 6 0.000000 0.000000 0.000000 0.000000 0.000000 0.028828
#
#
# Mechanical properties :
#
#
# Convention : Reuss Voigt Hill
#
# Bulk Modulus (GPa) = 53.61148 54.43291 54.02220
# Shear Modulus (GPa) = 35.73279 36.33537 36.03408
#
# Velocity S-wave (km/s) = 4.49808 4.53585 4.51701
# Velocity P-wave (km/s) = 7.57186 7.63238 7.60218
#
# Compressibility (1/GPa) = 0.01865272
#
# Stress axis : x y z
#
# Youngs Moduli (GPa) = 94.14963 94.14683 91.51659
#
# Poissons Ratio (x) = 0.03521 0.29217
# Poissons Ratio (y) = 0.03521 0.29214
# Poissons Ratio (z) = 0.30057 0.30054
#
# Static dielectric constant tensor:
#      x y z
#    x 1.614600 0.000000 0.000000 
#    y 0.000000 1.614600 0.000000 
#    z 0.000000 0.000000 1.616850 
# 
# From -- ./inp_files/5212.got.cif
#   From: 2010.05.17/outbox.cif.g08.bks.cpg/sg120_3_cif.got.tgz:5212.got - 2010.05.20 11:28:13.
