data_PCOD9559625
_publ_section_title
;
Structure prediction by ZEFSAII (Michael W. Deem and Ramdas Pophale) SiO2 
 PCOD9559625
Probable space group: I -4 C 2
;
_chemical_formula_sum "Si O2"
_cell_formula_units_Z 112
_cell_length_a 14.824229
_cell_length_b 14.824229
_cell_length_c 24.336132
_cell_angle_alpha 90.000000
_cell_angle_beta 90.000000
_cell_angle_gamma 90.000000
_cell_volume 5348.053988
_symmetry_space_group_name_H-M "I -4 C 2"
_symmetry_group_IT_number 120
_symmetry_cell_setting 'tetragonal'
loop_
_space_group_symop_operation_xyz
x,y,z
y,-x,-z
-x,-y,z
-y,x,-z
y,x,1/2-z
-y,-x,1/2-z
-x,y,1/2+z
x,-y,1/2+z
1/2+x,1/2+y,1/2+z
1/2+y,1/2-x,1/2-z
1/2-x,1/2-y,1/2+z
1/2-y,1/2+x,1/2-z
1/2+y,1/2+x,-z
1/2-y,1/2-x,-z
1/2-x,1/2+y,z
1/2+x,1/2-y,z
loop_
_atom_site_type_symbol
_atom_site_label
_atom_site_fract_x
_atom_site_fract_y
_atom_site_fract_z
Si Si1 0.194484 0.221926 0.687117
Si Si2 0.275851 0.224150 0.000000
Si Si3 0.774487 0.972150 0.431182
Si Si4 0.455303 0.409808 0.142333
Si Si5 0.077003 0.193994 0.950654
Si Si6 0.624114 0.150501 0.881168
Si Si7 0.000000 0.500000 0.370413
Si Si8 0.351047 0.864001 0.403300
O O1 0.223604 0.223604 0.750000
O O2 0.107974 0.154499 0.679813
O O3 0.277947 0.177479 0.655086
O O4 0.172221 0.316428 0.655892
O O5 0.288983 0.320340 0.028667
O O6 0.290044 0.151775 0.048933
O O7 0.814383 0.973115 0.491873
O O8 0.695638 0.899654 0.420796
O O9 0.849981 0.965077 0.384432
O O10 0.728522 0.067816 0.420605
O O11 0.500000 0.500000 0.166349
O O12 0.389195 0.433856 0.090768
O O13 0.057901 0.285636 0.916730
O O14 0.571940 0.072588 0.846531
O O15 0.064144 0.430395 0.402180
#
# Coordination Sequence:
#
# PCOD9559625 Si02
#       8
#    16   8  16  16  16  16   8  16
#     4  10  21  46  69  82 118 167 212 256 315 384
#     4  12  18  37  58  83 128 168 214 240 304 377
#     4  10  19  34  56  81 130 159 198 254 299 364
#     4  10  23  37  55  92 121 154 210 251 306 361
#     4  11  20  34  54  84 124 172 206 242 297 369
#     4  10  20  40  58  91 121 161 207 254 310 374
#     4  10  24  39  63  94 138 150 210 270 314 378
#     4  10  22  38  59  94 121 172 203 258 320 371
#
# _framework density 20.942198000000001
#
# number of rings (size 3 to 8) (size 9 to 14) (size 15 to 20)
#    0.000    1.714    5.714    0.000    4.000    0.571 
#    7.714    5.000    0.000    0.000    0.000    0.000 
#    0.000    0.000    0.000    0.000    0.000    0.000 
#
# Total GULP energy -311910.909651 kJ/mol
# GULP energy per Si atom -5569.837672 kJ/mol
# Density = 2.089453 g / cm^3
# Si number density = 20.942198 Si / 1000 Ang^3
#
#
#
# Elastic Constant Matrix: (Units=GPa)
#
#
# Indices 1 2 3 4 5 6 
#
# 1 60.7153 15.5595 1.7005 0.0000 0.0000 0.0000
# 2 15.5595 60.7153 1.7006 0.0000 0.0000 0.0000
# 3 1.7005 1.7006 82.7626 0.0000 0.0000 0.0000
# 4 0.0000 0.0000 0.0000 9.9384 0.0000 0.0000
# 5 0.0000 0.0000 0.0000 0.0000 9.9382 0.0000
# 6 0.0000 0.0000 0.0000 0.0000 0.0000 36.7054
#
#
#
# Elastic Compliance Matrix: (Units=1/GPa)
#
#
# Indices 1 2 3 4 5 6 
#
# 1 0.017634 -0.004512 -0.000270 0.000000 0.000000 0.000000
# 2 -0.004512 0.017634 -0.000270 0.000000 0.000000 0.000000
# 3 -0.000270 -0.000270 0.012094 0.000000 0.000000 0.000000
# 4 0.000000 0.000000 0.000000 0.100620 0.000000 0.000000
# 5 0.000000 0.000000 0.000000 0.000000 0.100622 0.000000
# 6 0.000000 0.000000 0.000000 0.000000 0.000000 0.027244
#
#
# Mechanical properties :
#
#
# Convention : Reuss Voigt Hill
#
# Bulk Modulus (GPa) = 26.83822 26.90162 26.86992
# Shear Modulus (GPa) = 16.75776 23.66523 20.21149
#
# Velocity S-wave (km/s) = 2.83183 3.36523 3.10999
# Velocity P-wave (km/s) = 4.85135 5.28898 5.07488
#
# Compressibility (1/GPa) = 0.03726030
#
# Stress axis : x y z
#
# Youngs Moduli (GPa) = 56.70855 56.70855 82.68678
#
# Poissons Ratio (x) = 0.25584 0.02229
# Poissons Ratio (y) = 0.25584 0.02230
# Poissons Ratio (z) = 0.01529 0.01529
#
# Static dielectric constant tensor:
#      x y z
#    x 1.829920 0.000000 0.000000 
#    y 0.000000 1.829920 0.000000 
#    z 0.000000 0.000000 1.745570 
# 
# From -- ./inp_files/6318.got.cif
#   From: 2010.05.17/outbox.cif.g08.bks.cpg/sg120_4_cif.got.tgz:6318.got - 2010.05.20 11:28:13.
