data_PCOD9559439
_publ_section_title
;
Structure prediction by ZEFSAII (Michael W. Deem and Ramdas Pophale) SiO2 
 PCOD9559439
Probable space group: I -4 M 2
;
_chemical_formula_sum "Si O2"
_cell_formula_units_Z 92
_cell_length_a 14.700250
_cell_length_b 14.700250
_cell_length_c 21.977900
_cell_angle_alpha 90.000000
_cell_angle_beta 90.000000
_cell_angle_gamma 90.000000
_cell_volume 4749.365950
_symmetry_space_group_name_H-M "I -4 M 2"
_symmetry_group_IT_number 119
_symmetry_cell_setting 'tetragonal'
loop_
_space_group_symop_operation_xyz
x,y,z
y,-x,-z
-x,-y,z
-y,x,-z
y,x,-z
-y,-x,-z
-x,y,z
x,-y,z
1/2+x,1/2+y,1/2+z
1/2+y,1/2-x,1/2-z
1/2-x,1/2-y,1/2+z
1/2-y,1/2+x,1/2-z
1/2+y,1/2+x,1/2-z
1/2-y,1/2-x,1/2-z
1/2-x,1/2+y,1/2+z
1/2+x,1/2-y,1/2+z
loop_
_atom_site_type_symbol
_atom_site_label
_atom_site_fract_x
_atom_site_fract_y
_atom_site_fract_z
Si Si1 0.273138 0.392409 0.646368
Si Si2 0.845162 0.397793 0.185103
Si Si3 0.752194 0.604571 0.415873
Si Si4 0.000000 0.000000 0.735295
Si Si5 0.857102 0.165161 0.721430
Si Si6 0.725176 0.725176 0.000000
Si Si7 0.896864 0.283353 0.604796
O O1 0.283820 0.500000 0.645875
O O2 0.354223 0.341620 0.610636
O O3 0.279173 0.356254 0.715527
O O4 0.177646 0.361907 0.616811
O O5 0.847314 0.500000 0.160182
O O6 0.894303 0.394303 0.250000
O O7 0.886773 0.326045 0.138099
O O8 0.742147 0.367925 0.200506
O O9 0.744026 0.500000 0.435264
O O10 0.780803 0.676467 0.467454
O O11 0.920991 0.079385 0.733904
O O12 0.895812 0.224484 0.666286
O O13 0.646875 0.723189 0.050658
O O14 0.000000 0.312374 0.591357
#
# Coordination Sequence:
#
# PCOD9559439 Si02
#       7
#    16  16  16   4  16   8  16
#     4  11  23  39  66  99 131 167 207 258 325 397
#     4  12  23  38  64  96 135 169 201 251 326 397
#     4  11  25  43  66  92 127 167 216 268 324 384
#     4  12  24  32  68 109 132 165 216 260 324 402
#     4  12  21  39  63  98 136 165 203 261 322 389
#     4  10  24  44  62  92 122 172 220 272 322 372
#     4  11  23  44  66  90 128 172 216 269 323 378
#
# _framework density 19.371008
#
# number of rings (size 3 to 8) (size 9 to 14) (size 15 to 20)
#    0.000    0.696    7.826    1.043    1.217    5.391 
#    1.565    0.000    0.000    2.087    0.000    0.000 
#    0.000    0.000    0.000    0.000    0.000    0.000 
#
# Total GULP energy -256530.389641 kJ/mol
# GULP energy per Si atom -5576.747601 kJ/mol
# Density = 1.932692 g / cm^3
# Si number density = 19.371008 Si / 1000 Ang^3
#
#
#
# Elastic Constant Matrix: (Units=GPa)
#
#
# Indices 1 2 3 4 5 6 
#
# 1 109.5615 3.4466 -9.4944 0.0000 0.0000 0.0000
# 2 3.4466 109.5615 -9.4944 0.0000 0.0000 0.0000
# 3 -9.4944 -9.4944 51.5540 0.0000 0.0000 0.0000
# 4 0.0000 0.0000 0.0000 6.0938 0.0000 0.0000
# 5 0.0000 0.0000 0.0000 0.0000 6.0938 0.0000
# 6 0.0000 0.0000 0.0000 0.0000 0.0000 25.9059
#
#
#
# Elastic Compliance Matrix: (Units=1/GPa)
#
#
# Indices 1 2 3 4 5 6 
#
# 1 0.009278 -0.000146 0.001682 0.000000 0.000000 0.000000
# 2 -0.000146 0.009278 0.001682 0.000000 0.000000 0.000000
# 3 0.001682 0.001682 0.020017 0.000000 0.000000 0.000000
# 4 0.000000 0.000000 0.000000 0.164100 0.000000 0.000000
# 5 0.000000 0.000000 0.000000 0.000000 0.164100 0.000000
# 6 0.000000 0.000000 0.000000 0.000000 0.000000 0.038601
#
#
# Mechanical properties :
#
#
# Convention : Reuss Voigt Hill
#
# Bulk Modulus (GPa) = 22.21913 26.62143 24.42028
# Shear Modulus (GPa) = 12.07903 26.70001 19.38952
#
# Velocity S-wave (km/s) = 2.49983 3.71664 3.16722
# Velocity P-wave (km/s) = 4.45280 5.67368 5.09990
#
# Compressibility (1/GPa) = 0.04500627
#
# Stress axis : x y z
#
# Youngs Moduli (GPa) = 107.78628 107.78628 49.95870
#
# Poissons Ratio (x) = 0.01575 -0.08401
# Poissons Ratio (y) = 0.01575 -0.08401
# Poissons Ratio (z) = -0.18126 -0.18126
#
# Static dielectric constant tensor:
#      x y z
#    x 1.681420 0.000000 0.000000 
#    y 0.000000 1.681420 0.000000 
#    z 0.000000 0.000000 1.688080 
# 
# From -- ./inp_files/7829.got.cif
#   From: 2010.05.17/outbox.cif.g08.bks.cpg/sg119_4_cif.got.tgz:7829.got - 2010.05.20 11:21:29.
