data_PCOD9559095
_publ_section_title
;
Structure prediction by ZEFSAII (Michael W. Deem and Ramdas Pophale) SiO2 
 PCOD9559095
Probable space group: I -4 M 2
;
_chemical_formula_sum "Si O2"
_cell_formula_units_Z 104
_cell_length_a 17.629979
_cell_length_b 17.629979
_cell_length_c 20.082618
_cell_angle_alpha 90.000000
_cell_angle_beta 90.000000
_cell_angle_gamma 90.000000
_cell_volume 6242.002200
_symmetry_space_group_name_H-M "I -4 M 2"
_symmetry_group_IT_number 119
_symmetry_cell_setting 'tetragonal'
loop_
_space_group_symop_operation_xyz
x,y,z
y,-x,-z
-x,-y,z
-y,x,-z
y,x,-z
-y,-x,-z
-x,y,z
x,-y,z
1/2+x,1/2+y,1/2+z
1/2+y,1/2-x,1/2-z
1/2-x,1/2-y,1/2+z
1/2-y,1/2+x,1/2-z
1/2+y,1/2+x,1/2-z
1/2-y,1/2-x,1/2-z
1/2-x,1/2+y,1/2+z
1/2+x,1/2-y,1/2+z
loop_
_atom_site_type_symbol
_atom_site_label
_atom_site_fract_x
_atom_site_fract_y
_atom_site_fract_z
Si Si1 0.356994 0.412073 0.666815
Si Si2 0.089745 0.589745 0.750000
Si Si3 0.686415 0.814363 0.987150
Si Si4 0.318215 0.409782 0.055985
Si Si5 0.588058 0.590856 0.186208
Si Si6 0.184722 0.086079 0.947760
Si Si7 0.410318 0.816918 0.380762
O O1 0.379639 0.500000 0.657026
O O2 0.365882 0.396367 0.744998
O O3 0.407690 0.357393 0.622300
O O4 0.271178 0.403376 0.640332
O O5 0.102523 0.500000 0.759695
O O6 0.133935 0.612249 0.683459
O O7 0.618547 0.768072 0.953662
O O8 0.732590 0.876078 0.944604
O O9 0.748710 0.748710 0.000000
O O10 0.667204 0.857047 0.056055
O O11 0.323282 0.500000 0.048951
O O12 0.354727 0.388585 0.127178
O O13 0.369323 0.369323 0.000000
O O14 0.500000 0.605797 0.166726
O O15 0.593820 0.500000 0.198314
O O16 0.190041 0.000000 0.971414
O O17 0.133986 0.133986 0.000000
O O18 0.500000 0.831238 0.395287
#
# Coordination Sequence:
#
# PCOD9559095 Si02
#       7
#    16   8  16  16  16  16  16
#     4  10  19  32  51  79 109 140 173 211 266 324
#     4   9  20  36  54  76 100 136 184 222 261 324
#     4  10  20  34  50  73 107 142 176 219 261 311
#     4  10  21  36  56  78 102 136 181 224 271 324
#     4   9  18  33  52  77 110 139 169 217 270 321
#     4  11  20  32  51  76 107 143 181 217 259 314
#     4  10  19  34  53  74 108 145 177 219 267 312
#
# _framework density 16.66132
#
# number of rings (size 3 to 8) (size 9 to 14) (size 15 to 20)
#    0.000    2.077    3.077    1.846    0.000    5.538 
#    0.000    1.538    0.000    1.385    0.000    0.000 
#    0.000    0.000    0.000    7.692    0.000    0.000 
#
# Total GULP energy -289967.741915 kJ/mol
# GULP energy per Si atom -5576.302729 kJ/mol
# Density = 1.662340 g / cm^3
# Si number density = 16.661320 Si / 1000 Ang^3
#
#
#
# Elastic Constant Matrix: (Units=GPa)
#
#
# Indices 1 2 3 4 5 6 
#
# 1 49.9457 48.7266 47.3112 0.0000 0.0000 0.0000
# 2 48.7266 49.9457 47.3112 0.0000 0.0000 0.0000
# 3 47.3112 47.3112 114.0326 0.0000 0.0000 0.0000
# 4 0.0000 0.0000 0.0000 30.7824 0.0000 0.0000
# 5 0.0000 0.0000 0.0000 0.0000 30.7824 0.0000
# 6 0.0000 0.0000 0.0000 0.0000 0.0000 24.5275
#
#
#
# Elastic Compliance Matrix: (Units=1/GPa)
#
#
# Indices 1 2 3 4 5 6 
#
# 1 0.418573 -0.401742 -0.006983 0.000000 0.000000 0.000000
# 2 -0.401742 0.418573 -0.006983 0.000000 0.000000 0.000000
# 3 -0.006983 -0.006983 0.014564 0.000000 0.000000 0.000000
# 4 0.000000 0.000000 0.000000 0.032486 0.000000 0.000000
# 5 0.000000 0.000000 0.000000 0.000000 0.032486 0.000000
# 6 0.000000 0.000000 0.000000 0.000000 0.000000 0.040771
#
#
# Mechanical properties :
#
#
# Convention : Reuss Voigt Hill
#
# Bulk Modulus (GPa) = 49.27650 55.62468 52.45059
# Shear Modulus (GPa) = 2.78453 21.92347 12.35400
#
# Velocity S-wave (km/s) = 1.29417 3.63137 2.72596
# Velocity P-wave (km/s) = 5.64560 7.14426 6.43868
#
# Compressibility (1/GPa) = 0.02029365
#
# Stress axis : x y z
#
# Youngs Moduli (GPa) = 2.38907 2.38907 68.66316
#
# Poissons Ratio (x) = 0.95979 0.47948
# Poissons Ratio (y) = 0.95979 0.47948
# Poissons Ratio (z) = 0.01668 0.01668
#
# Static dielectric constant tensor:
#      x y z
#    x 1.577580 0.000000 0.000000 
#    y 0.000000 1.577580 0.000000 
#    z 0.000000 0.000000 1.559690 
# 
# From -- ./inp_files/6737.got.cif
#   From: 2010.05.17/outbox.cif.g08.bks.cpg/sg119_4_cif.got.tgz:6737.got - 2010.05.20 11:21:29.
