data_PCOD9559695
_publ_section_title
;
Structure prediction by ZEFSAII (Michael W. Deem and Ramdas Pophale) SiO2 
 PCOD9559695
Probable space group: I -4 C 2
;
_chemical_formula_sum "Si O2"
_cell_formula_units_Z 112
_cell_length_a 14.473170
_cell_length_b 14.473170
_cell_length_c 22.412236
_cell_angle_alpha 90.000000
_cell_angle_beta 90.000000
_cell_angle_gamma 90.000000
_cell_volume 4694.750464
_symmetry_space_group_name_H-M "I -4 C 2"
_symmetry_group_IT_number 120
_symmetry_cell_setting 'tetragonal'
loop_
_space_group_symop_operation_xyz
x,y,z
y,-x,-z
-x,-y,z
-y,x,-z
y,x,1/2-z
-y,-x,1/2-z
-x,y,1/2+z
x,-y,1/2+z
1/2+x,1/2+y,1/2+z
1/2+y,1/2-x,1/2-z
1/2-x,1/2-y,1/2+z
1/2-y,1/2+x,1/2-z
1/2+y,1/2+x,-z
1/2-y,1/2-x,-z
1/2-x,1/2+y,z
1/2+x,1/2-y,z
loop_
_atom_site_type_symbol
_atom_site_label
_atom_site_fract_x
_atom_site_fract_y
_atom_site_fract_z
Si Si1 0.058304 0.085683 0.819272
Si Si2 0.115382 0.408706 0.270796
Si Si3 0.144702 0.263725 0.411791
Si Si4 0.551140 0.250509 0.894287
Si Si5 0.328511 0.222018 0.672039
Si Si6 0.683221 0.624353 0.468093
Si Si7 0.968730 0.247353 0.133972
O O1 0.066853 0.066853 0.750000
O O2 0.017861 0.182601 0.840174
O O3 0.164198 0.091587 0.839694
O O4 0.000000 0.000000 0.845643
O O5 0.119173 0.507232 0.234698
O O6 0.174100 0.331260 0.235060
O O7 0.157962 0.429179 0.336446
O O8 0.191648 0.231328 0.350440
O O9 0.226107 0.322223 0.442152
O O10 0.127364 0.183042 0.460945
O O11 0.041258 0.304258 0.410403
O O12 0.637526 0.189282 0.874191
O O13 0.593716 0.322614 0.942545
O O14 0.431461 0.258230 0.662809
O O15 0.713366 0.529026 0.435044
#
# Coordination Sequence:
#
# PCOD9559695 Si02
#       7
#    16  16  16  16  16  16  16
#     4  10  20  36  58  85 124 162 203 264 322 385
#     4   9  19  35  58  92 129 167 211 265 323 392
#     4  10  21  40  60  88 125 161 217 263 320 387
#     4  10  21  38  62  86 121 162 208 264 324 385
#     4  10  21  37  63  91 122 168 213 264 322 384
#     4   9  22  39  59  89 122 164 207 273 318 378
#     4  10  20  37  61  88 127 163 213 261 325 392
#
# _framework density 23.856432999999999
#
# number of rings (size 3 to 8) (size 9 to 14) (size 15 to 20)
#    0.000    2.286    0.000    1.714    4.000    0.000 
#    0.000    0.000    6.286    1.714    0.000    0.000 
#    0.000    0.000    0.000    0.000    0.000    0.000 
#
# Total GULP energy -311777.207343 kJ/mol
# GULP energy per Si atom -5567.450131 kJ/mol
# Density = 2.380213 g / cm^3
# Si number density = 23.856433 Si / 1000 Ang^3
#
#
#
# Elastic Constant Matrix: (Units=GPa)
#
#
# Indices 1 2 3 4 5 6 
#
# 1 72.4440 -3.6581 6.8979 0.0000 0.0000 0.0000
# 2 -3.6581 72.4440 6.8979 0.0000 0.0000 0.0000
# 3 6.8979 6.8979 82.7215 0.0000 0.0000 0.0000
# 4 0.0000 0.0000 0.0000 19.9682 0.0000 0.0000
# 5 0.0000 0.0000 0.0000 0.0000 19.9682 0.0000
# 6 0.0000 0.0000 0.0000 0.0000 0.0000 36.9121
#
#
#
# Elastic Compliance Matrix: (Units=1/GPa)
#
#
# Indices 1 2 3 4 5 6 
#
# 1 0.013963 0.000822 -0.001233 0.000000 0.000000 0.000000
# 2 0.000822 0.013963 -0.001233 0.000000 0.000000 0.000000
# 3 -0.001233 -0.001233 0.012294 0.000000 0.000000 0.000000
# 4 0.000000 0.000000 0.000000 0.050080 0.000000 0.000000
# 5 0.000000 0.000000 0.000000 0.000000 0.050080 0.000000
# 6 0.000000 0.000000 0.000000 0.000000 0.000000 0.027091
#
#
# Mechanical properties :
#
#
# Convention : Reuss Voigt Hill
#
# Bulk Modulus (GPa) = 27.07602 27.54279 27.30941
# Shear Modulus (GPa) = 27.31228 29.86784 28.59006
#
# Velocity S-wave (km/s) = 3.38725 3.54218 3.46558
# Velocity P-wave (km/s) = 5.16451 5.31974 5.24270
#
# Compressibility (1/GPa) = 0.03693305
#
# Stress axis : x y z
#
# Youngs Moduli (GPa) = 71.61948 71.61948 81.33804
#
# Poissons Ratio (x) = -0.05890 0.10028
# Poissons Ratio (y) = -0.05890 0.10028
# Poissons Ratio (z) = 0.08830 0.08830
#
# Static dielectric constant tensor:
#      x y z
#    x 1.945500 0.000000 0.000000 
#    y 0.000000 1.945500 0.000000 
#    z 0.000000 0.000000 2.484500 
# 
# From -- ./inp_files/5918.got.cif
#   From: 2010.05.17/outbox.cif.g08.bks.cpg/sg120_3_cif.got.tgz:5918.got - 2010.05.20 11:28:13.
