data_PCOD9559202
_publ_section_title
;
Structure prediction by ZEFSAII (Michael W. Deem and Ramdas Pophale) SiO2 
 PCOD9559202
Probable space group: I -4 M 2
;
_chemical_formula_sum "Si O2"
_cell_formula_units_Z 72
_cell_length_a 14.565828
_cell_length_b 14.565828
_cell_length_c 18.390729
_cell_angle_alpha 90.000000
_cell_angle_beta 90.000000
_cell_angle_gamma 90.000000
_cell_volume 3901.838588
_symmetry_space_group_name_H-M "I -4 M 2"
_symmetry_group_IT_number 119
_symmetry_cell_setting 'tetragonal'
loop_
_space_group_symop_operation_xyz
x,y,z
y,-x,-z
-x,-y,z
-y,x,-z
y,x,-z
-y,-x,-z
-x,y,z
x,-y,z
1/2+x,1/2+y,1/2+z
1/2+y,1/2-x,1/2-z
1/2-x,1/2-y,1/2+z
1/2-y,1/2+x,1/2-z
1/2+y,1/2+x,1/2-z
1/2-y,1/2-x,1/2-z
1/2-x,1/2+y,1/2+z
1/2+x,1/2-y,1/2+z
loop_
_atom_site_type_symbol
_atom_site_label
_atom_site_fract_x
_atom_site_fract_y
_atom_site_fract_z
Si Si1 0.603060 0.388678 0.799066
Si Si2 0.610389 0.389612 0.500000
Si Si3 0.607023 0.099976 0.366779
Si Si4 0.695229 0.389830 0.653713
Si Si5 0.604798 0.285960 0.057522
O O1 0.500000 0.357840 0.816538
O O2 0.601480 0.500000 0.794498
O O3 0.635905 0.353436 0.720798
O O4 0.673097 0.368595 0.863782
O O5 0.500000 0.376035 0.510190
O O6 0.663132 0.358723 0.573451
O O7 0.500000 0.100265 0.386747
O O8 0.624247 0.197261 0.328992
O O9 0.676634 0.102979 0.434102
O O10 0.625001 0.000000 0.329057
O O11 0.681146 0.500000 0.651235
O O12 0.500000 0.316871 0.041294
O O13 0.673868 0.326133 0.000000
#
# Coordination Sequence:
#
# PCOD9559202 Si02
#       5
#    16   8  16  16  16
#     4   9  17  30  48  72 103 132 159 199 253 308
#     4   9  16  26  44  72 102 130 163 202 248 310
#     4   9  19  35  52  72 101 136 175 217 257 304
#     4   9  17  29  47  70  97 132 167 201 249 302
#     4  10  20  33  52  76 101 133 171 212 261 313
#
# _framework density 18.452839999999998
#
# number of rings (size 3 to 8) (size 9 to 14) (size 15 to 20)
#    0.000    2.778    0.000    1.333    1.556    4.667 
#    0.000    3.333    0.000    9.333    0.000    0.000 
#    0.000    1.778    0.000   13.778    0.000    0.000 
#
# Total GULP energy -200461.409392 kJ/mol
# GULP energy per Si atom -5568.372483 kJ/mol
# Density = 1.841084 g / cm^3
# Si number density = 18.452840 Si / 1000 Ang^3
#
#
#
# Elastic Constant Matrix: (Units=GPa)
#
#
# Indices 1 2 3 4 5 6 
#
# 1 60.5720 21.2211 23.2226 0.0000 0.0000 0.0000
# 2 21.2211 60.5732 23.2229 0.0000 0.0000 0.0000
# 3 23.2226 23.2229 84.2492 0.0000 0.0000 0.0000
# 4 0.0000 0.0000 0.0000 7.5405 0.0000 0.0000
# 5 0.0000 0.0000 0.0000 0.0000 7.5405 0.0000
# 6 0.0000 0.0000 0.0000 0.0000 0.0000 16.3791
#
#
#
# Elastic Compliance Matrix: (Units=1/GPa)
#
#
# Indices 1 2 3 4 5 6 
#
# 1 0.019953 -0.005459 -0.003995 0.000000 0.000000 0.000000
# 2 -0.005459 0.019953 -0.003995 0.000000 0.000000 0.000000
# 3 -0.003995 -0.003995 0.014072 0.000000 0.000000 0.000000
# 4 0.000000 0.000000 0.000000 0.132618 0.000000 0.000000
# 5 0.000000 0.000000 0.000000 0.000000 0.132618 0.000000
# 6 0.000000 0.000000 0.000000 0.000000 0.000000 0.061054
#
#
# Mechanical properties :
#
#
# Convention : Reuss Voigt Hill
#
# Bulk Modulus (GPa) = 36.92771 37.85863 37.39317
# Shear Modulus (GPa) = 12.01366 15.47385 13.74375
#
# Velocity S-wave (km/s) = 2.55433 2.89893 2.73207
# Velocity P-wave (km/s) = 5.36235 5.63614 5.50095
#
# Compressibility (1/GPa) = 0.02707994
#
# Stress axis : x y z
#
# Youngs Moduli (GPa) = 50.11658 50.11750 71.06240
#
# Poissons Ratio (x) = 0.27358 0.28392
# Poissons Ratio (y) = 0.27357 0.28392
# Poissons Ratio (z) = 0.20023 0.20024
#
# Static dielectric constant tensor:
#      x y z
#    x 1.670160 0.000000 0.000000 
#    y 0.000000 1.670160 0.000000 
#    z 0.000000 0.000000 1.637760 
# 
# From -- ./inp_files/6372.got.cif
#   From: 2010.05.17/outbox.cif.g08.bks.cpg/sg119_4_cif.got.tgz:6372.got - 2010.05.20 11:21:29.
