data_PCOD9559341
_publ_section_title
;
Structure prediction by ZEFSAII (Michael W. Deem and Ramdas Pophale) SiO2 
 PCOD9559341
Probable space group: I -4 M 2
;
_chemical_formula_sum "Si O2"
_cell_formula_units_Z 120
_cell_length_a 14.644820
_cell_length_b 14.644820
_cell_length_c 29.967662
_cell_angle_alpha 90.000000
_cell_angle_beta 90.000000
_cell_angle_gamma 90.000000
_cell_volume 6427.187030
_symmetry_space_group_name_H-M "I -4 M 2"
_symmetry_group_IT_number 119
_symmetry_cell_setting 'tetragonal'
loop_
_space_group_symop_operation_xyz
x,y,z
y,-x,-z
-x,-y,z
-y,x,-z
y,x,-z
-y,-x,-z
-x,y,z
x,-y,z
1/2+x,1/2+y,1/2+z
1/2+y,1/2-x,1/2-z
1/2-x,1/2-y,1/2+z
1/2-y,1/2+x,1/2-z
1/2+y,1/2+x,1/2-z
1/2-y,1/2-x,1/2-z
1/2-x,1/2+y,1/2+z
1/2+x,1/2-y,1/2+z
loop_
_atom_site_type_symbol
_atom_site_label
_atom_site_fract_x
_atom_site_fract_y
_atom_site_fract_z
Si Si1 0.602521 0.102521 0.250000
Si Si2 0.227966 0.109693 0.377345
Si Si3 0.101261 0.106547 0.293773
Si Si4 0.610334 0.697190 0.956571
Si Si5 0.212089 0.604877 0.657137
Si Si6 0.609132 0.897876 0.935130
Si Si7 0.898679 0.391804 0.329466
Si Si8 0.176119 0.781404 0.216427
O O1 0.500000 0.116231 0.232290
O O2 0.604122 0.160378 0.295218
O O3 0.177280 0.130570 0.330325
O O4 0.163832 0.152344 0.415220
O O5 0.327520 0.156275 0.375116
O O6 0.233967 0.000000 0.382138
O O7 0.108911 0.165595 0.249315
O O8 0.000000 0.115874 0.313748
O O9 0.115189 0.000000 0.282104
O O10 0.500000 0.692348 0.950920
O O11 0.638034 0.804775 0.959475
O O12 0.642498 0.642498 0.000000
O O13 0.222758 0.500000 0.642269
O O14 0.303250 0.657178 0.673139
O O15 0.500000 0.903674 0.941849
O O16 0.621236 0.880505 0.882080
O O17 0.646267 0.000000 0.945892
O O18 0.902521 0.500000 0.321329
O O19 0.817688 0.352589 0.300495
O O20 0.000000 0.353231 0.319918
O O21 0.260470 0.760470 0.250000
#
# Coordination Sequence:
#
# PCOD9559341 Si02
#       8
#     8  16  16  16  16  16  16  16
#     4   9  16  28  48  70  94 131 180 232 282 327
#     4  11  22  38  57  80 110 146 189 233 287 351
#     4  10  21  36  53  75 107 149 193 235 283 342
#     4  11  23  39  62  91 121 150 184 229 287 358
#     4  11  21  35  52  74 107 149 198 248 289 331
#     4   8  16  34  59  83 111 151 191 226 272 337
#     4   9  19  35  54  79 113 152 195 241 290 344
#     4  12  21  32  49  77 110 152 195 242 287 333
#
# _framework density 18.670687999999998
#
# number of rings (size 3 to 8) (size 9 to 14) (size 15 to 20)
#    0.000    1.800    2.000    3.600    0.000    5.467 
#    0.000    1.333    0.000    1.600    0.000    0.000 
#    0.000    1.333    0.000    0.000    0.000    0.000 
#
# Total GULP energy -334478.333068 kJ/mol
# GULP energy per Si atom -5574.638884 kJ/mol
# Density = 1.862819 g / cm^3
# Si number density = 18.670688 Si / 1000 Ang^3
#
#
#
# Elastic Constant Matrix: (Units=GPa)
#
#
# Indices 1 2 3 4 5 6 
#
# 1 98.7092 32.9542 38.0682 0.0000 0.0000 0.0000
# 2 32.9542 98.7092 38.0682 0.0000 0.0000 0.0000
# 3 38.0682 38.0682 38.1644 0.0000 0.0000 0.0000
# 4 0.0000 0.0000 0.0000 23.6902 0.0000 0.0000
# 5 0.0000 0.0000 0.0000 0.0000 23.6902 0.0000
# 6 0.0000 0.0000 0.0000 0.0000 0.0000 22.3645
#
#
#
# Elastic Compliance Matrix: (Units=1/GPa)
#
#
# Indices 1 2 3 4 5 6 
#
# 1 0.016578 0.001370 -0.017902 0.000000 0.000000 0.000000
# 2 0.001370 0.016578 -0.017902 0.000000 0.000000 0.000000
# 3 -0.017902 -0.017902 0.061916 0.000000 0.000000 0.000000
# 4 0.000000 0.000000 0.000000 0.042212 0.000000 0.000000
# 5 0.000000 0.000000 0.000000 0.000000 0.042212 0.000000
# 6 0.000000 0.000000 0.000000 0.000000 0.000000 0.044714
#
#
# Mechanical properties :
#
#
# Convention : Reuss Voigt Hill
#
# Bulk Modulus (GPa) = 38.16404 50.41822 44.29113
# Shear Modulus (GPa) = 16.56663 22.38178 19.47421
#
# Velocity S-wave (km/s) = 2.98200 3.46608 3.23311
# Velocity P-wave (km/s) = 5.68695 6.56360 6.14094
#
# Compressibility (1/GPa) = 0.02620268
#
# Stress axis : x y z
#
# Youngs Moduli (GPa) = 60.32236 60.32236 16.15084
#
# Poissons Ratio (x) = -0.08262 0.28913
# Poissons Ratio (y) = -0.08262 0.28913
# Poissons Ratio (z) = 1.07989 1.07989
#
# Static dielectric constant tensor:
#      x y z
#    x 1.732140 0.000000 0.000000 
#    y 0.000000 1.732140 0.000000 
#    z 0.000000 0.000000 1.623200 
# 
# From -- ./inp_files/10540.got.cif
#   From: 2010.05.17/outbox.cif.g08.bks.cpg/sg119_6_cif.got.tgz:10540.got - 2010.05.20 11:21:29.
