data_PCOD9559294
_publ_section_title
;
Structure prediction by ZEFSAII (Michael W. Deem and Ramdas Pophale) SiO2 
 PCOD9559294
Probable space group: I -4 M 2
;
_chemical_formula_sum "Si O2"
_cell_formula_units_Z 112
_cell_length_a 14.653908
_cell_length_b 14.653908
_cell_length_c 26.145747
_cell_angle_alpha 90.000000
_cell_angle_beta 90.000000
_cell_angle_gamma 90.000000
_cell_volume 5614.459788
_symmetry_space_group_name_H-M "I -4 M 2"
_symmetry_group_IT_number 119
_symmetry_cell_setting 'tetragonal'
loop_
_space_group_symop_operation_xyz
x,y,z
y,-x,-z
-x,-y,z
-y,x,-z
y,x,-z
-y,-x,-z
-x,y,z
x,-y,z
1/2+x,1/2+y,1/2+z
1/2+y,1/2-x,1/2-z
1/2-x,1/2-y,1/2+z
1/2-y,1/2+x,1/2-z
1/2+y,1/2+x,1/2-z
1/2-y,1/2-x,1/2-z
1/2-x,1/2+y,1/2+z
1/2+x,1/2-y,1/2+z
loop_
_atom_site_type_symbol
_atom_site_label
_atom_site_fract_x
_atom_site_fract_y
_atom_site_fract_z
Si Si1 0.601602 0.104749 0.513366
Si Si2 0.105250 0.785527 0.542771
Si Si3 0.203998 0.395249 0.855723
Si Si4 0.102686 0.839090 0.734472
Si Si5 0.209397 0.896285 0.145562
Si Si6 0.299975 0.104268 0.701981
Si Si7 0.222467 0.607672 0.385520
O O1 0.500000 0.117002 0.492321
O O2 0.679437 0.115539 0.471869
O O3 0.615453 0.173949 0.559765
O O4 0.608301 0.000000 0.532997
O O5 0.161235 0.838766 0.500000
O O6 0.127369 0.784756 0.602981
O O7 0.000000 0.813214 0.537225
O O8 0.174530 0.500000 0.866826
O O9 0.247144 0.394528 0.799339
O O10 0.130692 0.315510 0.859140
O O11 0.112689 0.818444 0.794544
O O12 0.192104 0.891654 0.714959
O O13 0.000000 0.878644 0.726425
O O14 0.148493 0.823757 0.115068
O O15 0.193934 0.000000 0.129646
O O16 0.352742 0.147259 0.750000
O O17 0.331663 0.165253 0.654373
O O18 0.326985 0.000000 0.693376
O O19 0.221913 0.500000 0.370943
#
# Coordination Sequence:
#
# PCOD9559294 Si02
#       7
#    16  16  16  16  16  16  16
#     4   9  19  37  60  84 111 145 186 233 287 345
#     4  10  21  36  57  84 115 151 189 234 287 342
#     4  10  20  37  60  85 115 148 191 245 293 340
#     4  10  21  39  60  81 115 157 194 234 283 343
#     4  11  22  37  59  84 114 154 195 233 285 345
#     4  12  23  36  57  84 116 152 193 242 288 336
#     4  11  22  38  58  83 116 153 191 234 286 343
#
# _framework density 19.948491000000001
#
# number of rings (size 3 to 8) (size 9 to 14) (size 15 to 20)
#    0.000    1.571    2.857    2.143    0.000    3.143 
#    0.000    2.857    0.000    5.143    0.000    0.000 
#    0.000    3.429    0.000    0.000    0.000    0.000 
#
# Total GULP energy -312588.136227 kJ/mol
# GULP energy per Si atom -5581.931004 kJ/mol
# Density = 1.990309 g / cm^3
# Si number density = 19.948491 Si / 1000 Ang^3
#
#
#
# Elastic Constant Matrix: (Units=GPa)
#
#
# Indices 1 2 3 4 5 6 
#
# 1 88.5060 34.8738 8.2381 0.0000 0.0000 0.0000
# 2 34.8738 88.5059 8.2391 0.0000 0.0000 0.0000
# 3 8.2381 8.2391 28.0704 0.0000 0.0000 0.0000
# 4 0.0000 0.0000 0.0000 17.8135 0.0000 0.0000
# 5 0.0000 0.0000 0.0000 0.0000 17.8133 0.0000
# 6 0.0000 0.0000 0.0000 0.0000 0.0000 15.0219
#
#
#
# Elastic Compliance Matrix: (Units=1/GPa)
#
#
# Indices 1 2 3 4 5 6 
#
# 1 0.013541 -0.005105 -0.002476 0.000000 0.000000 0.000000
# 2 -0.005105 0.013541 -0.002476 0.000000 0.000000 0.000000
# 3 -0.002476 -0.002476 0.037078 0.000000 0.000000 0.000000
# 4 0.000000 0.000000 0.000000 0.056137 0.000000 0.000000
# 5 0.000000 0.000000 0.000000 0.000000 0.056138 0.000000
# 6 0.000000 0.000000 0.000000 0.000000 0.000000 0.066569
#
#
# Mechanical properties :
#
#
# Convention : Reuss Voigt Hill
#
# Bulk Modulus (GPa) = 22.70354 34.19826 28.45090
# Shear Modulus (GPa) = 17.99862 20.37849 19.18855
#
# Velocity S-wave (km/s) = 3.00701 3.19965 3.10482
# Velocity P-wave (km/s) = 4.84376 5.55255 5.21022
#
# Compressibility (1/GPa) = 0.04404599
#
# Stress axis : x y z
#
# Youngs Moduli (GPa) = 73.85211 73.85152 26.97015
#
# Poissons Ratio (x) = 0.37701 0.06676
# Poissons Ratio (y) = 0.37701 0.06678
# Poissons Ratio (z) = 0.18282 0.18287
#
# Static dielectric constant tensor:
#      x y z
#    x 1.709770 0.000000 0.000000 
#    y 0.000000 1.709770 0.000000 
#    z 0.000000 0.000000 1.695930 
# 
# From -- ./inp_files/8807.got.cif
#   From: 2010.05.17/outbox.cif.g08.bks.cpg/sg119_5_cif.got.tgz:8807.got - 2010.05.20 11:21:29.
