data_PCOD9559842
_publ_section_title
;
Structure prediction by ZEFSAII (Michael W. Deem and Ramdas Pophale) SiO2 
 PCOD9559842
Probable space group: I -4 C 2
;
_chemical_formula_sum "Si O2"
_cell_formula_units_Z 88
_cell_length_a 11.551908
_cell_length_b 11.551908
_cell_length_c 31.032439
_cell_angle_alpha 90.000000
_cell_angle_beta 90.000000
_cell_angle_gamma 90.000000
_cell_volume 4141.172805
_symmetry_space_group_name_H-M "I -4 C 2"
_symmetry_group_IT_number 120
_symmetry_cell_setting 'tetragonal'
loop_
_space_group_symop_operation_xyz
x,y,z
y,-x,-z
-x,-y,z
-y,x,-z
y,x,1/2-z
-y,-x,1/2-z
-x,y,1/2+z
x,-y,1/2+z
1/2+x,1/2+y,1/2+z
1/2+y,1/2-x,1/2-z
1/2-x,1/2-y,1/2+z
1/2-y,1/2+x,1/2-z
1/2+y,1/2+x,-z
1/2-y,1/2-x,-z
1/2-x,1/2+y,z
1/2+x,1/2-y,z
loop_
_atom_site_type_symbol
_atom_site_label
_atom_site_fract_x
_atom_site_fract_y
_atom_site_fract_z
Si Si1 0.828399 0.648274 0.069480
Si Si2 0.500000 0.500000 0.160907
Si Si3 0.775859 0.143084 0.370694
Si Si4 0.452819 0.113352 0.652524
Si Si5 0.192040 0.830458 0.800333
Si Si6 0.541915 0.309246 0.004200
O O1 0.721626 0.722932 0.087297
O O2 0.862006 0.587051 0.114696
O O3 0.780785 0.558205 0.034875
O O4 0.917255 0.736182 0.046076
O O5 0.576051 0.600579 0.136691
O O6 0.401579 0.575522 0.186268
O O7 0.728409 0.220982 0.330308
O O8 0.679239 0.047786 0.374823
O O9 0.414415 0.202626 0.688143
O O10 0.500000 0.000000 0.673730
O O11 0.193395 0.806606 0.750000
O O12 0.415810 0.367972 0.003659
#
# Coordination Sequence:
#
# PCOD9559842 Si02
#       6
#    16   8  16  16  16  16
#     4  10  22  39  62  90 126 165 213 273 326 402
#     4  10  23  44  68  98 131 176 230 278 347 412
#     4  10  23  40  67  94 128 173 226 275 338 407
#     4  10  23  41  60  97 127 173 222 271 345 402
#     4  10  23  42  67  97 132 173 221 278 340 411
#     4  10  22  39  61  92 124 165 216 266 334 394
#
# _framework density 21.250018000000001
#
# number of rings (size 3 to 8) (size 9 to 14) (size 15 to 20)
#    0.000    2.000    0.000    1.364    7.636    7.273 
#    0.000    0.909    0.000    0.000    0.000    0.000 
#    0.000    0.000    0.000    0.000    0.000    0.000 
#
# Total GULP energy -245014.683526 kJ/mol
# GULP energy per Si atom -5568.515535 kJ/mol
# Density = 2.120165 g / cm^3
# Si number density = 21.250018 Si / 1000 Ang^3
#
#
#
# Elastic Constant Matrix: (Units=GPa)
#
#
# Indices 1 2 3 4 5 6 
#
# 1 63.6118 13.8135 2.9852 0.0000 0.0000 0.0000
# 2 13.8135 63.6119 2.9850 0.0000 0.0000 0.0000
# 3 2.9852 2.9850 59.9938 0.0000 0.0000 0.0000
# 4 0.0000 0.0000 0.0000 -4.3429 0.0000 0.0000
# 5 0.0000 0.0000 0.0000 0.0000 -4.3437 0.0000
# 6 0.0000 0.0000 0.0000 0.0000 0.0000 23.0169
#
#
#
# Elastic Compliance Matrix: (Units=1/GPa)
#
#
# Indices 1 2 3 4 5 6 
#
# 1 0.016523 -0.003558 -0.000645 0.000000 0.000000 0.000000
# 2 -0.003558 0.016523 -0.000645 0.000000 0.000000 0.000000
# 3 -0.000645 -0.000645 0.016733 0.000000 0.000000 0.000000
# 4 0.000000 0.000000 0.000000 -0.230262 0.000000 0.000000
# 5 0.000000 0.000000 0.000000 0.000000 -0.230221 0.000000
# 6 0.000000 0.000000 0.000000 0.000000 0.000000 0.043446
#
#
# Mechanical properties :
#
#
# Convention : Reuss Voigt Hill
#
# Bulk Modulus (GPa) = 24.94827 25.19832 25.07330
# Shear Modulus (GPa) = -14.52641 14.02833 -0.24904
#
# Velocity S-wave (km/s) = -2.61740 2.57214 -0.34271
# Velocity P-wave (km/s) = 1.62217 4.55027 3.41588
#
# Compressibility (1/GPa) = 0.04008294
#
# Stress axis : x y z
#
# Youngs Moduli (GPa) = 60.52092 60.52096 59.76359
#
# Poissons Ratio (x) = 0.21532 0.03856
# Poissons Ratio (y) = 0.21532 0.03855
# Poissons Ratio (z) = 0.03904 0.03904
#
# Static dielectric constant tensor:
#      x y z
#    x 1.794910 0.000000 0.000000 
#    y 0.000000 1.794910 0.000000 
#    z 0.000000 0.000000 1.734740 
# 
# From -- ./inp_files/6581.got.cif
#   From: 2010.05.17/outbox.cif.g08.bks.cpg/sg120_4_cif.got.tgz:6581.got - 2010.05.20 11:28:13.
