data_PCOD9559928
_publ_section_title
;
Structure prediction by ZEFSAII (Michael W. Deem and Ramdas Pophale) SiO2 
 PCOD9559928
Probable space group: I -4 C 2
;
_chemical_formula_sum "Si O2"
_cell_formula_units_Z 108
_cell_length_a 14.782329
_cell_length_b 14.782329
_cell_length_c 23.774227
_cell_angle_alpha 90.000000
_cell_angle_beta 90.000000
_cell_angle_gamma 90.000000
_cell_volume 5195.078721
_symmetry_space_group_name_H-M "I -4 C 2"
_symmetry_group_IT_number 120
_symmetry_cell_setting 'tetragonal'
loop_
_space_group_symop_operation_xyz
x,y,z
y,-x,-z
-x,-y,z
-y,x,-z
y,x,1/2-z
-y,-x,1/2-z
-x,y,1/2+z
x,-y,1/2+z
1/2+x,1/2+y,1/2+z
1/2+y,1/2-x,1/2-z
1/2-x,1/2-y,1/2+z
1/2-y,1/2+x,1/2-z
1/2+y,1/2+x,-z
1/2-y,1/2-x,-z
1/2-x,1/2+y,z
1/2+x,1/2-y,z
loop_
_atom_site_type_symbol
_atom_site_label
_atom_site_fract_x
_atom_site_fract_y
_atom_site_fract_z
Si Si1 0.000000 0.500000 0.750000
Si Si2 0.069153 0.674431 0.190383
Si Si3 0.599324 0.541050 0.101902
Si Si4 0.726285 0.344192 0.197538
Si Si5 0.968638 0.233681 0.071272
Si Si6 0.657754 0.343634 0.076852
Si Si7 0.826600 0.326600 0.000000
Si Si8 0.042574 0.829175 0.278718
O O1 0.010117 0.410469 0.711462
O O2 0.170816 0.640289 0.178909
O O3 0.035399 0.727228 0.135011
O O4 0.075829 0.745099 0.241877
O O5 0.500000 0.500000 0.119303
O O6 0.582072 0.635324 0.069916
O O7 0.643052 0.452834 0.072652
O O8 0.660099 0.566765 0.155754
O O9 0.722792 0.277209 0.250000
O O10 0.669507 0.319529 0.142671
O O11 0.684168 0.436112 0.220818
O O12 0.070478 0.208844 0.055068
O O13 0.920245 0.306042 0.031395
O O14 0.748130 0.316770 0.045709
O O15 0.081565 0.918436 0.250000
#
# Coordination Sequence:
#
# PCOD9559928 Si02
#       8
#     4  16  16  16  16  16   8  16
#     4  12  28  44  64  90 140 204 216 264 328 410
#     4  12  23  44  60  94 136 184 233 263 327 411
#     4   9  21  40  67 102 138 166 213 280 358 404
#     4  11  23  38  65  99 137 170 220 275 343 412
#     4  11  24  46  66  98 135 172 229 290 340 408
#     4  10  24  45  67 104 134 178 223 289 350 404
#     4  12  26  44  72 100 132 178 236 278 346 414
#     4  11  21  34  63  97 133 175 208 265 334 407
#
# _framework density 20.788906000000001
#
# number of rings (size 3 to 8) (size 9 to 14) (size 15 to 20)
#    0.000    1.185    4.444    1.333    6.222    0.000 
#    0.000    1.481    0.000    0.000    0.000    0.000 
#    0.000    0.000    0.000    0.000    0.000    0.000 
#
# Total GULP energy -301519.740911 kJ/mol
# GULP energy per Si atom -5583.698906 kJ/mol
# Density = 2.074159 g / cm^3
# Si number density = 20.788906 Si / 1000 Ang^3
#
#
#
# Elastic Constant Matrix: (Units=GPa)
#
#
# Indices 1 2 3 4 5 6 
#
# 1 49.9887 17.3414 32.9105 0.0000 0.0000 0.0000
# 2 17.3414 49.9813 32.9126 0.0000 0.0000 0.0000
# 3 32.9105 32.9126 61.0752 0.0000 0.0000 0.0000
# 4 0.0000 0.0000 0.0000 25.9922 0.0000 0.0000
# 5 0.0000 0.0000 0.0000 0.0000 25.9920 0.0000
# 6 0.0000 0.0000 0.0000 0.0000 0.0000 15.2899
#
#
#
# Elastic Compliance Matrix: (Units=1/GPa)
#
#
# Indices 1 2 3 4 5 6 
#
# 1 0.031008 0.000378 -0.016913 0.000000 0.000000 0.000000
# 2 0.000378 0.031017 -0.016919 0.000000 0.000000 0.000000
# 3 -0.016913 -0.016919 0.034604 0.000000 0.000000 0.000000
# 4 0.000000 0.000000 0.000000 0.038473 0.000000 0.000000
# 5 0.000000 0.000000 0.000000 0.000000 0.038473 0.000000
# 6 0.000000 0.000000 0.000000 0.000000 0.000000 0.065403
#
#
# Mechanical properties :
#
#
# Convention : Reuss Voigt Hill
#
# Bulk Modulus (GPa) = 33.64368 36.37493 35.00931
# Shear Modulus (GPa) = 15.83327 18.64688 17.24008
#
# Velocity S-wave (km/s) = 2.76274 2.99818 2.88287
# Velocity P-wave (km/s) = 5.13767 5.43330 5.28755
#
# Compressibility (1/GPa) = 0.02972326
#
# Stress axis : x y z
#
# Youngs Moduli (GPa) = 32.24997 32.24039 28.89855
#
# Poissons Ratio (x) = -0.01220 0.48875
# Poissons Ratio (y) = -0.01221 0.48892
# Poissons Ratio (z) = 0.54543 0.54546
#
# Static dielectric constant tensor:
#      x y z
#    x 1.740380 0.000000 0.000000 
#    y 0.000000 1.740390 0.000000 
#    z 0.000000 0.000000 1.803250 
# 
# From -- ./inp_files/5953.got.cif
#   From: 2010.05.17/outbox.cif.g08.bks.cpg/sg120_3_cif.got.tgz:5953.got - 2010.05.20 11:28:13.
