data_PCOD9559212
_publ_section_title
;
Structure prediction by ZEFSAII (Michael W. Deem and Ramdas Pophale) SiO2 
 PCOD9559212
Probable space group: I -4 M 2
;
_chemical_formula_sum "Si O2"
_cell_formula_units_Z 88
_cell_length_a 14.861326
_cell_length_b 14.861326
_cell_length_c 20.732890
_cell_angle_alpha 90.000000
_cell_angle_beta 90.000000
_cell_angle_gamma 90.000000
_cell_volume 4579.045570
_symmetry_space_group_name_H-M "I -4 M 2"
_symmetry_group_IT_number 119
_symmetry_cell_setting 'tetragonal'
loop_
_space_group_symop_operation_xyz
x,y,z
y,-x,-z
-x,-y,z
-y,x,-z
y,x,-z
-y,-x,-z
-x,y,z
x,-y,z
1/2+x,1/2+y,1/2+z
1/2+y,1/2-x,1/2-z
1/2-x,1/2-y,1/2+z
1/2-y,1/2+x,1/2-z
1/2+y,1/2+x,1/2-z
1/2-y,1/2-x,1/2-z
1/2-x,1/2+y,1/2+z
1/2+x,1/2-y,1/2+z
loop_
_atom_site_type_symbol
_atom_site_label
_atom_site_fract_x
_atom_site_fract_y
_atom_site_fract_z
Si Si1 0.162673 0.276599 0.546059
Si Si2 0.103275 0.103275 0.000000
Si Si3 0.107618 0.602491 0.069326
Si Si4 0.107702 0.895479 0.241396
Si Si5 0.393821 0.400838 0.113628
Si Si6 0.823723 0.787815 0.120870
O O1 0.242590 0.242590 0.500000
O O2 0.110421 0.347353 0.502191
O O3 0.117548 0.183356 0.566861
O O4 0.218636 0.310341 0.607285
O O5 0.162426 0.122147 0.936749
O O6 0.000000 0.117234 0.980687
O O7 0.122814 0.500000 0.092546
O O8 0.153504 0.681355 0.112069
O O9 0.000000 0.617904 0.066092
O O10 0.122433 0.860921 0.314500
O O11 0.148081 0.829936 0.188309
O O12 0.000000 0.897546 0.232732
O O13 0.139328 0.000000 0.235100
O O14 0.500000 0.411630 0.121415
O O15 0.357903 0.500000 0.092507
#
# Coordination Sequence:
#
# PCOD9559212 Si02
#       6
#    16   8  16  16  16  16
#     4  10  21  34  51  77 103 138 178 223 263 309
#     4  11  20  30  50  80 112 139 168 216 270 321
#     4  10  20  34  51  73 107 146 181 219 260 306
#     4   9  18  33  54  80 109 140 169 207 268 332
#     4   9  19  36  56  78 105 136 173 219 272 325
#     4  11  20  32  51  78 110 142 173 216 262 320
#
# _framework density 19.217977000000001
#
# number of rings (size 3 to 8) (size 9 to 14) (size 15 to 20)
#    0.000    2.091    2.727    3.818    0.000    6.545 
#    0.000    0.909    0.000    0.000    0.000    1.273 
#    0.000   23.273    0.000    0.000    0.000    0.000 
#
# Total GULP energy -245047.307771 kJ/mol
# GULP energy per Si atom -5569.256995 kJ/mol
# Density = 1.917424 g / cm^3
# Si number density = 19.217977 Si / 1000 Ang^3
#
#
#
# Elastic Constant Matrix: (Units=GPa)
#
#
# Indices 1 2 3 4 5 6 
#
# 1 61.4869 19.3062 20.7667 0.0000 0.0000 0.0000
# 2 19.3062 61.4869 20.7667 0.0000 0.0000 0.0000
# 3 20.7667 20.7667 50.8972 0.0000 0.0000 0.0000
# 4 0.0000 0.0000 0.0000 13.3292 0.0000 0.0000
# 5 0.0000 0.0000 0.0000 0.0000 13.3292 0.0000
# 6 0.0000 0.0000 0.0000 0.0000 0.0000 24.9006
#
#
#
# Elastic Compliance Matrix: (Units=1/GPa)
#
#
# Indices 1 2 3 4 5 6 
#
# 1 0.019685 -0.004023 -0.006390 0.000000 0.000000 0.000000
# 2 -0.004023 0.019685 -0.006390 0.000000 0.000000 0.000000
# 3 -0.006390 -0.006390 0.024862 0.000000 0.000000 0.000000
# 4 0.000000 0.000000 0.000000 0.075023 0.000000 0.000000
# 5 0.000000 0.000000 0.000000 0.000000 0.075023 0.000000
# 6 0.000000 0.000000 0.000000 0.000000 0.000000 0.040160
#
#
# Mechanical properties :
#
#
# Convention : Reuss Voigt Hill
#
# Bulk Modulus (GPa) = 32.65280 32.83890 32.74585
# Shear Modulus (GPa) = 16.76427 17.84724 17.30576
#
# Velocity S-wave (km/s) = 2.95671 3.05072 3.00409
# Velocity P-wave (km/s) = 5.35573 5.43451 5.39526
#
# Compressibility (1/GPa) = 0.03062524
#
# Stress axis : x y z
#
# Youngs Moduli (GPa) = 50.80013 50.80013 40.22172
#
# Poissons Ratio (x) = 0.20435 0.25704
# Poissons Ratio (y) = 0.20435 0.25704
# Poissons Ratio (z) = 0.32464 0.32464
#
# Static dielectric constant tensor:
#      x y z
#    x 1.736040 0.000000 0.000000 
#    y 0.000000 1.736040 0.000000 
#    z 0.000000 0.000000 1.727060 
# 
# From -- ./inp_files/7669.got.cif
#   From: 2010.05.17/outbox.cif.g08.bks.cpg/sg119_4_cif.got.tgz:7669.got - 2010.05.20 11:21:29.
