data_PCOD9559520
_publ_section_title
;
Structure prediction by ZEFSAII (Michael W. Deem and Ramdas Pophale) SiO2 
 PCOD9559520
Probable space group: I -4 M 2
;
_chemical_formula_sum "Si O2"
_cell_formula_units_Z 36
_cell_length_a 15.958581
_cell_length_b 15.958581
_cell_length_c 6.099145
_cell_angle_alpha 90.000000
_cell_angle_beta 90.000000
_cell_angle_gamma 90.000000
_cell_volume 1553.307728
_symmetry_space_group_name_H-M "I -4 M 2"
_symmetry_group_IT_number 119
_symmetry_cell_setting 'tetragonal'
loop_
_space_group_symop_operation_xyz
x,y,z
y,-x,-z
-x,-y,z
-y,x,-z
y,x,-z
-y,-x,-z
-x,y,z
x,-y,z
1/2+x,1/2+y,1/2+z
1/2+y,1/2-x,1/2-z
1/2-x,1/2-y,1/2+z
1/2-y,1/2+x,1/2-z
1/2+y,1/2+x,1/2-z
1/2-y,1/2-x,1/2-z
1/2-x,1/2+y,1/2+z
1/2+x,1/2-y,1/2+z
loop_
_atom_site_type_symbol
_atom_site_label
_atom_site_fract_x
_atom_site_fract_y
_atom_site_fract_z
Si Si1 0.000000 0.181160 0.683314
Si Si2 0.500000 0.000000 0.750000
Si Si3 0.500000 0.814356 0.788885
Si Si4 0.271476 0.859827 0.064609
Si Si5 0.000000 0.000000 0.500000
O O1 0.000000 0.242821 0.472685
O O2 0.917125 0.202726 0.817806
O O3 0.000000 0.084600 0.634196
O O4 0.500000 0.089569 0.874313
O O5 0.582067 0.801861 0.635229
O O6 0.340789 0.840789 0.250000
O O7 0.227628 0.772373 0.000000
#
# Coordination Sequence:
#
# PCOD9559520 Si02
#       5
#     8   2   8  16   2
#     4  11  25  47  67 104 144 192 247 306 379 446
#     4  12  24  40  78 100 140 190 236 312 358 448
#     4  11  25  47  67 104 144 192 247 306 379 446
#     4  11  26  42  70 101 140 192 244 305 370 447
#     4  12  24  40  78 100 140 190 236 312 358 448
#
# _framework density 23.176348999999998
#
# number of rings (size 3 to 8) (size 9 to 14) (size 15 to 20)
#    0.000    0.889    0.000    5.333   12.444    3.556 
#    0.000    8.889    0.000    0.000    0.000    0.000 
#    0.000    0.000    0.000    0.000    0.000    0.000 
#
# Total GULP energy -100731.510232 kJ/mol
# GULP energy per Si atom -5596.195013 kJ/mol
# Density = 2.312360 g / cm^3
# Si number density = 23.176349 Si / 1000 Ang^3
#
#
#
# Elastic Constant Matrix: (Units=GPa)
#
#
# Indices 1 2 3 4 5 6 
#
# 1 139.1863 11.2325 36.3432 0.0000 0.0000 0.0000
# 2 11.2325 139.1917 36.3442 0.0000 0.0000 0.0000
# 3 36.3432 36.3442 92.0110 0.0000 0.0000 0.0000
# 4 0.0000 0.0000 0.0000 8.7873 0.0000 0.0000
# 5 0.0000 0.0000 0.0000 0.0000 8.8015 0.0000
# 6 0.0000 0.0000 0.0000 0.0000 0.0000 40.4327
#
#
#
# Elastic Compliance Matrix: (Units=1/GPa)
#
#
# Indices 1 2 3 4 5 6 
#
# 1 0.008016 0.000201 -0.003245 0.000000 0.000000 0.000000
# 2 0.000201 0.008016 -0.003245 0.000000 0.000000 0.000000
# 3 -0.003245 -0.003245 0.013432 0.000000 0.000000 0.000000
# 4 0.000000 0.000000 0.000000 0.113800 0.000000 0.000000
# 5 0.000000 0.000000 0.000000 0.000000 0.113617 0.000000
# 6 0.000000 0.000000 0.000000 0.000000 0.000000 0.024732
#
#
# Mechanical properties :
#
#
# Convention : Reuss Voigt Hill
#
# Bulk Modulus (GPa) = 59.23085 59.80318 59.51701
# Shear Modulus (GPa) = 16.67661 30.70225 23.68943
#
# Velocity S-wave (km/s) = 2.68536 3.64362 3.20056
# Velocity P-wave (km/s) = 5.93523 6.60007 6.27646
#
# Compressibility (1/GPa) = 0.01688309
#
# Stress axis : x y z
#
# Youngs Moduli (GPa) = 124.75302 124.75771 74.44883
#
# Poissons Ratio (x) = -0.02502 0.24161
# Poissons Ratio (y) = -0.02502 0.24161
# Poissons Ratio (z) = 0.40487 0.40488
#
# Static dielectric constant tensor:
#      x y z
#    x 2.308320 0.000000 0.000000 
#    y 0.000000 2.308380 0.000000 
#    z 0.000000 0.000000 1.867560 
# 
# From -- ./inp_files/314.got.cif
#   From: 2010.05.17/outbox.cif.g08.bks.cpg/sg119_1_cif.got.tgz:314.got - 2010.05.20 11:21:29.
