data_PCOD9559872
_publ_section_title
;
Structure prediction by ZEFSAII (Michael W. Deem and Ramdas Pophale) SiO2 
 PCOD9559872
Probable space group: I -4 C 2
;
_chemical_formula_sum "Si O2"
_cell_formula_units_Z 68
_cell_length_a 11.682522
_cell_length_b 11.682522
_cell_length_c 26.639257
_cell_angle_alpha 90.000000
_cell_angle_beta 90.000000
_cell_angle_gamma 90.000000
_cell_volume 3635.760967
_symmetry_space_group_name_H-M "I -4 C 2"
_symmetry_group_IT_number 120
_symmetry_cell_setting 'tetragonal'
loop_
_space_group_symop_operation_xyz
x,y,z
y,-x,-z
-x,-y,z
-y,x,-z
y,x,1/2-z
-y,-x,1/2-z
-x,y,1/2+z
x,-y,1/2+z
1/2+x,1/2+y,1/2+z
1/2+y,1/2-x,1/2-z
1/2-x,1/2-y,1/2+z
1/2-y,1/2+x,1/2-z
1/2+y,1/2+x,-z
1/2-y,1/2-x,-z
1/2-x,1/2+y,z
1/2+x,1/2-y,z
loop_
_atom_site_type_symbol
_atom_site_label
_atom_site_fract_x
_atom_site_fract_y
_atom_site_fract_z
Si Si1 0.968446 0.678250 0.594858
Si Si2 0.594326 0.580193 0.346432
Si Si3 0.808870 0.459261 0.608497
Si Si4 0.000000 0.000000 0.750000
Si Si5 0.687577 0.513932 0.004486
O O1 0.928445 0.787723 0.625441
O O2 0.875563 0.579008 0.602942
O O3 0.091287 0.633756 0.614057
O O4 0.985142 0.717490 0.537276
O O5 0.500000 0.500000 0.373662
O O6 0.549484 0.710372 0.349368
O O7 0.599188 0.522947 0.291047
O O8 0.744063 0.443166 0.555677
O O9 0.611786 0.400268 0.013942
#
# Coordination Sequence:
#
# PCOD9559872 Si02
#       5
#    16  16  16   4  16
#     4  11  24  39  61  95 132 169 209 255 304 364
#     4  10  22  43  67  90 118 160 208 253 321 378
#     4  11  24  39  61  95 132 169 209 255 304 364
#     4   8  24  44  68  98 108 154 206 256 328 374
#     4  11  22  35  58  94 130 173 215 248 296 364
#
# _framework density 18.703101
#
# number of rings (size 3 to 8) (size 9 to 14) (size 15 to 20)
#    0.706    0.706    2.353    2.824    6.588    3.765 
#    0.000    4.706    0.000    2.824    0.000    0.000 
#    0.000    0.000    0.000    0.000    0.000    0.000 
#
# Total GULP energy -189506.233152 kJ/mol
# GULP energy per Si atom -5573.712740 kJ/mol
# Density = 1.866053 g / cm^3
# Si number density = 18.703101 Si / 1000 Ang^3
#
#
#
# Elastic Constant Matrix: (Units=GPa)
#
#
# Indices 1 2 3 4 5 6 
#
# 1 87.5761 44.9169 6.5260 0.0000 0.0000 0.0000
# 2 44.9169 87.5761 6.5260 0.0000 0.0000 0.0000
# 3 6.5260 6.5260 60.7778 0.0000 0.0000 0.0000
# 4 0.0000 0.0000 0.0000 7.0837 0.0000 0.0000
# 5 0.0000 0.0000 0.0000 0.0000 7.0837 0.0000
# 6 0.0000 0.0000 0.0000 0.0000 0.0000 15.0749
#
#
#
# Elastic Compliance Matrix: (Units=1/GPa)
#
#
# Indices 1 2 3 4 5 6 
#
# 1 0.015535 -0.007907 -0.000819 0.000000 0.000000 0.000000
# 2 -0.007907 0.015535 -0.000819 0.000000 0.000000 0.000000
# 3 -0.000819 -0.000819 0.016629 0.000000 0.000000 0.000000
# 4 0.000000 0.000000 0.000000 0.141170 0.000000 0.000000
# 5 0.000000 0.000000 0.000000 0.000000 0.141170 0.000000
# 6 0.000000 0.000000 0.000000 0.000000 0.000000 0.066335
#
#
# Mechanical properties :
#
#
# Convention : Reuss Voigt Hill
#
# Bulk Modulus (GPa) = 34.95350 39.09644 37.02497
# Shear Modulus (GPa) = 11.76470 17.71252 14.73861
#
# Velocity S-wave (km/s) = 2.51076 3.08073 2.81023
# Velocity P-wave (km/s) = 5.20907 5.79687 5.51081
#
# Compressibility (1/GPa) = 0.02860944
#
# Stress axis : x y z
#
# Youngs Moduli (GPa) = 64.37109 64.37109 60.13493
#
# Poissons Ratio (x) = 0.50896 0.04926
# Poissons Ratio (y) = 0.50896 0.04926
# Poissons Ratio (z) = 0.05273 0.05273
#
# Static dielectric constant tensor:
#      x y z
#    x 1.670740 0.000000 0.000000 
#    y 0.000000 1.670740 0.000000 
#    z 0.000000 0.000000 1.659040 
# 
# From -- ./inp_files/6165.got.cif
#   From: 2010.05.17/outbox.cif.g08.bks.cpg/sg120_4_cif.got.tgz:6165.got - 2010.05.20 11:28:13.
