data_PCOD9559465
_publ_section_title
;
Structure prediction by ZEFSAII (Michael W. Deem and Ramdas Pophale) SiO2 
 PCOD9559465
Probable space group: I -4 M 2
;
_chemical_formula_sum "Si O2"
_cell_formula_units_Z 116
_cell_length_a 17.220762
_cell_length_b 17.220762
_cell_length_c 18.177814
_cell_angle_alpha 90.000000
_cell_angle_beta 90.000000
_cell_angle_gamma 90.000000
_cell_volume 5390.715157
_symmetry_space_group_name_H-M "I -4 M 2"
_symmetry_group_IT_number 119
_symmetry_cell_setting 'tetragonal'
loop_
_space_group_symop_operation_xyz
x,y,z
y,-x,-z
-x,-y,z
-y,x,-z
y,x,-z
-y,-x,-z
-x,y,z
x,-y,z
1/2+x,1/2+y,1/2+z
1/2+y,1/2-x,1/2-z
1/2-x,1/2-y,1/2+z
1/2-y,1/2+x,1/2-z
1/2+y,1/2+x,1/2-z
1/2-y,1/2-x,1/2-z
1/2-x,1/2+y,1/2+z
1/2+x,1/2-y,1/2+z
loop_
_atom_site_type_symbol
_atom_site_label
_atom_site_fract_x
_atom_site_fract_y
_atom_site_fract_z
Si Si1 0.187669 0.083323 0.954202
Si Si2 0.500000 0.500000 0.748855
Si Si3 0.909690 0.295739 0.558686
Si Si4 0.881133 0.872789 0.807328
Si Si5 0.231373 0.913108 0.691841
Si Si6 0.812798 0.312447 0.409431
Si Si7 0.086190 0.115399 0.586009
Si Si8 0.215975 0.329193 0.666580
O O1 0.132735 0.083895 0.883386
O O2 0.272510 0.106193 0.926847
O O3 0.183786 0.000000 0.991695
O O4 0.154884 0.154884 0.000000
O O5 0.430171 0.565855 0.739158
O O6 0.859307 0.289751 0.483607
O O7 0.913768 0.208411 0.591327
O O8 0.860038 0.345845 0.617154
O O9 0.000000 0.319402 0.545931
O O10 0.801833 0.867021 0.760770
O O11 0.895568 0.782672 0.826716
O O12 0.305351 0.874538 0.655131
O O13 0.161694 0.912144 0.630437
O O14 0.245719 0.000000 0.715191
O O15 0.742716 0.256238 0.379751
O O16 0.094169 0.094169 0.500000
O O17 0.000000 0.086354 0.610445
O O18 0.192186 0.307815 0.750000
#
# Coordination Sequence:
#
# PCOD9559465 Si02
#       8
#    16   4  16  16  16  16  16  16
#     4  11  25  42  65  93 123 164 222 283 359 436
#     4  12  24  44  61 100 159 176 218 286 364 448
#     4  11  21  38  62  93 127 168 234 299 353 406
#     4  11  24  40  62  93 136 181 219 274 346 429
#     4  12  22  36  58  88 129 177 219 268 332 405
#     4  11  21  39  64  89 127 172 227 286 345 425
#     4  11  21  31  46  77 122 169 211 255 313 391
#     4  11  20  39  62  91 131 183 243 287 344 431
#
# _framework density 21.518481000000001
#
# number of rings (size 3 to 8) (size 9 to 14) (size 15 to 20)
#    0.000    0.828    5.517    2.897    1.931    1.103 
#    1.241    0.000    0.000    1.655    0.000    0.000 
#    0.000    4.966    0.000    0.000    0.000    0.000 
#
# Total GULP energy -323026.347768 kJ/mol
# GULP energy per Si atom -5569.419789 kJ/mol
# Density = 2.146950 g / cm^3
# Si number density = 21.518481 Si / 1000 Ang^3
#
#
#
# Elastic Constant Matrix: (Units=GPa)
#
#
# Indices 1 2 3 4 5 6 
#
# 1 75.5147 23.4588 11.5698 0.0000 0.0000 0.0000
# 2 23.4588 75.5146 11.5698 0.0000 0.0000 0.0000
# 3 11.5698 11.5698 92.9971 0.0000 0.0000 0.0000
# 4 0.0000 0.0000 0.0000 11.0673 0.0000 0.0000
# 5 0.0000 0.0000 0.0000 0.0000 11.0675 0.0000
# 6 0.0000 0.0000 0.0000 0.0000 0.0000 40.9017
#
#
#
# Elastic Compliance Matrix: (Units=1/GPa)
#
#
# Indices 1 2 3 4 5 6 
#
# 1 0.014808 -0.004402 -0.001295 0.000000 0.000000 0.000000
# 2 -0.004402 0.014808 -0.001295 0.000000 0.000000 0.000000
# 3 -0.001295 -0.001295 0.011075 0.000000 0.000000 0.000000
# 4 0.000000 0.000000 0.000000 0.090357 0.000000 0.000000
# 5 0.000000 0.000000 0.000000 0.000000 0.090354 0.000000
# 6 0.000000 0.000000 0.000000 0.000000 0.000000 0.024449
#
#
# Mechanical properties :
#
#
# Convention : Reuss Voigt Hill
#
# Bulk Modulus (GPa) = 37.44011 37.46924 37.45468
# Shear Modulus (GPa) = 18.60554 25.76916 22.18735
#
# Velocity S-wave (km/s) = 2.94365 3.46430 3.21453
# Velocity P-wave (km/s) = 5.38426 5.78379 5.58760
#
# Compressibility (1/GPa) = 0.02670932
#
# Stress axis : x y z
#
# Youngs Moduli (GPa) = 67.52991 67.52975 90.29217
#
# Poissons Ratio (x) = 0.29726 0.11690
# Poissons Ratio (y) = 0.29726 0.11690
# Poissons Ratio (z) = 0.08743 0.08743
#
# Static dielectric constant tensor:
#      x y z
#    x 1.845000 0.000000 0.000000 
#    y 0.000000 1.845000 0.000000 
#    z 0.000000 0.000000 1.826910 
# 
# From -- ./inp_files/6776.got.cif
#   From: 2010.05.17/outbox.cif.g08.bks.cpg/sg119_4_cif.got.tgz:6776.got - 2010.05.20 11:21:29.
