data_PCOD9559627
_publ_section_title
;
Structure prediction by ZEFSAII (Michael W. Deem and Ramdas Pophale) SiO2 
 PCOD9559627
Probable space group: I -4 C 2
;
_chemical_formula_sum "Si O2"
_cell_formula_units_Z 96
_cell_length_a 21.504364
_cell_length_b 21.504364
_cell_length_c 11.327916
_cell_angle_alpha 90.000000
_cell_angle_beta 90.000000
_cell_angle_gamma 90.000000
_cell_volume 5238.455093
_symmetry_space_group_name_H-M "I -4 C 2"
_symmetry_group_IT_number 120
_symmetry_cell_setting 'tetragonal'
loop_
_space_group_symop_operation_xyz
x,y,z
y,-x,-z
-x,-y,z
-y,x,-z
y,x,1/2-z
-y,-x,1/2-z
-x,y,1/2+z
x,-y,1/2+z
1/2+x,1/2+y,1/2+z
1/2+y,1/2-x,1/2-z
1/2-x,1/2-y,1/2+z
1/2-y,1/2+x,1/2-z
1/2+y,1/2+x,-z
1/2-y,1/2-x,-z
1/2-x,1/2+y,z
1/2+x,1/2-y,z
loop_
_atom_site_type_symbol
_atom_site_label
_atom_site_fract_x
_atom_site_fract_y
_atom_site_fract_z
Si Si1 0.251530 0.005813 0.197840
Si Si2 0.546164 0.265727 0.046423
Si Si3 0.638423 0.919188 0.793913
Si Si4 0.213985 0.648362 0.159486
Si Si5 0.042779 0.617730 0.592080
Si Si6 0.683734 0.737360 0.582169
O O1 0.307068 0.956730 0.225686
O O2 0.218420 0.014541 0.326499
O O3 0.276525 0.074264 0.162736
O O4 0.217022 0.984128 0.078741
O O5 0.549012 0.189637 0.051808
O O6 0.616885 0.288393 0.046329
O O7 0.663607 0.858309 0.860338
O O8 0.586171 0.893726 0.705578
O O9 0.608982 0.970827 0.878176
O O10 0.232360 0.673301 0.289722
O O11 0.264538 0.683713 0.081085
O O12 0.069523 0.569523 0.500000
O O13 0.707475 0.792526 0.500000
#
# Coordination Sequence:
#
# PCOD9559627 Si02
#       6
#    16  16  16  16  16  16
#     4  10  20  34  56  78 105 141 185 236 283 334
#     4  10  19  36  59  76 103 146 182 231 284 342
#     4  11  19  36  51  72 105 140 191 244 284 321
#     4  10  21  36  51  80 107 141 193 243 286 330
#     4  11  21  35  52  67  99 142 194 234 283 334
#     4  10  19  34  57  74 103 144 191 235 285 353
#
# _framework density 18.326011999999999
#
# number of rings (size 3 to 8) (size 9 to 14) (size 15 to 20)
#    0.000    1.667    6.667    1.500    0.000    3.000 
#    0.000    6.667    0.000    0.000    0.000    0.000 
#    0.000    0.667    0.000   20.000    0.000    7.167 
#
# Total GULP energy -267618.945914 kJ/mol
# GULP energy per Si atom -5575.394707 kJ/mol
# Density = 1.828430 g / cm^3
# Si number density = 18.326012 Si / 1000 Ang^3
#
#
#
# Elastic Constant Matrix: (Units=GPa)
#
#
# Indices 1 2 3 4 5 6 
#
# 1 54.4617 41.0876 27.4486 0.0000 0.0000 0.0000
# 2 41.0876 54.4599 27.4494 0.0000 0.0000 0.0000
# 3 27.4486 27.4494 97.1050 0.0000 0.0000 0.0000
# 4 0.0000 0.0000 0.0000 12.5637 0.0000 0.0000
# 5 0.0000 0.0000 0.0000 0.0000 12.5654 0.0000
# 6 0.0000 0.0000 0.0000 0.0000 0.0000 23.6743
#
#
#
# Elastic Compliance Matrix: (Units=1/GPa)
#
#
# Indices 1 2 3 4 5 6 
#
# 1 0.043635 -0.031141 -0.003531 0.000000 0.000000 0.000000
# 2 -0.031141 0.043637 -0.003533 0.000000 0.000000 0.000000
# 3 -0.003531 -0.003533 0.012295 0.000000 0.000000 0.000000
# 4 0.000000 0.000000 0.000000 0.079595 0.000000 0.000000
# 5 0.000000 0.000000 0.000000 0.000000 0.079584 0.000000
# 6 0.000000 0.000000 0.000000 0.000000 0.000000 0.042240
#
#
# Mechanical properties :
#
#
# Convention : Reuss Voigt Hill
#
# Bulk Modulus (GPa) = 43.18310 44.22199 43.70254
# Shear Modulus (GPa) = 12.98318 17.09673 15.03996
#
# Velocity S-wave (km/s) = 2.66457 3.05769 2.86787
# Velocity P-wave (km/s) = 5.75166 6.05385 5.90469
#
# Compressibility (1/GPa) = 0.02315721
#
# Stress axis : x y z
#
# Youngs Moduli (GPa) = 22.91744 22.91636 81.33396
#
# Poissons Ratio (x) = 0.71363 0.28723
# Poissons Ratio (y) = 0.71366 0.28733
# Poissons Ratio (z) = 0.08093 0.08096
#
# Static dielectric constant tensor:
#      x y z
#    x 1.627060 0.000000 0.000000 
#    y 0.000000 1.627060 0.000000 
#    z 0.000000 0.000000 1.743850 
# 
# From -- ./inp_files/2719.got.cif
#   From: 2010.05.17/outbox.cif.g08.bks.cpg/sg120_2_cif.got.tgz:2719.got - 2010.05.20 11:28:13.
