data_PCOD9559031
_publ_section_title
;
Structure prediction by ZEFSAII (Michael W. Deem and Ramdas Pophale) SiO2 
 PCOD9559031
Probable space group: I -4 M 2
;
_chemical_formula_sum "Si O2"
_cell_formula_units_Z 50
_cell_length_a 12.543640
_cell_length_b 12.543640
_cell_length_c 13.666334
_cell_angle_alpha 90.000000
_cell_angle_beta 90.000000
_cell_angle_gamma 90.000000
_cell_volume 2150.300685
_symmetry_space_group_name_H-M "I -4 M 2"
_symmetry_group_IT_number 119
_symmetry_cell_setting 'tetragonal'
loop_
_space_group_symop_operation_xyz
x,y,z
y,-x,-z
-x,-y,z
-y,x,-z
y,x,-z
-y,-x,-z
-x,y,z
x,-y,z
1/2+x,1/2+y,1/2+z
1/2+y,1/2-x,1/2-z
1/2-x,1/2-y,1/2+z
1/2-y,1/2+x,1/2-z
1/2+y,1/2+x,1/2-z
1/2-y,1/2-x,1/2-z
1/2-x,1/2+y,1/2+z
1/2+x,1/2-y,1/2+z
loop_
_atom_site_type_symbol
_atom_site_label
_atom_site_fract_x
_atom_site_fract_y
_atom_site_fract_z
Si Si1 0.131481 0.500000 0.908139
Si Si2 0.618182 0.621469 0.380677
Si Si3 0.273572 0.299709 0.882390
Si Si4 0.500000 0.000000 0.750000
Si Si5 0.500000 0.221128 0.867634
O O1 0.193368 0.397628 0.864586
O O2 0.000000 0.500000 0.900114
O O3 0.169656 0.500000 0.022116
O O4 0.621092 0.621092 0.500000
O O5 0.500000 0.659223 0.352163
O O6 0.631892 0.500000 0.350769
O O7 0.710992 0.696536 0.345318
O O8 0.396137 0.294218 0.851764
O O9 0.285045 0.285045 0.000000
O O10 0.500000 0.886754 0.805337
#
# Coordination Sequence:
#
# PCOD9559031 Si02
#       5
#     8  16  16   2   8
#     4  10  18  33  57  90 122 146 188 247 314 365
#     4   8  13  21  36  63 100 140 175 219 288 349
#     4   9  18  29  48  78 114 149 187 246 301 350
#     4  12  24  40  60  80 124 176 204 234 268 356
#     4  10  22  35  52  84 120 161 203 235 289 360
#
# _framework density 23.252562999999999
#
# number of rings (size 3 to 8) (size 9 to 14) (size 15 to 20)
#    0.000    2.880    0.800    1.920    2.240    4.480 
#    0.000    3.200    0.000    0.000   16.640    0.000 
#    0.000    0.000    0.000    0.000    0.000    0.000 
#
# Total GULP energy -139583.716093 kJ/mol
# GULP energy per Si atom -5583.348644 kJ/mol
# Density = 2.319964 g / cm^3
# Si number density = 23.252563 Si / 1000 Ang^3
#
#
#
# Elastic Constant Matrix: (Units=GPa)
#
#
# Indices 1 2 3 4 5 6 
#
# 1 161.8024 112.5094 23.8064 0.0000 0.0000 0.0000
# 2 112.5094 161.8024 23.8064 0.0000 0.0000 0.0000
# 3 23.8064 23.8064 67.1669 0.0000 0.0000 0.0000
# 4 0.0000 0.0000 0.0000 19.8384 0.0000 0.0000
# 5 0.0000 0.0000 0.0000 0.0000 19.8383 0.0000
# 6 0.0000 0.0000 0.0000 0.0000 0.0000 46.5248
#
#
#
# Elastic Compliance Matrix: (Units=1/GPa)
#
#
# Indices 1 2 3 4 5 6 
#
# 1 0.012086 -0.008201 -0.001377 0.000000 0.000000 0.000000
# 2 -0.008201 0.012086 -0.001377 0.000000 0.000000 0.000000
# 3 -0.001377 -0.001377 0.015864 0.000000 0.000000 0.000000
# 4 0.000000 0.000000 0.000000 0.050407 0.000000 0.000000
# 5 0.000000 0.000000 0.000000 0.000000 0.050407 0.000000
# 6 0.000000 0.000000 0.000000 0.000000 0.000000 0.021494
#
#
# Mechanical properties :
#
#
# Convention : Reuss Voigt Hill
#
# Bulk Modulus (GPa) = 55.16939 79.00180 67.08560
# Shear Modulus (GPa) = 26.27487 32.61693 29.44590
#
# Velocity S-wave (km/s) = 3.36516 3.74936 3.56244
# Velocity P-wave (km/s) = 6.23512 7.26587 6.77014
#
# Compressibility (1/GPa) = 0.01812599
#
# Stress axis : x y z
#
# Youngs Moduli (GPa) = 82.74267 82.74267 63.03482
#
# Poissons Ratio (x) = 0.67859 0.08679
# Poissons Ratio (y) = 0.67859 0.08679
# Poissons Ratio (z) = 0.11392 0.11392
#
# Static dielectric constant tensor:
#      x y z
#    x 1.849870 0.000000 0.000000 
#    y 0.000000 1.849870 0.000000 
#    z 0.000000 0.000000 1.961800 
# 
# From -- ./inp_files/7166.got.cif
#   From: 2010.05.17/outbox.cif.g08.bks.cpg/sg119_4_cif.got.tgz:7166.got - 2010.05.20 11:21:29.
