data_PCOD9559287
_publ_section_title
;
Structure prediction by ZEFSAII (Michael W. Deem and Ramdas Pophale) SiO2 
 PCOD9559287
Probable space group: I -4 M 2
;
_chemical_formula_sum "Si O2"
_cell_formula_units_Z 64
_cell_length_a 11.199401
_cell_length_b 11.199401
_cell_length_c 26.306702
_cell_angle_alpha 90.000000
_cell_angle_beta 90.000000
_cell_angle_gamma 90.000000
_cell_volume 3299.559736
_symmetry_space_group_name_H-M "I -4 M 2"
_symmetry_group_IT_number 119
_symmetry_cell_setting 'tetragonal'
loop_
_space_group_symop_operation_xyz
x,y,z
y,-x,-z
-x,-y,z
-y,x,-z
y,x,-z
-y,-x,-z
-x,y,z
x,-y,z
1/2+x,1/2+y,1/2+z
1/2+y,1/2-x,1/2-z
1/2-x,1/2-y,1/2+z
1/2-y,1/2+x,1/2-z
1/2+y,1/2+x,1/2-z
1/2-y,1/2-x,1/2-z
1/2-x,1/2+y,1/2+z
1/2+x,1/2-y,1/2+z
loop_
_atom_site_type_symbol
_atom_site_label
_atom_site_fract_x
_atom_site_fract_y
_atom_site_fract_z
Si Si1 0.000000 0.500000 0.543009
Si Si2 0.240884 0.138121 0.707661
Si Si3 0.758728 0.644029 0.090989
Si Si4 0.253066 0.500000 0.793667
Si Si5 0.500000 0.000000 0.250000
Si Si6 0.500000 0.223800 0.534871
Si Si7 0.500000 0.500000 0.500000
Si Si8 0.500000 0.737753 0.086801
O O1 0.876666 0.500000 0.510130
O O2 0.000000 0.622102 0.574877
O O3 0.339825 0.160176 0.750000
O O4 0.266459 0.183271 0.650590
O O5 0.120395 0.195653 0.729266
O O6 0.217191 0.000000 0.701076
O O7 0.764263 0.500000 0.087840
O O8 0.628611 0.684675 0.069471
O O9 0.875742 0.695566 0.063882
O O10 0.113623 0.500000 0.785816
O O11 0.287181 0.500000 0.852820
O O12 0.500000 0.366027 0.524411
#
# Coordination Sequence:
#
# PCOD9559287 Si02
#       8
#     4  16  16   8   2   8   2   8
#     4  12  23  42  68  91 127 162 212 257 320 388
#     4  10  21  36  59  88 122 162 205 251 302 365
#     4  10  21  41  64  91 125 162 210 264 316 361
#     4  10  20  37  56  86 122 156 201 253 306 352
#     4  12  18  32  60  76 116 156 204 234 300 360
#     4  12  24  45  66  93 128 165 203 263 319 387
#     4  12  28  44  68  92 132 168 204 244 344 392
#     4  10  22  38  64  90 121 161 210 255 312 376
#
# _framework density 19.396528
#
# number of rings (size 3 to 8) (size 9 to 14) (size 15 to 20)
#    0.000    1.500    2.500    2.625    1.750    3.250 
#    0.000    2.500    2.750    0.000    0.000    0.000 
#    0.000    0.000    0.000    0.000    0.000    0.000 
#
# Total GULP energy -178303.839547 kJ/mol
# GULP energy per Si atom -5571.994986 kJ/mol
# Density = 1.935238 g / cm^3
# Si number density = 19.396528 Si / 1000 Ang^3
#
#
#
# Elastic Constant Matrix: (Units=GPa)
#
#
# Indices 1 2 3 4 5 6 
#
# 1 112.9850 59.0194 21.9331 0.0000 0.0000 0.0000
# 2 59.0194 112.9870 21.9339 0.0000 0.0000 0.0000
# 3 21.9331 21.9339 23.3002 0.0000 0.0000 0.0000
# 4 0.0000 0.0000 0.0000 23.0113 0.0000 0.0000
# 5 0.0000 0.0000 0.0000 0.0000 23.0116 0.0000
# 6 0.0000 0.0000 0.0000 0.0000 0.0000 37.7167
#
#
#
# Elastic Compliance Matrix: (Units=1/GPa)
#
#
# Indices 1 2 3 4 5 6 
#
# 1 0.013090 -0.005440 -0.007201 0.000000 0.000000 0.000000
# 2 -0.005440 0.013090 -0.007202 0.000000 0.000000 0.000000
# 3 -0.007201 -0.007202 0.056477 0.000000 0.000000 0.000000
# 4 0.000000 0.000000 0.000000 0.043457 0.000000 0.000000
# 5 0.000000 0.000000 0.000000 0.000000 0.043456 0.000000
# 6 0.000000 0.000000 0.000000 0.000000 0.000000 0.026513
#
#
# Mechanical properties :
#
#
# Convention : Reuss Voigt Hill
#
# Bulk Modulus (GPa) = 23.27165 50.56057 36.91611
# Shear Modulus (GPa) = 19.99251 26.50697 23.24974
#
# Velocity S-wave (km/s) = 3.21398 3.70074 3.46592
# Velocity P-wave (km/s) = 5.07905 6.66214 5.92372
#
# Compressibility (1/GPa) = 0.04297073
#
# Stress axis : x y z
#
# Youngs Moduli (GPa) = 76.39279 76.39307 17.70644
#
# Poissons Ratio (x) = 0.41556 0.12751
# Poissons Ratio (y) = 0.41556 0.12752
# Poissons Ratio (z) = 0.55013 0.55018
#
# Static dielectric constant tensor:
#      x y z
#    x 1.683720 0.000000 0.000000 
#    y 0.000000 1.683720 0.000000 
#    z 0.000000 0.000000 1.709430 
# 
# From -- ./inp_files/8585.got.cif
#   From: 2010.05.17/outbox.cif.g08.bks.cpg/sg119_5_cif.got.tgz:8585.got - 2010.05.20 11:21:29.
