data_PCOD9559282
_publ_section_title
;
Structure prediction by ZEFSAII (Michael W. Deem and Ramdas Pophale) SiO2 
 PCOD9559282
Probable space group: I -4 M 2
;
_chemical_formula_sum "Si O2"
_cell_formula_units_Z 48
_cell_length_a 14.927858
_cell_length_b 14.927858
_cell_length_c 9.599966
_cell_angle_alpha 90.000000
_cell_angle_beta 90.000000
_cell_angle_gamma 90.000000
_cell_volume 2139.265490
_symmetry_space_group_name_H-M "I -4 M 2"
_symmetry_group_IT_number 119
_symmetry_cell_setting 'tetragonal'
loop_
_space_group_symop_operation_xyz
x,y,z
y,-x,-z
-x,-y,z
-y,x,-z
y,x,-z
-y,-x,-z
-x,y,z
x,-y,z
1/2+x,1/2+y,1/2+z
1/2+y,1/2-x,1/2-z
1/2-x,1/2-y,1/2+z
1/2-y,1/2+x,1/2-z
1/2+y,1/2+x,1/2-z
1/2-y,1/2-x,1/2-z
1/2-x,1/2+y,1/2+z
1/2+x,1/2-y,1/2+z
loop_
_atom_site_type_symbol
_atom_site_label
_atom_site_fract_x
_atom_site_fract_y
_atom_site_fract_z
Si Si1 0.193551 0.598704 0.043892
Si Si2 0.227843 0.099738 0.855685
Si Si3 0.102775 0.250670 0.749724
O O1 0.149355 0.500000 0.023266
O O2 0.129562 0.685388 0.054744
O O3 0.237798 0.596457 0.195599
O O4 0.264702 0.607090 0.918188
O O5 0.153151 0.176716 0.842147
O O6 0.196453 0.000000 0.892870
O O7 0.156011 0.343990 0.750000
O O8 0.000000 0.257664 0.788771
#
# Coordination Sequence:
#
# PCOD9559282 Si02
#       3
#    16  16  16
#     4   9  19  37  61  88 119 156 198 243 295 356
#     4  10  20  36  63  91 118 155 199 249 302 355
#     4  11  23  39  60  86 122 160 200 249 302 361
#
# _framework density 22.437607
#
# number of rings (size 3 to 8) (size 9 to 14) (size 15 to 20)
#    0.000    2.000    3.333    1.000    0.000    3.000 
#    0.000    6.667    0.000    6.000    0.000    4.667 
#    0.000    0.000    0.000    0.000    0.000    0.000 
#
# Total GULP energy -133900.107955 kJ/mol
# GULP energy per Si atom -5579.171165 kJ/mol
# Density = 2.238654 g / cm^3
# Si number density = 22.437607 Si / 1000 Ang^3
#
#
#
# Elastic Constant Matrix: (Units=GPa)
#
#
# Indices 1 2 3 4 5 6 
#
# 1 179.3206 135.0205 29.7653 0.0000 0.0000 0.0000
# 2 135.0205 179.3186 29.7670 0.0000 0.0000 0.0000
# 3 29.7653 29.7670 105.5405 0.0000 0.0000 0.0000
# 4 0.0000 0.0000 0.0000 30.5346 0.0000 0.0000
# 5 0.0000 0.0000 0.0000 0.0000 30.5353 0.0000
# 6 0.0000 0.0000 0.0000 0.0000 0.0000 -4.3393
#
#
#
# Elastic Compliance Matrix: (Units=1/GPa)
#
#
# Indices 1 2 3 4 5 6 
#
# 1 0.012967 -0.009607 -0.000948 0.000000 0.000000 0.000000
# 2 -0.009607 0.012967 -0.000948 0.000000 0.000000 0.000000
# 3 -0.000948 -0.000948 0.010010 0.000000 0.000000 0.000000
# 4 0.000000 0.000000 0.000000 0.032750 0.000000 0.000000
# 5 0.000000 0.000000 0.000000 0.000000 0.032749 0.000000
# 6 0.000000 0.000000 0.000000 0.000000 0.000000 -0.230451
#
#
# Mechanical properties :
#
#
# Convention : Reuss Voigt Hill
#
# Bulk Modulus (GPa) = 77.28080 94.80947 86.04513
# Shear Modulus (GPa) = -49.16873 29.32125 -9.92374
#
# Velocity S-wave (km/s) = -4.68627 3.61888 -2.10533
# Velocity P-wave (km/s) = 2.28819 7.73357 5.70281
#
# Compressibility (1/GPa) = 0.01293982
#
# Stress axis : x y z
#
# Youngs Moduli (GPa) = 77.11766 77.11631 99.90310
#
# Poissons Ratio (x) = 0.74082 0.09467
# Poissons Ratio (y) = 0.74083 0.09472
# Poissons Ratio (z) = 0.07308 0.07311
#
# Static dielectric constant tensor:
#      x y z
#    x 1.862410 0.000000 0.000000 
#    y 0.000000 1.862410 0.000000 
#    z 0.000000 0.000000 1.997910 
# 
# From -- ./inp_files/3313.got.cif
#   From: 2010.05.17/outbox.cif.g08.bks.cpg/sg119_2_cif.got.tgz:3313.got - 2010.05.20 11:21:29.
