data_PCOD9559217
_publ_section_title
;
Structure prediction by ZEFSAII (Michael W. Deem and Ramdas Pophale) SiO2 
 PCOD9559217
Probable space group: I -4 M 2
;
_chemical_formula_sum "Si O2"
_cell_formula_units_Z 64
_cell_length_a 21.234297
_cell_length_b 21.234297
_cell_length_c 7.659214
_cell_angle_alpha 90.000000
_cell_angle_beta 90.000000
_cell_angle_gamma 90.000000
_cell_volume 3453.504123
_symmetry_space_group_name_H-M "I -4 M 2"
_symmetry_group_IT_number 119
_symmetry_cell_setting 'tetragonal'
loop_
_space_group_symop_operation_xyz
x,y,z
y,-x,-z
-x,-y,z
-y,x,-z
y,x,-z
-y,-x,-z
-x,y,z
x,-y,z
1/2+x,1/2+y,1/2+z
1/2+y,1/2-x,1/2-z
1/2-x,1/2-y,1/2+z
1/2-y,1/2+x,1/2-z
1/2+y,1/2+x,1/2-z
1/2-y,1/2-x,1/2-z
1/2-x,1/2+y,1/2+z
1/2+x,1/2-y,1/2+z
loop_
_atom_site_type_symbol
_atom_site_label
_atom_site_fract_x
_atom_site_fract_y
_atom_site_fract_z
Si Si1 0.202544 0.796090 0.790801
Si Si2 0.932300 0.773699 0.730767
Si Si3 0.202947 0.605459 0.105849
Si Si4 0.568716 0.835828 0.521061
O O1 0.131956 0.812586 0.735785
O O2 0.252003 0.838163 0.680189
O O3 0.067408 0.689728 0.218578
O O4 0.201529 0.798472 0.000000
O O5 0.929856 0.738696 0.546103
O O6 0.926423 0.721012 0.883122
O O7 0.000000 0.805776 0.753655
O O8 0.275496 0.775496 0.250000
O O9 0.126856 0.635089 0.473388
O O10 0.500000 0.867566 0.486997
#
# Coordination Sequence:
#
# PCOD9559217 Si02
#       4
#    16  16  16  16
#     4  12  20  34  57  84 111 146 188 229 285 347
#     4  11  22  34  52  80 116 146 183 238 288 331
#     4  11  20  36  55  80 107 153 186 231 282 341
#     4  10  20  34  52  80 113 146 187 235 280 327
#
# _framework density 18.531901999999999
#
# number of rings (size 3 to 8) (size 9 to 14) (size 15 to 20)
#    0.000    1.000    5.000    5.250    0.000    0.000 
#    0.000    0.000    0.000   12.750    0.000   21.000 
#    0.000   27.500    0.000    0.000    0.000    0.000 
#
# Total GULP energy -178166.900910 kJ/mol
# GULP energy per Si atom -5567.715653 kJ/mol
# Density = 1.848972 g / cm^3
# Si number density = 18.531902 Si / 1000 Ang^3
#
#
#
# Elastic Constant Matrix: (Units=GPa)
#
#
# Indices 1 2 3 4 5 6 
#
# 1 95.1790 37.8001 1.8116 0.0000 0.0000 0.0000
# 2 37.8001 95.1792 1.8115 0.0000 0.0000 0.0000
# 3 1.8116 1.8115 44.6727 0.0000 0.0000 0.0000
# 4 0.0000 0.0000 0.0000 -39.8987 0.0000 0.0000
# 5 0.0000 0.0000 0.0000 0.0000 -39.8962 0.0000
# 6 0.0000 0.0000 0.0000 0.0000 0.0000 -20.1521
#
#
#
# Elastic Compliance Matrix: (Units=1/GPa)
#
#
# Indices 1 2 3 4 5 6 
#
# 1 0.012478 -0.004950 -0.000305 0.000000 0.000000 0.000000
# 2 -0.004950 0.012478 -0.000305 0.000000 0.000000 0.000000
# 3 -0.000305 -0.000305 0.022410 0.000000 0.000000 0.000000
# 4 0.000000 0.000000 0.000000 -0.025063 0.000000 0.000000
# 5 0.000000 0.000000 0.000000 0.000000 -0.025065 0.000000
# 6 0.000000 0.000000 0.000000 0.000000 0.000000 -0.049623
#
#
# Mechanical properties :
#
#
# Convention : Reuss Voigt Hill
#
# Bulk Modulus (GPa) = 27.58985 35.31972 31.45478
# Shear Modulus (GPa) = -171.33625 -7.08223 -89.20924
#
# Velocity S-wave (km/s) = -9.62577 -1.95702 -6.94570
# Velocity P-wave (km/s) = 10.42212 3.74081 6.87848
#
# Compressibility (1/GPa) = 0.03624521
#
# Stress axis : x y z
#
# Youngs Moduli (GPa) = 80.14007 80.14027 44.62337
#
# Poissons Ratio (x) = 0.39668 0.01362
# Poissons Ratio (y) = 0.39668 0.01362
# Poissons Ratio (z) = 0.02447 0.02446
#
# Static dielectric constant tensor:
#      x y z
#    x 1.735330 0.000000 0.000000 
#    y 0.000000 1.735330 0.000000 
#    z 0.000000 0.000000 1.654750 
# 
# From -- ./inp_files/2272.got.cif
#   From: 2010.05.17/outbox.cif.g08.bks.cpg/sg119_2_cif.got.tgz:2272.got - 2010.05.20 11:21:29.
