data_PCOD9559487
_publ_section_title
;
Structure prediction by ZEFSAII (Michael W. Deem and Ramdas Pophale) SiO2 
 PCOD9559487
Probable space group: I -4 M 2
;
_chemical_formula_sum "Si O2"
_cell_formula_units_Z 80
_cell_length_a 24.858194
_cell_length_b 24.858194
_cell_length_c 7.770681
_cell_angle_alpha 90.000000
_cell_angle_beta 90.000000
_cell_angle_gamma 90.000000
_cell_volume 4801.735426
_symmetry_space_group_name_H-M "I -4 M 2"
_symmetry_group_IT_number 119
_symmetry_cell_setting 'tetragonal'
loop_
_space_group_symop_operation_xyz
x,y,z
y,-x,-z
-x,-y,z
-y,x,-z
y,x,-z
-y,-x,-z
-x,y,z
x,-y,z
1/2+x,1/2+y,1/2+z
1/2+y,1/2-x,1/2-z
1/2-x,1/2-y,1/2+z
1/2-y,1/2+x,1/2-z
1/2+y,1/2+x,1/2-z
1/2-y,1/2-x,1/2-z
1/2-x,1/2+y,1/2+z
1/2+x,1/2-y,1/2+z
loop_
_atom_site_type_symbol
_atom_site_label
_atom_site_fract_x
_atom_site_fract_y
_atom_site_fract_z
Si Si1 0.500000 0.355335 0.119162
Si Si2 0.413805 0.500000 0.550064
Si Si3 0.815316 0.730535 0.576650
Si Si4 0.310302 0.810302 0.750000
Si Si5 0.179468 0.000000 0.764870
Si Si6 0.708868 0.615435 0.340494
Si Si7 0.813148 0.888214 0.243343
O O1 0.500000 0.407298 0.243289
O O2 0.553503 0.326147 0.186504
O O3 0.500000 0.355176 0.912367
O O4 0.447641 0.552359 0.500000
O O5 0.359461 0.500000 0.434278
O O6 0.764252 0.764252 0.500000
O O7 0.795520 0.704481 0.750000
O O8 0.833109 0.685000 0.441574
O O9 0.860862 0.772376 0.624634
O O10 0.337585 0.750668 0.714972
O O11 0.214643 0.054700 0.772056
O O12 0.709075 0.612367 0.548089
O O13 0.650712 0.635189 0.272870
#
# Coordination Sequence:
#
# PCOD9559487 Si02
#       7
#     8   8  16   8   8  16  16
#     4  12  25  39  55  76 106 144 192 231 283 342
#     4  11  24  42  60  76 100 136 191 252 287 321
#     4  12  20  31  51  79 108 135 171 220 269 326
#     4  12  22  34  54  84 110 137 178 220 273 338
#     4  12  25  41  57  80 108 147 185 229 292 341
#     4  11  22  37  59  78 109 143 180 228 281 334
#     4  11  22  36  55  78 106 145 180 230 276 329
#
# _framework density 16.660643
#
# number of rings (size 3 to 8) (size 9 to 14) (size 15 to 20)
#    0.000    0.500    7.000    2.400    0.000    2.400 
#    0.000    1.000    0.000    0.000    0.000    0.000 
#    0.000    0.400    0.000    0.000    0.000    6.200 
#
# Total GULP energy -222715.552223 kJ/mol
# GULP energy per Si atom -5567.888806 kJ/mol
# Density = 1.662272 g / cm^3
# Si number density = 16.660643 Si / 1000 Ang^3
#
#
#
# Elastic Constant Matrix: (Units=GPa)
#
#
# Indices 1 2 3 4 5 6 
#
# 1 57.5046 44.3548 16.1424 0.0000 0.0000 0.0000
# 2 44.3548 57.5072 16.1429 0.0000 0.0000 0.0000
# 3 16.1424 16.1429 104.7792 0.0000 0.0000 0.0000
# 4 0.0000 0.0000 0.0000 25.0725 0.0000 0.0000
# 5 0.0000 0.0000 0.0000 0.0000 25.0708 0.0000
# 6 0.0000 0.0000 0.0000 0.0000 0.0000 22.1247
#
#
#
# Elastic Compliance Matrix: (Units=1/GPa)
#
#
# Indices 1 2 3 4 5 6 
#
# 1 0.043181 -0.032859 -0.001590 0.000000 0.000000 0.000000
# 2 -0.032859 0.043179 -0.001590 0.000000 0.000000 0.000000
# 3 -0.001590 -0.001590 0.010034 0.000000 0.000000 0.000000
# 4 0.000000 0.000000 0.000000 0.039884 0.000000 0.000000
# 5 0.000000 0.000000 0.000000 0.000000 0.039887 0.000000
# 6 0.000000 0.000000 0.000000 0.000000 0.000000 0.045198
#
#
# Mechanical properties :
#
#
# Convention : Reuss Voigt Hill
#
# Bulk Modulus (GPa) = 41.12527 41.45236 41.28882
# Shear Modulus (GPa) = 16.58109 23.99700 20.28905
#
# Velocity S-wave (km/s) = 3.15814 3.79930 3.49346
# Velocity P-wave (km/s) = 6.16735 6.64685 6.41158
#
# Compressibility (1/GPa) = 0.02431595
#
# Stress axis : x y z
#
# Youngs Moduli (GPa) = 23.15814 23.15918 99.66275
#
# Poissons Ratio (x) = 0.76099 0.15847
# Poissons Ratio (y) = 0.76095 0.15848
# Poissons Ratio (z) = 0.03682 0.03683
#
# Static dielectric constant tensor:
#      x y z
#    x 1.582200 0.000000 0.000000 
#    y 0.000000 1.582200 0.000000 
#    z 0.000000 0.000000 1.651220 
# 
# From -- ./inp_files/2637.got.cif
#   From: 2010.05.17/outbox.cif.g08.bks.cpg/sg119_2_cif.got.tgz:2637.got - 2010.05.20 11:21:29.
