data_PCOD9559238
_publ_section_title
;
Structure prediction by ZEFSAII (Michael W. Deem and Ramdas Pophale) SiO2 
 PCOD9559238
Probable space group: I -4 M 2
;
_chemical_formula_sum "Si O2"
_cell_formula_units_Z 88
_cell_length_a 18.834318
_cell_length_b 18.834318
_cell_length_c 13.177344
_cell_angle_alpha 90.000000
_cell_angle_beta 90.000000
_cell_angle_gamma 90.000000
_cell_volume 4674.419458
_symmetry_space_group_name_H-M "I -4 M 2"
_symmetry_group_IT_number 119
_symmetry_cell_setting 'tetragonal'
loop_
_space_group_symop_operation_xyz
x,y,z
y,-x,-z
-x,-y,z
-y,x,-z
y,x,-z
-y,-x,-z
-x,y,z
x,-y,z
1/2+x,1/2+y,1/2+z
1/2+y,1/2-x,1/2-z
1/2-x,1/2-y,1/2+z
1/2-y,1/2+x,1/2-z
1/2+y,1/2+x,1/2-z
1/2-y,1/2-x,1/2-z
1/2-x,1/2+y,1/2+z
1/2+x,1/2-y,1/2+z
loop_
_atom_site_type_symbol
_atom_site_label
_atom_site_fract_x
_atom_site_fract_y
_atom_site_fract_z
Si Si1 0.420350 0.306874 0.034882
Si Si2 0.641951 0.141951 0.750000
Si Si3 0.416786 0.323347 0.271807
Si Si4 0.580370 0.146922 0.966043
Si Si5 0.287120 0.415261 0.331622
Si Si6 0.915542 0.721491 0.951354
O O1 0.500000 0.335032 0.016193
O O2 0.412335 0.297749 0.155962
O O3 0.361436 0.361436 0.000000
O O4 0.414880 0.232051 0.977580
O O5 0.598129 0.123352 0.851094
O O6 0.625184 0.223971 0.726731
O O7 0.500000 0.341278 0.291800
O O8 0.362957 0.387472 0.294148
O O9 0.394308 0.261608 0.349443
O O10 0.500000 0.126100 0.993862
O O11 0.644135 0.117199 0.033621
O O12 0.280153 0.500000 0.316250
O O13 0.270654 0.399554 0.450320
O O14 0.000000 0.712753 0.949671
#
# Coordination Sequence:
#
# PCOD9559238 Si02
#       6
#    16   8  16  16  16  16
#     4  10  22  38  56  80 110 144 184 232 284 340
#     4  10  20  34  56  83 114 148 184 233 288 344
#     4  10  21  37  57  82 113 151 194 241 293 348
#     4  10  21  37  57  83 114 147 186 232 282 337
#     4  10  20  35  56  83 115 151 193 239 290 350
#     4   9  20  37  55  80 114 148 186 233 283 340
#
# _framework density 18.825866000000001
#
# number of rings (size 3 to 8) (size 9 to 14) (size 15 to 20)
#    0.000    2.182    0.000    2.182    0.000    8.909 
#    0.000    1.818    0.000    6.818    0.000    5.091 
#    0.000    0.000    0.000    0.000    0.000    0.000 
#
# Total GULP energy -245530.667327 kJ/mol
# GULP energy per Si atom -5580.242439 kJ/mol
# Density = 1.878302 g / cm^3
# Si number density = 18.825866 Si / 1000 Ang^3
#
#
#
# Elastic Constant Matrix: (Units=GPa)
#
#
# Indices 1 2 3 4 5 6 
#
# 1 71.7802 45.5709 32.0518 0.0000 0.0000 0.0000
# 2 45.5709 71.7802 32.0518 0.0000 0.0000 0.0000
# 3 32.0518 32.0518 71.3137 0.0000 0.0000 0.0000
# 4 0.0000 0.0000 0.0000 20.7767 0.0000 0.0000
# 5 0.0000 0.0000 0.0000 0.0000 20.7767 0.0000
# 6 0.0000 0.0000 0.0000 0.0000 0.0000 -35.9750
#
#
#
# Elastic Compliance Matrix: (Units=1/GPa)
#
#
# Indices 1 2 3 4 5 6 
#
# 1 0.024724 -0.013430 -0.005076 0.000000 0.000000 0.000000
# 2 -0.013430 0.024724 -0.005076 0.000000 0.000000 0.000000
# 3 -0.005076 -0.005076 0.018586 0.000000 0.000000 0.000000
# 4 0.000000 0.000000 0.000000 0.048131 0.000000 0.000000
# 5 0.000000 0.000000 0.000000 0.000000 0.048131 0.000000
# 6 0.000000 0.000000 0.000000 0.000000 0.000000 -0.027797
#
#
# Mechanical properties :
#
#
# Convention : Reuss Voigt Hill
#
# Bulk Modulus (GPa) = 47.91714 48.24701 48.08208
# Shear Modulus (GPa) = 26.23016 8.12898 17.17957
#
# Velocity S-wave (km/s) = 3.73675 2.08023 3.02412
# Velocity P-wave (km/s) = 6.64272 5.60834 6.14733
#
# Compressibility (1/GPa) = 0.02086936
#
# Stress axis : x y z
#
# Youngs Moduli (GPa) = 40.44592 40.44592 53.80526
#
# Poissons Ratio (x) = 0.54319 0.27313
# Poissons Ratio (y) = 0.54319 0.27313
# Poissons Ratio (z) = 0.20531 0.20531
#
# Static dielectric constant tensor:
#      x y z
#    x 1.637220 0.000000 0.000000 
#    y 0.000000 1.637220 0.000000 
#    z 0.000000 0.000000 1.677200 
# 
# From -- ./inp_files/5381.got.cif
#   From: 2010.05.17/outbox.cif.g08.bks.cpg/sg119_3_cif.got.tgz:5381.got - 2010.05.20 11:21:29.
