data_PCOD9559769
_publ_section_title
;
Structure prediction by ZEFSAII (Michael W. Deem and Ramdas Pophale) SiO2 
 PCOD9559769
Probable space group: I -4 C 2
;
_chemical_formula_sum "Si O2"
_cell_formula_units_Z 64
_cell_length_a 25.495579
_cell_length_b 25.495579
_cell_length_c 5.062041
_cell_angle_alpha 90.000000
_cell_angle_beta 90.000000
_cell_angle_gamma 90.000000
_cell_volume 3290.450916
_symmetry_space_group_name_H-M "I -4 C 2"
_symmetry_group_IT_number 120
_symmetry_cell_setting 'tetragonal'
loop_
_space_group_symop_operation_xyz
x,y,z
y,-x,-z
-x,-y,z
-y,x,-z
y,x,1/2-z
-y,-x,1/2-z
-x,y,1/2+z
x,-y,1/2+z
1/2+x,1/2+y,1/2+z
1/2+y,1/2-x,1/2-z
1/2-x,1/2-y,1/2+z
1/2-y,1/2+x,1/2-z
1/2+y,1/2+x,-z
1/2-y,1/2-x,-z
1/2-x,1/2+y,z
1/2+x,1/2-y,z
loop_
_atom_site_type_symbol
_atom_site_label
_atom_site_fract_x
_atom_site_fract_y
_atom_site_fract_z
Si Si1 0.028578 0.778433 0.378645
Si Si2 0.152505 0.526970 0.702885
Si Si3 0.186707 0.686707 0.500000
Si Si4 0.647233 0.697560 0.490027
Si Si5 0.136229 0.636229 0.000000
O O1 0.025233 0.715236 0.344502
O O2 0.085274 0.791789 0.493404
O O3 0.984997 0.797668 0.585980
O O4 0.132309 0.517834 0.406126
O O5 0.142224 0.580257 0.859622
O O6 0.246651 0.674981 0.569815
O O7 0.150068 0.674508 0.754598
O O8 0.659346 0.659346 0.250000
O O9 0.672451 0.672451 0.750000
#
# Coordination Sequence:
#
# PCOD9559769 Si02
#       5
#    16  16   8  16   8
#     4  10  21  38  59  83 113 152 199 247 284 331
#     4  10  21  36  57  81 107 145 197 255 302 341
#     4  12  24  37  56  86 122 167 193 228 279 359
#     4  12  24  39  57  86 126 164 194 230 290 357
#     4  12  22  37  60  81 114 146 207 244 295 360
#
# _framework density 19.450220000000002
#
# number of rings (size 3 to 8) (size 9 to 14) (size 15 to 20)
#    0.000    1.000    2.500    5.250    7.000    0.000 
#    0.000    0.000    0.000    2.250    0.000    0.000 
#    0.000   35.000    0.000    0.000    0.000    0.000 
#
# Total GULP energy -178583.460122 kJ/mol
# GULP energy per Si atom -5580.733129 kJ/mol
# Density = 1.940595 g / cm^3
# Si number density = 19.450220 Si / 1000 Ang^3
#
#
#
# Elastic Constant Matrix: (Units=GPa)
#
#
# Indices 1 2 3 4 5 6 
#
# 1 36.6311 37.1845 27.6797 0.0000 0.0000 0.0000
# 2 37.1845 36.6311 27.6797 0.0000 0.0000 0.0000
# 3 27.6797 27.6797 98.0992 0.0000 0.0000 0.0000
# 4 0.0000 0.0000 0.0000 26.9662 0.0000 0.0000
# 5 0.0000 0.0000 0.0000 0.0000 26.9662 0.0000
# 6 0.0000 0.0000 0.0000 0.0000 0.0000 12.8483
#
#
#
# Elastic Compliance Matrix: (Units=1/GPa)
#
#
# Indices 1 2 3 4 5 6 
#
# 1 -0.894849 0.912032 -0.004849 0.000000 0.000000 0.000000
# 2 0.912032 -0.894849 -0.004849 0.000000 0.000000 0.000000
# 3 -0.004849 -0.004849 0.012930 0.000000 0.000000 0.000000
# 4 0.000000 0.000000 0.000000 0.037084 0.000000 0.000000
# 5 0.000000 0.000000 0.000000 0.000000 0.037084 0.000000
# 6 0.000000 0.000000 0.000000 0.000000 0.000000 0.077831
#
#
# Mechanical properties :
#
#
# Convention : Reuss Voigt Hill
#
# Bulk Modulus (GPa) = 35.83860 39.60545 37.72202
# Shear Modulus (GPa) = -1.46193 18.61061 8.57434
#
# Velocity S-wave (km/s) = -0.86790 3.09663 2.10189
# Velocity P-wave (km/s) = 4.17869 5.76126 5.03257
#
# Compressibility (1/GPa) = 0.02790288
#
# Stress axis : x y z
#
# Youngs Moduli (GPa) = -1.11751 -1.11751 77.34023
#
# Poissons Ratio (x) = 1.01920 0.37498
# Poissons Ratio (y) = 1.01920 0.37498
# Poissons Ratio (z) = -0.00542 -0.00542
#
# Static dielectric constant tensor:
#      x y z
#    x 1.642450 0.000000 0.000000 
#    y 0.000000 1.642450 0.000000 
#    z 0.000000 0.000000 1.714220 
# 
# From -- ./inp_files/368.got.cif
#   From: 2010.05.17/outbox.cif.g08.bks.cpg/sg120_1_cif.got.tgz:368.got - 2010.05.20 11:28:13.
