data_PCOD9559284
_publ_section_title
;
Structure prediction by ZEFSAII (Michael W. Deem and Ramdas Pophale) SiO2 
 PCOD9559284
Probable space group: I -4 M 2
;
_chemical_formula_sum "Si O2"
_cell_formula_units_Z 120
_cell_length_a 27.692901
_cell_length_b 27.692901
_cell_length_c 9.380371
_cell_angle_alpha 90.000000
_cell_angle_beta 90.000000
_cell_angle_gamma 90.000000
_cell_volume 7193.776182
_symmetry_space_group_name_H-M "I -4 M 2"
_symmetry_group_IT_number 119
_symmetry_cell_setting 'tetragonal'
loop_
_space_group_symop_operation_xyz
x,y,z
y,-x,-z
-x,-y,z
-y,x,-z
y,x,-z
-y,-x,-z
-x,y,z
x,-y,z
1/2+x,1/2+y,1/2+z
1/2+y,1/2-x,1/2-z
1/2-x,1/2-y,1/2+z
1/2-y,1/2+x,1/2-z
1/2+y,1/2+x,1/2-z
1/2-y,1/2-x,1/2-z
1/2-x,1/2+y,1/2+z
1/2+x,1/2-y,1/2+z
loop_
_atom_site_type_symbol
_atom_site_label
_atom_site_fract_x
_atom_site_fract_y
_atom_site_fract_z
Si Si1 0.129313 0.182028 0.235463
Si Si2 0.387255 0.157357 0.886951
Si Si3 0.196573 0.690540 0.593033
Si Si4 0.557734 0.742471 0.891177
Si Si5 0.943200 0.375837 0.654488
Si Si6 0.263045 0.055542 0.281527
Si Si7 0.211929 0.130190 0.083518
Si Si8 0.799610 0.799610 0.500000
O O1 0.078202 0.194674 0.312729
O O2 0.160629 0.137541 0.165072
O O3 0.163993 0.195676 0.367565
O O4 0.122665 0.209387 0.085409
O O5 0.373089 0.126912 0.750000
O O6 0.412665 0.208831 0.847446
O O7 0.337517 0.167067 0.974230
O O8 0.422293 0.128921 0.994736
O O9 0.177613 0.677613 0.750000
O O10 0.252762 0.676248 0.594703
O O11 0.193648 0.747102 0.566212
O O12 0.500000 0.748520 0.870558
O O13 0.566916 0.741502 0.061918
O O14 0.912383 0.412383 0.750000
O O15 0.938301 0.320702 0.710926
O O16 0.000000 0.387803 0.654396
O O17 0.240043 0.088470 0.163042
O O18 0.252645 0.000000 0.251792
#
# Coordination Sequence:
#
# PCOD9559284 Si02
#       8
#    16  16  16  16  16  16  16   8
#     4  11  22  35  48  73 109 144 186 227 266 320
#     4  11  21  35  55  82 111 139 181 235 288 339
#     4  12  22  31  50  71 109 149 183 221 268 331
#     4  10  20  37  56  75 104 149 192 228 277 336
#     4  10  21  39  59  79 102 136 181 230 292 355
#     4   9  19  37  58  79 105 139 180 230 284 341
#     4  11  22  33  49  77 108 143 183 225 274 333
#     4  12  22  34  46  70 108 152 186 221 272 317
#
# _framework density 16.681087000000002
#
# number of rings (size 3 to 8) (size 9 to 14) (size 15 to 20)
#    0.000    1.333    2.667    6.400    0.000    0.667 
#    0.000    2.667    0.000    0.000    0.000    0.000 
#    0.000    0.533    0.000    6.533    0.000    6.933 
#
# Total GULP energy -334044.276305 kJ/mol
# GULP energy per Si atom -5567.404605 kJ/mol
# Density = 1.664312 g / cm^3
# Si number density = 16.681087 Si / 1000 Ang^3
#
#
#
# Elastic Constant Matrix: (Units=GPa)
#
#
# Indices 1 2 3 4 5 6 
#
# 1 82.8940 7.7200 50.3359 0.0000 0.0000 0.0000
# 2 7.7200 82.8883 50.3351 0.0000 0.0000 0.0000
# 3 50.3359 50.3351 109.7724 0.0000 0.0000 0.0000
# 4 0.0000 0.0000 0.0000 -21.1516 0.0000 0.0000
# 5 0.0000 0.0000 0.0000 0.0000 -21.1495 0.0000
# 6 0.0000 0.0000 0.0000 0.0000 0.0000 21.5602
#
#
#
# Elastic Compliance Matrix: (Units=1/GPa)
#
#
# Indices 1 2 3 4 5 6 
#
# 1 0.017900 0.004597 -0.010316 0.000000 0.000000 0.000000
# 2 0.004597 0.017901 -0.010316 0.000000 0.000000 0.000000
# 3 -0.010316 -0.010316 0.018571 0.000000 0.000000 0.000000
# 4 0.000000 0.000000 0.000000 -0.047278 0.000000 0.000000
# 5 0.000000 0.000000 0.000000 0.000000 -0.047282 0.000000
# 6 0.000000 0.000000 0.000000 0.000000 0.000000 0.046382
#
#
# Mechanical properties :
#
#
# Convention : Reuss Voigt Hill
#
# Bulk Modulus (GPa) = 44.84055 54.70409 49.77232
# Shear Modulus (GPa) = 109.41744 6.99607 58.20676
#
# Velocity S-wave (km/s) = 8.10778 2.05015 5.91351
# Velocity P-wave (km/s) = 10.70456 6.20237 8.74806
#
# Compressibility (1/GPa) = 0.02230124
#
# Stress axis : x y z
#
# Youngs Moduli (GPa) = 55.86718 55.86262 53.84856
#
# Poissons Ratio (x) = -0.25682 0.55550
# Poissons Ratio (y) = -0.25684 0.55553
# Poissons Ratio (z) = 0.57632 0.57630
#
# Static dielectric constant tensor:
#      x y z
#    x 1.584230 0.000000 0.000000 
#    y 0.000000 1.584230 0.000000 
#    z 0.000000 0.000000 1.500990 
# 
# From -- ./inp_files/2894.got.cif
#   From: 2010.05.17/outbox.cif.g08.bks.cpg/sg119_2_cif.got.tgz:2894.got - 2010.05.20 11:21:29.
