data_PCOD9559771
_publ_section_title
;
Structure prediction by ZEFSAII (Michael W. Deem and Ramdas Pophale) SiO2 
 PCOD9559771
Probable space group: I -4 C 2
;
_chemical_formula_sum "Si O2"
_cell_formula_units_Z 84
_cell_length_a 13.525596
_cell_length_b 13.525596
_cell_length_c 24.434518
_cell_angle_alpha 90.000000
_cell_angle_beta 90.000000
_cell_angle_gamma 90.000000
_cell_volume 4470.093414
_symmetry_space_group_name_H-M "I -4 C 2"
_symmetry_group_IT_number 120
_symmetry_cell_setting 'tetragonal'
loop_
_space_group_symop_operation_xyz
x,y,z
y,-x,-z
-x,-y,z
-y,x,-z
y,x,1/2-z
-y,-x,1/2-z
-x,y,1/2+z
x,-y,1/2+z
1/2+x,1/2+y,1/2+z
1/2+y,1/2-x,1/2-z
1/2-x,1/2-y,1/2+z
1/2-y,1/2+x,1/2-z
1/2+y,1/2+x,-z
1/2-y,1/2-x,-z
1/2-x,1/2+y,z
1/2+x,1/2-y,z
loop_
_atom_site_type_symbol
_atom_site_label
_atom_site_fract_x
_atom_site_fract_y
_atom_site_fract_z
Si Si1 0.711263 0.788738 0.000000
Si Si2 0.748959 0.748959 0.250000
Si Si3 0.000000 0.500000 0.750000
Si Si4 0.076698 0.276989 0.397858
Si Si5 0.384849 0.292571 0.645201
Si Si6 0.185027 0.431660 0.316937
Si Si7 0.133419 0.315935 0.943016
O O1 0.623740 0.788373 0.957697
O O2 0.814326 0.783480 0.966124
O O3 0.825303 0.766948 0.200579
O O4 0.766116 0.640187 0.272842
O O5 0.098013 0.505900 0.787521
O O6 0.106361 0.168560 0.374683
O O7 0.129740 0.359452 0.360057
O O8 0.962080 0.297294 0.406929
O O9 0.498839 0.270070 0.658040
O O10 0.361870 0.215571 0.596479
O O11 0.122007 0.377994 0.000000
#
# Coordination Sequence:
#
# PCOD9559771 Si02
#       7
#     8   8   4  16  16  16  16
#     4   8  20  36  55  85 118 154 190 240 296 360
#     4  10  22  38  62  86 128 164 194 266 314 370
#     4  12  20  36  64  94 120 156 208 272 304 370
#     4  10  21  36  62  84 122 163 190 259 309 354
#     4  10  21  39  58  92 122 160 201 249 310 375
#     4  11  22  36  60  93 123 156 209 256 316 371
#     4   9  20  38  58  90 122 147 208 251 294 365
#
# _framework density 18.791554999999999
#
# number of rings (size 3 to 8) (size 9 to 14) (size 15 to 20)
#    0.571    1.524    1.905    1.143    2.667    0.000 
#    0.000    0.000    0.000   26.286    0.000    0.000 
#    0.000    0.000    0.000    0.000    0.000    0.000 
#
# Total GULP energy -233820.465224 kJ/mol
# GULP energy per Si atom -5567.153934 kJ/mol
# Density = 1.874878 g / cm^3
# Si number density = 18.791555 Si / 1000 Ang^3
#
#
#
# Elastic Constant Matrix: (Units=GPa)
#
#
# Indices 1 2 3 4 5 6 
#
# 1 42.1396 15.5333 2.9821 0.0000 0.0000 0.0000
# 2 15.5333 42.1401 2.9823 0.0000 0.0000 0.0000
# 3 2.9821 2.9823 80.0827 0.0000 0.0000 0.0000
# 4 0.0000 0.0000 0.0000 21.6612 0.0000 0.0000
# 5 0.0000 0.0000 0.0000 0.0000 21.6608 0.0000
# 6 0.0000 0.0000 0.0000 0.0000 0.0000 17.3465
#
#
#
# Elastic Compliance Matrix: (Units=1/GPa)
#
#
# Indices 1 2 3 4 5 6 
#
# 1 0.027496 -0.010089 -0.000648 0.000000 0.000000 0.000000
# 2 -0.010089 0.027495 -0.000648 0.000000 0.000000 0.000000
# 3 -0.000648 -0.000648 0.012535 0.000000 0.000000 0.000000
# 4 0.000000 0.000000 0.000000 0.046166 0.000000 0.000000
# 5 0.000000 0.000000 0.000000 0.000000 0.046166 0.000000
# 6 0.000000 0.000000 0.000000 0.000000 0.000000 0.057649
#
#
# Mechanical properties :
#
#
# Convention : Reuss Voigt Hill
#
# Bulk Modulus (GPa) = 22.34393 23.03974 22.69184
# Shear Modulus (GPa) = 19.59277 21.65801 20.62539
#
# Velocity S-wave (km/s) = 3.23249 3.39859 3.31658
# Velocity P-wave (km/s) = 5.08411 5.26193 5.17378
#
# Compressibility (1/GPa) = 0.04475489
#
# Stress axis : x y z
#
# Youngs Moduli (GPa) = 36.36949 36.36994 79.77427
#
# Poissons Ratio (x) = 0.36695 0.05170
# Poissons Ratio (y) = 0.36694 0.05171
# Poissons Ratio (z) = 0.02357 0.02358
#
# Static dielectric constant tensor:
#      x y z
#    x 1.677500 0.000000 0.000000 
#    y 0.000000 1.677490 0.000000 
#    z 0.000000 0.000000 1.634280 
# 
# From -- ./inp_files/6230.got.cif
#   From: 2010.05.17/outbox.cif.g08.bks.cpg/sg120_4_cif.got.tgz:6230.got - 2010.05.20 11:28:13.
