data_PCOD9559180
_publ_section_title
;
Structure prediction by ZEFSAII (Michael W. Deem and Ramdas Pophale) SiO2 
 PCOD9559180
Probable space group: I -4 M 2
;
_chemical_formula_sum "Si O2"
_cell_formula_units_Z 128
_cell_length_a 17.028965
_cell_length_b 17.028965
_cell_length_c 25.898183
_cell_angle_alpha 90.000000
_cell_angle_beta 90.000000
_cell_angle_gamma 90.000000
_cell_volume 7510.101404
_symmetry_space_group_name_H-M "I -4 M 2"
_symmetry_group_IT_number 119
_symmetry_cell_setting 'tetragonal'
loop_
_space_group_symop_operation_xyz
x,y,z
y,-x,-z
-x,-y,z
-y,x,-z
y,x,-z
-y,-x,-z
-x,y,z
x,-y,z
1/2+x,1/2+y,1/2+z
1/2+y,1/2-x,1/2-z
1/2-x,1/2-y,1/2+z
1/2-y,1/2+x,1/2-z
1/2+y,1/2+x,1/2-z
1/2-y,1/2-x,1/2-z
1/2-x,1/2+y,1/2+z
1/2+x,1/2-y,1/2+z
loop_
_atom_site_type_symbol
_atom_site_label
_atom_site_fract_x
_atom_site_fract_y
_atom_site_fract_z
Si Si1 0.321542 0.405415 0.256271
Si Si2 0.407493 0.322148 0.047148
Si Si3 0.908280 0.343349 0.200270
Si Si4 0.315600 0.180010 0.493752
Si Si5 0.592956 0.315943 0.455401
Si Si6 0.588147 0.406342 0.640731
Si Si7 0.093915 0.094216 0.652531
Si Si8 0.404598 0.905679 0.587835
O O1 0.313450 0.500000 0.250623
O O2 0.239451 0.374801 0.279101
O O3 0.383862 0.391171 0.301345
O O4 0.354563 0.378734 0.201381
O O5 0.500000 0.331974 0.044632
O O6 0.381293 0.359376 0.101314
O O7 0.369384 0.369384 0.000000
O O8 0.384225 0.231690 0.038789
O O9 0.898825 0.398825 0.250000
O O10 0.879185 0.377996 0.145773
O O11 0.000000 0.330249 0.190605
O O12 0.248948 0.248948 0.500000
O O13 0.383324 0.226274 0.463956
O O14 0.353505 0.141935 0.545296
O O15 0.631649 0.368352 0.500000
O O16 0.500000 0.324765 0.458089
O O17 0.623424 0.350804 0.401391
O O18 0.500000 0.375122 0.629733
O O19 0.585020 0.500000 0.636629
O O20 0.000000 0.106258 0.661855
O O21 0.104025 0.000000 0.645021
O O22 0.500000 0.892313 0.581599
O O23 0.392375 0.000000 0.583281
#
# Coordination Sequence:
#
# PCOD9559180 Si02
#       8
#    16  16  16  16  16  16  16  16
#     4   9  18  31  48  73 103 135 169 210 256 308
#     4  10  20  34  52  75 102 134 175 224 275 325
#     4  10  21  34  51  74 101 135 177 224 267 305
#     4  10  22  35  50  74 104 137 170 213 275 325
#     4  10  20  32  49  73 102 135 171 216 264 318
#     4   9  17  30  49  72 100 136 175 211 252 309
#     4   9  17  31  52  76 103 136 174 214 259 317
#     4  10  21  38  59  77  99 140 188 227 261 307
#
# _framework density 17.043710999999998
#
# number of rings (size 3 to 8) (size 9 to 14) (size 15 to 20)
#    0.000    2.375    0.000    2.250    3.500    5.375 
#    0.000    3.750    0.000    0.000    0.000    0.000 
#    0.000    0.000    0.000    0.000    0.000   26.750 
#
# Total GULP energy -356380.117234 kJ/mol
# GULP energy per Si atom -5568.439332 kJ/mol
# Density = 1.700492 g / cm^3
# Si number density = 17.043711 Si / 1000 Ang^3
#
#
#
# Elastic Constant Matrix: (Units=GPa)
#
#
# Indices 1 2 3 4 5 6 
#
# 1 63.0650 22.0094 57.4946 0.0000 0.0000 0.0000
# 2 22.0094 63.0649 57.4953 0.0000 0.0000 0.0000
# 3 57.4946 57.4953 158.9938 0.0000 0.0000 0.0000
# 4 0.0000 0.0000 0.0000 -165.4482 0.0000 0.0000
# 5 0.0000 0.0000 0.0000 0.0000 -165.9331 0.0000
# 6 0.0000 0.0000 0.0000 0.0000 0.0000 21.0014
#
#
#
# Elastic Compliance Matrix: (Units=1/GPa)
#
#
# Indices 1 2 3 4 5 6 
#
# 1 0.023675 -0.000682 -0.008314 0.000000 0.000000 0.000000
# 2 -0.000682 0.023675 -0.008315 0.000000 0.000000 0.000000
# 3 -0.008314 -0.008315 0.012303 0.000000 0.000000 0.000000
# 4 0.000000 0.000000 0.000000 -0.006044 0.000000 0.000000
# 5 0.000000 0.000000 0.000000 0.000000 -0.006027 0.000000
# 6 0.000000 0.000000 0.000000 0.000000 0.000000 0.047616
#
#
# Mechanical properties :
#
#
# Convention : Reuss Voigt Hill
#
# Bulk Modulus (GPa) = 39.95184 62.12468 51.03826
# Shear Modulus (GPa) = 36.18880 -52.20102 -8.00611
#
# Velocity S-wave (km/s) = 4.61292 -5.54024 -2.16970
# Velocity P-wave (km/s) = 7.20165 2.09673 4.87173
#
# Compressibility (1/GPa) = 0.02503014
#
# Stress axis : x y z
#
# Youngs Moduli (GPa) = 42.23898 42.23834 81.28133
#
# Poissons Ratio (x) = 0.02882 0.67581
# Poissons Ratio (y) = 0.02882 0.67583
# Poissons Ratio (z) = 0.35119 0.35120
#
# Static dielectric constant tensor:
#      x y z
#    x 1.619040 0.000000 0.000000 
#    y 0.000000 1.619040 0.000000 
#    z 0.000000 0.000000 1.581220 
# 
# From -- ./inp_files/9019.got.cif
#   From: 2010.05.17/outbox.cif.g08.bks.cpg/sg119_5_cif.got.tgz:9019.got - 2010.05.20 11:21:29.
