data_PCOD9559526
_publ_section_title
;
Structure prediction by ZEFSAII (Michael W. Deem and Ramdas Pophale) SiO2 
 PCOD9559526
Probable space group: I -4 M 2
;
_chemical_formula_sum "Si O2"
_cell_formula_units_Z 52
_cell_length_a 13.468234
_cell_length_b 13.468234
_cell_length_c 12.154679
_cell_angle_alpha 90.000000
_cell_angle_beta 90.000000
_cell_angle_gamma 90.000000
_cell_volume 2204.777663
_symmetry_space_group_name_H-M "I -4 M 2"
_symmetry_group_IT_number 119
_symmetry_cell_setting 'tetragonal'
loop_
_space_group_symop_operation_xyz
x,y,z
y,-x,-z
-x,-y,z
-y,x,-z
y,x,-z
-y,-x,-z
-x,y,z
x,-y,z
1/2+x,1/2+y,1/2+z
1/2+y,1/2-x,1/2-z
1/2-x,1/2-y,1/2+z
1/2-y,1/2+x,1/2-z
1/2+y,1/2+x,1/2-z
1/2-y,1/2-x,1/2-z
1/2-x,1/2+y,1/2+z
1/2+x,1/2-y,1/2+z
loop_
_atom_site_type_symbol
_atom_site_label
_atom_site_fract_x
_atom_site_fract_y
_atom_site_fract_z
Si Si1 0.000000 0.500000 0.250000
Si Si2 0.000000 0.708095 0.117249
Si Si3 0.784680 0.000000 0.580648
Si Si4 0.000000 0.000000 0.500000
Si Si5 0.000000 0.660522 0.873101
Si Si6 0.222162 0.277305 0.129049
Si Si7 0.826567 0.500000 0.860091
O O1 0.000000 0.403609 0.170091
O O2 0.107058 0.750662 0.143153
O O3 0.000000 0.714150 0.986016
O O4 0.739658 0.897405 0.626774
O O5 0.902928 0.000000 0.577218
O O6 0.753957 0.000000 0.452804
O O7 0.902592 0.591186 0.873073
O O8 0.000000 0.719177 0.760343
O O9 0.262013 0.237988 0.250000
O O10 0.250344 0.250344 0.000000
#
# Coordination Sequence:
#
# PCOD9559526 Si02
#       7
#     2   8   8   2   8  16   8
#     4  12  20  36  76 106 132 180 228 320 386 412
#     4  12  21  40  69 107 141 177 239 315 380 419
#     4  12  23  48  72 100 150 198 251 291 368 439
#     4  12  28  48  68 100 146 212 248 292 322 472
#     4   9  17  28  56 102 139 174 218 295 378 421
#     4  12  27  46  74 108 149 193 252 308 373 445
#     4   9  17  31  57  97 147 180 222 285 368 437
#
# _framework density 23.585145000000001
#
# number of rings (size 3 to 8) (size 9 to 14) (size 15 to 20)
#    0.000    0.923    6.154    3.692    0.000    2.462 
#    0.000    0.000    0.000    0.462    0.000    0.000 
#    0.000    0.000    0.000    0.000    0.000    0.000 
#
# Total GULP energy -144901.108700 kJ/mol
# GULP energy per Si atom -5573.119565 kJ/mol
# Density = 2.353146 g / cm^3
# Si number density = 23.585145 Si / 1000 Ang^3
#
#
#
# Elastic Constant Matrix: (Units=GPa)
#
#
# Indices 1 2 3 4 5 6 
#
# 1 92.4092 1.6876 33.1778 0.0000 0.0000 0.0000
# 2 1.6876 92.4095 33.1779 0.0000 0.0000 0.0000
# 3 33.1778 33.1779 245.8094 0.0000 0.0000 0.0000
# 4 0.0000 0.0000 0.0000 12.7430 0.0000 0.0000
# 5 0.0000 0.0000 0.0000 0.0000 12.7425 0.0000
# 6 0.0000 0.0000 0.0000 0.0000 0.0000 19.1086
#
#
#
# Elastic Compliance Matrix: (Units=1/GPa)
#
#
# Indices 1 2 3 4 5 6 
#
# 1 0.011384 0.000361 -0.001585 0.000000 0.000000 0.000000
# 2 0.000361 0.011384 -0.001585 0.000000 0.000000 0.000000
# 3 -0.001585 -0.001585 0.004496 0.000000 0.000000 0.000000
# 4 0.000000 0.000000 0.000000 0.078474 0.000000 0.000000
# 5 0.000000 0.000000 0.000000 0.000000 0.078478 0.000000
# 6 0.000000 0.000000 0.000000 0.000000 0.000000 0.052332
#
#
# Mechanical properties :
#
#
# Convention : Reuss Voigt Hill
#
# Bulk Modulus (GPa) = 46.19906 62.96829 54.58367
# Shear Modulus (GPa) = 20.04953 33.09114 26.57034
#
# Velocity S-wave (km/s) = 2.91880 3.74979 3.36008
# Velocity P-wave (km/s) = 5.56686 6.74568 6.18442
#
# Compressibility (1/GPa) = 0.02164546
#
# Stress axis : x y z
#
# Youngs Moduli (GPa) = 87.84253 87.84282 222.41286
#
# Poissons Ratio (x) = -0.03174 0.35259
# Poissons Ratio (y) = -0.03174 0.35259
# Poissons Ratio (z) = 0.13926 0.13926
#
# Static dielectric constant tensor:
#      x y z
#    x 1.925390 0.000000 0.000000 
#    y 0.000000 1.925400 0.000000 
#    z 0.000000 0.000000 1.942230 
# 
# From -- ./inp_files/3589.got.cif
#   From: 2010.05.17/outbox.cif.g08.bks.cpg/sg119_2_cif.got.tgz:3589.got - 2010.05.20 11:21:29.
