data_PCOD9559139
_publ_section_title
;
Structure prediction by ZEFSAII (Michael W. Deem and Ramdas Pophale) SiO2 
 PCOD9559139
Probable space group: I -4 M 2
;
_chemical_formula_sum "Si O2"
_cell_formula_units_Z 116
_cell_length_a 19.585325
_cell_length_b 19.585325
_cell_length_c 18.512784
_cell_angle_alpha 90.000000
_cell_angle_beta 90.000000
_cell_angle_gamma 90.000000
_cell_volume 7101.225424
_symmetry_space_group_name_H-M "I -4 M 2"
_symmetry_group_IT_number 119
_symmetry_cell_setting 'tetragonal'
loop_
_space_group_symop_operation_xyz
x,y,z
y,-x,-z
-x,-y,z
-y,x,-z
y,x,-z
-y,-x,-z
-x,y,z
x,-y,z
1/2+x,1/2+y,1/2+z
1/2+y,1/2-x,1/2-z
1/2-x,1/2-y,1/2+z
1/2-y,1/2+x,1/2-z
1/2+y,1/2+x,1/2-z
1/2-y,1/2-x,1/2-z
1/2-x,1/2+y,1/2+z
1/2+x,1/2-y,1/2+z
loop_
_atom_site_type_symbol
_atom_site_label
_atom_site_fract_x
_atom_site_fract_y
_atom_site_fract_z
Si Si1 0.077723 0.232675 0.478945
Si Si2 0.140662 0.169258 0.619211
Si Si3 0.117023 0.617023 0.529157
Si Si4 0.169258 0.140663 0.119212
Si Si5 0.000000 0.500000 0.525007
Si Si6 0.319672 0.180329 0.168424
Si Si7 0.418045 0.420056 0.250000
Si Si8 0.767324 0.077723 0.978945
O O1 0.090168 0.192370 0.554428
O O2 0.129833 0.201748 0.421049
O O3 0.093030 0.311999 0.493347
O O4 0.000000 0.223122 0.455437
O O5 0.165766 0.239956 0.654178
O O6 0.108559 0.120175 0.679385
O O7 0.136791 0.636791 0.611361
O O8 0.188001 0.593030 0.493347
O O9 0.059821 0.559821 0.525170
O O10 0.239956 0.165766 0.154179
O O11 0.120175 0.108559 0.179385
O O12 0.129833 0.201748 0.078951
O O13 0.192370 0.090168 0.054428
O O14 0.337550 0.162451 0.250000
O O15 0.500000 0.418020 0.250000
O O16 0.396949 0.500000 0.250000
O O17 0.776878 0.000000 0.955437
#
# Coordination Sequence:
#
# PCOD9559139 Si02
#       8
#    16  16  16  16   4  16  16  16
#     4  10  19  34  54  80 105 138 184 222 273 321
#     4  10  20  34  55  77 106 140 180 233 264 316
#     4  10  21  34  57  79 109 147 174 222 272 336
#     4  10  20  34  55  77 106 140 180 233 264 316
#     4  12  20  40  57  84 124 141 172 228 282 332
#     4  10  19  37  55  79 104 141 191 221 267 314
#     4  11  22  35  50  76 110 145 176 213 276 330
#     4  10  19  34  54  80 105 138 184 222 273 321
#
# _framework density 16.335208999999999
#
# number of rings (size 3 to 8) (size 9 to 14) (size 15 to 20)
#    0.000    1.793    2.759    2.483    0.000    3.310 
#    0.000    1.034    0.000    6.621    0.000    0.000 
#    0.000    1.103    0.000    0.000    0.000    0.000 
#
# Total GULP energy -323034.801921 kJ/mol
# GULP energy per Si atom -5569.565550 kJ/mol
# Density = 1.629803 g / cm^3
# Si number density = 16.335209 Si / 1000 Ang^3
#
#
#
# Elastic Constant Matrix: (Units=GPa)
#
#
# Indices 1 2 3 4 5 6 
#
# 1 107.8001 46.2489 25.9581 0.0000 0.0000 0.0000
# 2 46.2489 107.8003 25.9584 0.0000 0.0000 0.0000
# 3 25.9581 25.9584 63.9202 0.0000 0.0000 0.0000
# 4 0.0000 0.0000 0.0000 11.9979 0.0000 0.0000
# 5 0.0000 0.0000 0.0000 0.0000 11.9978 0.0000
# 6 0.0000 0.0000 0.0000 0.0000 0.0000 29.4931
#
#
#
# Elastic Compliance Matrix: (Units=1/GPa)
#
#
# Indices 1 2 3 4 5 6 
#
# 1 0.011884 -0.004363 -0.003054 0.000000 0.000000 0.000000
# 2 -0.004363 0.011884 -0.003054 0.000000 0.000000 0.000000
# 3 -0.003054 -0.003054 0.018125 0.000000 0.000000 0.000000
# 4 0.000000 0.000000 0.000000 0.083348 0.000000 0.000000
# 5 0.000000 0.000000 0.000000 0.000000 0.083348 0.000000
# 6 0.000000 0.000000 0.000000 0.000000 0.000000 0.033906
#
#
# Mechanical properties :
#
#
# Convention : Reuss Voigt Hill
#
# Bulk Modulus (GPa) = 47.73311 52.87239 50.30275
# Shear Modulus (GPa) = 18.48969 22.78812 20.63890
#
# Velocity S-wave (km/s) = 3.36801 3.73906 3.55838
# Velocity P-wave (km/s) = 6.66401 7.14690 6.90968
#
# Compressibility (1/GPa) = 0.02094982
#
# Stress axis : x y z
#
# Youngs Moduli (GPa) = 84.14905 84.14902 55.17193
#
# Poissons Ratio (x) = 0.36714 0.16850
# Poissons Ratio (y) = 0.36714 0.16851
# Poissons Ratio (z) = 0.25701 0.25701
#
# Static dielectric constant tensor:
#      x y z
#    x 1.527020 0.000000 0.000000 
#    y 0.000000 1.527020 0.000000 
#    z 0.000000 0.000000 1.533180 
# 
# From -- ./inp_files/6782.got.cif
#   From: 2010.05.17/outbox.cif.g08.bks.cpg/sg119_4_cif.got.tgz:6782.got - 2010.05.20 11:21:29.
