data_PCOD9559900
_publ_section_title
;
Structure prediction by ZEFSAII (Michael W. Deem and Ramdas Pophale) SiO2 
 PCOD9559900
Probable space group: I -4 C 2
;
_chemical_formula_sum "Si O2"
_cell_formula_units_Z 52
_cell_length_a 15.431764
_cell_length_b 15.431764
_cell_length_c 9.252015
_cell_angle_alpha 90.000000
_cell_angle_beta 90.000000
_cell_angle_gamma 90.000000
_cell_volume 2203.268747
_symmetry_space_group_name_H-M "I -4 C 2"
_symmetry_group_IT_number 120
_symmetry_cell_setting 'tetragonal'
loop_
_space_group_symop_operation_xyz
x,y,z
y,-x,-z
-x,-y,z
-y,x,-z
y,x,1/2-z
-y,-x,1/2-z
-x,y,1/2+z
x,-y,1/2+z
1/2+x,1/2+y,1/2+z
1/2+y,1/2-x,1/2-z
1/2-x,1/2-y,1/2+z
1/2-y,1/2+x,1/2-z
1/2+y,1/2+x,-z
1/2-y,1/2-x,-z
1/2-x,1/2+y,z
1/2+x,1/2-y,z
loop_
_atom_site_type_symbol
_atom_site_label
_atom_site_fract_x
_atom_site_fract_y
_atom_site_fract_z
Si Si1 0.759470 0.602742 0.951151
Si Si2 0.754568 0.164925 0.382131
Si Si3 0.000000 0.000000 0.750000
Si Si4 0.200893 0.997274 0.693163
O O1 0.683359 0.663412 0.013881
O O2 0.747776 0.515033 0.042980
O O3 0.846542 0.653459 0.000000
O O4 0.740292 0.580649 0.786177
O O5 0.764541 0.235460 0.250000
O O6 0.678602 0.178602 0.500000
O O7 0.770230 0.079414 0.290793
O O8 0.095983 0.997726 0.675921
#
# Coordination Sequence:
#
# PCOD9559900 Si02
#       4
#    16  16   4  16
#     4  10  23  43  62  94 132 174 225 261 324 398
#     4   9  19  38  59  90 125 168 220 261 315 387
#     4  12  24  42  60 110 136 166 204 258 364 390
#     4  11  24  39  66  96 137 171 209 279 325 398
#
# _framework density 23.601298
#
# number of rings (size 3 to 8) (size 9 to 14) (size 15 to 20)
#    0.000    1.846    4.615    0.000    4.308    8.615 
#    8.308    0.000    0.000    7.385    0.000    0.000 
#    0.000    0.000    0.000    0.000    0.000    0.000 
#
# Total GULP energy -144855.135423 kJ/mol
# GULP energy per Si atom -5571.351362 kJ/mol
# Density = 2.354758 g / cm^3
# Si number density = 23.601298 Si / 1000 Ang^3
#
#
#
# Elastic Constant Matrix: (Units=GPa)
#
#
# Indices 1 2 3 4 5 6 
#
# 1 96.0600 37.3547 31.1539 0.0000 0.0000 0.0000
# 2 37.3547 96.0610 31.1538 0.0000 0.0000 0.0000
# 3 31.1539 31.1538 129.5248 0.0000 0.0000 0.0000
# 4 0.0000 0.0000 0.0000 39.2876 0.0000 0.0000
# 5 0.0000 0.0000 0.0000 0.0000 39.2881 0.0000
# 6 0.0000 0.0000 0.0000 0.0000 0.0000 42.4474
#
#
#
# Elastic Compliance Matrix: (Units=1/GPa)
#
#
# Indices 1 2 3 4 5 6 
#
# 1 0.012739 -0.004295 -0.002031 0.000000 0.000000 0.000000
# 2 -0.004295 0.012739 -0.002031 0.000000 0.000000 0.000000
# 3 -0.002031 -0.002031 0.008698 0.000000 0.000000 0.000000
# 4 0.000000 0.000000 0.000000 0.025453 0.000000 0.000000
# 5 0.000000 0.000000 0.000000 0.000000 0.025453 0.000000
# 6 0.000000 0.000000 0.000000 0.000000 0.000000 0.023559
#
#
# Mechanical properties :
#
#
# Convention : Reuss Voigt Hill
#
# Bulk Modulus (GPa) = 57.26893 57.88561 57.57727
# Shear Modulus (GPa) = 38.11703 39.00351 38.56027
#
# Velocity S-wave (km/s) = 4.02312 4.06963 4.04644
# Velocity P-wave (km/s) = 6.77484 6.83097 6.80296
#
# Compressibility (1/GPa) = 0.01746147
#
# Stress axis : x y z
#
# Youngs Moduli (GPa) = 78.49860 78.49954 114.97530
#
# Poissons Ratio (x) = 0.33716 0.23351
# Poissons Ratio (y) = 0.33716 0.23351
# Poissons Ratio (z) = 0.15943 0.15943
#
# Static dielectric constant tensor:
#      x y z
#    x 2.025450 0.000000 0.000000 
#    y 0.000000 2.025450 0.000000 
#    z 0.000000 0.000000 2.066360 
# 
# From -- ./inp_files/982.got.cif
#   From: 2010.05.17/outbox.cif.g08.bks.cpg/sg120_1_cif.got.tgz:982.got - 2010.05.20 11:28:13.
