data_PCOD9559181
_publ_section_title
;
Structure prediction by ZEFSAII (Michael W. Deem and Ramdas Pophale) SiO2 
 PCOD9559181
Probable space group: I -4 M 2
;
_chemical_formula_sum "Si O2"
_cell_formula_units_Z 104
_cell_length_a 18.176803
_cell_length_b 18.176803
_cell_length_c 16.487476
_cell_angle_alpha 90.000000
_cell_angle_beta 90.000000
_cell_angle_gamma 90.000000
_cell_volume 5447.398879
_symmetry_space_group_name_H-M "I -4 M 2"
_symmetry_group_IT_number 119
_symmetry_cell_setting 'tetragonal'
loop_
_space_group_symop_operation_xyz
x,y,z
y,-x,-z
-x,-y,z
-y,x,-z
y,x,-z
-y,-x,-z
-x,y,z
x,-y,z
1/2+x,1/2+y,1/2+z
1/2+y,1/2-x,1/2-z
1/2-x,1/2-y,1/2+z
1/2-y,1/2+x,1/2-z
1/2+y,1/2+x,1/2-z
1/2-y,1/2-x,1/2-z
1/2-x,1/2+y,1/2+z
1/2+x,1/2-y,1/2+z
loop_
_atom_site_type_symbol
_atom_site_label
_atom_site_fract_x
_atom_site_fract_y
_atom_site_fract_z
Si Si1 0.414222 0.796762 0.263618
Si Si2 0.086106 0.914247 0.322707
Si Si3 0.826940 0.412862 0.321693
Si Si4 0.867328 0.132673 0.500000
Si Si5 0.277025 0.913499 0.422841
Si Si6 0.088413 0.418846 0.489933
Si Si7 0.815011 0.804274 0.215643
O O1 0.500000 0.801396 0.282915
O O2 0.375419 0.875419 0.250000
O O3 0.404976 0.763336 0.172220
O O4 0.366850 0.740629 0.318677
O O5 0.094614 0.897311 0.418686
O O6 0.130757 0.851068 0.274748
O O7 0.000000 0.909900 0.301307
O O8 0.110207 0.000000 0.308138
O O9 0.817185 0.500000 0.303847
O O10 0.872732 0.372732 0.250000
O O11 0.873703 0.406394 0.403798
O O12 0.749425 0.370392 0.332162
O O13 0.781900 0.121894 0.481567
O O14 0.357898 0.888338 0.446271
O O15 0.272112 0.000000 0.438852
O O16 0.107442 0.500000 0.519477
O O17 0.000000 0.415526 0.479531
O O18 0.754936 0.745064 0.250000
#
# Coordination Sequence:
#
# PCOD9559181 Si02
#       7
#    16  16  16   8  16  16  16
#     4  10  21  38  57  79 106 139 180 228 279 330
#     4  11  22  36  55  80 112 149 188 229 276 334
#     4  10  20  32  49  74 104 141 185 226 270 324
#     4  12  22  33  54  82 114 146 182 223 270 338
#     4  10  21  35  54  78 109 144 179 225 276 329
#     4   9  19  35  54  77 106 141 181 227 278 329
#     4  10  21  35  51  72 105 143 183 227 270 319
#
# _framework density 19.091681000000001
#
# number of rings (size 3 to 8) (size 9 to 14) (size 15 to 20)
#    0.000    1.846    1.538    2.769    4.308    2.154 
#    0.000    1.538    0.000    0.000    0.000    0.000 
#    0.000    0.000    0.000    0.000    0.000   54.308 
#
# Total GULP energy -289694.433453 kJ/mol
# GULP energy per Si atom -5571.046797 kJ/mol
# Density = 1.904823 g / cm^3
# Si number density = 19.091681 Si / 1000 Ang^3
#
#
#
# Elastic Constant Matrix: (Units=GPa)
#
#
# Indices 1 2 3 4 5 6 
#
# 1 98.7537 43.5003 11.6486 0.0000 0.0000 0.0000
# 2 43.5003 98.7535 11.6487 0.0000 0.0000 0.0000
# 3 11.6486 11.6487 19.6446 0.0000 0.0000 0.0000
# 4 0.0000 0.0000 0.0000 23.3845 0.0000 0.0000
# 5 0.0000 0.0000 0.0000 0.0000 23.3844 0.0000
# 6 0.0000 0.0000 0.0000 0.0000 0.0000 40.1993
#
#
#
# Elastic Compliance Matrix: (Units=1/GPa)
#
#
# Indices 1 2 3 4 5 6 
#
# 1 0.012942 -0.005156 -0.004617 0.000000 0.000000 0.000000
# 2 -0.005156 0.012942 -0.004617 0.000000 0.000000 0.000000
# 3 -0.004617 -0.004617 0.056380 0.000000 0.000000 0.000000
# 4 0.000000 0.000000 0.000000 0.042763 0.000000 0.000000
# 5 0.000000 0.000000 0.000000 0.000000 0.042763 0.000000
# 6 0.000000 0.000000 0.000000 0.000000 0.000000 0.024876
#
#
# Mechanical properties :
#
#
# Convention : Reuss Voigt Hill
#
# Bulk Modulus (GPa) = 18.69706 38.97191 28.83448
# Shear Modulus (GPa) = 20.89649 27.41726 24.15687
#
# Velocity S-wave (km/s) = 3.31196 3.79368 3.56098
# Velocity P-wave (km/s) = 4.94369 6.29656 5.66069
#
# Compressibility (1/GPa) = 0.05348434
#
# Stress axis : x y z
#
# Youngs Moduli (GPa) = 77.26722 77.26691 17.73686
#
# Poissons Ratio (x) = 0.39841 0.08189
# Poissons Ratio (y) = 0.39842 0.08189
# Poissons Ratio (z) = 0.35672 0.35673
#
# Static dielectric constant tensor:
#      x y z
#    x 1.705280 0.000000 0.000000 
#    y 0.000000 1.705280 0.000000 
#    z 0.000000 0.000000 1.688570 
# 
# From -- ./inp_files/6718.got.cif
#   From: 2010.05.17/outbox.cif.g08.bks.cpg/sg119_4_cif.got.tgz:6718.got - 2010.05.20 11:21:29.
