data_PCOD9559888
_publ_section_title
;
Structure prediction by ZEFSAII (Michael W. Deem and Ramdas Pophale) SiO2 
 PCOD9559888
Probable space group: I -4 C 2
;
_chemical_formula_sum "Si O2"
_cell_formula_units_Z 72
_cell_length_a 16.960062
_cell_length_b 16.960062
_cell_length_c 10.886011
_cell_angle_alpha 90.000000
_cell_angle_beta 90.000000
_cell_angle_gamma 90.000000
_cell_volume 3131.292515
_symmetry_space_group_name_H-M "I -4 C 2"
_symmetry_group_IT_number 120
_symmetry_cell_setting 'tetragonal'
loop_
_space_group_symop_operation_xyz
x,y,z
y,-x,-z
-x,-y,z
-y,x,-z
y,x,1/2-z
-y,-x,1/2-z
-x,y,1/2+z
x,-y,1/2+z
1/2+x,1/2+y,1/2+z
1/2+y,1/2-x,1/2-z
1/2-x,1/2-y,1/2+z
1/2-y,1/2+x,1/2-z
1/2+y,1/2+x,-z
1/2-y,1/2-x,-z
1/2-x,1/2+y,z
1/2+x,1/2-y,z
loop_
_atom_site_type_symbol
_atom_site_label
_atom_site_fract_x
_atom_site_fract_y
_atom_site_fract_z
Si Si1 0.864813 0.635188 0.000000
Si Si2 0.424290 0.607378 0.999772
Si Si3 0.319128 0.845726 0.253837
Si Si4 0.336574 0.336574 0.750000
Si Si5 0.091445 0.526510 0.889129
Si Si6 0.648479 0.351522 0.750000
O O1 0.805112 0.650013 0.108075
O O2 0.951087 0.639252 0.063401
O O3 0.384152 0.642286 0.124447
O O4 0.517960 0.605899 0.016872
O O5 0.410778 0.642521 0.863382
O O6 0.348786 0.757282 0.278362
O O7 0.373871 0.921146 0.281433
O O8 0.234484 0.858003 0.313106
O O9 0.000000 0.500000 0.873902
O O10 0.088569 0.588569 0.000000
#
# Coordination Sequence:
#
# PCOD9559888 Si02
#       6
#     8  16  16   8  16   8
#     4  10  23  40  64  92 136 188 239 286 340 412
#     4  11  25  49  74 104 135 175 240 305 364 431
#     4  11  25  43  68  98 150 184 241 286 346 432
#     4  11  26  47  72 104 144 191 232 301 374 414
#     4   9  23  41  62  95 137 187 233 279 336 406
#     4  11  26  43  70 108 138 187 236 295 366 414
#
# _framework density 22.993698999999999
#
# number of rings (size 3 to 8) (size 9 to 14) (size 15 to 20)
#    0.000    1.778    0.000    2.667    9.333    9.778 
#    4.000    0.000    0.000    0.000    0.000    0.000 
#    0.000    0.000    0.000    0.000    0.000    0.000 
#
# Total GULP energy -200827.400996 kJ/mol
# GULP energy per Si atom -5578.538917 kJ/mol
# Density = 2.294136 g / cm^3
# Si number density = 22.993699 Si / 1000 Ang^3
#
#
#
# Elastic Constant Matrix: (Units=GPa)
#
#
# Indices 1 2 3 4 5 6 
#
# 1 47.8427 59.5582 2.6302 0.0000 0.0000 0.0000
# 2 59.5582 47.8434 2.6313 0.0000 0.0000 0.0000
# 3 2.6302 2.6313 92.3844 0.0000 0.0000 0.0000
# 4 0.0000 0.0000 0.0000 19.9746 0.0000 0.0000
# 5 0.0000 0.0000 0.0000 0.0000 19.9724 0.0000
# 6 0.0000 0.0000 0.0000 0.0000 0.0000 33.6996
#
#
#
# Elastic Compliance Matrix: (Units=1/GPa)
#
#
# Indices 1 2 3 4 5 6 
#
# 1 -0.038018 0.047342 -0.000266 0.000000 0.000000 0.000000
# 2 0.047342 -0.038018 -0.000265 0.000000 0.000000 0.000000
# 3 -0.000266 -0.000265 0.010839 0.000000 0.000000 0.000000
# 4 0.000000 0.000000 0.000000 0.050064 0.000000 0.000000
# 5 0.000000 0.000000 0.000000 0.000000 0.050069 0.000000
# 6 0.000000 0.000000 0.000000 0.000000 0.000000 0.029674
#
#
# Mechanical properties :
#
#
# Convention : Reuss Voigt Hill
#
# Bulk Modulus (GPa) = 35.18007 35.30112 35.24060
# Shear Modulus (GPa) = -255.93965 22.94604 -116.49681
#
# Velocity S-wave (km/s) = -10.56173 3.16243 -7.12563
# Velocity P-wave (km/s) = 11.54992 5.35914 7.23464
#
# Compressibility (1/GPa) = 0.02842518
#
# Stress axis : x y z
#
# Youngs Moduli (GPa) = -26.30327 -26.30360 92.25556
#
# Poissons Ratio (x) = 1.24526 0.02454
# Poissons Ratio (y) = 1.24524 0.02445
# Poissons Ratio (z) = -0.00700 -0.00697
#
# Static dielectric constant tensor:
#      x y z
#    x 1.865390 0.000000 0.000000 
#    y 0.000000 1.865400 0.000000 
#    z 0.000000 0.000000 2.225660 
# 
# From -- ./inp_files/2511.got.cif
#   From: 2010.05.17/outbox.cif.g08.bks.cpg/sg120_2_cif.got.tgz:2511.got - 2010.05.20 11:28:13.
