data_PCOD9559626
_publ_section_title
;
Structure prediction by ZEFSAII (Michael W. Deem and Ramdas Pophale) SiO2 
 PCOD9559626
Probable space group: I -4 C 2
;
_chemical_formula_sum "Si O2"
_cell_formula_units_Z 92
_cell_length_a 13.277723
_cell_length_b 13.277723
_cell_length_c 21.501615
_cell_angle_alpha 90.000000
_cell_angle_beta 90.000000
_cell_angle_gamma 90.000000
_cell_volume 3790.690175
_symmetry_space_group_name_H-M "I -4 C 2"
_symmetry_group_IT_number 120
_symmetry_cell_setting 'tetragonal'
loop_
_space_group_symop_operation_xyz
x,y,z
y,-x,-z
-x,-y,z
-y,x,-z
y,x,1/2-z
-y,-x,1/2-z
-x,y,1/2+z
x,-y,1/2+z
1/2+x,1/2+y,1/2+z
1/2+y,1/2-x,1/2-z
1/2-x,1/2-y,1/2+z
1/2-y,1/2+x,1/2-z
1/2+y,1/2+x,-z
1/2-y,1/2-x,-z
1/2-x,1/2+y,z
1/2+x,1/2-y,z
loop_
_atom_site_type_symbol
_atom_site_label
_atom_site_fract_x
_atom_site_fract_y
_atom_site_fract_z
Si Si1 0.725446 0.441080 0.528694
Si Si2 0.782706 0.907373 0.389608
Si Si3 0.197370 0.594311 0.122376
Si Si4 0.577576 0.257385 0.244846
Si Si5 0.623965 0.298720 0.617337
Si Si6 0.129949 0.129949 0.750000
Si Si7 0.500000 0.500000 0.000000
O O1 0.760145 0.416012 0.459132
O O2 0.797917 0.506735 0.572034
O O3 0.697728 0.341423 0.566257
O O4 0.615572 0.497595 0.526650
O O5 0.849377 0.807070 0.382710
O O6 0.717534 0.919320 0.326084
O O7 0.846585 0.012689 0.386506
O O8 0.186832 0.565784 0.195141
O O9 0.117128 0.680097 0.107400
O O10 0.679310 0.320691 0.250000
O O11 0.486089 0.337389 0.252097
O O12 0.666233 0.321494 0.685599
#
# Coordination Sequence:
#
# PCOD9559626 Si02
#       7
#    16  16  16  16  16   8   4
#     4  12  20  36  58  87 121 160 193 250 314 367
#     4  10  21  35  55  84 120 153 198 249 308 365
#     4  11  22  38  60  86 127 161 203 250 308 369
#     4   9  19  33  54  86 117 154 189 247 312 364
#     4  11  23  36  59  90 118 162 207 246 307 375
#     4  10  19  34  56  86 116 151 200 250 302 368
#     4  12  20  36  56  86 128 148 184 254 324 368
#
# _framework density 24.269984999999998
#
# number of rings (size 3 to 8) (size 9 to 14) (size 15 to 20)
#    0.000    1.391    5.217    0.261    3.652    2.783 
#    0.000    0.000    0.000    1.043    0.000    2.435 
#    0.000    0.000    0.000    0.000    0.000    0.000 
#
# Total GULP energy -256545.172724 kJ/mol
# GULP energy per Si atom -5577.068972 kJ/mol
# Density = 2.421475 g / cm^3
# Si number density = 24.269985 Si / 1000 Ang^3
#
#
#
# Elastic Constant Matrix: (Units=GPa)
#
#
# Indices 1 2 3 4 5 6 
#
# 1 33.8073 18.9417 16.3272 0.0000 0.0000 0.0000
# 2 18.9417 33.8065 16.3282 0.0000 0.0000 0.0000
# 3 16.3272 16.3282 218.3673 0.0000 0.0000 0.0000
# 4 0.0000 0.0000 0.0000 10.6416 0.0000 0.0000
# 5 0.0000 0.0000 0.0000 0.0000 10.6411 0.0000
# 6 0.0000 0.0000 0.0000 0.0000 0.0000 20.1378
#
#
#
# Elastic Compliance Matrix: (Units=1/GPa)
#
#
# Indices 1 2 3 4 5 6 
#
# 1 0.043574 -0.023697 -0.001486 0.000000 0.000000 0.000000
# 2 -0.023697 0.043575 -0.001487 0.000000 0.000000 0.000000
# 3 -0.001486 -0.001487 0.004802 0.000000 0.000000 0.000000
# 4 0.000000 0.000000 0.000000 0.093971 0.000000 0.000000
# 5 0.000000 0.000000 0.000000 0.000000 0.093975 0.000000
# 6 0.000000 0.000000 0.000000 0.000000 0.000000 0.049658
#
#
# Mechanical properties :
#
#
# Convention : Reuss Voigt Hill
#
# Bulk Modulus (GPa) = 25.89840 43.24170 34.57005
# Shear Modulus (GPa) = 12.63377 23.90969 18.27173
#
# Velocity S-wave (km/s) = 2.28403 3.14212 2.74679
# Velocity P-wave (km/s) = 4.20118 5.56952 4.93302
#
# Compressibility (1/GPa) = 0.03861243
#
# Stress axis : x y z
#
# Youngs Moduli (GPa) = 22.94943 22.94876 208.25925
#
# Poissons Ratio (x) = 0.54381 0.30950
# Poissons Ratio (y) = 0.54383 0.30958
# Poissons Ratio (z) = 0.03411 0.03411
#
# Static dielectric constant tensor:
#      x y z
#    x 1.946520 0.000000 0.000000 
#    y 0.000000 1.946520 0.000000 
#    z 0.000000 0.000000 2.044990 
# 
# From -- ./inp_files/5393.got.cif
#   From: 2010.05.17/outbox.cif.g08.bks.cpg/sg120_3_cif.got.tgz:5393.got - 2010.05.20 11:28:13.
