data_PCOD9559433
_publ_section_title
;
Structure prediction by ZEFSAII (Michael W. Deem and Ramdas Pophale) SiO2 
 PCOD9559433
Probable space group: I -4 M 2
;
_chemical_formula_sum "Si O2"
_cell_formula_units_Z 40
_cell_length_a 7.448121
_cell_length_b 7.448121
_cell_length_c 34.616836
_cell_angle_alpha 90.000000
_cell_angle_beta 90.000000
_cell_angle_gamma 90.000000
_cell_volume 1920.351891
_symmetry_space_group_name_H-M "I -4 M 2"
_symmetry_group_IT_number 119
_symmetry_cell_setting 'tetragonal'
loop_
_space_group_symop_operation_xyz
x,y,z
y,-x,-z
-x,-y,z
-y,x,-z
y,x,-z
-y,-x,-z
-x,y,z
x,-y,z
1/2+x,1/2+y,1/2+z
1/2+y,1/2-x,1/2-z
1/2-x,1/2-y,1/2+z
1/2-y,1/2+x,1/2-z
1/2+y,1/2+x,1/2-z
1/2-y,1/2-x,1/2-z
1/2-x,1/2+y,1/2+z
1/2+x,1/2-y,1/2+z
loop_
_atom_site_type_symbol
_atom_site_label
_atom_site_fract_x
_atom_site_fract_y
_atom_site_fract_z
Si Si1 0.287696 0.212305 0.750000
Si Si2 0.500000 0.781798 0.107878
Si Si3 0.788462 0.798620 0.834849
Si Si4 0.219531 0.500000 0.983174
O O1 0.500000 0.247496 0.748702
O O2 0.227391 0.281673 0.791636
O O3 0.328140 0.715171 0.131817
O O4 0.500000 0.742959 0.062792
O O5 0.500000 0.000000 0.110618
O O6 0.000000 0.815044 0.841919
O O7 0.710694 0.000000 0.834989
O O8 0.000000 0.500000 0.989321
O O9 0.324500 0.675501 0.000000
#
# Coordination Sequence:
#
# PCOD9559433 Si02
#       4
#     8   8  16   8
#     4   9  18  32  45  68 108 148 197 248 297 356
#     4   9  19  37  59  86 117 155 206 255 319 392
#     4   9  18  32  51  77 110 151 198 250 298 366
#     4  10  23  45  70 101 137 172 219 287 346 421
#
# _framework density 20.829516999999999
#
# number of rings (size 3 to 8) (size 9 to 14) (size 15 to 20)
#    0.000    2.800    0.000    0.000    2.800    2.000 
#    7.200    4.000    0.000    0.000    0.000    0.000 
#    0.000    0.000    0.000    0.000    0.000    0.000 
#
# Total GULP energy -111448.193549 kJ/mol
# GULP energy per Si atom -5572.409677 kJ/mol
# Density = 2.078211 g / cm^3
# Si number density = 20.829517 Si / 1000 Ang^3
#
#
#
# Elastic Constant Matrix: (Units=GPa)
#
#
# Indices 1 2 3 4 5 6 
#
# 1 113.3148 33.3931 63.2724 0.0000 0.0000 0.0000
# 2 33.3931 113.3137 63.2727 0.0000 0.0000 0.0000
# 3 63.2724 63.2727 199.9116 0.0000 0.0000 0.0000
# 4 0.0000 0.0000 0.0000 41.0263 0.0000 0.0000
# 5 0.0000 0.0000 0.0000 0.0000 41.0267 0.0000
# 6 0.0000 0.0000 0.0000 0.0000 0.0000 7.1869
#
#
#
# Elastic Compliance Matrix: (Units=1/GPa)
#
#
# Indices 1 2 3 4 5 6 
#
# 1 0.010944 -0.001568 -0.002967 0.000000 0.000000 0.000000
# 2 -0.001568 0.010944 -0.002968 0.000000 0.000000 0.000000
# 3 -0.002967 -0.002968 0.006881 0.000000 0.000000 0.000000
# 4 0.000000 0.000000 0.000000 0.024375 0.000000 0.000000
# 5 0.000000 0.000000 0.000000 0.000000 0.024374 0.000000
# 6 0.000000 0.000000 0.000000 0.000000 0.000000 0.139142
#
#
# Mechanical properties :
#
#
# Convention : Reuss Voigt Hill
#
# Bulk Modulus (GPa) = 72.66098 82.93516 77.79807
# Shear Modulus (GPa) = 21.16370 35.62143 28.39256
#
# Velocity S-wave (km/s) = 3.19100 4.13987 3.69601
# Velocity P-wave (km/s) = 6.96678 7.92174 7.45956
#
# Compressibility (1/GPa) = 0.01376255
#
# Stress axis : x y z
#
# Youngs Moduli (GPa) = 91.37353 91.37235 145.33472
#
# Poissons Ratio (x) = 0.14329 0.43128
# Poissons Ratio (y) = 0.14329 0.43129
# Poissons Ratio (z) = 0.27115 0.27115
#
# Static dielectric constant tensor:
#      x y z
#    x 1.786340 0.000000 0.000000 
#    y 0.000000 1.786340 0.000000 
#    z 0.000000 0.000000 1.716720 
# 
# From -- ./inp_files/9140.got.cif
#   From: 2010.05.17/outbox.cif.g08.bks.cpg/sg119_5_cif.got.tgz:9140.got - 2010.05.20 11:21:29.
