data_PCOD9559423
_publ_section_title
;
Structure prediction by ZEFSAII (Michael W. Deem and Ramdas Pophale) SiO2 
 PCOD9559423
Probable space group: I -4 M 2
;
_chemical_formula_sum "Si O2"
_cell_formula_units_Z 96
_cell_length_a 21.326556
_cell_length_b 21.326556
_cell_length_c 8.324032
_cell_angle_alpha 90.000000
_cell_angle_beta 90.000000
_cell_angle_gamma 90.000000
_cell_volume 3785.952806
_symmetry_space_group_name_H-M "I -4 M 2"
_symmetry_group_IT_number 119
_symmetry_cell_setting 'tetragonal'
loop_
_space_group_symop_operation_xyz
x,y,z
y,-x,-z
-x,-y,z
-y,x,-z
y,x,-z
-y,-x,-z
-x,y,z
x,-y,z
1/2+x,1/2+y,1/2+z
1/2+y,1/2-x,1/2-z
1/2-x,1/2-y,1/2+z
1/2-y,1/2+x,1/2-z
1/2+y,1/2+x,1/2-z
1/2-y,1/2-x,1/2-z
1/2-x,1/2+y,1/2+z
1/2+x,1/2-y,1/2+z
loop_
_atom_site_type_symbol
_atom_site_label
_atom_site_fract_x
_atom_site_fract_y
_atom_site_fract_z
Si Si1 0.181416 0.625219 0.621772
Si Si2 0.127003 0.000000 0.808105
Si Si3 0.071758 0.430057 0.058030
Si Si4 0.313446 0.500000 0.656350
Si Si5 0.118242 0.129969 0.690029
Si Si6 0.761315 0.364536 0.303180
Si Si7 0.260910 0.000000 0.650143
Si Si8 0.500000 0.807736 0.215747
O O1 0.181490 0.681490 0.750000
O O2 0.124963 0.616499 0.495268
O O3 0.238009 0.630210 0.496989
O O4 0.166134 0.567846 0.743392
O O5 0.094483 0.064827 0.768787
O O6 0.186958 0.000000 0.688207
O O7 0.150494 0.000000 0.990091
O O8 0.091123 0.500000 0.002042
O O9 0.068467 0.431533 0.250000
O O10 0.000000 0.419747 0.001120
O O11 0.323625 0.563209 0.758546
O O12 0.239935 0.500000 0.628308
O O13 0.122435 0.122435 0.500000
O O14 0.188919 0.144390 0.748751
O O15 0.807682 0.307682 0.250000
O O16 0.781897 0.433629 0.231019
O O17 0.277113 0.000000 0.461538
#
# Coordination Sequence:
#
# PCOD9559423 Si02
#       8
#    16   8  16   8  16  16   8   8
#     4  12  25  40  63 103 146 194 255 315 374 446
#     4  10  22  43  73 116 151 189 231 299 374 453
#     4   9  19  37  61  91 133 189 246 317 386 435
#     4  12  24  45  77 111 147 192 241 289 380 452
#     4  11  24  47  80 115 152 193 243 306 372 456
#     4  11  24  48  73 107 150 200 253 311 380 448
#     4  10  22  44  73  96 145 202 253 311 375 445
#     4  12  24  42  66 100 140 192 253 313 373 447
#
# _framework density 25.356892999999999
#
# number of rings (size 3 to 8) (size 9 to 14) (size 15 to 20)
#    0.000    1.167    0.833    7.500    1.167    0.333 
#    1.500    8.333    0.000    0.250    0.000    0.000 
#    0.000    0.000    0.000    0.000    0.000    0.000 
#
# Total GULP energy -268219.778654 kJ/mol
# GULP energy per Si atom -5587.912055 kJ/mol
# Density = 2.529918 g / cm^3
# Si number density = 25.356893 Si / 1000 Ang^3
#
#
#
# Elastic Constant Matrix: (Units=GPa)
#
#
# Indices 1 2 3 4 5 6 
#
# 1 92.1350 21.8995 21.0426 0.0000 0.0000 0.0000
# 2 21.8995 92.1349 21.0432 0.0000 0.0000 0.0000
# 3 21.0426 21.0432 166.5082 0.0000 0.0000 0.0000
# 4 0.0000 0.0000 0.0000 40.2032 0.0000 0.0000
# 5 0.0000 0.0000 0.0000 0.0000 40.2031 0.0000
# 6 0.0000 0.0000 0.0000 0.0000 0.0000 29.0808
#
#
#
# Elastic Compliance Matrix: (Units=1/GPa)
#
#
# Indices 1 2 3 4 5 6 
#
# 1 0.011718 -0.002520 -0.001162 0.000000 0.000000 0.000000
# 2 -0.002520 0.011718 -0.001162 0.000000 0.000000 0.000000
# 3 -0.001162 -0.001162 0.006300 0.000000 0.000000 0.000000
# 4 0.000000 0.000000 0.000000 0.024874 0.000000 0.000000
# 5 0.000000 0.000000 0.000000 0.000000 0.024874 0.000000
# 6 0.000000 0.000000 0.000000 0.000000 0.000000 0.034387
#
#
# Mechanical properties :
#
#
# Convention : Reuss Voigt Hill
#
# Bulk Modulus (GPa) = 49.88454 53.19430 51.53942
# Shear Modulus (GPa) = 38.39024 41.01693 39.70359
#
# Velocity S-wave (km/s) = 3.89523 4.02628 3.96130
# Velocity P-wave (km/s) = 6.32029 6.52981 6.42591
#
# Compressibility (1/GPa) = 0.02004629
#
# Stress axis : x y z
#
# Youngs Moduli (GPa) = 85.33848 85.33819 158.74203
#
# Poissons Ratio (x) = 0.21503 0.18453
# Poissons Ratio (y) = 0.21503 0.18454
# Poissons Ratio (z) = 0.09920 0.09920
#
# Static dielectric constant tensor:
#      x y z
#    x 2.131370 0.000000 0.000000 
#    y 0.000000 2.131370 0.000000 
#    z 0.000000 0.000000 1.975310 
# 
# From -- ./inp_files/2769.got.cif
#   From: 2010.05.17/outbox.cif.g08.bks.cpg/sg119_2_cif.got.tgz:2769.got - 2010.05.20 11:21:29.
