data_PCOD9559265
_publ_section_title
;
Structure prediction by ZEFSAII (Michael W. Deem and Ramdas Pophale) SiO2 
 PCOD9559265
Probable space group: I -4 M 2
;
_chemical_formula_sum "Si O2"
_cell_formula_units_Z 108
_cell_length_a 16.107897
_cell_length_b 16.107897
_cell_length_c 21.135677
_cell_angle_alpha 90.000000
_cell_angle_beta 90.000000
_cell_angle_gamma 90.000000
_cell_volume 5483.954605
_symmetry_space_group_name_H-M "I -4 M 2"
_symmetry_group_IT_number 119
_symmetry_cell_setting 'tetragonal'
loop_
_space_group_symop_operation_xyz
x,y,z
y,-x,-z
-x,-y,z
-y,x,-z
y,x,-z
-y,-x,-z
-x,y,z
x,-y,z
1/2+x,1/2+y,1/2+z
1/2+y,1/2-x,1/2-z
1/2-x,1/2-y,1/2+z
1/2-y,1/2+x,1/2-z
1/2+y,1/2+x,1/2-z
1/2-y,1/2-x,1/2-z
1/2-x,1/2+y,1/2+z
1/2+x,1/2-y,1/2+z
loop_
_atom_site_type_symbol
_atom_site_label
_atom_site_fract_x
_atom_site_fract_y
_atom_site_fract_z
Si Si1 0.830206 0.221784 0.153670
Si Si2 0.096003 0.596003 0.750000
Si Si3 0.902056 0.778034 0.518526
Si Si4 0.500000 0.000000 0.550661
Si Si5 0.643982 0.748632 0.163677
Si Si6 0.594648 0.404437 0.246926
Si Si7 0.621854 0.841733 0.552015
Si Si8 0.909242 0.193878 0.955629
O O1 0.742301 0.255535 0.177918
O O2 0.881328 0.165698 0.202353
O O3 0.880428 0.295211 0.119436
O O4 0.802218 0.159104 0.098090
O O5 0.104934 0.500000 0.727236
O O6 0.166768 0.611185 0.802994
O O7 0.867757 0.867757 0.500000
O O8 0.874256 0.751854 0.589086
O O9 0.860942 0.716024 0.467884
O O10 0.000000 0.772465 0.515226
O O11 0.571188 0.926140 0.550298
O O12 0.603018 0.666699 0.193895
O O13 0.500000 0.398688 0.272718
O O14 0.605914 0.500000 0.225271
O O15 0.592508 0.775243 0.499587
O O16 0.000000 0.183269 0.928127
O O17 0.882628 0.117373 0.000000
#
# Coordination Sequence:
#
# PCOD9559265 Si02
#       8
#    16   8  16   4  16  16  16  16
#     4  11  22  40  69  92 128 173 216 265 335 390
#     4  11  24  42  64 104 146 179 214 266 334 413
#     4  12  24  43  65  95 134 173 222 271 326 390
#     4  12  24  40  68  96 137 169 216 272 320 390
#     4  12  23  43  70  94 130 179 223 272 330 394
#     4  11  25  44  67  97 129 170 223 276 331 391
#     4  11  22  41  61  95 129 175 211 262 325 388
#     4  10  20  35  59  91 131 171 214 257 313 390
#
# _framework density 19.693818
#
# number of rings (size 3 to 8) (size 9 to 14) (size 15 to 20)
#    0.000    0.815    5.926    2.222    1.037    2.074 
#    2.667    0.000    0.000    0.000    0.000    1.037 
#    0.000    0.000    0.000    0.000    0.000    0.000 
#
# Total GULP energy -300999.359290 kJ/mol
# GULP energy per Si atom -5574.062209 kJ/mol
# Density = 1.964899 g / cm^3
# Si number density = 19.693818 Si / 1000 Ang^3
#
#
#
# Elastic Constant Matrix: (Units=GPa)
#
#
# Indices 1 2 3 4 5 6 
#
# 1 102.1229 33.1240 15.7297 0.0000 0.0000 0.0000
# 2 33.1240 102.1283 15.7306 0.0000 0.0000 0.0000
# 3 15.7297 15.7306 48.0034 0.0000 0.0000 0.0000
# 4 0.0000 0.0000 0.0000 3.4075 0.0000 0.0000
# 5 0.0000 0.0000 0.0000 0.0000 3.4075 0.0000
# 6 0.0000 0.0000 0.0000 0.0000 0.0000 28.3046
#
#
#
# Elastic Compliance Matrix: (Units=1/GPa)
#
#
# Indices 1 2 3 4 5 6 
#
# 1 0.011248 -0.003244 -0.002623 0.000000 0.000000 0.000000
# 2 -0.003244 0.011248 -0.002623 0.000000 0.000000 0.000000
# 3 -0.002623 -0.002623 0.022551 0.000000 0.000000 0.000000
# 4 0.000000 0.000000 0.000000 0.293467 0.000000 0.000000
# 5 0.000000 0.000000 0.000000 0.000000 0.293475 0.000000
# 6 0.000000 0.000000 0.000000 0.000000 0.000000 0.035330
#
#
# Mechanical properties :
#
#
# Convention : Reuss Voigt Hill
#
# Bulk Modulus (GPa) = 35.62858 42.38036 39.00447
# Shear Modulus (GPa) = 7.20820 19.53526 13.37173
#
# Velocity S-wave (km/s) = 1.91522 3.15294 2.60855
# Velocity P-wave (km/s) = 4.79805 5.90094 5.37784
#
# Compressibility (1/GPa) = 0.02806735
#
# Stress axis : x y z
#
# Youngs Moduli (GPa) = 88.90161 88.90602 44.34436
#
# Poissons Ratio (x) = 0.28844 0.11630
# Poissons Ratio (y) = 0.28842 0.11631
# Poissons Ratio (z) = 0.23316 0.23318
#
# Static dielectric constant tensor:
#      x y z
#    x 1.691000 0.000000 0.000000 
#    y 0.000000 1.691000 0.000000 
#    z 0.000000 0.000000 1.706740 
# 
# From -- ./inp_files/8886.got.cif
#   From: 2010.05.17/outbox.cif.g08.bks.cpg/sg119_5_cif.got.tgz:8886.got - 2010.05.20 11:21:29.
