data_PCOD9559733
_publ_section_title
;
Structure prediction by ZEFSAII (Michael W. Deem and Ramdas Pophale) SiO2 
 PCOD9559733
Probable space group: I -4 C 2
;
_chemical_formula_sum "Si O2"
_cell_formula_units_Z 68
_cell_length_a 16.034201
_cell_length_b 16.034201
_cell_length_c 14.257637
_cell_angle_alpha 90.000000
_cell_angle_beta 90.000000
_cell_angle_gamma 90.000000
_cell_volume 3665.575763
_symmetry_space_group_name_H-M "I -4 C 2"
_symmetry_group_IT_number 120
_symmetry_cell_setting 'tetragonal'
loop_
_space_group_symop_operation_xyz
x,y,z
y,-x,-z
-x,-y,z
-y,x,-z
y,x,1/2-z
-y,-x,1/2-z
-x,y,1/2+z
x,-y,1/2+z
1/2+x,1/2+y,1/2+z
1/2+y,1/2-x,1/2-z
1/2-x,1/2-y,1/2+z
1/2-y,1/2+x,1/2-z
1/2+y,1/2+x,-z
1/2-y,1/2-x,-z
1/2-x,1/2+y,z
1/2+x,1/2-y,z
loop_
_atom_site_type_symbol
_atom_site_label
_atom_site_fract_x
_atom_site_fract_y
_atom_site_fract_z
Si Si1 0.900641 0.703813 0.425380
Si Si2 0.410274 0.203128 0.434754
Si Si3 0.500000 0.500000 0.500000
Si Si4 0.845363 0.711994 0.219517
Si Si5 0.604250 0.651024 0.568275
O O1 0.838643 0.661358 0.500000
O O2 0.887536 0.684219 0.315868
O O3 0.888060 0.803582 0.429400
O O4 0.994529 0.678994 0.447994
O O5 0.351900 0.148101 0.500000
O O6 0.369407 0.185778 0.334955
O O7 0.402875 0.297253 0.471797
O O8 0.537014 0.576499 0.562670
O O9 0.765266 0.765266 0.250000
O O10 0.896793 0.778375 0.152332
#
# Coordination Sequence:
#
# PCOD9559733 Si02
#       5
#    16  16   4  16  16
#     4  11  22  39  63  86 118 164 208 251 302 362
#     4  10  21  39  60  87 120 160 201 253 305 362
#     4  12  20  36  70 100 124 154 192 252 318 368
#     4   9  20  39  59  86 123 162 203 244 307 374
#     4  10  20  39  62  91 126 155 194 248 313 374
#
# _framework density 18.550972999999999
#
# number of rings (size 3 to 8) (size 9 to 14) (size 15 to 20)
#    0.000    1.882    2.353    3.529    0.000    4.235 
#    4.235    5.294    0.000    0.000    0.000    0.000 
#    0.000    0.000    0.000    0.000    0.000    0.000 
#
# Total GULP energy -189316.922609 kJ/mol
# GULP energy per Si atom -5568.144783 kJ/mol
# Density = 1.850875 g / cm^3
# Si number density = 18.550973 Si / 1000 Ang^3
#
#
#
# Elastic Constant Matrix: (Units=GPa)
#
#
# Indices 1 2 3 4 5 6 
#
# 1 68.6492 23.1272 24.8878 0.0000 0.0000 0.0000
# 2 23.1272 68.6410 24.8845 0.0000 0.0000 0.0000
# 3 24.8878 24.8845 63.4869 0.0000 0.0000 0.0000
# 4 0.0000 0.0000 0.0000 7.1604 0.0000 0.0000
# 5 0.0000 0.0000 0.0000 0.0000 7.1606 0.0000
# 6 0.0000 0.0000 0.0000 0.0000 0.0000 28.7831
#
#
#
# Elastic Compliance Matrix: (Units=1/GPa)
#
#
# Indices 1 2 3 4 5 6 
#
# 1 0.017903 -0.004065 -0.005425 0.000000 0.000000 0.000000
# 2 -0.004065 0.017905 -0.005424 0.000000 0.000000 0.000000
# 3 -0.005425 -0.005424 0.020004 0.000000 0.000000 0.000000
# 4 0.000000 0.000000 0.000000 0.139657 0.000000 0.000000
# 5 0.000000 0.000000 0.000000 0.000000 0.139654 0.000000
# 6 0.000000 0.000000 0.000000 0.000000 0.000000 0.034743
#
#
# Mechanical properties :
#
#
# Convention : Reuss Voigt Hill
#
# Bulk Modulus (GPa) = 38.48689 38.50843 38.49766
# Shear Modulus (GPa) = 12.24425 17.14598 14.69511
#
# Velocity S-wave (km/s) = 2.57190 3.04347 2.81757
# Velocity P-wave (km/s) = 5.44161 5.75791 5.60199
#
# Compressibility (1/GPa) = 0.02598288
#
# Stress axis : x y z
#
# Youngs Moduli (GPa) = 55.85628 55.85100 49.99001
#
# Poissons Ratio (x) = 0.22706 0.27118
# Poissons Ratio (y) = 0.22708 0.27116
# Poissons Ratio (z) = 0.30301 0.30295
#
# Static dielectric constant tensor:
#      x y z
#    x 1.643010 0.000000 0.000000 
#    y 0.000000 1.643010 0.000000 
#    z 0.000000 0.000000 1.728070 
# 
# From -- ./inp_files/3387.got.cif
#   From: 2010.05.17/outbox.cif.g08.bks.cpg/sg120_2_cif.got.tgz:3387.got - 2010.05.20 11:28:13.
