data_PCOD9559578
_publ_section_title
;
Structure prediction by ZEFSAII (Michael W. Deem and Ramdas Pophale) SiO2 
 PCOD9559578
Probable space group: I -4 C 2
;
_chemical_formula_sum "Si O2"
_cell_formula_units_Z 96
_cell_length_a 33.640283
_cell_length_b 33.640283
_cell_length_c 4.995562
_cell_angle_alpha 90.000000
_cell_angle_beta 90.000000
_cell_angle_gamma 90.000000
_cell_volume 5653.320856
_symmetry_space_group_name_H-M "I -4 C 2"
_symmetry_group_IT_number 120
_symmetry_cell_setting 'tetragonal'
loop_
_space_group_symop_operation_xyz
x,y,z
y,-x,-z
-x,-y,z
-y,x,-z
y,x,1/2-z
-y,-x,1/2-z
-x,y,1/2+z
x,-y,1/2+z
1/2+x,1/2+y,1/2+z
1/2+y,1/2-x,1/2-z
1/2-x,1/2-y,1/2+z
1/2-y,1/2+x,1/2-z
1/2+y,1/2+x,-z
1/2-y,1/2-x,-z
1/2-x,1/2+y,z
1/2+x,1/2-y,z
loop_
_atom_site_type_symbol
_atom_site_label
_atom_site_fract_x
_atom_site_fract_y
_atom_site_fract_z
Si Si1 0.855062 0.355062 0.000000
Si Si2 0.239014 0.474004 0.970018
Si Si3 0.331566 0.668435 0.250000
Si Si4 0.852990 0.268664 0.251278
Si Si5 0.107189 0.770257 0.750351
Si Si6 0.289929 0.289929 0.250000
Si Si7 0.106925 0.606925 0.500000
Si Si8 0.645028 0.025749 0.956357
O O1 0.857948 0.312746 0.145308
O O2 0.865184 0.384117 0.244411
O O3 0.246378 0.511149 0.770653
O O4 0.263506 0.437258 0.851236
O O5 0.191971 0.463180 0.967879
O O6 0.376415 0.684470 0.230019
O O7 0.311094 0.689796 0.499531
O O8 0.867375 0.258270 0.549655
O O9 0.806642 0.254638 0.240038
O O10 0.881305 0.243496 0.049535
O O11 0.061468 0.617627 0.443379
O O12 0.638388 0.988641 0.154518
#
# Coordination Sequence:
#
# PCOD9559578 Si02
#       8
#     8  16   8  16  16   8   8  16
#     4  12  22  32  49  76  98 123 154 188 239 278
#     4  10  19  30  47  71  96 123 152 188 237 287
#     4   8  16  28  47  64  82 120 164 199 226 260
#     4  10  19  31  46  64  91 123 158 197 229 266
#     4  10  18  32  48  65  92 124 162 199 231 271
#     4   8  16  30  43  60  84 120 160 192 226 257
#     4  12  24  38  57  77  98 120 150 190 237 298
#     4  10  21  37  55  75  98 123 150 184 234 292
#
# _framework density 16.981171
#
# number of rings (size 3 to 8) (size 9 to 14) (size 15 to 20)
#    0.000    2.000    0.000    5.000    0.000    2.667 
#    0.000    5.833    0.000    1.500    0.000    0.000 
#    0.000    0.000    0.000    0.000    0.000    2.500 
#
# Total GULP energy -267484.201127 kJ/mol
# GULP energy per Si atom -5572.587523 kJ/mol
# Density = 1.694252 g / cm^3
# Si number density = 16.981171 Si / 1000 Ang^3
#
#
#
# Elastic Constant Matrix: (Units=GPa)
#
#
# Indices 1 2 3 4 5 6 
#
# 1 55.0712 29.8581 -5.0337 0.0000 0.0000 0.0000
# 2 29.8581 55.0704 -5.0336 0.0000 0.0000 0.0000
# 3 -5.0337 -5.0336 81.6839 0.0000 0.0000 0.0000
# 4 0.0000 0.0000 0.0000 19.8857 0.0000 0.0000
# 5 0.0000 0.0000 0.0000 0.0000 19.8860 0.0000
# 6 0.0000 0.0000 0.0000 0.0000 0.0000 22.0005
#
#
#
# Elastic Compliance Matrix: (Units=1/GPa)
#
#
# Indices 1 2 3 4 5 6 
#
# 1 0.025762 -0.013901 0.000731 0.000000 0.000000 0.000000
# 2 -0.013901 0.025762 0.000731 0.000000 0.000000 0.000000
# 3 0.000731 0.000731 0.012332 0.000000 0.000000 0.000000
# 4 0.000000 0.000000 0.000000 0.050287 0.000000 0.000000
# 5 0.000000 0.000000 0.000000 0.000000 0.050287 0.000000
# 6 0.000000 0.000000 0.000000 0.000000 0.000000 0.045453
#
#
# Mechanical properties :
#
#
# Convention : Reuss Voigt Hill
#
# Bulk Modulus (GPa) = 25.65518 25.71192 25.68355
# Shear Modulus (GPa) = 20.18130 23.82343 22.00237
#
# Velocity S-wave (km/s) = 3.45113 3.74964 3.60348
# Velocity P-wave (km/s) = 5.56967 5.82415 5.69833
#
# Compressibility (1/GPa) = 0.03897848
#
# Stress axis : x y z
#
# Youngs Moduli (GPa) = 38.81729 38.81674 81.08728
#
# Poissons Ratio (x) = 0.53958 -0.05927
# Poissons Ratio (y) = 0.53959 -0.05927
# Poissons Ratio (z) = -0.02837 -0.02837
#
# Static dielectric constant tensor:
#      x y z
#    x 1.613500 0.000000 0.000000 
#    y 0.000000 1.613500 0.000000 
#    z 0.000000 0.000000 1.585300 
# 
# From -- ./inp_files/528.got.cif
#   From: 2010.05.17/outbox.cif.g08.bks.cpg/sg120_1_cif.got.tgz:528.got - 2010.05.20 11:28:13.
