data_PCOD9559533
_publ_section_title
;
Structure prediction by ZEFSAII (Michael W. Deem and Ramdas Pophale) SiO2 
 PCOD9559533
Probable space group: I -4 M 2
;
_chemical_formula_sum "Si O2"
_cell_formula_units_Z 42
_cell_length_a 7.529097
_cell_length_b 7.529097
_cell_length_c 34.766220
_cell_angle_alpha 90.000000
_cell_angle_beta 90.000000
_cell_angle_gamma 90.000000
_cell_volume 1970.803200
_symmetry_space_group_name_H-M "I -4 M 2"
_symmetry_group_IT_number 119
_symmetry_cell_setting 'tetragonal'
loop_
_space_group_symop_operation_xyz
x,y,z
y,-x,-z
-x,-y,z
-y,x,-z
y,x,-z
-y,-x,-z
-x,y,z
x,-y,z
1/2+x,1/2+y,1/2+z
1/2+y,1/2-x,1/2-z
1/2-x,1/2-y,1/2+z
1/2-y,1/2+x,1/2-z
1/2+y,1/2+x,1/2-z
1/2-y,1/2-x,1/2-z
1/2-x,1/2+y,1/2+z
1/2+x,1/2-y,1/2+z
loop_
_atom_site_type_symbol
_atom_site_label
_atom_site_fract_x
_atom_site_fract_y
_atom_site_fract_z
Si Si1 0.500000 0.500000 0.500000
Si Si2 0.000000 0.695899 0.062772
Si Si3 0.783495 0.290728 0.708738
Si Si4 0.793804 0.715827 0.624682
O O1 0.500000 0.334046 0.528465
O O2 0.168866 0.721928 0.090642
O O3 0.000000 0.500000 0.046415
O O4 0.737535 0.500000 0.708690
O O5 0.719404 0.219404 0.750000
O O6 0.730305 0.220015 0.666993
O O7 0.000000 0.280563 0.709023
O O8 0.787675 0.500000 0.625432
O O9 0.000000 0.766820 0.619611
#
# Coordination Sequence:
#
# PCOD9559533 Si02
#       4
#     2   8  16  16
#     4  12  28  52  68  96 124 156 212 276 328 396
#     4  12  26  44  70  96 124 162 204 264 328 394
#     4   7  10  19  43  82 121 161 211 255 292 348
#     4   9  17  34  63  94 127 169 212 255 312 372
#
# _framework density 21.311108000000001
#
# number of rings (size 3 to 8) (size 9 to 14) (size 15 to 20)
#    0.000    3.048    1.905    3.429    0.000    2.286 
#    0.000    0.000    4.190    0.000    0.000    0.000 
#    0.000    0.000    0.000    0.000    0.000    0.000 
#
# Total GULP energy -117168.787058 kJ/mol
# GULP energy per Si atom -5579.466050 kJ/mol
# Density = 2.126260 g / cm^3
# Si number density = 21.311108 Si / 1000 Ang^3
#
#
#
# Elastic Constant Matrix: (Units=GPa)
#
#
# Indices 1 2 3 4 5 6 
#
# 1 95.3330 23.8967 65.3678 0.0000 0.0000 0.0000
# 2 23.8967 95.3330 65.3678 0.0001 0.0000 0.0000
# 3 65.3678 65.3678 204.6658 0.0000 0.0000 0.0000
# 4 0.0000 0.0001 0.0000 -266.9949 0.0000 0.0000
# 5 0.0000 0.0000 0.0000 0.0000 -266.9949 0.0000
# 6 0.0000 0.0000 0.0000 0.0000 0.0000 6.3685
#
#
#
# Elastic Compliance Matrix: (Units=1/GPa)
#
#
# Indices 1 2 3 4 5 6 
#
# 1 0.013453 -0.000545 -0.004123 0.000000 0.000000 0.000000
# 2 -0.000545 0.013453 -0.004123 0.000000 0.000000 0.000000
# 3 -0.004123 -0.004123 0.007519 0.000000 0.000000 0.000000
# 4 0.000000 0.000000 0.000000 -0.003745 0.000000 0.000000
# 5 0.000000 0.000000 0.000000 0.000000 -0.003745 0.000000
# 6 0.000000 0.000000 0.000000 0.000000 0.000000 0.157022
#
#
# Mechanical properties :
#
#
# Convention : Reuss Voigt Hill
#
# Bulk Modulus (GPa) = 59.36704 78.28852 68.82778
# Shear Modulus (GPa) = 24.13684 -89.47763 -32.67039
#
# Velocity S-wave (km/s) = 3.36905 -6.48672 -3.91963
# Velocity P-wave (km/s) = 6.56139 4.39177 3.44704
#
# Compressibility (1/GPa) = 0.01684436
#
# Stress axis : x y z
#
# Youngs Moduli (GPa) = 74.33289 74.33289 132.98979
#
# Poissons Ratio (x) = 0.04055 0.54825
# Poissons Ratio (y) = 0.04055 0.54825
# Poissons Ratio (z) = 0.30644 0.30644
#
# Static dielectric constant tensor:
#      x y z
#    x 1.821150 0.000000 0.000000 
#    y 0.000000 1.821150 0.000000 
#    z 0.000000 0.000000 1.757710 
# 
# From -- ./inp_files/9789.got.cif
#   From: 2010.05.17/outbox.cif.g08.bks.cpg/sg119_5_cif.got.tgz:9789.got - 2010.05.20 11:21:29.
