data_PCOD9559030
_publ_section_title
;
Structure prediction by ZEFSAII (Michael W. Deem and Ramdas Pophale) SiO2 
 PCOD9559030
Probable space group: I -4 M 2
;
_chemical_formula_sum "Si O2"
_cell_formula_units_Z 56
_cell_length_a 13.625480
_cell_length_b 13.625480
_cell_length_c 16.802116
_cell_angle_alpha 90.000000
_cell_angle_beta 90.000000
_cell_angle_gamma 90.000000
_cell_volume 3119.375091
_symmetry_space_group_name_H-M "I -4 M 2"
_symmetry_group_IT_number 119
_symmetry_cell_setting 'tetragonal'
loop_
_space_group_symop_operation_xyz
x,y,z
y,-x,-z
-x,-y,z
-y,x,-z
y,x,-z
-y,-x,-z
-x,y,z
x,-y,z
1/2+x,1/2+y,1/2+z
1/2+y,1/2-x,1/2-z
1/2-x,1/2-y,1/2+z
1/2-y,1/2+x,1/2-z
1/2+y,1/2+x,1/2-z
1/2-y,1/2-x,1/2-z
1/2-x,1/2+y,1/2+z
1/2+x,1/2-y,1/2+z
loop_
_atom_site_type_symbol
_atom_site_label
_atom_site_fract_x
_atom_site_fract_y
_atom_site_fract_z
Si Si1 0.827486 0.611374 0.028583
Si Si2 0.290935 0.385153 0.575747
Si Si3 0.774288 0.386969 0.319236
Si Si4 0.391321 0.391321 0.000000
O O1 0.855145 0.500000 0.010812
O O2 0.883876 0.654288 0.103913
O O3 0.710423 0.612855 0.048355
O O4 0.847620 0.684883 0.955432
O O5 0.360962 0.360962 0.500000
O O6 0.287801 0.500000 0.591039
O O7 0.322930 0.332372 0.350923
O O8 0.755432 0.500000 0.297086
O O9 0.827616 0.327616 0.250000
O O10 0.387681 0.500000 0.960063
#
# Coordination Sequence:
#
# PCOD9559030 Si02
#       4
#    16  16  16   8
#     4  10  18  33  57  84 113 143 182 226 270 318
#     4  10  20  36  57  83 110 140 184 229 270 317
#     4  11  23  38  54  79 112 144 180 222 273 328
#     4   9  16  28  50  80 113 144 176 218 265 312
#
# _framework density 17.952313
#
# number of rings (size 3 to 8) (size 9 to 14) (size 15 to 20)
#    0.000    1.857    4.286    4.286    0.000    5.714 
#    0.000    2.857    0.000    3.429    0.000    0.000 
#    0.000    0.000    0.000    0.000    0.000    0.000 
#
# Total GULP energy -155936.326112 kJ/mol
# GULP energy per Si atom -5569.154504 kJ/mol
# Density = 1.791145 g / cm^3
# Si number density = 17.952313 Si / 1000 Ang^3
#
#
#
# Elastic Constant Matrix: (Units=GPa)
#
#
# Indices 1 2 3 4 5 6 
#
# 1 159.7114 51.4639 39.5322 0.0000 0.0000 0.0000
# 2 51.4639 159.7114 39.5322 0.0000 0.0000 0.0000
# 3 39.5322 39.5322 50.2309 0.0000 0.0000 0.0000
# 4 0.0000 0.0000 0.0000 12.5048 0.0000 0.0000
# 5 0.0000 0.0000 0.0000 0.0000 12.5048 0.0000
# 6 0.0000 0.0000 0.0000 0.0000 0.0000 15.2999
#
#
#
# Elastic Compliance Matrix: (Units=1/GPa)
#
#
# Indices 1 2 3 4 5 6 
#
# 1 0.007976 -0.001262 -0.005284 0.000000 0.000000 0.000000
# 2 -0.001262 0.007976 -0.005284 0.000000 0.000000 0.000000
# 3 -0.005284 -0.005284 0.028225 0.000000 0.000000 0.000000
# 4 0.000000 0.000000 0.000000 0.079969 0.000000 0.000000
# 5 0.000000 0.000000 0.000000 0.000000 0.079969 0.000000
# 6 0.000000 0.000000 0.000000 0.000000 0.000000 0.065360
#
#
# Mechanical properties :
#
#
# Convention : Reuss Voigt Hill
#
# Bulk Modulus (GPa) = 48.73965 70.07893 59.40929
# Shear Modulus (GPa) = 16.66819 24.00361 20.33590
#
# Velocity S-wave (km/s) = 3.05039 3.66057 3.36932
# Velocity P-wave (km/s) = 6.29404 7.54899 6.94990
#
# Compressibility (1/GPa) = 0.02051718
#
# Stress axis : x y z
#
# Youngs Moduli (GPa) = 125.37841 125.37841 35.43003
#
# Poissons Ratio (x) = 0.15826 0.18720
# Poissons Ratio (y) = 0.15826 0.18720
# Poissons Ratio (z) = 0.66246 0.66246
#
# Static dielectric constant tensor:
#      x y z
#    x 1.642930 0.000000 0.000000 
#    y 0.000000 1.642930 0.000000 
#    z 0.000000 0.000000 1.582910 
# 
# From -- ./inp_files/4963.got.cif
#   From: 2010.05.17/outbox.cif.g08.bks.cpg/sg119_3_cif.got.tgz:4963.got - 2010.05.20 11:21:29.
