data_PCOD9559071
_publ_section_title
;
Structure prediction by ZEFSAII (Michael W. Deem and Ramdas Pophale) SiO2 
 PCOD9559071
Probable space group: I -4 M 2
;
_chemical_formula_sum "Si O2"
_cell_formula_units_Z 72
_cell_length_a 14.754031
_cell_length_b 14.754031
_cell_length_c 17.489677
_cell_angle_alpha 90.000000
_cell_angle_beta 90.000000
_cell_angle_gamma 90.000000
_cell_volume 3807.177913
_symmetry_space_group_name_H-M "I -4 M 2"
_symmetry_group_IT_number 119
_symmetry_cell_setting 'tetragonal'
loop_
_space_group_symop_operation_xyz
x,y,z
y,-x,-z
-x,-y,z
-y,x,-z
y,x,-z
-y,-x,-z
-x,y,z
x,-y,z
1/2+x,1/2+y,1/2+z
1/2+y,1/2-x,1/2-z
1/2-x,1/2-y,1/2+z
1/2-y,1/2+x,1/2-z
1/2+y,1/2+x,1/2-z
1/2-y,1/2-x,1/2-z
1/2-x,1/2+y,1/2+z
1/2+x,1/2-y,1/2+z
loop_
_atom_site_type_symbol
_atom_site_label
_atom_site_fract_x
_atom_site_fract_y
_atom_site_fract_z
Si Si1 0.780986 0.107835 0.939147
Si Si2 0.110062 0.098755 0.377542
Si Si3 0.396733 0.896733 0.750000
Si Si4 0.894572 0.297041 0.409121
Si Si5 0.109724 0.100684 0.200899
O O1 0.678624 0.140865 0.950159
O O2 0.819553 0.137538 0.855759
O O3 0.786470 0.000000 0.943455
O O4 0.846238 0.153763 0.000000
O O5 0.134291 0.192450 0.417068
O O6 0.139620 0.106421 0.288827
O O7 0.000000 0.097383 0.377674
O O8 0.139744 0.000000 0.408227
O O9 0.500000 0.887945 0.718544
O O10 0.326916 0.889524 0.680566
O O11 0.000000 0.308494 0.431335
O O12 0.000000 0.103242 0.203405
O O13 0.135204 0.000000 0.171491
#
# Coordination Sequence:
#
# PCOD9559071 Si02
#       5
#    16  16   8  16  16
#     4  11  22  34  48  67  92 125 165 203 240 286
#     4   8  14  26  46  71  96 121 149 184 230 282
#     4   9  16  26  44  72 102 128 152 185 240 306
#     4  10  19  31  48  71  99 128 158 195 242 296
#     4   8  14  26  45  69  96 123 150 185 231 279
#
# _framework density 18.911646999999999
#
# number of rings (size 3 to 8) (size 9 to 14) (size 15 to 20)
#    0.000    2.778    0.000    4.000    0.000    6.000 
#    0.000    1.111    0.000    0.000    0.000    0.000 
#    0.000    0.000    0.000    6.000    0.000    0.444 
#
# Total GULP energy -200708.704617 kJ/mol
# GULP energy per Si atom -5575.241795 kJ/mol
# Density = 1.886860 g / cm^3
# Si number density = 18.911647 Si / 1000 Ang^3
#
#
#
# Elastic Constant Matrix: (Units=GPa)
#
#
# Indices 1 2 3 4 5 6 
#
# 1 97.7137 38.9579 22.6824 0.0000 0.0000 0.0000
# 2 38.9579 97.7146 22.6826 0.0000 0.0000 0.0000
# 3 22.6824 22.6826 34.9547 0.0000 0.0000 0.0000
# 4 0.0000 0.0000 0.0000 17.3565 0.0000 0.0000
# 5 0.0000 0.0000 0.0000 0.0000 17.3567 0.0000
# 6 0.0000 0.0000 0.0000 0.0000 0.0000 20.0817
#
#
#
# Elastic Compliance Matrix: (Units=1/GPa)
#
#
# Indices 1 2 3 4 5 6 
#
# 1 0.013172 -0.003847 -0.006051 0.000000 0.000000 0.000000
# 2 -0.003847 0.013172 -0.006051 0.000000 0.000000 0.000000
# 3 -0.006051 -0.006051 0.036462 0.000000 0.000000 0.000000
# 4 0.000000 0.000000 0.000000 0.057615 0.000000 0.000000
# 5 0.000000 0.000000 0.000000 0.000000 0.057615 0.000000
# 6 0.000000 0.000000 0.000000 0.000000 0.000000 0.049797
#
#
# Mechanical properties :
#
#
# Convention : Reuss Voigt Hill
#
# Bulk Modulus (GPa) = 32.35471 44.33654 38.34562
# Shear Modulus (GPa) = 18.51610 20.69633 19.60621
#
# Velocity S-wave (km/s) = 3.13243 3.31171 3.22332
# Velocity P-wave (km/s) = 5.49803 6.17399 5.84579
#
# Compressibility (1/GPa) = 0.03090740
#
# Stress axis : x y z
#
# Youngs Moduli (GPa) = 75.91591 75.91648 27.42581
#
# Poissons Ratio (x) = 0.29205 0.16596
# Poissons Ratio (y) = 0.29205 0.16596
# Poissons Ratio (z) = 0.45939 0.45940
#
# Static dielectric constant tensor:
#      x y z
#    x 1.681030 0.000000 0.000000 
#    y 0.000000 1.681030 0.000000 
#    z 0.000000 0.000000 1.689130 
# 
# From -- ./inp_files/6380.got.cif
#   From: 2010.05.17/outbox.cif.g08.bks.cpg/sg119_4_cif.got.tgz:6380.got - 2010.05.20 11:21:29.
