data_PCOD9559750
_publ_section_title
;
Structure prediction by ZEFSAII (Michael W. Deem and Ramdas Pophale) SiO2 
 PCOD9559750
Probable space group: I -4 C 2
;
_chemical_formula_sum "Si O2"
_cell_formula_units_Z 60
_cell_length_a 15.172133
_cell_length_b 15.172133
_cell_length_c 14.524146
_cell_angle_alpha 90.000000
_cell_angle_beta 90.000000
_cell_angle_gamma 90.000000
_cell_volume 3343.365742
_symmetry_space_group_name_H-M "I -4 C 2"
_symmetry_group_IT_number 120
_symmetry_cell_setting 'tetragonal'
loop_
_space_group_symop_operation_xyz
x,y,z
y,-x,-z
-x,-y,z
-y,x,-z
y,x,1/2-z
-y,-x,1/2-z
-x,y,1/2+z
x,-y,1/2+z
1/2+x,1/2+y,1/2+z
1/2+y,1/2-x,1/2-z
1/2-x,1/2-y,1/2+z
1/2-y,1/2+x,1/2-z
1/2+y,1/2+x,-z
1/2-y,1/2-x,-z
1/2-x,1/2+y,z
1/2+x,1/2-y,z
loop_
_atom_site_type_symbol
_atom_site_label
_atom_site_fract_x
_atom_site_fract_y
_atom_site_fract_z
Si Si1 0.724794 0.724794 0.250000
Si Si2 0.792651 0.845586 0.546480
Si Si3 0.366758 0.878903 0.650142
Si Si4 0.540184 0.245042 0.515331
Si Si5 0.500000 0.000000 0.250000
O O1 0.712813 0.665451 0.157618
O O2 0.822408 0.698970 0.285649
O O3 0.730801 0.769200 0.500000
O O4 0.894529 0.828090 0.521681
O O5 0.763244 0.939113 0.506494
O O6 0.438591 0.810874 0.607438
O O7 0.311838 0.920189 0.567605
O O8 0.419776 0.957978 0.694746
#
# Coordination Sequence:
#
# PCOD9559750 Si02
#       5
#     8  16  16  16   4
#     4  10  20  42  62  87 129 164 202 246 322 384
#     4  11  22  42  64  89 124 168 203 261 310 375
#     4  10  22  37  56  94 122 162 208 254 318 382
#     4  10  22  40  61  85 123 166 208 249 320 375
#     4  12  24  30  56 100 124 154 216 280 302 368
#
# _framework density 17.945986999999999
#
# number of rings (size 3 to 8) (size 9 to 14) (size 15 to 20)
#    0.000    1.600    5.333    1.600    7.467    1.600 
#    0.000    0.000    0.000    6.400    0.000    0.000 
#    0.000    0.000    0.000    0.000    0.000    0.000 
#
# Total GULP energy -167129.863701 kJ/mol
# GULP energy per Si atom -5570.995457 kJ/mol
# Density = 1.790514 g / cm^3
# Si number density = 17.945987 Si / 1000 Ang^3
#
#
#
# Elastic Constant Matrix: (Units=GPa)
#
#
# Indices 1 2 3 4 5 6 
#
# 1 60.8739 3.9086 13.6811 0.0000 0.0000 0.0000
# 2 3.9086 60.8737 13.6803 0.0000 0.0000 0.0000
# 3 13.6811 13.6803 77.9870 0.0000 0.0000 0.0000
# 4 0.0000 0.0000 0.0000 17.2713 0.0000 0.0000
# 5 0.0000 0.0000 0.0000 0.0000 17.2715 0.0000
# 6 0.0000 0.0000 0.0000 0.0000 0.0000 23.7177
#
#
#
# Elastic Compliance Matrix: (Units=1/GPa)
#
#
# Indices 1 2 3 4 5 6 
#
# 1 0.017113 -0.000442 -0.002925 0.000000 0.000000 0.000000
# 2 -0.000442 0.017113 -0.002924 0.000000 0.000000 0.000000
# 3 -0.002925 -0.002924 0.013849 0.000000 0.000000 0.000000
# 4 0.000000 0.000000 0.000000 0.057899 0.000000 0.000000
# 5 0.000000 0.000000 0.000000 0.000000 0.057899 0.000000
# 6 0.000000 0.000000 0.000000 0.000000 0.000000 0.042163
#
#
# Mechanical properties :
#
#
# Convention : Reuss Voigt Hill
#
# Bulk Modulus (GPa) = 28.17417 29.14161 28.65789
# Shear Modulus (GPa) = 21.69685 22.88308 22.28997
#
# Velocity S-wave (km/s) = 3.48085 3.57474 3.52811
# Velocity P-wave (km/s) = 5.64700 5.77166 5.70967
#
# Compressibility (1/GPa) = 0.03549350
#
# Stress axis : x y z
#
# Youngs Moduli (GPa) = 58.43489 58.43495 72.20878
#
# Poissons Ratio (x) = 0.02580 0.21119
# Poissons Ratio (y) = 0.02580 0.21117
# Poissons Ratio (z) = 0.17090 0.17089
#
# Static dielectric constant tensor:
#      x y z
#    x 1.642020 0.000000 0.000000 
#    y 0.000000 1.642030 0.000000 
#    z 0.000000 0.000000 1.663420 
# 
# From -- ./inp_files/3349.got.cif
#   From: 2010.05.17/outbox.cif.g08.bks.cpg/sg120_2_cif.got.tgz:3349.got - 2010.05.20 11:28:13.
