data_PCOD9559300
_publ_section_title
;
Structure prediction by ZEFSAII (Michael W. Deem and Ramdas Pophale) SiO2 
 PCOD9559300
Probable space group: I -4 M 2
;
_chemical_formula_sum "Si O2"
_cell_formula_units_Z 68
_cell_length_a 17.590952
_cell_length_b 17.590952
_cell_length_c 13.030131
_cell_angle_alpha 90.000000
_cell_angle_beta 90.000000
_cell_angle_gamma 90.000000
_cell_volume 4032.064484
_symmetry_space_group_name_H-M "I -4 M 2"
_symmetry_group_IT_number 119
_symmetry_cell_setting 'tetragonal'
loop_
_space_group_symop_operation_xyz
x,y,z
y,-x,-z
-x,-y,z
-y,x,-z
y,x,-z
-y,-x,-z
-x,y,z
x,-y,z
1/2+x,1/2+y,1/2+z
1/2+y,1/2-x,1/2-z
1/2-x,1/2-y,1/2+z
1/2-y,1/2+x,1/2-z
1/2+y,1/2+x,1/2-z
1/2-y,1/2-x,1/2-z
1/2-x,1/2+y,1/2+z
1/2+x,1/2-y,1/2+z
loop_
_atom_site_type_symbol
_atom_site_label
_atom_site_fract_x
_atom_site_fract_y
_atom_site_fract_z
Si Si1 0.500000 0.000000 0.417148
Si Si2 0.914466 0.085535 0.500000
Si Si3 0.220308 0.279693 0.250000
Si Si4 0.369414 0.734862 0.116842
Si Si5 0.500000 0.834661 0.451156
Si Si6 0.840360 0.500000 0.794545
Si Si7 0.224247 0.658464 0.467527
O O1 0.500000 0.076825 0.484007
O O2 0.577194 0.000000 0.348612
O O3 0.904960 0.156119 0.577590
O O4 0.000000 0.091405 0.454902
O O5 0.302258 0.283831 0.195749
O O6 0.214185 0.337233 0.345015
O O7 0.427884 0.792008 0.169207
O O8 0.334306 0.782573 0.021742
O O9 0.500000 0.842668 0.327890
O O10 0.575631 0.792579 0.488648
O O11 0.305926 0.694075 0.500000
#
# Coordination Sequence:
#
# PCOD9559300 Si02
#       7
#     4   8   8  16   8   8  16
#     4  12  25  32  58 101 128 147 182 256 318 359
#     4  11  22  38  58  88 120 146 201 262 300 340
#     4  10  20  38  58  82 112 160 210 226 288 372
#     4  11  20  36  60  86 114 159 195 249 300 356
#     4  12  23  38  56  90 125 151 201 252 298 363
#     4  12  21  34  58  89 123 153 185 247 321 347
#     4  10  21  38  59  82 116 156 204 241 288 362
#
# _framework density 16.864809000000001
#
# number of rings (size 3 to 8) (size 9 to 14) (size 15 to 20)
#    0.000    1.059    7.059    3.882    0.000    0.000 
#    2.118    2.353    0.000    0.353    0.000    0.000 
#    0.000    0.000    0.000    0.000    0.000    0.000 
#
# Total GULP energy -189663.480691 kJ/mol
# GULP energy per Si atom -5578.337667 kJ/mol
# Density = 1.682642 g / cm^3
# Si number density = 16.864809 Si / 1000 Ang^3
#
#
#
# Elastic Constant Matrix: (Units=GPa)
#
#
# Indices 1 2 3 4 5 6 
#
# 1 124.3054 50.0874 30.6118 0.0000 0.0000 0.0000
# 2 50.0874 124.3043 30.6123 0.0000 0.0000 0.0000
# 3 30.6118 30.6123 90.1856 0.0000 0.0000 0.0000
# 4 0.0000 0.0000 0.0000 23.0273 0.0000 0.0000
# 5 0.0000 0.0000 0.0000 0.0000 23.0268 0.0000
# 6 0.0000 0.0000 0.0000 0.0000 0.0000 20.4655
#
#
#
# Elastic Compliance Matrix: (Units=1/GPa)
#
#
# Indices 1 2 3 4 5 6 
#
# 1 0.009992 -0.003482 -0.002210 0.000000 0.000000 0.000000
# 2 -0.003482 0.009992 -0.002210 0.000000 0.000000 0.000000
# 3 -0.002210 -0.002210 0.012588 0.000000 0.000000 0.000000
# 4 0.000000 0.000000 0.000000 0.043427 0.000000 0.000000
# 5 0.000000 0.000000 0.000000 0.000000 0.043428 0.000000
# 6 0.000000 0.000000 0.000000 0.000000 0.000000 0.048863
#
#
# Mechanical properties :
#
#
# Convention : Reuss Voigt Hill
#
# Bulk Modulus (GPa) = 59.63222 62.37981 61.00602
# Shear Modulus (GPa) = 26.35992 28.46951 27.41471
#
# Velocity S-wave (km/s) = 3.95779 4.11311 4.03619
# Velocity P-wave (km/s) = 7.50474 7.72174 7.61402
#
# Compressibility (1/GPa) = 0.01676946
#
# Stress axis : x y z
#
# Youngs Moduli (GPa) = 100.08126 100.07998 79.43864
#
# Poissons Ratio (x) = 0.34848 0.17553
# Poissons Ratio (y) = 0.34848 0.17554
# Poissons Ratio (z) = 0.22114 0.22115
#
# Static dielectric constant tensor:
#      x y z
#    x 1.584640 0.000000 0.000000 
#    y 0.000000 1.584640 0.000000 
#    z 0.000000 0.000000 1.567540 
# 
# From -- ./inp_files/3948.got.cif
#   From: 2010.05.17/outbox.cif.g08.bks.cpg/sg119_2_cif.got.tgz:3948.got - 2010.05.20 11:21:29.
