data_PCOD9559192
_publ_section_title
;
Structure prediction by ZEFSAII (Michael W. Deem and Ramdas Pophale) SiO2 
 PCOD9559192
Probable space group: I -4 M 2
;
_chemical_formula_sum "Si O2"
_cell_formula_units_Z 88
_cell_length_a 14.050232
_cell_length_b 14.050232
_cell_length_c 26.832099
_cell_angle_alpha 90.000000
_cell_angle_beta 90.000000
_cell_angle_gamma 90.000000
_cell_volume 5296.898348
_symmetry_space_group_name_H-M "I -4 M 2"
_symmetry_group_IT_number 119
_symmetry_cell_setting 'tetragonal'
loop_
_space_group_symop_operation_xyz
x,y,z
y,-x,-z
-x,-y,z
-y,x,-z
y,x,-z
-y,-x,-z
-x,y,z
x,-y,z
1/2+x,1/2+y,1/2+z
1/2+y,1/2-x,1/2-z
1/2-x,1/2-y,1/2+z
1/2-y,1/2+x,1/2-z
1/2+y,1/2+x,1/2-z
1/2-y,1/2-x,1/2-z
1/2-x,1/2+y,1/2+z
1/2+x,1/2-y,1/2+z
loop_
_atom_site_type_symbol
_atom_site_label
_atom_site_fract_x
_atom_site_fract_y
_atom_site_fract_z
Si Si1 0.113246 0.246304 0.531016
Si Si2 0.613628 0.891121 0.943917
Si Si3 0.887003 0.888836 0.297752
Si Si4 0.608030 0.297310 0.309356
Si Si5 0.604820 0.895180 0.250000
Si Si6 0.723190 0.254322 0.874985
O O1 0.157580 0.157580 0.500000
O O2 0.132193 0.338469 0.496512
O O3 0.169991 0.252738 0.582562
O O4 0.000000 0.235610 0.537923
O O5 0.500000 0.892040 0.937543
O O6 0.657854 0.824066 0.901699
O O7 0.648024 0.000000 0.942847
O O8 0.859610 0.871748 0.239971
O O9 0.831742 0.814988 0.332721
O O10 0.000000 0.879671 0.304940
O O11 0.860630 0.000000 0.308233
O O12 0.500000 0.318100 0.325765
O O13 0.611850 0.188566 0.289423
O O14 0.687569 0.300413 0.351114
O O15 0.500000 0.887463 0.226429
#
# Coordination Sequence:
#
# PCOD9559192 Si02
#       6
#    16  16  16  16   8  16
#     4   9  19  33  51  75 103 129 158 199 252 308
#     4   9  19  36  54  72  98 130 164 205 253 301
#     4  10  20  33  49  71 103 137 165 200 248 298
#     4  10  20  33  48  71 104 138 169 205 248 297
#     4   9  16  28  46  66  94 133 168 200 242 289
#     4  11  19  32  53  79  98 128 169 212 246 293
#
# _framework density 16.613496999999999
#
# number of rings (size 3 to 8) (size 9 to 14) (size 15 to 20)
#    0.000    2.273    1.818    1.091    0.000    3.091 
#    0.000    0.000    0.000    0.000    0.000    2.545 
#    0.000    0.000    0.000    0.000    0.000    0.000 
#
# Total GULP energy -245252.035624 kJ/mol
# GULP energy per Si atom -5573.909901 kJ/mol
# Density = 1.657568 g / cm^3
# Si number density = 16.613497 Si / 1000 Ang^3
#
#
#
# Elastic Constant Matrix: (Units=GPa)
#
#
# Indices 1 2 3 4 5 6 
#
# 1 81.8066 36.4237 44.7562 0.0000 0.0000 0.0000
# 2 36.4237 81.8068 44.7561 0.0000 0.0000 0.0000
# 3 44.7562 44.7561 85.1744 0.0000 0.0000 0.0000
# 4 0.0000 0.0000 0.0000 18.6683 0.0000 0.0000
# 5 0.0000 0.0000 0.0000 0.0000 18.6684 0.0000
# 6 0.0000 0.0000 0.0000 0.0000 0.0000 20.3064
#
#
#
# Elastic Compliance Matrix: (Units=1/GPa)
#
#
# Indices 1 2 3 4 5 6 
#
# 1 0.018040 -0.003994 -0.007381 0.000000 0.000000 0.000000
# 2 -0.003994 0.018040 -0.007381 0.000000 0.000000 0.000000
# 3 -0.007381 -0.007381 0.019497 0.000000 0.000000 0.000000
# 4 0.000000 0.000000 0.000000 0.053567 0.000000 0.000000
# 5 0.000000 0.000000 0.000000 0.000000 0.053566 0.000000
# 6 0.000000 0.000000 0.000000 0.000000 0.000000 0.049245
#
#
# Mechanical properties :
#
#
# Convention : Reuss Voigt Hill
#
# Bulk Modulus (GPa) = 55.35118 55.62886 55.49002
# Shear Modulus (GPa) = 19.57023 19.71874 19.64449
#
# Velocity S-wave (km/s) = 3.43588 3.44889 3.44240
# Velocity P-wave (km/s) = 7.00926 7.02970 7.01949
#
# Compressibility (1/GPa) = 0.01806646
#
# Stress axis : x y z
#
# Youngs Moduli (GPa) = 55.43120 55.43152 51.28950
#
# Poissons Ratio (x) = 0.22141 0.37855
# Poissons Ratio (y) = 0.22141 0.37855
# Poissons Ratio (z) = 0.40912 0.40912
#
# Static dielectric constant tensor:
#      x y z
#    x 1.565050 0.000000 0.000000 
#    y 0.000000 1.565050 0.000000 
#    z 0.000000 0.000000 1.548070 
# 
# From -- ./inp_files/8685.got.cif
#   From: 2010.05.17/outbox.cif.g08.bks.cpg/sg119_5_cif.got.tgz:8685.got - 2010.05.20 11:21:29.
