data_PCOD9559135
_publ_section_title
;
Structure prediction by ZEFSAII (Michael W. Deem and Ramdas Pophale) SiO2 
 PCOD9559135
Probable space group: I -4 M 2
;
_chemical_formula_sum "Si O2"
_cell_formula_units_Z 128
_cell_length_a 24.104114
_cell_length_b 24.104114
_cell_length_c 13.359727
_cell_angle_alpha 90.000000
_cell_angle_beta 90.000000
_cell_angle_gamma 90.000000
_cell_volume 7762.112429
_symmetry_space_group_name_H-M "I -4 M 2"
_symmetry_group_IT_number 119
_symmetry_cell_setting 'tetragonal'
loop_
_space_group_symop_operation_xyz
x,y,z
y,-x,-z
-x,-y,z
-y,x,-z
y,x,-z
-y,-x,-z
-x,y,z
x,-y,z
1/2+x,1/2+y,1/2+z
1/2+y,1/2-x,1/2-z
1/2-x,1/2-y,1/2+z
1/2-y,1/2+x,1/2-z
1/2+y,1/2+x,1/2-z
1/2-y,1/2-x,1/2-z
1/2-x,1/2+y,1/2+z
1/2+x,1/2-y,1/2+z
loop_
_atom_site_type_symbol
_atom_site_label
_atom_site_fract_x
_atom_site_fract_y
_atom_site_fract_z
Si Si1 0.208083 0.275971 0.082232
Si Si2 0.255091 0.361594 0.239536
Si Si3 0.383007 0.152297 0.008603
Si Si4 0.065669 0.156382 0.375741
Si Si5 0.434929 0.344705 0.109984
Si Si6 0.934467 0.366216 0.828873
Si Si7 0.565028 0.147544 0.795009
Si Si8 0.728629 0.933027 0.318308
O O1 0.246356 0.313042 0.156842
O O2 0.169576 0.238539 0.154723
O O3 0.242228 0.242228 0.000000
O O4 0.171343 0.322811 0.028421
O O5 0.301106 0.403268 0.197368
O O6 0.198508 0.397785 0.246388
O O7 0.377118 0.094809 0.066672
O O8 0.406135 0.196239 0.088893
O O9 0.423312 0.148781 0.913814
O O10 0.071886 0.173208 0.493202
O O11 0.099887 0.099302 0.369881
O O12 0.000000 0.152107 0.355467
O O13 0.500000 0.354387 0.125777
O O14 0.415792 0.292680 0.176737
O O15 0.910692 0.410692 0.750000
O O16 0.918896 0.306381 0.780736
O O17 0.000000 0.369630 0.835289
O O18 0.500000 0.153573 0.773862
O O19 0.591903 0.091903 0.750000
O O20 0.727152 0.000000 0.329797
#
# Coordination Sequence:
#
# PCOD9559135 Si02
#       8
#    16  16  16  16  16  16  16  16
#     4  10  21  35  52  78 107 132 168 219 267 314
#     4  10  20  38  53  77 106 142 175 211 269 323
#     4  10  19  34  51  75  99 135 173 212 271 313
#     4  10  20  31  50  78 106 144 181 209 256 321
#     4   9  18  31  49  77 110 140 173 216 257 305
#     4   9  19  34  51  73 102 135 175 217 265 320
#     4  11  21  37  55  73 101 138 181 226 264 309
#     4   9  17  31  50  73 100 134 174 210 253 318
#
# _framework density 16.490355999999998
#
# number of rings (size 3 to 8) (size 9 to 14) (size 15 to 20)
#    0.000    2.250    2.500    2.250    3.500    3.500 
#    4.500    1.250    0.000    0.000    0.000    0.875 
#    0.000    0.000    0.000    0.125    0.000    0.000 
#
# Total GULP energy -356789.142928 kJ/mol
# GULP energy per Si atom -5574.830358 kJ/mol
# Density = 1.645282 g / cm^3
# Si number density = 16.490356 Si / 1000 Ang^3
#
#
#
# Elastic Constant Matrix: (Units=GPa)
#
#
# Indices 1 2 3 4 5 6 
#
# 1 74.9204 34.3490 20.4400 0.0000 0.0000 0.0000
# 2 34.3490 74.9204 20.4400 0.0000 0.0000 0.0000
# 3 20.4400 20.4400 41.5356 0.0000 0.0000 0.0000
# 4 0.0000 0.0000 0.0000 21.8365 0.0000 0.0000
# 5 0.0000 0.0000 0.0000 0.0000 21.8365 0.0000
# 6 0.0000 0.0000 0.0000 0.0000 0.0000 22.5540
#
#
#
# Elastic Compliance Matrix: (Units=1/GPa)
#
#
# Indices 1 2 3 4 5 6 
#
# 1 0.017932 -0.006716 -0.005520 0.000000 0.000000 0.000000
# 2 -0.006716 0.017932 -0.005520 0.000000 0.000000 0.000000
# 3 -0.005520 -0.005520 0.029509 0.000000 0.000000 0.000000
# 4 0.000000 0.000000 0.000000 0.045795 0.000000 0.000000
# 5 0.000000 0.000000 0.000000 0.000000 0.045795 0.000000
# 6 0.000000 0.000000 0.000000 0.000000 0.000000 0.044338
#
#
# Mechanical properties :
#
#
# Convention : Reuss Voigt Hill
#
# Bulk Modulus (GPa) = 33.48672 37.98159 35.73415
# Shear Modulus (GPa) = 20.26213 20.98856 20.62534
#
# Velocity S-wave (km/s) = 3.50912 3.57147 3.54043
# Velocity P-wave (km/s) = 6.06379 6.33165 6.19917
#
# Compressibility (1/GPa) = 0.02986258
#
# Stress axis : x y z
#
# Youngs Moduli (GPa) = 55.76509 55.76509 33.88853
#
# Poissons Ratio (x) = 0.37449 0.18706
# Poissons Ratio (y) = 0.37449 0.18706
# Poissons Ratio (z) = 0.30782 0.30782
#
# Static dielectric constant tensor:
#      x y z
#    x 1.555780 0.000000 0.000000 
#    y 0.000000 1.555780 0.000000 
#    z 0.000000 0.000000 1.554330 
# 
# From -- ./inp_files/4464.got.cif
#   From: 2010.05.17/outbox.cif.g08.bks.cpg/sg119_3_cif.got.tgz:4464.got - 2010.05.20 11:21:29.
