data_PCOD9559042
_publ_section_title
;
Structure prediction by ZEFSAII (Michael W. Deem and Ramdas Pophale) SiO2 
 PCOD9559042
Probable space group: I -4 M 2
;
_chemical_formula_sum "Si O2"
_cell_formula_units_Z 80
_cell_length_a 16.939087
_cell_length_b 16.939087
_cell_length_c 15.182344
_cell_angle_alpha 90.000000
_cell_angle_beta 90.000000
_cell_angle_gamma 90.000000
_cell_volume 4356.310476
_symmetry_space_group_name_H-M "I -4 M 2"
_symmetry_group_IT_number 119
_symmetry_cell_setting 'tetragonal'
loop_
_space_group_symop_operation_xyz
x,y,z
y,-x,-z
-x,-y,z
-y,x,-z
y,x,-z
-y,-x,-z
-x,y,z
x,-y,z
1/2+x,1/2+y,1/2+z
1/2+y,1/2-x,1/2-z
1/2-x,1/2-y,1/2+z
1/2-y,1/2+x,1/2-z
1/2+y,1/2+x,1/2-z
1/2-y,1/2-x,1/2-z
1/2-x,1/2+y,1/2+z
1/2+x,1/2-y,1/2+z
loop_
_atom_site_type_symbol
_atom_site_label
_atom_site_fract_x
_atom_site_fract_y
_atom_site_fract_z
Si Si1 0.189441 0.825946 0.250436
Si Si2 0.161770 0.911749 0.578903
Si Si3 0.673906 0.192485 0.995358
Si Si4 0.673991 0.909311 0.169682
Si Si5 0.307254 0.092893 0.821384
O O1 0.257221 0.757221 0.250000
O O2 0.155283 0.846834 0.346166
O O3 0.235650 0.895872 0.202813
O O4 0.117491 0.782458 0.202449
O O5 0.100321 0.899680 0.500000
O O6 0.245961 0.893638 0.533180
O O7 0.158771 0.000000 0.615159
O O8 0.661237 0.148573 0.087158
O O9 0.753538 0.246463 0.000000
O O10 0.678292 0.129491 0.917127
O O11 0.618364 0.881637 0.250000
O O12 0.660411 0.000000 0.146692
O O13 0.363759 0.136242 0.750000
O O14 0.318900 0.000000 0.818258
#
# Coordination Sequence:
#
# PCOD9559042 Si02
#       5
#    16  16  16  16  16
#     4  10  18  37  60  83 110 151 194 237 285 341
#     4  11  22  36  58  86 117 153 195 243 291 346
#     4  11  20  38  62  85 113 153 200 239 286 348
#     4  11  23  39  60  86 116 154 200 245 287 340
#     4  11  21  36  59  90 121 149 184 234 294 353
#
# _framework density 18.364163999999999
#
# number of rings (size 3 to 8) (size 9 to 14) (size 15 to 20)
#    0.000    1.200    6.000    4.800    0.000    3.800 
#    0.000    0.000    0.000    5.400    0.000    1.400 
#    0.000    0.000    0.000    0.000    0.000    0.000 
#
# Total GULP energy -223130.495241 kJ/mol
# GULP energy per Si atom -5578.262381 kJ/mol
# Density = 1.832237 g / cm^3
# Si number density = 18.364164 Si / 1000 Ang^3
#
#
#
# Elastic Constant Matrix: (Units=GPa)
#
#
# Indices 1 2 3 4 5 6 
#
# 1 38.6629 -0.6841 -15.5725 0.0000 0.0000 0.0000
# 2 -0.6841 38.6680 -15.5700 0.0000 0.0000 0.0000
# 3 -15.5725 -15.5700 70.9409 0.0000 0.0000 0.0000
# 4 0.0000 0.0000 0.0000 20.4385 0.0000 0.0000
# 5 0.0000 0.0000 0.0000 0.0000 20.4382 0.0000
# 6 0.0000 0.0000 0.0000 0.0000 0.0000 13.5079
#
#
#
# Elastic Compliance Matrix: (Units=1/GPa)
#
#
# Indices 1 2 3 4 5 6 
#
# 1 0.028763 0.003347 0.007048 0.000000 0.000000 0.000000
# 2 0.003347 0.028758 0.007046 0.000000 0.000000 0.000000
# 3 0.007048 0.007046 0.017190 0.000000 0.000000 0.000000
# 4 0.000000 0.000000 0.000000 0.048927 0.000000 0.000000
# 5 0.000000 0.000000 0.000000 0.000000 0.048928 0.000000
# 6 0.000000 0.000000 0.000000 0.000000 0.000000 0.074031
#
#
# Mechanical properties :
#
#
# Convention : Reuss Voigt Hill
#
# Bulk Modulus (GPa) = 9.12458 9.40206 9.26332
# Shear Modulus (GPa) = 20.14145 22.88349 21.51247
#
# Velocity S-wave (km/s) = 3.31536 3.53384 3.42634
# Velocity P-wave (km/s) = 4.43113 4.66707 4.55063
#
# Compressibility (1/GPa) = 0.10959406
#
# Stress axis : x y z
#
# Youngs Moduli (GPa) = 34.76721 34.77330 58.17338
#
# Poissons Ratio (x) = -0.11639 -0.41003
# Poissons Ratio (y) = -0.11637 -0.40991
# Poissons Ratio (z) = -0.24505 -0.24503
#
# Static dielectric constant tensor:
#      x y z
#    x 1.641350 0.000000 0.000000 
#    y 0.000000 1.641350 0.000000 
#    z 0.000000 0.000000 1.666470 
# 
# From -- ./inp_files/5293.got.cif
#   From: 2010.05.17/outbox.cif.g08.bks.cpg/sg119_3_cif.got.tgz:5293.got - 2010.05.20 11:21:29.
