data_PCOD9559027
_publ_section_title
;
Structure prediction by ZEFSAII (Michael W. Deem and Ramdas Pophale) SiO2 
 PCOD9559027
Probable space group: I -4 M 2
;
_chemical_formula_sum "Si O2"
_cell_formula_units_Z 88
_cell_length_a 18.829988
_cell_length_b 18.829988
_cell_length_c 12.994879
_cell_angle_alpha 90.000000
_cell_angle_beta 90.000000
_cell_angle_gamma 90.000000
_cell_volume 4607.574080
_symmetry_space_group_name_H-M "I -4 M 2"
_symmetry_group_IT_number 119
_symmetry_cell_setting 'tetragonal'
loop_
_space_group_symop_operation_xyz
x,y,z
y,-x,-z
-x,-y,z
-y,x,-z
y,x,-z
-y,-x,-z
-x,y,z
x,-y,z
1/2+x,1/2+y,1/2+z
1/2+y,1/2-x,1/2-z
1/2-x,1/2-y,1/2+z
1/2-y,1/2+x,1/2-z
1/2+y,1/2+x,1/2-z
1/2-y,1/2-x,1/2-z
1/2-x,1/2+y,1/2+z
1/2+x,1/2-y,1/2+z
loop_
_atom_site_type_symbol
_atom_site_label
_atom_site_fract_x
_atom_site_fract_y
_atom_site_fract_z
Si Si1 0.416063 0.301156 0.034405
Si Si2 0.617719 0.117719 0.750000
Si Si3 0.340472 0.279068 0.248949
Si Si4 0.577335 0.147388 0.967912
Si Si5 0.275261 0.416588 0.328610
Si Si6 0.915730 0.720079 0.949077
O O1 0.500000 0.318491 0.043133
O O2 0.382889 0.273959 0.142289
O O3 0.367038 0.367038 0.000000
O O4 0.410318 0.232636 0.958634
O O5 0.577152 0.108893 0.857165
O O6 0.600007 0.197697 0.716763
O O7 0.267479 0.232522 0.250000
O O8 0.325955 0.361673 0.272046
O O9 0.385310 0.250211 0.344321
O O10 0.500000 0.138817 0.017265
O O11 0.642608 0.116418 0.030416
O O12 0.291770 0.500000 0.316002
O O13 0.268059 0.398913 0.450297
O O14 0.000000 0.714598 0.945124
#
# Coordination Sequence:
#
# PCOD9559027 Si02
#       6
#    16   8  16  16  16  16
#     4  11  25  42  63  92 128 167 210 263 318 375
#     4  10  18  32  56  83 120 160 200 247 304 362
#     4  12  22  38  67  93 119 163 216 259 309 373
#     4  10  21  37  58  87 124 165 211 255 308 374
#     4  10  21  36  58  91 125 158 202 259 311 364
#     4  10  22  39  60  89 126 161 203 258 315 373
#
# _framework density 19.098987999999999
#
# number of rings (size 3 to 8) (size 9 to 14) (size 15 to 20)
#    0.000    1.455    2.727    2.727    2.545    3.455 
#    0.000    0.000    0.000    5.182    0.000    5.091 
#    0.000    0.000    0.000    0.000    0.000    0.000 
#
# Total GULP energy -245525.423885 kJ/mol
# GULP energy per Si atom -5580.123270 kJ/mol
# Density = 1.905552 g / cm^3
# Si number density = 19.098988 Si / 1000 Ang^3
#
#
#
# Elastic Constant Matrix: (Units=GPa)
#
#
# Indices 1 2 3 4 5 6 
#
# 1 81.3205 17.8606 24.7398 0.0000 0.0000 0.0000
# 2 17.8606 81.3258 24.7440 0.0000 0.0000 0.0000
# 3 24.7398 24.7440 85.5119 0.0000 0.0000 0.0000
# 4 0.0000 0.0000 0.0000 16.7816 0.0000 0.0000
# 5 0.0000 0.0000 0.0000 0.0000 16.7823 0.0000
# 6 0.0000 0.0000 0.0000 0.0000 0.0000 19.8550
#
#
#
# Elastic Compliance Matrix: (Units=1/GPa)
#
#
# Indices 1 2 3 4 5 6 
#
# 1 0.013771 -0.001987 -0.003409 0.000000 0.000000 0.000000
# 2 -0.001987 0.013770 -0.003410 0.000000 0.000000 0.000000
# 3 -0.003409 -0.003410 0.013667 0.000000 0.000000 0.000000
# 4 0.000000 0.000000 0.000000 0.059589 0.000000 0.000000
# 5 0.000000 0.000000 0.000000 0.000000 0.059586 0.000000
# 6 0.000000 0.000000 0.000000 0.000000 0.000000 0.050365
#
#
# Mechanical properties :
#
#
# Convention : Reuss Voigt Hill
#
# Bulk Modulus (GPa) = 42.37952 42.53855 42.45904
# Shear Modulus (GPa) = 21.16623 22.73804 21.95214
#
# Velocity S-wave (km/s) = 3.33263 3.45416 3.39394
# Velocity P-wave (km/s) = 6.08656 6.18299 6.13496
#
# Compressibility (1/GPa) = 0.02359630
#
# Stress axis : x y z
#
# Youngs Moduli (GPa) = 72.61866 72.62149 73.16792
#
# Poissons Ratio (x) = 0.14430 0.24943
# Poissons Ratio (y) = 0.14430 0.24948
# Poissons Ratio (z) = 0.24756 0.24761
#
# Static dielectric constant tensor:
#      x y z
#    x 1.658880 0.000000 0.000000 
#    y 0.000000 1.658880 0.000000 
#    z 0.000000 0.000000 1.632700 
# 
# From -- ./inp_files/5382.got.cif
#   From: 2010.05.17/outbox.cif.g08.bks.cpg/sg119_3_cif.got.tgz:5382.got - 2010.05.20 11:21:29.
