data_PCOD9559484
_publ_section_title
;
Structure prediction by ZEFSAII (Michael W. Deem and Ramdas Pophale) SiO2 
 PCOD9559484
Probable space group: I -4 M 2
;
_chemical_formula_sum "Si O2"
_cell_formula_units_Z 112
_cell_length_a 13.963201
_cell_length_b 13.963201
_cell_length_c 32.875211
_cell_angle_alpha 90.000000
_cell_angle_beta 90.000000
_cell_angle_gamma 90.000000
_cell_volume 6409.712178
_symmetry_space_group_name_H-M "I -4 M 2"
_symmetry_group_IT_number 119
_symmetry_cell_setting 'tetragonal'
loop_
_space_group_symop_operation_xyz
x,y,z
y,-x,-z
-x,-y,z
-y,x,-z
y,x,-z
-y,-x,-z
-x,y,z
x,-y,z
1/2+x,1/2+y,1/2+z
1/2+y,1/2-x,1/2-z
1/2-x,1/2-y,1/2+z
1/2-y,1/2+x,1/2-z
1/2+y,1/2+x,1/2-z
1/2-y,1/2-x,1/2-z
1/2-x,1/2+y,1/2+z
1/2+x,1/2-y,1/2+z
loop_
_atom_site_type_symbol
_atom_site_label
_atom_site_fract_x
_atom_site_fract_y
_atom_site_fract_z
Si Si1 0.388800 0.115923 0.131126
Si Si2 0.779688 0.615492 0.713200
Si Si3 0.299841 0.385755 0.330363
Si Si4 0.883533 0.607729 0.125409
Si Si5 0.616938 0.204779 0.540825
Si Si6 0.612976 0.883872 0.042281
Si Si7 0.615778 0.604919 0.582732
O O1 0.500000 0.144136 0.134793
O O2 0.331750 0.144461 0.170969
O O3 0.351941 0.148715 0.086892
O O4 0.386665 0.000000 0.130401
O O5 0.779784 0.500000 0.716797
O O6 0.836501 0.663500 0.750000
O O7 0.673449 0.656950 0.706744
O O8 0.301717 0.500000 0.323766
O O9 0.191946 0.356449 0.343306
O O10 0.363846 0.365819 0.370843
O O11 0.850883 0.500000 0.134612
O O12 0.855204 0.640364 0.079846
O O13 0.000000 0.607378 0.125448
O O14 0.500000 0.203164 0.539978
O O15 0.651864 0.164992 0.498036
O O16 0.645717 0.312757 0.551856
O O17 0.500000 0.860912 0.039785
O O18 0.618747 0.000000 0.041864
O O19 0.500000 0.600292 0.579648
O O20 0.655992 0.500000 0.573877
#
# Coordination Sequence:
#
# PCOD9559484 Si02
#       7
#    16  16  16  16  16  16  16
#     4   8  15  28  45  65  88 113 142 185 245 299
#     4  11  22  35  53  74  93 115 149 196 249 302
#     4   9  18  32  50  72  97 129 167 198 232 290
#     4   8  13  23  42  68  97 127 158 195 234 265
#     4   8  12  17  31  59  89 116 153 196 229 261
#     4   8  12  19  34  57  85 114 144 184 235 282
#     4   8  13  22  37  57  85 125 167 200 227 258
#
# _framework density 17.473483999999999
#
# number of rings (size 3 to 8) (size 9 to 14) (size 15 to 20)
#    0.000    3.429    0.000    3.857    0.000    3.286 
#    0.000    0.714    0.000    4.286    0.000    8.000 
#    0.000    2.286    0.000    0.000    0.000    0.000 
#
# Total GULP energy -312127.059931 kJ/mol
# GULP energy per Si atom -5573.697499 kJ/mol
# Density = 1.743371 g / cm^3
# Si number density = 17.473484 Si / 1000 Ang^3
#
#
#
# Elastic Constant Matrix: (Units=GPa)
#
#
# Indices 1 2 3 4 5 6 
#
# 1 79.6642 24.9840 49.3784 0.0000 0.0000 0.0000
# 2 24.9840 79.6642 49.3787 0.0000 0.0000 0.0000
# 3 49.3784 49.3787 97.2291 0.0000 0.0000 0.0000
# 4 0.0000 0.0000 0.0000 22.0261 0.0000 0.0000
# 5 0.0000 0.0000 0.0000 0.0000 22.0262 0.0000
# 6 0.0000 0.0000 0.0000 0.0000 0.0000 9.2998
#
#
#
# Elastic Compliance Matrix: (Units=1/GPa)
#
#
# Indices 1 2 3 4 5 6 
#
# 1 0.018319 0.000031 -0.009320 0.000000 0.000000 0.000000
# 2 0.000031 0.018320 -0.009320 0.000000 0.000000 0.000000
# 3 -0.009320 -0.009320 0.019751 0.000000 0.000000 0.000000
# 4 0.000000 0.000000 0.000000 0.045401 0.000000 0.000000
# 5 0.000000 0.000000 0.000000 0.000000 0.045400 0.000000
# 6 0.000000 0.000000 0.000000 0.000000 0.000000 0.107530
#
#
# Mechanical properties :
#
#
# Convention : Reuss Voigt Hill
#
# Bulk Modulus (GPa) = 52.15328 56.00441 54.07884
# Shear Modulus (GPa) = 16.76010 19.52485 18.14247
#
# Velocity S-wave (km/s) = 3.10041 3.34638 3.22574
# Velocity P-wave (km/s) = 6.53671 6.85942 6.70001
#
# Compressibility (1/GPa) = 0.01917425
#
# Stress axis : x y z
#
# Youngs Moduli (GPa) = 54.58697 54.58656 50.63025
#
# Poissons Ratio (x) = -0.00171 0.47185
# Poissons Ratio (y) = -0.00171 0.47186
# Poissons Ratio (z) = 0.50872 0.50873
#
# Static dielectric constant tensor:
#      x y z
#    x 1.612020 0.000000 0.000000 
#    y 0.000000 1.612020 0.000000 
#    z 0.000000 0.000000 1.603480 
# 
# From -- ./inp_files/10465.got.cif
#   From: 2010.05.17/outbox.cif.g08.bks.cpg/sg119_6_cif.got.tgz:10465.got - 2010.05.20 11:21:29.
