data_PCOD9559281
_publ_section_title
;
Structure prediction by ZEFSAII (Michael W. Deem and Ramdas Pophale) SiO2 
 PCOD9559281
Probable space group: I -4 M 2
;
_chemical_formula_sum "Si O2"
_cell_formula_units_Z 92
_cell_length_a 14.740646
_cell_length_b 14.740646
_cell_length_c 22.095264
_cell_angle_alpha 90.000000
_cell_angle_beta 90.000000
_cell_angle_gamma 90.000000
_cell_volume 4801.005774
_symmetry_space_group_name_H-M "I -4 M 2"
_symmetry_group_IT_number 119
_symmetry_cell_setting 'tetragonal'
loop_
_space_group_symop_operation_xyz
x,y,z
y,-x,-z
-x,-y,z
-y,x,-z
y,x,-z
-y,-x,-z
-x,y,z
x,-y,z
1/2+x,1/2+y,1/2+z
1/2+y,1/2-x,1/2-z
1/2-x,1/2-y,1/2+z
1/2-y,1/2+x,1/2-z
1/2+y,1/2+x,1/2-z
1/2-y,1/2-x,1/2-z
1/2-x,1/2+y,1/2+z
1/2+x,1/2-y,1/2+z
loop_
_atom_site_type_symbol
_atom_site_label
_atom_site_fract_x
_atom_site_fract_y
_atom_site_fract_z
Si Si1 0.106541 0.294345 0.694107
Si Si2 0.809602 0.899770 0.696332
Si Si3 0.755158 0.755158 0.000000
Si Si4 0.600521 0.676150 0.662366
Si Si5 0.396865 0.772349 0.397326
Si Si6 0.000000 0.500000 0.425706
Si Si7 0.338901 0.143361 0.597976
O O1 0.163944 0.336057 0.750000
O O2 0.128957 0.188279 0.684874
O O3 0.145224 0.346338 0.635789
O O4 0.000000 0.308347 0.704115
O O5 0.790877 0.894385 0.768223
O O6 0.720127 0.891605 0.654989
O O7 0.850284 0.000000 0.685246
O O8 0.843729 0.751554 0.958080
O O9 0.670344 0.767301 0.954760
O O10 0.500000 0.636783 0.652861
O O11 0.684329 0.611278 0.646442
O O12 0.616036 0.762921 0.620141
O O13 0.500000 0.795272 0.408870
O O14 0.922118 0.418835 0.422390
#
# Coordination Sequence:
#
# PCOD9559281 Si02
#       7
#    16  16   8  16  16   4  16
#     4  12  24  43  68  96 134 174 220 281 342 401
#     4  11  21  39  66  96 131 174 215 261 333 410
#     4  10  24  42  68  79 131 180 216 268 350 388
#     4  10  20  36  63  90 133 171 207 251 330 408
#     4  11  24  42  64  95 127 171 226 277 334 399
#     4  12  24  36  69 104 136 152 233 292 332 406
#     4  11  21  41  58  96 128 175 207 274 331 398
#
# _framework density 19.162652000000001
#
# number of rings (size 3 to 8) (size 9 to 14) (size 15 to 20)
#    0.000    1.043    6.957    1.043    1.217    2.609 
#    1.565    3.478    0.000    0.000    0.000    1.217 
#    0.000    0.000    0.000    0.000    0.000    0.000 
#
# Total GULP energy -256096.868841 kJ/mol
# GULP energy per Si atom -5567.323236 kJ/mol
# Density = 1.911904 g / cm^3
# Si number density = 19.162652 Si / 1000 Ang^3
#
#
#
# Elastic Constant Matrix: (Units=GPa)
#
#
# Indices 1 2 3 4 5 6 
#
# 1 109.4000 24.8617 9.7510 0.0000 0.0000 0.0000
# 2 24.8617 109.4015 9.7510 0.0000 0.0000 0.0000
# 3 9.7510 9.7510 63.0138 0.0000 0.0000 0.0000
# 4 0.0000 0.0000 0.0000 12.0355 0.0000 0.0000
# 5 0.0000 0.0000 0.0000 0.0000 12.0354 0.0000
# 6 0.0000 0.0000 0.0000 0.0000 0.0000 24.7825
#
#
#
# Elastic Compliance Matrix: (Units=1/GPa)
#
#
# Indices 1 2 3 4 5 6 
#
# 1 0.009724 -0.002105 -0.001179 0.000000 0.000000 0.000000
# 2 -0.002105 0.009724 -0.001179 0.000000 0.000000 0.000000
# 3 -0.001179 -0.001179 0.016234 0.000000 0.000000 0.000000
# 4 0.000000 0.000000 0.000000 0.083087 0.000000 0.000000
# 5 0.000000 0.000000 0.000000 0.000000 0.083088 0.000000
# 6 0.000000 0.000000 0.000000 0.000000 0.000000 0.040351
#
#
# Mechanical properties :
#
#
# Convention : Reuss Voigt Hill
#
# Bulk Modulus (GPa) = 37.37345 41.17141 39.27243
# Shear Modulus (GPa) = 19.22678 25.60079 22.41378
#
# Velocity S-wave (km/s) = 3.17100 3.65906 3.42374
# Velocity P-wave (km/s) = 5.74044 6.27563 6.01399
#
# Compressibility (1/GPa) = 0.02675696
#
# Stress axis : x y z
#
# Youngs Moduli (GPa) = 102.83651 102.83790 61.59743
#
# Poissons Ratio (x) = 0.21645 0.07263
# Poissons Ratio (y) = 0.21644 0.07263
# Poissons Ratio (z) = 0.12125 0.12125
#
# Static dielectric constant tensor:
#      x y z
#    x 1.664620 0.000000 0.000000 
#    y 0.000000 1.664620 0.000000 
#    z 0.000000 0.000000 1.700720 
# 
# From -- ./inp_files/7830.got.cif
#   From: 2010.05.17/outbox.cif.g08.bks.cpg/sg119_4_cif.got.tgz:7830.got - 2010.05.20 11:21:29.
