data_PCOD9559591
_publ_section_title
;
Structure prediction by ZEFSAII (Michael W. Deem and Ramdas Pophale) SiO2 
 PCOD9559591
Probable space group: I -4 C 2
;
_chemical_formula_sum "Si O2"
_cell_formula_units_Z 104
_cell_length_a 16.659294
_cell_length_b 16.659294
_cell_length_c 18.556647
_cell_angle_alpha 90.000000
_cell_angle_beta 90.000000
_cell_angle_gamma 90.000000
_cell_volume 5150.064776
_symmetry_space_group_name_H-M "I -4 C 2"
_symmetry_group_IT_number 120
_symmetry_cell_setting 'tetragonal'
loop_
_space_group_symop_operation_xyz
x,y,z
y,-x,-z
-x,-y,z
-y,x,-z
y,x,1/2-z
-y,-x,1/2-z
-x,y,1/2+z
x,-y,1/2+z
1/2+x,1/2+y,1/2+z
1/2+y,1/2-x,1/2-z
1/2-x,1/2-y,1/2+z
1/2-y,1/2+x,1/2-z
1/2+y,1/2+x,-z
1/2-y,1/2-x,-z
1/2-x,1/2+y,z
1/2+x,1/2-y,z
loop_
_atom_site_type_symbol
_atom_site_label
_atom_site_fract_x
_atom_site_fract_y
_atom_site_fract_z
Si Si1 0.958360 0.701713 0.283200
Si Si2 0.586390 0.819284 0.183175
Si Si3 0.574809 0.785291 0.409058
Si Si4 0.815270 0.821809 0.493034
Si Si5 0.712985 0.287016 0.750000
Si Si6 0.732622 0.858390 0.351968
Si Si7 0.059007 0.307865 0.518803
O O1 0.885750 0.655550 0.320801
O O2 0.918294 0.747203 0.214953
O O3 0.021365 0.647454 0.239084
O O4 0.013028 0.738172 0.345892
O O5 0.626135 0.740065 0.220421
O O6 0.550444 0.804945 0.104912
O O7 0.620810 0.707935 0.440858
O O8 0.640843 0.850883 0.382367
O O9 0.522008 0.819210 0.474566
O O10 0.749165 0.750836 0.500000
O O11 0.794088 0.864584 0.417689
O O12 0.899300 0.776429 0.496319
O O13 0.770835 0.262976 0.684450
O O14 0.120871 0.379130 0.500000
#
# Coordination Sequence:
#
# PCOD9559591 Si02
#       7
#    16  16  16  16   8  16  16
#     4  11  21  35  54  78 116 156 189 227 282 345
#     4  11  22  36  54  82 114 153 192 237 280 352
#     4  11  20  37  54  81 118 150 188 238 295 342
#     4   9  20  36  58  81 113 148 192 247 296 339
#     4  10  18  34  60  80 108 146 190 244 298 324
#     4  10  21  37  57  81 117 152 190 243 288 351
#     4  11  21  34  60  86 109 145 201 244 285 347
#
# _framework density 20.193922000000001
#
# number of rings (size 3 to 8) (size 9 to 14) (size 15 to 20)
#    0.000    1.538    4.615    3.692    2.154    0.308 
#    0.000    0.000    0.000    0.462    0.000    0.000 
#    0.000    9.846    0.000    0.000    0.000    0.000 
#
# Total GULP energy -289759.495537 kJ/mol
# GULP energy per Si atom -5572.297991 kJ/mol
# Density = 2.014796 g / cm^3
# Si number density = 20.193922 Si / 1000 Ang^3
#
#
#
# Elastic Constant Matrix: (Units=GPa)
#
#
# Indices 1 2 3 4 5 6 
#
# 1 33.3864 36.7698 31.5824 0.0000 0.0000 0.0000
# 2 36.7698 33.3859 31.5828 0.0000 0.0000 0.0000
# 3 31.5824 31.5828 146.8881 0.0000 0.0000 0.0000
# 4 0.0000 0.0000 0.0000 34.4042 0.0000 0.0000
# 5 0.0000 0.0000 0.0000 0.0000 34.4038 0.0000
# 6 0.0000 0.0000 0.0000 0.0000 0.0000 9.9265
#
#
#
# Elastic Compliance Matrix: (Units=1/GPa)
#
#
# Indices 1 2 3 4 5 6 
#
# 1 -0.138928 0.156606 -0.003801 0.000000 0.000000 0.000000
# 2 0.156606 -0.138932 -0.003800 0.000000 0.000000 0.000000
# 3 -0.003801 -0.003800 0.008442 0.000000 0.000000 0.000000
# 4 0.000000 0.000000 0.000000 0.029066 0.000000 0.000000
# 5 0.000000 0.000000 0.000000 0.000000 0.029067 0.000000
# 6 0.000000 0.000000 0.000000 0.000000 0.000000 0.100741
#
#
# Mechanical properties :
#
#
# Convention : Reuss Voigt Hill
#
# Bulk Modulus (GPa) = 34.97512 45.94783 40.46148
# Shear Modulus (GPa) = -12.53062 23.32858 5.39898
#
# Velocity S-wave (km/s) = -2.49372 3.40255 1.63688
# Velocity P-wave (km/s) = 3.01094 6.18378 4.86338
#
# Compressibility (1/GPa) = 0.02859175
#
# Stress axis : x y z
#
# Youngs Moduli (GPa) = -7.19797 -7.19779 118.45250
#
# Poissons Ratio (x) = 1.12721 0.45027
# Poissons Ratio (y) = 1.12724 0.45009
# Poissons Ratio (z) = -0.02736 -0.02735
#
# Static dielectric constant tensor:
#      x y z
#    x 1.748530 0.000000 0.000000 
#    y 0.000000 1.748520 0.000000 
#    z 0.000000 0.000000 1.779550 
# 
# From -- ./inp_files/4547.got.cif
#   From: 2010.05.17/outbox.cif.g08.bks.cpg/sg120_3_cif.got.tgz:4547.got - 2010.05.20 11:28:13.
