data_PCOD9559477
_publ_section_title
;
Structure prediction by ZEFSAII (Michael W. Deem and Ramdas Pophale) SiO2 
 PCOD9559477
Probable space group: I -4 M 2
;
_chemical_formula_sum "Si O2"
_cell_formula_units_Z 96
_cell_length_a 21.637393
_cell_length_b 21.637393
_cell_length_c 10.702459
_cell_angle_alpha 90.000000
_cell_angle_beta 90.000000
_cell_angle_gamma 90.000000
_cell_volume 5010.642748
_symmetry_space_group_name_H-M "I -4 M 2"
_symmetry_group_IT_number 119
_symmetry_cell_setting 'tetragonal'
loop_
_space_group_symop_operation_xyz
x,y,z
y,-x,-z
-x,-y,z
-y,x,-z
y,x,-z
-y,-x,-z
-x,y,z
x,-y,z
1/2+x,1/2+y,1/2+z
1/2+y,1/2-x,1/2-z
1/2-x,1/2-y,1/2+z
1/2-y,1/2+x,1/2-z
1/2+y,1/2+x,1/2-z
1/2-y,1/2-x,1/2-z
1/2-x,1/2+y,1/2+z
1/2+x,1/2-y,1/2+z
loop_
_atom_site_type_symbol
_atom_site_label
_atom_site_fract_x
_atom_site_fract_y
_atom_site_fract_z
Si Si1 0.575365 0.728454 0.475237
Si Si2 0.737417 0.699802 0.866120
Si Si3 0.859791 0.367285 0.610939
Si Si4 0.427291 0.431514 0.867320
Si Si5 0.866349 0.845145 0.192949
Si Si6 0.574135 0.070965 0.886924
O O1 0.500000 0.725201 0.474033
O O2 0.599442 0.794791 0.425155
O O3 0.604244 0.709876 0.610759
O O4 0.610519 0.678583 0.387808
O O5 0.757718 0.742283 0.750000
O O6 0.793599 0.651643 0.881484
O O7 0.673265 0.674610 0.813899
O O8 0.732002 0.732002 0.000000
O O9 0.883539 0.383539 0.750000
O O10 0.904664 0.387327 0.500682
O O11 0.500000 0.437249 0.888043
O O12 0.400307 0.500000 0.844525
O O13 0.418302 0.388732 0.749179
O O14 0.404588 0.404588 0.000000
O O15 0.500000 0.068735 0.880806
O O16 0.594498 0.094498 0.750000
O O17 0.596443 0.000000 0.905313
#
# Coordination Sequence:
#
# PCOD9559477 Si02
#       6
#    16  16  16  16  16  16
#     4  11  23  38  60  88 124 165 207 262 317 379
#     4  11  22  39  60  85 119 161 205 254 311 376
#     4  11  22  39  59  90 121 160 203 257 312 375
#     4   9  18  34  56  82 115 155 199 252 312 369
#     4  11  21  38  58  86 120 159 211 253 312 379
#     4   9  20  40  63  87 119 158 201 252 313 378
#
# _framework density 19.159217999999999
#
# number of rings (size 3 to 8) (size 9 to 14) (size 15 to 20)
#    0.000    1.667    3.333    4.000    0.000    3.333 
#    0.000    0.833    0.000    5.000    0.000    0.000 
#    0.000    0.000    0.000    0.000    0.000    0.000 
#
# Total GULP energy -267375.138728 kJ/mol
# GULP energy per Si atom -5570.315390 kJ/mol
# Density = 1.911561 g / cm^3
# Si number density = 19.159218 Si / 1000 Ang^3
#
#
#
# Elastic Constant Matrix: (Units=GPa)
#
#
# Indices 1 2 3 4 5 6 
#
# 1 47.6196 20.0380 34.5933 0.0000 0.0000 0.0000
# 2 20.0380 47.6198 34.5935 0.0000 0.0000 0.0000
# 3 34.5933 34.5935 159.9726 0.0000 0.0000 0.0000
# 4 0.0000 0.0000 0.0000 35.4049 0.0000 0.0000
# 5 0.0000 0.0000 0.0000 0.0000 35.4047 0.0000
# 6 0.0000 0.0000 0.0000 0.0000 0.0000 13.6741
#
#
#
# Elastic Compliance Matrix: (Units=1/GPa)
#
#
# Indices 1 2 3 4 5 6 
#
# 1 0.027616 -0.008640 -0.004104 0.000000 0.000000 0.000000
# 2 -0.008640 0.027616 -0.004104 0.000000 0.000000 0.000000
# 3 -0.004104 -0.004104 0.008026 0.000000 0.000000 0.000000
# 4 0.000000 0.000000 0.000000 0.028245 0.000000 0.000000
# 5 0.000000 0.000000 0.000000 0.000000 0.028245 0.000000
# 6 0.000000 0.000000 0.000000 0.000000 0.000000 0.073131
#
#
# Mechanical properties :
#
#
# Convention : Reuss Voigt Hill
#
# Bulk Modulus (GPa) = 33.82418 48.18463 41.00441
# Shear Modulus (GPa) = 21.14813 27.96254 24.55534
#
# Velocity S-wave (km/s) = 3.32597 3.82446 3.58389
# Velocity P-wave (km/s) = 5.69579 6.68627 6.21080
#
# Compressibility (1/GPa) = 0.02956464
#
# Stress axis : x y z
#
# Youngs Moduli (GPa) = 36.21041 36.21058 124.59744
#
# Poissons Ratio (x) = 0.31285 0.51130
# Poissons Ratio (y) = 0.31285 0.51130
# Poissons Ratio (z) = 0.14859 0.14859
#
# Static dielectric constant tensor:
#      x y z
#    x 1.714290 0.000000 0.000000 
#    y 0.000000 1.714300 0.000000 
#    z 0.000000 0.000000 1.722700 
# 
# From -- ./inp_files/4191.got.cif
#   From: 2010.05.17/outbox.cif.g08.bks.cpg/sg119_3_cif.got.tgz:4191.got - 2010.05.20 11:21:29.
