data_PCOD9559224
_publ_section_title
;
Structure prediction by ZEFSAII (Michael W. Deem and Ramdas Pophale) SiO2 
 PCOD9559224
Probable space group: I -4 M 2
;
_chemical_formula_sum "Si O2"
_cell_formula_units_Z 96
_cell_length_a 23.796024
_cell_length_b 23.796024
_cell_length_c 9.837242
_cell_angle_alpha 90.000000
_cell_angle_beta 90.000000
_cell_angle_gamma 90.000000
_cell_volume 5570.345741
_symmetry_space_group_name_H-M "I -4 M 2"
_symmetry_group_IT_number 119
_symmetry_cell_setting 'tetragonal'
loop_
_space_group_symop_operation_xyz
x,y,z
y,-x,-z
-x,-y,z
-y,x,-z
y,x,-z
-y,-x,-z
-x,y,z
x,-y,z
1/2+x,1/2+y,1/2+z
1/2+y,1/2-x,1/2-z
1/2-x,1/2-y,1/2+z
1/2-y,1/2+x,1/2-z
1/2+y,1/2+x,1/2-z
1/2-y,1/2-x,1/2-z
1/2-x,1/2+y,1/2+z
1/2+x,1/2-y,1/2+z
loop_
_atom_site_type_symbol
_atom_site_label
_atom_site_fract_x
_atom_site_fract_y
_atom_site_fract_z
Si Si1 0.563061 0.155943 0.267596
Si Si2 0.935505 0.259893 0.526571
Si Si3 0.134305 0.161677 0.650784
Si Si4 0.566437 0.247892 0.501442
Si Si5 0.935213 0.126046 0.884735
Si Si6 0.240738 0.645356 0.234324
O O1 0.500000 0.136339 0.300586
O O2 0.606585 0.106585 0.250000
O O3 0.578352 0.201320 0.385170
O O4 0.561588 0.186028 0.121489
O O5 0.905380 0.215032 0.625846
O O6 0.896566 0.268061 0.394326
O O7 0.000000 0.243130 0.492085
O O8 0.137581 0.137581 0.500000
O O9 0.104988 0.120329 0.755992
O O10 0.197550 0.172494 0.704932
O O11 0.500000 0.242702 0.538209
O O12 0.574086 0.310592 0.441404
O O13 0.607267 0.241598 0.630169
O O14 0.000000 0.120604 0.847290
O O15 0.917114 0.082887 0.000000
O O16 0.193133 0.693133 0.250000
#
# Coordination Sequence:
#
# PCOD9559224 Si02
#       6
#    16  16  16  16  16  16
#     4  10  20  34  54  80 108 146 188 231 282 332
#     4  10  20  37  57  78 110 152 195 229 272 343
#     4  10  21  37  54  84 115 147 188 226 285 341
#     4  10  20  36  58  82 110 148 192 231 277 339
#     4  11  21  39  61  83 112 147 190 237 278 329
#     4  11  22  36  54  86 120 149 184 233 294 341
#
# _framework density 17.234117999999999
#
# number of rings (size 3 to 8) (size 9 to 14) (size 15 to 20)
#    0.000    1.667    3.333    2.000    0.000    1.000 
#    9.000    0.833    0.000    0.000    0.000    0.000 
#    0.000   12.000    0.000    0.000    0.000    0.000 
#
# Total GULP energy -267584.699922 kJ/mol
# GULP energy per Si atom -5574.681248 kJ/mol
# Density = 1.719489 g / cm^3
# Si number density = 17.234118 Si / 1000 Ang^3
#
#
#
# Elastic Constant Matrix: (Units=GPa)
#
#
# Indices 1 2 3 4 5 6 
#
# 1 73.3077 42.1703 22.2213 0.0000 0.0000 0.0000
# 2 42.1703 73.3083 22.2211 0.0000 0.0000 0.0000
# 3 22.2213 22.2211 67.5699 0.0000 0.0000 0.0000
# 4 0.0000 0.0000 0.0000 21.3405 0.0000 0.0000
# 5 0.0000 0.0000 0.0000 0.0000 21.3404 0.0000
# 6 0.0000 0.0000 0.0000 0.0000 0.0000 26.7898
#
#
#
# Elastic Compliance Matrix: (Units=1/GPa)
#
#
# Indices 1 2 3 4 5 6 
#
# 1 0.021015 -0.011101 -0.003261 0.000000 0.000000 0.000000
# 2 -0.011101 0.021015 -0.003260 0.000000 0.000000 0.000000
# 3 -0.003261 -0.003260 0.016944 0.000000 0.000000 0.000000
# 4 0.000000 0.000000 0.000000 0.046859 0.000000 0.000000
# 5 0.000000 0.000000 0.000000 0.000000 0.046860 0.000000
# 6 0.000000 0.000000 0.000000 0.000000 0.000000 0.037328
#
#
# Mechanical properties :
#
#
# Convention : Reuss Voigt Hill
#
# Bulk Modulus (GPa) = 42.13912 43.04573 42.59242
# Shear Modulus (GPa) = 21.44324 22.39900 21.92112
#
# Velocity S-wave (km/s) = 3.53119 3.60903 3.57032
# Velocity P-wave (km/s) = 6.41326 6.51138 6.46250
#
# Compressibility (1/GPa) = 0.02373092
#
# Stress axis : x y z
#
# Youngs Moduli (GPa) = 47.58491 47.58542 59.01798
#
# Poissons Ratio (x) = 0.52822 0.19243
# Poissons Ratio (y) = 0.52822 0.19242
# Poissons Ratio (z) = 0.15515 0.15515
#
# Static dielectric constant tensor:
#      x y z
#    x 1.595250 0.000000 0.000000 
#    y 0.000000 1.595250 0.000000 
#    z 0.000000 0.000000 1.589670 
# 
# From -- ./inp_files/2662.got.cif
#   From: 2010.05.17/outbox.cif.g08.bks.cpg/sg119_2_cif.got.tgz:2662.got - 2010.05.20 11:21:29.
