data_PCOD9559108
_publ_section_title
;
Structure prediction by ZEFSAII (Michael W. Deem and Ramdas Pophale) SiO2 
 PCOD9559108
Probable space group: I -4 M 2
;
_chemical_formula_sum "Si O2"
_cell_formula_units_Z 112
_cell_length_a 18.837140
_cell_length_b 18.837140
_cell_length_c 17.876991
_cell_angle_alpha 90.000000
_cell_angle_beta 90.000000
_cell_angle_gamma 90.000000
_cell_volume 6343.432933
_symmetry_space_group_name_H-M "I -4 M 2"
_symmetry_group_IT_number 119
_symmetry_cell_setting 'tetragonal'
loop_
_space_group_symop_operation_xyz
x,y,z
y,-x,-z
-x,-y,z
-y,x,-z
y,x,-z
-y,-x,-z
-x,y,z
x,-y,z
1/2+x,1/2+y,1/2+z
1/2+y,1/2-x,1/2-z
1/2-x,1/2-y,1/2+z
1/2-y,1/2+x,1/2-z
1/2+y,1/2+x,1/2-z
1/2-y,1/2-x,1/2-z
1/2-x,1/2+y,1/2+z
1/2+x,1/2-y,1/2+z
loop_
_atom_site_type_symbol
_atom_site_label
_atom_site_fract_x
_atom_site_fract_y
_atom_site_fract_z
Si Si1 0.167893 0.583034 0.849220
Si Si2 0.700598 0.081401 0.940252
Si Si3 0.687080 0.079709 0.528554
Si Si4 0.148069 0.081473 0.572660
Si Si5 0.826023 0.799090 0.683406
Si Si6 0.190387 0.788632 0.150578
Si Si7 0.284240 0.921308 0.120101
O O1 0.154054 0.500000 0.831537
O O2 0.235065 0.617539 0.806724
O O3 0.104954 0.641078 0.843693
O O4 0.185904 0.586880 0.938315
O O5 0.632601 0.132567 0.932083
O O6 0.762976 0.124949 0.899170
O O7 0.693524 0.000000 0.913338
O O8 0.708624 0.077555 0.029958
O O9 0.768406 0.088485 0.552635
O O10 0.664482 0.000000 0.546268
O O11 0.103629 0.103629 0.500000
O O12 0.137293 0.138421 0.637794
O O13 0.133816 0.000000 0.593223
O O14 0.793465 0.825911 0.761277
O O15 0.758815 0.763408 0.640557
O O16 0.222066 0.865477 0.133136
O O17 0.267779 0.000000 0.146861
#
# Coordination Sequence:
#
# PCOD9559108 Si02
#       7
#    16  16  16  16  16  16  16
#     4   9  17  30  51  78 107 138 173 214 264 324
#     4  10  19  32  54  80 105 135 174 223 269 309
#     4   9  17  30  51  77 105 140 172 207 260 314
#     4  11  21  34  54  79 108 141 179 218 258 309
#     4  10  20  33  52  75 103 142 182 216 260 312
#     4  10  20  34  52  75 104 138 180 224 259 314
#     4   9  19  33  52  79 106 137 175 220 273 322
#
# _framework density 17.656054000000001
#
# number of rings (size 3 to 8) (size 9 to 14) (size 15 to 20)
#    0.000    2.286    2.857    0.429    0.000    1.857 
#    0.000    2.857    0.000    0.429    0.000    8.000 
#    0.000    0.000    0.000    0.000    0.000    0.000 
#
# Total GULP energy -312097.450954 kJ/mol
# GULP energy per Si atom -5573.168767 kJ/mol
# Density = 1.761587 g / cm^3
# Si number density = 17.656054 Si / 1000 Ang^3
#
#
#
# Elastic Constant Matrix: (Units=GPa)
#
#
# Indices 1 2 3 4 5 6 
#
# 1 95.7919 39.4467 22.3362 0.0000 0.0000 0.0000
# 2 39.4467 95.7919 22.3362 0.0000 0.0000 0.0000
# 3 22.3362 22.3362 33.1623 0.0000 0.0000 0.0000
# 4 0.0000 0.0000 0.0000 12.8235 0.0000 0.0000
# 5 0.0000 0.0000 0.0000 0.0000 12.8235 0.0000
# 6 0.0000 0.0000 0.0000 0.0000 0.0000 14.9655
#
#
#
# Elastic Compliance Matrix: (Units=1/GPa)
#
#
# Indices 1 2 3 4 5 6 
#
# 1 0.013629 -0.004119 -0.006406 0.000000 0.000000 0.000000
# 2 -0.004119 0.013629 -0.006406 0.000000 0.000000 0.000000
# 3 -0.006406 -0.006406 0.038784 0.000000 0.000000 0.000000
# 4 0.000000 0.000000 0.000000 0.077982 0.000000 0.000000
# 5 0.000000 0.000000 0.000000 0.000000 0.077982 0.000000
# 6 0.000000 0.000000 0.000000 0.000000 0.000000 0.066820
#
#
# Mechanical properties :
#
#
# Convention : Reuss Voigt Hill
#
# Bulk Modulus (GPa) = 31.07342 43.66490 37.36916
# Shear Modulus (GPa) = 14.99643 17.49763 16.24703
#
# Velocity S-wave (km/s) = 2.91755 3.15147 3.03676
# Velocity P-wave (km/s) = 5.38395 6.16660 5.78852
#
# Compressibility (1/GPa) = 0.03218185
#
# Stress axis : x y z
#
# Youngs Moduli (GPa) = 73.37303 73.37303 25.78416
#
# Poissons Ratio (x) = 0.30221 0.16516
# Poissons Ratio (y) = 0.30221 0.16516
# Poissons Ratio (z) = 0.46999 0.46999
#
# Static dielectric constant tensor:
#      x y z
#    x 1.598770 0.000000 0.000000 
#    y 0.000000 1.598770 0.000000 
#    z 0.000000 0.000000 1.642960 
# 
# From -- ./inp_files/8053.got.cif
#   From: 2010.05.17/outbox.cif.g08.bks.cpg/sg119_5_cif.got.tgz:8053.got - 2010.05.20 11:21:29.
