data_PCOD9559285
_publ_section_title
;
Structure prediction by ZEFSAII (Michael W. Deem and Ramdas Pophale) SiO2 
 PCOD9559285
Probable space group: I -4 M 2
;
_chemical_formula_sum "Si O2"
_cell_formula_units_Z 112
_cell_length_a 13.880745
_cell_length_b 13.880745
_cell_length_c 27.187918
_cell_angle_alpha 90.000000
_cell_angle_beta 90.000000
_cell_angle_gamma 90.000000
_cell_volume 5238.434323
_symmetry_space_group_name_H-M "I -4 M 2"
_symmetry_group_IT_number 119
_symmetry_cell_setting 'tetragonal'
loop_
_space_group_symop_operation_xyz
x,y,z
y,-x,-z
-x,-y,z
-y,x,-z
y,x,-z
-y,-x,-z
-x,y,z
x,-y,z
1/2+x,1/2+y,1/2+z
1/2+y,1/2-x,1/2-z
1/2-x,1/2-y,1/2+z
1/2-y,1/2+x,1/2-z
1/2+y,1/2+x,1/2-z
1/2-y,1/2-x,1/2-z
1/2-x,1/2+y,1/2+z
1/2+x,1/2-y,1/2+z
loop_
_atom_site_type_symbol
_atom_site_label
_atom_site_fract_x
_atom_site_fract_y
_atom_site_fract_z
Si Si1 0.883971 0.610612 0.803134
Si Si2 0.305284 0.609897 0.145705
Si Si3 0.605924 0.884785 0.604780
Si Si4 0.616062 0.888472 0.495370
Si Si5 0.386491 0.724204 0.747476
Si Si6 0.886720 0.113665 0.854737
Si Si7 0.791411 0.301230 0.599976
O O1 0.851445 0.500000 0.808121
O O2 0.849652 0.650349 0.750000
O O3 0.854995 0.665478 0.852041
O O4 0.000000 0.610090 0.799667
O O5 0.327105 0.500000 0.131400
O O6 0.188620 0.623736 0.144895
O O7 0.335659 0.627242 0.201687
O O8 0.331757 0.693173 0.108003
O O9 0.500000 0.846253 0.617653
O O10 0.639847 0.853150 0.550446
O O11 0.595703 0.000000 0.598317
O O12 0.500000 0.886792 0.492541
O O13 0.658408 0.826935 0.451393
O O14 0.646871 0.000000 0.489741
O O15 0.500000 0.754291 0.747812
O O16 0.313748 0.813748 0.750000
O O17 0.371616 0.658975 0.699387
O O18 0.824107 0.178314 0.891903
O O19 0.000000 0.141528 0.855662
O O20 0.881861 0.000000 0.865934
#
# Coordination Sequence:
#
# PCOD9559285 Si02
#       7
#    16  16  16  16  16  16  16
#     4   9  19  34  52  79 111 139 173 223 281 337
#     4  10  22  36  52  75 108 147 192 237 278 326
#     4   8  16  34  58  82 111 143 176 225 291 349
#     4   9  18  34  58  90 119 139 171 226 289 347
#     4  10  20  37  56  79 110 142 187 241 284 329
#     4  10  22  38  54  76 112 158 196 224 269 335
#     4  12  21  32  57  81 110 147 189 227 278 325
#
# _framework density 21.380433
#
# number of rings (size 3 to 8) (size 9 to 14) (size 15 to 20)
#    0.000    2.286    1.429    3.000    2.000    3.000 
#    0.000    2.143    0.000    2.571    0.000    1.000 
#    0.000   14.857    0.000    0.000    0.000    0.000 
#
# Total GULP energy -312563.419754 kJ/mol
# GULP energy per Si atom -5581.489638 kJ/mol
# Density = 2.133177 g / cm^3
# Si number density = 21.380433 Si / 1000 Ang^3
#
#
#
# Elastic Constant Matrix: (Units=GPa)
#
#
# Indices 1 2 3 4 5 6 
#
# 1 69.8455 9.6249 26.0302 0.0000 0.0000 0.0000
# 2 9.6249 69.8458 26.0302 0.0000 0.0000 0.0000
# 3 26.0302 26.0302 93.9257 0.0000 0.0000 0.0000
# 4 0.0000 0.0000 0.0000 31.9483 0.0000 0.0000
# 5 0.0000 0.0000 0.0000 0.0000 31.9484 0.0000
# 6 0.0000 0.0000 0.0000 0.0000 0.0000 21.7442
#
#
#
# Elastic Compliance Matrix: (Units=1/GPa)
#
#
# Indices 1 2 3 4 5 6 
#
# 1 0.015990 -0.000616 -0.004261 0.000000 0.000000 0.000000
# 2 -0.000616 0.015990 -0.004261 0.000000 0.000000 0.000000
# 3 -0.004261 -0.004261 0.013008 0.000000 0.000000 0.000000
# 4 0.000000 0.000000 0.000000 0.031301 0.000000 0.000000
# 5 0.000000 0.000000 0.000000 0.000000 0.031301 0.000000
# 6 0.000000 0.000000 0.000000 0.000000 0.000000 0.045989
#
#
# Mechanical properties :
#
#
# Convention : Reuss Voigt Hill
#
# Bulk Modulus (GPa) = 37.43344 39.66527 38.54935
# Shear Modulus (GPa) = 27.66131 28.59028 28.12579
#
# Velocity S-wave (km/s) = 3.60080 3.66076 3.63091
# Velocity P-wave (km/s) = 5.90203 6.03827 5.97054
#
# Compressibility (1/GPa) = 0.02671408
#
# Stress axis : x y z
#
# Youngs Moduli (GPa) = 62.53877 62.53908 76.87353
#
# Poissons Ratio (x) = 0.03849 0.32755
# Poissons Ratio (y) = 0.03849 0.32754
# Poissons Ratio (z) = 0.26647 0.26647
#
# Static dielectric constant tensor:
#      x y z
#    x 1.821840 0.000000 0.000000 
#    y 0.000000 1.821840 0.000000 
#    z 0.000000 0.000000 1.740070 
# 
# From -- ./inp_files/9597.got.cif
#   From: 2010.05.17/outbox.cif.g08.bks.cpg/sg119_5_cif.got.tgz:9597.got - 2010.05.20 11:21:29.
