data_PCOD9559163
_publ_section_title
;
Structure prediction by ZEFSAII (Michael W. Deem and Ramdas Pophale) SiO2 
 PCOD9559163
Probable space group: I -4 M 2
;
_chemical_formula_sum "Si O2"
_cell_formula_units_Z 70
_cell_length_a 11.001722
_cell_length_b 11.001722
_cell_length_c 25.258624
_cell_angle_alpha 90.000000
_cell_angle_beta 90.000000
_cell_angle_gamma 90.000000
_cell_volume 3057.250477
_symmetry_space_group_name_H-M "I -4 M 2"
_symmetry_group_IT_number 119
_symmetry_cell_setting 'tetragonal'
loop_
_space_group_symop_operation_xyz
x,y,z
y,-x,-z
-x,-y,z
-y,x,-z
y,x,-z
-y,-x,-z
-x,y,z
x,-y,z
1/2+x,1/2+y,1/2+z
1/2+y,1/2-x,1/2-z
1/2-x,1/2-y,1/2+z
1/2-y,1/2+x,1/2-z
1/2+y,1/2+x,1/2-z
1/2-y,1/2-x,1/2-z
1/2-x,1/2+y,1/2+z
1/2+x,1/2-y,1/2+z
loop_
_atom_site_type_symbol
_atom_site_label
_atom_site_fract_x
_atom_site_fract_y
_atom_site_fract_z
Si Si1 0.273131 0.225739 0.096128
Si Si2 0.000000 0.500000 0.386247
Si Si3 0.133923 0.500000 0.533669
Si Si4 0.500000 0.000000 0.750000
Si Si5 0.000000 0.245811 0.079522
Si Si6 0.734773 0.361289 0.709880
Si Si7 0.000000 0.228245 0.276181
Si Si8 0.000000 0.216987 0.399510
O O1 0.348225 0.120503 0.068311
O O2 0.272892 0.216863 0.159351
O O3 0.313507 0.363162 0.079963
O O4 0.132265 0.189325 0.084988
O O5 0.147166 0.500000 0.375041
O O6 0.000000 0.637725 0.407821
O O7 0.213722 0.500000 0.481410
O O8 0.000000 0.500000 0.511469
O O9 0.624185 0.000000 0.717105
O O10 0.712662 0.500000 0.694206
O O11 0.845736 0.345736 0.750000
O O12 0.616447 0.311880 0.741515
O O13 0.000000 0.182324 0.336724
#
# Coordination Sequence:
#
# PCOD9559163 Si02
#       8
#    16   4   8   2   8  16   8   8
#     4  11  23  44  70 102 139 179 236 293 358 428
#     4   8  17  34  66 101 130 160 209 292 356 415
#     4  12  26  46  69 103 141 186 231 294 367 436
#     4  12  18  32  64  88 120 160 224 292 336 410
#     4  10  21  42  74 102 133 172 226 299 368 421
#     4  12  25  43  63  97 140 189 236 290 349 425
#     4  12  21  37  63  96 132 167 228 288 350 405
#     4  10  19  38  65 101 130 176 229 289 348 412
#
# _framework density 22.896391000000001
#
# number of rings (size 3 to 8) (size 9 to 14) (size 15 to 20)
#    0.000    0.914    5.143    2.057    0.000    3.429 
#    0.000    1.714    0.000    0.000    0.000    0.000 
#    0.000    0.000    0.000    0.000    0.000    0.000 
#
# Total GULP energy -194979.604638 kJ/mol
# GULP energy per Si atom -5570.845847 kJ/mol
# Density = 2.284428 g / cm^3
# Si number density = 22.896391 Si / 1000 Ang^3
#
#
#
# Elastic Constant Matrix: (Units=GPa)
#
#
# Indices 1 2 3 4 5 6 
#
# 1 75.5354 4.6803 7.1751 0.0000 0.0000 0.0000
# 2 4.6803 75.5354 7.1751 0.0000 0.0000 0.0000
# 3 7.1751 7.1751 89.1022 0.0000 0.0000 0.0000
# 4 0.0000 0.0000 0.0000 159.5021 0.0000 0.0000
# 5 0.0000 0.0000 0.0000 0.0000 159.5020 0.0000
# 6 0.0000 0.0000 0.0000 0.0000 0.0000 22.7587
#
#
#
# Elastic Compliance Matrix: (Units=1/GPa)
#
#
# Indices 1 2 3 4 5 6 
#
# 1 0.013381 -0.000732 -0.001019 0.000000 0.000000 0.000000
# 2 -0.000732 0.013381 -0.001019 0.000000 0.000000 0.000000
# 3 -0.001019 -0.001019 0.011387 0.000000 0.000000 0.000000
# 4 0.000000 0.000000 0.000000 0.006270 0.000000 0.000000
# 5 0.000000 0.000000 0.000000 0.000000 0.006270 0.000000
# 6 0.000000 0.000000 0.000000 0.000000 0.000000 0.043939
#
#
# Mechanical properties :
#
#
# Convention : Reuss Voigt Hill
#
# Bulk Modulus (GPa) = 30.66531 30.91486 30.79008
# Shear Modulus (GPa) = 45.03033 83.09539 64.06286
#
# Velocity S-wave (km/s) = 4.43956 6.03081 5.29530
# Velocity P-wave (km/s) = 6.30093 7.87564 7.13188
#
# Compressibility (1/GPa) = 0.03261014
#
# Stress axis : x y z
#
# Youngs Moduli (GPa) = 74.73308 74.73308 87.81864
#
# Poissons Ratio (x) = 0.05473 0.08945
# Poissons Ratio (y) = 0.05473 0.08945
# Poissons Ratio (z) = 0.07612 0.07612
#
# Static dielectric constant tensor:
#      x y z
#    x 0.493550 0.000000 0.000000 
#    y 0.000000 0.493550 0.000000 
#    z 0.000000 0.000000 1.995750 
# 
# From -- ./inp_files/9452.got.cif
#   From: 2010.05.17/outbox.cif.g08.bks.cpg/sg119_5_cif.got.tgz:9452.got - 2010.05.20 11:21:29.
