data_PCOD9559250
_publ_section_title
;
Structure prediction by ZEFSAII (Michael W. Deem and Ramdas Pophale) SiO2 
 PCOD9559250
Probable space group: I -4 M 2
;
_chemical_formula_sum "Si O2"
_cell_formula_units_Z 58
_cell_length_a 18.256806
_cell_length_b 18.256806
_cell_length_c 8.617208
_cell_angle_alpha 90.000000
_cell_angle_beta 90.000000
_cell_angle_gamma 90.000000
_cell_volume 2872.209917
_symmetry_space_group_name_H-M "I -4 M 2"
_symmetry_group_IT_number 119
_symmetry_cell_setting 'tetragonal'
loop_
_space_group_symop_operation_xyz
x,y,z
y,-x,-z
-x,-y,z
-y,x,-z
y,x,-z
-y,-x,-z
-x,y,z
x,-y,z
1/2+x,1/2+y,1/2+z
1/2+y,1/2-x,1/2-z
1/2-x,1/2-y,1/2+z
1/2-y,1/2+x,1/2-z
1/2+y,1/2+x,1/2-z
1/2-y,1/2-x,1/2-z
1/2-x,1/2+y,1/2+z
1/2+x,1/2-y,1/2+z
loop_
_atom_site_type_symbol
_atom_site_label
_atom_site_fract_x
_atom_site_fract_y
_atom_site_fract_z
Si Si1 0.299607 0.415626 0.063098
Si Si2 0.000000 0.500000 0.750000
Si Si3 0.415682 0.000000 0.960067
Si Si4 0.653742 0.836228 0.573840
Si Si5 0.083785 0.807372 0.060243
O O1 0.308101 0.500000 0.013509
O O2 0.220018 0.384704 0.009365
O O3 0.303523 0.415380 0.251826
O O4 0.362401 0.362401 0.000000
O O5 0.072029 0.500000 0.645176
O O6 0.376595 0.075035 0.915159
O O7 0.500000 0.000000 0.906851
O O8 0.678473 0.821528 0.750000
O O9 0.634413 0.758886 0.497276
O O10 0.000000 0.796632 0.010975
O O11 0.117558 0.882443 0.000000
#
# Coordination Sequence:
#
# PCOD9559250 Si02
#       5
#    16   2   8  16  16
#     4  10  22  40  59  88 119 152 201 246 294 356
#     4   8  24  36  42  84 136 156 184 242 268 368
#     4  10  20  35  52  81 121 159 186 230 287 347
#     4  10  20  36  62  88 112 148 194 249 291 352
#     4  10  21  39  59  87 119 150 199 245 294 353
#
# _framework density 20.193508999999999
#
# number of rings (size 3 to 8) (size 9 to 14) (size 15 to 20)
#    0.414    1.655    1.379    1.655    3.862    1.655 
#    4.966    2.759    0.000    0.000    0.000    0.000 
#    0.000    0.000    0.000    0.000    0.000    0.000 
#
# Total GULP energy -161615.443112 kJ/mol
# GULP energy per Si atom -5572.946314 kJ/mol
# Density = 2.014755 g / cm^3
# Si number density = 20.193509 Si / 1000 Ang^3
#
#
#
# Elastic Constant Matrix: (Units=GPa)
#
#
# Indices 1 2 3 4 5 6 
#
# 1 125.0527 103.4677 1.0102 0.0000 0.0000 0.0000
# 2 103.4677 125.0371 1.0128 0.0000 0.0000 0.0000
# 3 1.0102 1.0128 12.3213 0.0000 0.0000 0.0000
# 4 0.0000 0.0000 0.0000 173.1058 0.0000 0.0000
# 5 0.0000 0.0000 0.0000 0.0000 173.0067 0.0000
# 6 0.0000 0.0000 0.0000 0.0000 0.0000 25.8872
#
#
#
# Elastic Compliance Matrix: (Units=1/GPa)
#
#
# Indices 1 2 3 4 5 6 
#
# 1 0.025361 -0.020983 -0.000355 0.000000 0.000000 0.000000
# 2 -0.020983 0.025364 -0.000364 0.000000 0.000000 0.000000
# 3 -0.000355 -0.000364 0.081219 0.000000 0.000000 0.000000
# 4 0.000000 0.000000 0.000000 0.005777 0.000000 0.000000
# 5 0.000000 0.000000 0.000000 0.000000 0.005780 0.000000
# 6 0.000000 0.000000 0.000000 0.000000 0.000000 0.038629
#
#
# Mechanical properties :
#
#
# Convention : Reuss Voigt Hill
#
# Bulk Modulus (GPa) = 11.29439 52.59918 31.94678
# Shear Modulus (GPa) = 19.60422 84.86130 52.23276
#
# Velocity S-wave (km/s) = 3.11918 6.48963 5.09139
# Velocity P-wave (km/s) = 4.31017 9.06961 7.10054
#
# Compressibility (1/GPa) = 0.08853955
#
# Stress axis : x y z
#
# Youngs Moduli (GPa) = 39.43108 39.42603 12.31239
#
# Poissons Ratio (x) = 0.82728 0.00437
# Poissons Ratio (y) = 0.82738 0.00449
# Poissons Ratio (z) = 0.01398 0.01437
#
# Static dielectric constant tensor:
#      x y z
#    x 0.573030 0.000000 0.000000 
#    y 0.000000 0.572260 0.000000 
#    z 0.000000 0.000000 1.747100 
# 
# From -- ./inp_files/2032.got.cif
#   From: 2010.05.17/outbox.cif.g08.bks.cpg/sg119_2_cif.got.tgz:2032.got - 2010.05.20 11:21:29.
