data_PCOD9559743
_publ_section_title
;
Structure prediction by ZEFSAII (Michael W. Deem and Ramdas Pophale) SiO2 
 PCOD9559743
Probable space group: I -4 C 2
;
_chemical_formula_sum "Si O2"
_cell_formula_units_Z 64
_cell_length_a 13.276288
_cell_length_b 13.276288
_cell_length_c 16.522826
_cell_angle_alpha 90.000000
_cell_angle_beta 90.000000
_cell_angle_gamma 90.000000
_cell_volume 2912.310387
_symmetry_space_group_name_H-M "I -4 C 2"
_symmetry_group_IT_number 120
_symmetry_cell_setting 'tetragonal'
loop_
_space_group_symop_operation_xyz
x,y,z
y,-x,-z
-x,-y,z
-y,x,-z
y,x,1/2-z
-y,-x,1/2-z
-x,y,1/2+z
x,-y,1/2+z
1/2+x,1/2+y,1/2+z
1/2+y,1/2-x,1/2-z
1/2-x,1/2-y,1/2+z
1/2-y,1/2+x,1/2-z
1/2+y,1/2+x,-z
1/2-y,1/2-x,-z
1/2-x,1/2+y,z
1/2+x,1/2-y,z
loop_
_atom_site_type_symbol
_atom_site_label
_atom_site_fract_x
_atom_site_fract_y
_atom_site_fract_z
Si Si1 0.288711 0.516426 0.035049
Si Si2 0.250373 0.286910 0.616741
Si Si3 0.928257 0.134476 0.130060
Si Si4 0.884049 0.115952 0.750000
Si Si5 0.641692 0.858308 0.500000
O O1 0.262594 0.632268 0.045395
O O2 0.354710 0.458793 0.103999
O O3 0.348702 0.506162 0.950940
O O4 0.179835 0.467418 0.020618
O O5 0.146888 0.230391 0.640393
O O6 0.294727 0.356829 0.687412
O O7 0.322753 0.200632 0.581266
O O8 0.009065 0.123746 0.202377
#
# Coordination Sequence:
#
# PCOD9559743 Si02
#       5
#    16  16  16   8   8
#     4  11  20  42  70  98 133 181 239 289 342 424
#     4  11  23  43  69  97 142 180 225 294 355 416
#     4  11  24  42  71 103 136 183 234 292 353 415
#     4  12  26  45  68 105 144 180 228 295 360 414
#     4  10  20  40  69  95 128 186 228 282 360 408
#
# _framework density 21.975681000000002
#
# number of rings (size 3 to 8) (size 9 to 14) (size 15 to 20)
#    0.000    1.000    7.500    0.000    0.000    9.500 
#    0.000    2.500    0.000    0.000    0.000    0.000 
#    0.000    0.000    0.000    0.000    0.000    0.000 
#
# Total GULP energy -178268.359609 kJ/mol
# GULP energy per Si atom -5570.886238 kJ/mol
# Density = 2.192566 g / cm^3
# Si number density = 21.975681 Si / 1000 Ang^3
#
#
#
# Elastic Constant Matrix: (Units=GPa)
#
#
# Indices 1 2 3 4 5 6 
#
# 1 169.6795 -26.6666 32.8879 0.0000 0.0000 0.0000
# 2 -26.6666 169.6796 32.8872 0.0000 0.0000 0.0000
# 3 32.8879 32.8872 110.2058 0.0000 0.0000 0.0000
# 4 0.0000 0.0000 0.0000 27.6191 0.0000 0.0000
# 5 0.0000 0.0000 0.0000 0.0000 27.6196 0.0000
# 6 0.0000 0.0000 0.0000 0.0000 0.0000 40.8047
#
#
#
# Elastic Compliance Matrix: (Units=1/GPa)
#
#
# Indices 1 2 3 4 5 6 
#
# 1 0.006599 0.001506 -0.002419 0.000000 0.000000 0.000000
# 2 0.001506 0.006599 -0.002419 0.000000 0.000000 0.000000
# 3 -0.002419 -0.002419 0.010517 0.000000 0.000000 0.000000
# 4 0.000000 0.000000 0.000000 0.036207 0.000000 0.000000
# 5 0.000000 0.000000 0.000000 0.000000 0.036206 0.000000
# 6 0.000000 0.000000 0.000000 0.000000 0.000000 0.024507
#
#
# Mechanical properties :
#
#
# Convention : Reuss Voigt Hill
#
# Bulk Modulus (GPa) = 58.64242 58.64243 58.64243
# Shear Modulus (GPa) = 37.59902 46.57244 42.08573
#
# Velocity S-wave (km/s) = 4.14084 4.60855 4.38094
# Velocity P-wave (km/s) = 7.04309 7.42034 7.23417
#
# Compressibility (1/GPa) = 0.01705250
#
# Stress axis : x y z
#
# Youngs Moduli (GPa) = 151.54017 151.54069 95.08006
#
# Poissons Ratio (x) = -0.22820 0.22996
# Poissons Ratio (y) = -0.22820 0.22996
# Poissons Ratio (z) = 0.36652 0.36652
#
# Static dielectric constant tensor:
#      x y z
#    x 1.836750 0.000000 0.000000 
#    y 0.000000 1.836750 0.000000 
#    z 0.000000 0.000000 1.867470 
# 
# From -- ./inp_files/4194.got.cif
#   From: 2010.05.17/outbox.cif.g08.bks.cpg/sg120_3_cif.got.tgz:4194.got - 2010.05.20 11:28:13.
