data_PCOD9559580
_publ_section_title
;
Structure prediction by ZEFSAII (Michael W. Deem and Ramdas Pophale) SiO2 
 PCOD9559580
Probable space group: I -4 C 2
;
_chemical_formula_sum "Si O2"
_cell_formula_units_Z 92
_cell_length_a 15.161379
_cell_length_b 15.161379
_cell_length_c 21.619968
_cell_angle_alpha 90.000000
_cell_angle_beta 90.000000
_cell_angle_gamma 90.000000
_cell_volume 4969.726117
_symmetry_space_group_name_H-M "I -4 C 2"
_symmetry_group_IT_number 120
_symmetry_cell_setting 'tetragonal'
loop_
_space_group_symop_operation_xyz
x,y,z
y,-x,-z
-x,-y,z
-y,x,-z
y,x,1/2-z
-y,-x,1/2-z
-x,y,1/2+z
x,-y,1/2+z
1/2+x,1/2+y,1/2+z
1/2+y,1/2-x,1/2-z
1/2-x,1/2-y,1/2+z
1/2-y,1/2+x,1/2-z
1/2+y,1/2+x,-z
1/2-y,1/2-x,-z
1/2-x,1/2+y,z
1/2+x,1/2-y,z
loop_
_atom_site_type_symbol
_atom_site_label
_atom_site_fract_x
_atom_site_fract_y
_atom_site_fract_z
Si Si1 0.500000 0.000000 0.750000
Si Si2 0.136009 0.054998 0.693027
Si Si3 0.714371 0.714371 0.750000
Si Si4 0.282930 0.566574 0.874590
Si Si5 0.377157 0.625698 0.134239
Si Si6 0.316589 0.920658 0.254573
Si Si7 0.632240 0.570758 0.502451
O O1 0.405863 0.039230 0.726675
O O2 0.071802 0.071802 0.750000
O O3 0.133830 0.147144 0.656587
O O4 0.231831 0.036018 0.721679
O O5 0.104271 0.975061 0.652334
O O6 0.666093 0.681035 0.811616
O O7 0.817130 0.692988 0.757609
O O8 0.321965 0.468445 0.867185
O O9 0.197400 0.569103 0.829510
O O10 0.296151 0.582912 0.947778
O O11 0.337787 0.617846 0.065637
O O12 0.612401 0.465441 0.511642
#
# Coordination Sequence:
#
# PCOD9559580 Si02
#       7
#     4  16   8  16  16  16  16
#     4  12  24  40  60  88 114 160 212 256 318 352
#     4  10  18  32  53  82 115 147 178 231 293 351
#     4  12  22  38  53  85 116 144 200 250 308 350
#     4  10  18  34  54  82 120 150 182 227 295 359
#     4  11  20  30  55  86 114 148 184 227 293 365
#     4  11  23  39  57  80 115 152 197 258 299 358
#     4   9  17  30  50  82 121 153 179 222 286 364
#
# _framework density 18.512086
#
# number of rings (size 3 to 8) (size 9 to 14) (size 15 to 20)
#    0.000    1.565    4.348    4.696    0.000    2.087 
#    0.000    0.870    0.000    0.000    0.000    8.522 
#    0.000    0.000    0.000    0.000    0.000    0.000 
#
# Total GULP energy -256123.813026 kJ/mol
# GULP energy per Si atom -5567.908979 kJ/mol
# Density = 1.846995 g / cm^3
# Si number density = 18.512086 Si / 1000 Ang^3
#
#
#
# Elastic Constant Matrix: (Units=GPa)
#
#
# Indices 1 2 3 4 5 6 
#
# 1 52.8220 7.2127 13.4460 0.0000 0.0000 0.0000
# 2 7.2127 52.8220 13.4460 0.0000 0.0000 0.0000
# 3 13.4460 13.4460 118.5083 0.0000 0.0000 0.0000
# 4 0.0000 0.0000 0.0000 9.9533 0.0000 0.0000
# 5 0.0000 0.0000 0.0000 0.0000 9.9533 0.0000
# 6 0.0000 0.0000 0.0000 0.0000 0.0000 24.1626
#
#
#
# Elastic Compliance Matrix: (Units=1/GPa)
#
#
# Indices 1 2 3 4 5 6 
#
# 1 0.019737 -0.002188 -0.001991 0.000000 0.000000 0.000000
# 2 -0.002188 0.019737 -0.001991 0.000000 0.000000 0.000000
# 3 -0.001991 -0.001991 0.008890 0.000000 0.000000 0.000000
# 4 0.000000 0.000000 0.000000 0.100470 0.000000 0.000000
# 5 0.000000 0.000000 0.000000 0.000000 0.100470 0.000000
# 6 0.000000 0.000000 0.000000 0.000000 0.000000 0.041386
#
#
# Mechanical properties :
#
#
# Convention : Reuss Voigt Hill
#
# Bulk Modulus (GPa) = 27.75967 32.48464 30.12216
# Shear Modulus (GPa) = 15.87108 21.48367 18.67737
#
# Velocity S-wave (km/s) = 2.93121 3.41034 3.17981
# Velocity P-wave (km/s) = 5.14626 5.75266 5.45789
#
# Compressibility (1/GPa) = 0.03602349
#
# Stress axis : x y z
#
# Youngs Moduli (GPa) = 50.66586 50.66586 112.48530
#
# Poissons Ratio (x) = 0.11087 0.22397
# Poissons Ratio (y) = 0.11087 0.22397
# Poissons Ratio (z) = 0.10088 0.10088
#
# Static dielectric constant tensor:
#      x y z
#    x 1.655910 0.000000 0.000000 
#    y 0.000000 1.655910 0.000000 
#    z 0.000000 0.000000 1.711080 
# 
# From -- ./inp_files/5406.got.cif
#   From: 2010.05.17/outbox.cif.g08.bks.cpg/sg120_3_cif.got.tgz:5406.got - 2010.05.20 11:28:13.
