data_PCOD9559474
_publ_section_title
;
Structure prediction by ZEFSAII (Michael W. Deem and Ramdas Pophale) SiO2 
 PCOD9559474
Probable space group: I -4 M 2
;
_chemical_formula_sum "Si O2"
_cell_formula_units_Z 64
_cell_length_a 18.780525
_cell_length_b 18.780525
_cell_length_c 9.421509
_cell_angle_alpha 90.000000
_cell_angle_beta 90.000000
_cell_angle_gamma 90.000000
_cell_volume 3323.042720
_symmetry_space_group_name_H-M "I -4 M 2"
_symmetry_group_IT_number 119
_symmetry_cell_setting 'tetragonal'
loop_
_space_group_symop_operation_xyz
x,y,z
y,-x,-z
-x,-y,z
-y,x,-z
y,x,-z
-y,-x,-z
-x,y,z
x,-y,z
1/2+x,1/2+y,1/2+z
1/2+y,1/2-x,1/2-z
1/2-x,1/2-y,1/2+z
1/2-y,1/2+x,1/2-z
1/2+y,1/2+x,1/2-z
1/2-y,1/2-x,1/2-z
1/2-x,1/2+y,1/2+z
1/2+x,1/2-y,1/2+z
loop_
_atom_site_type_symbol
_atom_site_label
_atom_site_fract_x
_atom_site_fract_y
_atom_site_fract_z
Si Si1 0.419047 0.175766 0.043675
Si Si2 0.288474 0.081349 0.120261
Si Si3 0.418516 0.373289 0.357871
Si Si4 0.676055 0.418582 0.100479
O O1 0.500000 0.145882 0.024979
O O2 0.350976 0.124395 0.043019
O O3 0.416708 0.202962 0.207742
O O4 0.410431 0.240100 0.931881
O O5 0.207040 0.102952 0.097778
O O6 0.295520 0.000000 0.074563
O O7 0.418432 0.418432 0.500000
O O8 0.500000 0.370779 0.298173
O O9 0.358993 0.403486 0.252337
O O10 0.659201 0.500000 0.061214
O O11 0.636195 0.363806 0.000000
#
# Coordination Sequence:
#
# PCOD9559474 Si02
#       4
#    16  16  16  16
#     4   9  18  34  56  84 115 146 188 238 286 346
#     4   9  18  35  56  81 116 150 185 236 289 343
#     4  11  23  39  56  81 117 155 196 243 292 346
#     4  11  21  35  56  82 113 149 192 241 288 340
#
# _framework density 19.259457000000001
#
# number of rings (size 3 to 8) (size 9 to 14) (size 15 to 20)
#    0.000    2.000    2.500    1.500    0.000    4.500 
#    0.000    2.500    0.000    0.000    0.000    0.000 
#    0.000    8.000    0.000    0.000    0.000    0.000 
#
# Total GULP energy -178256.905089 kJ/mol
# GULP energy per Si atom -5570.528284 kJ/mol
# Density = 1.921562 g / cm^3
# Si number density = 19.259457 Si / 1000 Ang^3
#
#
#
# Elastic Constant Matrix: (Units=GPa)
#
#
# Indices 1 2 3 4 5 6 
#
# 1 59.7371 33.9022 -0.8268 0.0000 0.0000 0.0000
# 2 33.9022 59.7363 -0.8280 0.0000 0.0000 0.0000
# 3 -0.8268 -0.8280 51.9963 0.0000 0.0000 0.0000
# 4 0.0000 0.0000 0.0000 1.7026 0.0000 0.0000
# 5 0.0000 0.0000 0.0000 0.0000 1.7111 0.0000
# 6 0.0000 0.0000 0.0000 0.0000 0.0000 38.2841
#
#
#
# Elastic Compliance Matrix: (Units=1/GPa)
#
#
# Indices 1 2 3 4 5 6 
#
# 1 0.024695 -0.014013 0.000170 0.000000 0.000000 0.000000
# 2 -0.014013 0.024695 0.000170 0.000000 0.000000 0.000000
# 3 0.000170 0.000170 0.019238 0.000000 0.000000 0.000000
# 4 0.000000 0.000000 0.000000 0.587336 0.000000 0.000000
# 5 0.000000 0.000000 0.000000 0.000000 0.584427 0.000000
# 6 0.000000 0.000000 0.000000 0.000000 0.000000 0.026120
#
#
# Mechanical properties :
#
#
# Convention : Reuss Voigt Hill
#
# Bulk Modulus (GPa) = 24.22357 26.21830 25.22094
# Shear Modulus (GPa) = 3.82375 17.62104 10.72239
#
# Velocity S-wave (km/s) = 1.41057 3.02806 2.36208
# Velocity P-wave (km/s) = 3.90611 5.08609 4.53465
#
# Compressibility (1/GPa) = 0.04128210
#
# Stress axis : x y z
#
# Youngs Moduli (GPa) = 40.49411 40.49355 51.98167
#
# Poissons Ratio (x) = 0.56743 -0.00881
# Poissons Ratio (y) = 0.56744 -0.00886
# Poissons Ratio (z) = -0.00686 -0.00690
#
# Static dielectric constant tensor:
#      x y z
#    x 1.792360 0.000000 0.000000 
#    y 0.000000 1.792340 0.000000 
#    z 0.000000 0.000000 1.693670 
# 
# From -- ./inp_files/2287.got.cif
#   From: 2010.05.17/outbox.cif.g08.bks.cpg/sg119_2_cif.got.tgz:2287.got - 2010.05.20 11:21:29.
