data_PCOD9559371
_publ_section_title
;
Structure prediction by ZEFSAII (Michael W. Deem and Ramdas Pophale) SiO2 
 PCOD9559371
Probable space group: I -4 M 2
;
_chemical_formula_sum "Si O2"
_cell_formula_units_Z 116
_cell_length_a 16.572918
_cell_length_b 16.572918
_cell_length_c 21.410256
_cell_angle_alpha 90.000000
_cell_angle_beta 90.000000
_cell_angle_gamma 90.000000
_cell_volume 5880.575406
_symmetry_space_group_name_H-M "I -4 M 2"
_symmetry_group_IT_number 119
_symmetry_cell_setting 'tetragonal'
loop_
_space_group_symop_operation_xyz
x,y,z
y,-x,-z
-x,-y,z
-y,x,-z
y,x,-z
-y,-x,-z
-x,y,z
x,-y,z
1/2+x,1/2+y,1/2+z
1/2+y,1/2-x,1/2-z
1/2-x,1/2-y,1/2+z
1/2-y,1/2+x,1/2-z
1/2+y,1/2+x,1/2-z
1/2-y,1/2-x,1/2-z
1/2-x,1/2+y,1/2+z
1/2+x,1/2-y,1/2+z
loop_
_atom_site_type_symbol
_atom_site_label
_atom_site_fract_x
_atom_site_fract_y
_atom_site_fract_z
Si Si1 0.868992 0.372158 0.558164
Si Si2 0.092030 0.337848 0.190913
Si Si3 0.090319 0.674749 0.422885
Si Si4 0.162391 0.181773 0.570538
Si Si5 0.594256 0.349426 0.674444
Si Si6 0.317511 0.409849 0.552393
Si Si7 0.500000 0.000000 0.100647
Si Si8 0.592224 0.403992 0.809450
O O1 0.899589 0.374541 0.486586
O O2 0.861932 0.276003 0.572825
O O3 0.778016 0.403440 0.560270
O O4 0.929210 0.428248 0.596985
O O5 0.148796 0.351205 0.250000
O O6 0.118342 0.397200 0.136254
O O7 0.097805 0.246729 0.166323
O O8 0.000000 0.352147 0.210789
O O9 0.159715 0.743102 0.420588
O O10 0.000000 0.711205 0.422449
O O11 0.147852 0.147852 0.500000
O O12 0.119010 0.138372 0.627808
O O13 0.500000 0.374646 0.672598
O O14 0.641490 0.391073 0.618624
O O15 0.625343 0.369071 0.744213
O O16 0.347804 0.347804 0.500000
O O17 0.339624 0.500000 0.531345
O O18 0.500000 0.373701 0.815051
O O19 0.591132 0.500000 0.803164
#
# Coordination Sequence:
#
# PCOD9559371 Si02
#       8
#    16  16  16  16  16  16   4  16
#     4  11  24  42  63  93 126 168 216 263 318 390
#     4  11  23  36  55  84 121 167 216 267 316 374
#     4  11  22  37  60  87 128 170 209 254 319 390
#     4  10  22  39  63  93 125 161 210 264 318 376
#     4  10  22  41  62  87 126 172 218 262 320 394
#     4  12  24  40  64  96 131 165 213 272 323 375
#     4  12  24  44  68  92 126 172 212 260 328 382
#     4  10  21  37  60  90 125 165 212 265 326 396
#
# _framework density 19.725961999999999
#
# number of rings (size 3 to 8) (size 9 to 14) (size 15 to 20)
#    0.000    1.241    1.379    5.379    1.931    5.793 
#    0.000    0.690    0.000    0.000    0.000    1.931 
#    0.000    0.000    0.000    0.000    0.000    0.000 
#
# Total GULP energy -323417.121006 kJ/mol
# GULP energy per Si atom -5576.157259 kJ/mol
# Density = 1.968106 g / cm^3
# Si number density = 19.725962 Si / 1000 Ang^3
#
#
#
# Elastic Constant Matrix: (Units=GPa)
#
#
# Indices 1 2 3 4 5 6 
#
# 1 81.0427 25.7533 31.3273 0.0000 0.0000 0.0000
# 2 25.7533 81.0437 31.3269 0.0000 0.0000 0.0000
# 3 31.3273 31.3269 70.2255 0.0000 0.0000 0.0000
# 4 0.0000 0.0000 0.0000 68.9638 0.0000 0.0000
# 5 0.0000 0.0000 0.0000 0.0000 68.9709 0.0000
# 6 0.0000 0.0000 0.0000 0.0000 0.0000 27.0751
#
#
#
# Elastic Compliance Matrix: (Units=1/GPa)
#
#
# Indices 1 2 3 4 5 6 
#
# 1 0.015385 -0.002702 -0.005658 0.000000 0.000000 0.000000
# 2 -0.002702 0.015384 -0.005658 0.000000 0.000000 0.000000
# 3 -0.005658 -0.005658 0.019288 0.000000 0.000000 0.000000
# 4 0.000000 0.000000 0.000000 0.014500 0.000000 0.000000
# 5 0.000000 0.000000 0.000000 0.000000 0.014499 0.000000
# 6 0.000000 0.000000 0.000000 0.000000 0.000000 0.036934
#
#
# Mechanical properties :
#
#
# Convention : Reuss Voigt Hill
#
# Bulk Modulus (GPa) = 45.40841 45.45852 45.43346
# Shear Modulus (GPa) = 33.03259 42.59558 37.81409
#
# Velocity S-wave (km/s) = 4.09660 4.65194 4.38307
# Velocity P-wave (km/s) = 6.74134 7.20757 6.97835
#
# Compressibility (1/GPa) = 0.02202235
#
# Stress axis : x y z
#
# Youngs Moduli (GPa) = 64.99922 65.00057 51.84695
#
# Poissons Ratio (x) = 0.17562 0.29334
# Poissons Ratio (y) = 0.17562 0.29333
# Poissons Ratio (z) = 0.36775 0.36775
#
# Static dielectric constant tensor:
#      x y z
#    x 1.673640 0.000000 0.000000 
#    y 0.000000 1.673640 0.000000 
#    z 0.000000 0.000000 1.676910 
# 
# From -- ./inp_files/6783.got.cif
#   From: 2010.05.17/outbox.cif.g08.bks.cpg/sg119_4_cif.got.tgz:6783.got - 2010.05.20 11:21:29.
