data_PCOD9559261
_publ_section_title
;
Structure prediction by ZEFSAII (Michael W. Deem and Ramdas Pophale) SiO2 
 PCOD9559261
Probable space group: I -4 M 2
;
_chemical_formula_sum "Si O2"
_cell_formula_units_Z 72
_cell_length_a 23.131544
_cell_length_b 23.131544
_cell_length_c 7.590246
_cell_angle_alpha 90.000000
_cell_angle_beta 90.000000
_cell_angle_gamma 90.000000
_cell_volume 4061.300235
_symmetry_space_group_name_H-M "I -4 M 2"
_symmetry_group_IT_number 119
_symmetry_cell_setting 'tetragonal'
loop_
_space_group_symop_operation_xyz
x,y,z
y,-x,-z
-x,-y,z
-y,x,-z
y,x,-z
-y,-x,-z
-x,y,z
x,-y,z
1/2+x,1/2+y,1/2+z
1/2+y,1/2-x,1/2-z
1/2-x,1/2-y,1/2+z
1/2-y,1/2+x,1/2-z
1/2+y,1/2+x,1/2-z
1/2-y,1/2-x,1/2-z
1/2-x,1/2+y,1/2+z
1/2+x,1/2-y,1/2+z
loop_
_atom_site_type_symbol
_atom_site_label
_atom_site_fract_x
_atom_site_fract_y
_atom_site_fract_z
Si Si1 0.566141 0.880415 0.902619
Si Si2 0.663195 0.568661 0.977755
Si Si3 0.241657 0.430236 0.264401
Si Si4 0.128576 0.628576 0.750000
Si Si5 0.430577 0.246491 0.326018
O O1 0.500000 0.872053 0.956419
O O2 0.572919 0.927082 0.750000
O O3 0.587847 0.820296 0.814577
O O4 0.602747 0.897581 0.071678
O O5 0.652467 0.500000 0.994923
O O6 0.696521 0.577686 0.792282
O O7 0.605975 0.605975 0.000000
O O8 0.707795 0.587288 0.131642
O O9 0.240338 0.500000 0.261723
O O10 0.251861 0.414549 0.467954
O O11 0.195168 0.608825 0.751831
O O12 0.500000 0.232059 0.313557
#
# Coordination Sequence:
#
# PCOD9559261 Si02
#       5
#    16  16  16   8  16
#     4  11  22  35  54  80 114 154 199 245 295 345
#     4  10  21  38  62  90 118 147 186 234 288 356
#     4   9  18  35  57  79 107 150 195 230 273 341
#     4  12  20  32  60  83 110 150 200 248 284 336
#     4  10  20  35  58  84 110 153 202 237 281 342
#
# _framework density 17.728311000000001
#
# number of rings (size 3 to 8) (size 9 to 14) (size 15 to 20)
#    0.000    1.778    4.444    0.667    0.000    2.222 
#    0.000    0.000    7.333    3.000    0.000    6.222 
#    0.000    0.000    0.000    0.000    0.000    0.000 
#
# Total GULP energy -200710.734640 kJ/mol
# GULP energy per Si atom -5575.298184 kJ/mol
# Density = 1.768796 g / cm^3
# Si number density = 17.728311 Si / 1000 Ang^3
#
#
#
# Elastic Constant Matrix: (Units=GPa)
#
#
# Indices 1 2 3 4 5 6 
#
# 1 58.6574 39.3405 19.8066 0.0000 0.0000 0.0000
# 2 39.3405 58.6555 19.8061 0.0000 0.0000 0.0000
# 3 19.8066 19.8061 113.1274 0.0000 0.0000 0.0000
# 4 0.0000 0.0000 0.0000 19.8890 0.0000 0.0000
# 5 0.0000 0.0000 0.0000 0.0000 19.8892 0.0000
# 6 0.0000 0.0000 0.0000 0.0000 0.0000 27.4791
#
#
#
# Elastic Compliance Matrix: (Units=1/GPa)
#
#
# Indices 1 2 3 4 5 6 
#
# 1 0.031376 -0.020395 -0.001923 0.000000 0.000000 0.000000
# 2 -0.020395 0.031377 -0.001923 0.000000 0.000000 0.000000
# 3 -0.001923 -0.001923 0.009513 0.000000 0.000000 0.000000
# 4 0.000000 0.000000 0.000000 0.050279 0.000000 0.000000
# 5 0.000000 0.000000 0.000000 0.000000 0.050278 0.000000
# 6 0.000000 0.000000 0.000000 0.000000 0.000000 0.036391
#
#
# Mechanical properties :
#
#
# Convention : Reuss Voigt Hill
#
# Bulk Modulus (GPa) = 42.04265 43.14963 42.59614
# Shear Modulus (GPa) = 18.82371 23.55060 21.18715
#
# Velocity S-wave (km/s) = 3.26204 3.64870 3.46078
# Velocity P-wave (km/s) = 6.16071 6.49176 6.32840
#
# Compressibility (1/GPa) = 0.02378537
#
# Stress axis : x y z
#
# Youngs Moduli (GPa) = 31.87175 31.87079 105.12120
#
# Poissons Ratio (x) = 0.64999 0.20212
# Poissons Ratio (y) = 0.65001 0.20211
# Poissons Ratio (z) = 0.06128 0.06128
#
# Static dielectric constant tensor:
#      x y z
#    x 1.597310 0.000000 0.000000 
#    y 0.000000 1.597310 0.000000 
#    z 0.000000 0.000000 1.632900 
# 
# From -- ./inp_files/2435.got.cif
#   From: 2010.05.17/outbox.cif.g08.bks.cpg/sg119_2_cif.got.tgz:2435.got - 2010.05.20 11:21:29.
