data_PCOD9559346
_publ_section_title
;
Structure prediction by ZEFSAII (Michael W. Deem and Ramdas Pophale) SiO2 
 PCOD9559346
Probable space group: I -4 M 2
;
_chemical_formula_sum "Si O2"
_cell_formula_units_Z 50
_cell_length_a 8.100914
_cell_length_b 8.100914
_cell_length_c 38.199084
_cell_angle_alpha 90.000000
_cell_angle_beta 90.000000
_cell_angle_gamma 90.000000
_cell_volume 2506.807539
_symmetry_space_group_name_H-M "I -4 M 2"
_symmetry_group_IT_number 119
_symmetry_cell_setting 'tetragonal'
loop_
_space_group_symop_operation_xyz
x,y,z
y,-x,-z
-x,-y,z
-y,x,-z
y,x,-z
-y,-x,-z
-x,y,z
x,-y,z
1/2+x,1/2+y,1/2+z
1/2+y,1/2-x,1/2-z
1/2-x,1/2-y,1/2+z
1/2-y,1/2+x,1/2-z
1/2+y,1/2+x,1/2-z
1/2-y,1/2-x,1/2-z
1/2-x,1/2+y,1/2+z
1/2+x,1/2-y,1/2+z
loop_
_atom_site_type_symbol
_atom_site_label
_atom_site_fract_x
_atom_site_fract_y
_atom_site_fract_z
Si Si1 0.189458 0.694310 0.353244
Si Si2 0.500000 0.000000 0.250000
Si Si3 0.191959 0.187017 0.571861
Si Si4 0.500000 0.296095 0.304928
Si Si5 0.188509 0.811492 0.000000
O O1 0.173735 0.500000 0.347468
O O2 0.249331 0.720397 0.393239
O O3 0.334282 0.747824 0.327092
O O4 0.000000 0.764302 0.349973
O O5 0.500000 0.170686 0.272352
O O6 0.210820 0.275455 0.534906
O O7 0.000000 0.183524 0.580846
O O8 0.252740 0.000000 0.565994
O O9 0.500000 0.500000 0.298707
O O10 0.000000 0.786019 0.010614
#
# Coordination Sequence:
#
# PCOD9559346 Si02
#       5
#    16   2  16   8   8
#     4   9  19  38  64  91 122 163 207 257 315 377
#     4  12  28  44  68 104 132 172 212 260 332 392
#     4  10  21  36  56  83 113 150 199 256 311 366
#     4  10  24  44  66  98 134 166 212 264 314 386
#     4  11  24  37  50  74 112 159 204 251 308 366
#
# _framework density 19.945688000000001
#
# number of rings (size 3 to 8) (size 9 to 14) (size 15 to 20)
#    0.000    2.080    0.000    1.920    4.480    6.400 
#    0.000    0.000    0.000    0.000    0.000    0.000 
#    0.000    0.000    0.000    0.000    0.000    0.000 
#
# Total GULP energy -139259.015161 kJ/mol
# GULP energy per Si atom -5570.360606 kJ/mol
# Density = 1.990029 g / cm^3
# Si number density = 19.945688 Si / 1000 Ang^3
#
#
#
# Elastic Constant Matrix: (Units=GPa)
#
#
# Indices 1 2 3 4 5 6 
#
# 1 64.0901 17.7805 42.2630 0.0000 0.0000 0.0000
# 2 17.7805 64.0901 42.2635 0.0000 0.0000 0.0000
# 3 42.2630 42.2635 103.7273 0.0000 0.0000 0.0000
# 4 0.0000 0.0000 0.0000 43.2901 0.0000 0.0000
# 5 0.0000 0.0000 0.0000 0.0000 43.2901 0.0000
# 6 0.0000 0.0000 0.0000 0.0000 0.0000 14.0079
#
#
#
# Elastic Compliance Matrix: (Units=1/GPa)
#
#
# Indices 1 2 3 4 5 6 
#
# 1 0.021339 -0.000255 -0.008590 0.000000 0.000000 0.000000
# 2 -0.000255 0.021339 -0.008590 0.000000 0.000000 0.000000
# 3 -0.008590 -0.008590 0.016641 0.000000 0.000000 0.000000
# 4 0.000000 0.000000 0.000000 0.023100 0.000000 0.000000
# 5 0.000000 0.000000 0.000000 0.000000 0.023100 0.000000
# 6 0.000000 0.000000 0.000000 0.000000 0.000000 0.071388
#
#
# Mechanical properties :
#
#
# Convention : Reuss Voigt Hill
#
# Bulk Modulus (GPa) = 40.90595 48.50238 44.70417
# Shear Modulus (GPa) = 22.73483 28.75765 25.74624
#
# Velocity S-wave (km/s) = 3.37981 3.80122 3.59669
# Velocity P-wave (km/s) = 5.98197 6.60573 6.30158
#
# Compressibility (1/GPa) = 0.02444632
#
# Stress axis : x y z
#
# Youngs Moduli (GPa) = 46.86359 46.86321 60.09293
#
# Poissons Ratio (x) = 0.01196 0.51622
# Poissons Ratio (y) = 0.01196 0.51623
# Poissons Ratio (z) = 0.40257 0.40258
#
# Static dielectric constant tensor:
#      x y z
#    x 1.701150 0.000000 0.000000 
#    y 0.000000 1.701150 0.000000 
#    z 0.000000 0.000000 1.601630 
# 
# From -- ./inp_files/9914.got.cif
#   From: 2010.05.17/outbox.cif.g08.bks.cpg/sg119_5_cif.got.tgz:9914.got - 2010.05.20 11:21:29.
