data_PCOD9559537
_publ_section_title
;
Structure prediction by ZEFSAII (Michael W. Deem and Ramdas Pophale) SiO2 
 PCOD9559537
Probable space group: I -4 M 2
;
_chemical_formula_sum "Si O2"
_cell_formula_units_Z 80
_cell_length_a 22.477432
_cell_length_b 22.477432
_cell_length_c 6.743139
_cell_angle_alpha 90.000000
_cell_angle_beta 90.000000
_cell_angle_gamma 90.000000
_cell_volume 3406.869491
_symmetry_space_group_name_H-M "I -4 M 2"
_symmetry_group_IT_number 119
_symmetry_cell_setting 'tetragonal'
loop_
_space_group_symop_operation_xyz
x,y,z
y,-x,-z
-x,-y,z
-y,x,-z
y,x,-z
-y,-x,-z
-x,y,z
x,-y,z
1/2+x,1/2+y,1/2+z
1/2+y,1/2-x,1/2-z
1/2-x,1/2-y,1/2+z
1/2-y,1/2+x,1/2-z
1/2+y,1/2+x,1/2-z
1/2-y,1/2-x,1/2-z
1/2-x,1/2+y,1/2+z
1/2+x,1/2-y,1/2+z
loop_
_atom_site_type_symbol
_atom_site_label
_atom_site_fract_x
_atom_site_fract_y
_atom_site_fract_z
Si Si1 0.853228 0.068392 0.773399
Si Si2 0.928734 0.724765 0.146441
Si Si3 0.595880 0.068882 0.983045
Si Si4 0.302613 0.929862 0.416747
Si Si5 0.679107 0.431952 0.802177
O O1 0.793099 0.086686 0.890499
O O2 0.833694 0.067147 0.540581
O O3 0.900253 0.121305 0.787307
O O4 0.872178 0.000000 0.817218
O O5 0.920903 0.667340 0.010023
O O6 0.903585 0.706812 0.361859
O O7 0.000000 0.727221 0.168991
O O8 0.576011 0.076011 0.750000
O O9 0.570848 0.125812 0.099587
O O10 0.581830 0.000000 0.035357
O O11 0.246333 0.904965 0.291852
O O12 0.288837 0.000000 0.414486
O O13 0.679851 0.500000 0.731681
#
# Coordination Sequence:
#
# PCOD9559537 Si02
#       5
#    16  16  16  16  16
#     4   8  12  18  27  36  47  65  90 116 137 159
#     4   7  11  18  25  34  47  63  86 114 139 161
#     4   9  14  18  25  36  50  69  94 119 137 156
#     4   8  13  19  24  32  49  71  93 115 136 156
#     4   8  13  19  25  34  49  69  92 115 137 159
#
# _framework density 23.481966
#
# number of rings (size 3 to 8) (size 9 to 14) (size 15 to 20)
#    0.000    4.000    0.000    4.200    0.000    1.800 
#    0.000    2.000    0.000    0.000    0.000    0.000 
#    0.000    0.000    0.000    1.800    0.000  117.000 
#
# Total GULP energy -222842.838960 kJ/mol
# GULP energy per Si atom -5571.070974 kJ/mol
# Density = 2.342852 g / cm^3
# Si number density = 23.481966 Si / 1000 Ang^3
#
#
#
# Elastic Constant Matrix: (Units=GPa)
#
#
# Indices 1 2 3 4 5 6 
#
# 1 154.1060 80.6206 33.0412 0.0000 0.0000 0.0000
# 2 80.6206 154.1060 33.0412 0.0000 0.0000 0.0000
# 3 33.0412 33.0412 83.6665 0.0000 0.0000 0.0000
# 4 0.0000 0.0000 0.0000 36.3960 0.0000 0.0000
# 5 0.0000 0.0000 0.0000 0.0000 36.3960 0.0000
# 6 0.0000 0.0000 0.0000 0.0000 0.0000 -47.1617
#
#
#
# Elastic Compliance Matrix: (Units=1/GPa)
#
#
# Indices 1 2 3 4 5 6 
#
# 1 0.009201 -0.004407 -0.001893 0.000000 0.000000 0.000000
# 2 -0.004407 0.009201 -0.001893 0.000000 0.000000 0.000000
# 3 -0.001893 -0.001893 0.013447 0.000000 0.000000 0.000000
# 4 0.000000 0.000000 0.000000 0.027476 0.000000 0.000000
# 5 0.000000 0.000000 0.000000 0.000000 0.027476 0.000000
# 6 0.000000 0.000000 0.000000 0.000000 0.000000 -0.021204
#
#
# Mechanical properties :
#
#
# Convention : Reuss Voigt Hill
#
# Bulk Modulus (GPa) = 64.67449 76.14272 70.40860
# Shear Modulus (GPa) = 57.38118 21.47111 39.42615
#
# Velocity S-wave (km/s) = 4.94867 3.02713 4.10200
# Velocity P-wave (km/s) = 7.76237 6.68689 7.24461
#
# Compressibility (1/GPa) = 0.01546205
#
# Stress axis : x y z
#
# Youngs Moduli (GPa) = 108.68777 108.68777 74.36446
#
# Poissons Ratio (x) = 0.47904 0.14076
# Poissons Ratio (y) = 0.47904 0.14076
# Poissons Ratio (z) = 0.20574 0.20574
#
# Static dielectric constant tensor:
#      x y z
#    x 1.873010 0.000000 0.000000 
#    y 0.000000 1.873010 0.000000 
#    z 0.000000 0.000000 2.097570 
# 
# From -- ./inp_files/5461.got.cif
#   From: 2010.05.17/outbox.cif.g08.bks.cpg/sg119_3_cif.got.tgz:5461.got - 2010.05.20 11:21:29.
