data_PCOD9559863
_publ_section_title
;
Structure prediction by ZEFSAII (Michael W. Deem and Ramdas Pophale) SiO2 
 PCOD9559863
Probable space group: I -4 C 2
;
_chemical_formula_sum "Si O2"
_cell_formula_units_Z 40
_cell_length_a 8.701835
_cell_length_b 8.701835
_cell_length_c 22.598067
_cell_angle_alpha 90.000000
_cell_angle_beta 90.000000
_cell_angle_gamma 90.000000
_cell_volume 1711.169301
_symmetry_space_group_name_H-M "I -4 C 2"
_symmetry_group_IT_number 120
_symmetry_cell_setting 'tetragonal'
loop_
_space_group_symop_operation_xyz
x,y,z
y,-x,-z
-x,-y,z
-y,x,-z
y,x,1/2-z
-y,-x,1/2-z
-x,y,1/2+z
x,-y,1/2+z
1/2+x,1/2+y,1/2+z
1/2+y,1/2-x,1/2-z
1/2-x,1/2-y,1/2+z
1/2-y,1/2+x,1/2-z
1/2+y,1/2+x,-z
1/2-y,1/2-x,-z
1/2-x,1/2+y,z
1/2+x,1/2-y,z
loop_
_atom_site_type_symbol
_atom_site_label
_atom_site_fract_x
_atom_site_fract_y
_atom_site_fract_z
Si Si1 0.435877 0.750458 0.652172
Si Si2 0.000000 0.000000 0.500000
Si Si3 0.707083 0.535726 0.606658
Si Si4 0.500000 0.000000 0.250000
O O1 0.585831 0.664555 0.628551
O O2 0.315580 0.607003 0.651571
O O3 0.367814 0.879196 0.608281
O O4 0.463462 0.848424 0.710977
O O5 0.016044 0.853660 0.457139
#
# Coordination Sequence:
#
# PCOD9559863 Si02
#       4
#    16   4  16   4
#     4  10  23  39  62  90 126 163 219 262 319 389
#     4   8  20  40  68  90 132 168 204 272 340 370
#     4  10  22  42  63  96 126 164 216 270 320 403
#     4  12  24  44  64  90 132 184 216 280 336 374
#
# _framework density 23.375827999999998
#
# number of rings (size 3 to 8) (size 9 to 14) (size 15 to 20)
#    0.000    2.400    0.000    2.400    0.000   12.800 
#    0.000   12.000    0.000   28.800    0.000    0.000 
#    0.000    0.000    0.000    0.000    0.000    0.000 
#
# Total GULP energy -111599.887504 kJ/mol
# GULP energy per Si atom -5579.994375 kJ/mol
# Density = 2.332262 g / cm^3
# Si number density = 23.375828 Si / 1000 Ang^3
#
#
#
# Elastic Constant Matrix: (Units=GPa)
#
#
# Indices 1 2 3 4 5 6 
#
# 1 91.2763 81.5428 38.5948 0.0000 0.0000 0.0000
# 2 81.5428 91.2763 38.5948 0.0000 0.0000 0.0000
# 3 38.5948 38.5948 120.7324 0.0000 0.0000 0.0000
# 4 0.0000 0.0000 0.0000 27.8660 0.0000 0.0000
# 5 0.0000 0.0000 0.0000 0.0000 27.8660 0.0000
# 6 0.0000 0.0000 0.0000 0.0000 0.0000 63.4672
#
#
#
# Elastic Compliance Matrix: (Units=1/GPa)
#
#
# Indices 1 2 3 4 5 6 
#
# 1 0.054744 -0.047994 -0.002158 0.000000 0.000000 0.000000
# 2 -0.047994 0.054744 -0.002158 0.000000 0.000000 0.000000
# 3 -0.002158 -0.002158 0.009662 0.000000 0.000000 0.000000
# 4 0.000000 0.000000 0.000000 0.035886 0.000000 0.000000
# 5 0.000000 0.000000 0.000000 0.000000 0.035886 0.000000
# 6 0.000000 0.000000 0.000000 0.000000 0.000000 0.015756
#
#
# Mechanical properties :
#
#
# Convention : Reuss Voigt Hill
#
# Bulk Modulus (GPa) = 68.81659 68.97223 68.89441
# Shear Modulus (GPa) = 15.81568 33.47667 24.64617
#
# Velocity S-wave (km/s) = 2.60394 3.78842 3.25059
# Velocity P-wave (km/s) = 6.20837 6.97897 6.60492
#
# Compressibility (1/GPa) = 0.01453138
#
# Stress axis : x y z
#
# Youngs Moduli (GPa) = 18.26680 18.26680 103.49402
#
# Poissons Ratio (x) = 0.87670 0.22332
# Poissons Ratio (y) = 0.87670 0.22332
# Poissons Ratio (z) = 0.03942 0.03942
#
# Static dielectric constant tensor:
#      x y z
#    x 1.941270 0.000000 0.000000 
#    y 0.000000 1.941270 0.000000 
#    z 0.000000 0.000000 1.864200 
# 
# From -- ./inp_files/5599.got.cif
#   From: 2010.05.17/outbox.cif.g08.bks.cpg/sg120_3_cif.got.tgz:5599.got - 2010.05.20 11:28:13.
