data_PCOD9559160
_publ_section_title
;
Structure prediction by ZEFSAII (Michael W. Deem and Ramdas Pophale) SiO2 
 PCOD9559160
Probable space group: I -4 M 2
;
_chemical_formula_sum "Si O2"
_cell_formula_units_Z 88
_cell_length_a 14.417451
_cell_length_b 14.417451
_cell_length_c 22.311918
_cell_angle_alpha 90.000000
_cell_angle_beta 90.000000
_cell_angle_gamma 90.000000
_cell_volume 4637.819831
_symmetry_space_group_name_H-M "I -4 M 2"
_symmetry_group_IT_number 119
_symmetry_cell_setting 'tetragonal'
loop_
_space_group_symop_operation_xyz
x,y,z
y,-x,-z
-x,-y,z
-y,x,-z
y,x,-z
-y,-x,-z
-x,y,z
x,-y,z
1/2+x,1/2+y,1/2+z
1/2+y,1/2-x,1/2-z
1/2-x,1/2-y,1/2+z
1/2-y,1/2+x,1/2-z
1/2+y,1/2+x,1/2-z
1/2-y,1/2-x,1/2-z
1/2-x,1/2+y,1/2+z
1/2+x,1/2-y,1/2+z
loop_
_atom_site_type_symbol
_atom_site_label
_atom_site_fract_x
_atom_site_fract_y
_atom_site_fract_z
Si Si1 0.273207 0.226794 0.750000
Si Si2 0.775420 0.110130 0.338791
Si Si3 0.705002 0.605659 0.352803
Si Si4 0.395754 0.302313 0.943701
Si Si5 0.287268 0.105604 0.106716
Si Si6 0.602551 0.166853 0.531477
O O1 0.171161 0.217069 0.721030
O O2 0.350717 0.226439 0.697832
O O3 0.847875 0.156734 0.384800
O O4 0.675678 0.137194 0.366501
O O5 0.787445 0.000000 0.332639
O O6 0.675314 0.500000 0.337133
O O7 0.630325 0.687069 0.364884
O O8 0.756741 0.600102 0.416453
O O9 0.500000 0.336200 0.946971
O O10 0.393283 0.191149 0.950112
O O11 0.339394 0.339394 0.000000
O O12 0.310662 0.000000 0.120080
O O13 0.289291 0.117679 0.034502
O O14 0.500000 0.121739 0.530031
#
# Coordination Sequence:
#
# PCOD9559160 Si02
#       6
#     8  16  16  16  16  16
#     4  10  22  40  60  86 116 162 210 256 302 350
#     4  11  24  42  62  87 120 161 206 254 305 360
#     4  10  20  37  61  87 119 159 200 248 305 362
#     4  12  23  39  63  93 129 163 200 250 310 371
#     4  10  20  36  62  93 123 154 190 244 312 377
#     4  10  19  37  65  93 123 156 196 244 304 371
#
# _framework density 18.974433000000001
#
# number of rings (size 3 to 8) (size 9 to 14) (size 15 to 20)
#    0.000    1.455    5.455    1.091    0.000    6.000 
#    0.000    1.818    0.000    3.545    0.000    0.000 
#    0.000    0.000    0.000    0.000    0.000    0.000 
#
# Total GULP energy -245257.243468 kJ/mol
# GULP energy per Si atom -5574.028261 kJ/mol
# Density = 1.893125 g / cm^3
# Si number density = 18.974433 Si / 1000 Ang^3
#
#
#
# Elastic Constant Matrix: (Units=GPa)
#
#
# Indices 1 2 3 4 5 6 
#
# 1 44.5317 57.6440 0.1070 0.0000 0.0000 0.0000
# 2 57.6440 44.5364 0.1047 0.0000 0.0000 0.0000
# 3 0.1070 0.1047 59.8217 0.0000 0.0000 0.0000
# 4 0.0000 0.0000 0.0000 7.4332 0.0000 0.0000
# 5 0.0000 0.0000 0.0000 0.0000 7.4337 0.0000
# 6 0.0000 0.0000 0.0000 0.0000 0.0000 -0.3688
#
#
#
# Elastic Compliance Matrix: (Units=1/GPa)
#
#
# Indices 1 2 3 4 5 6 
#
# 1 -0.033247 0.043032 -0.000016 0.000000 0.000000 0.000000
# 2 0.043032 -0.033244 -0.000019 0.000000 0.000000 0.000000
# 3 -0.000016 -0.000019 0.016716 0.000000 0.000000 0.000000
# 4 0.000000 0.000000 0.000000 0.134532 0.000000 0.000000
# 5 0.000000 0.000000 0.000000 0.000000 0.134522 0.000000
# 6 0.000000 0.000000 0.000000 0.000000 0.000000 -2.711725
#
#
# Mechanical properties :
#
#
# Convention : Reuss Voigt Hill
#
# Bulk Modulus (GPa) = 27.60838 29.40013 28.50426
# Shear Modulus (GPa) = -1.94828 8.96857 3.51014
#
# Velocity S-wave (km/s) = -1.01441 2.17645 1.36160
# Velocity P-wave (km/s) = 3.63454 4.67377 4.18653
#
# Compressibility (1/GPa) = 0.03622088
#
# Stress axis : x y z
#
# Youngs Moduli (GPa) = -30.07759 -30.08080 59.82145
#
# Poissons Ratio (x) = 1.29445 0.00095
# Poissons Ratio (y) = 1.29431 0.00113
# Poissons Ratio (z) = -0.00048 -0.00057
#
# Static dielectric constant tensor:
#      x y z
#    x 1.663330 0.000000 0.000000 
#    y 0.000000 1.663330 0.000000 
#    z 0.000000 0.000000 1.677920 
# 
# From -- ./inp_files/7660.got.cif
#   From: 2010.05.17/outbox.cif.g08.bks.cpg/sg119_4_cif.got.tgz:7660.got - 2010.05.20 11:21:29.
