data_PCOD9559235
_publ_section_title
;
Structure prediction by ZEFSAII (Michael W. Deem and Ramdas Pophale) SiO2 
 PCOD9559235
Probable space group: I -4 M 2
;
_chemical_formula_sum "Si O2"
_cell_formula_units_Z 42
_cell_length_a 7.963402
_cell_length_b 7.963402
_cell_length_c 32.174031
_cell_angle_alpha 90.000000
_cell_angle_beta 90.000000
_cell_angle_gamma 90.000000
_cell_volume 2040.340995
_symmetry_space_group_name_H-M "I -4 M 2"
_symmetry_group_IT_number 119
_symmetry_cell_setting 'tetragonal'
loop_
_space_group_symop_operation_xyz
x,y,z
y,-x,-z
-x,-y,z
-y,x,-z
y,x,-z
-y,-x,-z
-x,y,z
x,-y,z
1/2+x,1/2+y,1/2+z
1/2+y,1/2-x,1/2-z
1/2-x,1/2-y,1/2+z
1/2-y,1/2+x,1/2-z
1/2+y,1/2+x,1/2-z
1/2-y,1/2-x,1/2-z
1/2-x,1/2+y,1/2+z
1/2+x,1/2-y,1/2+z
loop_
_atom_site_type_symbol
_atom_site_label
_atom_site_fract_x
_atom_site_fract_y
_atom_site_fract_z
Si Si1 0.695078 0.305810 0.705995
Si Si2 0.000000 0.000000 0.000000
Si Si3 0.689160 0.000000 0.937348
Si Si4 0.812141 0.703855 0.617949
O O1 0.500000 0.300863 0.693916
O O2 0.744364 0.500000 0.712759
O O3 0.717847 0.217847 0.750000
O O4 0.794783 0.241074 0.666094
O O5 0.000000 0.833947 0.028226
O O6 0.716894 0.164894 0.909043
O O7 0.500000 0.000000 0.954316
O O8 0.789386 0.500000 0.617555
O O9 0.000000 0.741186 0.602844
#
# Coordination Sequence:
#
# PCOD9559235 Si02
#       4
#    16   2   8  16
#     4  10  20  34  55  85 128 178 230 281 333 394
#     4  12  28  52  76 104 148 172 228 292 352 420
#     4  12  26  46  76 106 136 180 224 282 350 424
#     4  10  20  40  70  98 134 182 228 280 346 409
#
# _framework density 20.584792
#
# number of rings (size 3 to 8) (size 9 to 14) (size 15 to 20)
#    0.000    1.524    3.810    1.143    0.000    6.095 
#    0.000    0.000    0.000    0.000    0.000    0.000 
#    0.000    0.000    0.000    0.000    0.000    0.000 
#
# Total GULP energy -117359.278482 kJ/mol
# GULP energy per Si atom -5588.537071 kJ/mol
# Density = 2.053794 g / cm^3
# Si number density = 20.584792 Si / 1000 Ang^3
#
#
#
# Elastic Constant Matrix: (Units=GPa)
#
#
# Indices 1 2 3 4 5 6 
#
# 1 104.2590 39.5156 46.7495 0.0000 0.0000 0.0000
# 2 39.5156 104.2590 46.7495 0.0000 0.0000 0.0000
# 3 46.7495 46.7495 94.3572 0.0000 0.0000 0.0000
# 4 0.0000 0.0000 0.0000 25.9132 0.0000 0.0000
# 5 0.0000 0.0000 0.0000 0.0000 25.9132 0.0000
# 6 0.0000 0.0000 0.0000 0.0000 0.0000 13.8139
#
#
#
# Elastic Compliance Matrix: (Units=1/GPa)
#
#
# Indices 1 2 3 4 5 6 
#
# 1 0.012854 -0.002592 -0.005084 0.000000 0.000000 0.000000
# 2 -0.002592 0.012854 -0.005084 0.000000 0.000000 0.000000
# 3 -0.005084 -0.005084 0.015636 0.000000 0.000000 0.000000
# 4 0.000000 0.000000 0.000000 0.038590 0.000000 0.000000
# 5 0.000000 0.000000 0.000000 0.000000 0.038590 0.000000
# 6 0.000000 0.000000 0.000000 0.000000 0.000000 0.072391
#
#
# Mechanical properties :
#
#
# Convention : Reuss Voigt Hill
#
# Bulk Modulus (GPa) = 63.20073 63.21160 63.20616
# Shear Modulus (GPa) = 22.55202 24.45209 23.50206
#
# Velocity S-wave (km/s) = 3.31353 3.45029 3.38260
# Velocity P-wave (km/s) = 6.73859 6.82988 6.78439
#
# Compressibility (1/GPa) = 0.01582260
#
# Stress axis : x y z
#
# Youngs Moduli (GPa) = 77.79908 77.79909 63.95516
#
# Poissons Ratio (x) = 0.20165 0.32516
# Poissons Ratio (y) = 0.20165 0.32516
# Poissons Ratio (z) = 0.39554 0.39554
#
# Static dielectric constant tensor:
#      x y z
#    x 1.735390 0.000000 0.000000 
#    y 0.000000 1.735390 0.000000 
#    z 0.000000 0.000000 1.709110 
# 
# From -- ./inp_files/9130.got.cif
#   From: 2010.05.17/outbox.cif.g08.bks.cpg/sg119_5_cif.got.tgz:9130.got - 2010.05.20 11:21:29.
