data_PCOD9559646
_publ_section_title
;
Structure prediction by ZEFSAII (Michael W. Deem and Ramdas Pophale) SiO2 
 PCOD9559646
Probable space group: I -4 C 2
;
_chemical_formula_sum "Si O2"
_cell_formula_units_Z 112
_cell_length_a 15.182648
_cell_length_b 15.182648
_cell_length_c 24.584990
_cell_angle_alpha 90.000000
_cell_angle_beta 90.000000
_cell_angle_gamma 90.000000
_cell_volume 5667.154890
_symmetry_space_group_name_H-M "I -4 C 2"
_symmetry_group_IT_number 120
_symmetry_cell_setting 'tetragonal'
loop_
_space_group_symop_operation_xyz
x,y,z
y,-x,-z
-x,-y,z
-y,x,-z
y,x,1/2-z
-y,-x,1/2-z
-x,y,1/2+z
x,-y,1/2+z
1/2+x,1/2+y,1/2+z
1/2+y,1/2-x,1/2-z
1/2-x,1/2-y,1/2+z
1/2-y,1/2+x,1/2-z
1/2+y,1/2+x,-z
1/2-y,1/2-x,-z
1/2-x,1/2+y,z
1/2+x,1/2-y,z
loop_
_atom_site_type_symbol
_atom_site_label
_atom_site_fract_x
_atom_site_fract_y
_atom_site_fract_z
Si Si1 0.088804 0.831138 0.375838
Si Si2 0.856448 0.027251 0.004779
Si Si3 0.914935 0.110033 0.814298
Si Si4 0.696497 0.896533 0.208518
Si Si5 0.827329 0.410372 0.704038
Si Si6 0.712339 0.507871 0.388795
Si Si7 0.487848 0.909333 0.646913
O O1 0.054057 0.817283 0.437217
O O2 0.104026 0.738548 0.345855
O O3 0.012003 0.883345 0.341939
O O4 0.174290 0.893325 0.379885
O O5 0.798577 0.019383 0.951430
O O6 0.933265 0.095960 0.989748
O O7 0.916017 0.083984 0.750000
O O8 0.878248 0.209972 0.817469
O O9 0.849853 0.049824 0.849324
O O10 0.669469 0.827840 0.254275
O O11 0.611575 0.903003 0.169704
O O12 0.705023 0.997639 0.230402
O O13 0.930682 0.421272 0.689236
O O14 0.814235 0.496379 0.377127
O O15 0.500000 0.000000 0.613062
#
# Coordination Sequence:
#
# PCOD9559646 Si02
#       7
#    16  16  16  16  16  16  16
#     4  10  22  38  63  98 127 160 208 265 320 392
#     4   9  17  37  65  90 123 164 207 254 314 401
#     4  11  23  37  57  97 137 163 194 262 330 390
#     4  10  20  36  61  86 122 169 215 250 305 382
#     4  10  19  37  62  87 121 162 214 257 309 370
#     4  11  22  38  63  92 128 169 207 255 332 381
#     4  10  22  38  60  86 117 164 218 262 296 364
#
# _framework density 19.763003000000001
#
# number of rings (size 3 to 8) (size 9 to 14) (size 15 to 20)
#    0.000    1.857    2.857    1.286    2.000    3.429 
#    0.000    0.714    0.000   12.000    0.000    0.000 
#    0.000    0.000    0.000    0.000    0.000    0.000 
#
# Total GULP energy -312203.407286 kJ/mol
# GULP energy per Si atom -5575.060844 kJ/mol
# Density = 1.971802 g / cm^3
# Si number density = 19.763003 Si / 1000 Ang^3
#
#
#
# Elastic Constant Matrix: (Units=GPa)
#
#
# Indices 1 2 3 4 5 6 
#
# 1 83.9999 4.3197 22.1789 0.0000 0.0000 0.0000
# 2 4.3197 84.0000 22.1788 0.0000 0.0000 0.0000
# 3 22.1789 22.1788 73.5656 0.0000 0.0000 0.0000
# 4 0.0000 0.0000 0.0000 25.1479 0.0000 0.0000
# 5 0.0000 0.0000 0.0000 0.0000 25.1479 0.0000
# 6 0.0000 0.0000 0.0000 0.0000 0.0000 16.4669
#
#
#
# Elastic Compliance Matrix: (Units=1/GPa)
#
#
# Indices 1 2 3 4 5 6 
#
# 1 0.012947 0.000396 -0.004023 0.000000 0.000000 0.000000
# 2 0.000396 0.012946 -0.004023 0.000000 0.000000 0.000000
# 3 -0.004023 -0.004023 0.016019 0.000000 0.000000 0.000000
# 4 0.000000 0.000000 0.000000 0.039765 0.000000 0.000000
# 5 0.000000 0.000000 0.000000 0.000000 0.039765 0.000000
# 6 0.000000 0.000000 0.000000 0.000000 0.000000 0.060728
#
#
# Mechanical properties :
#
#
# Convention : Reuss Voigt Hill
#
# Bulk Modulus (GPa) = 37.57430 37.65779 37.61605
# Shear Modulus (GPa) = 24.23206 26.21177 25.22191
#
# Velocity S-wave (km/s) = 3.50542 3.64580 3.57630
# Velocity P-wave (km/s) = 5.95295 6.06783 6.01066
#
# Compressibility (1/GPa) = 0.02661393
#
# Stress axis : x y z
#
# Youngs Moduli (GPa) = 77.24085 77.24107 62.42650
#
# Poissons Ratio (x) = -0.03061 0.25112
# Poissons Ratio (y) = -0.03061 0.25112
# Poissons Ratio (z) = 0.31071 0.31071
#
# Static dielectric constant tensor:
#      x y z
#    x 1.727090 0.000000 0.000000 
#    y 0.000000 1.727090 0.000000 
#    z 0.000000 0.000000 1.710880 
# 
# From -- ./inp_files/5934.got.cif
#   From: 2010.05.17/outbox.cif.g08.bks.cpg/sg120_3_cif.got.tgz:5934.got - 2010.05.20 11:28:13.
