data_PCOD9559307
_publ_section_title
;
Structure prediction by ZEFSAII (Michael W. Deem and Ramdas Pophale) SiO2 
 PCOD9559307
Probable space group: I -4 M 2
;
_chemical_formula_sum "Si O2"
_cell_formula_units_Z 36
_cell_length_a 7.900182
_cell_length_b 7.900182
_cell_length_c 33.399484
_cell_angle_alpha 90.000000
_cell_angle_beta 90.000000
_cell_angle_gamma 90.000000
_cell_volume 2084.557841
_symmetry_space_group_name_H-M "I -4 M 2"
_symmetry_group_IT_number 119
_symmetry_cell_setting 'tetragonal'
loop_
_space_group_symop_operation_xyz
x,y,z
y,-x,-z
-x,-y,z
-y,x,-z
y,x,-z
-y,-x,-z
-x,y,z
x,-y,z
1/2+x,1/2+y,1/2+z
1/2+y,1/2-x,1/2-z
1/2-x,1/2-y,1/2+z
1/2-y,1/2+x,1/2-z
1/2+y,1/2+x,1/2-z
1/2-y,1/2-x,1/2-z
1/2-x,1/2+y,1/2+z
1/2+x,1/2-y,1/2+z
loop_
_atom_site_type_symbol
_atom_site_label
_atom_site_fract_x
_atom_site_fract_y
_atom_site_fract_z
Si Si1 0.500000 0.500000 0.500000
Si Si2 0.000000 0.187670 0.689551
Si Si3 0.193642 0.500000 0.437946
Si Si4 0.812362 0.201483 0.137229
Si Si5 0.500000 0.000000 0.250000
O O1 0.333925 0.500000 0.472094
O O2 0.164579 0.212681 0.661732
O O3 0.000000 0.334503 0.722338
O O4 0.000000 0.000000 0.707249
O O5 0.228117 0.342194 0.407618
O O6 0.000000 0.500000 0.451600
O O7 0.000000 0.226457 0.156209
O O8 0.781316 0.000000 0.135114
#
# Coordination Sequence:
#
# PCOD9559307 Si02
#       5
#     2   8   8  16   2
#     4  12  20  40  52  84 136 168 184 256 320 352
#     4  12  24  40  64  91 119 162 204 256 303 364
#     4  10  20  38  62  91 119 162 210 250 301 360
#     4   9  18  39  65  87 113 153 207 252 287 357
#     4  12  28  40  52  92 136 152 200 240 332 372
#
# _framework density 17.269848
#
# number of rings (size 3 to 8) (size 9 to 14) (size 15 to 20)
#    1.333    0.444    4.444    1.333    0.000    1.778 
#    4.000    0.000    0.000    0.000    0.000    0.000 
#    0.000    0.000    0.000    0.000    0.000    0.000 
#
# Total GULP energy -100236.620935 kJ/mol
# GULP energy per Si atom -5568.701163 kJ/mol
# Density = 1.723054 g / cm^3
# Si number density = 17.269848 Si / 1000 Ang^3
#
#
#
# Elastic Constant Matrix: (Units=GPa)
#
#
# Indices 1 2 3 4 5 6 
#
# 1 126.7159 51.4871 56.0477 0.0000 0.0000 0.0000
# 2 51.4871 126.7159 56.0477 0.0000 0.0000 0.0000
# 3 56.0477 56.0477 101.2676 0.0000 0.0000 0.0000
# 4 0.0000 0.0000 0.0000 -7.6228 0.0000 0.0000
# 5 0.0000 0.0000 0.0000 0.0000 -7.6228 0.0000
# 6 0.0000 0.0000 0.0000 0.0000 0.0000 15.4683
#
#
#
# Elastic Compliance Matrix: (Units=1/GPa)
#
#
# Indices 1 2 3 4 5 6 
#
# 1 0.010951 -0.002342 -0.004765 0.000000 0.000000 0.000000
# 2 -0.002342 0.010951 -0.004765 0.000000 0.000000 0.000000
# 3 -0.004765 -0.004765 0.015149 0.000000 0.000000 0.000000
# 4 0.000000 0.000000 0.000000 -0.131185 0.000000 0.000000
# 5 0.000000 0.000000 0.000000 0.000000 -0.131185 0.000000
# 6 0.000000 0.000000 0.000000 0.000000 0.000000 0.064648
#
#
# Mechanical properties :
#
#
# Convention : Reuss Voigt Hill
#
# Bulk Modulus (GPa) = 75.14339 75.76272 75.45305
# Shear Modulus (GPa) = -37.73771 12.78567 -12.47602
#
# Velocity S-wave (km/s) = -4.67966 2.72388 -2.69070
# Velocity P-wave (km/s) = 3.79563 7.33879 5.84229
#
# Compressibility (1/GPa) = 0.01330789
#
# Stress axis : x y z
#
# Youngs Moduli (GPa) = 91.31833 91.31834 66.01175
#
# Poissons Ratio (x) = 0.21387 0.31452
# Poissons Ratio (y) = 0.21387 0.31452
# Poissons Ratio (z) = 0.43509 0.43509
#
# Static dielectric constant tensor:
#      x y z
#    x 1.590760 0.000000 0.000000 
#    y 0.000000 1.590760 0.000000 
#    z 0.000000 0.000000 1.561930 
# 
# From -- ./inp_files/8261.got.cif
#   From: 2010.05.17/outbox.cif.g08.bks.cpg/sg119_5_cif.got.tgz:8261.got - 2010.05.20 11:21:29.
