data_PCOD9559745
_publ_section_title
;
Structure prediction by ZEFSAII (Michael W. Deem and Ramdas Pophale) SiO2 
 PCOD9559745
Probable space group: I -4 C 2
;
_chemical_formula_sum "Si O2"
_cell_formula_units_Z 96
_cell_length_a 14.814520
_cell_length_b 14.814520
_cell_length_c 22.211599
_cell_angle_alpha 90.000000
_cell_angle_beta 90.000000
_cell_angle_gamma 90.000000
_cell_volume 4874.779695
_symmetry_space_group_name_H-M "I -4 C 2"
_symmetry_group_IT_number 120
_symmetry_cell_setting 'tetragonal'
loop_
_space_group_symop_operation_xyz
x,y,z
y,-x,-z
-x,-y,z
-y,x,-z
y,x,1/2-z
-y,-x,1/2-z
-x,y,1/2+z
x,-y,1/2+z
1/2+x,1/2+y,1/2+z
1/2+y,1/2-x,1/2-z
1/2-x,1/2-y,1/2+z
1/2-y,1/2+x,1/2-z
1/2+y,1/2+x,-z
1/2-y,1/2-x,-z
1/2-x,1/2+y,z
1/2+x,1/2-y,z
loop_
_atom_site_type_symbol
_atom_site_label
_atom_site_fract_x
_atom_site_fract_y
_atom_site_fract_z
Si Si1 0.681796 0.656914 0.875566
Si Si2 0.000000 0.000000 0.750000
Si Si3 0.290083 0.290083 0.750000
Si Si4 0.972580 0.813624 0.680449
Si Si5 0.919474 0.314083 0.288106
Si Si6 0.000000 0.500000 0.750000
Si Si7 0.901182 0.894783 0.007431
Si Si8 0.152895 0.211556 0.892464
O O1 0.651823 0.690128 0.809474
O O2 0.714515 0.554827 0.862429
O O3 0.611972 0.651099 0.929785
O O4 0.761750 0.722321 0.896016
O O5 0.994635 0.912011 0.707782
O O6 0.308599 0.187046 0.730339
O O7 0.965849 0.744714 0.735907
O O8 0.877365 0.820060 0.646122
O O9 0.921431 0.264471 0.352547
O O10 0.959672 0.414655 0.286855
O O11 0.875513 0.820651 0.958252
O O12 0.007211 0.886807 0.020898
#
# Coordination Sequence:
#
# PCOD9559745 Si02
#       8
#    16   4   8  16  16   4  16  16
#     4  11  23  39  66  97 131 177 223 276 347 407
#     4  12  24  36  68 106 136 176 212 298 352 390
#     4  10  20  40  70  94 132 180 222 272 342 411
#     4  12  22  40  67 102 135 171 233 276 344 420
#     4  11  21  45  63 103 138 181 220 283 339 425
#     4  12  28  36  72 108 150 180 232 292 358 408
#     4  11  25  41  64  98 132 173 230 290 341 414
#     4  11  22  44  66  91 138 182 225 278 343 419
#
# _framework density 19.693197000000001
#
# number of rings (size 3 to 8) (size 9 to 14) (size 15 to 20)
#    0.000    0.833    6.667    3.000    2.333    2.667 
#    0.000    0.000    0.000    0.000    0.000    4.667 
#    0.000    0.000    0.000    0.000    0.000    0.000 
#
# Total GULP energy -268088.269855 kJ/mol
# GULP energy per Si atom -5585.172289 kJ/mol
# Density = 1.964837 g / cm^3
# Si number density = 19.693197 Si / 1000 Ang^3
#
#
#
# Elastic Constant Matrix: (Units=GPa)
#
#
# Indices 1 2 3 4 5 6 
#
# 1 105.2123 34.0562 25.9161 0.0000 0.0000 0.0000
# 2 34.0562 105.2123 25.9161 0.0000 0.0000 0.0000
# 3 25.9161 25.9161 109.2841 0.0000 0.0000 0.0000
# 4 0.0000 0.0000 0.0000 31.8220 0.0000 0.0000
# 5 0.0000 0.0000 0.0000 0.0000 31.8220 0.0000
# 6 0.0000 0.0000 0.0000 0.0000 0.0000 35.3828
#
#
#
# Elastic Compliance Matrix: (Units=1/GPa)
#
#
# Indices 1 2 3 4 5 6 
#
# 1 0.010965 -0.003089 -0.001868 0.000000 0.000000 0.000000
# 2 -0.003089 0.010965 -0.001868 0.000000 0.000000 0.000000
# 3 -0.001868 -0.001868 0.010036 0.000000 0.000000 0.000000
# 4 0.000000 0.000000 0.000000 0.031425 0.000000 0.000000
# 5 0.000000 0.000000 0.000000 0.000000 0.031425 0.000000
# 6 0.000000 0.000000 0.000000 0.000000 0.000000 0.028262
#
#
# Mechanical properties :
#
#
# Convention : Reuss Voigt Hill
#
# Bulk Modulus (GPa) = 54.59505 54.60952 54.60228
# Shear Modulus (GPa) = 35.00631 35.39339 35.19985
#
# Velocity S-wave (km/s) = 4.22071 4.24399 4.23237
# Velocity P-wave (km/s) = 7.17883 7.19761 7.18822
#
# Compressibility (1/GPa) = 0.01831668
#
# Stress axis : x y z
#
# Youngs Moduli (GPa) = 91.20318 91.20318 99.63880
#
# Poissons Ratio (x) = 0.28173 0.18609
# Poissons Ratio (y) = 0.28173 0.18609
# Poissons Ratio (z) = 0.17033 0.17033
#
# Static dielectric constant tensor:
#      x y z
#    x 1.713040 0.000000 0.000000 
#    y 0.000000 1.713040 0.000000 
#    z 0.000000 0.000000 1.715130 
# 
# From -- ./inp_files/5413.got.cif
#   From: 2010.05.17/outbox.cif.g08.bks.cpg/sg120_3_cif.got.tgz:5413.got - 2010.05.20 11:28:13.
