data_PCOD9559268
_publ_section_title
;
Structure prediction by ZEFSAII (Michael W. Deem and Ramdas Pophale) SiO2 
 PCOD9559268
Probable space group: I -4 M 2
;
_chemical_formula_sum "Si O2"
_cell_formula_units_Z 112
_cell_length_a 14.805520
_cell_length_b 14.805520
_cell_length_c 28.166901
_cell_angle_alpha 90.000000
_cell_angle_beta 90.000000
_cell_angle_gamma 90.000000
_cell_volume 6174.281100
_symmetry_space_group_name_H-M "I -4 M 2"
_symmetry_group_IT_number 119
_symmetry_cell_setting 'tetragonal'
loop_
_space_group_symop_operation_xyz
x,y,z
y,-x,-z
-x,-y,z
-y,x,-z
y,x,-z
-y,-x,-z
-x,y,z
x,-y,z
1/2+x,1/2+y,1/2+z
1/2+y,1/2-x,1/2-z
1/2-x,1/2-y,1/2+z
1/2-y,1/2+x,1/2-z
1/2+y,1/2+x,1/2-z
1/2-y,1/2-x,1/2-z
1/2-x,1/2+y,1/2+z
1/2+x,1/2-y,1/2+z
loop_
_atom_site_type_symbol
_atom_site_label
_atom_site_fract_x
_atom_site_fract_y
_atom_site_fract_z
Si Si1 0.262706 0.396771 0.136786
Si Si2 0.728470 0.330357 0.707947
Si Si3 0.663917 0.892622 0.803870
Si Si4 0.391570 0.101937 0.034036
Si Si5 0.232386 0.890467 0.529693
Si Si6 0.394903 0.400207 0.784012
Si Si7 0.396639 0.891132 0.143702
O O1 0.293414 0.500000 0.132117
O O2 0.162333 0.395676 0.158438
O O3 0.268567 0.357676 0.084229
O O4 0.328845 0.358491 0.177353
O O5 0.778787 0.278787 0.750000
O O6 0.654629 0.260826 0.687249
O O7 0.665863 0.399780 0.737042
O O8 0.809241 0.362555 0.674080
O O9 0.631763 0.868238 0.750000
O O10 0.663954 0.000000 0.809026
O O11 0.500000 0.096268 0.028174
O O12 0.379006 0.132082 0.088583
O O13 0.355365 0.000000 0.027742
O O14 0.359369 0.176184 0.996827
O O15 0.149925 0.850076 0.500000
O O16 0.230681 0.000000 0.529103
O O17 0.500000 0.376327 0.772390
O O18 0.394299 0.500000 0.805289
O O19 0.500000 0.858751 0.157042
O O20 0.401334 0.000000 0.146293
#
# Coordination Sequence:
#
# PCOD9559268 Si02
#       7
#    16  16  16  16  16  16  16
#     4  10  21  38  54  80 111 141 189 234 273 331
#     4  11  21  33  51  79 112 147 185 230 270 328
#     4  11  22  37  57  81 113 149 187 235 284 333
#     4   8  16  34  57  79 104 138 180 225 275 326
#     4  10  22  36  56  81 112 147 182 228 276 329
#     4  10  20  36  56  76 107 151 191 229 276 330
#     4   9  19  35  55  81 113 148 187 228 275 335
#
# _framework density 18.139764
#
# number of rings (size 3 to 8) (size 9 to 14) (size 15 to 20)
#    0.000    2.143    2.857    2.143    2.000    3.429 
#    0.000    3.571    0.000    0.000    0.000    0.000 
#    0.000    0.286    0.000    0.000    0.000    0.000 
#
# Total GULP energy -311780.441151 kJ/mol
# GULP energy per Si atom -5567.507878 kJ/mol
# Density = 1.809848 g / cm^3
# Si number density = 18.139764 Si / 1000 Ang^3
#
#
#
# Elastic Constant Matrix: (Units=GPa)
#
#
# Indices 1 2 3 4 5 6 
#
# 1 79.1951 29.9572 40.6668 0.0000 0.0000 0.0000
# 2 29.9572 79.1943 40.6665 0.0000 0.0000 0.0000
# 3 40.6668 40.6665 87.7392 0.0000 0.0000 0.0000
# 4 0.0000 0.0000 0.0000 15.4635 0.0000 0.0000
# 5 0.0000 0.0000 0.0000 0.0000 15.4644 0.0000
# 6 0.0000 0.0000 0.0000 0.0000 0.0000 26.4758
#
#
#
# Elastic Compliance Matrix: (Units=1/GPa)
#
#
# Indices 1 2 3 4 5 6 
#
# 1 0.017152 -0.003157 -0.006487 0.000000 0.000000 0.000000
# 2 -0.003157 0.017152 -0.006487 0.000000 0.000000 0.000000
# 3 -0.006487 -0.006487 0.017410 0.000000 0.000000 0.000000
# 4 0.000000 0.000000 0.000000 0.064668 0.000000 0.000000
# 5 0.000000 0.000000 0.000000 0.000000 0.064665 0.000000
# 6 0.000000 0.000000 0.000000 0.000000 0.000000 0.037770
#
#
# Mechanical properties :
#
#
# Convention : Reuss Voigt Hill
#
# Bulk Modulus (GPa) = 51.40340 52.07885 51.74113
# Shear Modulus (GPa) = 19.41260 20.46993 19.94127
#
# Velocity S-wave (km/s) = 3.27489 3.36289 3.31918
# Velocity P-wave (km/s) = 6.53443 6.62200 6.57836
#
# Compressibility (1/GPa) = 0.01945397
#
# Stress axis : x y z
#
# Youngs Moduli (GPa) = 58.30130 58.30080 57.43683
#
# Poissons Ratio (x) = 0.18408 0.37257
# Poissons Ratio (y) = 0.18408 0.37257
# Poissons Ratio (z) = 0.37818 0.37817
#
# Static dielectric constant tensor:
#      x y z
#    x 1.673530 0.000000 0.000000 
#    y 0.000000 1.673530 0.000000 
#    z 0.000000 0.000000 1.639430 
# 
# From -- ./inp_files/9612.got.cif
#   From: 2010.05.17/outbox.cif.g08.bks.cpg/sg119_5_cif.got.tgz:9612.got - 2010.05.20 11:21:29.
