data_PCOD9559460
_publ_section_title
;
Structure prediction by ZEFSAII (Michael W. Deem and Ramdas Pophale) SiO2 
 PCOD9559460
Probable space group: I -4 M 2
;
_chemical_formula_sum "Si O2"
_cell_formula_units_Z 96
_cell_length_a 14.362326
_cell_length_b 14.362326
_cell_length_c 21.586813
_cell_angle_alpha 90.000000
_cell_angle_beta 90.000000
_cell_angle_gamma 90.000000
_cell_volume 4452.850249
_symmetry_space_group_name_H-M "I -4 M 2"
_symmetry_group_IT_number 119
_symmetry_cell_setting 'tetragonal'
loop_
_space_group_symop_operation_xyz
x,y,z
y,-x,-z
-x,-y,z
-y,x,-z
y,x,-z
-y,-x,-z
-x,y,z
x,-y,z
1/2+x,1/2+y,1/2+z
1/2+y,1/2-x,1/2-z
1/2-x,1/2-y,1/2+z
1/2-y,1/2+x,1/2-z
1/2+y,1/2+x,1/2-z
1/2-y,1/2-x,1/2-z
1/2-x,1/2+y,1/2+z
1/2+x,1/2-y,1/2+z
loop_
_atom_site_type_symbol
_atom_site_label
_atom_site_fract_x
_atom_site_fract_y
_atom_site_fract_z
Si Si1 0.888246 0.395323 0.519622
Si Si2 0.601158 0.803503 0.344270
Si Si3 0.755068 0.894821 0.581199
Si Si4 0.356832 0.605750 0.295690
Si Si5 0.137365 0.400325 0.320019
Si Si6 0.295003 0.390255 0.833195
O O1 0.872802 0.500000 0.493569
O O2 0.833586 0.392230 0.584056
O O3 0.860713 0.311358 0.474250
O O4 0.000000 0.386897 0.530760
O O5 0.500000 0.837518 0.320613
O O6 0.602587 0.692526 0.333863
O O7 0.694533 0.847691 0.316186
O O8 0.684506 0.897207 0.639479
O O9 0.839370 0.832007 0.605086
O O10 0.786730 0.000000 0.567441
O O11 0.391143 0.500000 0.305608
O O12 0.248415 0.606005 0.313461
O O13 0.370595 0.634882 0.223857
O O14 0.111243 0.500000 0.347656
O O15 0.103177 0.396824 0.250000
O O16 0.287034 0.500000 0.842153
#
# Coordination Sequence:
#
# PCOD9559460 Si02
#       6
#    16  16  16  16  16  16
#     4   9  20  40  67 100 135 174 224 283 338 384
#     4  11  23  43  70  96 127 172 225 274 324 386
#     4  11  22  39  64  95 133 175 219 266 329 401
#     4  11  23  42  66  96 136 175 211 261 332 403
#     4  11  20  34  58  91 131 170 212 264 321 387
#     4  12  25  42  65  96 136 176 219 273 336 402
#
# _framework density 21.559224
#
# number of rings (size 3 to 8) (size 9 to 14) (size 15 to 20)
#    0.000    1.167    3.333    3.000    0.000    5.833 
#    0.000    0.833    0.000    5.000    0.000    4.667 
#    0.000    0.000    0.000    0.000    0.000    0.000 
#
# Total GULP energy -268268.494906 kJ/mol
# GULP energy per Si atom -5588.926977 kJ/mol
# Density = 2.151015 g / cm^3
# Si number density = 21.559224 Si / 1000 Ang^3
#
#
#
# Elastic Constant Matrix: (Units=GPa)
#
#
# Indices 1 2 3 4 5 6 
#
# 1 137.2961 42.5148 21.6196 0.0000 0.0000 0.0000
# 2 42.5148 137.2967 21.6196 0.0000 0.0000 0.0000
# 3 21.6196 21.6196 78.9572 0.0000 0.0000 0.0000
# 4 0.0000 0.0000 0.0000 28.8575 0.0000 0.0000
# 5 0.0000 0.0000 0.0000 0.0000 28.8576 0.0000
# 6 0.0000 0.0000 0.0000 0.0000 0.0000 5.0384
#
#
#
# Elastic Compliance Matrix: (Units=1/GPa)
#
#
# Indices 1 2 3 4 5 6 
#
# 1 0.008252 -0.002299 -0.001630 0.000000 0.000000 0.000000
# 2 -0.002299 0.008252 -0.001630 0.000000 0.000000 0.000000
# 3 -0.001630 -0.001630 0.013558 0.000000 0.000000 0.000000
# 4 0.000000 0.000000 0.000000 0.034653 0.000000 0.000000
# 5 0.000000 0.000000 0.000000 0.000000 0.034653 0.000000
# 6 0.000000 0.000000 0.000000 0.000000 0.000000 0.198475
#
#
# Mechanical properties :
#
#
# Convention : Reuss Voigt Hill
#
# Bulk Modulus (GPa) = 52.78695 58.33978 55.56336
# Shear Modulus (GPa) = 15.85919 30.40378 23.13149
#
# Velocity S-wave (km/s) = 2.71516 3.75940 3.27911
# Velocity P-wave (km/s) = 5.86236 6.77961 6.33760
#
# Compressibility (1/GPa) = 0.01894408
#
# Stress axis : x y z
#
# Youngs Moduli (GPa) = 121.18280 121.18334 73.75828
#
# Poissons Ratio (x) = 0.27855 0.12024
# Poissons Ratio (y) = 0.27855 0.12023
# Poissons Ratio (z) = 0.19754 0.19754
#
# Static dielectric constant tensor:
#      x y z
#    x 1.799040 0.000000 0.000000 
#    y 0.000000 1.799040 0.000000 
#    z 0.000000 0.000000 1.776740 
# 
# From -- ./inp_files/7756.got.cif
#   From: 2010.05.17/outbox.cif.g08.bks.cpg/sg119_4_cif.got.tgz:7756.got - 2010.05.20 11:21:29.
