data_PCOD9559504
_publ_section_title
;
Structure prediction by ZEFSAII (Michael W. Deem and Ramdas Pophale) SiO2 
 PCOD9559504
Probable space group: I -4 M 2
;
_chemical_formula_sum "Si O2"
_cell_formula_units_Z 58
_cell_length_a 11.676117
_cell_length_b 11.676117
_cell_length_c 25.807119
_cell_angle_alpha 90.000000
_cell_angle_beta 90.000000
_cell_angle_gamma 90.000000
_cell_volume 3518.328617
_symmetry_space_group_name_H-M "I -4 M 2"
_symmetry_group_IT_number 119
_symmetry_cell_setting 'tetragonal'
loop_
_space_group_symop_operation_xyz
x,y,z
y,-x,-z
-x,-y,z
-y,x,-z
y,x,-z
-y,-x,-z
-x,y,z
x,-y,z
1/2+x,1/2+y,1/2+z
1/2+y,1/2-x,1/2-z
1/2-x,1/2-y,1/2+z
1/2-y,1/2+x,1/2-z
1/2+y,1/2+x,1/2-z
1/2-y,1/2-x,1/2-z
1/2-x,1/2+y,1/2+z
1/2+x,1/2-y,1/2+z
loop_
_atom_site_type_symbol
_atom_site_label
_atom_site_fract_x
_atom_site_fract_y
_atom_site_fract_z
Si Si1 0.865437 0.634563 0.750000
Si Si2 0.362535 0.366856 0.059570
Si Si3 0.733669 0.000000 0.815050
Si Si4 0.636792 0.500000 0.211476
Si Si5 0.273736 0.256300 0.841074
Si Si6 0.000000 0.500000 0.250000
O O1 0.844744 0.500000 0.757764
O O2 0.822723 0.699767 0.801355
O O3 0.500000 0.365793 0.064795
O O4 0.326054 0.500000 0.068711
O O5 0.309706 0.283127 0.102006
O O6 0.336513 0.336513 0.000000
O O7 0.834478 0.000000 0.772328
O O8 0.734550 0.119622 0.844885
O O9 0.614272 0.000000 0.783738
O O10 0.500000 0.500000 0.201462
O O11 0.698257 0.389505 0.187019
#
# Coordination Sequence:
#
# PCOD9559504 Si02
#       6
#     8  16   8   8  16   2
#     4  11  23  36  53  81 114 150 182 225 273 320
#     4   9  18  33  54  79 103 134 182 235 278 320
#     4  12  22  32  50  80 116 146 174 215 279 326
#     4  12  20  32  54  80 110 144 184 211 265 326
#     4  12  21  34  54  80 111 143 177 227 269 334
#     4  12  16  36  40  68 124 152 156 212 264 318
#
# _framework density 16.485099000000002
#
# number of rings (size 3 to 8) (size 9 to 14) (size 15 to 20)
#    0.000    0.966    6.897    3.310    0.000    0.000 
#    0.000    0.000    3.034    0.000    0.000    0.000 
#    0.000    0.000    0.000    0.000    0.000    0.000 
#
# Total GULP energy -161828.556128 kJ/mol
# GULP energy per Si atom -5580.295039 kJ/mol
# Density = 1.644758 g / cm^3
# Si number density = 16.485099 Si / 1000 Ang^3
#
#
#
# Elastic Constant Matrix: (Units=GPa)
#
#
# Indices 1 2 3 4 5 6 
#
# 1 70.1038 34.0402 32.2622 0.0000 0.0000 0.0000
# 2 34.0402 70.1038 32.2622 0.0000 0.0000 0.0000
# 3 32.2622 32.2622 116.3460 0.0000 0.0000 0.0000
# 4 0.0000 0.0000 0.0000 26.6502 0.0000 0.0000
# 5 0.0000 0.0000 0.0000 0.0000 26.6502 0.0000
# 6 0.0000 0.0000 0.0000 0.0000 0.0000 13.4194
#
#
#
# Elastic Compliance Matrix: (Units=1/GPa)
#
#
# Indices 1 2 3 4 5 6 
#
# 1 0.019661 -0.008067 -0.003215 0.000000 0.000000 0.000000
# 2 -0.008067 0.019661 -0.003215 0.000000 0.000000 0.000000
# 3 -0.003215 -0.003215 0.010378 0.000000 0.000000 0.000000
# 4 0.000000 0.000000 0.000000 0.037523 0.000000 0.000000
# 5 0.000000 0.000000 0.000000 0.000000 0.037523 0.000000
# 6 0.000000 0.000000 0.000000 0.000000 0.000000 0.074519
#
#
# Mechanical properties :
#
#
# Convention : Reuss Voigt Hill
#
# Bulk Modulus (GPa) = 48.29477 50.40918 49.35198
# Shear Modulus (GPa) = 21.26188 23.87658 22.56923
#
# Velocity S-wave (km/s) = 3.59522 3.80988 3.70411
# Velocity P-wave (km/s) = 6.82597 7.07097 6.94955
#
# Compressibility (1/GPa) = 0.02070617
#
# Stress axis : x y z
#
# Youngs Moduli (GPa) = 50.86106 50.86106 96.35732
#
# Poissons Ratio (x) = 0.41032 0.30978
# Poissons Ratio (y) = 0.41032 0.30978
# Poissons Ratio (z) = 0.16352 0.16352
#
# Static dielectric constant tensor:
#      x y z
#    x 1.505880 0.000000 0.000000 
#    y 0.000000 1.505880 0.000000 
#    z 0.000000 0.000000 1.561110 
# 
# From -- ./inp_files/8439.got.cif
#   From: 2010.05.17/outbox.cif.g08.bks.cpg/sg119_5_cif.got.tgz:8439.got - 2010.05.20 11:21:29.
