data_PCOD9559723
_publ_section_title
;
Structure prediction by ZEFSAII (Michael W. Deem and Ramdas Pophale) SiO2 
 PCOD9559723
Probable space group: I -4 C 2
;
_chemical_formula_sum "Si O2"
_cell_formula_units_Z 120
_cell_length_a 21.819847
_cell_length_b 21.819847
_cell_length_c 12.692444
_cell_angle_alpha 90.000000
_cell_angle_beta 90.000000
_cell_angle_gamma 90.000000
_cell_volume 6042.945229
_symmetry_space_group_name_H-M "I -4 C 2"
_symmetry_group_IT_number 120
_symmetry_cell_setting 'tetragonal'
loop_
_space_group_symop_operation_xyz
x,y,z
y,-x,-z
-x,-y,z
-y,x,-z
y,x,1/2-z
-y,-x,1/2-z
-x,y,1/2+z
x,-y,1/2+z
1/2+x,1/2+y,1/2+z
1/2+y,1/2-x,1/2-z
1/2-x,1/2-y,1/2+z
1/2-y,1/2+x,1/2-z
1/2+y,1/2+x,-z
1/2-y,1/2-x,-z
1/2-x,1/2+y,z
1/2+x,1/2-y,z
loop_
_atom_site_type_symbol
_atom_site_label
_atom_site_fract_x
_atom_site_fract_y
_atom_site_fract_z
Si Si1 0.025332 0.781188 0.343902
Si Si2 0.007118 0.693465 0.022365
Si Si3 0.159131 0.304789 0.329454
Si Si4 0.870097 0.290944 0.582370
Si Si5 0.896345 0.396345 0.000000
Si Si6 0.175816 0.894798 0.662052
Si Si7 0.769062 0.888228 0.853190
Si Si8 0.618798 0.342395 0.979857
O O1 0.077686 0.770463 0.258678
O O2 0.053381 0.827421 0.430344
O O3 0.008193 0.719427 0.406465
O O4 0.962315 0.807474 0.298787
O O5 0.035249 0.625563 0.023056
O O6 0.059976 0.737456 0.071772
O O7 0.943163 0.697604 0.082609
O O8 0.150670 0.300838 0.203047
O O9 0.121776 0.355111 0.397629
O O10 0.138056 0.239009 0.372511
O O11 0.227665 0.327405 0.350175
O O12 0.835790 0.335790 0.500000
O O13 0.861675 0.221973 0.536234
O O14 0.146681 0.853320 0.750000
O O15 0.127058 0.893912 0.568214
O O16 0.834759 0.865672 0.890993
#
# Coordination Sequence:
#
# PCOD9559723 Si02
#       8
#    16  16  16  16   8  16  16  16
#     4  11  23  41  62  91 127 170 217 258 329 386
#     4  10  21  39  63  93 126 172 214 266 316 394
#     4  11  21  39  62  96 132 163 204 266 325 400
#     4  11  24  40  61  98 135 168 213 266 335 394
#     4  10  20  38  65  92 128 168 222 260 316 381
#     4  12  23  38  65  92 124 165 208 262 323 391
#     4  11  23  40  65  94 130 170 211 265 331 389
#     4  11  24  40  62  94 128 165 211 269 322 392
#
# _framework density 19.857866000000001
#
# number of rings (size 3 to 8) (size 9 to 14) (size 15 to 20)
#    0.000    1.067    4.000    3.600    3.733    1.067 
#    0.000    0.333    0.000    5.200    0.000    0.000 
#    0.000    0.000    0.000    0.000    0.000    0.000 
#
# Total GULP energy -334827.085927 kJ/mol
# GULP energy per Si atom -5580.451432 kJ/mol
# Density = 1.981267 g / cm^3
# Si number density = 19.857866 Si / 1000 Ang^3
#
#
#
# Elastic Constant Matrix: (Units=GPa)
#
#
# Indices 1 2 3 4 5 6 
#
# 1 45.8429 35.2517 1.7566 0.0000 0.0000 0.0000
# 2 35.2517 45.8438 1.7576 0.0000 0.0000 0.0000
# 3 1.7566 1.7576 72.5127 0.0000 0.0000 0.0000
# 4 0.0000 0.0000 0.0000 28.9643 0.0000 0.0000
# 5 0.0000 0.0000 0.0000 0.0000 28.9636 0.0000
# 6 0.0000 0.0000 0.0000 0.0000 0.0000 23.8909
#
#
#
# Elastic Compliance Matrix: (Units=1/GPa)
#
#
# Indices 1 2 3 4 5 6 
#
# 1 0.053379 -0.041035 -0.000298 0.000000 0.000000 0.000000
# 2 -0.041035 0.053379 -0.000300 0.000000 0.000000 0.000000
# 3 -0.000298 -0.000300 0.013805 0.000000 0.000000 0.000000
# 4 0.000000 0.000000 0.000000 0.034525 0.000000 0.000000
# 5 0.000000 0.000000 0.000000 0.000000 0.034526 0.000000
# 6 0.000000 0.000000 0.000000 0.000000 0.000000 0.041857
#
#
# Mechanical properties :
#
#
# Convention : Reuss Voigt Hill
#
# Bulk Modulus (GPa) = 26.81177 26.85902 26.83539
# Shear Modulus (GPa) = 15.28257 24.72598 20.00428
#
# Velocity S-wave (km/s) = 2.77717 3.53249 3.17736
# Velocity P-wave (km/s) = 4.88003 5.49482 5.19652
#
# Compressibility (1/GPa) = 0.03729706
#
# Stress axis : x y z
#
# Youngs Moduli (GPa) = 18.73380 18.73413 72.43654
#
# Poissons Ratio (x) = 0.76875 0.02162
# Poissons Ratio (y) = 0.76874 0.02171
# Poissons Ratio (z) = 0.00559 0.00562
#
# Static dielectric constant tensor:
#      x y z
#    x 1.691130 0.000000 0.000000 
#    y 0.000000 1.691130 0.000000 
#    z 0.000000 0.000000 1.781430 
# 
# From -- ./inp_files/3720.got.cif
#   From: 2010.05.17/outbox.cif.g08.bks.cpg/sg120_2_cif.got.tgz:3720.got - 2010.05.20 11:28:13.
