data_PCOD9559838
_publ_section_title
;
Structure prediction by ZEFSAII (Michael W. Deem and Ramdas Pophale) SiO2 
 PCOD9559838
Probable space group: I -4 C 2
;
_chemical_formula_sum "Si O2"
_cell_formula_units_Z 80
_cell_length_a 27.240874
_cell_length_b 27.240874
_cell_length_c 5.042010
_cell_angle_alpha 90.000000
_cell_angle_beta 90.000000
_cell_angle_gamma 90.000000
_cell_volume 3741.500241
_symmetry_space_group_name_H-M "I -4 C 2"
_symmetry_group_IT_number 120
_symmetry_cell_setting 'tetragonal'
loop_
_space_group_symop_operation_xyz
x,y,z
y,-x,-z
-x,-y,z
-y,x,-z
y,x,1/2-z
-y,-x,1/2-z
-x,y,1/2+z
x,-y,1/2+z
1/2+x,1/2+y,1/2+z
1/2+y,1/2-x,1/2-z
1/2-x,1/2-y,1/2+z
1/2-y,1/2+x,1/2-z
1/2+y,1/2+x,-z
1/2-y,1/2-x,-z
1/2-x,1/2+y,z
1/2+x,1/2-y,z
loop_
_atom_site_type_symbol
_atom_site_label
_atom_site_fract_x
_atom_site_fract_y
_atom_site_fract_z
Si Si1 0.891250 0.968889 0.731769
Si Si2 0.889556 0.811627 0.817703
Si Si3 0.252260 0.531596 0.009404
Si Si4 0.097761 0.668744 0.076651
Si Si5 0.355415 0.784260 0.079607
O O1 0.945365 0.945365 0.750000
O O2 0.855635 0.926811 0.617001
O O3 0.882705 0.013583 0.531342
O O4 0.839473 0.839473 0.750000
O O5 0.921453 0.782909 0.593314
O O6 0.873171 0.770397 0.025309
O O7 0.263052 0.487869 0.801675
O O8 0.194670 0.546056 0.982429
O O9 0.132855 0.699352 0.875232
O O10 0.113190 0.613190 0.000000
O O11 0.111745 0.682568 0.376814
O O12 0.300250 0.800250 0.000000
#
# Coordination Sequence:
#
# PCOD9559838 Si02
#       5
#    16  16  16  16  16
#     4  11  24  41  61  83 108 141 185 239 299 354
#     4  10  22  39  57  81 113 149 188 233 282 332
#     4  11  21  36  57  81 109 143 184 226 272 328
#     4   9  18  34  56  81 111 144 180 226 275 326
#     4   9  18  35  56  79 108 145 186 224 267 323
#
# _framework density 21.381796999999999
#
# number of rings (size 3 to 8) (size 9 to 14) (size 15 to 20)
#    0.000    2.000    0.000    4.200    0.000    4.400 
#    0.000   23.000    0.000    0.000    0.000    0.000 
#    0.000    2.400    0.000    0.000    0.000    0.000 
#
# Total GULP energy -222927.693136 kJ/mol
# GULP energy per Si atom -5573.192328 kJ/mol
# Density = 2.133313 g / cm^3
# Si number density = 21.381797 Si / 1000 Ang^3
#
#
#
# Elastic Constant Matrix: (Units=GPa)
#
#
# Indices 1 2 3 4 5 6 
#
# 1 42.9621 43.2924 17.9333 0.0000 0.0000 0.0000
# 2 43.2924 42.9621 17.9333 0.0000 0.0000 0.0000
# 3 17.9333 17.9333 75.7891 0.0000 0.0000 0.0000
# 4 0.0000 0.0000 0.0000 16.8086 0.0000 0.0000
# 5 0.0000 0.0000 0.0000 0.0000 16.8086 0.0000
# 6 0.0000 0.0000 0.0000 0.0000 0.0000 52.5626
#
#
#
# Elastic Compliance Matrix: (Units=1/GPa)
#
#
# Indices 1 2 3 4 5 6 
#
# 1 -1.507175 1.520034 -0.003043 0.000000 0.000000 0.000000
# 2 1.520034 -1.507175 -0.003043 0.000000 0.000000 0.000000
# 3 -0.003043 -0.003043 0.014634 0.000000 0.000000 0.000000
# 4 0.000000 0.000000 0.000000 0.059493 0.000000 0.000000
# 5 0.000000 0.000000 0.000000 0.000000 0.059493 0.000000
# 6 0.000000 0.000000 0.000000 0.000000 0.000000 0.019025
#
#
# Mechanical properties :
#
#
# Convention : Reuss Voigt Hill
#
# Bulk Modulus (GPa) = 35.48442 35.55903 35.52173
# Shear Modulus (GPa) = -0.85031 22.73958 10.94464
#
# Velocity S-wave (km/s) = -0.63130 3.26468 2.26490
# Velocity P-wave (km/s) = 4.01251 5.55675 4.84653
#
# Compressibility (1/GPa) = 0.02818138
#
# Stress axis : x y z
#
# Youngs Moduli (GPa) = -0.66349 -0.66349 68.33204
#
# Poissons Ratio (x) = 1.00853 0.20791
# Poissons Ratio (y) = 1.00853 0.20791
# Poissons Ratio (z) = -0.00202 -0.00202
#
# Static dielectric constant tensor:
#      x y z
#    x 1.851520 0.000000 0.000000 
#    y 0.000000 1.851520 0.000000 
#    z 0.000000 0.000000 1.763510 
# 
# From -- ./inp_files/451.got.cif
#   From: 2010.05.17/outbox.cif.g08.bks.cpg/sg120_1_cif.got.tgz:451.got - 2010.05.20 11:28:13.
