data_PCOD9559822
_publ_section_title
;
Structure prediction by ZEFSAII (Michael W. Deem and Ramdas Pophale) SiO2 
 PCOD9559822
Probable space group: I -4 C 2
;
_chemical_formula_sum "Si O2"
_cell_formula_units_Z 96
_cell_length_a 22.410253
_cell_length_b 22.410253
_cell_length_c 10.916758
_cell_angle_alpha 90.000000
_cell_angle_beta 90.000000
_cell_angle_gamma 90.000000
_cell_volume 5482.608084
_symmetry_space_group_name_H-M "I -4 C 2"
_symmetry_group_IT_number 120
_symmetry_cell_setting 'tetragonal'
loop_
_space_group_symop_operation_xyz
x,y,z
y,-x,-z
-x,-y,z
-y,x,-z
y,x,1/2-z
-y,-x,1/2-z
-x,y,1/2+z
x,-y,1/2+z
1/2+x,1/2+y,1/2+z
1/2+y,1/2-x,1/2-z
1/2-x,1/2-y,1/2+z
1/2-y,1/2+x,1/2-z
1/2+y,1/2+x,-z
1/2-y,1/2-x,-z
1/2-x,1/2+y,z
1/2+x,1/2-y,z
loop_
_atom_site_type_symbol
_atom_site_label
_atom_site_fract_x
_atom_site_fract_y
_atom_site_fract_z
Si Si1 0.294195 0.044465 0.360930
Si Si2 0.586983 0.980157 0.225248
Si Si3 0.362538 0.270937 0.813516
Si Si4 0.672494 0.230304 0.752228
Si Si5 0.104576 0.604576 0.000000
Si Si6 0.577941 0.241151 0.553780
Si Si7 0.843794 0.343794 0.500000
O O1 0.346941 0.014677 0.279386
O O2 0.251854 0.084741 0.275349
O O3 0.328809 0.090396 0.450093
O O4 0.256969 0.993125 0.428895
O O5 0.541269 0.944838 0.314531
O O6 0.586022 0.933965 0.115027
O O7 0.324283 0.324283 0.750000
O O8 0.316794 0.214634 0.820955
O O9 0.391163 0.281070 0.947905
O O10 0.709464 0.290537 0.750000
O O11 0.611105 0.244025 0.683994
O O12 0.666751 0.201308 0.886385
O O13 0.091114 0.673584 0.014116
#
# Coordination Sequence:
#
# PCOD9559822 Si02
#       7
#    16  16  16  16   8  16   8
#     4  11  24  36  58  82 113 152 199 245 296 343
#     4  11  24  35  49  76 109 159 210 249 287 329
#     4  10  22  40  60  82 114 155 194 240 303 355
#     4  10  22  36  60  81 110 149 198 240 300 351
#     4  12  20  36  52  72 109 152 201 244 284 338
#     4  12  22  37  60  80 116 148 198 245 294 354
#     4  10  24  37  52  85 117 156 193 247 288 357
#
# _framework density 17.509914999999999
#
# number of rings (size 3 to 8) (size 9 to 14) (size 15 to 20)
#    0.000    1.167    5.000    1.000   11.667    1.333 
#    0.000    0.000    0.000    0.000    0.000    0.000 
#    0.000    5.333    0.000    0.000    0.000    0.000 
#
# Total GULP energy -267738.092565 kJ/mol
# GULP energy per Si atom -5577.876928 kJ/mol
# Density = 1.747006 g / cm^3
# Si number density = 17.509915 Si / 1000 Ang^3
#
#
#
# Elastic Constant Matrix: (Units=GPa)
#
#
# Indices 1 2 3 4 5 6 
#
# 1 55.5065 36.6859 28.4369 0.0000 0.0000 0.0000
# 2 36.6859 55.5098 28.4347 0.0000 0.0000 0.0000
# 3 28.4369 28.4347 79.3803 0.0000 0.0000 0.0000
# 4 0.0000 0.0000 0.0000 27.4332 0.0000 0.0000
# 5 0.0000 0.0000 0.0000 0.0000 27.4738 0.0000
# 6 0.0000 0.0000 0.0000 0.0000 0.0000 24.2090
#
#
#
# Elastic Compliance Matrix: (Units=1/GPa)
#
#
# Indices 1 2 3 4 5 6 
#
# 1 0.033528 -0.019603 -0.004989 0.000000 0.000000 0.000000
# 2 -0.019603 0.033524 -0.004986 0.000000 0.000000 0.000000
# 3 -0.004989 -0.004986 0.016171 0.000000 0.000000 0.000000
# 4 0.000000 0.000000 0.000000 0.036452 0.000000 0.000000
# 5 0.000000 0.000000 0.000000 0.000000 0.036398 0.000000
# 6 0.000000 0.000000 0.000000 0.000000 0.000000 0.041307
#
#
# Mechanical properties :
#
#
# Convention : Reuss Voigt Hill
#
# Bulk Modulus (GPa) = 41.55050 41.94575 41.74813
# Shear Modulus (GPa) = 18.89938 22.27914 20.58926
#
# Velocity S-wave (km/s) = 3.28892 3.57090 3.43281
# Velocity P-wave (km/s) = 6.18092 6.40385 6.29337
#
# Compressibility (1/GPa) = 0.02406710
#
# Stress axis : x y z
#
# Youngs Moduli (GPa) = 29.82594 29.82914 61.83914
#
# Poissons Ratio (x) = 0.58473 0.30852
# Poissons Ratio (y) = 0.58467 0.30835
# Poissons Ratio (z) = 0.14880 0.14874
#
# Static dielectric constant tensor:
#      x y z
#    x 1.527680 0.000000 0.000000 
#    y 0.000000 1.528090 0.000000 
#    z 0.000000 0.000000 1.801060 
# 
# From -- ./inp_files/2761.got.cif
#   From: 2010.05.17/outbox.cif.g08.bks.cpg/sg120_2_cif.got.tgz:2761.got - 2010.05.20 11:28:13.
