data_PCOD9559781
_publ_section_title
;
Structure prediction by ZEFSAII (Michael W. Deem and Ramdas Pophale) SiO2 
 PCOD9559781
Probable space group: I -4 C 2
;
_chemical_formula_sum "Si O2"
_cell_formula_units_Z 112
_cell_length_a 14.158020
_cell_length_b 14.158020
_cell_length_c 25.103709
_cell_angle_alpha 90.000000
_cell_angle_beta 90.000000
_cell_angle_gamma 90.000000
_cell_volume 5032.026678
_symmetry_space_group_name_H-M "I -4 C 2"
_symmetry_group_IT_number 120
_symmetry_cell_setting 'tetragonal'
loop_
_space_group_symop_operation_xyz
x,y,z
y,-x,-z
-x,-y,z
-y,x,-z
y,x,1/2-z
-y,-x,1/2-z
-x,y,1/2+z
x,-y,1/2+z
1/2+x,1/2+y,1/2+z
1/2+y,1/2-x,1/2-z
1/2-x,1/2-y,1/2+z
1/2-y,1/2+x,1/2-z
1/2+y,1/2+x,-z
1/2-y,1/2-x,-z
1/2-x,1/2+y,z
1/2+x,1/2-y,z
loop_
_atom_site_type_symbol
_atom_site_label
_atom_site_fract_x
_atom_site_fract_y
_atom_site_fract_z
Si Si1 0.412364 0.234386 0.017971
Si Si2 0.655166 0.098963 0.943702
Si Si3 0.928023 0.626395 0.236365
Si Si4 0.429695 0.282369 0.651280
Si Si5 0.372924 0.351074 0.122073
Si Si6 0.731087 0.993909 0.094696
Si Si7 0.673952 0.227856 0.326805
O O1 0.487249 0.158449 0.042994
O O2 0.387909 0.312352 0.061760
O O3 0.319825 0.180176 0.000000
O O4 0.462034 0.267180 0.963656
O O5 0.746926 0.107691 0.906468
O O6 0.565538 0.143386 0.913818
O O7 0.653723 0.153723 0.000000
O O8 0.887997 0.521855 0.227869
O O9 0.953076 0.687111 0.184548
O O10 0.852301 0.680924 0.271407
O O11 0.522361 0.345605 0.646469
O O12 0.340323 0.329748 0.678005
O O13 0.315853 0.447872 0.121774
O O14 0.308764 0.274437 0.152701
O O15 0.701656 0.903643 0.128705
#
# Coordination Sequence:
#
# PCOD9559781 Si02
#       7
#    16  16  16  16  16  16  16
#     4  10  21  38  62  99 132 177 227 280 342 413
#     4   9  20  36  60  94 129 169 215 273 334 391
#     4  11  24  43  71 106 133 169 228 296 353 407
#     4  11  23  45  66  97 136 180 222 277 340 421
#     4  11  24  44  65  97 140 179 230 286 341 415
#     4  11  23  40  65  99 132 181 228 280 341 410
#     4  12  24  44  70  95 135 184 224 281 353 416
#
# _framework density 22.257432999999999
#
# number of rings (size 3 to 8) (size 9 to 14) (size 15 to 20)
#    0.000    1.286    4.286    1.286    0.000    8.286 
#    0.000    0.714    0.000    1.714    0.000    0.000 
#    0.000    0.000    0.000    0.000    0.000    0.000 
#
# Total GULP energy -313070.007844 kJ/mol
# GULP energy per Si atom -5590.535854 kJ/mol
# Density = 2.220677 g / cm^3
# Si number density = 22.257433 Si / 1000 Ang^3
#
#
#
# Elastic Constant Matrix: (Units=GPa)
#
#
# Indices 1 2 3 4 5 6 
#
# 1 55.8671 12.3973 -1.7368 0.0000 0.0000 0.0000
# 2 12.3973 55.8652 -1.7374 0.0000 0.0000 0.0000
# 3 -1.7368 -1.7374 46.7302 0.0000 0.0000 0.0000
# 4 0.0000 0.0000 0.0000 25.8436 0.0000 0.0000
# 5 0.0000 0.0000 0.0000 0.0000 25.8439 0.0000
# 6 0.0000 0.0000 0.0000 0.0000 0.0000 25.8702
#
#
#
# Elastic Compliance Matrix: (Units=1/GPa)
#
#
# Indices 1 2 3 4 5 6 
#
# 1 0.018841 -0.004164 0.000545 0.000000 0.000000 0.000000
# 2 -0.004164 0.018841 0.000546 0.000000 0.000000 0.000000
# 3 0.000545 0.000546 0.021440 0.000000 0.000000 0.000000
# 4 0.000000 0.000000 0.000000 0.038694 0.000000 0.000000
# 5 0.000000 0.000000 0.000000 0.000000 0.038694 0.000000
# 6 0.000000 0.000000 0.000000 0.000000 0.000000 0.038655
#
#
# Mechanical properties :
#
#
# Convention : Reuss Voigt Hill
#
# Bulk Modulus (GPa) = 18.87642 19.58985 19.23313
# Shear Modulus (GPa) = 25.12952 25.48082 25.30517
#
# Velocity S-wave (km/s) = 3.36376 3.38719 3.37550
# Velocity P-wave (km/s) = 4.85653 4.91101 4.88385
#
# Compressibility (1/GPa) = 0.05297615
#
# Stress axis : x y z
#
# Youngs Moduli (GPa) = 53.07679 53.07494 46.64176
#
# Poissons Ratio (x) = 0.22101 -0.02544
# Poissons Ratio (y) = 0.22101 -0.02546
# Poissons Ratio (z) = -0.02895 -0.02897
#
# Static dielectric constant tensor:
#      x y z
#    x 1.811270 0.000000 0.000000 
#    y 0.000000 1.811270 0.000000 
#    z 0.000000 0.000000 1.866710 
# 
# From -- ./inp_files/6266.got.cif
#   From: 2010.05.17/outbox.cif.g08.bks.cpg/sg120_4_cif.got.tgz:6266.got - 2010.05.20 11:28:13.
