data_PCOD9559846
_publ_section_title
;
Structure prediction by ZEFSAII (Michael W. Deem and Ramdas Pophale) SiO2 
 PCOD9559846
Probable space group: I -4 C 2
;
_chemical_formula_sum "Si O2"
_cell_formula_units_Z 88
_cell_length_a 12.293291
_cell_length_b 12.293291
_cell_length_c 26.513322
_cell_angle_alpha 90.000000
_cell_angle_beta 90.000000
_cell_angle_gamma 90.000000
_cell_volume 4006.825883
_symmetry_space_group_name_H-M "I -4 C 2"
_symmetry_group_IT_number 120
_symmetry_cell_setting 'tetragonal'
loop_
_space_group_symop_operation_xyz
x,y,z
y,-x,-z
-x,-y,z
-y,x,-z
y,x,1/2-z
-y,-x,1/2-z
-x,y,1/2+z
x,-y,1/2+z
1/2+x,1/2+y,1/2+z
1/2+y,1/2-x,1/2-z
1/2-x,1/2-y,1/2+z
1/2-y,1/2+x,1/2-z
1/2+y,1/2+x,-z
1/2-y,1/2-x,-z
1/2-x,1/2+y,z
1/2+x,1/2-y,z
loop_
_atom_site_type_symbol
_atom_site_label
_atom_site_fract_x
_atom_site_fract_y
_atom_site_fract_z
Si Si1 0.828705 0.560276 0.246873
Si Si2 0.795388 0.329450 0.161487
Si Si3 0.360928 0.697004 0.917423
Si Si4 0.980742 0.377214 0.919214
Si Si5 0.306673 0.806673 0.500000
Si Si6 0.995590 0.872768 0.326742
O O1 0.872906 0.441399 0.266102
O O2 0.787787 0.635741 0.291981
O O3 0.725852 0.545818 0.208537
O O4 0.798349 0.238635 0.120138
O O5 0.860434 0.431096 0.136520
O O6 0.673651 0.372049 0.171446
O O7 0.406739 0.816818 0.922828
O O8 0.308318 0.670744 0.971721
O O9 0.452136 0.634257 0.883578
O O10 0.899178 0.322131 0.958299
O O11 0.000000 0.500000 0.931696
O O12 0.000000 0.000000 0.310651
#
# Coordination Sequence:
#
# PCOD9559846 Si02
#       6
#    16  16  16  16   8  16
#     4   9  19  38  71 104 136 181 237 281 329 402
#     4   9  21  40  67 100 133 176 224 274 340 402
#     4  10  23  43  65  94 139 170 222 281 344 405
#     4  10  22  39  69  99 124 170 225 284 332 405
#     4  10  23  42  61 100 122 172 226 270 349 406
#     4  10  22  43  68 102 139 182 221 278 351 413
#
# _framework density 21.962520999999999
#
# number of rings (size 3 to 8) (size 9 to 14) (size 15 to 20)
#    0.000    2.364    0.000    0.273   10.182    3.636 
#    6.545    1.818   20.000    0.000    0.000    0.000 
#    0.000    0.000    0.000    0.000    0.000    0.000 
#
# Total GULP energy -245009.641853 kJ/mol
# GULP energy per Si atom -5568.400951 kJ/mol
# Density = 2.191253 g / cm^3
# Si number density = 21.962521 Si / 1000 Ang^3
#
#
#
# Elastic Constant Matrix: (Units=GPa)
#
#
# Indices 1 2 3 4 5 6 
#
# 1 76.4588 10.3808 25.9000 0.0000 0.0000 0.0000
# 2 10.3808 76.4588 25.9000 0.0000 0.0000 0.0000
# 3 25.9000 25.9000 96.8224 0.0000 0.0000 0.0000
# 4 0.0000 0.0000 0.0000 17.3832 0.0000 0.0000
# 5 0.0000 0.0000 0.0000 0.0000 17.3832 0.0000
# 6 0.0000 0.0000 0.0000 0.0000 0.0000 24.2562
#
#
#
# Elastic Compliance Matrix: (Units=1/GPa)
#
#
# Indices 1 2 3 4 5 6 
#
# 1 0.014418 -0.000716 -0.003665 0.000000 0.000000 0.000000
# 2 -0.000716 0.014418 -0.003665 0.000000 0.000000 0.000000
# 3 -0.003665 -0.003665 0.012289 0.000000 0.000000 0.000000
# 4 0.000000 0.000000 0.000000 0.057527 0.000000 0.000000
# 5 0.000000 0.000000 0.000000 0.000000 0.057527 0.000000
# 6 0.000000 0.000000 0.000000 0.000000 0.000000 0.041227
#
#
# Mechanical properties :
#
#
# Convention : Reuss Voigt Hill
#
# Bulk Modulus (GPa) = 39.94924 41.56684 40.75804
# Shear Modulus (GPa) = 22.53863 24.30847 23.42355
#
# Velocity S-wave (km/s) = 3.20696 3.33049 3.26931
# Velocity P-wave (km/s) = 5.65173 5.81007 5.73145
#
# Compressibility (1/GPa) = 0.02503177
#
# Stress axis : x y z
#
# Youngs Moduli (GPa) = 69.35908 69.35908 81.37299
#
# Poissons Ratio (x) = 0.04965 0.29825
# Poissons Ratio (y) = 0.04965 0.29825
# Poissons Ratio (z) = 0.25422 0.25422
#
# Static dielectric constant tensor:
#      x y z
#    x 1.815600 0.000000 0.000000 
#    y 0.000000 1.815600 0.000000 
#    z 0.000000 0.000000 1.880650 
# 
# From -- ./inp_files/6607.got.cif
#   From: 2010.05.17/outbox.cif.g08.bks.cpg/sg120_4_cif.got.tgz:6607.got - 2010.05.20 11:28:13.
