data_PCOD9559736
_publ_section_title
;
Structure prediction by ZEFSAII (Michael W. Deem and Ramdas Pophale) SiO2 
 PCOD9559736
Probable space group: I -4 C 2
;
_chemical_formula_sum "Si O2"
_cell_formula_units_Z 72
_cell_length_a 21.669325
_cell_length_b 21.669325
_cell_length_c 7.603146
_cell_angle_alpha 90.000000
_cell_angle_beta 90.000000
_cell_angle_gamma 90.000000
_cell_volume 3570.130544
_symmetry_space_group_name_H-M "I -4 C 2"
_symmetry_group_IT_number 120
_symmetry_cell_setting 'tetragonal'
loop_
_space_group_symop_operation_xyz
x,y,z
y,-x,-z
-x,-y,z
-y,x,-z
y,x,1/2-z
-y,-x,1/2-z
-x,y,1/2+z
x,-y,1/2+z
1/2+x,1/2+y,1/2+z
1/2+y,1/2-x,1/2-z
1/2-x,1/2-y,1/2+z
1/2-y,1/2+x,1/2-z
1/2+y,1/2+x,-z
1/2-y,1/2-x,-z
1/2-x,1/2+y,z
1/2+x,1/2-y,z
loop_
_atom_site_type_symbol
_atom_site_label
_atom_site_fract_x
_atom_site_fract_y
_atom_site_fract_z
Si Si1 0.567150 0.075012 0.707112
Si Si2 0.315971 0.149862 0.799556
Si Si3 0.789775 0.210226 0.750000
Si Si4 0.378453 0.687392 0.588050
Si Si5 0.415696 0.455972 0.558680
O O1 0.494213 0.084007 0.735809
O O2 0.576289 0.076289 0.500000
O O3 0.610585 0.128672 0.783423
O O4 0.300670 0.216638 0.715888
O O5 0.254407 0.109997 0.828545
O O6 0.333692 0.166309 0.000000
O O7 0.806948 0.169445 0.577589
O O8 0.349787 0.650214 0.750000
O O9 0.436775 0.650221 0.515125
O O10 0.427202 0.528985 0.558297
O O11 0.427575 0.427575 0.750000
#
# Coordination Sequence:
#
# PCOD9559736 Si02
#       5
#    16  16   8  16  16
#     4  10  20  40  60  87 121 158 203 257 306 367
#     4   9  20  38  62  86 122 162 205 252 315 365
#     4  10  20  42  62  85 128 165 204 258 308 376
#     4  11  21  39  61  93 125 163 210 253 307 370
#     4  11  22  41  64  90 126 166 208 253 310 366
#
# _framework density 20.16733
#
# number of rings (size 3 to 8) (size 9 to 14) (size 15 to 20)
#    0.000    1.778    2.222    4.000    0.000    0.000 
#   12.000    2.222    0.000    0.000    0.000    0.000 
#    0.000    0.000    0.000    0.000    0.000    0.000 
#
# Total GULP energy -200830.392711 kJ/mol
# GULP energy per Si atom -5578.622020 kJ/mol
# Density = 2.012143 g / cm^3
# Si number density = 20.167330 Si / 1000 Ang^3
#
#
#
# Elastic Constant Matrix: (Units=GPa)
#
#
# Indices 1 2 3 4 5 6 
#
# 1 93.9858 76.7267 2.7034 0.0000 0.0000 0.0000
# 2 76.7267 93.9871 2.7025 0.0000 0.0000 0.0000
# 3 2.7034 2.7025 70.7342 0.0000 0.0000 0.0000
# 4 0.0000 0.0000 0.0000 17.5880 0.0000 0.0000
# 5 0.0000 0.0000 0.0000 0.0000 17.5870 0.0000
# 6 0.0000 0.0000 0.0000 0.0000 0.0000 41.2582
#
#
#
# Elastic Compliance Matrix: (Units=1/GPa)
#
#
# Indices 1 2 3 4 5 6 
#
# 1 0.031902 -0.026037 -0.000224 0.000000 0.000000 0.000000
# 2 -0.026037 0.031901 -0.000224 0.000000 0.000000 0.000000
# 3 -0.000224 -0.000224 0.014155 0.000000 0.000000 0.000000
# 4 0.000000 0.000000 0.000000 0.056857 0.000000 0.000000
# 5 0.000000 0.000000 0.000000 0.000000 0.056860 0.000000
# 6 0.000000 0.000000 0.000000 0.000000 0.000000 0.024238
#
#
# Mechanical properties :
#
#
# Convention : Reuss Voigt Hill
#
# Bulk Modulus (GPa) = 40.01944 46.99692 43.50818
# Shear Modulus (GPa) = 18.03677 27.05826 22.54752
#
# Velocity S-wave (km/s) = 2.99382 3.66688 3.34731
# Velocity P-wave (km/s) = 5.64247 6.42511 6.04647
#
# Compressibility (1/GPa) = 0.02498785
#
# Stress axis : x y z
#
# Youngs Moduli (GPa) = 31.34627 31.34674 70.64864
#
# Poissons Ratio (x) = 0.81616 0.01586
# Poissons Ratio (y) = 0.81615 0.01581
# Poissons Ratio (z) = 0.00704 0.00701
#
# Static dielectric constant tensor:
#      x y z
#    x 1.753850 0.000000 0.000000 
#    y 0.000000 1.753850 0.000000 
#    z 0.000000 0.000000 1.731950 
# 
# From -- ./inp_files/1352.got.cif
#   From: 2010.05.17/outbox.cif.g08.bks.cpg/sg120_1_cif.got.tgz:1352.got - 2010.05.20 11:28:13.
