data_PCOD9559271
_publ_section_title
;
Structure prediction by ZEFSAII (Michael W. Deem and Ramdas Pophale) SiO2 
 PCOD9559271
Probable space group: I -4 M 2
;
_chemical_formula_sum "Si O2"
_cell_formula_units_Z 48
_cell_length_a 7.978195
_cell_length_b 7.978195
_cell_length_c 38.294786
_cell_angle_alpha 90.000000
_cell_angle_beta 90.000000
_cell_angle_gamma 90.000000
_cell_volume 2437.524227
_symmetry_space_group_name_H-M "I -4 M 2"
_symmetry_group_IT_number 119
_symmetry_cell_setting 'tetragonal'
loop_
_space_group_symop_operation_xyz
x,y,z
y,-x,-z
-x,-y,z
-y,x,-z
y,x,-z
-y,-x,-z
-x,y,z
x,-y,z
1/2+x,1/2+y,1/2+z
1/2+y,1/2-x,1/2-z
1/2-x,1/2-y,1/2+z
1/2-y,1/2+x,1/2-z
1/2+y,1/2+x,1/2-z
1/2-y,1/2-x,1/2-z
1/2-x,1/2+y,1/2+z
1/2+x,1/2-y,1/2+z
loop_
_atom_site_type_symbol
_atom_site_label
_atom_site_fract_x
_atom_site_fract_y
_atom_site_fract_z
Si Si1 0.796970 0.000000 0.836956
Si Si2 0.698085 0.000000 0.917594
Si Si3 0.697736 0.815658 0.463165
Si Si4 0.703947 0.191289 0.289876
O O1 0.745597 0.000000 0.877097
O O2 0.738247 0.167580 0.816846
O O3 0.000000 0.000000 0.835374
O O4 0.764611 0.165639 0.936891
O O5 0.500000 0.000000 0.921500
O O6 0.788550 0.788550 0.500000
O O7 0.500000 0.811372 0.470983
O O8 0.739981 0.000000 0.448812
O O9 0.500000 0.185630 0.291398
O O10 0.742696 0.242696 0.250000
O O11 0.763172 0.000000 0.296232
#
# Coordination Sequence:
#
# PCOD9559271 Si02
#       4
#     8   8  16  16
#     4  10  20  36  58  84 116 160 208 258 318 373
#     4  12  26  42  58  88 134 172 210 259 323 388
#     4  11  23  41  67  95 121 160 213 265 316 377
#     4   8  15  31  56  84 113 149 200 257 311 373
#
# _framework density 19.692112000000002
#
# number of rings (size 3 to 8) (size 9 to 14) (size 15 to 20)
#    0.000    2.000    1.667    3.500    0.000    3.667 
#    3.000    3.333    0.000    0.000    0.000    0.000 
#    0.000    0.000    0.000    0.000    0.000    0.000 
#
# Total GULP energy -134034.810671 kJ/mol
# GULP energy per Si atom -5584.783778 kJ/mol
# Density = 1.964729 g / cm^3
# Si number density = 19.692112 Si / 1000 Ang^3
#
#
#
# Elastic Constant Matrix: (Units=GPa)
#
#
# Indices 1 2 3 4 5 6 
#
# 1 108.5608 40.2645 53.3075 0.0000 0.0000 0.0000
# 2 40.2645 108.5608 53.3075 0.0000 0.0000 0.0000
# 3 53.3075 53.3075 125.6206 0.0000 0.0000 0.0000
# 4 0.0000 0.0000 0.0000 -16.1826 0.0000 0.0000
# 5 0.0000 0.0000 0.0000 0.0000 -16.1826 0.0000
# 6 0.0000 0.0000 0.0000 0.0000 0.0000 -31.3244
#
#
#
# Elastic Compliance Matrix: (Units=1/GPa)
#
#
# Indices 1 2 3 4 5 6 
#
# 1 0.012148 -0.002494 -0.004097 0.000000 0.000000 0.000000
# 2 -0.002494 0.012148 -0.004097 0.000000 0.000000 0.000000
# 3 -0.004097 -0.004097 0.011437 0.000000 0.000000 0.000000
# 4 0.000000 0.000000 0.000000 -0.061795 0.000000 0.000000
# 5 0.000000 0.000000 0.000000 0.000000 -0.061795 0.000000
# 6 0.000000 0.000000 0.000000 0.000000 0.000000 -0.031924
#
#
# Mechanical properties :
#
#
# Convention : Reuss Voigt Hill
#
# Bulk Modulus (GPa) = 69.64453 70.72234 70.18343
# Shear Modulus (GPa) = -53.40804 0.31959 -26.54422
#
# Velocity S-wave (km/s) = -5.21348 0.40330 -3.67544
# Velocity P-wave (km/s) = 0.89279 6.01738 4.20784
#
# Compressibility (1/GPa) = 0.01435863
#
# Stress axis : x y z
#
# Youngs Moduli (GPa) = 82.31742 82.31742 87.43236
#
# Poissons Ratio (x) = 0.20530 0.35819
# Poissons Ratio (y) = 0.20530 0.35819
# Poissons Ratio (z) = 0.33723 0.33723
#
# Static dielectric constant tensor:
#      x y z
#    x 1.711410 0.000000 0.000000 
#    y 0.000000 1.711410 0.000000 
#    z 0.000000 0.000000 1.651760 
# 
# From -- ./inp_files/9861.got.cif
#   From: 2010.05.17/outbox.cif.g08.bks.cpg/sg119_5_cif.got.tgz:9861.got - 2010.05.20 11:21:29.
