data_PCOD9559196
_publ_section_title
;
Structure prediction by ZEFSAII (Michael W. Deem and Ramdas Pophale) SiO2 
 PCOD9559196
Probable space group: I -4 M 2
;
_chemical_formula_sum "Si O2"
_cell_formula_units_Z 96
_cell_length_a 14.054230
_cell_length_b 14.054230
_cell_length_c 26.565786
_cell_angle_alpha 90.000000
_cell_angle_beta 90.000000
_cell_angle_gamma 90.000000
_cell_volume 5247.310735
_symmetry_space_group_name_H-M "I -4 M 2"
_symmetry_group_IT_number 119
_symmetry_cell_setting 'tetragonal'
loop_
_space_group_symop_operation_xyz
x,y,z
y,-x,-z
-x,-y,z
-y,x,-z
y,x,-z
-y,-x,-z
-x,y,z
x,-y,z
1/2+x,1/2+y,1/2+z
1/2+y,1/2-x,1/2-z
1/2-x,1/2-y,1/2+z
1/2-y,1/2+x,1/2-z
1/2+y,1/2+x,1/2-z
1/2-y,1/2-x,1/2-z
1/2-x,1/2+y,1/2+z
1/2+x,1/2-y,1/2+z
loop_
_atom_site_type_symbol
_atom_site_label
_atom_site_fract_x
_atom_site_fract_y
_atom_site_fract_z
Si Si1 0.386326 0.728088 0.647952
Si Si2 0.108175 0.115197 0.752844
Si Si3 0.691078 0.612422 0.552810
Si Si4 0.114954 0.765747 0.343094
Si Si5 0.794563 0.890422 0.547554
Si Si6 0.892776 0.390540 0.508286
O O1 0.500000 0.739647 0.645951
O O2 0.360697 0.660503 0.695262
O O3 0.350440 0.675695 0.597528
O O4 0.332096 0.827047 0.656852
O O5 0.170628 0.142991 0.704575
O O6 0.000000 0.151151 0.750922
O O7 0.103905 0.000000 0.751305
O O8 0.643728 0.643728 0.500000
O O9 0.674117 0.500000 0.561441
O O10 0.804719 0.627602 0.545485
O O11 0.141293 0.816370 0.396094
O O12 0.000000 0.752121 0.343209
O O13 0.837543 0.837543 0.500000
O O14 0.681205 0.884133 0.538255
O O15 0.823679 0.000000 0.543436
O O16 0.884603 0.500000 0.492110
O O17 0.000000 0.376271 0.529329
#
# Coordination Sequence:
#
# PCOD9559196 Si02
#       6
#    16  16  16  16  16  16
#     4  11  22  36  56  81 111 146 184 227 273 325
#     4   9  19  37  58  78 103 137 178 224 273 324
#     4  11  22  35  54  81 112 145 183 228 276 327
#     4  10  21  36  55  80 109 143 182 224 273 329
#     4  10  20  33  50  74 105 138 175 219 266 320
#     4   9  18  33  52  74 105 145 182 218 267 327
#
# _framework density 18.295086000000001
#
# number of rings (size 3 to 8) (size 9 to 14) (size 15 to 20)
#    0.000    2.000    0.000    4.000    0.000    5.000 
#    0.000    4.167    0.000    3.000    0.000    0.000 
#    0.000    1.333    0.000    0.667    0.000    0.167 
#
# Total GULP energy -267775.818875 kJ/mol
# GULP energy per Si atom -5578.662893 kJ/mol
# Density = 1.825345 g / cm^3
# Si number density = 18.295086 Si / 1000 Ang^3
#
#
#
# Elastic Constant Matrix: (Units=GPa)
#
#
# Indices 1 2 3 4 5 6 
#
# 1 77.9409 32.9579 50.8557 0.0000 0.0000 0.0000
# 2 32.9579 77.9409 50.8557 0.0000 0.0000 0.0000
# 3 50.8557 50.8557 150.7763 0.0000 0.0000 0.0000
# 4 0.0000 0.0000 0.0000 22.3019 0.0000 0.0000
# 5 0.0000 0.0000 0.0000 0.0000 22.3019 0.0000
# 6 0.0000 0.0000 0.0000 0.0000 0.0000 19.0148
#
#
#
# Elastic Compliance Matrix: (Units=1/GPa)
#
#
# Indices 1 2 3 4 5 6 
#
# 1 0.017643 -0.004587 -0.004404 0.000000 0.000000 0.000000
# 2 -0.004587 0.017643 -0.004404 0.000000 0.000000 0.000000
# 3 -0.004404 -0.004404 0.009603 0.000000 0.000000 0.000000
# 4 0.000000 0.000000 0.000000 0.044839 0.000000 0.000000
# 5 0.000000 0.000000 0.000000 0.000000 0.044839 0.000000
# 6 0.000000 0.000000 0.000000 0.000000 0.000000 0.052591
#
#
# Mechanical properties :
#
#
# Convention : Reuss Voigt Hill
#
# Bulk Modulus (GPa) = 55.24749 63.99962 59.62355
# Shear Modulus (GPa) = 22.72917 24.18965 23.45941
#
# Velocity S-wave (km/s) = 3.52854 3.64014 3.58478
# Velocity P-wave (km/s) = 6.84576 7.26122 7.05655
#
# Compressibility (1/GPa) = 0.01810037
#
# Stress axis : x y z
#
# Youngs Moduli (GPa) = 56.67843 56.67843 104.13377
#
# Poissons Ratio (x) = 0.26000 0.45858
# Poissons Ratio (y) = 0.26000 0.45858
# Poissons Ratio (z) = 0.24960 0.24960
#
# Static dielectric constant tensor:
#      x y z
#    x 1.650110 0.000000 0.000000 
#    y 0.000000 1.650110 0.000000 
#    z 0.000000 0.000000 1.620310 
# 
# From -- ./inp_files/7779.got.cif
#   From: 2010.05.17/outbox.cif.g08.bks.cpg/sg119_4_cif.got.tgz:7779.got - 2010.05.20 11:21:29.
