data_PCOD9559001
_publ_section_title
;
Structure prediction by ZEFSAII (Michael W. Deem and Ramdas Pophale) SiO2 
 PCOD9559001
Probable space group: I -4 M 2
;
_chemical_formula_sum "Si O2"
_cell_formula_units_Z 96
_cell_length_a 15.224487
_cell_length_b 15.224487
_cell_length_c 19.174629
_cell_angle_alpha 90.000000
_cell_angle_beta 90.000000
_cell_angle_gamma 90.000000
_cell_volume 4444.391467
_symmetry_space_group_name_H-M "I -4 M 2"
_symmetry_group_IT_number 119
_symmetry_cell_setting 'tetragonal'
loop_
_space_group_symop_operation_xyz
x,y,z
y,-x,-z
-x,-y,z
-y,x,-z
y,x,-z
-y,-x,-z
-x,y,z
x,-y,z
1/2+x,1/2+y,1/2+z
1/2+y,1/2-x,1/2-z
1/2-x,1/2-y,1/2+z
1/2-y,1/2+x,1/2-z
1/2+y,1/2+x,1/2-z
1/2-y,1/2-x,1/2-z
1/2-x,1/2+y,1/2+z
1/2+x,1/2-y,1/2+z
loop_
_atom_site_type_symbol
_atom_site_label
_atom_site_fract_x
_atom_site_fract_y
_atom_site_fract_z
Si Si1 0.093830 0.349121 0.820850
Si Si2 0.392263 0.403363 0.141398
Si Si3 0.600535 0.102989 0.944202
Si Si4 0.858353 0.899110 0.202563
Si Si5 0.102501 0.262922 0.568527
Si Si6 0.797359 0.899495 0.938021
O O1 0.097499 0.402502 0.750000
O O2 0.101860 0.247216 0.801036
O O3 0.175323 0.376910 0.866320
O O4 0.000000 0.362770 0.857271
O O5 0.500000 0.401088 0.143189
O O6 0.365376 0.500000 0.118654
O O7 0.363307 0.386284 0.221406
O O8 0.356210 0.330804 0.087688
O O9 0.500000 0.119310 0.915755
O O10 0.696865 0.111116 0.909155
O O11 0.597462 0.000000 0.966731
O O12 0.618177 0.173867 0.004283
O O13 0.890023 0.854396 0.131808
O O14 0.888186 0.000000 0.201028
O O15 0.000000 0.244689 0.564943
O O16 0.804721 0.000000 0.965834
O O17 0.833743 0.833743 0.000000
#
# Coordination Sequence:
#
# PCOD9559001 Si02
#       6
#    16  16  16  16  16  16
#     4  11  20  30  46  74 111 146 179 214 260 326
#     4   9  17  30  48  72 105 143 178 214 264 328
#     4   9  19  36  57  81 111 147 187 232 281 332
#     4  10  20  34  51  76 113 151 180 214 268 329
#     4  10  18  30  48  74 106 140 176 219 273 329
#     4  11  22  35  54  82 113 149 190 230 277 333
#
# _framework density 21.600256999999999
#
# number of rings (size 3 to 8) (size 9 to 14) (size 15 to 20)
#    0.000    2.000    1.667    3.000    0.000    6.333 
#    0.000    0.000    0.000    4.000    0.000    0.000 
#    0.000    0.000    0.000    0.000    0.000    0.000 
#
# Total GULP energy -267329.435517 kJ/mol
# GULP energy per Si atom -5569.363240 kJ/mol
# Density = 2.155109 g / cm^3
# Si number density = 21.600257 Si / 1000 Ang^3
#
#
#
# Elastic Constant Matrix: (Units=GPa)
#
#
# Indices 1 2 3 4 5 6 
#
# 1 117.4624 23.5250 -2.5747 0.0000 0.0000 0.0000
# 2 23.5250 117.4615 -2.5748 0.0000 0.0000 0.0000
# 3 -2.5747 -2.5748 36.5382 0.0000 0.0000 0.0000
# 4 0.0000 0.0000 0.0000 15.6332 0.0000 0.0000
# 5 0.0000 0.0000 0.0000 0.0000 15.6329 0.0000
# 6 0.0000 0.0000 0.0000 0.0000 0.0000 -105.1267
#
#
#
# Elastic Compliance Matrix: (Units=1/GPa)
#
#
# Indices 1 2 3 4 5 6 
#
# 1 0.008878 -0.001767 0.000501 0.000000 0.000000 0.000000
# 2 -0.001767 0.008878 0.000501 0.000000 0.000000 0.000000
# 3 0.000501 0.000501 0.027439 0.000000 0.000000 0.000000
# 4 0.000000 0.000000 0.000000 0.063966 0.000000 0.000000
# 5 0.000000 0.000000 0.000000 0.000000 0.063968 0.000000
# 6 0.000000 0.000000 0.000000 0.000000 0.000000 -0.009512
#
#
# Mechanical properties :
#
#
# Convention : Reuss Voigt Hill
#
# Bulk Modulus (GPa) = 22.90112 34.24589 28.57350
# Shear Modulus (GPa) = 27.82374 2.10033 14.96203
#
# Velocity S-wave (km/s) = 3.59293 0.98715 2.63473
# Velocity P-wave (km/s) = 5.27612 4.14585 4.74477
#
# Compressibility (1/GPa) = 0.04366599
#
# Stress axis : x y z
#
# Youngs Moduli (GPa) = 112.63462 112.63376 36.44415
#
# Poissons Ratio (x) = 0.19904 -0.01826
# Poissons Ratio (y) = 0.19904 -0.01826
# Poissons Ratio (z) = -0.05644 -0.05644
#
# Static dielectric constant tensor:
#      x y z
#    x 1.870930 0.000000 0.000000 
#    y 0.000000 1.870930 0.000000 
#    z 0.000000 0.000000 1.754370 
# 
# From -- ./inp_files/7798.got.cif
#   From: 2010.05.17/outbox.cif.g08.bks.cpg/sg119_4_cif.got.tgz:7798.got - 2010.05.20 11:21:29.
