data_PCOD9559939
_publ_section_title
;
Structure prediction by ZEFSAII (Michael W. Deem and Ramdas Pophale) SiO2 
 PCOD9559939
Probable space group: I -4 C 2
;
_chemical_formula_sum "Si O2"
_cell_formula_units_Z 40
_cell_length_a 13.383642
_cell_length_b 13.383642
_cell_length_c 8.767951
_cell_angle_alpha 90.000000
_cell_angle_beta 90.000000
_cell_angle_gamma 90.000000
_cell_volume 1570.531807
_symmetry_space_group_name_H-M "I -4 C 2"
_symmetry_group_IT_number 120
_symmetry_cell_setting 'tetragonal'
loop_
_space_group_symop_operation_xyz
x,y,z
y,-x,-z
-x,-y,z
-y,x,-z
y,x,1/2-z
-y,-x,1/2-z
-x,y,1/2+z
x,-y,1/2+z
1/2+x,1/2+y,1/2+z
1/2+y,1/2-x,1/2-z
1/2-x,1/2-y,1/2+z
1/2-y,1/2+x,1/2-z
1/2+y,1/2+x,-z
1/2-y,1/2-x,-z
1/2-x,1/2+y,z
1/2+x,1/2-y,z
loop_
_atom_site_type_symbol
_atom_site_label
_atom_site_fract_x
_atom_site_fract_y
_atom_site_fract_z
Si Si1 0.106028 0.900327 0.077770
Si Si2 0.124334 0.419286 0.676315
Si Si3 0.257867 0.742134 0.750000
O O1 0.075947 0.924054 0.250000
O O2 0.191771 0.818018 0.106964
O O3 0.004590 0.861869 0.998345
O O4 0.127818 0.533905 0.724128
O O5 0.096317 0.403684 0.500000
O O6 0.220133 0.357256 0.725044
#
# Coordination Sequence:
#
# PCOD9559939 Si02
#       3
#    16  16   8
#     4   9  18  34  59  94 144 184 223 287 361 419
#     4  11  26  50  76 105 150 198 247 310 370 442
#     4  10  26  41  74 109 132 194 248 298 362 450
#
# _framework density 25.469078
#
# number of rings (size 3 to 8) (size 9 to 14) (size 15 to 20)
#    1.200    0.800    0.000    4.800    5.600    3.200 
#    0.000    0.000    0.000    0.000    0.000    0.000 
#    0.000    0.000    0.000    0.000    0.000    0.000 
#
# Total GULP energy -111980.777445 kJ/mol
# GULP energy per Si atom -5599.038872 kJ/mol
# Density = 2.541111 g / cm^3
# Si number density = 25.469078 Si / 1000 Ang^3
#
#
#
# Elastic Constant Matrix: (Units=GPa)
#
#
# Indices 1 2 3 4 5 6 
#
# 1 44.4596 57.2052 21.0056 0.0000 0.0000 0.0000
# 2 57.2052 44.4598 21.0060 0.0000 0.0000 0.0000
# 3 21.0056 21.0060 145.5425 0.0000 0.0000 0.0000
# 4 0.0000 0.0000 0.0000 28.9297 0.0000 0.0000
# 5 0.0000 0.0000 0.0000 0.0000 28.9298 0.0000
# 6 0.0000 0.0000 0.0000 0.0000 0.0000 56.3457
#
#
#
# Elastic Compliance Matrix: (Units=1/GPa)
#
#
# Indices 1 2 3 4 5 6 
#
# 1 -0.034000 0.044460 -0.001510 0.000000 0.000000 0.000000
# 2 0.044460 -0.034000 -0.001510 0.000000 0.000000 0.000000
# 3 -0.001510 -0.001510 0.007307 0.000000 0.000000 0.000000
# 4 0.000000 0.000000 0.000000 0.034567 0.000000 0.000000
# 5 0.000000 0.000000 0.000000 0.000000 0.034566 0.000000
# 6 0.000000 0.000000 0.000000 0.000000 0.000000 0.017748
#
#
# Mechanical properties :
#
#
# Convention : Reuss Voigt Hill
#
# Bulk Modulus (GPa) = 45.06923 48.09949 46.58436
# Shear Modulus (GPa) = -101.42710 31.85737 -34.78487
#
# Velocity S-wave (km/s) = -6.31744 3.54054 -3.69964
# Velocity P-wave (km/s) = 5.95646 5.96995 0.28369
#
# Compressibility (1/GPa) = 0.02218809
#
# Stress axis : x y z
#
# Youngs Moduli (GPa) = -29.41211 -29.41216 136.86210
#
# Poissons Ratio (x) = 1.30765 0.20663
# Poissons Ratio (y) = 1.30765 0.20660
# Poissons Ratio (z) = -0.04441 -0.04440
#
# Static dielectric constant tensor:
#      x y z
#    x 1.997940 0.000000 0.000000 
#    y 0.000000 1.997930 0.000000 
#    z 0.000000 0.000000 1.998250 
# 
# From -- ./inp_files/757.got.cif
#   From: 2010.05.17/outbox.cif.g08.bks.cpg/sg120_1_cif.got.tgz:757.got - 2010.05.20 11:28:13.
