data_PCOD9559875
_publ_section_title
;
Structure prediction by ZEFSAII (Michael W. Deem and Ramdas Pophale) SiO2 
 PCOD9559875
Probable space group: I -4 C 2
;
_chemical_formula_sum "Si O2"
_cell_formula_units_Z 56
_cell_length_a 15.219780
_cell_length_b 15.219780
_cell_length_c 11.805535
_cell_angle_alpha 90.000000
_cell_angle_beta 90.000000
_cell_angle_gamma 90.000000
_cell_volume 2734.654235
_symmetry_space_group_name_H-M "I -4 C 2"
_symmetry_group_IT_number 120
_symmetry_cell_setting 'tetragonal'
loop_
_space_group_symop_operation_xyz
x,y,z
y,-x,-z
-x,-y,z
-y,x,-z
y,x,1/2-z
-y,-x,1/2-z
-x,y,1/2+z
x,-y,1/2+z
1/2+x,1/2+y,1/2+z
1/2+y,1/2-x,1/2-z
1/2-x,1/2-y,1/2+z
1/2-y,1/2+x,1/2-z
1/2+y,1/2+x,-z
1/2-y,1/2-x,-z
1/2-x,1/2+y,z
1/2+x,1/2-y,z
loop_
_atom_site_type_symbol
_atom_site_label
_atom_site_fract_x
_atom_site_fract_y
_atom_site_fract_z
Si Si1 0.943212 0.179020 0.172312
Si Si2 0.519509 0.862904 0.284215
Si Si3 0.264460 0.100662 0.053281
Si Si4 0.133809 0.133809 0.250000
O O1 0.877399 0.122602 0.250000
O O2 0.944276 0.278267 0.220146
O O3 0.040335 0.140611 0.188463
O O4 0.923248 0.191454 0.040108
O O5 0.438482 0.906938 0.214598
O O6 0.479503 0.825750 0.401723
O O7 0.213519 0.136378 0.162382
O O8 0.326850 0.173151 0.000000
#
# Coordination Sequence:
#
# PCOD9559875 Si02
#       4
#    16  16  16   8
#     4  11  25  45  70 102 144 184 239 295 359 438
#     4  10  22  44  69 103 143 182 242 290 358 431
#     4  11  24  44  71 105 139 190 238 302 368 425
#     4  10  27  46  68 106 136 193 242 286 372 435
#
# _framework density 20.477907999999999
#
# number of rings (size 3 to 8) (size 9 to 14) (size 15 to 20)
#    0.000    1.429    2.857    0.429   10.000    1.143 
#    0.000    0.000    0.000    0.000    0.000    0.000 
#    0.000    0.000    0.000    0.000    0.000    0.000 
#
# Total GULP energy -156405.529166 kJ/mol
# GULP energy per Si atom -5585.911756 kJ/mol
# Density = 2.043130 g / cm^3
# Si number density = 20.477908 Si / 1000 Ang^3
#
#
#
# Elastic Constant Matrix: (Units=GPa)
#
#
# Indices 1 2 3 4 5 6 
#
# 1 73.6491 40.7913 30.1632 0.0000 0.0000 0.0000
# 2 40.7913 73.6671 30.1663 0.0000 0.0000 0.0000
# 3 30.1632 30.1663 113.9601 0.0000 0.0000 0.0000
# 4 0.0000 0.0000 0.0000 34.3231 0.0000 0.0000
# 5 0.0000 0.0000 0.0000 0.0000 34.3250 0.0000
# 6 0.0000 0.0000 0.0000 0.0000 0.0000 39.1700
#
#
#
# Elastic Compliance Matrix: (Units=1/GPa)
#
#
# Indices 1 2 3 4 5 6 
#
# 1 0.020293 -0.010136 -0.002688 0.000000 0.000000 0.000000
# 2 -0.010136 0.020288 -0.002688 0.000000 0.000000 0.000000
# 3 -0.002688 -0.002688 0.010198 0.000000 0.000000 0.000000
# 4 0.000000 0.000000 0.000000 0.029135 0.000000 0.000000
# 5 0.000000 0.000000 0.000000 0.000000 0.029133 0.000000
# 6 0.000000 0.000000 0.000000 0.000000 0.000000 0.025530
#
#
# Mechanical properties :
#
#
# Convention : Reuss Voigt Hill
#
# Bulk Modulus (GPa) = 50.61931 51.50197 51.06064
# Shear Modulus (GPa) = 29.03873 32.24066 30.63970
#
# Velocity S-wave (km/s) = 3.76979 3.97219 3.87231
# Velocity P-wave (km/s) = 6.61219 6.80017 6.70684
#
# Compressibility (1/GPa) = 0.01975531
#
# Stress axis : x y z
#
# Youngs Moduli (GPa) = 49.27900 49.29133 98.05941
#
# Poissons Ratio (x) = 0.49961 0.26359
# Poissons Ratio (y) = 0.49948 0.26354
# Poissons Ratio (z) = 0.13246 0.13247
#
# Static dielectric constant tensor:
#      x y z
#    x 1.721630 0.000000 0.000000 
#    y 0.000000 1.721630 0.000000 
#    z 0.000000 0.000000 1.777890 
# 
# From -- ./inp_files/2187.got.cif
#   From: 2010.05.17/outbox.cif.g08.bks.cpg/sg120_2_cif.got.tgz:2187.got - 2010.05.20 11:28:13.
