data_PCOD9559943
_publ_section_title
;
Structure prediction by ZEFSAII (Michael W. Deem and Ramdas Pophale) SiO2 
 PCOD9559943
Probable space group: I -4 C 2
;
_chemical_formula_sum "Si O2"
_cell_formula_units_Z 88
_cell_length_a 12.729919
_cell_length_b 12.729919
_cell_length_c 26.146526
_cell_angle_alpha 90.000000
_cell_angle_beta 90.000000
_cell_angle_gamma 90.000000
_cell_volume 4237.066442
_symmetry_space_group_name_H-M "I -4 C 2"
_symmetry_group_IT_number 120
_symmetry_cell_setting 'tetragonal'
loop_
_space_group_symop_operation_xyz
x,y,z
y,-x,-z
-x,-y,z
-y,x,-z
y,x,1/2-z
-y,-x,1/2-z
-x,y,1/2+z
x,-y,1/2+z
1/2+x,1/2+y,1/2+z
1/2+y,1/2-x,1/2-z
1/2-x,1/2-y,1/2+z
1/2-y,1/2+x,1/2-z
1/2+y,1/2+x,-z
1/2-y,1/2-x,-z
1/2-x,1/2+y,z
1/2+x,1/2-y,z
loop_
_atom_site_type_symbol
_atom_site_label
_atom_site_fract_x
_atom_site_fract_y
_atom_site_fract_z
Si Si1 0.200115 0.120516 0.419737
Si Si2 0.148316 0.851685 0.750000
Si Si3 0.796645 0.703356 0.500000
Si Si4 0.500000 0.500000 0.115803
Si Si5 0.158321 0.694319 0.839218
Si Si6 0.111760 0.540428 0.919118
Si Si7 0.427605 0.642338 0.695691
O O1 0.196894 0.183158 0.473209
O O2 0.097962 0.046150 0.414773
O O3 0.188219 0.209913 0.376468
O O4 0.307250 0.055702 0.410871
O O5 0.135356 0.747658 0.784583
O O6 0.049512 0.853733 0.711590
O O7 0.823416 0.616614 0.457149
O O8 0.585849 0.549261 0.154801
O O9 0.082856 0.615073 0.870224
O O10 0.256448 0.618344 0.830237
O O11 0.000000 0.500000 0.939460
O O12 0.373552 0.626449 0.750000
#
# Coordination Sequence:
#
# PCOD9559943 Si02
#       7
#    16   8   8   8  16  16  16
#     4  11  25  45  71 101 135 171 235 287 349 422
#     4  12  21  38  62  99 138 180 238 276 334 407
#     4  10  27  44  71 104 126 176 224 286 359 408
#     4  12  21  42  71 100 130 180 228 296 342 414
#     4  11  23  42  65 100 132 187 227 280 345 408
#     4  11  25  47  68  96 141 183 221 282 358 423
#     4  12  21  38  66  95 136 181 231 284 336 398
#
# _framework density 20.769085
#
# number of rings (size 3 to 8) (size 9 to 14) (size 15 to 20)
#    0.000    0.727    6.364    0.273    2.545    5.818 
#    3.273    0.000    0.000    0.000    0.000    0.000 
#    0.000    0.000    0.000    0.000    0.000    0.000 
#
# Total GULP energy -245433.749609 kJ/mol
# GULP energy per Si atom -5578.039764 kJ/mol
# Density = 2.072181 g / cm^3
# Si number density = 20.769085 Si / 1000 Ang^3
#
#
#
# Elastic Constant Matrix: (Units=GPa)
#
#
# Indices 1 2 3 4 5 6 
#
# 1 92.1681 55.6514 29.3226 0.0000 0.0000 0.0000
# 2 55.6514 92.1673 29.3226 0.0000 0.0000 0.0000
# 3 29.3226 29.3226 82.0342 0.0000 0.0000 0.0000
# 4 0.0000 0.0000 0.0000 42.0291 0.0000 0.0000
# 5 0.0000 0.0000 0.0000 0.0000 42.0288 0.0000
# 6 0.0000 0.0000 0.0000 0.0000 0.0000 24.4808
#
#
#
# Elastic Compliance Matrix: (Units=1/GPa)
#
#
# Indices 1 2 3 4 5 6 
#
# 1 0.017634 -0.009751 -0.002818 0.000000 0.000000 0.000000
# 2 -0.009751 0.017634 -0.002818 0.000000 0.000000 0.000000
# 3 -0.002818 -0.002818 0.014204 0.000000 0.000000 0.000000
# 4 0.000000 0.000000 0.000000 0.023793 0.000000 0.000000
# 5 0.000000 0.000000 0.000000 0.000000 0.023793 0.000000
# 6 0.000000 0.000000 0.000000 0.000000 0.000000 0.040848
#
#
# Mechanical properties :
#
#
# Convention : Reuss Voigt Hill
#
# Bulk Modulus (GPa) = 53.47763 54.99586 54.23674
# Shear Modulus (GPa) = 28.58564 31.84594 30.21579
#
# Velocity S-wave (km/s) = 3.71395 3.92003 3.81838
# Velocity P-wave (km/s) = 6.64799 6.85755 6.75358
#
# Compressibility (1/GPa) = 0.01869941
#
# Stress axis : x y z
#
# Youngs Moduli (GPa) = 56.70894 56.70835 70.40083
#
# Poissons Ratio (x) = 0.55297 0.19837
# Poissons Ratio (y) = 0.55297 0.19837
# Poissons Ratio (z) = 0.15979 0.15979
#
# Static dielectric constant tensor:
#      x y z
#    x 1.733120 0.000000 0.000000 
#    y 0.000000 1.733110 0.000000 
#    z 0.000000 0.000000 1.838160 
# 
# From -- ./inp_files/6630.got.cif
#   From: 2010.05.17/outbox.cif.g08.bks.cpg/sg120_4_cif.got.tgz:6630.got - 2010.05.20 11:28:13.
