data_PCOD9559549
_publ_section_title
;
Structure prediction by ZEFSAII (Michael W. Deem and Ramdas Pophale) SiO2 
 PCOD9559549
Probable space group: I -4 M 2
;
_chemical_formula_sum "Si O2"
_cell_formula_units_Z 48
_cell_length_a 21.000000
_cell_length_b 21.000000
_cell_length_c 12.000000
_cell_angle_alpha 90.000000
_cell_angle_beta 90.000000
_cell_angle_gamma 90.000000
_cell_volume 5292.000000
_symmetry_space_group_name_H-M "I -4 M 2"
_symmetry_group_IT_number 119
_symmetry_cell_setting 'tetragonal'
loop_
_space_group_symop_operation_xyz
x,y,z
y,-x,-z
-x,-y,z
-y,x,-z
y,x,-z
-y,-x,-z
-x,y,z
x,-y,z
1/2+x,1/2+y,1/2+z
1/2+y,1/2-x,1/2-z
1/2-x,1/2-y,1/2+z
1/2-y,1/2+x,1/2-z
1/2+y,1/2+x,1/2-z
1/2-y,1/2-x,1/2-z
1/2-x,1/2+y,1/2+z
1/2+x,1/2-y,1/2+z
loop_
_atom_site_type_symbol
_atom_site_label
_atom_site_fract_x
_atom_site_fract_y
_atom_site_fract_z
Si Si1 0.073968 0.695699 0.007943
Si Si2 0.573361 0.669633 0.857552
Si Si3 0.162943 0.757148 0.188638
Si Si4 0.137888 0.735495 0.792754
Si Si5 0.077048 0.428987 0.126000
Si Si6 0.678382 0.572545 0.884709
O O1 0.121682 0.734536 0.085423
O O2 0.091767 0.622121 0.032184
O O3 0.000000 0.704209 0.039898
O O4 0.085746 0.717025 0.882738
O O5 0.500000 0.665412 0.825207
O O6 0.613669 0.713499 0.776618
O O7 0.609181 0.602144 0.861141
O O8 0.577742 0.693315 0.984680
O O9 0.201545 0.701545 0.250000
O O10 0.215738 0.809853 0.157021
O O11 0.173814 0.673814 0.750000
O O12 0.110561 0.771401 0.686765
O O13 0.102857 0.500000 0.107590
O O14 0.094995 0.405006 0.250000
O O15 0.000000 0.433641 0.131263
O O16 0.679293 0.500000 0.851209
#
# Coordination Sequence:
#
# PCOD9559549 Si02
#       6
#    16  16  16  16  16  16
#     4  11  21  34  55  80 105 133 174 221 267 318
#     4   9  18  33  55  83 111 138 174 223 274 324
#     4  10  21  35  55  79 106 139 178 225 272 313
#     4  10  22  37  53  73 106 148 185 216 255 315
#     4   8  15  30  50  72 100 129 160 207 266 316
#     4   9  18  34  55  79 110 145 178 217 267 322
#
# _framework density 9.0702949999999998
#
# number of rings (size 3 to 8) (size 9 to 14) (size 15 to 20)
#    0.000    2.500    0.000    2.500    2.333    0.333 
#    0.000    4.167    0.000    0.000    0.000    0.000 
#    0.000   12.000    0.000    0.000    0.000    0.000 
#
# Total GULP energy -267479.684073 kJ/mol
# GULP energy per Si atom -5572.493418 kJ/mol
# Density = 0.904965 g / cm^3
# Si number density = 9.070295 Si / 1000 Ang^3
#
#
#
# Elastic Constant Matrix: (Units=GPa)
#
#
# Indices 1 2 3 4 5 6 
#
# 1 44.8605 -13.5594 9.3396 0.0000 0.0000 0.0000
# 2 -13.5594 44.8609 9.3395 0.0000 0.0000 0.0000
# 3 9.3396 9.3395 -6.3928 0.0000 0.0000 0.0000
# 4 0.0000 0.0000 0.0000 -7.3379 0.0000 0.0000
# 5 0.0000 0.0000 0.0000 0.0000 -7.3372 0.0000
# 6 0.0000 0.0000 0.0000 0.0000 0.0000 11.5727
#
#
#
# Elastic Compliance Matrix: (Units=1/GPa)
#
#
# Indices 1 2 3 4 5 6 
#
# 1 0.017093 -0.000025 0.024935 0.000000 0.000000 0.000000
# 2 -0.000025 0.017093 0.024935 0.000000 0.000000 0.000000
# 3 0.024935 0.024935 -0.083569 0.000000 0.000000 0.000000
# 4 0.000000 0.000000 0.000000 -0.136278 0.000000 0.000000
# 5 0.000000 0.000000 0.000000 0.000000 -0.136292 0.000000
# 6 0.000000 0.000000 0.000000 0.000000 0.000000 0.086410
#
#
# Mechanical properties :
#
#
# Convention : Reuss Voigt Hill
#
# Bulk Modulus (GPa) = 19.87846 10.39645 15.13745
# Shear Modulus (GPa) = -15.70038 4.59343 -5.55347
#
# Velocity S-wave (km/s) = -2.94510 1.59299 -1.75157
# Velocity P-wave (km/s) = 0.76357 3.02109 2.06688
#
# Compressibility (1/GPa) = 0.05030572
#
# Stress axis : x y z
#
# Youngs Moduli (GPa) = 58.50512 58.50512 -11.96618
#
# Poissons Ratio (x) = 0.00146 0.29838
# Poissons Ratio (y) = 0.00146 0.29837
# Poissons Ratio (z) = -1.45883 -1.45880
#
# Static dielectric constant tensor:
#      x y z
#    x 1.617550 0.000000 0.000000 
#    y 0.000000 1.617550 0.000000 
#    z 0.000000 0.000000 1.612820 
# 
# From -- ./inp_files/4188.got.cif
#   From: 2010.05.17/outbox.ucp.g08.bks.cvg/sg119_3_cif.got.tgz:4188.got - 2010.06.11 11:34:25.
