data_PCOD9559219
_publ_section_title
;
Structure prediction by ZEFSAII (Michael W. Deem and Ramdas Pophale) SiO2 
 PCOD9559219
Probable space group: I -4 M 2
;
_chemical_formula_sum "Si O2"
_cell_formula_units_Z 84
_cell_length_a 12.537359
_cell_length_b 12.537359
_cell_length_c 28.574491
_cell_angle_alpha 90.000000
_cell_angle_beta 90.000000
_cell_angle_gamma 90.000000
_cell_volume 4491.491960
_symmetry_space_group_name_H-M "I -4 M 2"
_symmetry_group_IT_number 119
_symmetry_cell_setting 'tetragonal'
loop_
_space_group_symop_operation_xyz
x,y,z
y,-x,-z
-x,-y,z
-y,x,-z
y,x,-z
-y,-x,-z
-x,y,z
x,-y,z
1/2+x,1/2+y,1/2+z
1/2+y,1/2-x,1/2-z
1/2-x,1/2-y,1/2+z
1/2-y,1/2+x,1/2-z
1/2+y,1/2+x,1/2-z
1/2-y,1/2-x,1/2-z
1/2-x,1/2+y,1/2+z
1/2+x,1/2-y,1/2+z
loop_
_atom_site_type_symbol
_atom_site_label
_atom_site_fract_x
_atom_site_fract_y
_atom_site_fract_z
Si Si1 0.278126 0.721875 0.825623
Si Si2 0.379600 0.122763 0.100678
Si Si3 0.500000 0.500000 0.592146
Si Si4 0.879600 0.377236 0.399322
Si Si5 0.125278 0.125278 0.766409
Si Si6 0.163527 0.836474 0.052786
O O1 0.206077 0.646370 0.858198
O O2 0.353631 0.793924 0.858198
O O3 0.197263 0.802737 0.799877
O O4 0.342351 0.657649 0.786311
O O5 0.500000 0.138554 0.083233
O O6 0.287217 0.140701 0.062667
O O7 0.371213 0.000000 0.117345
O O8 0.592972 0.407029 0.587768
O O9 0.871213 0.500000 0.382657
O O10 0.787216 0.359296 0.437333
O O11 0.000000 0.361445 0.416768
O O12 0.000000 0.144996 0.774435
O O13 0.144994 0.000000 0.774435
O O14 0.133289 0.866712 0.000000
#
# Coordination Sequence:
#
# PCOD9559219 Si02
#       6
#    16  16   4  16  16  16
#     4  10  20  35  54  76 105 142 178 220 272 324
#     4  10  21  36  54  79 110 144 183 225 272 326
#     4  12  21  36  56  84 116 144 180 220 280 332
#     4  10  21  36  54  79 110 144 183 225 272 326
#     4  10  20  34  53  78 105 135 177 225 271 321
#     4  11  22  36  57  82 112 146 180 226 275 327
#
# _framework density 18.702024999999999
#
# number of rings (size 3 to 8) (size 9 to 14) (size 15 to 20)
#    0.000    1.714    1.905    3.143    0.000    0.762 
#    0.000    1.905    0.000   14.286    0.000    5.333 
#    0.000    0.000    0.000    0.000    0.000    0.000 
#
# Total GULP energy -233998.118548 kJ/mol
# GULP energy per Si atom -5571.383775 kJ/mol
# Density = 1.865946 g / cm^3
# Si number density = 18.702025 Si / 1000 Ang^3
#
#
#
# Elastic Constant Matrix: (Units=GPa)
#
#
# Indices 1 2 3 4 5 6 
#
# 1 115.9442 35.5146 -4.0890 0.0000 0.0000 0.0000
# 2 35.5146 115.9449 -4.0886 0.0000 0.0000 0.0000
# 3 -4.0890 -4.0886 12.7297 0.0000 0.0000 0.0000
# 4 0.0000 0.0000 0.0000 -15.5253 0.0000 0.0000
# 5 0.0000 0.0000 0.0000 0.0000 -15.5283 0.0000
# 6 0.0000 0.0000 0.0000 0.0000 0.0000 30.6100
#
#
#
# Elastic Compliance Matrix: (Units=1/GPa)
#
#
# Indices 1 2 3 4 5 6 
#
# 1 0.009576 -0.002857 0.002158 0.000000 0.000000 0.000000
# 2 -0.002857 0.009576 0.002158 0.000000 0.000000 0.000000
# 3 0.002158 0.002158 0.079943 0.000000 0.000000 0.000000
# 4 0.000000 0.000000 0.000000 -0.064411 0.000000 0.000000
# 5 0.000000 0.000000 0.000000 0.000000 -0.064399 0.000000
# 6 0.000000 0.000000 0.000000 0.000000 0.000000 0.032669
#
#
# Mechanical properties :
#
#
# Convention : Reuss Voigt Hill
#
# Bulk Modulus (GPa) = 9.80264 33.25474 21.52869
# Shear Modulus (GPa) = 146.88339 14.39673 80.64006
#
# Velocity S-wave (km/s) = 8.87182 2.77753 6.57358
# Velocity P-wave (km/s) = 10.49755 5.30153 8.31579
#
# Compressibility (1/GPa) = 0.10201337
#
# Stress axis : x y z
#
# Youngs Moduli (GPa) = 104.42652 104.42743 12.50893
#
# Poissons Ratio (x) = 0.29836 -0.02700
# Poissons Ratio (y) = 0.29836 -0.02699
# Poissons Ratio (z) = -0.22539 -0.22534
#
# Static dielectric constant tensor:
#      x y z
#    x 1.631610 0.000000 0.000000 
#    y 0.000000 1.631610 0.000000 
#    z 0.000000 0.000000 1.661530 
# 
# From -- ./inp_files/10242.got.cif
#   From: 2010.05.17/outbox.cif.g08.bks.cpg/sg119_6_cif.got.tgz:10242.got - 2010.05.20 11:21:29.
