data_PCOD9559892
_publ_section_title
;
Structure prediction by ZEFSAII (Michael W. Deem and Ramdas Pophale) SiO2 
 PCOD9559892
Probable space group: I -4 C 2
;
_chemical_formula_sum "Si O2"
_cell_formula_units_Z 88
_cell_length_a 18.573347
_cell_length_b 18.573347
_cell_length_c 13.113096
_cell_angle_alpha 90.000000
_cell_angle_beta 90.000000
_cell_angle_gamma 90.000000
_cell_volume 4523.614483
_symmetry_space_group_name_H-M "I -4 C 2"
_symmetry_group_IT_number 120
_symmetry_cell_setting 'tetragonal'
loop_
_space_group_symop_operation_xyz
x,y,z
y,-x,-z
-x,-y,z
-y,x,-z
y,x,1/2-z
-y,-x,1/2-z
-x,y,1/2+z
x,-y,1/2+z
1/2+x,1/2+y,1/2+z
1/2+y,1/2-x,1/2-z
1/2-x,1/2-y,1/2+z
1/2-y,1/2+x,1/2-z
1/2+y,1/2+x,-z
1/2-y,1/2-x,-z
1/2-x,1/2+y,z
1/2+x,1/2-y,z
loop_
_atom_site_type_symbol
_atom_site_label
_atom_site_fract_x
_atom_site_fract_y
_atom_site_fract_z
Si Si1 0.594904 0.817587 0.578866
Si Si2 0.914237 0.820666 0.933779
Si Si3 0.299324 0.842876 0.703574
Si Si4 0.079431 0.798250 0.954616
Si Si5 0.646171 0.936605 0.921401
Si Si6 0.311729 0.311729 0.250000
O O1 0.624435 0.875566 0.500000
O O2 0.591773 0.747225 0.508627
O O3 0.643203 0.799296 0.676252
O O4 0.517489 0.845471 0.616420
O O5 0.881587 0.808216 0.821046
O O6 0.000397 0.829218 0.927882
O O7 0.861940 0.880007 0.985098
O O8 0.232740 0.879938 0.645713
O O9 0.376957 0.867830 0.663819
O O10 0.302754 0.758225 0.679632
O O11 0.075779 0.724127 0.022044
O O12 0.582058 0.917943 0.000000
#
# Coordination Sequence:
#
# PCOD9559892 Si02
#       6
#    16  16  16  16  16   8
#     4  11  23  38  61  92 126 166 217 266 322 386
#     4  11  24  41  65  95 130 170 215 273 322 394
#     4  11  22  36  65  94 127 165 215 266 319 388
#     4  10  23  41  64  93 130 166 216 264 327 384
#     4   9  21  39  58  86 128 167 209 262 319 379
#     4  12  22  38  68  97 124 169 220 266 330 378
#
# _framework density 19.453469999999999
#
# number of rings (size 3 to 8) (size 9 to 14) (size 15 to 20)
#    0.000    1.455    3.636    1.091    2.545    2.182 
#    0.000    0.000    0.000    1.091    0.000    0.000 
#    0.000    0.000    0.000    0.000    0.000    0.000 
#
# Total GULP energy -245131.791610 kJ/mol
# GULP energy per Si atom -5571.177082 kJ/mol
# Density = 1.940919 g / cm^3
# Si number density = 19.453470 Si / 1000 Ang^3
#
#
#
# Elastic Constant Matrix: (Units=GPa)
#
#
# Indices 1 2 3 4 5 6 
#
# 1 110.0070 21.2157 19.1895 0.0000 0.0000 0.0000
# 2 21.2157 110.0079 19.1879 0.0000 0.0000 0.0000
# 3 19.1895 19.1879 65.6488 0.0000 0.0000 0.0000
# 4 0.0000 0.0000 0.0000 21.8374 0.0000 0.0000
# 5 0.0000 0.0000 0.0000 0.0000 21.8372 0.0000
# 6 0.0000 0.0000 0.0000 0.0000 0.0000 -28.4766
#
#
#
# Elastic Compliance Matrix: (Units=1/GPa)
#
#
# Indices 1 2 3 4 5 6 
#
# 1 0.009798 -0.001465 -0.002436 0.000000 0.000000 0.000000
# 2 -0.001465 0.009798 -0.002435 0.000000 0.000000 0.000000
# 3 -0.002436 -0.002435 0.016656 0.000000 0.000000 0.000000
# 4 0.000000 0.000000 0.000000 0.045793 0.000000 0.000000
# 5 0.000000 0.000000 0.000000 0.000000 0.045793 0.000000
# 6 0.000000 0.000000 0.000000 0.000000 0.000000 -0.035116
#
#
# Mechanical properties :
#
#
# Convention : Reuss Voigt Hill
#
# Bulk Modulus (GPa) = 42.40945 44.98332 43.69638
# Shear Modulus (GPa) = 44.14878 18.11098 31.12988
#
# Velocity S-wave (km/s) = 4.76905 3.05452 4.00462
# Velocity P-wave (km/s) = 7.22308 5.96774 6.62521
#
# Compressibility (1/GPa) = 0.02357965
#
# Stress axis : x y z
#
# Youngs Moduli (GPa) = 102.06468 102.06656 60.03693
#
# Poissons Ratio (x) = 0.14949 0.14624
# Poissons Ratio (y) = 0.14949 0.14622
# Poissons Ratio (z) = 0.24861 0.24858
#
# Static dielectric constant tensor:
#      x y z
#    x 1.705490 0.000000 0.000000 
#    y 0.000000 1.705490 0.000000 
#    z 0.000000 0.000000 1.689090 
# 
# From -- ./inp_files/3523.got.cif
#   From: 2010.05.17/outbox.cif.g08.bks.cpg/sg120_2_cif.got.tgz:3523.got - 2010.05.20 11:28:13.
