data_PCOD9559290
_publ_section_title
;
Structure prediction by ZEFSAII (Michael W. Deem and Ramdas Pophale) SiO2 
 PCOD9559290
Probable space group: I -4 M 2
;
_chemical_formula_sum "Si O2"
_cell_formula_units_Z 96
_cell_length_a 24.813997
_cell_length_b 24.813997
_cell_length_c 8.481904
_cell_angle_alpha 90.000000
_cell_angle_beta 90.000000
_cell_angle_gamma 90.000000
_cell_volume 5222.600470
_symmetry_space_group_name_H-M "I -4 M 2"
_symmetry_group_IT_number 119
_symmetry_cell_setting 'tetragonal'
loop_
_space_group_symop_operation_xyz
x,y,z
y,-x,-z
-x,-y,z
-y,x,-z
y,x,-z
-y,-x,-z
-x,y,z
x,-y,z
1/2+x,1/2+y,1/2+z
1/2+y,1/2-x,1/2-z
1/2-x,1/2-y,1/2+z
1/2-y,1/2+x,1/2-z
1/2+y,1/2+x,1/2-z
1/2-y,1/2-x,1/2-z
1/2-x,1/2+y,1/2+z
1/2+x,1/2-y,1/2+z
loop_
_atom_site_type_symbol
_atom_site_label
_atom_site_fract_x
_atom_site_fract_y
_atom_site_fract_z
Si Si1 0.190142 0.256740 0.608662
Si Si2 0.830611 0.385376 0.100846
Si Si3 0.659114 0.653586 0.315889
Si Si4 0.560283 0.062184 0.557909
Si Si5 0.059839 0.774511 0.338919
Si Si6 0.637618 0.437266 0.892715
O O1 0.240404 0.240404 0.500000
O O2 0.205280 0.294721 0.750000
O O3 0.148780 0.289479 0.503517
O O4 0.172740 0.201625 0.694072
O O5 0.850480 0.350480 0.250000
O O6 0.885433 0.405491 0.016315
O O7 0.790060 0.432973 0.153153
O O8 0.665401 0.665401 0.500000
O O9 0.699153 0.605232 0.270072
O O10 0.597618 0.640172 0.266762
O O11 0.500000 0.082239 0.512221
O O12 0.561396 0.061396 0.750000
O O13 0.564464 0.000000 0.505166
O O14 0.065558 0.806321 0.506503
O O15 0.000000 0.787336 0.281051
O O16 0.625578 0.500000 0.868422
O O17 0.593119 0.406882 0.000000
#
# Coordination Sequence:
#
# PCOD9559290 Si02
#       6
#    16  16  16  16  16  16
#     4  12  23  38  57  82 117 154 199 243 296 363
#     4  11  21  34  58  87 117 154 197 247 298 354
#     4  11  22  37  59  85 124 161 194 249 309 356
#     4   8  15  30  54  84 116 150 191 241 291 337
#     4  10  20  37  59  85 116 156 202 244 292 359
#     4   9  18  36  59  84 116 156 201 245 292 359
#
# _framework density 18.381646
#
# number of rings (size 3 to 8) (size 9 to 14) (size 15 to 20)
#    0.000    1.833    3.333    2.500    2.333    1.500 
#    0.000    0.000    0.000    2.000    0.000    3.500 
#    0.000    0.000    0.000    0.000    0.000    0.000 
#
# Total GULP energy -267380.079874 kJ/mol
# GULP energy per Si atom -5570.418331 kJ/mol
# Density = 1.833981 g / cm^3
# Si number density = 18.381646 Si / 1000 Ang^3
#
#
#
# Elastic Constant Matrix: (Units=GPa)
#
#
# Indices 1 2 3 4 5 6 
#
# 1 115.7511 45.6735 20.2509 0.0000 0.0000 0.0000
# 2 45.6735 115.7504 20.2510 0.0000 0.0000 0.0000
# 3 20.2509 20.2510 57.2729 0.0000 0.0000 0.0000
# 4 0.0000 0.0000 0.0000 0.9126 0.0000 0.0000
# 5 0.0000 0.0000 0.0000 0.0000 0.9175 0.0000
# 6 0.0000 0.0000 0.0000 0.0000 0.0000 29.0972
#
#
#
# Elastic Compliance Matrix: (Units=1/GPa)
#
#
# Indices 1 2 3 4 5 6 
#
# 1 0.010534 -0.003736 -0.002404 0.000000 0.000000 0.000000
# 2 -0.003736 0.010534 -0.002404 0.000000 0.000000 0.000000
# 3 -0.002404 -0.002404 0.019160 0.000000 0.000000 0.000000
# 4 0.000000 0.000000 0.000000 1.095810 0.000000 0.000000
# 5 0.000000 0.000000 0.000000 0.000000 1.089898 0.000000
# 6 0.000000 0.000000 0.000000 0.000000 0.000000 0.034368
#
#
# Mechanical properties :
#
#
# Convention : Reuss Voigt Hill
#
# Bulk Modulus (GPa) = 43.21278 51.23611 47.22444
# Shear Modulus (GPa) = 2.18808 19.69206 10.94007
#
# Velocity S-wave (km/s) = 1.09222 3.27661 2.44224
# Velocity P-wave (km/s) = 5.01501 6.49991 5.80513
#
# Compressibility (1/GPa) = 0.02314130
#
# Stress axis : x y z
#
# Youngs Moduli (GPa) = 94.93144 94.93079 52.19192
#
# Poissons Ratio (x) = 0.35466 0.12545
# Poissons Ratio (y) = 0.35466 0.12545
# Poissons Ratio (z) = 0.22818 0.22818
#
# Static dielectric constant tensor:
#      x y z
#    x 1.664800 0.000000 0.000000 
#    y 0.000000 1.664790 0.000000 
#    z 0.000000 0.000000 1.587450 
# 
# From -- ./inp_files/2671.got.cif
#   From: 2010.05.17/outbox.cif.g08.bks.cpg/sg119_2_cif.got.tgz:2671.got - 2010.05.20 11:21:29.
