data_PCOD9559298
_publ_section_title
;
Structure prediction by ZEFSAII (Michael W. Deem and Ramdas Pophale) SiO2 
 PCOD9559298
Probable space group: I -4 M 2
;
_chemical_formula_sum "Si O2"
_cell_formula_units_Z 72
_cell_length_a 14.858921
_cell_length_b 14.858921
_cell_length_c 15.834881
_cell_angle_alpha 90.000000
_cell_angle_beta 90.000000
_cell_angle_gamma 90.000000
_cell_volume 3496.144316
_symmetry_space_group_name_H-M "I -4 M 2"
_symmetry_group_IT_number 119
_symmetry_cell_setting 'tetragonal'
loop_
_space_group_symop_operation_xyz
x,y,z
y,-x,-z
-x,-y,z
-y,x,-z
y,x,-z
-y,-x,-z
-x,y,z
x,-y,z
1/2+x,1/2+y,1/2+z
1/2+y,1/2-x,1/2-z
1/2-x,1/2-y,1/2+z
1/2-y,1/2+x,1/2-z
1/2+y,1/2+x,1/2-z
1/2-y,1/2-x,1/2-z
1/2-x,1/2+y,1/2+z
1/2+x,1/2-y,1/2+z
loop_
_atom_site_type_symbol
_atom_site_label
_atom_site_fract_x
_atom_site_fract_y
_atom_site_fract_z
Si Si1 0.712765 0.398685 0.810925
Si Si2 0.607784 0.392217 0.500000
Si Si3 0.597022 0.106058 0.528396
Si Si4 0.762028 0.360697 0.622546
Si Si5 0.704247 0.396310 0.075956
O O1 0.722956 0.500000 0.845100
O O2 0.738465 0.403208 0.712887
O O3 0.776107 0.322933 0.852213
O O4 0.619106 0.354809 0.839725
O O5 0.500000 0.377508 0.505807
O O6 0.665606 0.353591 0.577605
O O7 0.500000 0.118073 0.572765
O O8 0.595882 0.172177 0.447597
O O9 0.688647 0.124757 0.579999
O O10 0.601497 0.000000 0.502666
O O11 0.696939 0.500000 0.051942
O O12 0.661753 0.338248 0.000000
#
# Coordination Sequence:
#
# PCOD9559298 Si02
#       5
#    16   8  16  16  16
#     4  11  23  38  59  90 126 162 200 247 306 371
#     4  11  24  42  64  88 116 157 206 252 304 365
#     4  10  20  37  64  95 123 157 204 254 310 373
#     4  11  22  39  62  88 122 158 199 252 307 365
#     4  11  22  38  61  91 127 166 208 254 308 373
#
# _framework density 20.594114999999999
#
# number of rings (size 3 to 8) (size 9 to 14) (size 15 to 20)
#    0.000    1.222    2.222    4.667    0.000    2.444 
#    0.000    0.000    0.000    9.333    0.000    0.000 
#    0.000    3.556    0.000    0.000    0.000    0.000 
#
# Total GULP energy -200409.303092 kJ/mol
# GULP energy per Si atom -5566.925086 kJ/mol
# Density = 2.054724 g / cm^3
# Si number density = 20.594115 Si / 1000 Ang^3
#
#
#
# Elastic Constant Matrix: (Units=GPa)
#
#
# Indices 1 2 3 4 5 6 
#
# 1 121.5919 53.0899 38.5173 0.0000 0.0000 0.0000
# 2 53.0899 121.5953 38.5168 0.0000 0.0000 0.0000
# 3 38.5173 38.5168 62.8207 0.0000 0.0000 0.0000
# 4 0.0000 0.0000 0.0000 16.3651 0.0000 0.0000
# 5 0.0000 0.0000 0.0000 0.0000 16.3649 0.0000
# 6 0.0000 0.0000 0.0000 0.0000 0.0000 21.1943
#
#
#
# Elastic Compliance Matrix: (Units=1/GPa)
#
#
# Indices 1 2 3 4 5 6 
#
# 1 0.011222 -0.003376 -0.004811 0.000000 0.000000 0.000000
# 2 -0.003376 0.011222 -0.004810 0.000000 0.000000 0.000000
# 3 -0.004811 -0.004810 0.021817 0.000000 0.000000 0.000000
# 4 0.000000 0.000000 0.000000 0.061106 0.000000 0.000000
# 5 0.000000 0.000000 0.000000 0.000000 0.061106 0.000000
# 6 0.000000 0.000000 0.000000 0.000000 0.000000 0.047183
#
#
# Mechanical properties :
#
#
# Convention : Reuss Voigt Hill
#
# Bulk Modulus (GPa) = 54.74357 62.91732 58.83044
# Shear Modulus (GPa) = 20.34677 22.51044 21.42861
#
# Velocity S-wave (km/s) = 3.14664 3.30972 3.22921
# Velocity P-wave (km/s) = 6.31202 6.72481 6.52168
#
# Compressibility (1/GPa) = 0.01826699
#
# Stress axis : x y z
#
# Youngs Moduli (GPa) = 89.10950 89.11311 45.83500
#
# Poissons Ratio (x) = 0.30083 0.22051
# Poissons Ratio (y) = 0.30082 0.22049
# Poissons Ratio (z) = 0.42869 0.42867
#
# Static dielectric constant tensor:
#      x y z
#    x 1.810650 0.000000 0.000000 
#    y 0.000000 1.810650 0.000000 
#    z 0.000000 0.000000 1.742380 
# 
# From -- ./inp_files/6371.got.cif
#   From: 2010.05.17/outbox.cif.g08.bks.cpg/sg119_4_cif.got.tgz:6371.got - 2010.05.20 11:21:29.
