data_PCOD9559708
_publ_section_title
;
Structure prediction by ZEFSAII (Michael W. Deem and Ramdas Pophale) SiO2 
 PCOD9559708
Probable space group: I -4 C 2
;
_chemical_formula_sum "Si O2"
_cell_formula_units_Z 72
_cell_length_a 20.027570
_cell_length_b 20.027570
_cell_length_c 8.918338
_cell_angle_alpha 90.000000
_cell_angle_beta 90.000000
_cell_angle_gamma 90.000000
_cell_volume 3577.177122
_symmetry_space_group_name_H-M "I -4 C 2"
_symmetry_group_IT_number 120
_symmetry_cell_setting 'tetragonal'
loop_
_space_group_symop_operation_xyz
x,y,z
y,-x,-z
-x,-y,z
-y,x,-z
y,x,1/2-z
-y,-x,1/2-z
-x,y,1/2+z
x,-y,1/2+z
1/2+x,1/2+y,1/2+z
1/2+y,1/2-x,1/2-z
1/2-x,1/2-y,1/2+z
1/2-y,1/2+x,1/2-z
1/2+y,1/2+x,-z
1/2-y,1/2-x,-z
1/2-x,1/2+y,z
1/2+x,1/2-y,z
loop_
_atom_site_type_symbol
_atom_site_label
_atom_site_fract_x
_atom_site_fract_y
_atom_site_fract_z
Si Si1 0.081641 0.081641 0.750000
Si Si2 0.132238 0.295467 0.639619
Si Si3 0.570112 0.570112 0.750000
Si Si4 0.584282 0.044988 0.329256
Si Si5 0.223799 0.223799 0.250000
Si Si6 0.841573 0.130994 0.506591
O O1 0.133560 0.100472 0.618478
O O2 0.005095 0.082664 0.691576
O O3 0.164057 0.335944 0.500000
O O4 0.074142 0.342585 0.697337
O O5 0.196696 0.286293 0.744213
O O6 0.107287 0.224303 0.580795
O O7 0.581421 0.626718 0.873328
O O8 0.532194 0.079975 0.215850
O O9 0.559918 0.059918 0.500000
O O10 0.193414 0.185647 0.395311
#
# Coordination Sequence:
#
# PCOD9559708 Si02
#       6
#     8  16   8  16   8  16
#     4  11  21  38  58  88 122 166 204 256 309 359
#     4   9  19  38  60  85 121 159 198 249 313 368
#     4  10  22  39  59  80 128 170 203 249 312 356
#     4  10  20  39  61  87 122 159 201 252 313 375
#     4   9  19  39  63  81 124 163 195 253 319 367
#     4  10  20  37  58  88 115 159 210 252 295 371
#
# _framework density 20.127603000000001
#
# number of rings (size 3 to 8) (size 9 to 14) (size 15 to 20)
#    0.000    2.222    0.000    3.333    0.000    1.778 
#   20.000    8.889    0.000    0.000    0.000    0.000 
#    0.000    0.000    0.000    0.000    0.000    0.000 
#
# Total GULP energy -200459.194286 kJ/mol
# GULP energy per Si atom -5568.310952 kJ/mol
# Density = 2.008179 g / cm^3
# Si number density = 20.127603 Si / 1000 Ang^3
#
#
#
# Elastic Constant Matrix: (Units=GPa)
#
#
# Indices 1 2 3 4 5 6 
#
# 1 65.3771 87.5251 33.7811 0.0000 0.0000 0.0000
# 2 87.5251 65.3781 33.7821 0.0000 0.0000 0.0000
# 3 33.7811 33.7821 75.7302 0.0000 0.0000 0.0000
# 4 0.0000 0.0000 0.0000 24.8952 0.0000 0.0000
# 5 0.0000 0.0000 0.0000 0.0000 24.8953 0.0000
# 6 0.0000 0.0000 0.0000 0.0000 0.0000 31.5201
#
#
#
# Elastic Compliance Matrix: (Units=1/GPa)
#
#
# Indices 1 2 3 4 5 6 
#
# 1 -0.018503 0.026649 -0.003634 0.000000 0.000000 0.000000
# 2 0.026649 -0.018503 -0.003633 0.000000 0.000000 0.000000
# 3 -0.003634 -0.003633 0.016447 0.000000 0.000000 0.000000
# 4 0.000000 0.000000 0.000000 0.040168 0.000000 0.000000
# 5 0.000000 0.000000 0.000000 0.000000 0.040168 0.000000
# 6 0.000000 0.000000 0.000000 0.000000 0.000000 0.031726
#
#
# Mechanical properties :
#
#
# Convention : Reuss Voigt Hill
#
# Bulk Modulus (GPa) = 54.93464 57.40687 56.17076
# Shear Modulus (GPa) = 85.02339 19.68860 52.35599
#
# Velocity S-wave (km/s) = 6.50645 3.13099 5.10573
# Velocity P-wave (km/s) = 9.15410 6.45401 7.91997
#
# Compressibility (1/GPa) = 0.01820345
#
# Stress axis : x y z
#
# Youngs Moduli (GPa) = -54.04489 -54.04501 60.80311
#
# Poissons Ratio (x) = 1.44024 0.22095
# Poissons Ratio (y) = 1.44023 0.22092
# Poissons Ratio (z) = -0.19639 -0.19636
#
# Static dielectric constant tensor:
#      x y z
#    x 1.709270 0.000000 0.000000 
#    y 0.000000 1.709270 0.000000 
#    z 0.000000 0.000000 1.773230 
# 
# From -- ./inp_files/1380.got.cif
#   From: 2010.05.17/outbox.cif.g08.bks.cpg/sg120_1_cif.got.tgz:1380.got - 2010.05.20 11:28:13.
