data_PCOD9559476
_publ_section_title
;
Structure prediction by ZEFSAII (Michael W. Deem and Ramdas Pophale) SiO2 
 PCOD9559476
Probable space group: I -4 M 2
;
_chemical_formula_sum "Si O2"
_cell_formula_units_Z 64
_cell_length_a 25.469857
_cell_length_b 25.469857
_cell_length_c 5.048051
_cell_angle_alpha 90.000000
_cell_angle_beta 90.000000
_cell_angle_gamma 90.000000
_cell_volume 3274.739416
_symmetry_space_group_name_H-M "I -4 M 2"
_symmetry_group_IT_number 119
_symmetry_cell_setting 'tetragonal'
loop_
_space_group_symop_operation_xyz
x,y,z
y,-x,-z
-x,-y,z
-y,x,-z
y,x,-z
-y,-x,-z
-x,y,z
x,-y,z
1/2+x,1/2+y,1/2+z
1/2+y,1/2-x,1/2-z
1/2-x,1/2-y,1/2+z
1/2-y,1/2+x,1/2-z
1/2+y,1/2+x,1/2-z
1/2-y,1/2-x,1/2-z
1/2-x,1/2+y,1/2+z
1/2+x,1/2-y,1/2+z
loop_
_atom_site_type_symbol
_atom_site_label
_atom_site_fract_x
_atom_site_fract_y
_atom_site_fract_z
Si Si1 0.798318 0.880056 0.600756
Si Si2 0.262362 0.165794 0.116112
Si Si3 0.000000 0.286222 0.990396
Si Si4 0.901330 0.640336 0.995625
Si Si5 0.500000 0.281882 0.979579
O O1 0.850091 0.850091 0.500000
O O2 0.756752 0.868259 0.366852
O O3 0.806779 0.943292 0.602553
O O4 0.776691 0.850952 0.869949
O O5 0.276534 0.223467 0.250000
O O6 0.318216 0.146599 0.009736
O O7 0.050122 0.321938 0.958124
O O8 0.000000 0.268978 0.294597
O O9 0.000000 0.237303 0.785301
O O10 0.894912 0.605089 0.250000
O O11 0.897232 0.602769 0.750000
#
# Coordination Sequence:
#
# PCOD9559476 Si02
#       5
#    16  16   8  16   8
#     4  12  24  40  62  88 125 167 207 252 311 359
#     4  11  22  39  58  89 128 164 200 245 300 380
#     4  12  22  38  66  85 114 165 204 262 302 354
#     4  11  21  36  58  87 118 151 199 249 302 356
#     4  12  22  42  60  91 116 157 216 258 292 370
#
# _framework density 19.54354
#
# number of rings (size 3 to 8) (size 9 to 14) (size 15 to 20)
#    0.000    0.500    5.000    6.000    0.000    2.000 
#    0.000    1.250    0.000    2.625    0.000    0.000 
#    0.000    6.000    0.000    0.000    0.000    0.750 
#
# Total GULP energy -178177.120552 kJ/mol
# GULP energy per Si atom -5568.035017 kJ/mol
# Density = 1.949906 g / cm^3
# Si number density = 19.543540 Si / 1000 Ang^3
#
#
#
# Elastic Constant Matrix: (Units=GPa)
#
#
# Indices 1 2 3 4 5 6 
#
# 1 85.9856 41.5235 28.8316 0.0000 0.0000 0.0000
# 2 41.5235 85.9888 28.8327 0.0000 0.0000 0.0000
# 3 28.8316 28.8327 142.6910 0.0000 0.0000 0.0000
# 4 0.0000 0.0000 0.0000 31.0254 0.0000 0.0000
# 5 0.0000 0.0000 0.0000 0.0000 31.0224 0.0000
# 6 0.0000 0.0000 0.0000 0.0000 0.0000 17.0934
#
#
#
# Elastic Compliance Matrix: (Units=1/GPa)
#
#
# Indices 1 2 3 4 5 6 
#
# 1 0.015561 -0.006930 -0.001744 0.000000 0.000000 0.000000
# 2 -0.006930 0.015560 -0.001744 0.000000 0.000000 0.000000
# 3 -0.001744 -0.001744 0.007713 0.000000 0.000000 0.000000
# 4 0.000000 0.000000 0.000000 0.032232 0.000000 0.000000
# 5 0.000000 0.000000 0.000000 0.000000 0.032235 0.000000
# 6 0.000000 0.000000 0.000000 0.000000 0.000000 0.058502
#
#
# Mechanical properties :
#
#
# Convention : Reuss Voigt Hill
#
# Bulk Modulus (GPa) = 55.55794 57.00457 56.28125
# Shear Modulus (GPa) = 26.50584 30.19343 28.34963
#
# Velocity S-wave (km/s) = 3.68672 3.93483 3.81279
# Velocity P-wave (km/s) = 6.82730 7.06223 6.94576
#
# Compressibility (1/GPa) = 0.01799923
#
# Stress axis : x y z
#
# Youngs Moduli (GPa) = 64.26328 64.26549 129.65227
#
# Poissons Ratio (x) = 0.44533 0.22611
# Poissons Ratio (y) = 0.44532 0.22612
# Poissons Ratio (z) = 0.11207 0.11208
#
# Static dielectric constant tensor:
#      x y z
#    x 1.727900 0.000000 0.000000 
#    y 0.000000 1.727900 0.000000 
#    z 0.000000 0.000000 1.759380 
# 
# From -- ./inp_files/816.got.cif
#   From: 2010.05.17/outbox.cif.g08.bks.cpg/sg119_1_cif.got.tgz:816.got - 2010.05.20 11:21:29.
