data_PCOD9559227
_publ_section_title
;
Structure prediction by ZEFSAII (Michael W. Deem and Ramdas Pophale) SiO2 
 PCOD9559227
Probable space group: I -4 M 2
;
_chemical_formula_sum "Si O2"
_cell_formula_units_Z 104
_cell_length_a 18.526868
_cell_length_b 18.526868
_cell_length_c 17.044215
_cell_angle_alpha 90.000000
_cell_angle_beta 90.000000
_cell_angle_gamma 90.000000
_cell_volume 5850.338815
_symmetry_space_group_name_H-M "I -4 M 2"
_symmetry_group_IT_number 119
_symmetry_cell_setting 'tetragonal'
loop_
_space_group_symop_operation_xyz
x,y,z
y,-x,-z
-x,-y,z
-y,x,-z
y,x,-z
-y,-x,-z
-x,y,z
x,-y,z
1/2+x,1/2+y,1/2+z
1/2+y,1/2-x,1/2-z
1/2-x,1/2-y,1/2+z
1/2-y,1/2+x,1/2-z
1/2+y,1/2+x,1/2-z
1/2-y,1/2-x,1/2-z
1/2-x,1/2+y,1/2+z
1/2+x,1/2-y,1/2+z
loop_
_atom_site_type_symbol
_atom_site_label
_atom_site_fract_x
_atom_site_fract_y
_atom_site_fract_z
Si Si1 0.787751 0.920266 0.578162
Si Si2 0.228084 0.771917 0.500000
Si Si3 0.848185 0.583181 0.176179
Si Si4 0.418948 0.585004 0.812269
Si Si5 0.413695 0.738995 0.241057
Si Si6 0.415163 0.086067 0.993415
Si Si7 0.331431 0.181090 0.379217
O O1 0.764814 0.855336 0.523882
O O2 0.736212 0.915489 0.654419
O O3 0.868715 0.911946 0.608502
O O4 0.777233 0.000000 0.543503
O O5 0.237023 0.718310 0.572241
O O6 0.868762 0.500000 0.193431
O O7 0.869163 0.630838 0.250000
O O8 0.887490 0.603978 0.094638
O O9 0.500000 0.601746 0.780205
O O10 0.417196 0.500000 0.828769
O O11 0.347247 0.601015 0.762006
O O12 0.500000 0.749551 0.234541
O O13 0.382483 0.776726 0.318711
O O14 0.371433 0.778129 0.169834
O O15 0.500000 0.104838 0.005163
O O16 0.408499 0.000000 0.997170
O O17 0.365854 0.122225 0.059497
#
# Coordination Sequence:
#
# PCOD9559227 Si02
#       7
#    16   8  16  16  16  16  16
#     4  10  21  35  53  80 111 145 182 225 276 333
#     4  12  22  36  54  81 114 155 180 230 288 342
#     4  10  20  34  54  80 113 149 188 229 273 334
#     4   9  18  35  57  81 108 140 183 231 280 335
#     4  10  21  37  60  83 111 150 192 237 282 334
#     4  10  20  35  55  78 110 151 190 232 280 330
#     4  11  22  36  55  85 115 149 191 234 285 340
#
# _framework density 17.776748999999999
#
# number of rings (size 3 to 8) (size 9 to 14) (size 15 to 20)
#    0.000    1.846    3.077    1.385    0.000    3.231 
#    0.000    0.000    0.000    4.615    0.000    0.000 
#    0.000    0.000    0.000    0.000    0.000    0.000 
#
# Total GULP energy -289995.470056 kJ/mol
# GULP energy per Si atom -5576.835963 kJ/mol
# Density = 1.773629 g / cm^3
# Si number density = 17.776749 Si / 1000 Ang^3
#
#
#
# Elastic Constant Matrix: (Units=GPa)
#
#
# Indices 1 2 3 4 5 6 
#
# 1 68.0346 29.8088 24.9924 0.0000 0.0000 0.0000
# 2 29.8088 68.0352 24.9923 0.0000 0.0000 0.0000
# 3 24.9924 24.9923 69.1869 0.0000 0.0000 0.0000
# 4 0.0000 0.0000 0.0000 19.6471 0.0000 0.0000
# 5 0.0000 0.0000 0.0000 0.0000 19.6487 0.0000
# 6 0.0000 0.0000 0.0000 0.0000 0.0000 16.2774
#
#
#
# Elastic Compliance Matrix: (Units=1/GPa)
#
#
# Indices 1 2 3 4 5 6 
#
# 1 0.019347 -0.006813 -0.004527 0.000000 0.000000 0.000000
# 2 -0.006813 0.019347 -0.004527 0.000000 0.000000 0.000000
# 3 -0.004527 -0.004527 0.017724 0.000000 0.000000 0.000000
# 4 0.000000 0.000000 0.000000 0.050898 0.000000 0.000000
# 5 0.000000 0.000000 0.000000 0.000000 0.050894 0.000000
# 6 0.000000 0.000000 0.000000 0.000000 0.000000 0.061435
#
#
# Mechanical properties :
#
#
# Convention : Reuss Voigt Hill
#
# Bulk Modulus (GPa) = 40.51628 40.53818 40.52723
# Shear Modulus (GPa) = 19.25979 19.47886 19.36932
#
# Velocity S-wave (km/s) = 3.29511 3.31380 3.30447
# Velocity P-wave (km/s) = 6.10887 6.12334 6.11611
#
# Compressibility (1/GPa) = 0.02468144
#
# Stress axis : x y z
#
# Youngs Moduli (GPa) = 51.68811 51.68870 56.41928
#
# Poissons Ratio (x) = 0.35218 0.25543
# Poissons Ratio (y) = 0.35217 0.25543
# Poissons Ratio (z) = 0.23401 0.23401
#
# Static dielectric constant tensor:
#      x y z
#    x 1.631300 0.000000 0.000000 
#    y 0.000000 1.631300 0.000000 
#    z 0.000000 0.000000 1.589090 
# 
# From -- ./inp_files/6752.got.cif
#   From: 2010.05.17/outbox.cif.g08.bks.cpg/sg119_4_cif.got.tgz:6752.got - 2010.05.20 11:21:29.
