data_PCOD9559259
_publ_section_title
;
Structure prediction by ZEFSAII (Michael W. Deem and Ramdas Pophale) SiO2 
 PCOD9559259
Probable space group: I -4 M 2
;
_chemical_formula_sum "Si O2"
_cell_formula_units_Z 64
_cell_length_a 19.565763
_cell_length_b 19.565763
_cell_length_c 8.687921
_cell_angle_alpha 90.000000
_cell_angle_beta 90.000000
_cell_angle_gamma 90.000000
_cell_volume 3325.901940
_symmetry_space_group_name_H-M "I -4 M 2"
_symmetry_group_IT_number 119
_symmetry_cell_setting 'tetragonal'
loop_
_space_group_symop_operation_xyz
x,y,z
y,-x,-z
-x,-y,z
-y,x,-z
y,x,-z
-y,-x,-z
-x,y,z
x,-y,z
1/2+x,1/2+y,1/2+z
1/2+y,1/2-x,1/2-z
1/2-x,1/2-y,1/2+z
1/2-y,1/2+x,1/2-z
1/2+y,1/2+x,1/2-z
1/2-y,1/2-x,1/2-z
1/2-x,1/2+y,1/2+z
1/2+x,1/2-y,1/2+z
loop_
_atom_site_type_symbol
_atom_site_label
_atom_site_fract_x
_atom_site_fract_y
_atom_site_fract_z
Si Si1 0.579825 0.296169 0.856048
Si Si2 0.821718 0.919999 0.297846
Si Si3 0.731453 0.168762 0.095814
Si Si4 0.919123 0.665822 0.146739
O O1 0.500000 0.306491 0.834381
O O2 0.617088 0.365947 0.810941
O O3 0.599577 0.232710 0.749867
O O4 0.590594 0.283106 0.038096
O O5 0.778332 0.894118 0.154071
O O6 0.839989 0.000000 0.287277
O O7 0.704807 0.204807 0.250000
O O8 0.776428 0.223573 0.000000
O O9 0.672886 0.131675 0.997272
O O10 0.898890 0.601111 0.250000
O O11 0.000000 0.667183 0.110935
#
# Coordination Sequence:
#
# PCOD9559259 Si02
#       4
#    16  16  16  16
#     4   9  19  35  58  86 121 164 209 251 302 369
#     4  10  20  35  57  86 123 162 204 256 308 361
#     4  12  24  37  61  91 125 161 213 264 322 376
#     4  11  23  42  65  92 124 163 209 262 323 385
#
# _framework density 19.242899999999999
#
# number of rings (size 3 to 8) (size 9 to 14) (size 15 to 20)
#    0.000    1.500    2.500    3.000    3.500    0.750 
#    0.000    3.750    0.000    0.000    0.000    0.000 
#    0.000    0.000    0.000    0.000    0.000    0.000 
#
# Total GULP energy -178592.972953 kJ/mol
# GULP energy per Si atom -5581.030405 kJ/mol
# Density = 1.919910 g / cm^3
# Si number density = 19.242900 Si / 1000 Ang^3
#
#
#
# Elastic Constant Matrix: (Units=GPa)
#
#
# Indices 1 2 3 4 5 6 
#
# 1 65.8527 37.2098 33.3387 0.0000 0.0000 0.0000
# 2 37.2098 65.8587 33.3415 0.0000 0.0000 0.0000
# 3 33.3387 33.3415 73.4290 0.0000 0.0000 0.0000
# 4 0.0000 0.0000 0.0000 30.9055 0.0000 0.0000
# 5 0.0000 0.0000 0.0000 0.0000 30.9055 0.0000
# 6 0.0000 0.0000 0.0000 0.0000 0.0000 22.6336
#
#
#
# Elastic Compliance Matrix: (Units=1/GPa)
#
#
# Indices 1 2 3 4 5 6 
#
# 1 0.024324 -0.010585 -0.006237 0.000000 0.000000 0.000000
# 2 -0.010585 0.024323 -0.006238 0.000000 0.000000 0.000000
# 3 -0.006237 -0.006238 0.019283 0.000000 0.000000 0.000000
# 4 0.000000 0.000000 0.000000 0.032357 0.000000 0.000000
# 5 0.000000 0.000000 0.000000 0.000000 0.032357 0.000000
# 6 0.000000 0.000000 0.000000 0.000000 0.000000 0.044182
#
#
# Mechanical properties :
#
#
# Convention : Reuss Voigt Hill
#
# Bulk Modulus (GPa) = 45.85391 45.88006 45.86698
# Shear Modulus (GPa) = 21.71861 23.63892 22.67877
#
# Velocity S-wave (km/s) = 3.36319 3.50873 3.43673
# Velocity P-wave (km/s) = 6.24197 6.34896 6.29569
#
# Compressibility (1/GPa) = 0.02180839
#
# Stress axis : x y z
#
# Youngs Moduli (GPa) = 41.11090 41.11371 51.85900
#
# Poissons Ratio (x) = 0.43521 0.32347
# Poissons Ratio (y) = 0.43518 0.32350
# Poissons Ratio (z) = 0.25643 0.25647
#
# Static dielectric constant tensor:
#      x y z
#    x 1.662830 0.000000 0.000000 
#    y 0.000000 1.662830 0.000000 
#    z 0.000000 0.000000 1.723640 
# 
# From -- ./inp_files/2270.got.cif
#   From: 2010.05.17/outbox.cif.g08.bks.cpg/sg119_2_cif.got.tgz:2270.got - 2010.05.20 11:21:29.
