data_PCOD9559468
_publ_section_title
;
Structure prediction by ZEFSAII (Michael W. Deem and Ramdas Pophale) SiO2 
 PCOD9559468
Probable space group: I -4 M 2
;
_chemical_formula_sum "Si O2"
_cell_formula_units_Z 112
_cell_length_a 13.849136
_cell_length_b 13.849136
_cell_length_c 32.615104
_cell_angle_alpha 90.000000
_cell_angle_beta 90.000000
_cell_angle_gamma 90.000000
_cell_volume 6255.530241
_symmetry_space_group_name_H-M "I -4 M 2"
_symmetry_group_IT_number 119
_symmetry_cell_setting 'tetragonal'
loop_
_space_group_symop_operation_xyz
x,y,z
y,-x,-z
-x,-y,z
-y,x,-z
y,x,-z
-y,-x,-z
-x,y,z
x,-y,z
1/2+x,1/2+y,1/2+z
1/2+y,1/2-x,1/2-z
1/2-x,1/2-y,1/2+z
1/2-y,1/2+x,1/2-z
1/2+y,1/2+x,1/2-z
1/2-y,1/2-x,1/2-z
1/2-x,1/2+y,1/2+z
1/2+x,1/2-y,1/2+z
loop_
_atom_site_type_symbol
_atom_site_label
_atom_site_fract_x
_atom_site_fract_y
_atom_site_fract_z
Si Si1 0.383942 0.113114 0.129229
Si Si2 0.781554 0.617720 0.711473
Si Si3 0.298580 0.386055 0.335993
Si Si4 0.884989 0.612897 0.111343
Si Si5 0.690907 0.206251 0.531624
Si Si6 0.607020 0.887752 0.042676
Si Si7 0.616081 0.607716 0.576224
O O1 0.500000 0.120809 0.129770
O O2 0.339551 0.151963 0.170733
O O3 0.351383 0.155270 0.085211
O O4 0.357945 0.000000 0.131113
O O5 0.780686 0.500000 0.715002
O O6 0.834776 0.665225 0.750000
O O7 0.676170 0.661031 0.701514
O O8 0.304486 0.500000 0.327605
O O9 0.189599 0.365024 0.352255
O O10 0.364664 0.365370 0.376328
O O11 0.873474 0.500000 0.121642
O O12 0.818440 0.641485 0.072364
O O13 0.000000 0.628209 0.100393
O O14 0.781850 0.218151 0.500000
O O15 0.616887 0.163218 0.499157
O O16 0.660139 0.311712 0.547060
O O17 0.500000 0.845924 0.035972
O O18 0.596266 0.000000 0.052569
O O19 0.500000 0.609534 0.571169
O O20 0.651956 0.500000 0.567337
#
# Coordination Sequence:
#
# PCOD9559468 Si02
#       7
#    16  16  16  16  16  16  16
#     4   8  16  30  48  70  97 131 169 210 257 310
#     4  11  22  35  56  83 113 145 174 213 271 341
#     4   9  19  36  57  81 106 141 187 226 272 336
#     4   9  18  35  57  77 102 141 190 243 288 321
#     4  11  21  27  40  69 104 138 177 222 267 317
#     4   9  17  30  47  65  90 131 179 223 263 301
#     4   9  18  31  44  62  96 143 186 219 257 312
#
# _framework density 17.904157000000001
#
# number of rings (size 3 to 8) (size 9 to 14) (size 15 to 20)
#    0.000    2.571    0.000    4.286    4.000    4.429 
#    0.000    1.429    0.000    0.000    0.000    0.000 
#    0.000    8.000    0.000    0.000    0.000    0.000 
#
# Total GULP energy -311797.424554 kJ/mol
# GULP energy per Si atom -5567.811153 kJ/mol
# Density = 1.786341 g / cm^3
# Si number density = 17.904157 Si / 1000 Ang^3
#
#
#
# Elastic Constant Matrix: (Units=GPa)
#
#
# Indices 1 2 3 4 5 6 
#
# 1 81.9616 28.0232 44.7541 0.0000 0.0000 0.0000
# 2 28.0232 81.9621 44.7549 0.0000 0.0000 0.0000
# 3 44.7541 44.7549 93.4208 0.0000 0.0000 0.0000
# 4 0.0000 0.0000 0.0000 19.3402 0.0000 0.0000
# 5 0.0000 0.0000 0.0000 0.0000 19.3400 0.0000
# 6 0.0000 0.0000 0.0000 0.0000 0.0000 14.5698
#
#
#
# Elastic Compliance Matrix: (Units=1/GPa)
#
#
# Indices 1 2 3 4 5 6 
#
# 1 0.016721 -0.001819 -0.007139 0.000000 0.000000 0.000000
# 2 -0.001819 0.016721 -0.007139 0.000000 0.000000 0.000000
# 3 -0.007139 -0.007139 0.017544 0.000000 0.000000 0.000000
# 4 0.000000 0.000000 0.000000 0.051706 0.000000 0.000000
# 5 0.000000 0.000000 0.000000 0.000000 0.051706 0.000000
# 6 0.000000 0.000000 0.000000 0.000000 0.000000 0.068635
#
#
# Mechanical properties :
#
#
# Convention : Reuss Voigt Hill
#
# Bulk Modulus (GPa) = 53.21308 54.71210 53.96259
# Shear Modulus (GPa) = 19.12111 19.97083 19.54597
#
# Velocity S-wave (km/s) = 3.27153 3.34343 3.30767
# Velocity P-wave (km/s) = 6.63748 6.74754 6.69274
#
# Compressibility (1/GPa) = 0.01879237
#
# Stress axis : x y z
#
# Youngs Moduli (GPa) = 59.80577 59.80540 56.99826
#
# Poissons Ratio (x) = 0.10877 0.40691
# Poissons Ratio (y) = 0.10877 0.40692
# Poissons Ratio (z) = 0.42695 0.42696
#
# Static dielectric constant tensor:
#      x y z
#    x 1.672270 0.000000 0.000000 
#    y 0.000000 1.672270 0.000000 
#    z 0.000000 0.000000 1.632520 
# 
# From -- ./inp_files/10464.got.cif
#   From: 2010.05.17/outbox.cif.g08.bks.cpg/sg119_6_cif.got.tgz:10464.got - 2010.05.20 11:21:29.
