data_PCOD9559368
_publ_section_title
;
Structure prediction by ZEFSAII (Michael W. Deem and Ramdas Pophale) SiO2 
 PCOD9559368
Probable space group: I -4 M 2
;
_chemical_formula_sum "Si O2"
_cell_formula_units_Z 56
_cell_length_a 18.437834
_cell_length_b 18.437834
_cell_length_c 8.179880
_cell_angle_alpha 90.000000
_cell_angle_beta 90.000000
_cell_angle_gamma 90.000000
_cell_volume 2780.780657
_symmetry_space_group_name_H-M "I -4 M 2"
_symmetry_group_IT_number 119
_symmetry_cell_setting 'tetragonal'
loop_
_space_group_symop_operation_xyz
x,y,z
y,-x,-z
-x,-y,z
-y,x,-z
y,x,-z
-y,-x,-z
-x,y,z
x,-y,z
1/2+x,1/2+y,1/2+z
1/2+y,1/2-x,1/2-z
1/2-x,1/2-y,1/2+z
1/2-y,1/2+x,1/2-z
1/2+y,1/2+x,1/2-z
1/2-y,1/2-x,1/2-z
1/2-x,1/2+y,1/2+z
1/2+x,1/2-y,1/2+z
loop_
_atom_site_type_symbol
_atom_site_label
_atom_site_fract_x
_atom_site_fract_y
_atom_site_fract_z
Si Si1 0.418203 0.417664 0.304359
Si Si2 0.712810 0.322732 0.182929
Si Si3 0.912912 0.587089 0.750000
Si Si4 0.149603 0.583764 0.100441
O O1 0.421948 0.421948 0.500000
O O2 0.500000 0.398966 0.244861
O O3 0.400764 0.500000 0.244554
O O4 0.356629 0.358940 0.266837
O O5 0.748604 0.248604 0.250000
O O6 0.778549 0.379450 0.171729
O O7 0.690542 0.309459 0.000000
O O8 0.901721 0.500000 0.734622
O O9 0.887313 0.623265 0.578083
O O10 0.163689 0.500000 0.072893
O O11 0.093359 0.593359 0.250000
#
# Coordination Sequence:
#
# PCOD9559368 Si02
#       4
#    16  16   8  16
#     4   9  19  39  66  93 121 157 205 259 315 374
#     4  11  24  39  59  84 125 161 205 250 312 374
#     4   9  18  34  58  88 122 160 208 254 295 354
#     4  10  21  37  59  88 123 162 205 251 305 364
#
# _framework density 20.13823
#
# number of rings (size 3 to 8) (size 9 to 14) (size 15 to 20)
#    0.000    2.143    0.000    3.429    2.000    3.714 
#    0.000    1.429    0.000    0.000    0.000    0.000 
#    0.000    0.571    0.000    0.000    0.000    0.000 
#
# Total GULP energy -155994.237485 kJ/mol
# GULP energy per Si atom -5571.222767 kJ/mol
# Density = 2.009239 g / cm^3
# Si number density = 20.138230 Si / 1000 Ang^3
#
#
#
# Elastic Constant Matrix: (Units=GPa)
#
#
# Indices 1 2 3 4 5 6 
#
# 1 98.7627 58.9751 24.0049 0.0000 0.0000 0.0000
# 2 58.9751 98.7614 24.0046 0.0000 0.0000 0.0000
# 3 24.0049 24.0046 88.6011 0.0000 0.0000 0.0000
# 4 0.0000 0.0000 0.0000 26.6686 0.0000 0.0000
# 5 0.0000 0.0000 0.0000 0.0000 26.6767 0.0000
# 6 0.0000 0.0000 0.0000 0.0000 0.0000 21.9533
#
#
#
# Elastic Compliance Matrix: (Units=1/GPa)
#
#
# Indices 1 2 3 4 5 6 
#
# 1 0.016022 -0.009112 -0.001872 0.000000 0.000000 0.000000
# 2 -0.009112 0.016022 -0.001872 0.000000 0.000000 0.000000
# 3 -0.001872 -0.001872 0.012301 0.000000 0.000000 0.000000
# 4 0.000000 0.000000 0.000000 0.037497 0.000000 0.000000
# 5 0.000000 0.000000 0.000000 0.000000 0.037486 0.000000
# 6 0.000000 0.000000 0.000000 0.000000 0.000000 0.045551
#
#
# Mechanical properties :
#
#
# Convention : Reuss Voigt Hill
#
# Bulk Modulus (GPa) = 53.67156 55.56604 54.61880
# Shear Modulus (GPa) = 25.40632 27.00244 26.20438
#
# Velocity S-wave (km/s) = 3.55575 3.66574 3.61116
# Velocity P-wave (km/s) = 6.60055 6.75049 6.67594
#
# Compressibility (1/GPa) = 0.01863184
#
# Stress axis : x y z
#
# Youngs Moduli (GPa) = 62.41603 62.41524 81.29493
#
# Poissons Ratio (x) = 0.56874 0.15218
# Poissons Ratio (y) = 0.56875 0.15218
# Poissons Ratio (z) = 0.11684 0.11684
#
# Static dielectric constant tensor:
#      x y z
#    x 2.061160 0.000000 0.000000 
#    y 0.000000 2.061270 0.000000 
#    z 0.000000 0.000000 1.726300 
# 
# From -- ./inp_files/2012.got.cif
#   From: 2010.05.17/outbox.cif.g08.bks.cpg/sg119_2_cif.got.tgz:2012.got - 2010.05.20 11:21:29.
