data_PCOD9559407
_publ_section_title
;
Structure prediction by ZEFSAII (Michael W. Deem and Ramdas Pophale) SiO2 
 PCOD9559407
Probable space group: I -4 M 2
;
_chemical_formula_sum "Si O2"
_cell_formula_units_Z 48
_cell_length_a 16.371544
_cell_length_b 16.371544
_cell_length_c 8.648152
_cell_angle_alpha 90.000000
_cell_angle_beta 90.000000
_cell_angle_gamma 90.000000
_cell_volume 2317.942153
_symmetry_space_group_name_H-M "I -4 M 2"
_symmetry_group_IT_number 119
_symmetry_cell_setting 'tetragonal'
loop_
_space_group_symop_operation_xyz
x,y,z
y,-x,-z
-x,-y,z
-y,x,-z
y,x,-z
-y,-x,-z
-x,y,z
x,-y,z
1/2+x,1/2+y,1/2+z
1/2+y,1/2-x,1/2-z
1/2-x,1/2-y,1/2+z
1/2-y,1/2+x,1/2-z
1/2+y,1/2+x,1/2-z
1/2-y,1/2-x,1/2-z
1/2-x,1/2+y,1/2+z
1/2+x,1/2-y,1/2+z
loop_
_atom_site_type_symbol
_atom_site_label
_atom_site_fract_x
_atom_site_fract_y
_atom_site_fract_z
Si Si1 0.273813 0.406755 0.563236
Si Si2 0.410870 0.711219 0.075083
Si Si3 0.409142 0.114224 0.931205
O O1 0.335719 0.335719 0.500000
O O2 0.305962 0.500000 0.535461
O O3 0.267128 0.392873 0.747420
O O4 0.180091 0.408366 0.500354
O O5 0.500000 0.671961 0.073823
O O6 0.346408 0.653593 0.000000
O O7 0.412312 0.790722 0.969553
O O8 0.500000 0.084970 0.988319
O O9 0.404810 0.095191 0.750000
#
# Coordination Sequence:
#
# PCOD9559407 Si02
#       3
#    16  16  16
#     4  11  24  42  66  95 129 169 211 260 316 374
#     4  10  22  40  62  90 126 169 214 261 315 374
#     4  11  23  40  64  93 126 164 208 259 315 377
#
# _framework density 20.708023000000001
#
# number of rings (size 3 to 8) (size 9 to 14) (size 15 to 20)
#    0.000    1.333    0.000    5.000    0.000    7.000 
#    0.000    5.000    0.000   12.000    0.000    0.000 
#    0.000    0.000    0.000    0.000    0.000    0.000 
#
# Total GULP energy -133674.491724 kJ/mol
# GULP energy per Si atom -5569.770489 kJ/mol
# Density = 2.066089 g / cm^3
# Si number density = 20.708023 Si / 1000 Ang^3
#
#
#
# Elastic Constant Matrix: (Units=GPa)
#
#
# Indices 1 2 3 4 5 6 
#
# 1 134.1387 106.8502 51.0963 0.0000 0.0000 0.0000
# 2 106.8502 134.1401 51.0855 0.0000 0.0000 0.0000
# 3 51.0963 51.0855 77.3469 0.0000 0.0000 0.0000
# 4 0.0000 0.0000 0.0000 22.0893 0.0000 0.0000
# 5 0.0000 0.0000 0.0000 0.0000 22.0905 0.0000
# 6 0.0000 0.0000 0.0000 0.0000 0.0000 96.6548
#
#
#
# Elastic Compliance Matrix: (Units=1/GPa)
#
#
# Indices 1 2 3 4 5 6 
#
# 1 0.021206 -0.015440 -0.003811 0.000000 0.000000 0.000000
# 2 -0.015440 0.021203 -0.003804 0.000000 0.000000 0.000000
# 3 -0.003811 -0.003804 0.017959 0.000000 0.000000 0.000000
# 4 0.000000 0.000000 0.000000 0.045271 0.000000 0.000000
# 5 0.000000 0.000000 0.000000 0.000000 0.045268 0.000000
# 6 0.000000 0.000000 0.000000 0.000000 0.000000 0.010346
#
#
# Mechanical properties :
#
#
# Convention : Reuss Voigt Hill
#
# Bulk Modulus (GPa) = 70.14037 84.85440 77.49738
# Shear Modulus (GPa) = 23.57221 37.27317 30.42269
#
# Velocity S-wave (km/s) = 3.37755 4.24717 3.83708
# Velocity P-wave (km/s) = 7.01107 8.06950 7.55883
#
# Compressibility (1/GPa) = 0.01425713
#
# Stress axis : x y z
#
# Youngs Moduli (GPa) = 47.15679 47.16419 55.68391
#
# Poissons Ratio (x) = 0.72823 0.21221
# Poissons Ratio (y) = 0.72812 0.21180
# Poissons Ratio (z) = 0.17971 0.17939
#
# Static dielectric constant tensor:
#      x y z
#    x 1.766240 0.000000 0.000000 
#    y 0.000000 1.766250 0.000000 
#    z 0.000000 0.000000 1.701950 
# 
# From -- ./inp_files/1774.got.cif
#   From: 2010.05.17/outbox.cif.g08.bks.cpg/sg119_1_cif.got.tgz:1774.got - 2010.05.20 11:21:29.
