data_PCOD9559979
_publ_section_title
;
Structure prediction by ZEFSAII (Michael W. Deem and Ramdas Pophale) SiO2 
 PCOD9559979
Probable space group: I -4 C 2
;
_chemical_formula_sum "Si O2"
_cell_formula_units_Z 96
_cell_length_a 15.505004
_cell_length_b 15.505004
_cell_length_c 18.636766
_cell_angle_alpha 90.000000
_cell_angle_beta 90.000000
_cell_angle_gamma 90.000000
_cell_volume 4480.374508
_symmetry_space_group_name_H-M "I -4 C 2"
_symmetry_group_IT_number 120
_symmetry_cell_setting 'tetragonal'
loop_
_space_group_symop_operation_xyz
x,y,z
y,-x,-z
-x,-y,z
-y,x,-z
y,x,1/2-z
-y,-x,1/2-z
-x,y,1/2+z
x,-y,1/2+z
1/2+x,1/2+y,1/2+z
1/2+y,1/2-x,1/2-z
1/2-x,1/2-y,1/2+z
1/2-y,1/2+x,1/2-z
1/2+y,1/2+x,-z
1/2-y,1/2-x,-z
1/2-x,1/2+y,z
1/2+x,1/2-y,z
loop_
_atom_site_type_symbol
_atom_site_label
_atom_site_fract_x
_atom_site_fract_y
_atom_site_fract_z
Si Si1 0.693482 0.444193 0.444119
Si Si2 0.259920 0.233506 0.417860
Si Si3 0.631023 0.972083 0.776796
Si Si4 0.333831 0.922088 0.437690
Si Si5 0.288118 0.400473 0.195807
Si Si6 0.934108 0.922622 0.913139
O O1 0.705284 0.353819 0.402937
O O2 0.778371 0.496595 0.466886
O O3 0.651689 0.522338 0.398163
O O4 0.632695 0.426888 0.513559
O O5 0.286349 0.213652 0.500000
O O6 0.213945 0.328175 0.422672
O O7 0.338327 0.242472 0.362920
O O8 0.566110 0.905652 0.738625
O O9 0.631965 0.951488 0.860759
O O10 0.722758 0.957935 0.740241
O O11 0.400837 0.900837 0.500000
O O12 0.338105 0.338105 0.250000
O O13 0.357542 0.454113 0.150276
O O14 0.000000 0.000000 0.920282
#
# Coordination Sequence:
#
# PCOD9559979 Si02
#       6
#    16  16  16  16  16  16
#     4  12  21  42  68 108 144 182 244 306 377 445
#     4  11  22  38  71 102 136 193 241 296 372 443
#     4  11  26  48  70 100 147 198 242 314 384 444
#     4  11  24  43  71 104 139 192 256 304 368 460
#     4  12  24  46  69  99 146 190 245 306 374 459
#     4  12  24  39  69 105 145 189 230 316 386 444
#
# _framework density 21.426781999999999
#
# number of rings (size 3 to 8) (size 9 to 14) (size 15 to 20)
#    0.000    0.500    6.667    2.000    2.333    0.333 
#    0.000    1.667    0.000    0.000    0.000    0.000 
#    0.000    0.000    0.000    0.000    0.000    0.000 
#
# Total GULP energy -267862.510845 kJ/mol
# GULP energy per Si atom -5580.468976 kJ/mol
# Density = 2.137801 g / cm^3
# Si number density = 21.426782 Si / 1000 Ang^3
#
#
#
# Elastic Constant Matrix: (Units=GPa)
#
#
# Indices 1 2 3 4 5 6 
#
# 1 82.6651 40.2427 22.1962 0.0000 0.0000 0.0000
# 2 40.2427 82.6651 22.1962 0.0000 0.0000 0.0000
# 3 22.1962 22.1962 93.3684 0.0000 0.0000 0.0000
# 4 0.0000 0.0000 0.0000 12.0819 0.0000 0.0000
# 5 0.0000 0.0000 0.0000 0.0000 12.0818 0.0000
# 6 0.0000 0.0000 0.0000 0.0000 0.0000 42.4262
#
#
#
# Elastic Compliance Matrix: (Units=1/GPa)
#
#
# Indices 1 2 3 4 5 6 
#
# 1 0.016236 -0.007336 -0.002116 0.000000 0.000000 0.000000
# 2 -0.007336 0.016236 -0.002116 0.000000 0.000000 0.000000
# 3 -0.002116 -0.002116 0.011716 0.000000 0.000000 0.000000
# 4 0.000000 0.000000 0.000000 0.082769 0.000000 0.000000
# 5 0.000000 0.000000 0.000000 0.000000 0.082769 0.000000
# 6 0.000000 0.000000 0.000000 0.000000 0.000000 0.023570
#
#
# Mechanical properties :
#
#
# Convention : Reuss Voigt Hill
#
# Bulk Modulus (GPa) = 47.49786 47.55211 47.52499
# Shear Modulus (GPa) = 18.97890 24.92220 21.95055
#
# Velocity S-wave (km/s) = 2.97939 3.41417 3.20417
# Velocity P-wave (km/s) = 5.83535 6.14680 5.99310
#
# Compressibility (1/GPa) = 0.02105358
#
# Stress axis : x y z
#
# Youngs Moduli (GPa) = 61.58989 61.58991 85.35142
#
# Poissons Ratio (x) = 0.45183 0.18059
# Poissons Ratio (y) = 0.45183 0.18059
# Poissons Ratio (z) = 0.13032 0.13032
#
# Static dielectric constant tensor:
#      x y z
#    x 1.902460 0.000000 0.000000 
#    y 0.000000 1.902460 0.000000 
#    z 0.000000 0.000000 1.774590 
# 
# From -- ./inp_files/5357.got.cif
#   From: 2010.05.17/outbox.cif.g08.bks.cpg/sg120_3_cif.got.tgz:5357.got - 2010.05.20 11:28:13.
