data_PCOD9559455
_publ_section_title
;
Structure prediction by ZEFSAII (Michael W. Deem and Ramdas Pophale) SiO2 
 PCOD9559455
Probable space group: I -4 M 2
;
_chemical_formula_sum "Si O2"
_cell_formula_units_Z 96
_cell_length_a 14.580682
_cell_length_b 14.580682
_cell_length_c 20.862535
_cell_angle_alpha 90.000000
_cell_angle_beta 90.000000
_cell_angle_gamma 90.000000
_cell_volume 4435.297491
_symmetry_space_group_name_H-M "I -4 M 2"
_symmetry_group_IT_number 119
_symmetry_cell_setting 'tetragonal'
loop_
_space_group_symop_operation_xyz
x,y,z
y,-x,-z
-x,-y,z
-y,x,-z
y,x,-z
-y,-x,-z
-x,y,z
x,-y,z
1/2+x,1/2+y,1/2+z
1/2+y,1/2-x,1/2-z
1/2-x,1/2-y,1/2+z
1/2-y,1/2+x,1/2-z
1/2+y,1/2+x,1/2-z
1/2-y,1/2-x,1/2-z
1/2-x,1/2+y,1/2+z
1/2+x,1/2-y,1/2+z
loop_
_atom_site_type_symbol
_atom_site_label
_atom_site_fract_x
_atom_site_fract_y
_atom_site_fract_z
Si Si1 0.341507 0.722936 0.314543
Si Si2 0.899604 0.394099 0.044827
Si Si3 0.764601 0.893138 0.330745
Si Si4 0.607539 0.602994 0.433123
Si Si5 0.097269 0.331435 0.187876
Si Si6 0.391455 0.305648 0.941035
O O1 0.326745 0.829679 0.331537
O O2 0.386000 0.708007 0.244853
O O3 0.384104 0.667891 0.372739
O O4 0.240237 0.679134 0.311993
O O5 0.899855 0.500000 0.024038
O O6 0.901733 0.386908 0.122201
O O7 0.795768 0.358897 0.033648
O O8 0.000000 0.354277 0.023321
O O9 0.836198 0.845356 0.379829
O O10 0.752503 0.000000 0.347533
O O11 0.644221 0.644221 0.500000
O O12 0.500000 0.594547 0.445823
O O13 0.644641 0.500000 0.420368
O O14 0.107193 0.392808 0.250000
O O15 0.000000 0.280919 0.192293
O O16 0.500000 0.298357 0.925981
O O17 0.373494 0.373494 0.000000
#
# Coordination Sequence:
#
# PCOD9559455 Si02
#       6
#    16  16  16  16  16  16
#     4  11  21  40  61  91 123 168 213 268 324 387
#     4   9  18  34  57  86 123 165 208 259 320 390
#     4  11  24  41  62  87 122 169 222 276 323 380
#     4   9  19  37  63  97 132 163 200 252 322 398
#     4  11  19  31  52  86 124 159 200 248 315 392
#     4  11  23  41  64  94 134 178 224 273 328 391
#
# _framework density 21.644546999999999
#
# number of rings (size 3 to 8) (size 9 to 14) (size 15 to 20)
#    0.000    1.667    3.333    2.500    0.000    5.333 
#    0.000    0.000    0.000   12.500    0.000    0.000 
#    0.000    0.333    0.000    0.000    0.000    0.000 
#
# Total GULP energy -267450.212338 kJ/mol
# GULP energy per Si atom -5571.879424 kJ/mol
# Density = 2.159528 g / cm^3
# Si number density = 21.644547 Si / 1000 Ang^3
#
#
#
# Elastic Constant Matrix: (Units=GPa)
#
#
# Indices 1 2 3 4 5 6 
#
# 1 102.1348 32.6182 21.5738 0.0000 0.0000 0.0000
# 2 32.6182 102.1348 21.5734 0.0000 0.0000 0.0000
# 3 21.5738 21.5734 89.4480 0.0000 0.0000 0.0000
# 4 0.0000 0.0000 0.0000 2.5351 0.0000 0.0000
# 5 0.0000 0.0000 0.0000 0.0000 2.5254 0.0000
# 6 0.0000 0.0000 0.0000 0.0000 0.0000 18.3541
#
#
#
# Elastic Compliance Matrix: (Units=1/GPa)
#
#
# Indices 1 2 3 4 5 6 
#
# 1 0.011214 -0.003171 -0.001940 0.000000 0.000000 0.000000
# 2 -0.003171 0.011214 -0.001940 0.000000 0.000000 0.000000
# 3 -0.001940 -0.001940 0.012115 0.000000 0.000000 0.000000
# 4 0.000000 0.000000 0.000000 0.394461 0.000000 0.000000
# 5 0.000000 0.000000 0.000000 0.000000 0.395984 0.000000
# 6 0.000000 0.000000 0.000000 0.000000 0.000000 0.054484
#
#
# Mechanical properties :
#
#
# Convention : Reuss Voigt Hill
#
# Bulk Modulus (GPa) = 48.92159 49.47205 49.19682
# Shear Modulus (GPa) = 5.55317 19.21306 12.38312
#
# Velocity S-wave (km/s) = 1.60349 2.98260 2.39448
# Velocity P-wave (km/s) = 5.10682 5.89639 5.51575
#
# Compressibility (1/GPa) = 0.02044087
#
# Stress axis : x y z
#
# Youngs Moduli (GPa) = 89.17777 89.17796 82.54028
#
# Poissons Ratio (x) = 0.28283 0.16010
# Poissons Ratio (y) = 0.28283 0.16009
# Poissons Ratio (z) = 0.17297 0.17297
#
# Static dielectric constant tensor:
#      x y z
#    x 2.760250 0.000000 0.000000 
#    y 0.000000 2.759820 0.000000 
#    z 0.000000 0.000000 1.834310 
# 
# From -- ./inp_files/7803.got.cif
#   From: 2010.05.17/outbox.cif.g08.bks.cpg/sg119_4_cif.got.tgz:7803.got - 2010.05.20 11:21:29.
