data_PCOD9559681
_publ_section_title
;
Structure prediction by ZEFSAII (Michael W. Deem and Ramdas Pophale) SiO2 
 PCOD9559681
Probable space group: I -4 C 2
;
_chemical_formula_sum "Si O2"
_cell_formula_units_Z 72
_cell_length_a 19.486623
_cell_length_b 19.486623
_cell_length_c 9.219942
_cell_angle_alpha 90.000000
_cell_angle_beta 90.000000
_cell_angle_gamma 90.000000
_cell_volume 3501.074524
_symmetry_space_group_name_H-M "I -4 C 2"
_symmetry_group_IT_number 120
_symmetry_cell_setting 'tetragonal'
loop_
_space_group_symop_operation_xyz
x,y,z
y,-x,-z
-x,-y,z
-y,x,-z
y,x,1/2-z
-y,-x,1/2-z
-x,y,1/2+z
x,-y,1/2+z
1/2+x,1/2+y,1/2+z
1/2+y,1/2-x,1/2-z
1/2-x,1/2-y,1/2+z
1/2-y,1/2+x,1/2-z
1/2+y,1/2+x,-z
1/2-y,1/2-x,-z
1/2-x,1/2+y,z
1/2+x,1/2-y,z
loop_
_atom_site_type_symbol
_atom_site_label
_atom_site_fract_x
_atom_site_fract_y
_atom_site_fract_z
Si Si1 0.460734 0.917960 0.157419
Si Si2 0.784735 0.148518 0.049444
Si Si3 0.083162 0.946167 0.082904
Si Si4 0.311813 0.145343 0.302996
Si Si5 0.801939 0.301939 0.000000
O O1 0.536513 0.919622 0.223102
O O2 0.425325 0.845426 0.148608
O O3 0.450873 0.950873 0.000000
O O4 0.761250 0.148827 0.881434
O O5 0.809251 0.226640 0.071890
O O6 0.844324 0.094259 0.077826
O O7 0.711819 0.145600 0.136406
O O8 0.057897 0.942104 0.250000
O O9 0.023765 0.912254 0.980665
O O10 0.308982 0.146618 0.131386
#
# Coordination Sequence:
#
# PCOD9559681 Si02
#       5
#    16  16  16  16   8
#     4  11  23  42  63  89 127 168 201 257 311 369
#     4  10  20  44  61  88 130 163 206 264 324 369
#     4  11  24  43  66  92 127 169 214 266 324 390
#     4  10  21  40  64  92 129 160 212 261 312 383
#     4  10  20  34  66  91 120 173 200 262 316 374
#
# _framework density 20.565114000000001
#
# number of rings (size 3 to 8) (size 9 to 14) (size 15 to 20)
#    0.000    1.778    2.222    6.667    3.111    3.556 
#   12.000    0.000    0.000    0.000    0.000    0.000 
#    0.000    0.000    0.000    0.000    0.000    0.000 
#
# Total GULP energy -200638.305098 kJ/mol
# GULP energy per Si atom -5573.286253 kJ/mol
# Density = 2.051831 g / cm^3
# Si number density = 20.565114 Si / 1000 Ang^3
#
#
#
# Elastic Constant Matrix: (Units=GPa)
#
#
# Indices 1 2 3 4 5 6 
#
# 1 220.8810 -164.6931 -11.7667 0.0000 0.0000 0.0000
# 2 -164.6931 220.8793 -11.7673 0.0000 0.0000 0.0000
# 3 -11.7667 -11.7673 124.0128 0.0000 0.0000 0.0000
# 4 0.0000 0.0000 0.0000 14.4483 0.0000 0.0000
# 5 0.0000 0.0000 0.0000 0.0000 14.4482 0.0000
# 6 0.0000 0.0000 0.0000 0.0000 0.0000 47.0213
#
#
#
# Elastic Compliance Matrix: (Units=1/GPa)
#
#
# Indices 1 2 3 4 5 6 
#
# 1 0.010564 0.007970 0.001759 0.000000 0.000000 0.000000
# 2 0.007970 0.010564 0.001759 0.000000 0.000000 0.000000
# 3 0.001759 0.001759 0.008397 0.000000 0.000000 0.000000
# 4 0.000000 0.000000 0.000000 0.069212 0.000000 0.000000
# 5 0.000000 0.000000 0.000000 0.000000 0.069213 0.000000
# 6 0.000000 0.000000 0.000000 0.000000 0.000000 0.021267
#
#
# Mechanical properties :
#
#
# Convention : Reuss Voigt Hill
#
# Bulk Modulus (GPa) = 19.04740 21.03543 20.04142
# Shear Modulus (GPa) = 27.21201 65.45023 46.33112
#
# Velocity S-wave (km/s) = 3.64154 5.64756 4.75162
# Velocity P-wave (km/s) = 5.19261 7.26481 6.31430
#
# Compressibility (1/GPa) = 0.05250059
#
# Stress axis : x y z
#
# Youngs Moduli (GPa) = 94.66212 94.66136 119.08423
#
# Poissons Ratio (x) = -0.75449 -0.20942
# Poissons Ratio (y) = -0.75449 -0.20943
# Poissons Ratio (z) = -0.16647 -0.16648
#
# Static dielectric constant tensor:
#      x y z
#    x 1.731650 0.000000 0.000000 
#    y 0.000000 1.731650 0.000000 
#    z 0.000000 0.000000 1.678960 
# 
# From -- ./inp_files/1332.got.cif
#   From: 2010.05.17/outbox.cif.g08.bks.cpg/sg120_1_cif.got.tgz:1332.got - 2010.05.20 11:28:13.
