data_PCOD9559333
_publ_section_title
;
Structure prediction by ZEFSAII (Michael W. Deem and Ramdas Pophale) SiO2 
 PCOD9559333
Probable space group: I -4 M 2
;
_chemical_formula_sum "Si O2"
_cell_formula_units_Z 96
_cell_length_a 25.572123
_cell_length_b 25.572123
_cell_length_c 8.778784
_cell_angle_alpha 90.000000
_cell_angle_beta 90.000000
_cell_angle_gamma 90.000000
_cell_volume 5740.740725
_symmetry_space_group_name_H-M "I -4 M 2"
_symmetry_group_IT_number 119
_symmetry_cell_setting 'tetragonal'
loop_
_space_group_symop_operation_xyz
x,y,z
y,-x,-z
-x,-y,z
-y,x,-z
y,x,-z
-y,-x,-z
-x,y,z
x,-y,z
1/2+x,1/2+y,1/2+z
1/2+y,1/2-x,1/2-z
1/2-x,1/2-y,1/2+z
1/2-y,1/2+x,1/2-z
1/2+y,1/2+x,1/2-z
1/2-y,1/2-x,1/2-z
1/2-x,1/2+y,1/2+z
1/2+x,1/2-y,1/2+z
loop_
_atom_site_type_symbol
_atom_site_label
_atom_site_fract_x
_atom_site_fract_y
_atom_site_fract_z
Si Si1 0.721804 0.558937 0.833399
Si Si2 0.941509 0.773101 0.299733
Si Si3 0.247717 0.666842 0.321328
Si Si4 0.057441 0.880606 0.110403
Si Si5 0.603351 0.558558 0.859152
Si Si6 0.250340 0.833484 0.186681
O O1 0.740583 0.500000 0.791790
O O2 0.660877 0.562525 0.788602
O O3 0.749777 0.608731 0.759073
O O4 0.721241 0.561908 0.017708
O O5 0.891098 0.742288 0.244133
O O6 0.937265 0.827678 0.206923
O O7 0.000000 0.752248 0.266379
O O8 0.203479 0.703479 0.250000
O O9 0.245159 0.664651 0.504049
O O10 0.302361 0.696061 0.277896
O O11 0.061212 0.926580 0.234101
O O12 0.000000 0.880444 0.035714
O O13 0.105339 0.894662 0.000000
O O14 0.596721 0.500000 0.918354
O O15 0.597365 0.597365 0.000000
O O16 0.297020 0.797020 0.250000
#
# Coordination Sequence:
#
# PCOD9559333 Si02
#       6
#    16  16  16  16  16  16
#     4  10  21  36  53  74 100 133 171 213 262 318
#     4  10  21  36  53  73 101 134 169 212 264 320
#     4  10  21  35  54  80 106 135 172 215 266 315
#     4  11  23  35  46  64  91 128 173 223 274 315
#     4  11  21  33  48  66  89 126 174 220 267 312
#     4  10  21  35  55  80 104 135 173 217 264 313
#
# _framework density 16.722581999999999
#
# number of rings (size 3 to 8) (size 9 to 14) (size 15 to 20)
#    0.000    1.667    1.667    3.000    4.667    4.000 
#    0.000    0.000    0.000    0.000    0.000    0.000 
#    0.000    0.667    0.000    7.000    0.000    3.000 
#
# Total GULP energy -267746.850660 kJ/mol
# GULP energy per Si atom -5578.059389 kJ/mol
# Density = 1.668452 g / cm^3
# Si number density = 16.722582 Si / 1000 Ang^3
#
#
#
# Elastic Constant Matrix: (Units=GPa)
#
#
# Indices 1 2 3 4 5 6 
#
# 1 91.0248 40.8165 29.1970 0.0000 0.0000 0.0000
# 2 40.8165 91.0254 29.1973 0.0000 0.0000 0.0000
# 3 29.1970 29.1973 56.5028 0.0000 0.0000 0.0000
# 4 0.0000 0.0000 0.0000 26.4275 0.0000 0.0000
# 5 0.0000 0.0000 0.0000 0.0000 26.4269 0.0000
# 6 0.0000 0.0000 0.0000 0.0000 0.0000 20.6226
#
#
#
# Elastic Compliance Matrix: (Units=1/GPa)
#
#
# Indices 1 2 3 4 5 6 
#
# 1 0.014876 -0.005040 -0.005083 0.000000 0.000000 0.000000
# 2 -0.005040 0.014876 -0.005083 0.000000 0.000000 0.000000
# 3 -0.005083 -0.005083 0.022951 0.000000 0.000000 0.000000
# 4 0.000000 0.000000 0.000000 0.037839 0.000000 0.000000
# 5 0.000000 0.000000 0.000000 0.000000 0.037840 0.000000
# 6 0.000000 0.000000 0.000000 0.000000 0.000000 0.048491
#
#
# Mechanical properties :
#
#
# Convention : Reuss Voigt Hill
#
# Bulk Modulus (GPa) = 44.85813 48.55270 46.70542
# Shear Modulus (GPa) = 23.28652 23.98487 23.63570
#
# Velocity S-wave (km/s) = 3.73570 3.79130 3.76360
# Velocity P-wave (km/s) = 6.74465 6.94712 6.84664
#
# Compressibility (1/GPa) = 0.02229250
#
# Stress axis : x y z
#
# Youngs Moduli (GPa) = 67.22011 67.22042 43.57104
#
# Poissons Ratio (x) = 0.33882 0.22145
# Poissons Ratio (y) = 0.33882 0.22146
# Poissons Ratio (z) = 0.34165 0.34166
#
# Static dielectric constant tensor:
#      x y z
#    x 1.564780 0.000000 0.000000 
#    y 0.000000 1.564780 0.000000 
#    z 0.000000 0.000000 1.627610 
# 
# From -- ./inp_files/2657.got.cif
#   From: 2010.05.17/outbox.cif.g08.bks.cpg/sg119_2_cif.got.tgz:2657.got - 2010.05.20 11:21:29.
