data_PCOD9559126
_publ_section_title
;
Structure prediction by ZEFSAII (Michael W. Deem and Ramdas Pophale) SiO2 
 PCOD9559126
Probable space group: I -4 M 2
;
_chemical_formula_sum "Si O2"
_cell_formula_units_Z 80
_cell_length_a 18.124266
_cell_length_b 18.124266
_cell_length_c 11.651788
_cell_angle_alpha 90.000000
_cell_angle_beta 90.000000
_cell_angle_gamma 90.000000
_cell_volume 3827.484399
_symmetry_space_group_name_H-M "I -4 M 2"
_symmetry_group_IT_number 119
_symmetry_cell_setting 'tetragonal'
loop_
_space_group_symop_operation_xyz
x,y,z
y,-x,-z
-x,-y,z
-y,x,-z
y,x,-z
-y,-x,-z
-x,y,z
x,-y,z
1/2+x,1/2+y,1/2+z
1/2+y,1/2-x,1/2-z
1/2-x,1/2-y,1/2+z
1/2-y,1/2+x,1/2-z
1/2+y,1/2+x,1/2-z
1/2-y,1/2-x,1/2-z
1/2-x,1/2+y,1/2+z
1/2+x,1/2-y,1/2+z
loop_
_atom_site_type_symbol
_atom_site_label
_atom_site_fract_x
_atom_site_fract_y
_atom_site_fract_z
Si Si1 0.187522 0.695324 0.447478
Si Si2 0.585379 0.310292 0.259553
Si Si3 0.671033 0.411243 0.108022
Si Si4 0.301201 0.584301 0.478299
Si Si5 0.841810 0.586777 0.857916
O O1 0.244450 0.755551 0.500000
O O2 0.127825 0.748585 0.387814
O O3 0.247475 0.635800 0.402824
O O4 0.136694 0.646618 0.531847
O O5 0.500000 0.327557 0.241781
O O6 0.630099 0.381981 0.222136
O O7 0.591668 0.277529 0.387208
O O8 0.606159 0.242603 0.177093
O O9 0.674662 0.500000 0.097779
O O10 0.624080 0.375921 0.000000
O O11 0.382673 0.617328 0.500000
O O12 0.300272 0.500000 0.442975
O O13 0.846276 0.500000 0.880599
O O14 0.891877 0.608124 0.750000
#
# Coordination Sequence:
#
# PCOD9559126 Si02
#       5
#    16  16  16  16  16
#     4  10  19  33  54  78 108 148 181 220 276 336
#     4  10  20  35  54  77 110 151 183 223 278 325
#     4  11  21  33  52  82 116 148 184 227 280 342
#     4  10  22  39  59  81 107 146 192 236 280 329
#     4  11  20  33  53  78 112 146 182 226 272 328
#
# _framework density 20.901458000000002
#
# number of rings (size 3 to 8) (size 9 to 14) (size 15 to 20)
#    0.000    1.600    6.000    1.200    0.000    2.600 
#    0.000    2.000    0.000    1.800    0.000    0.000 
#    0.000    0.000    0.000   12.000    0.000    0.000 
#
# Total GULP energy -222761.539659 kJ/mol
# GULP energy per Si atom -5569.038491 kJ/mol
# Density = 2.085389 g / cm^3
# Si number density = 20.901458 Si / 1000 Ang^3
#
#
#
# Elastic Constant Matrix: (Units=GPa)
#
#
# Indices 1 2 3 4 5 6 
#
# 1 82.0587 89.3362 4.4217 0.0000 0.0000 0.0000
# 2 89.3362 82.0676 4.4288 0.0000 0.0000 0.0000
# 3 4.4217 4.4288 25.3806 0.0000 0.0000 0.0000
# 4 0.0000 0.0000 0.0000 23.9509 0.0000 0.0000
# 5 0.0000 0.0000 0.0000 0.0000 23.9497 0.0000
# 6 0.0000 0.0000 0.0000 0.0000 0.0000 20.4584
#
#
#
# Elastic Compliance Matrix: (Units=1/GPa)
#
#
# Indices 1 2 3 4 5 6 
#
# 1 -0.065805 0.071690 -0.001045 0.000000 0.000000 0.000000
# 2 0.071690 -0.065800 -0.001008 0.000000 0.000000 0.000000
# 3 -0.001045 -0.001008 0.039758 0.000000 0.000000 0.000000
# 4 0.000000 0.000000 0.000000 0.041752 0.000000 0.000000
# 5 0.000000 0.000000 0.000000 0.000000 0.041754 0.000000
# 6 0.000000 0.000000 0.000000 0.000000 0.000000 0.048880
#
#
# Mechanical properties :
#
#
# Convention : Reuss Voigt Hill
#
# Bulk Modulus (GPa) = 21.08513 42.87561 31.98037
# Shear Modulus (GPa) = -60.29386 19.75980 -20.26703
#
# Velocity S-wave (km/s) = -5.37674 3.07804 -3.11729
# Velocity P-wave (km/s) = 5.33254 5.76109 1.54177
#
# Compressibility (1/GPa) = 0.04742680
#
# Stress axis : x y z
#
# Youngs Moduli (GPa) = -15.19631 -15.19750 25.15210
#
# Poissons Ratio (x) = 1.08951 0.02629
# Poissons Ratio (y) = 1.08943 0.02535
# Poissons Ratio (z) = -0.01588 -0.01531
#
# Static dielectric constant tensor:
#      x y z
#    x 1.758140 0.000000 0.000000 
#    y 0.000000 1.758140 0.000000 
#    z 0.000000 0.000000 1.934520 
# 
# From -- ./inp_files/5241.got.cif
#   From: 2010.05.17/outbox.cif.g08.bks.cpg/sg119_3_cif.got.tgz:5241.got - 2010.05.20 11:21:29.
