data_PCOD9559815
_publ_section_title
;
Structure prediction by ZEFSAII (Michael W. Deem and Ramdas Pophale) SiO2 
 PCOD9559815
Probable space group: I -4 C 2
;
_chemical_formula_sum "Si O2"
_cell_formula_units_Z 104
_cell_length_a 26.643580
_cell_length_b 26.643580
_cell_length_c 8.627127
_cell_angle_alpha 90.000000
_cell_angle_beta 90.000000
_cell_angle_gamma 90.000000
_cell_volume 6124.227979
_symmetry_space_group_name_H-M "I -4 C 2"
_symmetry_group_IT_number 120
_symmetry_cell_setting 'tetragonal'
loop_
_space_group_symop_operation_xyz
x,y,z
y,-x,-z
-x,-y,z
-y,x,-z
y,x,1/2-z
-y,-x,1/2-z
-x,y,1/2+z
x,-y,1/2+z
1/2+x,1/2+y,1/2+z
1/2+y,1/2-x,1/2-z
1/2-x,1/2-y,1/2+z
1/2-y,1/2+x,1/2-z
1/2+y,1/2+x,-z
1/2-y,1/2-x,-z
1/2-x,1/2+y,z
1/2+x,1/2-y,z
loop_
_atom_site_type_symbol
_atom_site_label
_atom_site_fract_x
_atom_site_fract_y
_atom_site_fract_z
Si Si1 0.277059 0.070979 0.428851
Si Si2 0.721471 0.847352 0.792958
Si Si3 0.153462 0.191408 0.082857
Si Si4 0.259472 0.759472 0.500000
Si Si5 0.838859 0.161142 0.250000
Si Si6 0.992500 0.309824 0.307265
Si Si7 0.848204 0.427454 0.946159
Si Si8 0.850371 0.350371 0.500000
O O1 0.232447 0.109477 0.398102
O O2 0.275771 0.046449 0.598419
O O3 0.332398 0.097855 0.420245
O O4 0.277505 0.025099 0.310859
O O5 0.719147 0.791091 0.856883
O O6 0.780446 0.854638 0.770062
O O7 0.695864 0.886665 0.910819
O O8 0.690048 0.847586 0.636260
O O9 0.165664 0.165664 0.250000
O O10 0.202818 0.223533 0.030109
O O11 0.142690 0.154956 0.932400
O O12 0.959455 0.350270 0.212694
O O13 0.032119 0.333722 0.424777
O O14 0.896123 0.396123 0.000000
#
# Coordination Sequence:
#
# PCOD9559815 Si02
#       8
#    16  16  16   8   8  16  16   8
#     4  11  22  37  54  80 108 146 193 236 283 344
#     4  11  21  31  50  78 116 146 168 224 276 346
#     4  11  22  33  52  79 116 151 182 222 275 337
#     4  10  23  30  48  86 116 145 172 206 287 350
#     4  10  22  32  44  80 122 144 182 206 273 338
#     4  10  24  38  57  78 103 143 192 243 288 359
#     4  11  21  41  57  81 101 137 188 240 303 344
#     4  12  19  32  54  76 101 137 178 234 295 322
#
# _framework density 16.981732999999998
#
# number of rings (size 3 to 8) (size 9 to 14) (size 15 to 20)
#    0.000    1.231    3.846    2.308   10.769    0.000 
#    0.000    0.000    0.000    1.385    0.000    0.000 
#    0.000    0.000    0.000    0.000    0.000    2.308 
#
# Total GULP energy -289519.621947 kJ/mol
# GULP energy per Si atom -5567.685037 kJ/mol
# Density = 1.694308 g / cm^3
# Si number density = 16.981733 Si / 1000 Ang^3
#
#
#
# Elastic Constant Matrix: (Units=GPa)
#
#
# Indices 1 2 3 4 5 6 
#
# 1 55.9691 54.4678 34.1790 0.0000 0.0000 0.0000
# 2 54.4678 55.9711 34.1793 0.0000 0.0000 0.0000
# 3 34.1790 34.1793 107.7533 0.0000 0.0000 0.0000
# 4 0.0000 0.0000 0.0000 31.2321 0.0000 0.0000
# 5 0.0000 0.0000 0.0000 0.0000 31.2320 0.0000
# 6 0.0000 0.0000 0.0000 0.0000 0.0000 19.4095
#
#
#
# Elastic Compliance Matrix: (Units=1/GPa)
#
#
# Indices 1 2 3 4 5 6 
#
# 1 0.338477 -0.327203 -0.003575 0.000000 0.000000 0.000000
# 2 -0.327203 0.338463 -0.003573 0.000000 0.000000 0.000000
# 3 -0.003575 -0.003573 0.011548 0.000000 0.000000 0.000000
# 4 0.000000 0.000000 0.000000 0.032018 0.000000 0.000000
# 5 0.000000 0.000000 0.000000 0.000000 0.032018 0.000000
# 6 0.000000 0.000000 0.000000 0.000000 0.000000 0.051521
#
#
# Mechanical properties :
#
#
# Convention : Reuss Voigt Hill
#
# Bulk Modulus (GPa) = 50.54024 51.70510 51.12267
# Shear Modulus (GPa) = 3.37988 22.83255 13.10622
#
# Velocity S-wave (km/s) = 1.41231 3.67077 2.78111
# Velocity P-wave (km/s) = 5.69962 6.96273 6.36260
#
# Compressibility (1/GPa) = 0.01978621
#
# Stress axis : x y z
#
# Youngs Moduli (GPa) = 2.95441 2.95453 86.59724
#
# Poissons Ratio (x) = 0.96673 0.30960
# Poissons Ratio (y) = 0.96669 0.30938
# Poissons Ratio (z) = 0.01056 0.01056
#
# Static dielectric constant tensor:
#      x y z
#    x 1.580560 0.000000 0.000000 
#    y 0.000000 1.580550 0.000000 
#    z 0.000000 0.000000 1.716360 
# 
# From -- ./inp_files/1705.got.cif
#   From: 2010.05.17/outbox.cif.g08.bks.cpg/sg120_1_cif.got.tgz:1705.got - 2010.05.20 11:28:13.
