data_PCOD9559542
_publ_section_title
;
Structure prediction by ZEFSAII (Michael W. Deem and Ramdas Pophale) SiO2 
 PCOD9559542
Probable space group: I -4 M 2
;
_chemical_formula_sum "Si O2"
_cell_formula_units_Z 56
_cell_length_a 9.562023
_cell_length_b 9.562023
_cell_length_c 37.370826
_cell_angle_alpha 90.000000
_cell_angle_beta 90.000000
_cell_angle_gamma 90.000000
_cell_volume 3416.899971
_symmetry_space_group_name_H-M "I -4 M 2"
_symmetry_group_IT_number 119
_symmetry_cell_setting 'tetragonal'
loop_
_space_group_symop_operation_xyz
x,y,z
y,-x,-z
-x,-y,z
-y,x,-z
y,x,-z
-y,-x,-z
-x,y,z
x,-y,z
1/2+x,1/2+y,1/2+z
1/2+y,1/2-x,1/2-z
1/2-x,1/2-y,1/2+z
1/2-y,1/2+x,1/2-z
1/2+y,1/2+x,1/2-z
1/2-y,1/2-x,1/2-z
1/2-x,1/2+y,1/2+z
1/2+x,1/2-y,1/2+z
loop_
_atom_site_type_symbol
_atom_site_label
_atom_site_fract_x
_atom_site_fract_y
_atom_site_fract_z
Si Si1 0.339124 0.670061 0.139758
Si Si2 0.666170 0.666170 0.500000
Si Si3 0.834460 0.168110 0.279942
Si Si4 0.666560 0.165798 0.570716
O O1 0.500000 0.714023 0.134659
O O2 0.338261 0.500000 0.140168
O O3 0.292121 0.711700 0.179632
O O4 0.244976 0.714563 0.106517
O O5 0.688400 0.500000 0.505379
O O6 0.750310 0.709571 0.464664
O O7 0.747050 0.247050 0.250000
O O8 0.000000 0.199395 0.276251
O O9 0.819097 0.000000 0.277123
O O10 0.500000 0.183439 0.575299
O O11 0.693864 0.000000 0.565860
#
# Coordination Sequence:
#
# PCOD9559542 Si02
#       4
#    16   8  16  16
#     4   8  15  29  47  66  90 118 147 183 226 267
#     4   9  18  32  46  61  88 122 146 171 218 270
#     4   9  18  32  49  70  96 125 157 193 233 278
#     4   9  17  29  46  67  88 112 146 185 220 258
#
# _framework density 16.389126000000001
#
# number of rings (size 3 to 8) (size 9 to 14) (size 15 to 20)
#    0.000    3.286    0.000    1.714    0.000    2.857 
#    0.000    4.286    0.000    5.143    0.000    0.000 
#    0.000    0.000    0.000    0.000    0.000    0.000 
#
# Total GULP energy -155910.927117 kJ/mol
# GULP energy per Si atom -5568.247397 kJ/mol
# Density = 1.635182 g / cm^3
# Si number density = 16.389126 Si / 1000 Ang^3
#
#
#
# Elastic Constant Matrix: (Units=GPa)
#
#
# Indices 1 2 3 4 5 6 
#
# 1 32.4425 32.0130 70.5968 0.0000 0.0000 0.0000
# 2 32.0130 32.4425 70.5968 0.0000 0.0000 0.0000
# 3 70.5968 70.5968 211.6593 0.0000 0.0000 0.0000
# 4 0.0000 0.0000 0.0000 33.8549 0.0000 0.0000
# 5 0.0000 0.0000 0.0000 0.0000 33.8549 0.0000
# 6 0.0000 0.0000 0.0000 0.0000 0.0000 19.3355
#
#
#
# Elastic Compliance Matrix: (Units=1/GPa)
#
#
# Indices 1 2 3 4 5 6 
#
# 1 1.192926 -1.135329 -0.019211 0.000000 0.000000 0.000000
# 2 -1.135329 1.192926 -0.019211 0.000000 0.000000 0.000000
# 3 -0.019211 -0.019211 0.017540 0.000000 0.000000 0.000000
# 4 0.000000 0.000000 0.000000 0.029538 0.000000 0.000000
# 5 0.000000 0.000000 0.000000 0.000000 0.029538 0.000000
# 6 0.000000 0.000000 0.000000 0.000000 0.000000 0.051718
#
#
# Mechanical properties :
#
#
# Convention : Reuss Voigt Hill
#
# Bulk Modulus (GPa) = 17.89211 69.21748 43.55480
# Shear Modulus (GPa) = 1.02452 24.29827 12.66139
#
# Velocity S-wave (km/s) = 0.79151 3.85461 2.78249
# Velocity P-wave (km/s) = 3.43163 7.88265 6.07915
#
# Compressibility (1/GPa) = 0.05589057
#
# Stress axis : x y z
#
# Youngs Moduli (GPa) = 0.83827 0.83827 57.01307
#
# Poissons Ratio (x) = 0.95172 1.09528
# Poissons Ratio (y) = 0.95172 1.09528
# Poissons Ratio (z) = 0.01610 0.01610
#
# Static dielectric constant tensor:
#      x y z
#    x 1.542600 0.000000 0.000000 
#    y 0.000000 1.542600 0.000000 
#    z 0.000000 0.000000 1.546350 
# 
# From -- ./inp_files/7247.got.cif
#   From: 2010.05.17/outbox.cif.g08.bks.cpg/sg119_4_cif.got.tgz:7247.got - 2010.05.20 11:21:29.
