data_PCOD9559961
_publ_section_title
;
Structure prediction by ZEFSAII (Michael W. Deem and Ramdas Pophale) SiO2 
 PCOD9559961
Probable space group: I -4 C 2
;
_chemical_formula_sum "Si O2"
_cell_formula_units_Z 100
_cell_length_a 15.084378
_cell_length_b 15.084378
_cell_length_c 23.572269
_cell_angle_alpha 90.000000
_cell_angle_beta 90.000000
_cell_angle_gamma 90.000000
_cell_volume 5363.597779
_symmetry_space_group_name_H-M "I -4 C 2"
_symmetry_group_IT_number 120
_symmetry_cell_setting 'tetragonal'
loop_
_space_group_symop_operation_xyz
x,y,z
y,-x,-z
-x,-y,z
-y,x,-z
y,x,1/2-z
-y,-x,1/2-z
-x,y,1/2+z
x,-y,1/2+z
1/2+x,1/2+y,1/2+z
1/2+y,1/2-x,1/2-z
1/2-x,1/2-y,1/2+z
1/2-y,1/2+x,1/2-z
1/2+y,1/2+x,-z
1/2-y,1/2-x,-z
1/2-x,1/2+y,z
1/2+x,1/2-y,z
loop_
_atom_site_type_symbol
_atom_site_label
_atom_site_fract_x
_atom_site_fract_y
_atom_site_fract_z
Si Si1 0.167869 0.255426 0.799942
Si Si2 0.308784 0.520054 0.221244
Si Si3 0.636931 0.444563 0.000266
Si Si4 0.758004 0.117225 0.390122
Si Si5 0.420422 0.747470 0.157600
Si Si6 0.500000 0.500000 0.750000
Si Si7 0.378001 0.726355 0.391809
O O1 0.239728 0.239728 0.750000
O O2 0.185997 0.177469 0.845647
O O3 0.173500 0.352668 0.827091
O O4 0.072875 0.240490 0.773092
O O5 0.301525 0.566549 0.282062
O O6 0.412381 0.499532 0.211968
O O7 0.269043 0.571186 0.167971
O O8 0.686288 0.401779 0.946679
O O9 0.545580 0.391572 0.010783
O O10 0.699499 0.438208 0.055295
O O11 0.674929 0.182397 0.401633
O O12 0.735197 0.018862 0.366032
O O13 0.357469 0.688356 0.117336
#
# Coordination Sequence:
#
# PCOD9559961 Si02
#       7
#    16  16  16  16  16   4  16
#     4  11  22  37  61  92 129 168 212 260 315 380
#     4  12  22  36  60  95 125 164 206 258 321 384
#     4  11  23  39  63  95 125 157 207 271 329 383
#     4  11  22  41  61  88 125 172 207 254 321 379
#     4  11  21  39  60  88 125 167 208 254 313 382
#     4  12  20  32  60  96 130 160 200 264 338 372
#     4  11  23  39  63  89 129 165 210 258 315 386
#
# _framework density 18.644203000000001
#
# number of rings (size 3 to 8) (size 9 to 14) (size 15 to 20)
#    0.000    0.800    5.600    3.360    0.000    1.280 
#    0.000    0.800    0.000    0.000    0.000    2.240 
#    0.000    0.000    0.000    0.000    0.000    0.000 
#
# Total GULP energy -278940.836796 kJ/mol
# GULP energy per Si atom -5578.816736 kJ/mol
# Density = 1.860177 g / cm^3
# Si number density = 18.644203 Si / 1000 Ang^3
#
#
#
# Elastic Constant Matrix: (Units=GPa)
#
#
# Indices 1 2 3 4 5 6 
#
# 1 102.5058 37.1688 21.6669 0.0000 0.0000 0.0000
# 2 37.1688 102.5058 21.6669 0.0000 0.0000 0.0000
# 3 21.6669 21.6669 79.3766 0.0000 0.0000 0.0000
# 4 0.0000 0.0000 0.0000 31.5025 0.0000 0.0000
# 5 0.0000 0.0000 0.0000 0.0000 31.5025 0.0000
# 6 0.0000 0.0000 0.0000 0.0000 0.0000 28.0697
#
#
#
# Elastic Compliance Matrix: (Units=1/GPa)
#
#
# Indices 1 2 3 4 5 6 
#
# 1 0.011564 -0.003742 -0.002135 0.000000 0.000000 0.000000
# 2 -0.003742 0.011564 -0.002135 0.000000 0.000000 0.000000
# 3 -0.002135 -0.002135 0.013764 0.000000 0.000000 0.000000
# 4 0.000000 0.000000 0.000000 0.031744 0.000000 0.000000
# 5 0.000000 0.000000 0.000000 0.000000 0.031744 0.000000
# 6 0.000000 0.000000 0.000000 0.000000 0.000000 0.035626
#
#
# Mechanical properties :
#
#
# Convention : Reuss Voigt Hill
#
# Bulk Modulus (GPa) = 47.92208 49.48817 48.70513
# Shear Modulus (GPa) = 31.44989 31.80731 31.62860
#
# Velocity S-wave (km/s) = 4.11158 4.13488 4.12324
# Velocity P-wave (km/s) = 6.94978 7.02833 6.98916
#
# Compressibility (1/GPa) = 0.02086721
#
# Stress axis : x y z
#
# Youngs Moduli (GPa) = 86.47837 86.47837 72.65452
#
# Poissons Ratio (x) = 0.32357 0.15512
# Poissons Ratio (y) = 0.32357 0.15512
# Poissons Ratio (z) = 0.18464 0.18464
#
# Static dielectric constant tensor:
#      x y z
#    x 1.662860 0.000000 0.000000 
#    y 0.000000 1.662860 0.000000 
#    z 0.000000 0.000000 1.654800 
# 
# From -- ./inp_files/5855.got.cif
#   From: 2010.05.17/outbox.cif.g08.bks.cpg/sg120_3_cif.got.tgz:5855.got - 2010.05.20 11:28:13.
