data_PCOD9559812
_publ_section_title
;
Structure prediction by ZEFSAII (Michael W. Deem and Ramdas Pophale) SiO2 
 PCOD9559812
Probable space group: I -4 C 2
;
_chemical_formula_sum "Si O2"
_cell_formula_units_Z 56
_cell_length_a 13.120698
_cell_length_b 13.120698
_cell_length_c 13.786522
_cell_angle_alpha 90.000000
_cell_angle_beta 90.000000
_cell_angle_gamma 90.000000
_cell_volume 2373.387207
_symmetry_space_group_name_H-M "I -4 C 2"
_symmetry_group_IT_number 120
_symmetry_cell_setting 'tetragonal'
loop_
_space_group_symop_operation_xyz
x,y,z
y,-x,-z
-x,-y,z
-y,x,-z
y,x,1/2-z
-y,-x,1/2-z
-x,y,1/2+z
x,-y,1/2+z
1/2+x,1/2+y,1/2+z
1/2+y,1/2-x,1/2-z
1/2-x,1/2-y,1/2+z
1/2-y,1/2+x,1/2-z
1/2+y,1/2+x,-z
1/2-y,1/2-x,-z
1/2-x,1/2+y,z
1/2+x,1/2-y,z
loop_
_atom_site_type_symbol
_atom_site_label
_atom_site_fract_x
_atom_site_fract_y
_atom_site_fract_z
Si Si1 0.048069 0.707032 0.041912
Si Si2 0.329640 0.370333 0.611815
Si Si3 0.685970 0.185970 0.000000
Si Si4 0.023534 0.191796 0.725079
O O1 0.053472 0.713303 0.157765
O O2 0.934812 0.699800 0.999938
O O3 0.116934 0.616934 0.000000
O O4 0.091382 0.812171 0.996692
O O5 0.287254 0.254514 0.595778
O O6 0.278384 0.451345 0.684314
O O7 0.442838 0.365033 0.653428
O O8 0.115851 0.115851 0.750000
#
# Coordination Sequence:
#
# PCOD9559812 Si02
#       4
#    16  16   8  16
#     4  11  24  46  74 107 145 203 244 303 367 446
#     4  10  21  44  66 106 141 189 239 302 366 426
#     4  10  23  44  72  97 146 190 242 302 362 443
#     4  10  24  44  71 113 149 185 248 310 371 431
#
# _framework density 23.594968999999999
#
# number of rings (size 3 to 8) (size 9 to 14) (size 15 to 20)
#    0.000    1.714    1.429    2.143    8.000    0.000 
#   20.571    0.000    0.000    0.000    0.000    0.000 
#    0.000    0.000    0.000    0.000    0.000    0.000 
#
# Total GULP energy -155929.934256 kJ/mol
# GULP energy per Si atom -5568.926223 kJ/mol
# Density = 2.354127 g / cm^3
# Si number density = 23.594969 Si / 1000 Ang^3
#
#
#
# Elastic Constant Matrix: (Units=GPa)
#
#
# Indices 1 2 3 4 5 6 
#
# 1 99.0716 53.0969 57.6480 0.0000 0.0000 0.0000
# 2 53.0969 99.0716 57.6480 0.0000 0.0000 0.0000
# 3 57.6480 57.6480 132.0561 0.0000 0.0000 0.0000
# 4 0.0000 0.0000 0.0000 48.9546 0.0000 0.0000
# 5 0.0000 0.0000 0.0000 0.0000 48.9546 0.0000
# 6 0.0000 0.0000 0.0000 0.0000 0.0000 36.9611
#
#
#
# Elastic Compliance Matrix: (Units=1/GPa)
#
#
# Indices 1 2 3 4 5 6 
#
# 1 0.015785 -0.005966 -0.004287 0.000000 0.000000 0.000000
# 2 -0.005966 0.015785 -0.004287 0.000000 0.000000 0.000000
# 3 -0.004287 -0.004287 0.011315 0.000000 0.000000 0.000000
# 4 0.000000 0.000000 0.000000 0.020427 0.000000 0.000000
# 5 0.000000 0.000000 0.000000 0.000000 0.020427 0.000000
# 6 0.000000 0.000000 0.000000 0.000000 0.000000 0.027055
#
#
# Mechanical properties :
#
#
# Convention : Reuss Voigt Hill
#
# Bulk Modulus (GPa) = 72.42334 74.10945 73.26640
# Shear Modulus (GPa) = 34.60777 37.76117 36.18447
#
# Velocity S-wave (km/s) = 3.83396 4.00483 3.92033
# Velocity P-wave (km/s) = 7.09648 7.27063 7.18408
#
# Compressibility (1/GPa) = 0.01380770
#
# Stress axis : x y z
#
# Youngs Moduli (GPa) = 63.34987 63.34987 88.37707
#
# Poissons Ratio (x) = 0.37793 0.37884
# Poissons Ratio (y) = 0.37793 0.37884
# Poissons Ratio (z) = 0.27156 0.27156
#
# Static dielectric constant tensor:
#      x y z
#    x 1.988420 0.000000 0.000000 
#    y 0.000000 1.988420 0.000000 
#    z 0.000000 0.000000 1.950550 
# 
# From -- ./inp_files/3193.got.cif
#   From: 2010.05.17/outbox.cif.g08.bks.cpg/sg120_2_cif.got.tgz:3193.got - 2010.05.20 11:28:13.
