data_PCOD9559597
_publ_section_title
;
Structure prediction by ZEFSAII (Michael W. Deem and Ramdas Pophale) SiO2 
 PCOD9559597
Probable space group: I -4 C 2
;
_chemical_formula_sum "Si O2"
_cell_formula_units_Z 120
_cell_length_a 15.471407
_cell_length_b 15.471407
_cell_length_c 26.914400
_cell_angle_alpha 90.000000
_cell_angle_beta 90.000000
_cell_angle_gamma 90.000000
_cell_volume 6442.350138
_symmetry_space_group_name_H-M "I -4 C 2"
_symmetry_group_IT_number 120
_symmetry_cell_setting 'tetragonal'
loop_
_space_group_symop_operation_xyz
x,y,z
y,-x,-z
-x,-y,z
-y,x,-z
y,x,1/2-z
-y,-x,1/2-z
-x,y,1/2+z
x,-y,1/2+z
1/2+x,1/2+y,1/2+z
1/2+y,1/2-x,1/2-z
1/2-x,1/2-y,1/2+z
1/2-y,1/2+x,1/2-z
1/2+y,1/2+x,-z
1/2-y,1/2-x,-z
1/2-x,1/2+y,z
1/2+x,1/2-y,z
loop_
_atom_site_type_symbol
_atom_site_label
_atom_site_fract_x
_atom_site_fract_y
_atom_site_fract_z
Si Si1 0.316487 0.569057 0.715598
Si Si2 0.413435 0.903821 0.441379
Si Si3 0.669450 0.564507 0.787308
Si Si4 0.917717 0.945214 0.870446
Si Si5 0.600377 0.903144 0.412309
Si Si6 0.310579 0.189422 0.500000
Si Si7 0.297915 0.802337 0.833341
Si Si8 0.777338 0.168477 0.423071
O O1 0.391703 0.608298 0.750000
O O2 0.275326 0.493911 0.748990
O O3 0.364219 0.547873 0.663404
O O4 0.249201 0.644570 0.705599
O O5 0.422262 0.922262 0.500000
O O6 0.505198 0.863357 0.424104
O O7 0.321408 0.858554 0.433370
O O8 0.407287 0.994583 0.413224
O O9 0.593817 0.593817 0.750000
O O10 0.633782 0.508785 0.833047
O O11 0.719807 0.646464 0.808580
O O12 0.846304 0.905641 0.907868
O O13 0.000000 0.000000 0.890000
O O14 0.666692 0.877564 0.456383
O O15 0.639705 0.869077 0.361656
O O16 0.219552 0.186676 0.528845
O O17 0.272576 0.733773 0.876146
#
# Coordination Sequence:
#
# PCOD9559597 Si02
#       8
#    16  16  16  16  16   8  16  16
#     4   9  19  35  57  78 114 157 197 242 294 370
#     4  11  19  37  61  85 102 159 203 240 293 369
#     4  11  20  34  61  85 114 160 209 246 308 377
#     4  10  19  37  59  90 117 158 206 252 302 370
#     4  10  20  36  61  81 114 149 207 244 294 371
#     4  10  18  37  56  87 116 162 186 252 308 356
#     4  10  22  37  51  89 121 150 194 260 305 354
#     4  10  22  36  61  87 126 153 202 253 314 367
#
# _framework density 18.626743000000001
#
# number of rings (size 3 to 8) (size 9 to 14) (size 15 to 20)
#    0.000    1.867    3.333    1.600    0.000    1.067 
#    2.400    2.667    2.933    0.000    0.000    0.000 
#    0.000    0.000    0.000    0.000    0.000    0.000 
#
# Total GULP energy -334182.001051 kJ/mol
# GULP energy per Si atom -5569.700018 kJ/mol
# Density = 1.858435 g / cm^3
# Si number density = 18.626743 Si / 1000 Ang^3
#
#
#
# Elastic Constant Matrix: (Units=GPa)
#
#
# Indices 1 2 3 4 5 6 
#
# 1 68.7536 35.9492 23.1971 0.0000 0.0000 0.0000
# 2 35.9492 68.7537 23.1972 0.0000 0.0000 0.0000
# 3 23.1971 23.1972 54.0606 0.0000 0.0000 0.0000
# 4 0.0000 0.0000 0.0000 23.0979 0.0000 0.0000
# 5 0.0000 0.0000 0.0000 0.0000 23.0977 0.0000
# 6 0.0000 0.0000 0.0000 0.0000 0.0000 36.7446
#
#
#
# Elastic Compliance Matrix: (Units=1/GPa)
#
#
# Indices 1 2 3 4 5 6 
#
# 1 0.021138 -0.009345 -0.005060 0.000000 0.000000 0.000000
# 2 -0.009345 0.021138 -0.005060 0.000000 0.000000 0.000000
# 3 -0.005060 -0.005060 0.022841 0.000000 0.000000 0.000000
# 4 0.000000 0.000000 0.000000 0.043294 0.000000 0.000000
# 5 0.000000 0.000000 0.000000 0.000000 0.043294 0.000000
# 6 0.000000 0.000000 0.000000 0.000000 0.000000 0.027215
#
#
# Mechanical properties :
#
#
# Convention : Reuss Voigt Hill
#
# Bulk Modulus (GPa) = 38.18944 39.58390 38.88667
# Shear Modulus (GPa) = 22.06716 23.86967 22.96841
#
# Velocity S-wave (km/s) = 3.44569 3.58365 3.51534
# Velocity P-wave (km/s) = 6.03136 6.19844 6.11547
#
# Compressibility (1/GPa) = 0.02618525
#
# Stress axis : x y z
#
# Youngs Moduli (GPa) = 47.30721 47.30725 43.78186
#
# Poissons Ratio (x) = 0.44210 0.22155
# Poissons Ratio (y) = 0.44210 0.22155
# Poissons Ratio (z) = 0.23939 0.23939
#
# Static dielectric constant tensor:
#      x y z
#    x 1.688360 0.000000 0.000000 
#    y 0.000000 1.688360 0.000000 
#    z 0.000000 0.000000 1.641050 
# 
# From -- ./inp_files/6719.got.cif
#   From: 2010.05.17/outbox.cif.g08.bks.cpg/sg120_4_cif.got.tgz:6719.got - 2010.05.20 11:28:13.
