data_PCOD9559314
_publ_section_title
;
Structure prediction by ZEFSAII (Michael W. Deem and Ramdas Pophale) SiO2 
 PCOD9559314
Probable space group: I -4 M 2
;
_chemical_formula_sum "Si O2"
_cell_formula_units_Z 58
_cell_length_a 11.676596
_cell_length_b 11.676596
_cell_length_c 20.710830
_cell_angle_alpha 90.000000
_cell_angle_beta 90.000000
_cell_angle_gamma 90.000000
_cell_volume 2823.774502
_symmetry_space_group_name_H-M "I -4 M 2"
_symmetry_group_IT_number 119
_symmetry_cell_setting 'tetragonal'
loop_
_space_group_symop_operation_xyz
x,y,z
y,-x,-z
-x,-y,z
-y,x,-z
y,x,-z
-y,-x,-z
-x,y,z
x,-y,z
1/2+x,1/2+y,1/2+z
1/2+y,1/2-x,1/2-z
1/2-x,1/2-y,1/2+z
1/2-y,1/2+x,1/2-z
1/2+y,1/2+x,1/2-z
1/2-y,1/2-x,1/2-z
1/2-x,1/2+y,1/2+z
1/2+x,1/2-y,1/2+z
loop_
_atom_site_type_symbol
_atom_site_label
_atom_site_fract_x
_atom_site_fract_y
_atom_site_fract_z
Si Si1 0.500000 0.500000 0.000000
Si Si2 0.870677 0.368967 0.860075
Si Si3 0.856308 0.000000 0.730765
Si Si4 0.259219 0.759219 0.750000
Si Si5 0.227337 0.000000 0.583315
Si Si6 0.865442 0.314505 0.007526
O O1 0.500000 0.386062 0.958833
O O2 0.869974 0.500000 0.838129
O O3 0.785358 0.302663 0.814597
O O4 0.844933 0.367667 0.936269
O O5 0.000000 0.322621 0.852530
O O6 0.788823 0.111498 0.757924
O O7 0.819078 0.000000 0.655588
O O8 0.000000 0.000000 0.737429
O O9 0.301692 0.890016 0.561321
O O10 0.000000 0.313512 0.019994
O O11 0.810082 0.189919 0.000000
#
# Coordination Sequence:
#
# PCOD9559314 Si02
#       6
#     2  16   8   8   8  16
#     4  12  24  36  80 112 124 168 212 308 358 404
#     4  10  20  39  68  97 128 168 233 298 351 396
#     4  12  28  50  72 101 143 190 242 298 358 439
#     4  12  26  44  68  98 140 188 230 287 348 435
#     4  12  23  44  73 108 138 173 232 300 368 409
#     4  11  23  40  64  99 137 180 226 287 347 417
#
# _framework density 20.539885000000002
#
# number of rings (size 3 to 8) (size 9 to 14) (size 15 to 20)
#    0.000    0.828    3.448    4.552    0.000    1.655 
#   12.414    0.000    0.000    0.000    0.000    0.000 
#    0.000    0.000    0.000    0.000    0.000    0.000 
#
# Total GULP energy -161882.022336 kJ/mol
# GULP energy per Si atom -5582.138701 kJ/mol
# Density = 2.049314 g / cm^3
# Si number density = 20.539885 Si / 1000 Ang^3
#
#
#
# Elastic Constant Matrix: (Units=GPa)
#
#
# Indices 1 2 3 4 5 6 
#
# 1 123.3120 65.0000 21.8278 0.0000 0.0000 0.0000
# 2 65.0000 123.3167 21.8258 0.0000 0.0000 0.0000
# 3 21.8278 21.8258 32.7806 0.0000 0.0000 0.0000
# 4 0.0000 0.0000 0.0000 29.6886 0.0000 0.0000
# 5 0.0000 0.0000 0.0000 0.0000 29.6922 0.0000
# 6 0.0000 0.0000 0.0000 0.0000 0.0000 30.9169
#
#
#
# Elastic Compliance Matrix: (Units=1/GPa)
#
#
# Indices 1 2 3 4 5 6 
#
# 1 0.011714 -0.005434 -0.004182 0.000000 0.000000 0.000000
# 2 -0.005434 0.011714 -0.004180 0.000000 0.000000 0.000000
# 3 -0.004182 -0.004180 0.036074 0.000000 0.000000 0.000000
# 4 0.000000 0.000000 0.000000 0.033683 0.000000 0.000000
# 5 0.000000 0.000000 0.000000 0.000000 0.033679 0.000000
# 6 0.000000 0.000000 0.000000 0.000000 0.000000 0.032345
#
#
# Mechanical properties :
#
#
# Convention : Reuss Voigt Hill
#
# Bulk Modulus (GPa) = 31.33996 55.19073 43.26535
# Shear Modulus (GPa) = 25.32438 29.44324 27.38381
#
# Velocity S-wave (km/s) = 3.51513 3.79022 3.65526
# Velocity P-wave (km/s) = 5.63614 6.78843 6.23894
#
# Compressibility (1/GPa) = 0.03190815
#
# Stress axis : x y z
#
# Youngs Moduli (GPa) = 85.36515 85.37088 27.72092
#
# Poissons Ratio (x) = 0.46395 0.11593
# Poissons Ratio (y) = 0.46391 0.11588
# Poissons Ratio (z) = 0.35699 0.35688
#
# Static dielectric constant tensor:
#      x y z
#    x 1.715970 0.000000 0.000000 
#    y 0.000000 1.716010 0.000000 
#    z 0.000000 0.000000 1.732340 
# 
# From -- ./inp_files/7423.got.cif
#   From: 2010.05.17/outbox.cif.g08.bks.cpg/sg119_4_cif.got.tgz:7423.got - 2010.05.20 11:21:29.
