data_PCOD9559093
_publ_section_title
;
Structure prediction by ZEFSAII (Michael W. Deem and Ramdas Pophale) SiO2 
 PCOD9559093
Probable space group: I -4 M 2
;
_chemical_formula_sum "Si O2"
_cell_formula_units_Z 112
_cell_length_a 15.195041
_cell_length_b 15.195041
_cell_length_c 25.458340
_cell_angle_alpha 90.000000
_cell_angle_beta 90.000000
_cell_angle_gamma 90.000000
_cell_volume 5878.057563
_symmetry_space_group_name_H-M "I -4 M 2"
_symmetry_group_IT_number 119
_symmetry_cell_setting 'tetragonal'
loop_
_space_group_symop_operation_xyz
x,y,z
y,-x,-z
-x,-y,z
-y,x,-z
y,x,-z
-y,-x,-z
-x,y,z
x,-y,z
1/2+x,1/2+y,1/2+z
1/2+y,1/2-x,1/2-z
1/2-x,1/2-y,1/2+z
1/2-y,1/2+x,1/2-z
1/2+y,1/2+x,1/2-z
1/2-y,1/2-x,1/2-z
1/2-x,1/2+y,1/2+z
1/2+x,1/2-y,1/2+z
loop_
_atom_site_type_symbol
_atom_site_label
_atom_site_fract_x
_atom_site_fract_y
_atom_site_fract_z
Si Si1 0.321882 0.399888 0.646453
Si Si2 0.098991 0.375378 0.879620
Si Si3 0.399894 0.606552 0.755726
Si Si4 0.399784 0.302153 0.138253
Si Si5 0.406226 0.331140 0.548681
Si Si6 0.602623 0.704127 0.953325
Si Si7 0.634550 0.900470 0.993408
O O1 0.355448 0.500000 0.636771
O O2 0.217878 0.404941 0.649634
O O3 0.365153 0.363137 0.699056
O O4 0.337385 0.344574 0.594166
O O5 0.196253 0.407043 0.863651
O O6 0.000000 0.412051 0.869165
O O7 0.104745 0.373302 0.943468
O O8 0.500000 0.635956 0.765364
O O9 0.400401 0.500000 0.752376
O O10 0.336574 0.627120 0.804206
O O11 0.500000 0.335687 0.126426
O O12 0.329279 0.342862 0.097520
O O13 0.395723 0.395723 0.500000
O O14 0.500000 0.343565 0.575193
O O15 0.400575 0.236587 0.522277
O O16 0.500000 0.677511 0.949056
O O17 0.601835 0.809467 0.966758
O O18 0.652996 0.652996 0.000000
O O19 0.601330 0.000000 0.978493
#
# Coordination Sequence:
#
# PCOD9559093 Si02
#       7
#    16  16  16  16  16  16  16
#     4  10  19  32  51  77 110 150 196 243 290 345
#     4  10  20  36  57  80 112 152 195 241 291 353
#     4   9  19  36  55  76 109 152 194 238 293 356
#     4  11  23  39  59  84 116 156 199 247 305 361
#     4  11  19  28  47  77 112 148 184 231 288 344
#     4  12  24  38  59  87 116 150 195 248 299 352
#     4  10  21  38  57  79 114 157 192 230 290 361
#
# _framework density 19.053913999999999
#
# number of rings (size 3 to 8) (size 9 to 14) (size 15 to 20)
#    0.000    1.571    2.857    3.000    0.000    4.286 
#    0.000    1.429    0.000    0.000    0.000    4.000 
#    0.000    0.000    0.000    4.714    0.000    0.286 
#
# Total GULP energy -311772.279576 kJ/mol
# GULP energy per Si atom -5567.362135 kJ/mol
# Density = 1.901055 g / cm^3
# Si number density = 19.053914 Si / 1000 Ang^3
#
#
#
# Elastic Constant Matrix: (Units=GPa)
#
#
# Indices 1 2 3 4 5 6 
#
# 1 110.5898 25.1633 31.2390 0.0000 0.0000 0.0000
# 2 25.1633 110.5898 31.2390 0.0000 0.0000 0.0000
# 3 31.2390 31.2390 99.1437 0.0000 0.0000 0.0000
# 4 0.0000 0.0000 0.0000 35.9811 0.0000 0.0000
# 5 0.0000 0.0000 0.0000 0.0000 35.9811 0.0000
# 6 0.0000 0.0000 0.0000 0.0000 0.0000 13.8548
#
#
#
# Elastic Compliance Matrix: (Units=1/GPa)
#
#
# Indices 1 2 3 4 5 6 
#
# 1 0.010161 -0.001545 -0.002715 0.000000 0.000000 0.000000
# 2 -0.001545 0.010161 -0.002715 0.000000 0.000000 0.000000
# 3 -0.002715 -0.002715 0.011797 0.000000 0.000000 0.000000
# 4 0.000000 0.000000 0.000000 0.027792 0.000000 0.000000
# 5 0.000000 0.000000 0.000000 0.000000 0.027792 0.000000
# 6 0.000000 0.000000 0.000000 0.000000 0.000000 0.072177
#
#
# Mechanical properties :
#
#
# Convention : Reuss Voigt Hill
#
# Bulk Modulus (GPa) = 55.03668 55.06733 55.05201
# Shear Modulus (GPa) = 27.79533 32.67551 30.23542
#
# Velocity S-wave (km/s) = 3.82353 4.14562 3.98783
# Velocity P-wave (km/s) = 6.95988 7.20267 7.08232
#
# Compressibility (1/GPa) = 0.01816970
#
# Stress axis : x y z
#
# Youngs Moduli (GPa) = 98.41701 98.41701 84.76648
#
# Poissons Ratio (x) = 0.15207 0.23012
# Poissons Ratio (y) = 0.15207 0.23012
# Poissons Ratio (z) = 0.26717 0.26717
#
# Static dielectric constant tensor:
#      x y z
#    x 1.726750 0.000000 0.000000 
#    y 0.000000 1.726750 0.000000 
#    z 0.000000 0.000000 1.624030 
# 
# From -- ./inp_files/8875.got.cif
#   From: 2010.05.17/outbox.cif.g08.bks.cpg/sg119_5_cif.got.tgz:8875.got - 2010.05.20 11:21:29.
