data_PCOD9559758
_publ_section_title
;
Structure prediction by ZEFSAII (Michael W. Deem and Ramdas Pophale) SiO2 
 PCOD9559758
Probable space group: I -4 C 2
;
_chemical_formula_sum "Si O2"
_cell_formula_units_Z 96
_cell_length_a 19.117067
_cell_length_b 19.117067
_cell_length_c 11.667968
_cell_angle_alpha 90.000000
_cell_angle_beta 90.000000
_cell_angle_gamma 90.000000
_cell_volume 4264.201846
_symmetry_space_group_name_H-M "I -4 C 2"
_symmetry_group_IT_number 120
_symmetry_cell_setting 'tetragonal'
loop_
_space_group_symop_operation_xyz
x,y,z
y,-x,-z
-x,-y,z
-y,x,-z
y,x,1/2-z
-y,-x,1/2-z
-x,y,1/2+z
x,-y,1/2+z
1/2+x,1/2+y,1/2+z
1/2+y,1/2-x,1/2-z
1/2-x,1/2-y,1/2+z
1/2-y,1/2+x,1/2-z
1/2+y,1/2+x,-z
1/2-y,1/2-x,-z
1/2-x,1/2+y,z
1/2+x,1/2-y,z
loop_
_atom_site_type_symbol
_atom_site_label
_atom_site_fract_x
_atom_site_fract_y
_atom_site_fract_z
Si Si1 0.052778 0.171908 0.750000
Si Si2 0.178719 0.590274 0.433132
Si Si3 0.670767 0.212366 0.749995
Si Si4 0.383628 0.006813 0.250001
Si Si5 0.321284 0.090274 0.066862
Si Si6 0.500000 0.298963 0.000000
O O1 0.109940 0.109940 0.750000
O O2 0.097309 0.245543 0.750000
O O3 0.009923 0.166960 0.628056
O O4 0.009923 0.166960 0.871945
O O5 0.107954 0.607954 0.500000
O O6 0.182638 0.660146 0.356690
O O7 0.163382 0.521282 0.359018
O O8 0.251438 0.570385 0.490104
O O9 0.729354 0.270647 0.750000
O O10 0.682634 0.160151 0.643291
O O11 0.437801 0.071816 0.250003
O O12 0.336617 0.021286 0.140986
O O13 0.248563 0.070384 0.009894
O O14 0.392053 0.107948 0.000000
#
# Coordination Sequence:
#
# PCOD9559758 Si02
#       6
#    16  16  16  16  16  16
#     4  11  25  46  73 106 140 178 235 294 355 431
#     4  11  21  34  58  88 126 177 224 278 335 414
#     4  10  22  39  59  93 133 173 221 290 355 413
#     4  10  21  33  46  73 118 172 229 276 316 378
#     4  11  21  34  58  88 126 177 224 278 335 414
#     4  12  24  44  70 100 140 190 234 288 360 416
#
# _framework density 22.513006000000001
#
# number of rings (size 3 to 8) (size 9 to 14) (size 15 to 20)
#    0.000    1.167    3.333    4.000    4.667    2.000 
#    0.000    2.500    0.000    1.500    0.000    0.000 
#    0.000    0.000    0.000    0.000    0.000    0.000 
#
# Total GULP energy -267526.501943 kJ/mol
# GULP energy per Si atom -5573.468790 kJ/mol
# Density = 2.246177 g / cm^3
# Si number density = 22.513006 Si / 1000 Ang^3
#
#
#
# Elastic Constant Matrix: (Units=GPa)
#
#
# Indices 1 2 3 4 5 6 
#
# 1 66.8974 26.6256 34.1151 0.0000 0.0000 0.0000
# 2 26.6256 66.8957 34.1156 0.0000 0.0000 0.0000
# 3 34.1151 34.1156 149.0954 0.0000 0.0000 0.0000
# 4 0.0000 0.0000 0.0000 149.8374 0.0000 0.0000
# 5 0.0000 0.0000 0.0000 0.0000 149.0156 0.0000
# 6 0.0000 0.0000 0.0000 0.0000 0.0000 38.8668
#
#
#
# Elastic Compliance Matrix: (Units=1/GPa)
#
#
# Indices 1 2 3 4 5 6 
#
# 1 0.018833 -0.005998 -0.002937 0.000000 0.000000 0.000000
# 2 -0.005998 0.018834 -0.002937 0.000000 0.000000 0.000000
# 3 -0.002937 -0.002937 0.008051 0.000000 0.000000 0.000000
# 4 0.000000 0.000000 0.000000 0.006674 0.000000 0.000000
# 5 0.000000 0.000000 0.000000 0.000000 0.006711 0.000000
# 6 0.000000 0.000000 0.000000 0.000000 0.000000 0.025729
#
#
# Mechanical properties :
#
#
# Convention : Reuss Voigt Hill
#
# Bulk Modulus (GPa) = 45.50806 52.51122 49.00964
# Shear Modulus (GPa) = 43.14041 80.07943 61.60992
#
# Velocity S-wave (km/s) = 4.38224 5.97055 5.23696
# Velocity P-wave (km/s) = 6.77225 8.42054 7.64097
#
# Compressibility (1/GPa) = 0.02197413
#
# Stress axis : x y z
#
# Youngs Moduli (GPa) = 53.09759 53.09584 124.20588
#
# Poissons Ratio (x) = 0.31848 0.36477
# Poissons Ratio (y) = 0.31849 0.36480
# Poissons Ratio (z) = 0.15594 0.15594
#
# Static dielectric constant tensor:
#      x y z
#    x 1.774200 0.000000 0.000000 
#    y 0.000000 1.774200 0.000000 
#    z 0.000000 0.000000 -5.436310 
# 
# From -- ./inp_files/2758.got.cif
#   From: 2010.05.17/outbox.cif.g08.bks.cpg/sg120_2_cif.got.tgz:2758.got - 2010.05.20 11:28:13.
