data_PCOD9559589
_publ_section_title
;
Structure prediction by ZEFSAII (Michael W. Deem and Ramdas Pophale) SiO2 
 PCOD9559589
Probable space group: I -4 C 2
;
_chemical_formula_sum "Si O2"
_cell_formula_units_Z 108
_cell_length_a 21.405689
_cell_length_b 21.405689
_cell_length_c 13.580253
_cell_angle_alpha 90.000000
_cell_angle_beta 90.000000
_cell_angle_gamma 90.000000
_cell_volume 6222.519748
_symmetry_space_group_name_H-M "I -4 C 2"
_symmetry_group_IT_number 120
_symmetry_cell_setting 'tetragonal'
loop_
_space_group_symop_operation_xyz
x,y,z
y,-x,-z
-x,-y,z
-y,x,-z
y,x,1/2-z
-y,-x,1/2-z
-x,y,1/2+z
x,-y,1/2+z
1/2+x,1/2+y,1/2+z
1/2+y,1/2-x,1/2-z
1/2-x,1/2-y,1/2+z
1/2-y,1/2+x,1/2-z
1/2+y,1/2+x,-z
1/2-y,1/2-x,-z
1/2-x,1/2+y,z
1/2+x,1/2-y,z
loop_
_atom_site_type_symbol
_atom_site_label
_atom_site_fract_x
_atom_site_fract_y
_atom_site_fract_z
Si Si1 0.853914 0.952787 0.055307
Si Si2 0.723284 0.776717 0.000000
Si Si3 0.267800 0.462927 0.733933
Si Si4 0.500000 0.500000 0.250000
Si Si5 0.836775 0.838963 0.909205
Si Si6 0.530575 0.389118 0.127707
Si Si7 0.324289 0.219639 0.781922
Si Si8 0.601689 0.253322 0.764334
O O1 0.793874 0.963609 0.122021
O O2 0.906421 0.929650 0.130389
O O3 0.850185 0.892738 0.985566
O O4 0.874075 0.008182 0.982770
O O5 0.792878 0.789337 0.963913
O O6 0.682220 0.787765 0.901190
O O7 0.325723 0.465315 0.810653
O O8 0.234881 0.395689 0.745883
O O9 0.233523 0.529794 0.748335
O O10 0.487755 0.440505 0.178658
O O11 0.795678 0.873962 0.826295
O O12 0.891099 0.800340 0.856747
O O13 0.275982 0.275982 0.750000
O O14 0.299635 0.155314 0.732871
#
# Coordination Sequence:
#
# PCOD9559589 Si02
#       8
#    16   8  16   4  16  16  16  16
#     4  12  22  37  52  76 110 158 192 237 280 335
#     4  10  18  34  58  84 108 151 191 232 294 352
#     4  12  24  38  57  86 114 145 204 246 286 351
#     4  12  24  38  44  68 114 164 192 230 272 328
#     4  10  19  34  59  79 111 151 193 232 293 343
#     4  12  25  36  50  75 113 158 200 232 277 336
#     4  11  21  39  62  84 117 152 192 247 297 346
#     4  10  21  39  57  84 114 153 187 245 294 345
#
# _framework density 17.356313
#
# number of rings (size 3 to 8) (size 9 to 14) (size 15 to 20)
#    0.000    0.889    7.407    2.667    2.074    0.000 
#    0.000    0.000    0.000    0.444    0.000    0.000 
#    0.000    1.481    0.000    0.000    0.000    0.000 
#
# Total GULP energy -300854.312988 kJ/mol
# GULP energy per Si atom -5571.376166 kJ/mol
# Density = 1.731681 g / cm^3
# Si number density = 17.356313 Si / 1000 Ang^3
#
#
#
# Elastic Constant Matrix: (Units=GPa)
#
#
# Indices 1 2 3 4 5 6 
#
# 1 89.1754 49.3022 14.0213 0.0000 0.0000 0.0000
# 2 49.3022 89.1748 14.0209 0.0000 0.0000 0.0000
# 3 14.0213 14.0209 56.9467 0.0000 0.0000 0.0000
# 4 0.0000 0.0000 0.0000 14.8798 0.0000 0.0000
# 5 0.0000 0.0000 0.0000 0.0000 14.8809 0.0000
# 6 0.0000 0.0000 0.0000 0.0000 0.0000 19.8464
#
#
#
# Elastic Compliance Matrix: (Units=1/GPa)
#
#
# Indices 1 2 3 4 5 6 
#
# 1 0.016340 -0.008740 -0.001871 0.000000 0.000000 0.000000
# 2 -0.008740 0.016340 -0.001871 0.000000 0.000000 0.000000
# 3 -0.001871 -0.001871 0.018482 0.000000 0.000000 0.000000
# 4 0.000000 0.000000 0.000000 0.067205 0.000000 0.000000
# 5 0.000000 0.000000 0.000000 0.000000 0.067200 0.000000
# 6 0.000000 0.000000 0.000000 0.000000 0.000000 0.050387
#
#
# Mechanical properties :
#
#
# Convention : Reuss Voigt Hill
#
# Bulk Modulus (GPa) = 38.17199 43.33173 40.75186
# Shear Modulus (GPa) = 18.54244 20.45156 19.49700
#
# Velocity S-wave (km/s) = 3.27209 3.43641 3.35526
# Velocity P-wave (km/s) = 6.02630 6.38478 6.20813
#
# Compressibility (1/GPa) = 0.02619722
#
# Stress axis : x y z
#
# Youngs Moduli (GPa) = 61.19958 61.19929 54.10733
#
# Poissons Ratio (x) = 0.53486 0.10126
# Poissons Ratio (y) = 0.53486 0.10125
# Poissons Ratio (z) = 0.11453 0.11452
#
# Static dielectric constant tensor:
#      x y z
#    x 1.760470 0.000000 0.000000 
#    y 0.000000 1.760490 0.000000 
#    z 0.000000 0.000000 1.704760 
# 
# From -- ./inp_files/3698.got.cif
#   From: 2010.05.17/outbox.cif.g08.bks.cpg/sg120_2_cif.got.tgz:3698.got - 2010.05.20 11:28:13.
