data_PCOD9559514
_publ_section_title
;
Structure prediction by ZEFSAII (Michael W. Deem and Ramdas Pophale) SiO2 
 PCOD9559514
Probable space group: I -4 M 2
;
_chemical_formula_sum "Si O2"
_cell_formula_units_Z 24
_cell_length_a 13.446856
_cell_length_b 13.446856
_cell_length_c 5.591038
_cell_angle_alpha 90.000000
_cell_angle_beta 90.000000
_cell_angle_gamma 90.000000
_cell_volume 1010.959953
_symmetry_space_group_name_H-M "I -4 M 2"
_symmetry_group_IT_number 119
_symmetry_cell_setting 'tetragonal'
loop_
_space_group_symop_operation_xyz
x,y,z
y,-x,-z
-x,-y,z
-y,x,-z
y,x,-z
-y,-x,-z
-x,y,z
x,-y,z
1/2+x,1/2+y,1/2+z
1/2+y,1/2-x,1/2-z
1/2-x,1/2-y,1/2+z
1/2-y,1/2+x,1/2-z
1/2+y,1/2+x,1/2-z
1/2-y,1/2-x,1/2-z
1/2-x,1/2+y,1/2+z
1/2+x,1/2-y,1/2+z
loop_
_atom_site_type_symbol
_atom_site_label
_atom_site_fract_x
_atom_site_fract_y
_atom_site_fract_z
Si Si1 0.618889 0.881111 0.750000
Si Si2 0.197896 0.197896 0.000000
Si Si3 0.883598 0.883598 0.500000
O O1 0.500000 0.865475 0.776382
O O2 0.662700 0.812779 0.535435
O O3 0.160059 0.150142 0.245222
O O4 0.000000 0.864453 0.480648
#
# Coordination Sequence:
#
# PCOD9559514 Si02
#       3
#     8   8   8
#     4  11  26  50  80 115 156 204 258 317 384 458
#     4  12  25  47  77 109 153 204 259 316 381 456
#     4  11  23  42  73 114 157 201 253 316 385 455
#
# _framework density 23.739809999999999
#
# number of rings (size 3 to 8) (size 9 to 14) (size 15 to 20)
#    0.000    0.667    0.000    8.000    0.000    2.667 
#    0.000   23.333    0.000   49.000    0.000    0.000 
#    0.000    0.000    0.000    0.000    0.000    0.000 
#
# Total GULP energy -67007.779136 kJ/mol
# GULP energy per Si atom -5583.981595 kJ/mol
# Density = 2.368578 g / cm^3
# Si number density = 23.739810 Si / 1000 Ang^3
#
#
#
# Elastic Constant Matrix: (Units=GPa)
#
#
# Indices 1 2 3 4 5 6 
#
# 1 245.9085 71.2817 115.1254 0.0000 0.0000 0.0000
# 2 71.2817 245.9085 115.1254 0.0000 0.0000 0.0000
# 3 115.1254 115.1254 262.5431 0.0000 0.0000 0.0000
# 4 0.0000 0.0000 0.0000 48.5229 0.0000 0.0000
# 5 0.0000 0.0000 0.0000 0.0000 48.5229 0.0000
# 6 0.0000 0.0000 0.0000 0.0000 0.0000 37.4062
#
#
#
# Elastic Compliance Matrix: (Units=1/GPa)
#
#
# Indices 1 2 3 4 5 6 
#
# 1 0.005176 -0.000551 -0.002028 0.000000 0.000000 0.000000
# 2 -0.000551 0.005176 -0.002028 0.000000 0.000000 0.000000
# 3 -0.002028 -0.002028 0.005587 0.000000 0.000000 0.000000
# 4 0.000000 0.000000 0.000000 0.020609 0.000000 0.000000
# 5 0.000000 0.000000 0.000000 0.000000 0.020609 0.000000
# 6 0.000000 0.000000 0.000000 0.000000 0.000000 0.026734
#
#
# Mechanical properties :
#
#
# Convention : Reuss Voigt Hill
#
# Bulk Modulus (GPa) = 148.69597 150.82500 149.76049
# Shear Modulus (GPa) = 52.44096 57.07889 54.75992
#
# Velocity S-wave (km/s) = 4.70509 4.90874 4.80799
# Velocity P-wave (km/s) = 9.60671 9.78765 9.69760
#
# Compressibility (1/GPa) = 0.00672513
#
# Stress axis : x y z
#
# Youngs Moduli (GPa) = 193.21225 193.21225 178.97271
#
# Poissons Ratio (x) = 0.10643 0.36295
# Poissons Ratio (y) = 0.10643 0.36295
# Poissons Ratio (z) = 0.39183 0.39183
#
# Static dielectric constant tensor:
#      x y z
#    x 1.997260 0.000000 0.000000 
#    y 0.000000 1.997260 0.000000 
#    z 0.000000 0.000000 1.807800 
# 
# From -- ./inp_files/98.got.cif
#   From: 2010.05.17/outbox.cif.g08.bks.cpg/sg119_1_cif.got.tgz:98.got - 2010.05.20 11:21:29.
