data_PCOD9559850
_publ_section_title
;
Structure prediction by ZEFSAII (Michael W. Deem and Ramdas Pophale) SiO2 
 PCOD9559850
Probable space group: I -4 C 2
;
_chemical_formula_sum "Si O2"
_cell_formula_units_Z 96
_cell_length_a 23.374721
_cell_length_b 23.374721
_cell_length_c 9.128017
_cell_angle_alpha 90.000000
_cell_angle_beta 90.000000
_cell_angle_gamma 90.000000
_cell_volume 4987.343855
_symmetry_space_group_name_H-M "I -4 C 2"
_symmetry_group_IT_number 120
_symmetry_cell_setting 'tetragonal'
loop_
_space_group_symop_operation_xyz
x,y,z
y,-x,-z
-x,-y,z
-y,x,-z
y,x,1/2-z
-y,-x,1/2-z
-x,y,1/2+z
x,-y,1/2+z
1/2+x,1/2+y,1/2+z
1/2+y,1/2-x,1/2-z
1/2-x,1/2-y,1/2+z
1/2-y,1/2+x,1/2-z
1/2+y,1/2+x,-z
1/2-y,1/2-x,-z
1/2-x,1/2+y,z
1/2+x,1/2-y,z
loop_
_atom_site_type_symbol
_atom_site_label
_atom_site_fract_x
_atom_site_fract_y
_atom_site_fract_z
Si Si1 0.575635 0.636464 0.974874
Si Si2 0.867378 0.780217 0.681183
Si Si3 0.462888 0.348863 0.642171
Si Si4 0.556519 0.193783 0.841107
Si Si5 0.556854 0.215283 0.172164
Si Si6 0.655076 0.157865 0.334132
O O1 0.548677 0.640353 0.813503
O O2 0.620714 0.585247 0.957571
O O3 0.606060 0.694565 0.031925
O O4 0.524268 0.628483 0.089677
O O5 0.830783 0.830783 0.750000
O O6 0.916925 0.755544 0.788163
O O7 0.829139 0.723264 0.661153
O O8 0.457112 0.280721 0.631547
O O9 0.493646 0.191715 0.774393
O O10 0.600860 0.151036 0.764095
O O11 0.558286 0.186066 0.013772
O O12 0.615683 0.205398 0.260037
O O13 0.641393 0.141393 0.500000
#
# Coordination Sequence:
#
# PCOD9559850 Si02
#       6
#    16  16  16  16  16  16
#     4  11  24  41  61  90 121 163 224 265 334 385
#     4  10  22  41  61  94 128 166 213 267 329 387
#     4  11  24  39  63  89 120 169 213 277 322 389
#     4  10  23  36  63  94 119 173 214 257 323 379
#     4  12  20  41  65  88 131 165 219 262 323 399
#     4  10  22  40  61  95 131 167 211 267 327 388
#
# _framework density 19.248723999999999
#
# number of rings (size 3 to 8) (size 9 to 14) (size 15 to 20)
#    1.000    0.333    1.667    4.500    2.333    0.333 
#    9.000    1.667    0.000    0.500    0.000    3.500 
#    0.000    0.000    0.000    0.000    0.000    0.000 
#
# Total GULP energy -267541.507361 kJ/mol
# GULP energy per Si atom -5573.781403 kJ/mol
# Density = 1.920491 g / cm^3
# Si number density = 19.248724 Si / 1000 Ang^3
#
#
#
# Elastic Constant Matrix: (Units=GPa)
#
#
# Indices 1 2 3 4 5 6 
#
# 1 50.4826 16.7687 27.2923 0.0000 0.0000 0.0000
# 2 16.7687 50.4826 27.2923 0.0000 0.0000 0.0000
# 3 27.2923 27.2923 120.5864 0.0000 0.0000 0.0000
# 4 0.0000 0.0000 0.0000 32.9535 0.0000 0.0000
# 5 0.0000 0.0000 0.0000 0.0000 32.9535 0.0000
# 6 0.0000 0.0000 0.0000 0.0000 0.0000 16.4278
#
#
#
# Elastic Compliance Matrix: (Units=1/GPa)
#
#
# Indices 1 2 3 4 5 6 
#
# 1 0.023939 -0.005723 -0.004123 0.000000 0.000000 0.000000
# 2 -0.005723 0.023939 -0.004123 0.000000 0.000000 0.000000
# 3 -0.004123 -0.004123 0.010159 0.000000 0.000000 0.000000
# 4 0.000000 0.000000 0.000000 0.030346 0.000000 0.000000
# 5 0.000000 0.000000 0.000000 0.000000 0.030346 0.000000
# 6 0.000000 0.000000 0.000000 0.000000 0.000000 0.060872
#
#
# Mechanical properties :
#
#
# Convention : Reuss Voigt Hill
#
# Bulk Modulus (GPa) = 33.22303 40.47315 36.84809
# Shear Modulus (GPa) = 22.98109 26.48018 24.73064
#
# Velocity S-wave (km/s) = 3.45904 3.71305 3.58829
# Velocity P-wave (km/s) = 5.76633 6.28127 6.02930
#
# Compressibility (1/GPa) = 0.03009960
#
# Stress axis : x y z
#
# Youngs Moduli (GPa) = 41.77352 41.77352 98.43451
#
# Poissons Ratio (x) = 0.23906 0.40583
# Poissons Ratio (y) = 0.23906 0.40583
# Poissons Ratio (z) = 0.17222 0.17222
#
# Static dielectric constant tensor:
#      x y z
#    x 1.676960 0.000000 0.000000 
#    y 0.000000 1.676960 0.000000 
#    z 0.000000 0.000000 1.681630 
# 
# From -- ./inp_files/1547.got.cif
#   From: 2010.05.17/outbox.cif.g08.bks.cpg/sg120_1_cif.got.tgz:1547.got - 2010.05.20 11:28:13.
