data_PCOD9559951
_publ_section_title
;
Structure prediction by ZEFSAII (Michael W. Deem and Ramdas Pophale) SiO2 
 PCOD9559951
Probable space group: I -4 C 2
;
_chemical_formula_sum "Si O2"
_cell_formula_units_Z 104
_cell_length_a 20.743992
_cell_length_b 20.743992
_cell_length_c 14.407153
_cell_angle_alpha 90.000000
_cell_angle_beta 90.000000
_cell_angle_gamma 90.000000
_cell_volume 6199.588169
_symmetry_space_group_name_H-M "I -4 C 2"
_symmetry_group_IT_number 120
_symmetry_cell_setting 'tetragonal'
loop_
_space_group_symop_operation_xyz
x,y,z
y,-x,-z
-x,-y,z
-y,x,-z
y,x,1/2-z
-y,-x,1/2-z
-x,y,1/2+z
x,-y,1/2+z
1/2+x,1/2+y,1/2+z
1/2+y,1/2-x,1/2-z
1/2-x,1/2-y,1/2+z
1/2-y,1/2+x,1/2-z
1/2+y,1/2+x,-z
1/2-y,1/2-x,-z
1/2-x,1/2+y,z
1/2+x,1/2-y,z
loop_
_atom_site_type_symbol
_atom_site_label
_atom_site_fract_x
_atom_site_fract_y
_atom_site_fract_z
Si Si1 0.229521 0.911905 0.591081
Si Si2 0.260464 0.635442 0.289307
Si Si3 0.716345 0.216345 0.500000
Si Si4 0.359672 0.415599 0.932517
Si Si5 0.002933 0.103463 0.225833
Si Si6 0.045141 0.198500 0.882810
Si Si7 0.182703 0.751524 0.336743
O O1 0.249557 0.907081 0.699043
O O2 0.268332 0.855284 0.538647
O O3 0.152370 0.897873 0.578209
O O4 0.237157 0.986984 0.568288
O O5 0.311837 0.688164 0.250000
O O6 0.293341 0.601016 0.376776
O O7 0.199153 0.677496 0.315515
O O8 0.769428 0.228990 0.420351
O O9 0.383001 0.481358 0.881488
O O10 0.352096 0.430383 0.040307
O O11 0.950123 0.049878 0.250000
O O12 0.982806 0.162431 0.291526
O O13 0.072837 0.072837 0.250000
O O14 0.108349 0.238149 0.857695
O O15 0.204348 0.795653 0.250000
#
# Coordination Sequence:
#
# PCOD9559951 Si02
#       7
#    16  16   8  16  16  16  16
#     4  11  21  38  57  79 114 159 190 239 299 358
#     4   9  16  36  59  73 104 151 189 237 309 339
#     4  12  20  38  62  82 110 158 198 234 318 350
#     4  11  20  37  56  75 108 159 201 236 281 342
#     4  11  23  36  48  69 113 167 202 227 271 337
#     4  12  24  33  55  86 114 144 202 247 290 338
#     4  11  20  35  60  89 111 145 200 263 287 338
#
# _framework density 16.775307999999999
#
# number of rings (size 3 to 8) (size 9 to 14) (size 15 to 20)
#    0.000    1.077    9.231    0.923    2.154    1.231 
#    0.000    1.538    0.000    0.000    0.000    0.000 
#    0.000   13.538    0.000    0.000    0.000    0.000 
#
# Total GULP energy -289566.129698 kJ/mol
# GULP energy per Si atom -5568.579417 kJ/mol
# Density = 1.673713 g / cm^3
# Si number density = 16.775308 Si / 1000 Ang^3
#
#
#
# Elastic Constant Matrix: (Units=GPa)
#
#
# Indices 1 2 3 4 5 6 
#
# 1 81.7304 44.5500 16.3646 0.0000 0.0000 0.0000
# 2 44.5500 81.7299 16.3649 0.0000 0.0000 0.0000
# 3 16.3646 16.3649 53.2447 0.0000 0.0000 0.0000
# 4 0.0000 0.0000 0.0000 21.1421 0.0000 0.0000
# 5 0.0000 0.0000 0.0000 0.0000 21.1421 0.0000
# 6 0.0000 0.0000 0.0000 0.0000 0.0000 30.0445
#
#
#
# Elastic Compliance Matrix: (Units=1/GPa)
#
#
# Indices 1 2 3 4 5 6 
#
# 1 0.017750 -0.009146 -0.002644 0.000000 0.000000 0.000000
# 2 -0.009146 0.017750 -0.002645 0.000000 0.000000 0.000000
# 3 -0.002644 -0.002645 0.020407 0.000000 0.000000 0.000000
# 4 0.000000 0.000000 0.000000 0.047299 0.000000 0.000000
# 5 0.000000 0.000000 0.000000 0.000000 0.047299 0.000000
# 6 0.000000 0.000000 0.000000 0.000000 0.000000 0.033284
#
#
# Mechanical properties :
#
#
# Convention : Reuss Voigt Hill
#
# Bulk Modulus (GPa) = 36.98595 41.25155 39.11875
# Shear Modulus (GPa) = 22.55591 23.76078 23.15835
#
# Velocity S-wave (km/s) = 3.67084 3.76761 3.71954
# Velocity P-wave (km/s) = 6.32949 6.60080 6.46657
#
# Compressibility (1/GPa) = 0.02703729
#
# Stress axis : x y z
#
# Youngs Moduli (GPa) = 56.33762 56.33707 49.00330
#
# Poissons Ratio (x) = 0.51525 0.12958
# Poissons Ratio (y) = 0.51526 0.12960
# Poissons Ratio (z) = 0.14898 0.14899
#
# Static dielectric constant tensor:
#      x y z
#    x 1.592940 0.000000 0.000000 
#    y 0.000000 1.592940 0.000000 
#    z 0.000000 0.000000 1.664780 
# 
# From -- ./inp_files/3666.got.cif
#   From: 2010.05.17/outbox.cif.g08.bks.cpg/sg120_2_cif.got.tgz:3666.got - 2010.05.20 11:28:13.
