data_PCOD9559672
_publ_section_title
;
Structure prediction by ZEFSAII (Michael W. Deem and Ramdas Pophale) SiO2 
 PCOD9559672
Probable space group: I -4 C 2
;
_chemical_formula_sum "Si O2"
_cell_formula_units_Z 96
_cell_length_a 14.823457
_cell_length_b 14.823457
_cell_length_c 23.130266
_cell_angle_alpha 90.000000
_cell_angle_beta 90.000000
_cell_angle_gamma 90.000000
_cell_volume 5082.526164
_symmetry_space_group_name_H-M "I -4 C 2"
_symmetry_group_IT_number 120
_symmetry_cell_setting 'tetragonal'
loop_
_space_group_symop_operation_xyz
x,y,z
y,-x,-z
-x,-y,z
-y,x,-z
y,x,1/2-z
-y,-x,1/2-z
-x,y,1/2+z
x,-y,1/2+z
1/2+x,1/2+y,1/2+z
1/2+y,1/2-x,1/2-z
1/2-x,1/2-y,1/2+z
1/2-y,1/2+x,1/2-z
1/2+y,1/2+x,-z
1/2-y,1/2-x,-z
1/2-x,1/2+y,z
1/2+x,1/2-y,z
loop_
_atom_site_type_symbol
_atom_site_label
_atom_site_fract_x
_atom_site_fract_y
_atom_site_fract_z
Si Si1 0.088205 0.462167 0.894102
Si Si2 0.110608 0.098654 0.991626
Si Si3 0.387255 0.152540 0.195344
Si Si4 0.672615 0.678890 0.370770
Si Si5 0.029821 0.703306 0.318142
Si Si6 0.152407 0.267255 0.058373
O O1 0.110512 0.531381 0.842578
O O2 0.054408 0.367380 0.868507
O O3 0.181636 0.440068 0.925823
O O4 0.000000 0.500000 0.926961
O O5 0.151668 0.122074 0.928871
O O6 0.148514 0.163377 0.041357
O O7 0.004451 0.121192 0.990805
O O8 0.363728 0.250088 0.168982
O O9 0.421707 0.167294 0.260231
O O10 0.306895 0.077904 0.191722
O O11 0.579799 0.704615 0.337401
O O12 0.715389 0.773055 0.393176
O O13 0.184745 0.315256 0.000000
#
# Coordination Sequence:
#
# PCOD9559672 Si02
#       6
#    16  16  16  16  16  16
#     4   9  18  31  53  81 111 147 187 231 294 351
#     4  10  21  38  60  79 110 155 200 244 291 352
#     4  11  19  34  58  82 116 155 187 242 290 354
#     4  10  22  35  56  87 113 149 199 244 289 353
#     4  10  20  34  55  84 117 150 193 234 294 358
#     4   9  19  36  52  78 115 142 187 246 291 346
#
# _framework density 18.888245999999999
#
# number of rings (size 3 to 8) (size 9 to 14) (size 15 to 20)
#    0.000    2.167    1.667    1.500    2.333    0.333 
#    0.000    0.000    0.000    0.000    0.000    4.667 
#    0.000    0.000    0.000    0.000    0.000    0.000 
#
# Total GULP energy -267347.504273 kJ/mol
# GULP energy per Si atom -5569.739672 kJ/mol
# Density = 1.884526 g / cm^3
# Si number density = 18.888246 Si / 1000 Ang^3
#
#
#
# Elastic Constant Matrix: (Units=GPa)
#
#
# Indices 1 2 3 4 5 6 
#
# 1 29.6335 32.0083 4.2949 0.0000 0.0000 0.0000
# 2 32.0083 29.6351 4.2936 0.0000 0.0000 0.0000
# 3 4.2949 4.2936 19.7485 0.0000 0.0000 0.0000
# 4 0.0000 0.0000 0.0000 11.2233 0.0000 0.0000
# 5 0.0000 0.0000 0.0000 0.0000 11.2206 0.0000
# 6 0.0000 0.0000 0.0000 0.0000 0.0000 23.9077
#
#
#
# Elastic Compliance Matrix: (Units=1/GPa)
#
#
# Indices 1 2 3 4 5 6 
#
# 1 -0.202254 0.218976 -0.003622 0.000000 0.000000 0.000000
# 2 0.218976 -0.202239 -0.003654 0.000000 0.000000 0.000000
# 3 -0.003622 -0.003654 0.052219 0.000000 0.000000 0.000000
# 4 0.000000 0.000000 0.000000 0.089100 0.000000 0.000000
# 5 0.000000 0.000000 0.000000 0.000000 0.089121 0.000000
# 6 0.000000 0.000000 0.000000 0.000000 0.000000 0.041827
#
#
# Mechanical properties :
#
#
# Convention : Reuss Voigt Hill
#
# Bulk Modulus (GPa) = 14.05946 17.80121 15.93033
# Shear Modulus (GPa) = -9.39999 11.83169 1.21585
#
# Velocity S-wave (km/s) = -2.23326 2.50552 0.80318
# Velocity P-wave (km/s) = 0.89986 4.22080 3.05163
#
# Compressibility (1/GPa) = 0.07112648
#
# Stress axis : x y z
#
# Youngs Moduli (GPa) = -4.94429 -4.94465 19.15019
#
# Poissons Ratio (x) = 1.08276 0.06936
# Poissons Ratio (y) = 1.08268 0.06997
# Poissons Ratio (z) = -0.01791 -0.01807
#
# Static dielectric constant tensor:
#      x y z
#    x 1.698580 0.000000 0.000000 
#    y 0.000000 1.698580 0.000000 
#    z 0.000000 0.000000 1.648720 
# 
# From -- ./inp_files/5327.got.cif
#   From: 2010.05.17/outbox.cif.g08.bks.cpg/sg120_3_cif.got.tgz:5327.got - 2010.05.20 11:28:13.
