data_PCOD9559760
_publ_section_title
;
Structure prediction by ZEFSAII (Michael W. Deem and Ramdas Pophale) SiO2 
 PCOD9559760
Probable space group: I -4 C 2
;
_chemical_formula_sum "Si O2"
_cell_formula_units_Z 112
_cell_length_a 16.733303
_cell_length_b 16.733303
_cell_length_c 21.842881
_cell_angle_alpha 90.000000
_cell_angle_beta 90.000000
_cell_angle_gamma 90.000000
_cell_volume 6116.081586
_symmetry_space_group_name_H-M "I -4 C 2"
_symmetry_group_IT_number 120
_symmetry_cell_setting 'tetragonal'
loop_
_space_group_symop_operation_xyz
x,y,z
y,-x,-z
-x,-y,z
-y,x,-z
y,x,1/2-z
-y,-x,1/2-z
-x,y,1/2+z
x,-y,1/2+z
1/2+x,1/2+y,1/2+z
1/2+y,1/2-x,1/2-z
1/2-x,1/2-y,1/2+z
1/2-y,1/2+x,1/2-z
1/2+y,1/2+x,-z
1/2-y,1/2-x,-z
1/2-x,1/2+y,z
1/2+x,1/2-y,z
loop_
_atom_site_type_symbol
_atom_site_label
_atom_site_fract_x
_atom_site_fract_y
_atom_site_fract_z
Si Si1 0.424764 0.900645 0.260494
Si Si2 0.011404 0.125494 0.211671
Si Si3 0.210711 0.295115 0.802206
Si Si4 0.639347 0.334115 0.114355
Si Si5 0.255001 0.464853 0.678121
Si Si6 0.907955 0.097015 0.490586
Si Si7 0.153054 0.117906 0.643774
O O1 0.507945 0.905373 0.221910
O O2 0.348975 0.859437 0.227194
O O3 0.450074 0.838596 0.313382
O O4 0.058243 0.058243 0.250000
O O5 0.059800 0.136678 0.148864
O O6 0.022572 0.204315 0.254252
O O7 0.922465 0.106068 0.188726
O O8 0.277516 0.277516 0.750000
O O9 0.247199 0.341885 0.859518
O O10 0.185618 0.208164 0.826520
O O11 0.707893 0.390544 0.142309
O O12 0.629234 0.347394 0.042982
O O13 0.287468 0.542333 0.643454
O O14 0.873230 0.119129 0.424307
O O15 0.004359 0.107061 0.491557
#
# Coordination Sequence:
#
# PCOD9559760 Si02
#       7
#    16  16  16  16  16  16  16
#     4  11  23  40  61  88 126 167 204 246 320 392
#     4  10  21  34  57  93 126 159 197 249 329 390
#     4  12  23  39  63  95 126 155 206 273 331 375
#     4  11  21  38  61  85 123 163 203 257 313 371
#     4  11  20  36  58  89 124 154 197 260 313 372
#     4  11  23  40  59  85 125 174 212 243 300 384
#     4  12  24  37  59  90 125 166 208 257 308 392
#
# _framework density 18.312377000000001
#
# number of rings (size 3 to 8) (size 9 to 14) (size 15 to 20)
#    0.000    0.857    7.143    1.714    0.000    4.571 
#    0.000    0.000    0.000    0.000    0.000    0.000 
#    0.000    0.000    0.000    0.000    0.000    0.000 
#
# Total GULP energy -312416.133827 kJ/mol
# GULP energy per Si atom -5578.859533 kJ/mol
# Density = 1.827070 g / cm^3
# Si number density = 18.312377 Si / 1000 Ang^3
#
#
#
# Elastic Constant Matrix: (Units=GPa)
#
#
# Indices 1 2 3 4 5 6 
#
# 1 75.2048 11.5429 18.6635 0.0000 0.0000 0.0000
# 2 11.5429 75.2048 18.6635 0.0000 0.0000 0.0000
# 3 18.6635 18.6635 112.6916 0.0000 0.0000 0.0000
# 4 0.0000 0.0000 0.0000 23.7445 0.0000 0.0000
# 5 0.0000 0.0000 0.0000 0.0000 23.7445 0.0000
# 6 0.0000 0.0000 0.0000 0.0000 0.0000 29.5501
#
#
#
# Elastic Compliance Matrix: (Units=1/GPa)
#
#
# Indices 1 2 3 4 5 6 
#
# 1 0.014060 -0.001648 -0.002056 0.000000 0.000000 0.000000
# 2 -0.001648 0.014060 -0.002056 0.000000 0.000000 0.000000
# 3 -0.002056 -0.002056 0.009555 0.000000 0.000000 0.000000
# 4 0.000000 0.000000 0.000000 0.042115 0.000000 0.000000
# 5 0.000000 0.000000 0.000000 0.000000 0.042115 0.000000
# 6 0.000000 0.000000 0.000000 0.000000 0.000000 0.033841
#
#
# Mechanical properties :
#
#
# Convention : Reuss Voigt Hill
#
# Bulk Modulus (GPa) = 38.23143 40.09343 39.16243
# Shear Modulus (GPa) = 28.41182 29.68989 29.05086
#
# Velocity S-wave (km/s) = 3.94319 4.03091 3.98729
# Velocity P-wave (km/s) = 6.45402 6.60348 6.52918
#
# Compressibility (1/GPa) = 0.02615649
#
# Stress axis : x y z
#
# Youngs Moduli (GPa) = 71.12321 71.12321 104.66082
#
# Poissons Ratio (x) = 0.11720 0.21515
# Poissons Ratio (y) = 0.11720 0.21515
# Poissons Ratio (z) = 0.14620 0.14620
#
# Static dielectric constant tensor:
#      x y z
#    x 1.682020 0.000000 0.000000 
#    y 0.000000 1.682020 0.000000 
#    z 0.000000 0.000000 1.599100 
# 
# From -- ./inp_files/5502.got.cif
#   From: 2010.05.17/outbox.cif.g08.bks.cpg/sg120_3_cif.got.tgz:5502.got - 2010.05.20 11:28:13.
