data_PCOD9559521
_publ_section_title
;
Structure prediction by ZEFSAII (Michael W. Deem and Ramdas Pophale) SiO2 
 PCOD9559521
Probable space group: I -4 M 2
;
_chemical_formula_sum "Si O2"
_cell_formula_units_Z 48
_cell_length_a 7.580280
_cell_length_b 7.580280
_cell_length_c 39.450982
_cell_angle_alpha 90.000000
_cell_angle_beta 90.000000
_cell_angle_gamma 90.000000
_cell_volume 2266.878867
_symmetry_space_group_name_H-M "I -4 M 2"
_symmetry_group_IT_number 119
_symmetry_cell_setting 'tetragonal'
loop_
_space_group_symop_operation_xyz
x,y,z
y,-x,-z
-x,-y,z
-y,x,-z
y,x,-z
-y,-x,-z
-x,y,z
x,-y,z
1/2+x,1/2+y,1/2+z
1/2+y,1/2-x,1/2-z
1/2-x,1/2-y,1/2+z
1/2-y,1/2+x,1/2-z
1/2+y,1/2+x,1/2-z
1/2-y,1/2-x,1/2-z
1/2-x,1/2+y,1/2+z
1/2+x,1/2-y,1/2+z
loop_
_atom_site_type_symbol
_atom_site_label
_atom_site_fract_x
_atom_site_fract_y
_atom_site_fract_z
Si Si1 0.294257 0.000000 0.009562
Si Si2 0.785998 0.794405 0.638431
Si Si3 0.500000 0.300650 0.415535
Si Si4 0.291181 0.295966 0.211394
O O1 0.309339 0.000000 0.050322
O O2 0.500000 0.000000 0.996179
O O3 0.173321 0.173321 0.000000
O O4 0.728310 0.669281 0.608262
O O5 0.722658 0.722405 0.675495
O O6 0.000000 0.792623 0.638735
O O7 0.732773 0.000000 0.634501
O O8 0.500000 0.500000 0.427830
O O9 0.500000 0.274149 0.209141
O O10 0.243110 0.500000 0.209213
O O11 0.252669 0.247332 0.250000
#
# Coordination Sequence:
#
# PCOD9559521 Si02
#       4
#     8  16   8  16
#     4  11  25  50  77 111 152 189 237 292 357 435
#     4   9  20  39  60  87 123 167 222 274 332 405
#     4  12  24  41  67  98 137 175 214 283 343 404
#     4   9  19  34  51  75 111 154 207 268 324 389
#
# _framework density 21.174486000000002
#
# number of rings (size 3 to 8) (size 9 to 14) (size 15 to 20)
#    0.000    2.167    1.667    3.500    2.333    4.333 
#    0.000    3.333    0.000    0.000    0.000    0.000 
#    0.000    0.000    0.000    0.000    0.000    0.000 
#
# Total GULP energy -133620.060315 kJ/mol
# GULP energy per Si atom -5567.502513 kJ/mol
# Density = 2.112629 g / cm^3
# Si number density = 21.174486 Si / 1000 Ang^3
#
#
#
# Elastic Constant Matrix: (Units=GPa)
#
#
# Indices 1 2 3 4 5 6 
#
# 1 104.6368 19.0693 31.8817 0.0000 0.0000 0.0000
# 2 19.0693 104.6366 31.8817 0.0000 0.0000 0.0000
# 3 31.8817 31.8817 153.1554 0.0000 0.0000 0.0000
# 4 0.0000 0.0000 0.0000 31.3704 0.0000 0.0000
# 5 0.0000 0.0000 0.0000 0.0000 31.3705 0.0000
# 6 0.0000 0.0000 0.0000 0.0000 0.0000 24.3423
#
#
#
# Elastic Compliance Matrix: (Units=1/GPa)
#
#
# Indices 1 2 3 4 5 6 
#
# 1 0.010371 -0.001316 -0.001885 0.000000 0.000000 0.000000
# 2 -0.001316 0.010371 -0.001885 0.000000 0.000000 0.000000
# 3 -0.001885 -0.001885 0.007314 0.000000 0.000000 0.000000
# 4 0.000000 0.000000 0.000000 0.031877 0.000000 0.000000
# 5 0.000000 0.000000 0.000000 0.000000 0.031877 0.000000
# 6 0.000000 0.000000 0.000000 0.000000 0.000000 0.041081
#
#
# Mechanical properties :
#
#
# Convention : Reuss Voigt Hill
#
# Bulk Modulus (GPa) = 55.91380 58.67716 57.29548
# Shear Modulus (GPa) = 33.55163 36.05638 34.80401
#
# Velocity S-wave (km/s) = 3.98494 4.13100 4.05863
# Velocity P-wave (km/s) = 6.90192 7.10809 7.00576
#
# Compressibility (1/GPa) = 0.01788467
#
# Stress axis : x y z
#
# Youngs Moduli (GPa) = 96.42290 96.42268 136.72223
#
# Poissons Ratio (x) = 0.12686 0.25772
# Poissons Ratio (y) = 0.12686 0.25772
# Poissons Ratio (z) = 0.18176 0.18176
#
# Static dielectric constant tensor:
#      x y z
#    x 1.786730 0.000000 0.000000 
#    y 0.000000 1.786730 0.000000 
#    z 0.000000 0.000000 1.829190 
# 
# From -- ./inp_files/9893.got.cif
#   From: 2010.05.17/outbox.cif.g08.bks.cpg/sg119_5_cif.got.tgz:9893.got - 2010.05.20 11:21:29.
