data_PCOD9559090
_publ_section_title
;
Structure prediction by ZEFSAII (Michael W. Deem and Ramdas Pophale) SiO2 
 PCOD9559090
Probable space group: I -4 M 2
;
_chemical_formula_sum "Si O2"
_cell_formula_units_Z 112
_cell_length_a 15.317211
_cell_length_b 15.317211
_cell_length_c 21.548764
_cell_angle_alpha 90.000000
_cell_angle_beta 90.000000
_cell_angle_gamma 90.000000
_cell_volume 5055.705347
_symmetry_space_group_name_H-M "I -4 M 2"
_symmetry_group_IT_number 119
_symmetry_cell_setting 'tetragonal'
loop_
_space_group_symop_operation_xyz
x,y,z
y,-x,-z
-x,-y,z
-y,x,-z
y,x,-z
-y,-x,-z
-x,y,z
x,-y,z
1/2+x,1/2+y,1/2+z
1/2+y,1/2-x,1/2-z
1/2-x,1/2-y,1/2+z
1/2-y,1/2+x,1/2-z
1/2+y,1/2+x,1/2-z
1/2-y,1/2-x,1/2-z
1/2-x,1/2+y,1/2+z
1/2+x,1/2-y,1/2+z
loop_
_atom_site_type_symbol
_atom_site_label
_atom_site_fract_x
_atom_site_fract_y
_atom_site_fract_z
Si Si1 0.398489 0.740486 0.081379
Si Si2 0.591633 0.225179 0.228958
Si Si3 0.900701 0.099658 0.901093
Si Si4 0.403023 0.208192 0.617385
Si Si5 0.713427 0.903267 0.031961
Si Si6 0.909228 0.096721 0.266480
Si Si7 0.229388 0.900928 0.620426
O O1 0.500000 0.729692 0.060551
O O2 0.403635 0.756946 0.155744
O O3 0.348548 0.824551 0.053985
O O4 0.333328 0.657176 0.075964
O O5 0.500000 0.180931 0.243137
O O6 0.670511 0.170511 0.250000
O O7 0.596037 0.316345 0.264664
O O8 0.809463 0.105604 0.863391
O O9 0.895286 0.187195 0.943329
O O10 0.000000 0.102498 0.874744
O O11 0.895490 0.000000 0.929752
O O12 0.500000 0.176658 0.637187
O O13 0.402045 0.211843 0.542422
O O14 0.319822 0.149294 0.634005
O O15 0.681946 0.000000 0.052487
O O16 0.908492 0.173599 0.316276
O O17 0.000000 0.100430 0.230647
O O18 0.909797 0.000000 0.298620
O O19 0.244918 0.000000 0.597784
#
# Coordination Sequence:
#
# PCOD9559090 Si02
#       7
#    16  16  16  16  16  16  16
#     4  10  21  36  53  74  99 129 169 211 249 295
#     4   9  18  32  52  77 102 127 156 194 239 292
#     4   9  17  30  50  73  94 123 169 218 256 294
#     4  10  20  32  48  72 100 132 173 214 251 298
#     4  10  20  33  49  70  99 135 171 208 254 303
#     4   8  15  31  56  81 100 124 164 208 246 288
#     4  10  19  32  51  72  96 127 165 211 254 287
#
# _framework density 22.153191
#
# number of rings (size 3 to 8) (size 9 to 14) (size 15 to 20)
#    0.000    2.571    1.429    1.714    0.000    4.429 
#    0.000    7.143    0.000    5.143    0.000    8.000 
#    0.000    0.000    0.000    0.000    0.000    0.000 
#
# Total GULP energy -312101.495029 kJ/mol
# GULP energy per Si atom -5573.240983 kJ/mol
# Density = 2.210277 g / cm^3
# Si number density = 22.153191 Si / 1000 Ang^3
#
#
#
# Elastic Constant Matrix: (Units=GPa)
#
#
# Indices 1 2 3 4 5 6 
#
# 1 179.4721 110.5035 17.1844 0.0000 0.0000 0.0000
# 2 110.5035 179.4721 17.1844 0.0000 0.0000 0.0000
# 3 17.1844 17.1844 29.9977 0.0000 0.0000 0.0000
# 4 0.0000 0.0000 0.0000 26.0314 0.0000 0.0000
# 5 0.0000 0.0000 0.0000 0.0000 26.0314 0.0000
# 6 0.0000 0.0000 0.0000 0.0000 0.0000 62.2576
#
#
#
# Elastic Compliance Matrix: (Units=1/GPa)
#
#
# Indices 1 2 3 4 5 6 
#
# 1 0.009100 -0.005400 -0.002119 0.000000 0.000000 0.000000
# 2 -0.005400 0.009100 -0.002119 0.000000 0.000000 0.000000
# 3 -0.002119 -0.002119 0.035764 0.000000 0.000000 0.000000
# 4 0.000000 0.000000 0.000000 0.038415 0.000000 0.000000
# 5 0.000000 0.000000 0.000000 0.000000 0.038415 0.000000
# 6 0.000000 0.000000 0.000000 0.000000 0.000000 0.016062
#
#
# Mechanical properties :
#
#
# Convention : Reuss Voigt Hill
#
# Bulk Modulus (GPa) = 28.83015 75.40960 52.11988
# Shear Modulus (GPa) = 28.13806 39.13537 33.63672
#
# Velocity S-wave (km/s) = 3.56779 4.20763 3.90085
# Velocity P-wave (km/s) = 5.47855 7.59733 6.62321
#
# Compressibility (1/GPa) = 0.03468591
#
# Stress axis : x y z
#
# Youngs Moduli (GPa) = 109.89538 109.89538 27.96098
#
# Poissons Ratio (x) = 0.59341 0.05926
# Poissons Ratio (y) = 0.59341 0.05926
# Poissons Ratio (z) = 0.23292 0.23292
#
# Static dielectric constant tensor:
#      x y z
#    x 1.846090 0.000000 0.000000 
#    y 0.000000 1.846090 0.000000 
#    z 0.000000 0.000000 1.946360 
# 
# From -- ./inp_files/8871.got.cif
#   From: 2010.05.17/outbox.cif.g08.bks.cpg/sg119_5_cif.got.tgz:8871.got - 2010.05.20 11:21:29.
