data_PCOD9559345
_publ_section_title
;
Structure prediction by ZEFSAII (Michael W. Deem and Ramdas Pophale) SiO2 
 PCOD9559345
Probable space group: I -4 M 2
;
_chemical_formula_sum "Si O2"
_cell_formula_units_Z 72
_cell_length_a 17.006893
_cell_length_b 17.006893
_cell_length_c 12.548497
_cell_angle_alpha 90.000000
_cell_angle_beta 90.000000
_cell_angle_gamma 90.000000
_cell_volume 3629.457120
_symmetry_space_group_name_H-M "I -4 M 2"
_symmetry_group_IT_number 119
_symmetry_cell_setting 'tetragonal'
loop_
_space_group_symop_operation_xyz
x,y,z
y,-x,-z
-x,-y,z
-y,x,-z
y,x,-z
-y,-x,-z
-x,y,z
x,-y,z
1/2+x,1/2+y,1/2+z
1/2+y,1/2-x,1/2-z
1/2-x,1/2-y,1/2+z
1/2-y,1/2+x,1/2-z
1/2+y,1/2+x,1/2-z
1/2-y,1/2-x,1/2-z
1/2-x,1/2+y,1/2+z
1/2+x,1/2-y,1/2+z
loop_
_atom_site_type_symbol
_atom_site_label
_atom_site_fract_x
_atom_site_fract_y
_atom_site_fract_z
Si Si1 0.093268 0.911948 0.289204
Si Si2 0.328932 0.248829 0.851788
Si Si3 0.412986 0.912986 0.250000
Si Si4 0.084123 0.188448 0.930298
Si Si5 0.673545 0.161250 0.428602
O O1 0.117331 0.827444 0.339190
O O2 0.146800 0.913543 0.183626
O O3 0.000000 0.909524 0.266157
O O4 0.106737 0.000000 0.341916
O O5 0.306589 0.193412 0.750000
O O6 0.245374 0.286892 0.883857
O O7 0.360184 0.197565 0.951405
O O8 0.500000 0.906862 0.297457
O O9 0.347602 0.903282 0.341349
O O10 0.099356 0.280377 0.925960
O O11 0.000000 0.169996 0.980643
O O12 0.152366 0.152366 0.000000
#
# Coordination Sequence:
#
# PCOD9559345 Si02
#       5
#    16  16   8  16  16
#     4  10  21  36  55  84 123 162 199 244 302 366
#     4  11  20  37  61  88 123 162 207 247 299 369
#     4  11  24  42  64  90 118 152 204 265 320 366
#     4  11  19  32  55  85 120 159 197 243 301 360
#     4  11  21  37  61  88 118 157 204 257 303 361
#
# _framework density 19.837675999999998
#
# number of rings (size 3 to 8) (size 9 to 14) (size 15 to 20)
#    0.000    1.222    5.556    1.333    0.000    4.667 
#    0.000    4.444    0.000    5.333    0.000    1.556 
#    0.000    0.000    0.000    0.000    0.000    0.000 
#
# Total GULP energy -200482.516624 kJ/mol
# GULP energy per Si atom -5568.958795 kJ/mol
# Density = 1.979252 g / cm^3
# Si number density = 19.837676 Si / 1000 Ang^3
#
#
#
# Elastic Constant Matrix: (Units=GPa)
#
#
# Indices 1 2 3 4 5 6 
#
# 1 72.2672 40.9112 30.7087 0.0000 0.0000 0.0000
# 2 40.9112 72.2671 30.7092 0.0000 0.0000 0.0000
# 3 30.7087 30.7092 89.5112 0.0000 0.0000 0.0000
# 4 0.0000 0.0000 0.0000 18.5733 0.0000 0.0000
# 5 0.0000 0.0000 0.0000 0.0000 18.5733 0.0000
# 6 0.0000 0.0000 0.0000 0.0000 0.0000 43.5536
#
#
#
# Elastic Compliance Matrix: (Units=1/GPa)
#
#
# Indices 1 2 3 4 5 6 
#
# 1 0.021374 -0.010518 -0.003725 0.000000 0.000000 0.000000
# 2 -0.010518 0.021374 -0.003725 0.000000 0.000000 0.000000
# 3 -0.003725 -0.003725 0.013727 0.000000 0.000000 0.000000
# 4 0.000000 0.000000 0.000000 0.053841 0.000000 0.000000
# 5 0.000000 0.000000 0.000000 0.000000 0.053841 0.000000
# 6 0.000000 0.000000 0.000000 0.000000 0.000000 0.022960
#
#
# Mechanical properties :
#
#
# Convention : Reuss Voigt Hill
#
# Bulk Modulus (GPa) = 48.67978 48.74485 48.71232
# Shear Modulus (GPa) = 21.74864 24.92111 23.33488
#
# Velocity S-wave (km/s) = 3.31468 3.54821 3.43343
# Velocity P-wave (km/s) = 6.26433 6.43518 6.35033
#
# Compressibility (1/GPa) = 0.02054241
#
# Stress axis : x y z
#
# Youngs Moduli (GPa) = 46.78511 46.78480 72.84651
#
# Poissons Ratio (x) = 0.49206 0.27132
# Poissons Ratio (y) = 0.49206 0.27134
# Poissons Ratio (z) = 0.17426 0.17427
#
# Static dielectric constant tensor:
#      x y z
#    x 1.736940 0.000000 0.000000 
#    y 0.000000 1.736930 0.000000 
#    z 0.000000 0.000000 1.724310 
# 
# From -- ./inp_files/3890.got.cif
#   From: 2010.05.17/outbox.cif.g08.bks.cpg/sg119_2_cif.got.tgz:3890.got - 2010.05.20 11:21:29.
