data_PCOD9559335
_publ_section_title
;
Structure prediction by ZEFSAII (Michael W. Deem and Ramdas Pophale) SiO2 
 PCOD9559335
Probable space group: I -4 M 2
;
_chemical_formula_sum "Si O2"
_cell_formula_units_Z 88
_cell_length_a 16.866994
_cell_length_b 16.866994
_cell_length_c 17.146569
_cell_angle_alpha 90.000000
_cell_angle_beta 90.000000
_cell_angle_gamma 90.000000
_cell_volume 4878.121491
_symmetry_space_group_name_H-M "I -4 M 2"
_symmetry_group_IT_number 119
_symmetry_cell_setting 'tetragonal'
loop_
_space_group_symop_operation_xyz
x,y,z
y,-x,-z
-x,-y,z
-y,x,-z
y,x,-z
-y,-x,-z
-x,y,z
x,-y,z
1/2+x,1/2+y,1/2+z
1/2+y,1/2-x,1/2-z
1/2-x,1/2-y,1/2+z
1/2-y,1/2+x,1/2-z
1/2+y,1/2+x,1/2-z
1/2-y,1/2-x,1/2-z
1/2-x,1/2+y,1/2+z
1/2+x,1/2-y,1/2+z
loop_
_atom_site_type_symbol
_atom_site_label
_atom_site_fract_x
_atom_site_fract_y
_atom_site_fract_z
Si Si1 0.404817 0.909792 0.476625
Si Si2 0.816932 0.588735 0.811490
Si Si3 0.334774 0.325589 0.859189
Si Si4 0.589941 0.589941 0.000000
Si Si5 0.277010 0.907173 0.774847
Si Si6 0.672260 0.760294 0.564250
O O1 0.500000 0.899227 0.477260
O O2 0.370036 0.906252 0.389328
O O3 0.362251 0.839746 0.523803
O O4 0.388010 0.000000 0.506137
O O5 0.825918 0.500000 0.779284
O O6 0.847477 0.652524 0.750000
O O7 0.726504 0.606942 0.833321
O O8 0.382840 0.289735 0.787454
O O9 0.281035 0.256438 0.896620
O O10 0.390860 0.354563 0.927776
O O11 0.601190 0.500000 0.974207
O O12 0.352705 0.852705 0.750000
O O13 0.246301 0.884160 0.861347
O O14 0.295952 0.000000 0.771105
O O15 0.692489 0.692489 0.500000
#
# Coordination Sequence:
#
# PCOD9559335 Si02
#       6
#    16  16  16   8  16  16
#     4  10  21  35  54  83 118 153 190 239 296 349
#     4  11  21  35  55  82 116 152 191 238 297 356
#     4  11  21  38  58  84 116 151 193 237 294 346
#     4  11  22  36  58  86 114 148 190 235 290 350
#     4  10  23  39  60  87 119 155 197 247 298 353
#     4  11  20  36  57  83 113 157 204 241 282 347
#
# _framework density 18.039731
#
# number of rings (size 3 to 8) (size 9 to 14) (size 15 to 20)
#    0.000    1.364    2.727    3.818    0.000    6.182 
#    0.000    0.000    0.000    0.000    0.000    0.000 
#    0.000    3.273    0.000    0.000    0.000    0.000 
#
# Total GULP energy -245574.349653 kJ/mol
# GULP energy per Si atom -5581.235219 kJ/mol
# Density = 1.799867 g / cm^3
# Si number density = 18.039731 Si / 1000 Ang^3
#
#
#
# Elastic Constant Matrix: (Units=GPa)
#
#
# Indices 1 2 3 4 5 6 
#
# 1 38.3565 47.7963 33.2924 0.0000 0.0000 0.0000
# 2 47.7963 38.3616 33.2941 0.0000 0.0000 0.0000
# 3 33.2924 33.2941 103.1109 0.0000 0.0000 0.0000
# 4 0.0000 0.0000 0.0000 24.4845 0.0000 0.0000
# 5 0.0000 0.0000 0.0000 0.0000 24.4854 0.0000
# 6 0.0000 0.0000 0.0000 0.0000 0.0000 25.8734
#
#
#
# Elastic Compliance Matrix: (Units=1/GPa)
#
#
# Indices 1 2 3 4 5 6 
#
# 1 -0.045251 0.060715 -0.004994 0.000000 0.000000 0.000000
# 2 0.060715 -0.045245 -0.004994 0.000000 0.000000 0.000000
# 3 -0.004994 -0.004994 0.012923 0.000000 0.000000 0.000000
# 4 0.000000 0.000000 0.000000 0.040842 0.000000 0.000000
# 5 0.000000 0.000000 0.000000 0.000000 0.040841 0.000000
# 6 0.000000 0.000000 0.000000 0.000000 0.000000 0.038650
#
#
# Mechanical properties :
#
#
# Convention : Reuss Voigt Hill
#
# Bulk Modulus (GPa) = 41.87502 45.39942 43.63722
# Shear Modulus (GPa) = -98.55388 19.33174 -39.61107
#
# Velocity S-wave (km/s) = -7.39934 3.27711 -4.69099
# Velocity P-wave (km/s) = 7.05246 6.28811 2.25798
#
# Compressibility (1/GPa) = 0.02388058
#
# Stress axis : x y z
#
# Youngs Moduli (GPa) = -22.09878 -22.10197 77.37961
#
# Poissons Ratio (x) = 1.34191 0.38642
# Poissons Ratio (y) = 1.34172 0.38645
# Poissons Ratio (z) = -0.11036 -0.11038
#
# Static dielectric constant tensor:
#      x y z
#    x 1.604910 0.000000 0.000000 
#    y 0.000000 1.604910 0.000000 
#    z 0.000000 0.000000 1.649630 
# 
# From -- ./inp_files/5384.got.cif
#   From: 2010.05.17/outbox.cif.g08.bks.cpg/sg119_3_cif.got.tgz:5384.got - 2010.05.20 11:21:29.
