data_PCOD9559206
_publ_section_title
;
Structure prediction by ZEFSAII (Michael W. Deem and Ramdas Pophale) SiO2 
 PCOD9559206
Probable space group: I -4 M 2
;
_chemical_formula_sum "Si O2"
_cell_formula_units_Z 88
_cell_length_a 14.927264
_cell_length_b 14.927264
_cell_length_c 22.138848
_cell_angle_alpha 90.000000
_cell_angle_beta 90.000000
_cell_angle_gamma 90.000000
_cell_volume 4933.049189
_symmetry_space_group_name_H-M "I -4 M 2"
_symmetry_group_IT_number 119
_symmetry_cell_setting 'tetragonal'
loop_
_space_group_symop_operation_xyz
x,y,z
y,-x,-z
-x,-y,z
-y,x,-z
y,x,-z
-y,-x,-z
-x,y,z
x,-y,z
1/2+x,1/2+y,1/2+z
1/2+y,1/2-x,1/2-z
1/2-x,1/2-y,1/2+z
1/2-y,1/2+x,1/2-z
1/2+y,1/2+x,1/2-z
1/2-y,1/2-x,1/2-z
1/2-x,1/2+y,1/2+z
1/2+x,1/2-y,1/2+z
loop_
_atom_site_type_symbol
_atom_site_label
_atom_site_fract_x
_atom_site_fract_y
_atom_site_fract_z
Si Si1 0.895199 0.261312 0.217505
Si Si2 0.893964 0.606037 0.750000
Si Si3 0.273373 0.899105 0.044959
Si Si4 0.102163 0.895235 0.311025
Si Si5 0.893360 0.283569 0.629091
Si Si6 0.604014 0.697036 0.585186
O O1 0.833379 0.333379 0.250000
O O2 0.884915 0.167799 0.253258
O O3 0.872346 0.245590 0.147584
O O4 0.000000 0.286832 0.221090
O O5 0.880481 0.500000 0.737619
O O6 0.870069 0.664025 0.691319
O O7 0.338365 0.827653 0.075321
O O8 0.174525 0.881383 0.072359
O O9 0.303416 0.000000 0.058521
O O10 0.261690 0.888762 0.973006
O O11 0.179201 0.873706 0.359159
O O12 0.000000 0.882489 0.332771
O O13 0.113228 0.000000 0.294780
O O14 0.000000 0.294353 0.619775
O O15 0.500000 0.667440 0.589008
#
# Coordination Sequence:
#
# PCOD9559206 Si02
#       6
#    16   8  16  16  16  16
#     4  10  20  35  55  77 104 136 172 218 267 312
#     4   9  18  30  44  72 112 144 173 212 262 324
#     4  10  20  34  54  77 108 147 179 214 263 322
#     4   9  19  34  52  79 112 142 175 218 268 320
#     4  10  20  33  53  80 110 144 181 220 268 324
#     4   9  20  36  52  76 107 139 179 223 264 312
#
# _framework density 17.838864999999998
#
# number of rings (size 3 to 8) (size 9 to 14) (size 15 to 20)
#    0.000    2.455    0.000    1.636    3.818    2.364 
#    0.000    4.545    0.000    7.636    0.000    0.000 
#    0.000    5.818    0.000    0.000    0.000    0.000 
#
# Total GULP energy -245471.598201 kJ/mol
# GULP energy per Si atom -5578.899959 kJ/mol
# Density = 1.779826 g / cm^3
# Si number density = 17.838865 Si / 1000 Ang^3
#
#
#
# Elastic Constant Matrix: (Units=GPa)
#
#
# Indices 1 2 3 4 5 6 
#
# 1 73.7836 53.1534 54.8302 0.0000 0.0000 0.0000
# 2 53.1534 73.7831 54.8304 0.0000 0.0000 0.0000
# 3 54.8302 54.8304 92.9892 0.0000 0.0000 0.0000
# 4 0.0000 0.0000 0.0000 19.6462 0.0000 0.0000
# 5 0.0000 0.0000 0.0000 0.0000 19.6463 0.0000
# 6 0.0000 0.0000 0.0000 0.0000 0.0000 25.7197
#
#
#
# Elastic Compliance Matrix: (Units=1/GPa)
#
#
# Indices 1 2 3 4 5 6 
#
# 1 0.032265 -0.016208 -0.009468 0.000000 0.000000 0.000000
# 2 -0.016208 0.032266 -0.009468 0.000000 0.000000 0.000000
# 3 -0.009468 -0.009468 0.021920 0.000000 0.000000 0.000000
# 4 0.000000 0.000000 0.000000 0.050900 0.000000 0.000000
# 5 0.000000 0.000000 0.000000 0.000000 0.050900 0.000000
# 6 0.000000 0.000000 0.000000 0.000000 0.000000 0.038881
#
#
# Mechanical properties :
#
#
# Convention : Reuss Voigt Hill
#
# Bulk Modulus (GPa) = 61.87391 62.90932 62.39162
# Shear Modulus (GPa) = 16.51215 18.18524 17.34870
#
# Velocity S-wave (km/s) = 3.04571 3.19629 3.12191
# Velocity P-wave (km/s) = 6.86503 6.99740 6.93153
#
# Compressibility (1/GPa) = 0.01616190
#
# Stress axis : x y z
#
# Youngs Moduli (GPa) = 30.99324 30.99268 45.62128
#
# Poissons Ratio (x) = 0.50233 0.43194
# Poissons Ratio (y) = 0.50234 0.43196
# Poissons Ratio (z) = 0.29344 0.29345
#
# Static dielectric constant tensor:
#      x y z
#    x 1.616260 0.000000 0.000000 
#    y 0.000000 1.616270 0.000000 
#    z 0.000000 0.000000 1.586490 
# 
# From -- ./inp_files/7690.got.cif
#   From: 2010.05.17/outbox.cif.g08.bks.cpg/sg119_4_cif.got.tgz:7690.got - 2010.05.20 11:21:29.
