data_PCOD9559536
_publ_section_title
;
Structure prediction by ZEFSAII (Michael W. Deem and Ramdas Pophale) SiO2 
 PCOD9559536
Probable space group: I -4 M 2
;
_chemical_formula_sum "Si O2"
_cell_formula_units_Z 56
_cell_length_a 7.318925
_cell_length_b 7.318925
_cell_length_c 40.280824
_cell_angle_alpha 90.000000
_cell_angle_beta 90.000000
_cell_angle_gamma 90.000000
_cell_volume 2157.709331
_symmetry_space_group_name_H-M "I -4 M 2"
_symmetry_group_IT_number 119
_symmetry_cell_setting 'tetragonal'
loop_
_space_group_symop_operation_xyz
x,y,z
y,-x,-z
-x,-y,z
-y,x,-z
y,x,-z
-y,-x,-z
-x,y,z
x,-y,z
1/2+x,1/2+y,1/2+z
1/2+y,1/2-x,1/2-z
1/2-x,1/2-y,1/2+z
1/2-y,1/2+x,1/2-z
1/2+y,1/2+x,1/2-z
1/2-y,1/2-x,1/2-z
1/2-x,1/2+y,1/2+z
1/2+x,1/2-y,1/2+z
loop_
_atom_site_type_symbol
_atom_site_label
_atom_site_fract_x
_atom_site_fract_y
_atom_site_fract_z
Si Si1 0.290211 0.781799 0.821009
Si Si2 0.281643 0.709715 0.106794
Si Si3 0.219616 0.280385 0.250000
Si Si4 0.722273 0.283009 0.964252
O O1 0.500000 0.712167 0.823075
O O2 0.205142 0.750129 0.857112
O O3 0.210325 0.715447 0.785872
O O4 0.298392 0.000000 0.817559
O O5 0.500000 0.702277 0.103365
O O6 0.212442 0.500000 0.108830
O O7 0.213233 0.787133 0.071630
O O8 0.248690 0.500000 0.248256
O O9 0.500000 0.264585 0.963554
O O10 0.761624 0.500000 0.965155
O O11 0.787657 0.212344 0.000000
#
# Coordination Sequence:
#
# PCOD9559536 Si02
#       4
#    16  16   8  16
#     4   8  12  17  24  33  46  66  92 118 140 165
#     4   8  12  16  22  33  48  66  89 115 141 169
#     4   7  10  16  24  32  42  60  88 115 134 160
#     4   7   9  13  20  29  42  61  83 103 124 157
#
# _framework density 25.953448999999999
#
# number of rings (size 3 to 8) (size 9 to 14) (size 15 to 20)
#    0.000    4.429    0.000    4.286    0.000    0.000 
#    0.000    0.000    0.000    0.000    0.000    0.000 
#    0.000    0.000    0.000    2.571    0.000   19.000 
#
# Total GULP energy -155889.293565 kJ/mol
# GULP energy per Si atom -5567.474770 kJ/mol
# Density = 2.589438 g / cm^3
# Si number density = 25.953449 Si / 1000 Ang^3
#
#
#
# Elastic Constant Matrix: (Units=GPa)
#
#
# Indices 1 2 3 4 5 6 
#
# 1 100.4520 -2.4546 19.7729 0.0000 0.0000 0.0000
# 2 -2.4546 100.4522 19.7728 0.0000 0.0000 0.0000
# 3 19.7729 19.7728 434.0000 0.0000 0.0000 0.0000
# 4 0.0000 0.0000 0.0000 -7.1202 0.0000 0.0000
# 5 0.0000 0.0000 0.0000 0.0000 -7.1205 0.0000
# 6 0.0000 0.0000 0.0000 0.0000 0.0000 -12.1242
#
#
#
# Elastic Compliance Matrix: (Units=1/GPa)
#
#
# Indices 1 2 3 4 5 6 
#
# 1 0.010057 0.000339 -0.000474 0.000000 0.000000 0.000000
# 2 0.000339 0.010056 -0.000474 0.000000 0.000000 0.000000
# 3 -0.000474 -0.000474 0.002347 0.000000 0.000000 0.000000
# 4 0.000000 0.000000 0.000000 -0.140446 0.000000 0.000000
# 5 0.000000 0.000000 0.000000 0.000000 -0.140439 0.000000
# 6 0.000000 0.000000 0.000000 0.000000 0.000000 -0.082479
#
#
# Mechanical properties :
#
#
# Convention : Reuss Voigt Hill
#
# Bulk Modulus (GPa) = 47.07263 78.78739 62.93001
# Shear Modulus (GPa) = -15.03276 34.58122 9.77423
#
# Velocity S-wave (km/s) = -2.40931 3.65421 1.94274
# Velocity P-wave (km/s) = 3.23064 6.94460 5.41592
#
# Compressibility (1/GPa) = 0.02124377
#
# Stress axis : x y z
#
# Youngs Moduli (GPa) = 99.43809 99.43826 426.02091
#
# Poissons Ratio (x) = -0.03371 0.20177
# Poissons Ratio (y) = -0.03371 0.20177
# Poissons Ratio (z) = 0.04710 0.04709
#
# Static dielectric constant tensor:
#      x y z
#    x 1.562960 0.000000 0.000000 
#    y 0.000000 1.562950 0.000000 
#    z 0.000000 0.000000 2.154960 
# 
# From -- ./inp_files/9968.got.cif
#   From: 2010.05.17/outbox.cif.g08.bks.cpg/sg119_5_cif.got.tgz:9968.got - 2010.05.20 11:21:29.
