data_PCOD9559461
_publ_section_title
;
Structure prediction by ZEFSAII (Michael W. Deem and Ramdas Pophale) SiO2 
 PCOD9559461
Probable space group: I -4 M 2
;
_chemical_formula_sum "Si O2"
_cell_formula_units_Z 96
_cell_length_a 14.270177
_cell_length_b 14.270177
_cell_length_c 21.501969
_cell_angle_alpha 90.000000
_cell_angle_beta 90.000000
_cell_angle_gamma 90.000000
_cell_volume 4378.616923
_symmetry_space_group_name_H-M "I -4 M 2"
_symmetry_group_IT_number 119
_symmetry_cell_setting 'tetragonal'
loop_
_space_group_symop_operation_xyz
x,y,z
y,-x,-z
-x,-y,z
-y,x,-z
y,x,-z
-y,-x,-z
-x,y,z
x,-y,z
1/2+x,1/2+y,1/2+z
1/2+y,1/2-x,1/2-z
1/2-x,1/2-y,1/2+z
1/2-y,1/2+x,1/2-z
1/2+y,1/2+x,1/2-z
1/2-y,1/2-x,1/2-z
1/2-x,1/2+y,1/2+z
1/2+x,1/2-y,1/2+z
loop_
_atom_site_type_symbol
_atom_site_label
_atom_site_fract_x
_atom_site_fract_y
_atom_site_fract_z
Si Si1 0.393852 0.241769 0.574801
Si Si2 0.100615 0.298856 0.651162
Si Si3 0.599671 0.138376 0.819509
Si Si4 0.643368 0.606142 0.213706
Si Si5 0.392172 0.240673 0.005065
Si Si6 0.700360 0.610783 0.655219
O O1 0.500000 0.257449 0.552503
O O2 0.397191 0.183572 0.639194
O O3 0.331595 0.174817 0.531339
O O4 0.339451 0.335865 0.594547
O O5 0.099802 0.193388 0.677559
O O6 0.105832 0.290160 0.576743
O O7 0.195841 0.350272 0.671328
O O8 0.000000 0.343263 0.668422
O O9 0.500000 0.115549 0.849558
O O10 0.600999 0.100999 0.750000
O O11 0.607755 0.249507 0.809552
O O12 0.608770 0.500000 0.203434
O O13 0.633215 0.633004 0.286203
O O14 0.500000 0.242536 0.982150
O O15 0.341334 0.341334 0.000000
O O16 0.704183 0.500000 0.646099
#
# Coordination Sequence:
#
# PCOD9559461 Si02
#       6
#    16  16  16  16  16  16
#     4  12  25  44  69 101 142 184 233 292 352 417
#     4  11  24  44  71  99 134 183 237 290 346 415
#     4  11  20  34  60  94 136 180 219 270 341 417
#     4  11  22  41  70 104 143 182 223 282 356 427
#     4  11  24  46  72 102 141 186 237 290 347 410
#     4  12  25  44  70 100 142 188 234 291 358 433
#
# _framework density 21.924731999999999
#
# number of rings (size 3 to 8) (size 9 to 14) (size 15 to 20)
#    0.000    0.667    5.000    2.500    0.000    7.667 
#    0.000    3.333    0.000    2.000    0.000    0.000 
#    0.000    0.000    0.000    0.000    0.000    0.000 
#
# Total GULP energy -268413.787975 kJ/mol
# GULP energy per Si atom -5591.953916 kJ/mol
# Density = 2.187483 g / cm^3
# Si number density = 21.924732 Si / 1000 Ang^3
#
#
#
# Elastic Constant Matrix: (Units=GPa)
#
#
# Indices 1 2 3 4 5 6 
#
# 1 160.7837 55.9173 19.5541 0.0000 0.0000 0.0000
# 2 55.9173 160.7837 19.5541 0.0000 0.0000 0.0000
# 3 19.5541 19.5541 64.8721 0.0000 0.0000 0.0000
# 4 0.0000 0.0000 0.0000 6.9566 0.0000 0.0000
# 5 0.0000 0.0000 0.0000 0.0000 6.9566 0.0000
# 6 0.0000 0.0000 0.0000 0.0000 0.0000 -15.7312
#
#
#
# Elastic Compliance Matrix: (Units=1/GPa)
#
#
# Indices 1 2 3 4 5 6 
#
# 1 0.007208 -0.002328 -0.001471 0.000000 0.000000 0.000000
# 2 -0.002328 0.007208 -0.001471 0.000000 0.000000 0.000000
# 3 -0.001471 -0.001471 0.016302 0.000000 0.000000 0.000000
# 4 0.000000 0.000000 0.000000 0.143749 0.000000 0.000000
# 5 0.000000 0.000000 0.000000 0.000000 0.143749 0.000000
# 6 0.000000 0.000000 0.000000 0.000000 0.000000 -0.063568
#
#
# Mechanical properties :
#
#
# Convention : Reuss Voigt Hill
#
# Bulk Modulus (GPa) = 49.55889 64.05452 56.80670
# Shear Modulus (GPa) = 18.38819 19.06398 18.72608
#
# Velocity S-wave (km/s) = 2.89917 2.95196 2.92568
# Velocity P-wave (km/s) = 5.81894 6.39514 6.11383
#
# Compressibility (1/GPa) = 0.02017801
#
# Stress axis : x y z
#
# Youngs Moduli (GPa) = 138.73405 138.73405 61.34311
#
# Poissons Ratio (x) = 0.32296 0.09024
# Poissons Ratio (y) = 0.32296 0.09024
# Poissons Ratio (z) = 0.20408 0.20408
#
# Static dielectric constant tensor:
#      x y z
#    x 1.829190 0.000000 0.000000 
#    y 0.000000 1.829190 0.000000 
#    z 0.000000 0.000000 1.806530 
# 
# From -- ./inp_files/7793.got.cif
#   From: 2010.05.17/outbox.cif.g08.bks.cpg/sg119_4_cif.got.tgz:7793.got - 2010.05.20 11:21:29.
