data_PCOD9559994
_publ_section_title
;
Structure prediction by ZEFSAII (Michael W. Deem and Ramdas Pophale) SiO2 
 PCOD9559994
Probable space group: I -4 C 2
;
_chemical_formula_sum "Si O2"
_cell_formula_units_Z 36
_cell_length_a 9.786936
_cell_length_b 9.786936
_cell_length_c 13.389837
_cell_angle_alpha 90.000000
_cell_angle_beta 90.000000
_cell_angle_gamma 90.000000
_cell_volume 1282.533704
_symmetry_space_group_name_H-M "I -4 C 2"
_symmetry_group_IT_number 120
_symmetry_cell_setting 'tetragonal'
loop_
_space_group_symop_operation_xyz
x,y,z
y,-x,-z
-x,-y,z
-y,x,-z
y,x,1/2-z
-y,-x,1/2-z
-x,y,1/2+z
x,-y,1/2+z
1/2+x,1/2+y,1/2+z
1/2+y,1/2-x,1/2-z
1/2-x,1/2-y,1/2+z
1/2-y,1/2+x,1/2-z
1/2+y,1/2+x,-z
1/2-y,1/2-x,-z
1/2-x,1/2+y,z
1/2+x,1/2-y,z
loop_
_atom_site_type_symbol
_atom_site_label
_atom_site_fract_x
_atom_site_fract_y
_atom_site_fract_z
Si Si1 0.311860 0.510358 0.672443
Si Si2 0.223214 0.603075 0.370791
Si Si3 0.500000 0.000000 0.000000
O O1 0.407749 0.592251 0.750000
O O2 0.384619 0.376004 0.889591
O O3 0.236304 0.628573 0.612753
O O4 0.216237 0.430936 0.752445
O O5 0.135163 0.494837 0.431845
#
# Coordination Sequence:
#
# PCOD9559994 Si02
#       3
#    16  16   4
#     4  11  22  48  82 112 155 229 302 357 411 539
#     4  11  24  44  75 111 161 211 284 348 439 523
#     4  12  28  42  72 124 166 228 264 372 484 510
#
# _framework density 28.069434999999999
#
# number of rings (size 3 to 8) (size 9 to 14) (size 15 to 20)
#    0.000    0.889    4.444    5.333    0.000    1.778 
#    0.000    0.000    0.000    0.000    0.000    0.000 
#    0.000    0.000    0.000    0.000    0.000    0.000 
#
# Total GULP energy -100598.421569 kJ/mol
# GULP energy per Si atom -5588.801198 kJ/mol
# Density = 2.800555 g / cm^3
# Si number density = 28.069435 Si / 1000 Ang^3
#
#
#
# Elastic Constant Matrix: (Units=GPa)
#
#
# Indices 1 2 3 4 5 6 
#
# 1 184.0469 75.3391 37.0028 0.0000 0.0000 0.0000
# 2 75.3391 184.0469 37.0028 0.0000 0.0000 0.0000
# 3 37.0028 37.0028 77.7666 0.0000 0.0000 0.0000
# 4 0.0000 0.0000 0.0000 59.4161 0.0000 0.0000
# 5 0.0000 0.0000 0.0000 0.0000 59.4161 0.0000
# 6 0.0000 0.0000 0.0000 0.0000 0.0000 65.8469
#
#
#
# Elastic Compliance Matrix: (Units=1/GPa)
#
#
# Indices 1 2 3 4 5 6 
#
# 1 0.006830 -0.002369 -0.002123 0.000000 0.000000 0.000000
# 2 -0.002369 0.006830 -0.002123 0.000000 0.000000 0.000000
# 3 -0.002123 -0.002123 0.014879 0.000000 0.000000 0.000000
# 4 0.000000 0.000000 0.000000 0.016830 0.000000 0.000000
# 5 0.000000 0.000000 0.000000 0.000000 0.016830 0.000000
# 6 0.000000 0.000000 0.000000 0.000000 0.000000 0.015187
#
#
# Mechanical properties :
#
#
# Convention : Reuss Voigt Hill
#
# Bulk Modulus (GPa) = 65.31521 82.72774 74.02148
# Shear Modulus (GPa) = 52.23669 56.70352 54.47011
#
# Velocity S-wave (km/s) = 4.31859 4.49945 4.40995
# Velocity P-wave (km/s) = 6.94166 7.51864 7.23590
#
# Compressibility (1/GPa) = 0.01531037
#
# Stress axis : x y z
#
# Youngs Moduli (GPa) = 146.41489 146.41489 67.20935
#
# Poissons Ratio (x) = 0.34687 0.14266
# Poissons Ratio (y) = 0.34687 0.14266
# Poissons Ratio (z) = 0.31077 0.31077
#
# Static dielectric constant tensor:
#      x y z
#    x 2.315690 0.000000 0.000000 
#    y 0.000000 2.315690 0.000000 
#    z 0.000000 0.000000 2.277830 
# 
# From -- ./inp_files/3816.got.cif
#   From: 2010.05.17/outbox.cif.g08.bks.cpg/sg120_2_cif.got.tgz:3816.got - 2010.05.20 11:28:13.
