data_PCOD9559156
_publ_section_title
;
Structure prediction by ZEFSAII (Michael W. Deem and Ramdas Pophale) SiO2 
 PCOD9559156
Probable space group: I -4 M 2
;
_chemical_formula_sum "Si O2"
_cell_formula_units_Z 64
_cell_length_a 14.472483
_cell_length_b 14.472483
_cell_length_c 17.206014
_cell_angle_alpha 90.000000
_cell_angle_beta 90.000000
_cell_angle_gamma 90.000000
_cell_volume 3603.847193
_symmetry_space_group_name_H-M "I -4 M 2"
_symmetry_group_IT_number 119
_symmetry_cell_setting 'tetragonal'
loop_
_space_group_symop_operation_xyz
x,y,z
y,-x,-z
-x,-y,z
-y,x,-z
y,x,-z
-y,-x,-z
-x,y,z
x,-y,z
1/2+x,1/2+y,1/2+z
1/2+y,1/2-x,1/2-z
1/2-x,1/2-y,1/2+z
1/2-y,1/2+x,1/2-z
1/2+y,1/2+x,1/2-z
1/2-y,1/2-x,1/2-z
1/2-x,1/2+y,1/2+z
1/2+x,1/2-y,1/2+z
loop_
_atom_site_type_symbol
_atom_site_label
_atom_site_fract_x
_atom_site_fract_y
_atom_site_fract_z
Si Si1 0.146738 0.892249 0.617722
Si Si2 0.221245 0.597905 0.986724
Si Si3 0.777607 0.107888 0.058733
Si Si4 0.234638 0.890032 0.238174
O O1 0.247277 0.892952 0.576346
O O2 0.096403 0.816873 0.562693
O O3 0.139921 0.845356 0.701682
O O4 0.115217 0.000000 0.616685
O O5 0.173377 0.500000 0.974256
O O6 0.163109 0.684028 0.959534
O O7 0.798676 0.122425 0.149614
O O8 0.763139 0.000000 0.046345
O O9 0.853601 0.146399 0.000000
O O10 0.324716 0.824716 0.250000
O O11 0.254561 0.000000 0.250085
#
# Coordination Sequence:
#
# PCOD9559156 Si02
#       4
#    16  16  16  16
#     4  10  20  35  58  85 115 146 182 233 291 344
#     4  10  19  36  60  87 118 147 185 236 294 352
#     4  11  23  40  59  81 115 158 199 237 280 332
#     4  11  22  36  56  82 116 152 191 236 282 338
#
# _framework density 17.758800999999998
#
# number of rings (size 3 to 8) (size 9 to 14) (size 15 to 20)
#    0.000    1.500    5.000    0.750    0.000    5.000 
#    0.000   10.000    0.000    0.000    0.000    0.000 
#    0.000    0.000    0.000    0.000    0.000    0.000 
#
# Total GULP energy -178240.492889 kJ/mol
# GULP energy per Si atom -5570.015403 kJ/mol
# Density = 1.771838 g / cm^3
# Si number density = 17.758801 Si / 1000 Ang^3
#
#
#
# Elastic Constant Matrix: (Units=GPa)
#
#
# Indices 1 2 3 4 5 6 
#
# 1 97.1492 53.2425 66.8497 0.0000 0.0000 0.0000
# 2 53.2425 97.1500 66.8505 0.0000 0.0000 0.0000
# 3 66.8497 66.8505 137.6489 0.0000 0.0000 0.0000
# 4 0.0000 0.0000 0.0000 8.2125 0.0000 0.0000
# 5 0.0000 0.0000 0.0000 0.0000 8.2131 0.0000
# 6 0.0000 0.0000 0.0000 0.0000 0.0000 -2.4501
#
#
#
# Elastic Compliance Matrix: (Units=1/GPa)
#
#
# Indices 1 2 3 4 5 6 
#
# 1 0.017238 -0.005537 -0.005683 0.000000 0.000000 0.000000
# 2 -0.005537 0.017238 -0.005683 0.000000 0.000000 0.000000
# 3 -0.005683 -0.005683 0.012785 0.000000 0.000000 0.000000
# 4 0.000000 0.000000 0.000000 0.121765 0.000000 0.000000
# 5 0.000000 0.000000 0.000000 0.000000 0.121756 0.000000
# 6 0.000000 0.000000 0.000000 0.000000 0.000000 -0.408140
#
#
# Mechanical properties :
#
#
# Convention : Reuss Voigt Hill
#
# Bulk Modulus (GPa) = 74.31598 78.42596 76.37097
# Shear Modulus (GPa) = -63.23821 12.46212 -25.38804
#
# Velocity S-wave (km/s) = -5.97384 2.65192 -3.78511
# Velocity P-wave (km/s) = 2.37574 7.32356 4.89849
#
# Compressibility (1/GPa) = 0.01345606
#
# Stress axis : x y z
#
# Youngs Moduli (GPa) = 58.01001 58.01009 78.21841
#
# Poissons Ratio (x) = 0.32120 0.44450
# Poissons Ratio (y) = 0.32120 0.44451
# Poissons Ratio (z) = 0.32966 0.32967
#
# Static dielectric constant tensor:
#      x y z
#    x 1.607440 0.000000 0.000000 
#    y 0.000000 1.607440 0.000000 
#    z 0.000000 0.000000 1.645770 
# 
# From -- ./inp_files/5075.got.cif
#   From: 2010.05.17/outbox.cif.g08.bks.cpg/sg119_3_cif.got.tgz:5075.got - 2010.05.20 11:21:29.
