data_PCOD9559317
_publ_section_title
;
Structure prediction by ZEFSAII (Michael W. Deem and Ramdas Pophale) SiO2 
 PCOD9559317
Probable space group: I -4 M 2
;
_chemical_formula_sum "Si O2"
_cell_formula_units_Z 92
_cell_length_a 15.158737
_cell_length_b 15.158737
_cell_length_c 19.220978
_cell_angle_alpha 90.000000
_cell_angle_beta 90.000000
_cell_angle_gamma 90.000000
_cell_volume 4416.736781
_symmetry_space_group_name_H-M "I -4 M 2"
_symmetry_group_IT_number 119
_symmetry_cell_setting 'tetragonal'
loop_
_space_group_symop_operation_xyz
x,y,z
y,-x,-z
-x,-y,z
-y,x,-z
y,x,-z
-y,-x,-z
-x,y,z
x,-y,z
1/2+x,1/2+y,1/2+z
1/2+y,1/2-x,1/2-z
1/2-x,1/2-y,1/2+z
1/2-y,1/2+x,1/2-z
1/2+y,1/2+x,1/2-z
1/2-y,1/2-x,1/2-z
1/2-x,1/2+y,1/2+z
1/2+x,1/2-y,1/2+z
loop_
_atom_site_type_symbol
_atom_site_label
_atom_site_fract_x
_atom_site_fract_y
_atom_site_fract_z
Si Si1 0.096723 0.363711 0.149977
Si Si2 0.602082 0.901105 0.012636
Si Si3 0.792004 0.679179 0.869848
Si Si4 0.099530 0.599530 0.750000
Si Si5 0.000000 0.000000 0.130623
Si Si6 0.125462 0.159562 0.169474
Si Si7 0.597738 0.291136 0.825152
O O1 0.094920 0.257544 0.147967
O O2 0.185388 0.395233 0.188436
O O3 0.000000 0.394706 0.173649
O O4 0.109535 0.393481 0.070147
O O5 0.500000 0.896538 0.033907
O O6 0.654199 0.828313 0.055087
O O7 0.635348 0.000000 0.028793
O O8 0.829821 0.613334 0.811265
O O9 0.835583 0.771290 0.846242
O O10 0.686085 0.686355 0.867521
O O11 0.108335 0.500000 0.721441
O O12 0.076074 0.921352 0.134330
O O13 0.106942 0.157845 0.252171
O O14 0.500000 0.308754 0.854647
#
# Coordination Sequence:
#
# PCOD9559317 Si02
#       7
#    16  16  16   8   4  16  16
#     4  10  20  40  66  91 125 161 211 264 322 374
#     4  10  22  40  63  94 124 161 210 263 327 391
#     4  11  22  39  62  88 129 168 208 264 326 389
#     4  11  22  36  60  92 122 159 208 266 316 383
#     4  12  24  40  64  89 132 169 216 260 314 404
#     4  11  23  39  62  92 126 169 209 260 319 381
#     4  11  22  40  61  93 128 164 213 264 318 389
#
# _framework density 20.829858000000002
#
# number of rings (size 3 to 8) (size 9 to 14) (size 15 to 20)
#    0.000    1.304    3.478    3.130    2.435    5.217 
#    1.565    0.870    0.000    8.348    2.261    0.000 
#    0.000    0.000    0.000    0.000    0.000    0.000 
#
# Total GULP energy -256361.859982 kJ/mol
# GULP energy per Si atom -5573.083913 kJ/mol
# Density = 2.078245 g / cm^3
# Si number density = 20.829858 Si / 1000 Ang^3
#
#
#
# Elastic Constant Matrix: (Units=GPa)
#
#
# Indices 1 2 3 4 5 6 
#
# 1 116.7470 26.0831 9.3052 0.0000 0.0000 0.0000
# 2 26.0831 116.7470 9.3052 0.0000 0.0000 0.0000
# 3 9.3052 9.3052 30.5598 0.0000 0.0000 0.0000
# 4 0.0000 0.0000 0.0000 -26.1347 0.0000 0.0000
# 5 0.0000 0.0000 0.0000 0.0000 -26.1346 0.0000
# 6 0.0000 0.0000 0.0000 0.0000 0.0000 13.3742
#
#
#
# Elastic Compliance Matrix: (Units=1/GPa)
#
#
# Indices 1 2 3 4 5 6 
#
# 1 0.009160 -0.001870 -0.002220 0.000000 0.000000 0.000000
# 2 -0.001870 0.009160 -0.002220 0.000000 0.000000 0.000000
# 3 -0.002220 -0.002220 0.034075 0.000000 0.000000 0.000000
# 4 0.000000 0.000000 0.000000 -0.038263 0.000000 0.000000
# 5 0.000000 0.000000 0.000000 0.000000 -0.038263 0.000000
# 6 0.000000 0.000000 0.000000 0.000000 0.000000 0.074771
#
#
# Mechanical properties :
#
#
# Convention : Reuss Voigt Hill
#
# Bulk Modulus (GPa) = 25.14069 39.27117 32.20593
# Shear Modulus (GPa) = 65.34535 6.84501 36.09518
#
# Velocity S-wave (km/s) = 5.60706 1.81474 4.16728
# Velocity P-wave (km/s) = 7.34946 4.82548 6.21691
#
# Compressibility (1/GPa) = 0.03977616
#
# Stress axis : x y z
#
# Youngs Moduli (GPa) = 109.16843 109.16842 29.34733
#
# Poissons Ratio (x) = 0.20410 0.06515
# Poissons Ratio (y) = 0.20410 0.06515
# Poissons Ratio (z) = 0.24234 0.24234
#
# Static dielectric constant tensor:
#      x y z
#    x 1.780280 0.000000 0.000000 
#    y 0.000000 1.780280 0.000000 
#    z 0.000000 0.000000 1.763610 
# 
# From -- ./inp_files/7855.got.cif
#   From: 2010.05.17/outbox.cif.g08.bks.cpg/sg119_4_cif.got.tgz:7855.got - 2010.05.20 11:21:29.
