data_PCOD9559083
_publ_section_title
;
Structure prediction by ZEFSAII (Michael W. Deem and Ramdas Pophale) SiO2 
 PCOD9559083
Probable space group: I -4 M 2
;
_chemical_formula_sum "Si O2"
_cell_formula_units_Z 40
_cell_length_a 14.381078
_cell_length_b 14.381078
_cell_length_c 10.706546
_cell_angle_alpha 90.000000
_cell_angle_beta 90.000000
_cell_angle_gamma 90.000000
_cell_volume 2214.278641
_symmetry_space_group_name_H-M "I -4 M 2"
_symmetry_group_IT_number 119
_symmetry_cell_setting 'tetragonal'
loop_
_space_group_symop_operation_xyz
x,y,z
y,-x,-z
-x,-y,z
-y,x,-z
y,x,-z
-y,-x,-z
-x,y,z
x,-y,z
1/2+x,1/2+y,1/2+z
1/2+y,1/2-x,1/2-z
1/2-x,1/2-y,1/2+z
1/2-y,1/2+x,1/2-z
1/2+y,1/2+x,1/2-z
1/2-y,1/2-x,1/2-z
1/2-x,1/2+y,1/2+z
1/2+x,1/2-y,1/2+z
loop_
_atom_site_type_symbol
_atom_site_label
_atom_site_fract_x
_atom_site_fract_y
_atom_site_fract_z
Si Si1 0.107151 0.392850 0.250000
Si Si2 0.607150 0.613055 0.135905
Si Si3 0.110889 0.213308 0.111034
O O1 0.120906 0.500000 0.211878
O O2 0.124766 0.322373 0.136794
O O3 0.500000 0.642962 0.151652
O O4 0.606745 0.500000 0.129486
O O5 0.665478 0.638088 0.257307
O O6 0.643741 0.643741 0.000000
O O7 0.000000 0.196428 0.090478
O O8 0.168984 0.168984 0.000000
#
# Coordination Sequence:
#
# PCOD9559083 Si02
#       3
#     8  16  16
#     4   9  20  38  54  70 102 151 194 216 242 305
#     4   8  14  25  42  69 108 145 167 193 253 332
#     4  10  19  31  52  81 107 133 172 226 277 314
#
# _framework density 18.064571999999998
#
# number of rings (size 3 to 8) (size 9 to 14) (size 15 to 20)
#    0.000    3.000    0.000    2.400    0.000    3.600 
#    0.000    0.000    0.000    2.400    0.000    2.800 
#    0.000   16.000    0.000    0.000    0.000    0.000 
#
# Total GULP energy -111471.182870 kJ/mol
# GULP energy per Si atom -5573.559144 kJ/mol
# Density = 1.802346 g / cm^3
# Si number density = 18.064572 Si / 1000 Ang^3
#
#
#
# Elastic Constant Matrix: (Units=GPa)
#
#
# Indices 1 2 3 4 5 6 
#
# 1 76.8200 50.7253 64.1839 0.0000 0.0000 0.0000
# 2 50.7253 76.8235 64.1845 0.0000 0.0000 0.0000
# 3 64.1839 64.1845 151.9777 0.0000 0.0000 0.0000
# 4 0.0000 0.0000 0.0000 21.1443 0.0000 0.0000
# 5 0.0000 0.0000 0.0000 0.0000 21.1447 0.0000
# 6 0.0000 0.0000 0.0000 0.0000 0.0000 14.8226
#
#
#
# Elastic Compliance Matrix: (Units=1/GPa)
#
#
# Indices 1 2 3 4 5 6 
#
# 1 0.025979 -0.012342 -0.005759 0.000000 0.000000 0.000000
# 2 -0.012342 0.025977 -0.005759 0.000000 0.000000 0.000000
# 3 -0.005759 -0.005759 0.011444 0.000000 0.000000 0.000000
# 4 0.000000 0.000000 0.000000 0.047294 0.000000 0.000000
# 5 0.000000 0.000000 0.000000 0.000000 0.047293 0.000000
# 6 0.000000 0.000000 0.000000 0.000000 0.000000 0.067465
#
#
# Mechanical properties :
#
#
# Convention : Reuss Voigt Hill
#
# Bulk Modulus (GPa) = 63.77160 73.75649 68.76405
# Shear Modulus (GPa) = 17.95992 19.85749 18.90870
#
# Velocity S-wave (km/s) = 3.15652 3.31909 3.23883
# Velocity P-wave (km/s) = 6.97592 7.45698 7.22046
#
# Compressibility (1/GPa) = 0.01568096
#
# Stress axis : x y z
#
# Youngs Moduli (GPa) = 38.49322 38.49553 87.38022
#
# Poissons Ratio (x) = 0.47509 0.50324
# Poissons Ratio (y) = 0.47507 0.50320
# Poissons Ratio (z) = 0.22169 0.22168
#
# Static dielectric constant tensor:
#      x y z
#    x 1.647230 0.000000 0.000000 
#    y 0.000000 1.647220 0.000000 
#    z 0.000000 0.000000 1.600580 
# 
# From -- ./inp_files/1559.got.cif
#   From: 2010.05.17/outbox.cif.g08.bks.cpg/sg119_1_cif.got.tgz:1559.got - 2010.05.20 11:21:29.
