data_PCOD9559037
_publ_section_title
;
Structure prediction by ZEFSAII (Michael W. Deem and Ramdas Pophale) SiO2 
 PCOD9559037
Probable space group: I -4 M 2
;
_chemical_formula_sum "Si O2"
_cell_formula_units_Z 42
_cell_length_a 12.272398
_cell_length_b 12.272398
_cell_length_c 15.103558
_cell_angle_alpha 90.000000
_cell_angle_beta 90.000000
_cell_angle_gamma 90.000000
_cell_volume 2274.773342
_symmetry_space_group_name_H-M "I -4 M 2"
_symmetry_group_IT_number 119
_symmetry_cell_setting 'tetragonal'
loop_
_space_group_symop_operation_xyz
x,y,z
y,-x,-z
-x,-y,z
-y,x,-z
y,x,-z
-y,-x,-z
-x,y,z
x,-y,z
1/2+x,1/2+y,1/2+z
1/2+y,1/2-x,1/2-z
1/2-x,1/2-y,1/2+z
1/2-y,1/2+x,1/2-z
1/2+y,1/2+x,1/2-z
1/2-y,1/2-x,1/2-z
1/2-x,1/2+y,1/2+z
1/2+x,1/2-y,1/2+z
loop_
_atom_site_type_symbol
_atom_site_label
_atom_site_fract_x
_atom_site_fract_y
_atom_site_fract_z
Si Si1 0.869875 0.500000 0.965900
Si Si2 0.251044 0.751044 0.750000
Si Si3 0.868786 0.724086 0.063506
Si Si4 0.000000 0.500000 0.750000
Si Si5 0.771770 0.500000 0.770636
O O1 0.814437 0.500000 0.870789
O O2 0.000000 0.500000 0.957912
O O3 0.841107 0.609664 0.017060
O O4 0.280808 0.814078 0.839621
O O5 0.275809 0.620274 0.757540
O O6 0.000000 0.736327 0.069745
O O7 0.816836 0.816836 0.000000
O O8 0.120312 0.500000 0.707813
#
# Coordination Sequence:
#
# PCOD9559037 Si02
#       5
#     8   8  16   2   8
#     4  10  20  40  64  90 118 160 214 262 303 362
#     4  11  24  39  61  94 127 162 210 252 319 370
#     4  11  25  42  65  92 128 166 207 260 317 378
#     4   8  16  24  56  88 112 130 204 264 296 312
#     4  10  18  34  63  87 116 155 207 261 295 357
#
# _framework density 18.463379
#
# number of rings (size 3 to 8) (size 9 to 14) (size 15 to 20)
#    0.000    1.524    4.762    0.000    5.333    0.381 
#    0.000    0.000    0.000    2.857    0.000    0.000 
#    0.000    0.000    0.000    0.000    0.000    0.000 
#
# Total GULP energy -116944.668911 kJ/mol
# GULP energy per Si atom -5568.793758 kJ/mol
# Density = 1.842136 g / cm^3
# Si number density = 18.463379 Si / 1000 Ang^3
#
#
#
# Elastic Constant Matrix: (Units=GPa)
#
#
# Indices 1 2 3 4 5 6 
#
# 1 78.7376 43.6123 51.3584 0.0000 0.0000 0.0000
# 2 43.6123 78.7376 51.3584 0.0000 0.0000 0.0000
# 3 51.3584 51.3584 153.7737 0.0000 0.0000 0.0000
# 4 0.0000 0.0000 0.0000 38.1545 0.0000 0.0000
# 5 0.0000 0.0000 0.0000 0.0000 38.1545 0.0000
# 6 0.0000 0.0000 0.0000 0.0000 0.0000 24.0861
#
#
#
# Elastic Compliance Matrix: (Units=1/GPa)
#
#
# Indices 1 2 3 4 5 6 
#
# 1 0.019914 -0.008556 -0.003793 0.000000 0.000000 0.000000
# 2 -0.008556 0.019914 -0.003793 0.000000 0.000000 0.000000
# 3 -0.003793 -0.003793 0.009037 0.000000 0.000000 0.000000
# 4 0.000000 0.000000 0.000000 0.026209 0.000000 0.000000
# 5 0.000000 0.000000 0.000000 0.000000 0.026209 0.000000
# 6 0.000000 0.000000 0.000000 0.000000 0.000000 0.041518
#
#
# Mechanical properties :
#
#
# Convention : Reuss Voigt Hill
#
# Bulk Modulus (GPa) = 60.31630 67.10078 63.70854
# Shear Modulus (GPa) = 27.68360 31.07366 29.37863
#
# Velocity S-wave (km/s) = 3.87638 4.10687 3.99329
# Velocity P-wave (km/s) = 7.26458 7.67529 7.47276
#
# Compressibility (1/GPa) = 0.01657927
#
# Stress axis : x y z
#
# Youngs Moduli (GPa) = 50.21654 50.21654 110.65658
#
# Poissons Ratio (x) = 0.42964 0.41977
# Poissons Ratio (y) = 0.42964 0.41977
# Poissons Ratio (z) = 0.19049 0.19049
#
# Static dielectric constant tensor:
#      x y z
#    x 1.653320 0.000000 0.000000 
#    y 0.000000 1.653320 0.000000 
#    z 0.000000 0.000000 1.700170 
# 
# From -- ./inp_files/5973.got.cif
#   From: 2010.05.17/outbox.cif.g08.bks.cpg/sg119_3_cif.got.tgz:5973.got - 2010.05.20 11:21:29.
