data_PCOD9559289
_publ_section_title
;
Structure prediction by ZEFSAII (Michael W. Deem and Ramdas Pophale) SiO2 
 PCOD9559289
Probable space group: I -4 M 2
;
_chemical_formula_sum "Si O2"
_cell_formula_units_Z 80
_cell_length_a 28.435734
_cell_length_b 28.435734
_cell_length_c 5.110901
_cell_angle_alpha 90.000000
_cell_angle_beta 90.000000
_cell_angle_gamma 90.000000
_cell_volume 4132.628388
_symmetry_space_group_name_H-M "I -4 M 2"
_symmetry_group_IT_number 119
_symmetry_cell_setting 'tetragonal'
loop_
_space_group_symop_operation_xyz
x,y,z
y,-x,-z
-x,-y,z
-y,x,-z
y,x,-z
-y,-x,-z
-x,y,z
x,-y,z
1/2+x,1/2+y,1/2+z
1/2+y,1/2-x,1/2-z
1/2-x,1/2-y,1/2+z
1/2-y,1/2+x,1/2-z
1/2+y,1/2+x,1/2-z
1/2-y,1/2-x,1/2-z
1/2-x,1/2+y,1/2+z
1/2+x,1/2-y,1/2+z
loop_
_atom_site_type_symbol
_atom_site_label
_atom_site_fract_x
_atom_site_fract_y
_atom_site_fract_z
Si Si1 0.771959 0.306812 0.507946
Si Si2 0.682943 0.359703 0.737034
Si Si3 0.444007 0.899587 0.506450
Si Si4 0.945613 0.234133 0.583276
Si Si5 0.554814 0.204825 0.606264
O O1 0.741762 0.258239 0.500000
O O2 0.806666 0.306666 0.750000
O O3 0.731175 0.343230 0.589658
O O4 0.803369 0.303369 0.250000
O O5 0.646087 0.353914 0.500000
O O6 0.691437 0.411933 0.840361
O O7 0.671083 0.328918 0.000000
O O8 0.500000 0.896828 0.456388
O O9 0.433140 0.933140 0.750000
O O10 0.425938 0.847478 0.581880
O O11 0.418649 0.918649 0.250000
O O12 0.925302 0.261141 0.329811
O O13 0.000000 0.220278 0.538331
O O14 0.944640 0.270095 0.826449
O O15 0.500000 0.199046 0.686719
#
# Coordination Sequence:
#
# PCOD9559289 Si02
#       5
#    16  16  16  16  16
#     4   9  16  28  45  64  93 135 172 200 242 303
#     4  11  21  34  55  83 113 143 178 220 268 321
#     4  11  22  36  55  78 107 140 178 231 291 347
#     4  10  20  37  59  80 106 142 184 225 270 319
#     4   9  19  36  56  74  97 137 182 223 268 318
#
# _framework density 19.358142000000001
#
# number of rings (size 3 to 8) (size 9 to 14) (size 15 to 20)
#    0.000    2.000    0.000    6.000    0.000    4.400 
#    0.000    4.000    0.000   16.800    0.000    0.000 
#    0.000    2.400    0.000    0.000    0.000    0.000 
#
# Total GULP energy -223016.148484 kJ/mol
# GULP energy per Si atom -5575.403712 kJ/mol
# Density = 1.931408 g / cm^3
# Si number density = 19.358142 Si / 1000 Ang^3
#
#
#
# Elastic Constant Matrix: (Units=GPa)
#
#
# Indices 1 2 3 4 5 6 
#
# 1 64.7882 32.3661 32.9493 0.0000 0.0000 0.0000
# 2 32.3661 64.7903 32.9469 0.0000 0.0000 0.0000
# 3 32.9493 32.9469 136.5028 0.0000 0.0000 0.0000
# 4 0.0000 0.0000 0.0000 23.0881 0.0000 0.0000
# 5 0.0000 0.0000 0.0000 0.0000 23.0876 0.0000
# 6 0.0000 0.0000 0.0000 0.0000 0.0000 11.3298
#
#
#
# Elastic Compliance Matrix: (Units=1/GPa)
#
#
# Indices 1 2 3 4 5 6 
#
# 1 0.021576 -0.009267 -0.002971 0.000000 0.000000 0.000000
# 2 -0.009267 0.021574 -0.002970 0.000000 0.000000 0.000000
# 3 -0.002971 -0.002970 0.008760 0.000000 0.000000 0.000000
# 4 0.000000 0.000000 0.000000 0.043312 0.000000 0.000000
# 5 0.000000 0.000000 0.000000 0.000000 0.043313 0.000000
# 6 0.000000 0.000000 0.000000 0.000000 0.000000 0.088262
#
#
# Mechanical properties :
#
#
# Convention : Reuss Voigt Hill
#
# Bulk Modulus (GPa) = 46.52806 51.40067 48.96436
# Shear Modulus (GPa) = 18.91221 22.68905 20.80063
#
# Velocity S-wave (km/s) = 3.12903 3.42726 3.28154
# Velocity P-wave (km/s) = 6.09443 6.50166 6.30134
#
# Compressibility (1/GPa) = 0.02149241
#
# Stress axis : x y z
#
# Youngs Moduli (GPa) = 46.34878 46.35144 114.15559
#
# Poissons Ratio (x) = 0.42955 0.33918
# Poissons Ratio (y) = 0.42952 0.33908
# Poissons Ratio (z) = 0.13771 0.13768
#
# Static dielectric constant tensor:
#      x y z
#    x 1.714540 0.000000 0.000000 
#    y 0.000000 1.714540 0.000000 
#    z 0.000000 0.000000 1.663220 
# 
# From -- ./inp_files/1007.got.cif
#   From: 2010.05.17/outbox.cif.g08.bks.cpg/sg119_1_cif.got.tgz:1007.got - 2010.05.20 11:21:29.
