data_PCOD9559855
_publ_section_title
;
Structure prediction by ZEFSAII (Michael W. Deem and Ramdas Pophale) SiO2 
 PCOD9559855
Probable space group: I -4 C 2
;
_chemical_formula_sum "Si O2"
_cell_formula_units_Z 64
_cell_length_a 14.483797
_cell_length_b 14.483797
_cell_length_c 14.618171
_cell_angle_alpha 90.000000
_cell_angle_beta 90.000000
_cell_angle_gamma 90.000000
_cell_volume 3066.605402
_symmetry_space_group_name_H-M "I -4 C 2"
_symmetry_group_IT_number 120
_symmetry_cell_setting 'tetragonal'
loop_
_space_group_symop_operation_xyz
x,y,z
y,-x,-z
-x,-y,z
-y,x,-z
y,x,1/2-z
-y,-x,1/2-z
-x,y,1/2+z
x,-y,1/2+z
1/2+x,1/2+y,1/2+z
1/2+y,1/2-x,1/2-z
1/2-x,1/2-y,1/2+z
1/2-y,1/2+x,1/2-z
1/2+y,1/2+x,-z
1/2-y,1/2-x,-z
1/2-x,1/2+y,z
1/2+x,1/2-y,z
loop_
_atom_site_type_symbol
_atom_site_label
_atom_site_fract_x
_atom_site_fract_y
_atom_site_fract_z
Si Si1 0.905604 0.965034 0.851928
Si Si2 0.743777 0.914725 0.411503
Si Si3 0.856742 0.527832 0.268539
Si Si4 0.740681 0.372471 0.616446
O O1 0.935730 0.935730 0.750000
O O2 0.858977 0.869536 0.885507
O O3 0.837942 0.050936 0.865648
O O4 0.000000 0.000000 0.897634
O O5 0.715718 0.809238 0.387540
O O6 0.741362 0.924170 0.520508
O O7 0.672638 0.984416 0.364278
O O8 0.899438 0.438617 0.217807
O O9 0.776226 0.571382 0.205590
#
# Coordination Sequence:
#
# PCOD9559855 Si02
#       4
#    16  16  16  16
#     4  11  24  44  65  95 127 171 217 268 327 393
#     4  10  22  41  62  95 132 166 218 274 322 402
#     4   9  18  37  62  89 127 173 217 271 330 389
#     4  10  22  41  64  95 131 168 217 269 333 394
#
# _framework density 20.869980000000002
#
# number of rings (size 3 to 8) (size 9 to 14) (size 15 to 20)
#    0.000    2.000    2.500    0.000    3.500    1.000 
#    9.000    5.000    0.000    0.000    0.000    0.000 
#    0.000    0.000    0.000    0.000    0.000    0.000 
#
# Total GULP energy -178203.775038 kJ/mol
# GULP energy per Si atom -5568.867970 kJ/mol
# Density = 2.082248 g / cm^3
# Si number density = 20.869980 Si / 1000 Ang^3
#
#
#
# Elastic Constant Matrix: (Units=GPa)
#
#
# Indices 1 2 3 4 5 6 
#
# 1 67.7547 90.6752 24.1298 0.0000 0.0000 0.0000
# 2 90.6752 67.7547 24.1298 0.0000 0.0000 0.0000
# 3 24.1298 24.1298 93.3859 0.0000 0.0000 0.0000
# 4 0.0000 0.0000 0.0000 -37.7449 0.0000 0.0000
# 5 0.0000 0.0000 0.0000 0.0000 -37.7449 0.0000
# 6 0.0000 0.0000 0.0000 0.0000 0.0000 33.7572
#
#
#
# Elastic Compliance Matrix: (Units=1/GPa)
#
#
# Indices 1 2 3 4 5 6 
#
# 1 -0.018389 0.025240 -0.001770 0.000000 0.000000 0.000000
# 2 0.025240 -0.018389 -0.001770 0.000000 0.000000 0.000000
# 3 -0.001770 -0.001770 0.011623 0.000000 0.000000 0.000000
# 4 0.000000 0.000000 0.000000 -0.026494 0.000000 0.000000
# 5 0.000000 0.000000 0.000000 0.000000 -0.026494 0.000000
# 6 0.000000 0.000000 0.000000 0.000000 0.000000 0.029623
#
#
# Mechanical properties :
#
#
# Convention : Reuss Voigt Hill
#
# Bulk Modulus (GPa) = 54.81135 56.30721 55.55928
# Shear Modulus (GPa) = -58.25037 -2.34916 -30.29977
#
# Velocity S-wave (km/s) = -5.28883 -1.06210 -3.81443
# Velocity P-wave (km/s) = 3.31290 5.05317 2.69807
#
# Compressibility (1/GPa) = 0.01824440
#
# Stress axis : x y z
#
# Youngs Moduli (GPa) = -54.38061 -54.38062 86.03565
#
# Poissons Ratio (x) = 1.37257 0.15231
# Poissons Ratio (y) = 1.37257 0.15231
# Poissons Ratio (z) = -0.09627 -0.09627
#
# Static dielectric constant tensor:
#      x y z
#    x 1.800030 0.000000 0.000000 
#    y 0.000000 1.800030 0.000000 
#    z 0.000000 0.000000 1.783640 
# 
# From -- ./inp_files/3297.got.cif
#   From: 2010.05.17/outbox.cif.g08.bks.cpg/sg120_2_cif.got.tgz:3297.got - 2010.05.20 11:28:13.
