data_PCOD9559214
_publ_section_title
;
Structure prediction by ZEFSAII (Michael W. Deem and Ramdas Pophale) SiO2 
 PCOD9559214
Probable space group: I -4 M 2
;
_chemical_formula_sum "Si O2"
_cell_formula_units_Z 128
_cell_length_a 23.623272
_cell_length_b 23.623272
_cell_length_c 14.246102
_cell_angle_alpha 90.000000
_cell_angle_beta 90.000000
_cell_angle_gamma 90.000000
_cell_volume 7950.165151
_symmetry_space_group_name_H-M "I -4 M 2"
_symmetry_group_IT_number 119
_symmetry_cell_setting 'tetragonal'
loop_
_space_group_symop_operation_xyz
x,y,z
y,-x,-z
-x,-y,z
-y,x,-z
y,x,-z
-y,-x,-z
-x,y,z
x,-y,z
1/2+x,1/2+y,1/2+z
1/2+y,1/2-x,1/2-z
1/2-x,1/2-y,1/2+z
1/2-y,1/2+x,1/2-z
1/2+y,1/2+x,1/2-z
1/2-y,1/2-x,1/2-z
1/2-x,1/2+y,1/2+z
1/2+x,1/2-y,1/2+z
loop_
_atom_site_type_symbol
_atom_site_label
_atom_site_fract_x
_atom_site_fract_y
_atom_site_fract_z
Si Si1 0.175789 0.621585 0.541652
Si Si2 0.111252 0.565261 0.848852
Si Si3 0.129777 0.779279 0.816327
Si Si4 0.352116 0.435961 0.533155
Si Si5 0.336923 0.743017 0.758852
Si Si6 0.064957 0.252353 0.633268
Si Si7 0.563326 0.250626 0.611377
Si Si8 0.749429 0.158101 0.524197
O O1 0.115482 0.598462 0.577487
O O2 0.218837 0.630403 0.629608
O O3 0.204863 0.580141 0.467537
O O4 0.170117 0.682956 0.492807
O O5 0.095130 0.500000 0.871105
O O6 0.083901 0.583901 0.750000
O O7 0.179919 0.566960 0.846635
O O8 0.105480 0.824188 0.890567
O O9 0.190594 0.799034 0.778419
O O10 0.088490 0.775604 0.727580
O O11 0.411654 0.411654 0.500000
O O12 0.354394 0.500000 0.568858
O O13 0.309891 0.434948 0.444435
O O14 0.298322 0.798322 0.750000
O O15 0.391063 0.748523 0.692976
O O16 0.354239 0.737428 0.867431
O O17 0.106818 0.237893 0.547434
O O18 0.000000 0.237249 0.613818
O O19 0.500000 0.240640 0.646140
O O20 0.786727 0.213274 0.500000
#
# Coordination Sequence:
#
# PCOD9559214 Si02
#       8
#    16  16  16  16  16  16  16  16
#     4  10  21  34  54  79 110 142 178 219 275 330
#     4  10  20  34  51  76 109 145 183 223 268 325
#     4  11  20  33  57  81 112 143 173 224 275 329
#     4  10  20  35  55  82 113 148 182 218 265 323
#     4  12  22  34  57  85 106 138 183 228 278 321
#     4  10  21  35  52  78 110 144 179 216 269 330
#     4  10  22  38  55  77 109 143 181 225 272 325
#     4  11  21  33  53  81 109 138 176 220 274 322
#
# _framework density 16.100294999999999
#
# number of rings (size 3 to 8) (size 9 to 14) (size 15 to 20)
#    0.000    1.500    5.000    1.125    1.750    1.750 
#    0.000    0.000    0.000    0.000    0.000    0.000 
#    0.000    1.250    0.000    0.000    0.000    0.000 
#
# Total GULP energy -357037.403022 kJ/mol
# GULP energy per Si atom -5578.709422 kJ/mol
# Density = 1.606365 g / cm^3
# Si number density = 16.100295 Si / 1000 Ang^3
#
#
#
# Elastic Constant Matrix: (Units=GPa)
#
#
# Indices 1 2 3 4 5 6 
#
# 1 73.4916 16.0945 20.3743 0.0000 0.0000 0.0000
# 2 16.0945 73.4869 20.3723 0.0000 0.0000 0.0000
# 3 20.3743 20.3723 80.8717 0.0000 0.0000 0.0000
# 4 0.0000 0.0000 0.0000 20.4780 0.0000 0.0000
# 5 0.0000 0.0000 0.0000 0.0000 20.4781 0.0000
# 6 0.0000 0.0000 0.0000 0.0000 0.0000 9.5031
#
#
#
# Elastic Compliance Matrix: (Units=1/GPa)
#
#
# Indices 1 2 3 4 5 6 
#
# 1 0.015015 -0.002408 -0.003176 0.000000 0.000000 0.000000
# 2 -0.002408 0.015016 -0.003176 0.000000 0.000000 0.000000
# 3 -0.003176 -0.003176 0.013965 0.000000 0.000000 0.000000
# 4 0.000000 0.000000 0.000000 0.048833 0.000000 0.000000
# 5 0.000000 0.000000 0.000000 0.000000 0.048833 0.000000
# 6 0.000000 0.000000 0.000000 0.000000 0.000000 0.105229
#
#
# Mechanical properties :
#
#
# Convention : Reuss Voigt Hill
#
# Bulk Modulus (GPa) = 37.77010 37.94803 37.85907
# Shear Modulus (GPa) = 18.29922 21.49245 19.89584
#
# Velocity S-wave (km/s) = 3.37497 3.65761 3.51913
# Velocity P-wave (km/s) = 6.22073 6.43882 6.33071
#
# Compressibility (1/GPa) = 0.02647597
#
# Stress axis : x y z
#
# Youngs Moduli (GPa) = 66.60066 66.59710 71.60503
#
# Poissons Ratio (x) = 0.16036 0.22743
# Poissons Ratio (y) = 0.16037 0.22741
# Poissons Ratio (z) = 0.21154 0.21151
#
# Static dielectric constant tensor:
#      x y z
#    x 1.536250 0.000000 0.000000 
#    y 0.000000 1.536250 0.000000 
#    z 0.000000 0.000000 1.525490 
# 
# From -- ./inp_files/4455.got.cif
#   From: 2010.05.17/outbox.cif.g08.bks.cpg/sg119_3_cif.got.tgz:4455.got - 2010.05.20 11:21:29.
