data_PCOD9559410
_publ_section_title
;
Structure prediction by ZEFSAII (Michael W. Deem and Ramdas Pophale) SiO2 
 PCOD9559410
Probable space group: I -4 M 2
;
_chemical_formula_sum "Si O2"
_cell_formula_units_Z 96
_cell_length_a 15.706905
_cell_length_b 15.706905
_cell_length_c 18.776128
_cell_angle_alpha 90.000000
_cell_angle_beta 90.000000
_cell_angle_gamma 90.000000
_cell_volume 4632.199670
_symmetry_space_group_name_H-M "I -4 M 2"
_symmetry_group_IT_number 119
_symmetry_cell_setting 'tetragonal'
loop_
_space_group_symop_operation_xyz
x,y,z
y,-x,-z
-x,-y,z
-y,x,-z
y,x,-z
-y,-x,-z
-x,y,z
x,-y,z
1/2+x,1/2+y,1/2+z
1/2+y,1/2-x,1/2-z
1/2-x,1/2-y,1/2+z
1/2-y,1/2+x,1/2-z
1/2+y,1/2+x,1/2-z
1/2-y,1/2-x,1/2-z
1/2-x,1/2+y,1/2+z
1/2+x,1/2-y,1/2+z
loop_
_atom_site_type_symbol
_atom_site_label
_atom_site_fract_x
_atom_site_fract_y
_atom_site_fract_z
Si Si1 0.323929 0.691757 0.211944
Si Si2 0.900560 0.215242 0.553904
Si Si3 0.906694 0.337216 0.319654
Si Si4 0.403265 0.751228 0.588142
Si Si5 0.803082 0.907518 0.146356
Si Si6 0.094513 0.651285 0.946270
O O1 0.264851 0.764851 0.250000
O O2 0.361690 0.706673 0.133690
O O3 0.258802 0.612948 0.205275
O O4 0.396339 0.679311 0.270246
O O5 0.839560 0.160441 0.500000
O O6 0.897691 0.317640 0.540617
O O7 0.000000 0.187914 0.549688
O O8 0.895217 0.395217 0.250000
O O9 0.832689 0.362571 0.373413
O O10 0.000000 0.346011 0.350867
O O11 0.500000 0.740965 0.613183
O O12 0.349386 0.669610 0.607719
O O13 0.404375 0.774290 0.505492
O O14 0.702592 0.901728 0.127990
O O15 0.832512 0.000000 0.121653
O O16 0.000000 0.609726 0.952218
#
# Coordination Sequence:
#
# PCOD9559410 Si02
#       6
#    16  16  16  16  16  16
#     4  11  21  41  67  95 128 171 226 284 344 409
#     4  12  26  45  70 100 141 189 237 289 347 416
#     4  11  22  37  61  89 123 167 216 276 339 403
#     4  11  22  37  56  87 127 165 209 264 330 407
#     4  11  21  38  63  90 120 164 219 274 339 408
#     4  10  22  40  66  94 126 167 217 279 350 418
#
# _framework density 20.724495000000001
#
# number of rings (size 3 to 8) (size 9 to 14) (size 15 to 20)
#    0.000    1.000    5.000    3.500    0.000    4.667 
#    0.000    1.667    0.000    6.000    0.000    0.000 
#    0.000    0.000    0.000    0.000    0.000    0.000 
#
# Total GULP energy -267853.104013 kJ/mol
# GULP energy per Si atom -5580.273000 kJ/mol
# Density = 2.067733 g / cm^3
# Si number density = 20.724495 Si / 1000 Ang^3
#
#
#
# Elastic Constant Matrix: (Units=GPa)
#
#
# Indices 1 2 3 4 5 6 
#
# 1 107.8115 59.3985 19.9728 0.0000 0.0000 0.0000
# 2 59.3985 107.8079 19.9719 0.0000 0.0000 0.0000
# 3 19.9728 19.9719 95.3785 0.0000 0.0000 0.0000
# 4 0.0000 0.0000 0.0000 4.6831 0.0000 0.0000
# 5 0.0000 0.0000 0.0000 0.0000 4.6827 0.0000
# 6 0.0000 0.0000 0.0000 0.0000 0.0000 4.8381
#
#
#
# Elastic Compliance Matrix: (Units=1/GPa)
#
#
# Indices 1 2 3 4 5 6 
#
# 1 0.013476 -0.007180 -0.001318 0.000000 0.000000 0.000000
# 2 -0.007180 0.013476 -0.001318 0.000000 0.000000 0.000000
# 3 -0.001318 -0.001318 0.011037 0.000000 0.000000 0.000000
# 4 0.000000 0.000000 0.000000 0.213536 0.000000 0.000000
# 5 0.000000 0.000000 0.000000 0.000000 0.213553 0.000000
# 6 0.000000 0.000000 0.000000 0.000000 0.000000 0.206692
#
#
# Mechanical properties :
#
#
# Convention : Reuss Voigt Hill
#
# Bulk Modulus (GPa) = 54.48256 56.63160 55.55708
# Shear Modulus (GPa) = 7.16824 16.95107 12.05966
#
# Velocity S-wave (km/s) = 1.86181 2.86304 2.41488
# Velocity P-wave (km/s) = 5.56487 6.18988 5.88568
#
# Compressibility (1/GPa) = 0.01835450
#
# Stress axis : x y z
#
# Youngs Moduli (GPa) = 74.20745 74.20515 90.60720
#
# Poissons Ratio (x) = 0.53283 0.11945
# Poissons Ratio (y) = 0.53284 0.11944
# Poissons Ratio (z) = 0.09783 0.09782
#
# Static dielectric constant tensor:
#      x y z
#    x 1.761140 0.000000 0.000000 
#    y 0.000000 1.761140 0.000000 
#    z 0.000000 0.000000 1.786230 
# 
# From -- ./inp_files/7770.got.cif
#   From: 2010.05.17/outbox.cif.g08.bks.cpg/sg119_4_cif.got.tgz:7770.got - 2010.05.20 11:21:29.
