data_PCOD9559557
_publ_section_title
;
Structure prediction by ZEFSAII (Michael W. Deem and Ramdas Pophale) SiO2 
 PCOD9559557
Probable space group: I -4 C 2
;
_chemical_formula_sum "Si O2"
_cell_formula_units_Z 72
_cell_length_a 29.159801
_cell_length_b 29.159801
_cell_length_c 5.334370
_cell_angle_alpha 90.000000
_cell_angle_beta 90.000000
_cell_angle_gamma 90.000000
_cell_volume 4535.782775
_symmetry_space_group_name_H-M "I -4 C 2"
_symmetry_group_IT_number 120
_symmetry_cell_setting 'tetragonal'
loop_
_space_group_symop_operation_xyz
x,y,z
y,-x,-z
-x,-y,z
-y,x,-z
y,x,1/2-z
-y,-x,1/2-z
-x,y,1/2+z
x,-y,1/2+z
1/2+x,1/2+y,1/2+z
1/2+y,1/2-x,1/2-z
1/2-x,1/2-y,1/2+z
1/2-y,1/2+x,1/2-z
1/2+y,1/2+x,-z
1/2-y,1/2-x,-z
1/2-x,1/2+y,z
1/2+x,1/2-y,z
loop_
_atom_site_type_symbol
_atom_site_label
_atom_site_fract_x
_atom_site_fract_y
_atom_site_fract_z
Si Si1 0.626058 0.743557 0.635250
Si Si2 0.228151 0.728151 0.500000
Si Si3 0.883555 0.187611 0.134956
Si Si4 0.524691 0.238954 0.184248
Si Si5 0.656829 0.486680 0.857558
O O1 0.675657 0.765479 0.587864
O O2 0.612956 0.723739 0.361813
O O3 0.578947 0.769650 0.709202
O O4 0.632341 0.708526 0.869587
O O5 0.258350 0.741651 0.750000
O O6 0.849346 0.150655 0.250000
O O7 0.933884 0.167569 0.098279
O O8 0.497173 0.221718 0.425970
O O9 0.514786 0.294531 0.172348
O O10 0.632147 0.492614 0.595334
#
# Coordination Sequence:
#
# PCOD9559557 Si02
#       5
#    16   8  16  16  16
#     4  12  21  35  50  64  93 131 164 201 236 273
#     4  12  26  40  46  64 100 144 182 197 218 287
#     4  12  21  30  48  71  92 119 153 195 245 286
#     4  10  16  30  51  70  84 111 150 206 253 284
#     4  10  16  30  46  67  90 110 138 198 247 292
#
# _framework density 15.873775
#
# number of rings (size 3 to 8) (size 9 to 14) (size 15 to 20)
#    0.000    0.889    8.889    4.000    0.000    0.000 
#    0.000    0.000    0.000    0.000    0.000    0.000 
#    0.000    2.667    0.000    0.000    0.000    3.333 
#
# Total GULP energy -200440.457471 kJ/mol
# GULP energy per Si atom -5567.790485 kJ/mol
# Density = 1.583765 g / cm^3
# Si number density = 15.873775 Si / 1000 Ang^3
#
#
#
# Elastic Constant Matrix: (Units=GPa)
#
#
# Indices 1 2 3 4 5 6 
#
# 1 64.3584 32.3538 32.1157 0.0000 0.0000 0.0000
# 2 32.3538 64.3526 32.1135 0.0000 0.0000 0.0000
# 3 32.1157 32.1135 148.6581 0.0000 0.0000 0.0000
# 4 0.0000 0.0000 0.0000 20.9990 0.0000 0.0000
# 5 0.0000 0.0000 0.0000 0.0000 20.9995 0.0000
# 6 0.0000 0.0000 0.0000 0.0000 0.0000 -5.0385
#
#
#
# Elastic Compliance Matrix: (Units=1/GPa)
#
#
# Indices 1 2 3 4 5 6 
#
# 1 0.021659 -0.009588 -0.002608 0.000000 0.000000 0.000000
# 2 -0.009588 0.021661 -0.002608 0.000000 0.000000 0.000000
# 3 -0.002608 -0.002608 0.007854 0.000000 0.000000 0.000000
# 4 0.000000 0.000000 0.000000 0.047621 0.000000 0.000000
# 5 0.000000 0.000000 0.000000 0.000000 0.047620 0.000000
# 6 0.000000 0.000000 0.000000 0.000000 0.000000 -0.198471
#
#
# Mechanical properties :
#
#
# Convention : Reuss Voigt Hill
#
# Bulk Modulus (GPa) = 46.36843 52.28169 49.32506
# Shear Modulus (GPa) = -327.67529 19.44442 -154.11543
#
# Velocity S-wave (km/s) = -14.38310 3.50371 -9.86402
# Velocity P-wave (km/s) = 15.70215 7.02676 9.92930
#
# Compressibility (1/GPa) = 0.02156640
#
# Stress axis : x y z
#
# Youngs Moduli (GPa) = 46.16924 46.16537 127.32927
#
# Poissons Ratio (x) = 0.44263 0.33208
# Poissons Ratio (y) = 0.44267 0.33207
# Poissons Ratio (z) = 0.12041 0.12040
#
# Static dielectric constant tensor:
#      x y z
#    x 1.537570 0.000000 0.000000 
#    y 0.000000 1.537570 0.000000 
#    z 0.000000 0.000000 1.645920 
# 
# From -- ./inp_files/407.got.cif
#   From: 2010.05.17/outbox.cif.g08.bks.cpg/sg120_1_cif.got.tgz:407.got - 2010.05.20 11:28:13.
