data_PCOD9559905
_publ_section_title
;
Structure prediction by ZEFSAII (Michael W. Deem and Ramdas Pophale) SiO2 
 PCOD9559905
Probable space group: I -4 C 2
;
_chemical_formula_sum "Si O2"
_cell_formula_units_Z 116
_cell_length_a 19.129987
_cell_length_b 19.129987
_cell_length_c 15.418229
_cell_angle_alpha 90.000000
_cell_angle_beta 90.000000
_cell_angle_gamma 90.000000
_cell_volume 5642.399620
_symmetry_space_group_name_H-M "I -4 C 2"
_symmetry_group_IT_number 120
_symmetry_cell_setting 'tetragonal'
loop_
_space_group_symop_operation_xyz
x,y,z
y,-x,-z
-x,-y,z
-y,x,-z
y,x,1/2-z
-y,-x,1/2-z
-x,y,1/2+z
x,-y,1/2+z
1/2+x,1/2+y,1/2+z
1/2+y,1/2-x,1/2-z
1/2-x,1/2-y,1/2+z
1/2-y,1/2+x,1/2-z
1/2+y,1/2+x,-z
1/2-y,1/2-x,-z
1/2-x,1/2+y,z
1/2+x,1/2-y,z
loop_
_atom_site_type_symbol
_atom_site_label
_atom_site_fract_x
_atom_site_fract_y
_atom_site_fract_z
Si Si1 0.256571 0.858625 0.551842
Si Si2 0.122033 0.684610 0.753671
Si Si3 0.118466 0.776595 0.594085
Si Si4 0.469745 0.849521 0.789718
Si Si5 0.610021 0.482344 0.640082
Si Si6 0.385504 0.493487 0.843799
Si Si7 0.500000 0.000000 0.750000
Si Si8 0.256380 0.015948 0.542507
O O1 0.305338 0.805338 0.500000
O O2 0.280839 0.866675 0.652503
O O3 0.178516 0.826974 0.556694
O O4 0.264079 0.936002 0.510415
O O5 0.148322 0.732461 0.674711
O O6 0.154353 0.606754 0.752572
O O7 0.038102 0.676827 0.738101
O O8 0.080783 0.731146 0.521002
O O9 0.051574 0.821160 0.625675
O O10 0.471731 0.807499 0.877713
O O11 0.484798 0.931366 0.805383
O O12 0.627025 0.486224 0.742976
O O13 0.565553 0.413340 0.616168
O O14 0.558938 0.549438 0.637166
O O15 0.677678 0.484136 0.581264
#
# Coordination Sequence:
#
# PCOD9559905 Si02
#       8
#    16  16  16  16  16  16   4  16
#     4  11  26  46  66  95 137 179 224 274 339 401
#     4  10  23  43  73  93 127 172 218 280 340 415
#     4  12  25  39  67  94 135 180 223 266 336 406
#     4   9  20  41  69  98 123 158 219 278 338 402
#     4   9  18  35  58  90 126 170 219 271 307 380
#     4   9  18  34  60  86 124 176 226 255 315 375
#     4   8  16  40  72  94 116 164 210 276 350 400
#     4  11  24  40  62  99 138 167 224 276 326 399
#
# _framework density 20.558629
#
# number of rings (size 3 to 8) (size 9 to 14) (size 15 to 20)
#    0.000    1.931    1.379    2.897    7.724    0.000 
#    0.000    1.379    0.000    0.000    0.000    0.000 
#    0.000    0.000    0.000    0.000    0.000    0.000 
#
# Total GULP energy -323434.732900 kJ/mol
# GULP energy per Si atom -5576.460912 kJ/mol
# Density = 2.051184 g / cm^3
# Si number density = 20.558629 Si / 1000 Ang^3
#
#
#
# Elastic Constant Matrix: (Units=GPa)
#
#
# Indices 1 2 3 4 5 6 
#
# 1 49.9374 42.2928 19.9975 0.0000 0.0000 0.0000
# 2 42.2928 49.9374 19.9975 0.0000 0.0000 0.0000
# 3 19.9975 19.9975 43.6254 0.0000 0.0000 0.0000
# 4 0.0000 0.0000 0.0000 22.5507 0.0000 0.0000
# 5 0.0000 0.0000 0.0000 0.0000 22.5507 0.0000
# 6 0.0000 0.0000 0.0000 0.0000 0.0000 -11.0495
#
#
#
# Elastic Compliance Matrix: (Units=1/GPa)
#
#
# Indices 1 2 3 4 5 6 
#
# 1 0.072172 -0.058640 -0.006203 0.000000 0.000000 0.000000
# 2 -0.058640 0.072172 -0.006203 0.000000 0.000000 0.000000
# 3 -0.006203 -0.006203 0.028609 0.000000 0.000000 0.000000
# 4 0.000000 0.000000 0.000000 0.044344 0.000000 0.000000
# 5 0.000000 0.000000 0.000000 0.000000 0.044344 0.000000
# 6 0.000000 0.000000 0.000000 0.000000 0.000000 -0.090502
#
#
# Mechanical properties :
#
#
# Convention : Reuss Voigt Hill
#
# Bulk Modulus (GPa) = 32.40270 34.23062 33.31666
# Shear Modulus (GPa) = 15.45503 10.89121 13.17312
#
# Velocity S-wave (km/s) = 2.74479 2.30416 2.53407
# Velocity P-wave (km/s) = 5.08335 4.87496 4.98025
#
# Compressibility (1/GPa) = 0.03086163
#
# Stress axis : x y z
#
# Youngs Moduli (GPa) = 13.85579 13.85579 34.95361
#
# Poissons Ratio (x) = 0.81250 0.21682
# Poissons Ratio (y) = 0.81250 0.21682
# Poissons Ratio (z) = 0.08595 0.08595
#
# Static dielectric constant tensor:
#      x y z
#    x 1.745900 0.000000 0.000000 
#    y 0.000000 1.745900 0.000000 
#    z 0.000000 0.000000 1.811810 
# 
# From -- ./inp_files/4571.got.cif
#   From: 2010.05.17/outbox.cif.g08.bks.cpg/sg120_3_cif.got.tgz:4571.got - 2010.05.20 11:28:13.
