data_PCOD9559737
_publ_section_title
;
Structure prediction by ZEFSAII (Michael W. Deem and Ramdas Pophale) SiO2 
 PCOD9559737
Probable space group: I -4 C 2
;
_chemical_formula_sum "Si O2"
_cell_formula_units_Z 56
_cell_length_a 13.899550
_cell_length_b 13.899550
_cell_length_c 13.959376
_cell_angle_alpha 90.000000
_cell_angle_beta 90.000000
_cell_angle_gamma 90.000000
_cell_volume 2696.916408
_symmetry_space_group_name_H-M "I -4 C 2"
_symmetry_group_IT_number 120
_symmetry_cell_setting 'tetragonal'
loop_
_space_group_symop_operation_xyz
x,y,z
y,-x,-z
-x,-y,z
-y,x,-z
y,x,1/2-z
-y,-x,1/2-z
-x,y,1/2+z
x,-y,1/2+z
1/2+x,1/2+y,1/2+z
1/2+y,1/2-x,1/2-z
1/2-x,1/2-y,1/2+z
1/2-y,1/2+x,1/2-z
1/2+y,1/2+x,-z
1/2-y,1/2-x,-z
1/2-x,1/2+y,z
1/2+x,1/2-y,z
loop_
_atom_site_type_symbol
_atom_site_label
_atom_site_fract_x
_atom_site_fract_y
_atom_site_fract_z
Si Si1 0.361576 0.109133 0.605260
Si Si2 0.222587 0.285273 0.392432
Si Si3 0.772938 0.481854 0.775048
Si Si4 0.132320 0.867681 0.750000
O O1 0.404366 0.095635 0.500000
O O2 0.264090 0.172620 0.596238
O O3 0.441632 0.168662 0.662273
O O4 0.327463 0.022919 0.672868
O O5 0.189679 0.310322 0.500000
O O6 0.225207 0.377898 0.324449
O O7 0.162759 0.202029 0.338431
O O8 0.665104 0.524111 0.769459
#
# Coordination Sequence:
#
# PCOD9559737 Si02
#       4
#    16  16  16   8
#     4  10  23  39  61  91 124 164 208 259 316 375
#     4  10  20  40  62  85 124 166 205 256 313 376
#     4  11  20  40  63  90 127 163 204 260 314 373
#     4  10  22  40  59  93 124 164 206 260 314 376
#
# _framework density 20.764455999999999
#
# number of rings (size 3 to 8) (size 9 to 14) (size 15 to 20)
#    0.000    1.714    5.714    0.000    4.000    0.571 
#    0.000    4.286    0.000    0.000    0.000    0.000 
#    0.000    0.000    0.000    0.000    0.000    0.000 
#
# Total GULP energy -156221.085047 kJ/mol
# GULP energy per Si atom -5579.324466 kJ/mol
# Density = 2.071720 g / cm^3
# Si number density = 20.764456 Si / 1000 Ang^3
#
#
#
# Elastic Constant Matrix: (Units=GPa)
#
#
# Indices 1 2 3 4 5 6 
#
# 1 124.3756 -42.9231 28.5451 0.0000 0.0000 0.0000
# 2 -42.9231 124.3795 28.5438 0.0000 0.0000 0.0000
# 3 28.5451 28.5438 167.9459 0.0000 0.0000 0.0000
# 4 0.0000 0.0000 0.0000 19.9436 0.0000 0.0000
# 5 0.0000 0.0000 0.0000 0.0000 19.9440 0.0000
# 6 0.0000 0.0000 0.0000 0.0000 0.0000 24.0359
#
#
#
# Elastic Compliance Matrix: (Units=1/GPa)
#
#
# Indices 1 2 3 4 5 6 
#
# 1 0.009957 0.003980 -0.002369 0.000000 0.000000 0.000000
# 2 0.003980 0.009957 -0.002369 0.000000 0.000000 0.000000
# 3 -0.002369 -0.002369 0.006759 0.000000 0.000000 0.000000
# 4 0.000000 0.000000 0.000000 0.050141 0.000000 0.000000
# 5 0.000000 0.000000 0.000000 0.000000 0.050140 0.000000
# 6 0.000000 0.000000 0.000000 0.000000 0.000000 0.041604
#
#
# Mechanical properties :
#
#
# Convention : Reuss Voigt Hill
#
# Bulk Modulus (GPa) = 39.74808 49.44806 44.59807
# Shear Modulus (GPa) = 28.01727 39.62039 33.81883
#
# Velocity S-wave (km/s) = 3.67725 4.37290 4.04008
# Velocity P-wave (km/s) = 6.10029 7.02580 6.57934
#
# Compressibility (1/GPa) = 0.02515845
#
# Stress axis : x y z
#
# Youngs Moduli (GPa) = 100.42867 100.43237 147.93997
#
# Poissons Ratio (x) = -0.39971 0.35044
# Poissons Ratio (y) = -0.39969 0.35043
# Poissons Ratio (z) = 0.23790 0.23789
#
# Static dielectric constant tensor:
#      x y z
#    x 1.761210 0.000000 0.000000 
#    y 0.000000 1.761200 0.000000 
#    z 0.000000 0.000000 1.687290 
# 
# From -- ./inp_files/3215.got.cif
#   From: 2010.05.17/outbox.cif.g08.bks.cpg/sg120_2_cif.got.tgz:3215.got - 2010.05.20 11:28:13.
