data_PCOD9559226
_publ_section_title
;
Structure prediction by ZEFSAII (Michael W. Deem and Ramdas Pophale) SiO2 
 PCOD9559226
Probable space group: I -4 M 2
;
_chemical_formula_sum "Si O2"
_cell_formula_units_Z 88
_cell_length_a 14.452999
_cell_length_b 14.452999
_cell_length_c 23.621814
_cell_angle_alpha 90.000000
_cell_angle_beta 90.000000
_cell_angle_gamma 90.000000
_cell_volume 4934.341359
_symmetry_space_group_name_H-M "I -4 M 2"
_symmetry_group_IT_number 119
_symmetry_cell_setting 'tetragonal'
loop_
_space_group_symop_operation_xyz
x,y,z
y,-x,-z
-x,-y,z
-y,x,-z
y,x,-z
-y,-x,-z
-x,y,z
x,-y,z
1/2+x,1/2+y,1/2+z
1/2+y,1/2-x,1/2-z
1/2-x,1/2-y,1/2+z
1/2-y,1/2+x,1/2-z
1/2+y,1/2+x,1/2-z
1/2-y,1/2-x,1/2-z
1/2-x,1/2+y,1/2+z
1/2+x,1/2-y,1/2+z
loop_
_atom_site_type_symbol
_atom_site_label
_atom_site_fract_x
_atom_site_fract_y
_atom_site_fract_z
Si Si1 0.208342 0.605460 0.042446
Si Si2 0.274512 0.889112 0.862410
Si Si3 0.783666 0.891883 0.190348
Si Si4 0.224919 0.395996 0.809346
Si Si5 0.604101 0.306357 0.066727
Si Si6 0.390363 0.890363 0.750000
O O1 0.176972 0.500000 0.051685
O O2 0.151996 0.676332 0.081607
O O3 0.315982 0.619218 0.058725
O O4 0.218352 0.624045 0.974963
O O5 0.174778 0.845191 0.848410
O O6 0.335837 0.863729 0.806879
O O7 0.270104 0.000000 0.866405
O O8 0.678035 0.856664 0.186147
O O9 0.796522 0.875540 0.258079
O O10 0.795555 0.000000 0.177874
O O11 0.190153 0.500000 0.798715
O O12 0.275670 0.393539 0.868834
O O13 0.500000 0.337573 0.053023
O O14 0.500000 0.875591 0.759216
#
# Coordination Sequence:
#
# PCOD9559226 Si02
#       6
#    16  16  16  16  16   8
#     4  10  20  34  56  82 112 146 181 223 275 332
#     4  11  22  36  54  77 111 152 193 234 274 318
#     4  10  20  34  54  80 110 145 182 225 276 331
#     4   9  17  33  58  83 109 137 175 225 282 340
#     4   9  18  34  57  83 111 140 174 222 278 339
#     4   9  18  32  52  78 106 139 180 224 274 329
#
# _framework density 17.834195000000001
#
# number of rings (size 3 to 8) (size 9 to 14) (size 15 to 20)
#    0.000    2.273    1.818    1.636    0.000    2.182 
#    0.000    4.545    0.000    6.545    0.000    0.000 
#    0.000    0.000    0.000    0.000    0.000    0.000 
#
# Total GULP energy -244997.658624 kJ/mol
# GULP energy per Si atom -5568.128605 kJ/mol
# Density = 1.779360 g / cm^3
# Si number density = 17.834195 Si / 1000 Ang^3
#
#
#
# Elastic Constant Matrix: (Units=GPa)
#
#
# Indices 1 2 3 4 5 6 
#
# 1 61.4370 24.8467 16.8370 0.0000 0.0000 0.0000
# 2 24.8467 61.4370 16.8370 0.0000 0.0000 0.0000
# 3 16.8370 16.8370 62.3822 0.0000 0.0000 0.0000
# 4 0.0000 0.0000 0.0000 22.3138 0.0000 0.0000
# 5 0.0000 0.0000 0.0000 0.0000 22.3138 0.0000
# 6 0.0000 0.0000 0.0000 0.0000 0.0000 11.0905
#
#
#
# Elastic Compliance Matrix: (Units=1/GPa)
#
#
# Indices 1 2 3 4 5 6 
#
# 1 0.020142 -0.007188 -0.003496 0.000000 0.000000 0.000000
# 2 -0.007188 0.020142 -0.003496 0.000000 0.000000 0.000000
# 3 -0.003496 -0.003496 0.017918 0.000000 0.000000 0.000000
# 4 0.000000 0.000000 0.000000 0.044815 0.000000 0.000000
# 5 0.000000 0.000000 0.000000 0.000000 0.044815 0.000000
# 6 0.000000 0.000000 0.000000 0.000000 0.000000 0.090167
#
#
# Mechanical properties :
#
#
# Convention : Reuss Voigt Hill
#
# Bulk Modulus (GPa) = 33.51142 33.58860 33.55001
# Shear Modulus (GPa) = 18.09583 19.59268 18.84425
#
# Velocity S-wave (km/s) = 3.18884 3.31811 3.25412
# Velocity P-wave (km/s) = 5.69119 5.79263 5.74213
#
# Compressibility (1/GPa) = 0.02984057
#
# Stress axis : x y z
#
# Youngs Moduli (GPa) = 49.64778 49.64778 55.81123
#
# Poissons Ratio (x) = 0.35685 0.19513
# Poissons Ratio (y) = 0.35685 0.19513
# Poissons Ratio (z) = 0.17359 0.17359
#
# Static dielectric constant tensor:
#      x y z
#    x 1.614930 0.000000 0.000000 
#    y 0.000000 1.614930 0.000000 
#    z 0.000000 0.000000 1.677760 
# 
# From -- ./inp_files/9461.got.cif
#   From: 2010.05.17/outbox.cif.g08.bks.cpg/sg119_5_cif.got.tgz:9461.got - 2010.05.20 11:21:29.
