data_PCOD9559694
_publ_section_title
;
Structure prediction by ZEFSAII (Michael W. Deem and Ramdas Pophale) SiO2 
 PCOD9559694
Probable space group: I -4 C 2
;
_chemical_formula_sum "Si O2"
_cell_formula_units_Z 64
_cell_length_a 25.650776
_cell_length_b 25.650776
_cell_length_c 4.914270
_cell_angle_alpha 90.000000
_cell_angle_beta 90.000000
_cell_angle_gamma 90.000000
_cell_volume 3233.404438
_symmetry_space_group_name_H-M "I -4 C 2"
_symmetry_group_IT_number 120
_symmetry_cell_setting 'tetragonal'
loop_
_space_group_symop_operation_xyz
x,y,z
y,-x,-z
-x,-y,z
-y,x,-z
y,x,1/2-z
-y,-x,1/2-z
-x,y,1/2+z
x,-y,1/2+z
1/2+x,1/2+y,1/2+z
1/2+y,1/2-x,1/2-z
1/2-x,1/2-y,1/2+z
1/2-y,1/2+x,1/2-z
1/2+y,1/2+x,-z
1/2-y,1/2-x,-z
1/2-x,1/2+y,z
1/2+x,1/2-y,z
loop_
_atom_site_type_symbol
_atom_site_label
_atom_site_fract_x
_atom_site_fract_y
_atom_site_fract_z
Si Si1 0.757738 0.538548 0.465437
Si Si2 0.535042 0.879538 0.937258
Si Si3 0.323617 0.373912 0.522222
Si Si4 0.531633 0.392971 0.371758
O O1 0.744715 0.497510 0.706259
O O2 0.819314 0.548989 0.504135
O O3 0.729369 0.594805 0.453762
O O4 0.485593 0.888510 0.133996
O O5 0.581846 0.918154 0.000000
O O6 0.328255 0.328255 0.750000
O O7 0.352329 0.422613 0.672844
O O8 0.352675 0.352675 0.250000
O O9 0.553078 0.446923 0.250000
O O10 0.519134 0.386194 0.688189
#
# Coordination Sequence:
#
# PCOD9559694 Si02
#       4
#    16  16  16  16
#     4  10  20  36  57  79 108 146 186 228 275 330
#     4  10  21  36  58  89 121 154 185 215 260 318
#     4  11  21  34  52  74  98 129 177 234 279 317
#     4  11  21  32  44  60  84 117 158 206 264 326
#
# _framework density 19.793379000000002
#
# number of rings (size 3 to 8) (size 9 to 14) (size 15 to 20)
#    0.000    1.500    0.000    7.500    0.000    3.000 
#    0.000    0.000    0.000    1.500    0.000    0.000 
#    0.000    0.000    0.000    0.000    0.000    0.000 
#
# Total GULP energy -178184.031529 kJ/mol
# GULP energy per Si atom -5568.250985 kJ/mol
# Density = 1.974833 g / cm^3
# Si number density = 19.793379 Si / 1000 Ang^3
#
#
#
# Elastic Constant Matrix: (Units=GPa)
#
#
# Indices 1 2 3 4 5 6 
#
# 1 66.6219 58.6763 8.1985 0.0000 0.0000 0.0000
# 2 58.6763 66.6177 8.1867 0.0000 0.0000 0.0000
# 3 8.1985 8.1867 86.6074 0.0000 0.0000 0.0000
# 4 0.0000 0.0000 0.0000 11.2084 0.0000 0.0000
# 5 0.0000 0.0000 0.0000 0.0000 11.2099 0.0000
# 6 0.0000 0.0000 0.0000 0.0000 0.0000 33.1373
#
#
#
# Elastic Compliance Matrix: (Units=1/GPa)
#
#
# Indices 1 2 3 4 5 6 
#
# 1 0.066984 -0.058904 -0.000773 0.000000 0.000000 0.000000
# 2 -0.058904 0.066986 -0.000756 0.000000 0.000000 0.000000
# 3 -0.000773 -0.000756 0.011691 0.000000 0.000000 0.000000
# 4 0.000000 0.000000 0.000000 0.089219 0.000000 0.000000
# 5 0.000000 0.000000 0.000000 0.000000 0.089207 0.000000
# 6 0.000000 0.000000 0.000000 0.000000 0.000000 0.030177
#
#
# Mechanical properties :
#
#
# Convention : Reuss Voigt Hill
#
# Bulk Modulus (GPa) = 40.33005 41.10776 40.71891
# Shear Modulus (GPa) = 10.34353 20.76351 15.55352
#
# Velocity S-wave (km/s) = 2.28847 3.24236 2.80624
# Velocity P-wave (km/s) = 5.23474 5.90176 5.57823
#
# Compressibility (1/GPa) = 0.02479541
#
# Stress axis : x y z
#
# Youngs Moduli (GPa) = 14.92896 14.92850 85.53606
#
# Poissons Ratio (x) = 0.87935 0.06611
# Poissons Ratio (y) = 0.87937 0.06466
# Poissons Ratio (z) = 0.01154 0.01129
#
# Static dielectric constant tensor:
#      x y z
#    x 1.796830 0.000000 0.000000 
#    y 0.000000 1.796900 0.000000 
#    z 0.000000 0.000000 1.842890 
# 
# From -- ./inp_files/350.got.cif
#   From: 2010.05.17/outbox.cif.g08.bks.cpg/sg120_1_cif.got.tgz:350.got - 2010.05.20 11:28:13.
