data_PCOD9559613
_publ_section_title
;
Structure prediction by ZEFSAII (Michael W. Deem and Ramdas Pophale) SiO2 
 PCOD9559613
Probable space group: I -4 C 2
;
_chemical_formula_sum "Si O2"
_cell_formula_units_Z 112
_cell_length_a 19.099645
_cell_length_b 19.099645
_cell_length_c 19.063370
_cell_angle_alpha 90.000000
_cell_angle_beta 90.000000
_cell_angle_gamma 90.000000
_cell_volume 6954.249494
_symmetry_space_group_name_H-M "I -4 C 2"
_symmetry_group_IT_number 120
_symmetry_cell_setting 'tetragonal'
loop_
_space_group_symop_operation_xyz
x,y,z
y,-x,-z
-x,-y,z
-y,x,-z
y,x,1/2-z
-y,-x,1/2-z
-x,y,1/2+z
x,-y,1/2+z
1/2+x,1/2+y,1/2+z
1/2+y,1/2-x,1/2-z
1/2-x,1/2-y,1/2+z
1/2-y,1/2+x,1/2-z
1/2+y,1/2+x,-z
1/2-y,1/2-x,-z
1/2-x,1/2+y,z
1/2+x,1/2-y,z
loop_
_atom_site_type_symbol
_atom_site_label
_atom_site_fract_x
_atom_site_fract_y
_atom_site_fract_z
Si Si1 0.651561 0.094421 0.317601
Si Si2 0.083074 0.496752 0.125314
Si Si3 0.292048 0.805890 0.793850
Si Si4 0.255674 0.334390 0.056107
Si Si5 0.658716 0.060721 0.846892
Si Si6 0.732111 0.126018 0.461769
Si Si7 0.522172 0.195589 0.993161
O O1 0.567925 0.103337 0.333172
O O2 0.684770 0.143569 0.259356
O O3 0.694773 0.112232 0.387751
O O4 0.661764 0.012000 0.306301
O O5 0.091265 0.420360 0.161197
O O6 0.128419 0.493342 0.055027
O O7 0.000000 0.500000 0.110842
O O8 0.230436 0.769565 0.750000
O O9 0.312279 0.764685 0.864710
O O10 0.283029 0.885240 0.820972
O O11 0.333574 0.305425 0.043688
O O12 0.240030 0.415619 0.041866
O O13 0.206293 0.293708 0.000000
O O14 0.670180 0.046157 0.929589
O O15 0.678858 0.178858 0.500000
O O16 0.735958 0.051043 0.499041
#
# Coordination Sequence:
#
# PCOD9559613 Si02
#       7
#    16  16  16  16  16  16  16
#     4  10  22  34  50  80 114 147 182 223 271 336
#     4  10  19  32  52  82 117 149 185 220 270 330
#     4  12  23  37  53  75 111 155 186 231 277 325
#     4  11  21  38  55  78 108 145 189 231 277 332
#     4  10  22  34  50  78 113 149 185 223 274 331
#     4  10  20  34  55  81 109 140 183 230 270 327
#     4  11  19  34  58  80 105 148 190 228 275 334
#
# _framework density 16.105260999999999
#
# number of rings (size 3 to 8) (size 9 to 14) (size 15 to 20)
#    0.000    1.429    5.714    0.429    2.000    2.857 
#    0.000    0.000    0.000    0.429    0.000    0.000 
#    0.000    0.571    0.000    0.000    0.000    0.000 
#
# Total GULP energy -312307.320977 kJ/mol
# GULP energy per Si atom -5576.916446 kJ/mol
# Density = 1.606860 g / cm^3
# Si number density = 16.105261 Si / 1000 Ang^3
#
#
#
# Elastic Constant Matrix: (Units=GPa)
#
#
# Indices 1 2 3 4 5 6 
#
# 1 86.5435 52.0465 35.6302 0.0000 0.0000 0.0000
# 2 52.0465 86.5406 35.6288 0.0000 0.0000 0.0000
# 3 35.6302 35.6288 77.3683 0.0000 0.0000 0.0000
# 4 0.0000 0.0000 0.0000 25.9948 0.0000 0.0000
# 5 0.0000 0.0000 0.0000 0.0000 25.9956 0.0000
# 6 0.0000 0.0000 0.0000 0.0000 0.0000 33.3494
#
#
#
# Elastic Compliance Matrix: (Units=1/GPa)
#
#
# Indices 1 2 3 4 5 6 
#
# 1 0.019222 -0.009768 -0.004354 0.000000 0.000000 0.000000
# 2 -0.009768 0.019222 -0.004354 0.000000 0.000000 0.000000
# 3 -0.004354 -0.004354 0.016935 0.000000 0.000000 0.000000
# 4 0.000000 0.000000 0.000000 0.038469 0.000000 0.000000
# 5 0.000000 0.000000 0.000000 0.000000 0.038468 0.000000
# 6 0.000000 0.000000 0.000000 0.000000 0.000000 0.029986
#
#
# Mechanical properties :
#
#
# Convention : Reuss Voigt Hill
#
# Bulk Modulus (GPa) = 54.26426 55.22927 54.74677
# Shear Modulus (GPa) = 24.34336 25.54442 24.94389
#
# Velocity S-wave (km/s) = 3.89204 3.98690 3.93975
# Velocity P-wave (km/s) = 7.34602 7.45392 7.40016
#
# Compressibility (1/GPa) = 0.01842834
#
# Stress axis : x y z
#
# Youngs Moduli (GPa) = 52.02496 52.02375 59.04848
#
# Poissons Ratio (x) = 0.50814 0.25710
# Poissons Ratio (y) = 0.50815 0.25708
# Poissons Ratio (z) = 0.22652 0.22650
#
# Static dielectric constant tensor:
#      x y z
#    x 1.549950 0.000000 0.000000 
#    y 0.000000 1.549950 0.000000 
#    z 0.000000 0.000000 1.599370 
# 
# From -- ./inp_files/5504.got.cif
#   From: 2010.05.17/outbox.cif.g08.bks.cpg/sg120_3_cif.got.tgz:5504.got - 2010.05.20 11:28:13.
