data_PCOD9559270
_publ_section_title
;
Structure prediction by ZEFSAII (Michael W. Deem and Ramdas Pophale) SiO2 
 PCOD9559270
Probable space group: I -4 M 2
;
_chemical_formula_sum "Si O2"
_cell_formula_units_Z 56
_cell_length_a 18.831516
_cell_length_b 18.831516
_cell_length_c 7.620588
_cell_angle_alpha 90.000000
_cell_angle_beta 90.000000
_cell_angle_gamma 90.000000
_cell_volume 2702.458601
_symmetry_space_group_name_H-M "I -4 M 2"
_symmetry_group_IT_number 119
_symmetry_cell_setting 'tetragonal'
loop_
_space_group_symop_operation_xyz
x,y,z
y,-x,-z
-x,-y,z
-y,x,-z
y,x,-z
-y,-x,-z
-x,y,z
x,-y,z
1/2+x,1/2+y,1/2+z
1/2+y,1/2-x,1/2-z
1/2-x,1/2-y,1/2+z
1/2-y,1/2+x,1/2-z
1/2+y,1/2+x,1/2-z
1/2-y,1/2-x,1/2-z
1/2-x,1/2+y,1/2+z
1/2+x,1/2-y,1/2+z
loop_
_atom_site_type_symbol
_atom_site_label
_atom_site_fract_x
_atom_site_fract_y
_atom_site_fract_z
Si Si1 0.419899 0.304937 0.302654
Si Si2 0.656774 0.156774 0.750000
Si Si3 0.917345 0.807647 0.227288
Si Si4 0.652499 0.918495 0.110948
O O1 0.500000 0.307214 0.234100
O O2 0.421938 0.313408 0.514705
O O3 0.373831 0.367814 0.220775
O O4 0.390704 0.224365 0.291395
O O5 0.738261 0.130488 0.732373
O O6 0.619664 0.134488 0.569438
O O7 0.000000 0.804290 0.288745
O O8 0.590795 0.909206 0.250000
O O9 0.667814 0.000000 0.068629
#
# Coordination Sequence:
#
# PCOD9559270 Si02
#       4
#    16   8  16  16
#     4   8  16  32  52  79 116 149 186 241 292 341
#     4  10  20  36  58  83 120 152 187 236 288 336
#     4   9  17  30  52  82 113 151 195 234 284 348
#     4  10  22  39  59  84 116 151 193 241 290 345
#
# _framework density 20.721872000000001
#
# number of rings (size 3 to 8) (size 9 to 14) (size 15 to 20)
#    0.000    2.857    0.000    2.571    2.000    3.143 
#    0.000    2.857    0.000    3.857    0.000    0.000 
#    0.000    4.571    0.000    0.857    0.000    0.000 
#
# Total GULP energy -155869.054226 kJ/mol
# GULP energy per Si atom -5566.751937 kJ/mol
# Density = 2.067471 g / cm^3
# Si number density = 20.721872 Si / 1000 Ang^3
#
#
#
# Elastic Constant Matrix: (Units=GPa)
#
#
# Indices 1 2 3 4 5 6 
#
# 1 114.6971 83.1538 34.9496 0.0000 0.0000 0.0000
# 2 83.1538 114.6953 34.9474 0.0000 0.0000 0.0000
# 3 34.9496 34.9474 65.4045 0.0000 0.0000 0.0000
# 4 0.0000 0.0000 0.0000 15.2578 0.0000 0.0000
# 5 0.0000 0.0000 0.0000 0.0000 15.2585 0.0000
# 6 0.0000 0.0000 0.0000 0.0000 0.0000 26.0060
#
#
#
# Elastic Compliance Matrix: (Units=1/GPa)
#
#
# Indices 1 2 3 4 5 6 
#
# 1 0.018967 -0.012736 -0.003330 0.000000 0.000000 0.000000
# 2 -0.012736 0.018967 -0.003329 0.000000 0.000000 0.000000
# 3 -0.003330 -0.003329 0.018847 0.000000 0.000000 0.000000
# 4 0.000000 0.000000 0.000000 0.065540 0.000000 0.000000
# 5 0.000000 0.000000 0.000000 0.000000 0.065537 0.000000
# 6 0.000000 0.000000 0.000000 0.000000 0.000000 0.038453
#
#
# Mechanical properties :
#
#
# Convention : Reuss Voigt Hill
#
# Bulk Modulus (GPa) = 55.58196 66.76649 61.17423
# Shear Modulus (GPa) = 18.44349 20.75420 19.59884
#
# Velocity S-wave (km/s) = 2.98661 3.16818 3.07873
# Velocity P-wave (km/s) = 6.22689 6.75821 6.49798
#
# Compressibility (1/GPa) = 0.01799145
#
# Stress axis : x y z
#
# Youngs Moduli (GPa) = 52.72316 52.72346 53.05782
#
# Poissons Ratio (x) = 0.67151 0.17667
# Poissons Ratio (y) = 0.67151 0.17661
# Poissons Ratio (z) = 0.17556 0.17550
#
# Static dielectric constant tensor:
#      x y z
#    x 1.780360 0.000000 0.000000 
#    y 0.000000 1.780360 0.000000 
#    z 0.000000 0.000000 1.746760 
# 
# From -- ./inp_files/2013.got.cif
#   From: 2010.05.17/outbox.cif.g08.bks.cpg/sg119_2_cif.got.tgz:2013.got - 2010.05.20 11:21:29.
