data_PCOD9559966
_publ_section_title
;
Structure prediction by ZEFSAII (Michael W. Deem and Ramdas Pophale) SiO2 
 PCOD9559966
Probable space group: I -4 C 2
;
_chemical_formula_sum "Si O2"
_cell_formula_units_Z 96
_cell_length_a 15.539314
_cell_length_b 15.539314
_cell_length_c 19.386858
_cell_angle_alpha 90.000000
_cell_angle_beta 90.000000
_cell_angle_gamma 90.000000
_cell_volume 4681.350022
_symmetry_space_group_name_H-M "I -4 C 2"
_symmetry_group_IT_number 120
_symmetry_cell_setting 'tetragonal'
loop_
_space_group_symop_operation_xyz
x,y,z
y,-x,-z
-x,-y,z
-y,x,-z
y,x,1/2-z
-y,-x,1/2-z
-x,y,1/2+z
x,-y,1/2+z
1/2+x,1/2+y,1/2+z
1/2+y,1/2-x,1/2-z
1/2-x,1/2-y,1/2+z
1/2-y,1/2+x,1/2-z
1/2+y,1/2+x,-z
1/2-y,1/2-x,-z
1/2-x,1/2+y,z
1/2+x,1/2-y,z
loop_
_atom_site_type_symbol
_atom_site_label
_atom_site_fract_x
_atom_site_fract_y
_atom_site_fract_z
Si Si1 0.042927 0.756057 0.728636
Si Si2 0.450100 0.663191 0.369561
Si Si3 0.181153 0.117483 0.555073
Si Si4 0.306338 0.207564 0.923679
Si Si5 0.207540 0.350427 0.270080
Si Si6 0.654026 0.480351 0.417988
O O1 0.058677 0.827097 0.788043
O O2 0.124390 0.693146 0.735266
O O3 0.033197 0.793302 0.652236
O O4 0.950354 0.716099 0.747258
O O5 0.543472 0.697128 0.389734
O O6 0.374828 0.719106 0.405282
O O7 0.434728 0.568997 0.400304
O O8 0.232025 0.205583 0.567298
O O9 0.194578 0.070190 0.482423
O O10 0.079983 0.142998 0.562831
O O11 0.305727 0.152870 0.853313
O O12 0.329153 0.170848 0.000000
O O13 0.291049 0.291049 0.250000
#
# Coordination Sequence:
#
# PCOD9559966 Si02
#       6
#    16  16  16  16  16  16
#     4  11  25  43  68  97 135 184 230 290 342 410
#     4  11  24  39  64  98 132 174 227 275 339 417
#     4  12  23  39  66  97 137 179 222 279 347 412
#     4  11  21  41  64  91 133 178 221 269 336 405
#     4  11  24  45  68 100 137 176 236 286 345 417
#     4  12  22  39  62  97 137 175 217 281 345 416
#
# _framework density 20.506907000000002
#
# number of rings (size 3 to 8) (size 9 to 14) (size 15 to 20)
#    0.000    0.667    5.000    4.000    0.000    0.333 
#    0.000    1.667    0.000    0.000    0.000    1.167 
#    0.000    0.000    0.000    0.000    0.000    0.000 
#
# Total GULP energy -267919.827869 kJ/mol
# GULP energy per Si atom -5581.663081 kJ/mol
# Density = 2.046023 g / cm^3
# Si number density = 20.506907 Si / 1000 Ang^3
#
#
#
# Elastic Constant Matrix: (Units=GPa)
#
#
# Indices 1 2 3 4 5 6 
#
# 1 90.6626 40.9969 24.7265 0.0000 0.0000 0.0000
# 2 40.9969 90.6625 24.7264 0.0000 0.0000 0.0000
# 3 24.7265 24.7264 159.5789 0.0000 0.0000 0.0000
# 4 0.0000 0.0000 0.0000 26.7593 0.0000 0.0000
# 5 0.0000 0.0000 0.0000 0.0000 26.7593 0.0000
# 6 0.0000 0.0000 0.0000 0.0000 0.0000 25.4144
#
#
#
# Elastic Compliance Matrix: (Units=1/GPa)
#
#
# Indices 1 2 3 4 5 6 
#
# 1 0.014100 -0.006035 -0.001250 0.000000 0.000000 0.000000
# 2 -0.006035 0.014100 -0.001250 0.000000 0.000000 0.000000
# 3 -0.001250 -0.001250 0.006654 0.000000 0.000000 0.000000
# 4 0.000000 0.000000 0.000000 0.037370 0.000000 0.000000
# 5 0.000000 0.000000 0.000000 0.000000 0.037370 0.000000
# 6 0.000000 0.000000 0.000000 0.000000 0.000000 0.039348
#
#
# Mechanical properties :
#
#
# Convention : Reuss Voigt Hill
#
# Bulk Modulus (GPa) = 56.22800 57.97818 57.10309
# Shear Modulus (GPa) = 29.08028 32.48355 30.78192
#
# Velocity S-wave (km/s) = 3.76982 3.98431 3.87854
# Velocity P-wave (km/s) = 6.81376 7.03563 6.92558
#
# Compressibility (1/GPa) = 0.01778473
#
# Stress axis : x y z
#
# Youngs Moduli (GPa) = 70.92362 70.92358 150.29131
#
# Poissons Ratio (x) = 0.42802 0.18781
# Poissons Ratio (y) = 0.42802 0.18781
# Poissons Ratio (z) = 0.08863 0.08863
#
# Static dielectric constant tensor:
#      x y z
#    x 1.749330 0.000000 0.000000 
#    y 0.000000 1.749330 0.000000 
#    z 0.000000 0.000000 1.783090 
# 
# From -- ./inp_files/5356.got.cif
#   From: 2010.05.17/outbox.cif.g08.bks.cpg/sg120_3_cif.got.tgz:5356.got - 2010.05.20 11:28:13.
