data_PCOD9559221
_publ_section_title
;
Structure prediction by ZEFSAII (Michael W. Deem and Ramdas Pophale) SiO2 
 PCOD9559221
Probable space group: I -4 M 2
;
_chemical_formula_sum "Si O2"
_cell_formula_units_Z 112
_cell_length_a 13.821376
_cell_length_b 13.821376
_cell_length_c 32.559805
_cell_angle_alpha 90.000000
_cell_angle_beta 90.000000
_cell_angle_gamma 90.000000
_cell_volume 6219.913697
_symmetry_space_group_name_H-M "I -4 M 2"
_symmetry_group_IT_number 119
_symmetry_cell_setting 'tetragonal'
loop_
_space_group_symop_operation_xyz
x,y,z
y,-x,-z
-x,-y,z
-y,x,-z
y,x,-z
-y,-x,-z
-x,y,z
x,-y,z
1/2+x,1/2+y,1/2+z
1/2+y,1/2-x,1/2-z
1/2-x,1/2-y,1/2+z
1/2-y,1/2+x,1/2-z
1/2+y,1/2+x,1/2-z
1/2-y,1/2-x,1/2-z
1/2-x,1/2+y,1/2+z
1/2+x,1/2-y,1/2+z
loop_
_atom_site_type_symbol
_atom_site_label
_atom_site_fract_x
_atom_site_fract_y
_atom_site_fract_z
Si Si1 0.303559 0.887631 0.125300
Si Si2 0.776289 0.616335 0.714598
Si Si3 0.226088 0.616172 0.285861
Si Si4 0.882592 0.610891 0.131395
Si Si5 0.615964 0.195262 0.543953
Si Si6 0.615003 0.886040 0.041069
Si Si7 0.609006 0.607434 0.581535
O O1 0.320708 0.850539 0.170679
O O2 0.349295 0.842804 0.084265
O O3 0.188467 0.886244 0.116826
O O4 0.335921 0.000000 0.126055
O O5 0.764213 0.500000 0.714267
O O6 0.847372 0.652629 0.750000
O O7 0.675236 0.674049 0.719170
O O8 0.237094 0.500000 0.283832
O O9 0.154752 0.654752 0.250000
O O10 0.178037 0.642542 0.329963
O O11 0.851536 0.500000 0.137710
O O12 0.848217 0.649217 0.086879
O O13 0.000000 0.611279 0.129874
O O14 0.500000 0.174886 0.543313
O O15 0.656296 0.155784 0.501289
O O16 0.628203 0.309738 0.548836
O O17 0.500000 0.883391 0.039464
O O18 0.645714 0.000000 0.041882
O O19 0.500000 0.622088 0.597546
O O20 0.615515 0.500000 0.563438
#
# Coordination Sequence:
#
# PCOD9559221 Si02
#       7
#    16  16  16  16  16  16  16
#     4   9  18  32  48  67  91 121 160 203 249 304
#     4  10  22  38  55  76 100 128 168 218 271 326
#     4  10  20  34  53  78 108 140 173 210 255 312
#     4   9  16  26  43  68  98 133 171 208 245 287
#     4   9  16  26  41  63  92 127 166 203 239 283
#     4   9  17  29  44  61  83 114 156 206 252 292
#     4   9  17  29  45  67  99 137 171 202 240 294
#
# _framework density 18.006681
#
# number of rings (size 3 to 8) (size 9 to 14) (size 15 to 20)
#    0.000    2.714    0.000    1.714    0.000    5.714 
#    0.000    5.000    0.000    6.000    0.000    0.000 
#    0.000    0.000    0.000    0.000    0.000   13.286 
#
# Total GULP energy -312013.105636 kJ/mol
# GULP energy per Si atom -5571.662601 kJ/mol
# Density = 1.796570 g / cm^3
# Si number density = 18.006681 Si / 1000 Ang^3
#
#
#
# Elastic Constant Matrix: (Units=GPa)
#
#
# Indices 1 2 3 4 5 6 
#
# 1 53.9040 18.4263 41.4657 0.0000 0.0000 0.0000
# 2 18.4263 53.9031 41.4663 0.0000 0.0000 0.0000
# 3 41.4657 41.4663 163.8963 0.0000 0.0000 0.0000
# 4 0.0000 0.0000 0.0000 14.8324 0.0000 0.0000
# 5 0.0000 0.0000 0.0000 0.0000 14.8324 0.0000
# 6 0.0000 0.0000 0.0000 0.0000 0.0000 7.2893
#
#
#
# Elastic Compliance Matrix: (Units=1/GPa)
#
#
# Indices 1 2 3 4 5 6 
#
# 1 0.023831 -0.004356 -0.004927 0.000000 0.000000 0.000000
# 2 -0.004356 0.023831 -0.004927 0.000000 0.000000 0.000000
# 3 -0.004927 -0.004927 0.008595 0.000000 0.000000 0.000000
# 4 0.000000 0.000000 0.000000 0.067420 0.000000 0.000000
# 5 0.000000 0.000000 0.000000 0.000000 0.067420 0.000000
# 6 0.000000 0.000000 0.000000 0.000000 0.000000 0.137188
#
#
# Mechanical properties :
#
#
# Convention : Reuss Voigt Hill
#
# Bulk Modulus (GPa) = 35.92498 52.71333 44.31915
# Shear Modulus (GPa) = 13.66181 18.74716 16.20449
#
# Velocity S-wave (km/s) = 2.75745 3.23014 3.00311
# Velocity P-wave (km/s) = 5.48929 6.57645 6.05731
#
# Compressibility (1/GPa) = 0.02783579
#
# Stress axis : x y z
#
# Youngs Moduli (GPa) = 41.96268 41.96145 116.35215
#
# Poissons Ratio (x) = 0.18279 0.57327
# Poissons Ratio (y) = 0.18279 0.57331
# Poissons Ratio (z) = 0.20675 0.20676
#
# Static dielectric constant tensor:
#      x y z
#    x 1.627990 0.000000 0.000000 
#    y 0.000000 1.627990 0.000000 
#    z 0.000000 0.000000 1.658930 
# 
# From -- ./inp_files/10461.got.cif
#   From: 2010.05.17/outbox.cif.g08.bks.cpg/sg119_6_cif.got.tgz:10461.got - 2010.05.20 11:21:29.
