data_PCOD9559361
_publ_section_title
;
Structure prediction by ZEFSAII (Michael W. Deem and Ramdas Pophale) SiO2 
 PCOD9559361
Probable space group: I -4 M 2
;
_chemical_formula_sum "Si O2"
_cell_formula_units_Z 64
_cell_length_a 17.504984
_cell_length_b 17.504984
_cell_length_c 11.559323
_cell_angle_alpha 90.000000
_cell_angle_beta 90.000000
_cell_angle_gamma 90.000000
_cell_volume 3542.059364
_symmetry_space_group_name_H-M "I -4 M 2"
_symmetry_group_IT_number 119
_symmetry_cell_setting 'tetragonal'
loop_
_space_group_symop_operation_xyz
x,y,z
y,-x,-z
-x,-y,z
-y,x,-z
y,x,-z
-y,-x,-z
-x,y,z
x,-y,z
1/2+x,1/2+y,1/2+z
1/2+y,1/2-x,1/2-z
1/2-x,1/2-y,1/2+z
1/2-y,1/2+x,1/2-z
1/2+y,1/2+x,1/2-z
1/2-y,1/2-x,1/2-z
1/2-x,1/2+y,1/2+z
1/2+x,1/2-y,1/2+z
loop_
_atom_site_type_symbol
_atom_site_label
_atom_site_fract_x
_atom_site_fract_y
_atom_site_fract_z
Si Si1 0.688855 0.691613 0.696395
Si Si2 0.914573 0.592629 0.378298
Si Si3 0.908320 0.268082 0.993734
Si Si4 0.089256 0.911092 0.361889
O O1 0.743290 0.756711 0.750000
O O2 0.739060 0.632130 0.621536
O O3 0.627852 0.724197 0.603599
O O4 0.643464 0.646557 0.795056
O O5 0.918406 0.500000 0.373227
O O6 0.885619 0.614382 0.250000
O O7 0.856024 0.612089 0.478323
O O8 0.000000 0.622555 0.395731
O O9 0.000000 0.259349 0.990090
O O10 0.097180 0.902821 0.500000
O O11 0.000000 0.897168 0.332998
O O12 0.105866 0.000000 0.332634
#
# Coordination Sequence:
#
# PCOD9559361 Si02
#       4
#    16  16  16  16
#     4  11  23  36  56  83 123 150 185 233 300 351
#     4   8  14  28  51  76 102 135 183 234 268 309
#     4  10  21  37  56  80 111 151 190 231 281 343
#     4   9  19  38  64  88 111 147 198 248 289 342
#
# _framework density 18.068584000000001
#
# number of rings (size 3 to 8) (size 9 to 14) (size 15 to 20)
#    0.000    2.500    0.000    3.750    3.500    0.000 
#    0.000    3.750    0.000    6.000    0.000    0.000 
#    0.000    0.000    0.000    0.000    0.000    0.000 
#
# Total GULP energy -178462.868260 kJ/mol
# GULP energy per Si atom -5576.964633 kJ/mol
# Density = 1.802746 g / cm^3
# Si number density = 18.068584 Si / 1000 Ang^3
#
#
#
# Elastic Constant Matrix: (Units=GPa)
#
#
# Indices 1 2 3 4 5 6 
#
# 1 99.5316 66.6668 53.0195 0.0000 0.0000 0.0000
# 2 66.6668 99.5295 53.0194 0.0000 0.0000 0.0000
# 3 53.0195 53.0194 65.4721 0.0000 0.0000 0.0000
# 4 0.0000 0.0000 0.0000 30.7739 0.0000 0.0000
# 5 0.0000 0.0000 0.0000 0.0000 30.7746 0.0000
# 6 0.0000 0.0000 0.0000 0.0000 0.0000 34.9186
#
#
#
# Elastic Compliance Matrix: (Units=1/GPa)
#
#
# Indices 1 2 3 4 5 6 
#
# 1 0.021439 -0.008990 -0.010081 0.000000 0.000000 0.000000
# 2 -0.008990 0.021439 -0.010082 0.000000 0.000000 0.000000
# 3 -0.010081 -0.010082 0.031601 0.000000 0.000000 0.000000
# 4 0.000000 0.000000 0.000000 0.032495 0.000000 0.000000
# 5 0.000000 0.000000 0.000000 0.000000 0.032494 0.000000
# 6 0.000000 0.000000 0.000000 0.000000 0.000000 0.028638
#
#
# Mechanical properties :
#
#
# Convention : Reuss Voigt Hill
#
# Bulk Modulus (GPa) = 61.82619 67.77163 64.79891
# Shear Modulus (GPa) = 21.57004 25.41526 23.49265
#
# Velocity S-wave (km/s) = 3.45887 3.75453 3.60973
# Velocity P-wave (km/s) = 7.08827 7.50898 7.30165
#
# Compressibility (1/GPa) = 0.01617438
#
# Stress axis : x y z
#
# Youngs Moduli (GPa) = 46.64495 46.64343 31.64414
#
# Poissons Ratio (x) = 0.41931 0.31901
# Poissons Ratio (y) = 0.41933 0.31902
# Poissons Ratio (z) = 0.47023 0.47024
#
# Static dielectric constant tensor:
#      x y z
#    x 1.626620 0.000000 0.000000 
#    y 0.000000 1.626620 0.000000 
#    z 0.000000 0.000000 1.593490 
# 
# From -- ./inp_files/3720.got.cif
#   From: 2010.05.17/outbox.cif.g08.bks.cpg/sg119_2_cif.got.tgz:3720.got - 2010.05.20 11:21:29.
