data_PCOD9559151
_publ_section_title
;
Structure prediction by ZEFSAII (Michael W. Deem and Ramdas Pophale) SiO2 
 PCOD9559151
Probable space group: I -4 M 2
;
_chemical_formula_sum "Si O2"
_cell_formula_units_Z 80
_cell_length_a 12.231954
_cell_length_b 12.231954
_cell_length_c 29.235067
_cell_angle_alpha 90.000000
_cell_angle_beta 90.000000
_cell_angle_gamma 90.000000
_cell_volume 4374.171150
_symmetry_space_group_name_H-M "I -4 M 2"
_symmetry_group_IT_number 119
_symmetry_cell_setting 'tetragonal'
loop_
_space_group_symop_operation_xyz
x,y,z
y,-x,-z
-x,-y,z
-y,x,-z
y,x,-z
-y,-x,-z
-x,y,z
x,-y,z
1/2+x,1/2+y,1/2+z
1/2+y,1/2-x,1/2-z
1/2-x,1/2-y,1/2+z
1/2-y,1/2+x,1/2-z
1/2+y,1/2+x,1/2-z
1/2-y,1/2-x,1/2-z
1/2-x,1/2+y,1/2+z
1/2+x,1/2-y,1/2+z
loop_
_atom_site_type_symbol
_atom_site_label
_atom_site_fract_x
_atom_site_fract_y
_atom_site_fract_z
Si Si1 0.374788 0.757121 0.637740
Si Si2 0.000000 0.123683 0.285930
Si Si3 0.711983 0.740866 0.052272
Si Si4 0.214795 0.872220 0.223249
Si Si5 0.500000 0.825659 0.851878
Si Si6 0.000000 0.369118 0.542853
Si Si7 0.500000 0.730719 0.949749
O O1 0.500000 0.720912 0.631305
O O2 0.306540 0.753127 0.590397
O O3 0.312982 0.684544 0.675226
O O4 0.377690 0.881946 0.657153
O O5 0.106196 0.138664 0.254415
O O6 0.000000 0.210285 0.326226
O O7 0.000000 0.000000 0.303880
O O8 0.612863 0.822489 0.063696
O O9 0.668277 0.614974 0.051972
O O10 0.755937 0.755937 0.000000
O O11 0.310596 0.810596 0.250000
O O12 0.238043 0.000000 0.217128
O O13 0.500000 0.807804 0.905895
O O14 0.000000 0.310334 0.493281
O O15 0.000000 0.500000 0.540674
#
# Coordination Sequence:
#
# PCOD9559151 Si02
#       7
#    16   8  16  16   8   8   8
#     4  11  22  38  61  91 121 152 196 245 300 354
#     4  10  20  37  60  83 115 155 191 233 296 353
#     4   9  20  37  58  86 121 160 199 242 296 348
#     4  11  23  41  62  84 118 157 195 239 293 353
#     4  10  19  35  58  90 115 147 194 244 293 349
#     4  10  20  37  59  82 120 164 199 244 293 352
#     4   8  18  35  54  84 115 150 197 244 295 337
#
# _framework density 18.289180000000002
#
# number of rings (size 3 to 8) (size 9 to 14) (size 15 to 20)
#    0.000    2.000    3.000    0.300    0.000    8.600 
#    9.000    2.000    0.000    0.000    0.000    4.200 
#    0.000    0.000    0.000    0.000    0.000    0.000 
#
# Total GULP energy -222907.786346 kJ/mol
# GULP energy per Si atom -5572.694659 kJ/mol
# Density = 1.824755 g / cm^3
# Si number density = 18.289180 Si / 1000 Ang^3
#
#
#
# Elastic Constant Matrix: (Units=GPa)
#
#
# Indices 1 2 3 4 5 6 
#
# 1 105.9152 55.3863 46.3197 0.0000 0.0000 0.0000
# 2 55.3863 105.9152 46.3197 0.0000 0.0000 0.0000
# 3 46.3197 46.3197 78.3659 0.0000 0.0000 0.0000
# 4 0.0000 0.0000 0.0000 19.4579 0.0000 0.0000
# 5 0.0000 0.0000 0.0000 0.0000 19.4579 0.0000
# 6 0.0000 0.0000 0.0000 0.0000 0.0000 21.8705
#
#
#
# Elastic Compliance Matrix: (Units=1/GPa)
#
#
# Indices 1 2 3 4 5 6 
#
# 1 0.014588 -0.005202 -0.005548 0.000000 0.000000 0.000000
# 2 -0.005202 0.014588 -0.005548 0.000000 0.000000 0.000000
# 3 -0.005548 -0.005548 0.019319 0.000000 0.000000 0.000000
# 4 0.000000 0.000000 0.000000 0.051393 0.000000 0.000000
# 5 0.000000 0.000000 0.000000 0.000000 0.051393 0.000000
# 6 0.000000 0.000000 0.000000 0.000000 0.000000 0.045724
#
#
# Mechanical properties :
#
#
# Convention : Reuss Voigt Hill
#
# Bulk Modulus (GPa) = 62.89434 65.13860 64.01647
# Shear Modulus (GPa) = 21.28567 21.63531 21.46049
#
# Velocity S-wave (km/s) = 3.41521 3.44315 3.42921
# Velocity P-wave (km/s) = 7.07213 7.17637 7.12444
#
# Compressibility (1/GPa) = 0.01589968
#
# Stress axis : x y z
#
# Youngs Moduli (GPa) = 68.54869 68.54869 51.76343
#
# Poissons Ratio (x) = 0.35662 0.28716
# Poissons Ratio (y) = 0.35662 0.28716
# Poissons Ratio (z) = 0.38028 0.38028
#
# Static dielectric constant tensor:
#      x y z
#    x 1.647140 0.000000 0.000000 
#    y 0.000000 1.647140 0.000000 
#    z 0.000000 0.000000 1.627630 
# 
# From -- ./inp_files/10220.got.cif
#   From: 2010.05.17/outbox.cif.g08.bks.cpg/sg119_6_cif.got.tgz:10220.got - 2010.05.20 11:21:29.
