data_PCOD9559122
_publ_section_title
;
Structure prediction by ZEFSAII (Michael W. Deem and Ramdas Pophale) SiO2 
 PCOD9559122
Probable space group: I -4 M 2
;
_chemical_formula_sum "Si O2"
_cell_formula_units_Z 112
_cell_length_a 14.543166
_cell_length_b 14.543166
_cell_length_c 29.369964
_cell_angle_alpha 90.000000
_cell_angle_beta 90.000000
_cell_angle_gamma 90.000000
_cell_volume 6211.855388
_symmetry_space_group_name_H-M "I -4 M 2"
_symmetry_group_IT_number 119
_symmetry_cell_setting 'tetragonal'
loop_
_space_group_symop_operation_xyz
x,y,z
y,-x,-z
-x,-y,z
-y,x,-z
y,x,-z
-y,-x,-z
-x,y,z
x,-y,z
1/2+x,1/2+y,1/2+z
1/2+y,1/2-x,1/2-z
1/2-x,1/2-y,1/2+z
1/2-y,1/2+x,1/2-z
1/2+y,1/2+x,1/2-z
1/2-y,1/2-x,1/2-z
1/2-x,1/2+y,1/2+z
1/2+x,1/2-y,1/2+z
loop_
_atom_site_type_symbol
_atom_site_label
_atom_site_fract_x
_atom_site_fract_y
_atom_site_fract_z
Si Si1 0.604870 0.388659 0.303198
Si Si2 0.102222 0.888120 0.907784
Si Si3 0.388352 0.716317 0.781948
Si Si4 0.390433 0.102160 0.834707
Si Si5 0.799475 0.393427 0.434380
Si Si6 0.215095 0.890623 0.539186
Si Si7 0.111726 0.895058 0.370470
O O1 0.500000 0.368077 0.288846
O O2 0.612324 0.500000 0.304912
O O3 0.616087 0.357533 0.355300
O O4 0.676547 0.354149 0.265906
O O5 0.192772 0.862976 0.935583
O O6 0.000000 0.858855 0.923213
O O7 0.101611 0.000000 0.907258
O O8 0.500000 0.712604 0.779933
O O9 0.366846 0.818148 0.799644
O O10 0.358676 0.648184 0.822650
O O11 0.500000 0.109714 0.845374
O O12 0.334698 0.109676 0.881715
O O13 0.373508 0.000000 0.815379
O O14 0.807611 0.500000 0.448624
O O15 0.860207 0.320863 0.461217
O O16 0.158355 0.841646 0.500000
O O17 0.170627 0.862376 0.587731
O O18 0.207171 0.000000 0.535179
O O19 0.000000 0.896257 0.369769
O O20 0.142735 0.000000 0.376761
#
# Coordination Sequence:
#
# PCOD9559122 Si02
#       7
#    16  16  16  16  16  16  16
#     4   8  13  22  39  64  93 125 164 210 256 296
#     4   8  15  29  49  72  95 123 165 216 264 303
#     4   9  14  22  38  63  93 127 167 208 245 286
#     4   9  16  26  41  61  90 132 176 209 239 288
#     4  10  19  33  54  74  96 132 175 213 254 311
#     4  11  22  36  53  75 102 132 166 206 258 321
#     4   9  16  26  42  65  93 126 163 202 247 298
#
# _framework density 18.03004
#
# number of rings (size 3 to 8) (size 9 to 14) (size 15 to 20)
#    0.000    2.857    1.429    2.143    0.000    3.286 
#    0.000    1.429    0.000    3.429    0.000   12.000 
#    0.000    0.000    0.000    0.000    0.000    4.000 
#
# Total GULP energy -312307.408697 kJ/mol
# GULP energy per Si atom -5576.918012 kJ/mol
# Density = 1.798900 g / cm^3
# Si number density = 18.030040 Si / 1000 Ang^3
#
#
#
# Elastic Constant Matrix: (Units=GPa)
#
#
# Indices 1 2 3 4 5 6 
#
# 1 78.0620 20.4619 12.6576 0.0000 0.0000 0.0000
# 2 20.4619 78.0614 12.6575 0.0000 0.0000 0.0000
# 3 12.6576 12.6575 9.3530 0.0000 0.0000 0.0000
# 4 0.0000 0.0000 0.0000 20.0310 0.0000 0.0000
# 5 0.0000 0.0000 0.0000 0.0000 20.0307 0.0000
# 6 0.0000 0.0000 0.0000 0.0000 0.0000 12.1075
#
#
#
# Elastic Compliance Matrix: (Units=1/GPa)
#
#
# Indices 1 2 3 4 5 6 
#
# 1 0.016461 -0.000900 -0.021058 0.000000 0.000000 0.000000
# 2 -0.000900 0.016461 -0.021058 0.000000 0.000000 0.000000
# 3 -0.021058 -0.021058 0.163914 0.000000 0.000000 0.000000
# 4 0.000000 0.000000 0.000000 0.049923 0.000000 0.000000
# 5 0.000000 0.000000 0.000000 0.000000 0.049923 0.000000
# 6 0.000000 0.000000 0.000000 0.000000 0.000000 0.082593
#
#
# Mechanical properties :
#
#
# Convention : Reuss Voigt Hill
#
# Bulk Modulus (GPa) = 9.02512 28.55894 18.79203
# Shear Modulus (GPa) = 9.95535 18.41381 14.18458
#
# Velocity S-wave (km/s) = 2.35234 3.19922 2.80789
# Velocity P-wave (km/s) = 3.52058 5.43330 4.57795
#
# Compressibility (1/GPa) = 0.11080181
#
# Stress axis : x y z
#
# Youngs Moduli (GPa) = 60.75013 60.74978 6.10077
#
# Poissons Ratio (x) = 0.05469 0.12847
# Poissons Ratio (y) = 0.05469 0.12847
# Poissons Ratio (z) = 1.27930 1.27929
#
# Static dielectric constant tensor:
#      x y z
#    x 1.640690 0.000000 0.000000 
#    y 0.000000 1.640680 0.000000 
#    z 0.000000 0.000000 1.634980 
# 
# From -- ./inp_files/10460.got.cif
#   From: 2010.05.17/outbox.cif.g08.bks.cpg/sg119_6_cif.got.tgz:10460.got - 2010.05.20 11:21:29.
