data_PCOD9559246
_publ_section_title
;
Structure prediction by ZEFSAII (Michael W. Deem and Ramdas Pophale) SiO2 
 PCOD9559246
Probable space group: I -4 M 2
;
_chemical_formula_sum "Si O2"
_cell_formula_units_Z 66
_cell_length_a 18.855438
_cell_length_b 18.855438
_cell_length_c 9.349759
_cell_angle_alpha 90.000000
_cell_angle_beta 90.000000
_cell_angle_gamma 90.000000
_cell_volume 3324.096837
_symmetry_space_group_name_H-M "I -4 M 2"
_symmetry_group_IT_number 119
_symmetry_cell_setting 'tetragonal'
loop_
_space_group_symop_operation_xyz
x,y,z
y,-x,-z
-x,-y,z
-y,x,-z
y,x,-z
-y,-x,-z
-x,y,z
x,-y,z
1/2+x,1/2+y,1/2+z
1/2+y,1/2-x,1/2-z
1/2-x,1/2-y,1/2+z
1/2-y,1/2+x,1/2-z
1/2+y,1/2+x,1/2-z
1/2-y,1/2-x,1/2-z
1/2-x,1/2+y,1/2+z
1/2+x,1/2-y,1/2+z
loop_
_atom_site_type_symbol
_atom_site_label
_atom_site_fract_x
_atom_site_fract_y
_atom_site_fract_z
Si Si1 0.233208 0.500000 0.785019
Si Si2 0.082735 0.500000 0.894452
Si Si3 0.609558 0.867446 0.596709
Si Si4 0.000000 0.147109 0.309341
Si Si5 0.000000 0.000000 0.500000
Si Si6 0.382764 0.732239 0.978725
Si Si7 0.000000 0.242440 0.043365
O O1 0.146864 0.500000 0.778761
O O2 0.267387 0.500000 0.628347
O O3 0.255147 0.431422 0.879860
O O4 0.000000 0.500000 0.872001
O O5 0.094145 0.427620 0.981209
O O6 0.597065 0.902936 0.750000
O O7 0.693455 0.857995 0.584345
O O8 0.566171 0.795084 0.578277
O O9 0.932713 0.188878 0.371489
O O10 0.000000 0.170562 0.140061
O O11 0.000000 0.069213 0.390654
O O12 0.314939 0.685062 0.000000
#
# Coordination Sequence:
#
# PCOD9559246 Si02
#       7
#     8   8  16   8   2  16   8
#     4   9  24  42  62  97 136 180 224 286 346 400
#     4  10  20  34  58  95 138 187 231 258 311 412
#     4  11  21  37  61  95 134 183 227 272 337 395
#     4  11  22  42  75 101 130 172 228 290 347 426
#     4  12  24  44  88 102 116 188 238 284 372 436
#     4  10  21  43  69  91 126 178 234 276 340 423
#     4  12  23  43  63  98 151 170 218 295 341 403
#
# _framework density 19.855018000000001
#
# number of rings (size 3 to 8) (size 9 to 14) (size 15 to 20)
#    0.000    1.455    4.848    1.455    0.000    3.879 
#    6.545    1.212    0.000    4.364    0.000    0.000 
#    0.000    0.000    0.000    0.000    0.000    0.000 
#
# Total GULP energy -183899.134114 kJ/mol
# GULP energy per Si atom -5572.701034 kJ/mol
# Density = 1.980983 g / cm^3
# Si number density = 19.855018 Si / 1000 Ang^3
#
#
#
# Elastic Constant Matrix: (Units=GPa)
#
#
# Indices 1 2 3 4 5 6 
#
# 1 158.2799 7.9560 26.0537 0.0000 0.0000 0.0000
# 2 7.9560 158.2725 26.0516 0.0000 0.0000 0.0000
# 3 26.0537 26.0516 125.3551 0.0000 0.0000 0.0000
# 4 0.0000 0.0000 0.0000 -0.6954 0.0000 0.0000
# 5 0.0000 0.0000 0.0000 0.0000 -0.7014 0.0000
# 6 0.0000 0.0000 0.0000 0.0000 0.0000 39.0545
#
#
#
# Elastic Compliance Matrix: (Units=1/GPa)
#
#
# Indices 1 2 3 4 5 6 
#
# 1 0.006544 -0.000109 -0.001337 0.000000 0.000000 0.000000
# 2 -0.000109 0.006544 -0.001337 0.000000 0.000000 0.000000
# 3 -0.001337 -0.001337 0.008533 0.000000 0.000000 0.000000
# 4 0.000000 0.000000 0.000000 -1.437945 0.000000 0.000000
# 5 0.000000 0.000000 0.000000 0.000000 -1.425782 0.000000
# 6 0.000000 0.000000 0.000000 0.000000 0.000000 0.025605
#
#
# Mechanical properties :
#
#
# Convention : Reuss Voigt Hill
#
# Bulk Modulus (GPa) = 62.29161 62.44777 62.36969
# Shear Modulus (GPa) = -1.78216 32.98796 15.60290
#
# Velocity S-wave (km/s) = -0.94844 4.08050 2.80633
# Velocity P-wave (km/s) = 5.49927 7.32945 6.47930
#
# Compressibility (1/GPa) = 0.01605353
#
# Stress axis : x y z
#
# Youngs Moduli (GPa) = 152.82273 152.81613 117.18889
#
# Poissons Ratio (x) = 0.01663 0.15673
# Poissons Ratio (y) = 0.01663 0.15672
# Poissons Ratio (z) = 0.20438 0.20437
#
# Static dielectric constant tensor:
#      x y z
#    x 1.561410 0.000000 0.000000 
#    y 0.000000 1.561390 0.000000 
#    z 0.000000 0.000000 1.637060 
# 
# From -- ./inp_files/2373.got.cif
#   From: 2010.05.17/outbox.cif.g08.bks.cpg/sg119_2_cif.got.tgz:2373.got - 2010.05.20 11:21:29.
