data_PCOD9559442
_publ_section_title
;
Structure prediction by ZEFSAII (Michael W. Deem and Ramdas Pophale) SiO2 
 PCOD9559442
Probable space group: I -4 M 2
;
_chemical_formula_sum "Si O2"
_cell_formula_units_Z 32
_cell_length_a 7.440963
_cell_length_b 7.440963
_cell_length_c 29.149254
_cell_angle_alpha 90.000000
_cell_angle_beta 90.000000
_cell_angle_gamma 90.000000
_cell_volume 1613.933866
_symmetry_space_group_name_H-M "I -4 M 2"
_symmetry_group_IT_number 119
_symmetry_cell_setting 'tetragonal'
loop_
_space_group_symop_operation_xyz
x,y,z
y,-x,-z
-x,-y,z
-y,x,-z
y,x,-z
-y,-x,-z
-x,y,z
x,-y,z
1/2+x,1/2+y,1/2+z
1/2+y,1/2-x,1/2-z
1/2-x,1/2-y,1/2+z
1/2-y,1/2+x,1/2-z
1/2+y,1/2+x,1/2-z
1/2-y,1/2-x,1/2-z
1/2-x,1/2+y,1/2+z
1/2+x,1/2-y,1/2+z
loop_
_atom_site_type_symbol
_atom_site_label
_atom_site_fract_x
_atom_site_fract_y
_atom_site_fract_z
Si Si1 0.277952 0.500000 0.771005
Si Si2 0.713822 0.298212 0.450965
Si Si3 0.788692 0.000000 0.377229
O O1 0.500000 0.500000 0.765452
O O2 0.176286 0.676286 0.750000
O O3 0.226148 0.500000 0.824991
O O4 0.779208 0.220793 0.500000
O O5 0.500000 0.309742 0.458022
O O6 0.783938 0.500000 0.443067
O O7 0.739551 0.172006 0.407669
O O8 0.000000 0.000000 0.373602
#
# Coordination Sequence:
#
# PCOD9559442 Si02
#       3
#     8  16   8
#     4  10  25  47  70  99 133 172 233 291 350 406
#     4   9  20  37  57  86 125 168 210 250 307 383
#     4  11  24  38  60  93 125 165 212 265 331 385
#
# _framework density 19.82733
#
# number of rings (size 3 to 8) (size 9 to 14) (size 15 to 20)
#    0.000    2.250    0.000    2.250   10.500    3.500 
#    0.000    5.000    0.000    0.000    0.000    0.000 
#    0.000    0.000    0.000    0.000    0.000    0.000 
#
# Total GULP energy -89144.598286 kJ/mol
# GULP energy per Si atom -5571.537393 kJ/mol
# Density = 1.978220 g / cm^3
# Si number density = 19.827330 Si / 1000 Ang^3
#
#
#
# Elastic Constant Matrix: (Units=GPa)
#
#
# Indices 1 2 3 4 5 6 
#
# 1 116.5388 31.8426 66.6098 0.0000 0.0000 0.0000
# 2 31.8426 116.5383 66.6097 0.0000 0.0000 0.0000
# 3 66.6098 66.6097 214.2714 0.0000 0.0000 0.0000
# 4 0.0000 0.0000 0.0000 35.6952 0.0000 0.0000
# 5 0.0000 0.0000 0.0000 0.0000 35.6951 0.0000
# 6 0.0000 0.0000 0.0000 0.0000 0.0000 18.9267
#
#
#
# Elastic Compliance Matrix: (Units=1/GPa)
#
#
# Indices 1 2 3 4 5 6 
#
# 1 0.010578 -0.001229 -0.002906 0.000000 0.000000 0.000000
# 2 -0.001229 0.010578 -0.002906 0.000000 0.000000 0.000000
# 3 -0.002906 -0.002906 0.006474 0.000000 0.000000 0.000000
# 4 0.000000 0.000000 0.000000 0.028015 0.000000 0.000000
# 5 0.000000 0.000000 0.000000 0.000000 0.028015 0.000000
# 6 0.000000 0.000000 0.000000 0.000000 0.000000 0.052835
#
#
# Mechanical properties :
#
#
# Convention : Reuss Voigt Hill
#
# Bulk Modulus (GPa) = 73.82037 86.38584 80.10310
# Shear Modulus (GPa) = 32.23866 36.88250 34.56058
#
# Velocity S-wave (km/s) = 4.03671 4.31767 4.17955
# Velocity P-wave (km/s) = 7.68369 8.27768 7.98621
#
# Compressibility (1/GPa) = 0.01354640
#
# Stress axis : x y z
#
# Youngs Moduli (GPa) = 94.53804 94.53756 154.46782
#
# Poissons Ratio (x) = 0.11620 0.44891
# Poissons Ratio (y) = 0.11620 0.44891
# Poissons Ratio (z) = 0.27474 0.27474
#
# Static dielectric constant tensor:
#      x y z
#    x 1.709230 0.000000 0.000000 
#    y 0.000000 1.709230 0.000000 
#    z 0.000000 0.000000 1.782640 
# 
# From -- ./inp_files/7008.got.cif
#   From: 2010.05.17/outbox.cif.g08.bks.cpg/sg119_4_cif.got.tgz:7008.got - 2010.05.20 11:21:29.
