data_PCOD9559870
_publ_section_title
;
Structure prediction by ZEFSAII (Michael W. Deem and Ramdas Pophale) SiO2 
 PCOD9559870
Probable space group: I -4 C 2
;
_chemical_formula_sum "Si O2"
_cell_formula_units_Z 72
_cell_length_a 20.612466
_cell_length_b 20.612466
_cell_length_c 8.696017
_cell_angle_alpha 90.000000
_cell_angle_beta 90.000000
_cell_angle_gamma 90.000000
_cell_volume 3694.709393
_symmetry_space_group_name_H-M "I -4 C 2"
_symmetry_group_IT_number 120
_symmetry_cell_setting 'tetragonal'
loop_
_space_group_symop_operation_xyz
x,y,z
y,-x,-z
-x,-y,z
-y,x,-z
y,x,1/2-z
-y,-x,1/2-z
-x,y,1/2+z
x,-y,1/2+z
1/2+x,1/2+y,1/2+z
1/2+y,1/2-x,1/2-z
1/2-x,1/2-y,1/2+z
1/2-y,1/2+x,1/2-z
1/2+y,1/2+x,-z
1/2-y,1/2-x,-z
1/2-x,1/2+y,z
1/2+x,1/2-y,z
loop_
_atom_site_type_symbol
_atom_site_label
_atom_site_fract_x
_atom_site_fract_y
_atom_site_fract_z
Si Si1 0.436113 0.768457 0.935628
Si Si2 0.500000 0.000000 0.750000
Si Si3 0.500000 0.500000 0.500000
Si Si4 0.784488 0.059855 0.392457
Si Si5 0.700617 0.698030 0.063629
Si Si6 0.919998 0.419998 0.500000
Si Si7 0.572887 0.572887 0.250000
O O1 0.437970 0.765565 0.750000
O O2 0.372424 0.727301 0.982766
O O3 0.431446 0.842662 0.990284
O O4 0.499052 0.733188 0.003810
O O5 0.456253 0.047254 0.644857
O O6 0.524741 0.556645 0.389476
O O7 0.785870 0.127374 0.485092
O O8 0.855263 0.059767 0.312008
O O9 0.700009 0.700009 0.250000
O O10 0.748967 0.751034 0.000000
#
# Coordination Sequence:
#
# PCOD9559870 Si02
#       7
#    16   4   4  16  16   8   8
#     4  11  22  41  66  93 127 167 211 269 322 390
#     4  10  24  42  64  98 124 162 204 282 324 406
#     4  10  24  34  60  86 120 178 200 258 308 374
#     4  11  23  41  62  92 127 165 213 268 317 385
#     4  10  22  43  63  89 129 165 208 266 323 385
#     4  11  22  44  68  92 128 162 214 263 338 390
#     4  11  20  40  58  86 128 162 216 252 314 369
#
# _framework density 19.487324000000001
#
# number of rings (size 3 to 8) (size 9 to 14) (size 15 to 20)
#    0.000    1.333    4.444    2.667    0.000    1.778 
#   12.000    0.000    0.000    0.000    0.000    0.000 
#    0.000    0.000    0.000    0.000    0.000    0.000 
#
# Total GULP energy -201094.818592 kJ/mol
# GULP energy per Si atom -5585.967183 kJ/mol
# Density = 1.944297 g / cm^3
# Si number density = 19.487324 Si / 1000 Ang^3
#
#
#
# Elastic Constant Matrix: (Units=GPa)
#
#
# Indices 1 2 3 4 5 6 
#
# 1 198.0170 49.4821 40.1781 0.0000 0.0000 0.0000
# 2 49.4821 198.0234 40.1699 0.0000 0.0000 0.0000
# 3 40.1781 40.1699 44.1093 0.0000 0.0000 0.0000
# 4 0.0000 0.0000 0.0000 28.9047 0.0000 0.0000
# 5 0.0000 0.0000 0.0000 0.0000 28.9042 0.0000
# 6 0.0000 0.0000 0.0000 0.0000 0.0000 31.1152
#
#
#
# Elastic Compliance Matrix: (Units=1/GPa)
#
#
# Indices 1 2 3 4 5 6 
#
# 1 0.006235 -0.000498 -0.005226 0.000000 0.000000 0.000000
# 2 -0.000498 0.006234 -0.005224 0.000000 0.000000 0.000000
# 3 -0.005226 -0.005224 0.032188 0.000000 0.000000 0.000000
# 4 0.000000 0.000000 0.000000 0.034596 0.000000 0.000000
# 5 0.000000 0.000000 0.000000 0.000000 0.034597 0.000000
# 6 0.000000 0.000000 0.000000 0.000000 0.000000 0.032139
#
#
# Mechanical properties :
#
#
# Convention : Reuss Voigt Hill
#
# Bulk Modulus (GPa) = 43.93237 77.75664 60.84451
# Shear Modulus (GPa) = 28.49475 38.47279 33.48377
#
# Velocity S-wave (km/s) = 3.82805 4.44807 4.14965
# Velocity P-wave (km/s) = 6.49089 8.14667 7.36545
#
# Compressibility (1/GPa) = 0.02276226
#
# Stress axis : x y z
#
# Youngs Moduli (GPa) = 160.39013 160.41151 31.06745
#
# Poissons Ratio (x) = 0.07987 0.16235
# Poissons Ratio (y) = 0.07986 0.16229
# Poissons Ratio (z) = 0.83815 0.83794
#
# Static dielectric constant tensor:
#      x y z
#    x 1.681370 0.000000 0.000000 
#    y 0.000000 1.681370 0.000000 
#    z 0.000000 0.000000 1.671400 
# 
# From -- ./inp_files/1389.got.cif
#   From: 2010.05.17/outbox.cif.g08.bks.cpg/sg120_1_cif.got.tgz:1389.got - 2010.05.20 11:28:13.
