data_PCOD9559753
_publ_section_title
;
Structure prediction by ZEFSAII (Michael W. Deem and Ramdas Pophale) SiO2 
 PCOD9559753
Probable space group: I -4 C 2
;
_chemical_formula_sum "Si O2"
_cell_formula_units_Z 96
_cell_length_a 15.313265
_cell_length_b 15.313265
_cell_length_c 16.268997
_cell_angle_alpha 90.000000
_cell_angle_beta 90.000000
_cell_angle_gamma 90.000000
_cell_volume 3815.016103
_symmetry_space_group_name_H-M "I -4 C 2"
_symmetry_group_IT_number 120
_symmetry_cell_setting 'tetragonal'
loop_
_space_group_symop_operation_xyz
x,y,z
y,-x,-z
-x,-y,z
-y,x,-z
y,x,1/2-z
-y,-x,1/2-z
-x,y,1/2+z
x,-y,1/2+z
1/2+x,1/2+y,1/2+z
1/2+y,1/2-x,1/2-z
1/2-x,1/2-y,1/2+z
1/2-y,1/2+x,1/2-z
1/2+y,1/2+x,-z
1/2-y,1/2-x,-z
1/2-x,1/2+y,z
1/2+x,1/2-y,z
loop_
_atom_site_type_symbol
_atom_site_label
_atom_site_fract_x
_atom_site_fract_y
_atom_site_fract_z
Si Si1 0.592558 0.092558 0.000000
Si Si2 0.534036 0.151644 0.361932
Si Si3 0.186167 0.599274 0.769938
Si Si4 0.171168 0.914780 0.582680
Si Si5 0.000000 0.000000 0.610335
Si Si6 0.728157 0.152593 0.872161
Si Si7 0.105861 0.105861 0.750000
Si Si8 0.777539 0.277539 0.000000
O O1 0.592757 0.176634 0.062259
O O2 0.603805 0.013672 0.063336
O O3 0.481723 0.140646 0.276857
O O4 0.628155 0.263602 0.484501
O O5 0.633329 0.118886 0.353228
O O6 0.256605 0.472652 0.627164
O O7 0.160862 0.681802 0.713338
O O8 0.290225 0.592798 0.767289
O O9 0.138707 0.830808 0.635244
O O10 0.080412 0.957049 0.560965
O O11 0.057329 0.061301 0.672020
O O12 0.724289 0.244752 0.919972
#
# Coordination Sequence:
#
# PCOD9559753 Si02
#       8
#     8  16  16  16   8  16   8   8
#     4   9  20  46  72 104 149 197 264 333 378 452
#     4  11  24  44  75 109 152 210 272 332 399 480
#     4  11  23  41  72 109 152 207 266 335 400 488
#     4  10  20  43  71 113 149 208 258 321 413 505
#     4  11  24  40  74 117 162 193 253 342 420 497
#     4   8  18  40  75  98 145 202 258 315 387 489
#     4  11  24  42  66 116 166 195 246 330 438 483
#     4   7  18  38  68  94 143 205 264 299 396 504
#
# _framework density 25.163720999999999
#
# number of rings (size 3 to 8) (size 9 to 14) (size 15 to 20)
#    1.000    1.167    1.667    1.000    2.333    0.333 
#    0.000    8.333    0.000    7.000    0.000    0.000 
#    0.000    0.000    0.000    0.000    0.000    0.000 
#
# Total GULP energy -267606.710449 kJ/mol
# GULP energy per Si atom -5575.139801 kJ/mol
# Density = 2.510645 g / cm^3
# Si number density = 25.163721 Si / 1000 Ang^3
#
#
#
# Elastic Constant Matrix: (Units=GPa)
#
#
# Indices 1 2 3 4 5 6 
#
# 1 140.0784 73.1030 46.5283 0.0000 0.0000 0.0000
# 2 73.1030 140.0784 46.5283 0.0000 0.0000 0.0000
# 3 46.5283 46.5283 56.6769 0.0000 0.0000 0.0000
# 4 0.0000 0.0000 0.0000 27.5127 0.0000 0.0000
# 5 0.0000 0.0000 0.0000 0.0000 27.5127 0.0000
# 6 0.0000 0.0000 0.0000 0.0000 0.0000 28.7099
#
#
#
# Elastic Compliance Matrix: (Units=1/GPa)
#
#
# Indices 1 2 3 4 5 6 
#
# 1 0.011121 -0.003810 -0.006002 0.000000 0.000000 0.000000
# 2 -0.003810 0.011121 -0.006002 0.000000 0.000000 0.000000
# 3 -0.006002 -0.006002 0.027498 0.000000 0.000000 0.000000
# 4 0.000000 0.000000 0.000000 0.036347 0.000000 0.000000
# 5 0.000000 0.000000 0.000000 0.000000 0.036347 0.000000
# 6 0.000000 0.000000 0.000000 0.000000 0.000000 0.034831
#
#
# Mechanical properties :
#
#
# Convention : Reuss Voigt Hill
#
# Bulk Modulus (GPa) = 55.21001 74.35032 64.78017
# Shear Modulus (GPa) = 25.65048 28.12534 26.88791
#
# Velocity S-wave (km/s) = 3.19618 3.34682 3.27237
# Velocity P-wave (km/s) = 5.96730 6.67426 6.33066
#
# Compressibility (1/GPa) = 0.01811266
#
# Stress axis : x y z
#
# Youngs Moduli (GPa) = 89.92213 89.92213 36.36666
#
# Poissons Ratio (x) = 0.34261 0.21826
# Poissons Ratio (y) = 0.34261 0.21826
# Poissons Ratio (z) = 0.53967 0.53967
#
# Static dielectric constant tensor:
#      x y z
#    x 2.072220 0.000000 0.000000 
#    y 0.000000 2.072220 0.000000 
#    z 0.000000 0.000000 2.199810 
# 
# From -- ./inp_files/5996.got.cif
#   From: 2010.05.17/outbox.cif.g08.bks.cpg/sg120_3_cif.got.tgz:5996.got - 2010.05.20 11:28:13.
