data_PCOD9559803
_publ_section_title
;
Structure prediction by ZEFSAII (Michael W. Deem and Ramdas Pophale) SiO2 
 PCOD9559803
Probable space group: I -4 C 2
;
_chemical_formula_sum "Si O2"
_cell_formula_units_Z 104
_cell_length_a 17.080508
_cell_length_b 17.080508
_cell_length_c 17.121706
_cell_angle_alpha 90.000000
_cell_angle_beta 90.000000
_cell_angle_gamma 90.000000
_cell_volume 4995.150775
_symmetry_space_group_name_H-M "I -4 C 2"
_symmetry_group_IT_number 120
_symmetry_cell_setting 'tetragonal'
loop_
_space_group_symop_operation_xyz
x,y,z
y,-x,-z
-x,-y,z
-y,x,-z
y,x,1/2-z
-y,-x,1/2-z
-x,y,1/2+z
x,-y,1/2+z
1/2+x,1/2+y,1/2+z
1/2+y,1/2-x,1/2-z
1/2-x,1/2-y,1/2+z
1/2-y,1/2+x,1/2-z
1/2+y,1/2+x,-z
1/2-y,1/2-x,-z
1/2-x,1/2+y,z
1/2+x,1/2-y,z
loop_
_atom_site_type_symbol
_atom_site_label
_atom_site_fract_x
_atom_site_fract_y
_atom_site_fract_z
Si Si1 0.666686 0.829229 0.691887
Si Si2 0.057910 0.218911 0.380574
Si Si3 0.343826 0.343826 0.750000
Si Si4 0.443041 0.389156 0.020222
Si Si5 0.395420 0.914104 0.655264
Si Si6 0.333224 0.610336 0.669885
Si Si7 0.416226 0.058509 0.409185
O O1 0.644492 0.742588 0.716339
O O2 0.629592 0.883954 0.761358
O O3 0.759689 0.831571 0.679072
O O4 0.623962 0.854097 0.612992
O O5 0.100114 0.156400 0.323882
O O6 0.063449 0.187096 0.467457
O O7 0.090293 0.307250 0.377973
O O8 0.969871 0.213425 0.348060
O O9 0.394123 0.379715 0.099278
O O10 0.408348 0.464720 0.973966
O O11 0.473450 0.881244 0.613609
O O12 0.418371 0.006379 0.642410
O O13 0.381802 0.618199 0.750000
O O14 0.438526 0.061475 0.500000
#
# Coordination Sequence:
#
# PCOD9559803 Si02
#       7
#    16  16   8  16  16  16  16
#     4  11  22  42  63  92 133 173 213 272 324 389
#     4  10  22  43  66  94 129 167 219 269 326 394
#     4  10  24  40  63  96 128 169 224 262 328 392
#     4   9  21  43  66  92 130 169 211 273 335 385
#     4  10  21  41  64  92 130 172 216 264 319 394
#     4  11  23  42  66  99 126 170 221 266 330 400
#     4  11  23  41  64  97 131 172 223 267 323 391
#
# _framework density 20.820193
#
# number of rings (size 3 to 8) (size 9 to 14) (size 15 to 20)
#    0.000    1.692    2.308    1.846    4.308    2.462 
#    5.538    0.000    0.000    0.000    0.000    0.000 
#    0.000    0.000    0.000    0.000    0.000    0.000 
#
# Total GULP energy -289571.304046 kJ/mol
# GULP energy per Si atom -5568.678924 kJ/mol
# Density = 2.077281 g / cm^3
# Si number density = 20.820193 Si / 1000 Ang^3
#
#
#
# Elastic Constant Matrix: (Units=GPa)
#
#
# Indices 1 2 3 4 5 6 
#
# 1 0.8187 48.6320 20.2463 0.0000 0.0000 0.0000
# 2 48.6320 0.8275 20.2477 0.0000 0.0000 0.0000
# 3 20.2463 20.2477 52.6491 0.0000 0.0000 0.0000
# 4 0.0000 0.0000 0.0000 38.5870 0.0000 0.0000
# 5 0.0000 0.0000 0.0000 0.0000 38.5943 0.0000
# 6 0.0000 0.0000 0.0000 0.0000 0.0000 23.8907
#
#
#
# Elastic Compliance Matrix: (Units=1/GPa)
#
#
# Indices 1 2 3 4 5 6 
#
# 1 0.004296 0.025215 -0.011349 0.000000 0.000000 0.000000
# 2 0.025215 0.004301 -0.011351 0.000000 0.000000 0.000000
# 3 -0.011349 -0.011351 0.027723 0.000000 0.000000 0.000000
# 4 0.000000 0.000000 0.000000 0.025915 0.000000 0.000000
# 5 0.000000 0.000000 0.000000 0.000000 0.025911 0.000000
# 6 0.000000 0.000000 0.000000 0.000000 0.000000 0.041857
#
#
# Mechanical properties :
#
#
# Convention : Reuss Voigt Hill
#
# Bulk Modulus (GPa) = 24.18324 25.83859 25.01091
# Shear Modulus (GPa) = 36.03422 17.89235 26.96329
#
# Velocity S-wave (km/s) = 4.16472 2.93469 3.60259
# Velocity P-wave (km/s) = 5.89636 4.89086 5.41699
#
# Compressibility (1/GPa) = 0.04135096
#
# Stress axis : x y z
#
# Youngs Moduli (GPa) = 232.76238 232.50814 36.07075
#
# Poissons Ratio (x) = -5.86274 0.40938
# Poissons Ratio (y) = -5.86915 0.40942
# Poissons Ratio (z) = 2.64171 2.63910
#
# Static dielectric constant tensor:
#      x y z
#    x 1.644830 0.000000 0.000000 
#    y 0.000000 1.644840 0.000000 
#    z 0.000000 0.000000 1.799340 
# 
# From -- ./inp_files/4539.got.cif
#   From: 2010.05.17/outbox.cif.g08.bks.cpg/sg120_3_cif.got.tgz:4539.got - 2010.05.20 11:28:13.
