data_PCOD9559692
_publ_section_title
;
Structure prediction by ZEFSAII (Michael W. Deem and Ramdas Pophale) SiO2 
 PCOD9559692
Probable space group: I -4 C 2
;
_chemical_formula_sum "Si O2"
_cell_formula_units_Z 80
_cell_length_a 27.253901
_cell_length_b 27.253901
_cell_length_c 5.650455
_cell_angle_alpha 90.000000
_cell_angle_beta 90.000000
_cell_angle_gamma 90.000000
_cell_volume 4197.017389
_symmetry_space_group_name_H-M "I -4 C 2"
_symmetry_group_IT_number 120
_symmetry_cell_setting 'tetragonal'
loop_
_space_group_symop_operation_xyz
x,y,z
y,-x,-z
-x,-y,z
-y,x,-z
y,x,1/2-z
-y,-x,1/2-z
-x,y,1/2+z
x,-y,1/2+z
1/2+x,1/2+y,1/2+z
1/2+y,1/2-x,1/2-z
1/2-x,1/2-y,1/2+z
1/2-y,1/2+x,1/2-z
1/2+y,1/2+x,-z
1/2-y,1/2-x,-z
1/2-x,1/2+y,z
1/2+x,1/2-y,z
loop_
_atom_site_type_symbol
_atom_site_label
_atom_site_fract_x
_atom_site_fract_y
_atom_site_fract_z
Si Si1 0.624429 0.716173 0.067111
Si Si2 0.013870 0.097984 0.936118
Si Si3 0.710621 0.476777 0.119661
Si Si4 0.215527 0.215527 0.250000
Si Si5 0.310318 0.831665 0.243733
Si Si6 0.887845 0.887845 0.750000
O O1 0.634655 0.762387 0.233347
O O2 0.604792 0.668468 0.194032
O O3 0.581058 0.724637 0.877431
O O4 0.677367 0.702475 0.956830
O O5 0.072611 0.103379 0.953940
O O6 0.003803 0.075076 0.678936
O O7 0.987906 0.151731 0.900014
O O8 0.728473 0.501508 0.365152
O O9 0.273709 0.205788 0.269424
O O10 0.336158 0.836158 0.500000
O O11 0.339241 0.839241 0.000000
#
# Coordination Sequence:
#
# PCOD9559692 Si02
#       6
#    16  16  16   8  16   8
#     4  11  22  32  59  79  98 149 164 204 303 322
#     4  10  22  39  50  73 100 112 154 228 249 318
#     4  10  21  39  49  74 106 122 172 227 244 324
#     4  10  21  32  50  78 108 124 170 212 248 358
#     4  10  20  36  46  73 111 123 158 212 237 329
#     4  12  21  32  60  75  88 131 164 198 283 332
#
# _framework density 19.061154999999999
#
# number of rings (size 3 to 8) (size 9 to 14) (size 15 to 20)
#    0.000    1.600    4.000    3.600    5.600    4.000 
#    0.000    0.000    0.000    1.800    0.000    0.000 
#    0.000    0.000    0.000    0.000    0.000    0.000 
#
# Total GULP energy -222916.568145 kJ/mol
# GULP energy per Si atom -5572.914204 kJ/mol
# Density = 1.901777 g / cm^3
# Si number density = 19.061155 Si / 1000 Ang^3
#
#
#
# Elastic Constant Matrix: (Units=GPa)
#
#
# Indices 1 2 3 4 5 6 
#
# 1 41.2745 37.7681 20.4416 0.0000 0.0000 0.0000
# 2 37.7681 41.2745 20.4416 0.0000 0.0000 0.0000
# 3 20.4416 20.4416 158.6132 0.0000 0.0000 0.0000
# 4 0.0000 0.0000 0.0000 19.5795 0.0000 0.0000
# 5 0.0000 0.0000 0.0000 0.0000 19.5795 0.0000
# 6 0.0000 0.0000 0.0000 0.0000 0.0000 22.8438
#
#
#
# Elastic Compliance Matrix: (Units=1/GPa)
#
#
# Indices 1 2 3 4 5 6 
#
# 1 0.149372 -0.135817 -0.001747 0.000000 0.000000 0.000000
# 2 -0.135817 0.149372 -0.001747 0.000000 0.000000 0.000000
# 3 -0.001747 -0.001747 0.006755 0.000000 0.000000 0.000000
# 4 0.000000 0.000000 0.000000 0.051074 0.000000 0.000000
# 5 0.000000 0.000000 0.000000 0.000000 0.051074 0.000000
# 6 0.000000 0.000000 0.000000 0.000000 0.000000 0.043776
#
#
# Mechanical properties :
#
#
# Convention : Reuss Voigt Hill
#
# Bulk Modulus (GPa) = 37.20632 44.27386 40.74009
# Shear Modulus (GPa) = 6.76588 23.23464 15.00026
#
# Velocity S-wave (km/s) = 1.88607 3.49514 2.80831
# Velocity P-wave (km/s) = 4.93000 6.29013 5.65113
#
# Compressibility (1/GPa) = 0.02687715
#
# Stress axis : x y z
#
# Youngs Moduli (GPa) = 6.69471 6.69471 148.04024
#
# Poissons Ratio (x) = 0.90925 0.25861
# Poissons Ratio (y) = 0.90925 0.25861
# Poissons Ratio (z) = 0.01170 0.01170
#
# Static dielectric constant tensor:
#      x y z
#    x 1.703760 0.000000 0.000000 
#    y 0.000000 1.703760 0.000000 
#    z 0.000000 0.000000 5.658080 
# 
# From -- ./inp_files/460.got.cif
#   From: 2010.05.17/outbox.cif.g08.bks.cpg/sg120_1_cif.got.tgz:460.got - 2010.05.20 11:28:13.
