data_PCOD9559197
_publ_section_title
;
Structure prediction by ZEFSAII (Michael W. Deem and Ramdas Pophale) SiO2 
 PCOD9559197
Probable space group: I -4 M 2
;
_chemical_formula_sum "Si O2"
_cell_formula_units_Z 48
_cell_length_a 9.334691
_cell_length_b 9.334691
_cell_length_c 32.069737
_cell_angle_alpha 90.000000
_cell_angle_beta 90.000000
_cell_angle_gamma 90.000000
_cell_volume 2794.443229
_symmetry_space_group_name_H-M "I -4 M 2"
_symmetry_group_IT_number 119
_symmetry_cell_setting 'tetragonal'
loop_
_space_group_symop_operation_xyz
x,y,z
y,-x,-z
-x,-y,z
-y,x,-z
y,x,-z
-y,-x,-z
-x,y,z
x,-y,z
1/2+x,1/2+y,1/2+z
1/2+y,1/2-x,1/2-z
1/2-x,1/2-y,1/2+z
1/2-y,1/2+x,1/2-z
1/2+y,1/2+x,1/2-z
1/2-y,1/2-x,1/2-z
1/2-x,1/2+y,1/2+z
1/2+x,1/2-y,1/2+z
loop_
_atom_site_type_symbol
_atom_site_label
_atom_site_fract_x
_atom_site_fract_y
_atom_site_fract_z
Si Si1 0.669198 0.171821 0.962582
Si Si2 0.665012 0.674209 0.379702
Si Si3 0.832061 0.172475 0.213209
O O1 0.500000 0.199376 0.963363
O O2 0.736995 0.217396 0.918295
O O3 0.691201 0.000000 0.966743
O O4 0.748541 0.251460 0.000000
O O5 0.500000 0.719749 0.386374
O O6 0.663963 0.500000 0.378524
O O7 0.713634 0.719267 0.333453
O O8 0.744169 0.244169 0.250000
O O9 0.000000 0.210973 0.217119
O O10 0.822436 0.000000 0.215269
#
# Coordination Sequence:
#
# PCOD9559197 Si02
#       3
#    16  16  16
#     4  10  20  33  51  75 100 127 162 202 244 292
#     4   8  15  30  51  72  95 126 165 206 242 280
#     4   9  18  32  50  74 102 130 163 202 243 289
#
# _framework density 17.176943999999999
#
# number of rings (size 3 to 8) (size 9 to 14) (size 15 to 20)
#    0.000    3.000    0.000    3.000    0.000    4.000 
#    0.000    5.000    0.000    2.000    0.000    0.000 
#    0.000    0.000    0.000    0.000    0.000    0.000 
#
# Total GULP energy -133741.951558 kJ/mol
# GULP energy per Si atom -5572.581315 kJ/mol
# Density = 1.713785 g / cm^3
# Si number density = 17.176944 Si / 1000 Ang^3
#
#
#
# Elastic Constant Matrix: (Units=GPa)
#
#
# Indices 1 2 3 4 5 6 
#
# 1 42.6241 40.3590 71.9187 0.0000 0.0000 0.0000
# 2 40.3590 42.6270 71.9198 0.0000 0.0000 0.0000
# 3 71.9187 71.9198 206.8764 0.0000 0.0000 0.0000
# 4 0.0000 0.0000 0.0000 29.7321 0.0000 0.0000
# 5 0.0000 0.0000 0.0000 0.0000 29.7321 0.0000
# 6 0.0000 0.0000 0.0000 0.0000 0.0000 23.0100
#
#
#
# Elastic Compliance Matrix: (Units=1/GPa)
#
#
# Indices 1 2 3 4 5 6 
#
# 1 0.235772 -0.205437 -0.010545 0.000000 0.000000 0.000000
# 2 -0.205437 0.235744 -0.010537 0.000000 0.000000 0.000000
# 3 -0.010545 -0.010537 0.012163 0.000000 0.000000 0.000000
# 4 0.000000 0.000000 0.000000 0.033634 0.000000 0.000000
# 5 0.000000 0.000000 0.000000 0.000000 0.033634 0.000000
# 6 0.000000 0.000000 0.000000 0.000000 0.000000 0.043459
#
#
# Mechanical properties :
#
#
# Convention : Reuss Voigt Hill
#
# Bulk Modulus (GPa) = 32.63550 73.39138 53.01344
# Shear Modulus (GPa) = 4.72743 23.69019 14.20881
#
# Velocity S-wave (km/s) = 1.66077 3.71777 2.87923
# Velocity P-wave (km/s) = 4.76638 7.82614 6.47946
#
# Compressibility (1/GPa) = 0.03064148
#
# Stress axis : x y z
#
# Youngs Moduli (GPa) = 4.24138 4.24189 82.21760
#
# Poissons Ratio (x) = 0.87144 0.86697
# Poissons Ratio (y) = 0.87134 0.86635
# Poissons Ratio (z) = 0.04472 0.04470
#
# Static dielectric constant tensor:
#      x y z
#    x 1.569900 0.000000 0.000000 
#    y 0.000000 1.569900 0.000000 
#    z 0.000000 0.000000 1.584010 
# 
# From -- ./inp_files/8325.got.cif
#   From: 2010.05.17/outbox.cif.g08.bks.cpg/sg119_5_cif.got.tgz:8325.got - 2010.05.20 11:21:29.
