data_PCOD9559794
_publ_section_title
;
Structure prediction by ZEFSAII (Michael W. Deem and Ramdas Pophale) SiO2 
 PCOD9559794
Probable space group: I -4 C 2
;
_chemical_formula_sum "Si O2"
_cell_formula_units_Z 64
_cell_length_a 11.210647
_cell_length_b 11.210647
_cell_length_c 25.136571
_cell_angle_alpha 90.000000
_cell_angle_beta 90.000000
_cell_angle_gamma 90.000000
_cell_volume 3159.129207
_symmetry_space_group_name_H-M "I -4 C 2"
_symmetry_group_IT_number 120
_symmetry_cell_setting 'tetragonal'
loop_
_space_group_symop_operation_xyz
x,y,z
y,-x,-z
-x,-y,z
-y,x,-z
y,x,1/2-z
-y,-x,1/2-z
-x,y,1/2+z
x,-y,1/2+z
1/2+x,1/2+y,1/2+z
1/2+y,1/2-x,1/2-z
1/2-x,1/2-y,1/2+z
1/2-y,1/2+x,1/2-z
1/2+y,1/2+x,-z
1/2-y,1/2-x,-z
1/2-x,1/2+y,z
1/2+x,1/2-y,z
loop_
_atom_site_type_symbol
_atom_site_label
_atom_site_fract_x
_atom_site_fract_y
_atom_site_fract_z
Si Si1 0.375724 0.676746 0.806375
Si Si2 0.010102 0.128100 0.096684
Si Si3 0.431122 0.873494 0.556856
Si Si4 0.742193 0.880057 0.157775
O O1 0.389168 0.610833 0.750000
O O2 0.376627 0.593394 0.858570
O O3 0.239982 0.725728 0.807963
O O4 0.491497 0.761716 0.812801
O O5 0.130328 0.132132 0.130134
O O6 0.002510 0.249412 0.063156
O O7 0.000000 0.000000 0.067528
O O8 0.365903 0.865903 0.500000
O O9 0.349790 0.880301 0.608994
O O10 0.500000 0.000000 0.556378
#
# Coordination Sequence:
#
# PCOD9559794 Si02
#       4
#    16  16  16  16
#     4  10  22  36  62  90 123 166 205 255 315 374
#     4   9  20  39  59  88 122 158 207 258 305 375
#     4  10  21  41  63  90 123 165 207 264 321 375
#     4  10  21  40  60  88 127 158 210 261 311 381
#
# _framework density 20.258749000000002
#
# number of rings (size 3 to 8) (size 9 to 14) (size 15 to 20)
#    0.000    2.250    0.000    1.500    3.500    3.500 
#   18.000    0.000    0.000    0.000    0.000    0.000 
#    0.000    0.000    0.000    0.000    0.000    0.000 
#
# Total GULP energy -178170.700130 kJ/mol
# GULP energy per Si atom -5567.834379 kJ/mol
# Density = 2.021264 g / cm^3
# Si number density = 20.258749 Si / 1000 Ang^3
#
#
#
# Elastic Constant Matrix: (Units=GPa)
#
#
# Indices 1 2 3 4 5 6 
#
# 1 91.4119 43.9087 29.4066 0.0000 0.0000 0.0000
# 2 43.9087 91.4129 29.4065 0.0000 0.0000 0.0000
# 3 29.4066 29.4065 87.6067 0.0000 0.0000 0.0000
# 4 0.0000 0.0000 0.0000 -21.3500 0.0000 0.0000
# 5 0.0000 0.0000 0.0000 0.0000 -21.3526 0.0000
# 6 0.0000 0.0000 0.0000 0.0000 0.0000 30.1818
#
#
#
# Elastic Compliance Matrix: (Units=1/GPa)
#
#
# Indices 1 2 3 4 5 6 
#
# 1 0.014852 -0.006199 -0.002904 0.000000 0.000000 0.000000
# 2 -0.006199 0.014851 -0.002904 0.000000 0.000000 0.000000
# 3 -0.002904 -0.002904 0.013364 0.000000 0.000000 0.000000
# 4 0.000000 0.000000 0.000000 -0.046838 0.000000 0.000000
# 5 0.000000 0.000000 0.000000 0.000000 -0.046833 0.000000
# 6 0.000000 0.000000 0.000000 0.000000 0.000000 0.033133
#
#
# Mechanical properties :
#
#
# Convention : Reuss Voigt Hill
#
# Bulk Modulus (GPa) = 52.48889 52.87501 52.68195
# Shear Modulus (GPa) = 387.74118 8.67647 198.20883
#
# Velocity S-wave (km/s) = 13.84955 2.07174 9.90207
# Velocity P-wave (km/s) = 16.78428 5.64618 12.52181
#
# Compressibility (1/GPa) = 0.01905165
#
# Stress axis : x y z
#
# Youngs Moduli (GPa) = 67.33267 67.33363 74.82602
#
# Poissons Ratio (x) = 0.41743 0.21731
# Poissons Ratio (y) = 0.41743 0.21731
# Poissons Ratio (z) = 0.19555 0.19555
#
# Static dielectric constant tensor:
#      x y z
#    x 1.791550 0.000000 0.000000 
#    y 0.000000 1.791550 0.000000 
#    z 0.000000 0.000000 1.724610 
# 
# From -- ./inp_files/5031.got.cif
#   From: 2010.05.17/outbox.cif.g08.bks.cpg/sg120_3_cif.got.tgz:5031.got - 2010.05.20 11:28:13.
