data_PCOD9559440
_publ_section_title
;
Structure prediction by ZEFSAII (Michael W. Deem and Ramdas Pophale) SiO2 
 PCOD9559440
Probable space group: I -4 M 2
;
_chemical_formula_sum "Si O2"
_cell_formula_units_Z 40
_cell_length_a 11.083079
_cell_length_b 11.083079
_cell_length_c 14.374773
_cell_angle_alpha 90.000000
_cell_angle_beta 90.000000
_cell_angle_gamma 90.000000
_cell_volume 1765.720068
_symmetry_space_group_name_H-M "I -4 M 2"
_symmetry_group_IT_number 119
_symmetry_cell_setting 'tetragonal'
loop_
_space_group_symop_operation_xyz
x,y,z
y,-x,-z
-x,-y,z
-y,x,-z
y,x,-z
-y,-x,-z
-x,y,z
x,-y,z
1/2+x,1/2+y,1/2+z
1/2+y,1/2-x,1/2-z
1/2-x,1/2-y,1/2+z
1/2-y,1/2+x,1/2-z
1/2+y,1/2+x,1/2-z
1/2-y,1/2-x,1/2-z
1/2-x,1/2+y,1/2+z
1/2+x,1/2-y,1/2+z
loop_
_atom_site_type_symbol
_atom_site_label
_atom_site_fract_x
_atom_site_fract_y
_atom_site_fract_z
Si Si1 0.742453 0.257548 0.000000
Si Si2 0.000000 0.350489 0.975996
Si Si3 0.633583 0.500000 0.669946
Si Si4 0.367196 0.283018 0.814128
O O1 0.712728 0.321136 0.902608
O O2 0.878658 0.299350 0.024336
O O3 0.000000 0.259172 0.886389
O O4 0.000000 0.500000 0.966573
O O5 0.500000 0.500000 0.619810
O O6 0.634384 0.612769 0.737910
O O7 0.500000 0.265063 0.853215
O O8 0.327813 0.172188 0.750000
#
# Coordination Sequence:
#
# PCOD9559440 Si02
#       4
#     8   8   8  16
#     4  12  28  47  71 108 152 194 254 323 384 467
#     4  12  28  48  80 113 150 202 267 322 399 460
#     4  10  24  48  72 105 144 198 249 312 389 452
#     4  11  25  45  70 100 142 193 245 309 382 448
#
# _framework density 22.653649000000001
#
# number of rings (size 3 to 8) (size 9 to 14) (size 15 to 20)
#    0.000    0.800    4.000    1.200   11.200    0.400 
#    3.600    0.000    0.000    0.000    0.000    0.000 
#    0.000    0.000    0.000    0.000    0.000    0.000 
#
# Total GULP energy -111345.575333 kJ/mol
# GULP energy per Si atom -5567.278767 kJ/mol
# Density = 2.260209 g / cm^3
# Si number density = 22.653649 Si / 1000 Ang^3
#
#
#
# Elastic Constant Matrix: (Units=GPa)
#
#
# Indices 1 2 3 4 5 6 
#
# 1 112.6992 29.1366 7.6817 0.0000 0.0000 0.0000
# 2 29.1366 112.7004 7.6805 0.0000 0.0000 0.0000
# 3 7.6817 7.6805 80.4265 0.0000 0.0000 0.0000
# 4 0.0000 0.0000 0.0000 -26.3701 0.0000 0.0000
# 5 0.0000 0.0000 0.0000 0.0000 -26.2894 0.0000
# 6 0.0000 0.0000 0.0000 0.0000 0.0000 29.2586
#
#
#
# Elastic Compliance Matrix: (Units=1/GPa)
#
#
# Indices 1 2 3 4 5 6 
#
# 1 0.009546 -0.002421 -0.000680 0.000000 0.000000 0.000000
# 2 -0.002421 0.009545 -0.000680 0.000000 0.000000 0.000000
# 3 -0.000680 -0.000680 0.012564 0.000000 0.000000 0.000000
# 4 0.000000 0.000000 0.000000 -0.037922 0.000000 0.000000
# 5 0.000000 0.000000 0.000000 0.000000 -0.038038 0.000000
# 6 0.000000 0.000000 0.000000 0.000000 0.000000 0.034178
#
#
# Mechanical properties :
#
#
# Convention : Reuss Voigt Hill
#
# Bulk Modulus (GPa) = 41.51050 43.86929 42.68989
# Shear Modulus (GPa) = 914.53064 12.74166 463.63615
#
# Velocity S-wave (km/s) = 20.11412 2.37419 14.32156
# Velocity P-wave (km/s) = 23.61780 5.18873 17.09859
#
# Compressibility (1/GPa) = 0.02409029
#
# Stress axis : x y z
#
# Youngs Moduli (GPa) = 104.76044 104.76180 79.59455
#
# Poissons Ratio (x) = 0.25368 0.05416
# Poissons Ratio (y) = 0.25367 0.05415
# Poissons Ratio (z) = 0.07129 0.07127
#
# Static dielectric constant tensor:
#      x y z
#    x 2.153510 0.000000 0.000000 
#    y 0.000000 2.153860 0.000000 
#    z 0.000000 0.000000 1.813260 
# 
# From -- ./inp_files/4755.got.cif
#   From: 2010.05.17/outbox.cif.g08.bks.cpg/sg119_3_cif.got.tgz:4755.got - 2010.05.20 11:21:29.
