data_PCOD9559881
_publ_section_title
;
Structure prediction by ZEFSAII (Michael W. Deem and Ramdas Pophale) SiO2 
 PCOD9559881
Probable space group: I -4 C 2
;
_chemical_formula_sum "Si O2"
_cell_formula_units_Z 64
_cell_length_a 10.860497
_cell_length_b 10.860497
_cell_length_c 22.294255
_cell_angle_alpha 90.000000
_cell_angle_beta 90.000000
_cell_angle_gamma 90.000000
_cell_volume 2629.616185
_symmetry_space_group_name_H-M "I -4 C 2"
_symmetry_group_IT_number 120
_symmetry_cell_setting 'tetragonal'
loop_
_space_group_symop_operation_xyz
x,y,z
y,-x,-z
-x,-y,z
-y,x,-z
y,x,1/2-z
-y,-x,1/2-z
-x,y,1/2+z
x,-y,1/2+z
1/2+x,1/2+y,1/2+z
1/2+y,1/2-x,1/2-z
1/2-x,1/2-y,1/2+z
1/2-y,1/2+x,1/2-z
1/2+y,1/2+x,-z
1/2-y,1/2-x,-z
1/2-x,1/2+y,z
1/2+x,1/2-y,z
loop_
_atom_site_type_symbol
_atom_site_label
_atom_site_fract_x
_atom_site_fract_y
_atom_site_fract_z
Si Si1 0.739695 0.984721 0.673418
Si Si2 0.760880 0.239121 0.750000
Si Si3 0.000000 0.500000 0.095064
Si Si4 0.255722 0.404464 0.440620
Si Si5 0.865564 0.844281 0.424200
O O1 0.751478 0.106554 0.715996
O O2 0.609849 0.975274 0.640591
O O3 0.825313 0.015118 0.616414
O O4 0.754414 0.858530 0.708132
O O5 0.039756 0.617320 0.056654
O O6 0.231212 0.268887 0.412865
O O7 0.321557 0.389800 0.505083
O O8 0.319408 0.520181 0.409401
#
# Coordination Sequence:
#
# PCOD9559881 Si02
#       5
#    16   8   8  16  16
#     4  11  25  45  73 100 137 182 234 289 343 399
#     4  12  26  48  70 102 136 182 240 292 338 400
#     4  10  22  46  74 100 138 195 230 263 344 450
#     4  10  23  42  69 105 142 178 224 275 344 429
#     4  10  24  43  70 103 142 181 223 281 346 414
#
# _framework density 24.338152999999998
#
# number of rings (size 3 to 8) (size 9 to 14) (size 15 to 20)
#    0.000    1.500    0.000    3.000    0.000   29.000 
#    0.000    5.000    0.000    0.000    0.000    0.000 
#    0.000    0.000    0.000    0.000    0.000    0.000 
#
# Total GULP energy -178809.001909 kJ/mol
# GULP energy per Si atom -5587.781310 kJ/mol
# Density = 2.428276 g / cm^3
# Si number density = 24.338153 Si / 1000 Ang^3
#
#
#
# Elastic Constant Matrix: (Units=GPa)
#
#
# Indices 1 2 3 4 5 6 
#
# 1 145.5545 52.4170 24.8127 0.0000 0.0000 0.0000
# 2 52.4170 145.5538 24.8126 0.0000 0.0000 0.0000
# 3 24.8127 24.8126 59.2674 0.0000 0.0000 0.0000
# 4 0.0000 0.0000 0.0000 -6.6137 0.0000 0.0000
# 5 0.0000 0.0000 0.0000 0.0000 -6.6133 0.0000
# 6 0.0000 0.0000 0.0000 0.0000 0.0000 31.4619
#
#
#
# Elastic Compliance Matrix: (Units=1/GPa)
#
#
# Indices 1 2 3 4 5 6 
#
# 1 0.008190 -0.002547 -0.002363 0.000000 0.000000 0.000000
# 2 -0.002547 0.008190 -0.002363 0.000000 0.000000 0.000000
# 3 -0.002363 -0.002363 0.018851 0.000000 0.000000 0.000000
# 4 0.000000 0.000000 0.000000 -0.151201 0.000000 0.000000
# 5 0.000000 0.000000 0.000000 0.000000 -0.151211 0.000000
# 6 0.000000 0.000000 0.000000 0.000000 0.000000 0.031784
#
#
# Mechanical properties :
#
#
# Convention : Reuss Voigt Hill
#
# Bulk Modulus (GPa) = 48.33896 61.60669 54.97283
# Shear Modulus (GPa) = -23.36929 20.20254 -1.58338
#
# Velocity S-wave (km/s) = -3.10206 2.88423 -0.80746
# Velocity P-wave (km/s) = 2.65973 6.03817 4.66549
#
# Compressibility (1/GPa) = 0.02068725
#
# Stress axis : x y z
#
# Youngs Moduli (GPa) = 122.09780 122.09722 53.04761
#
# Poissons Ratio (x) = 0.31094 0.12533
# Poissons Ratio (y) = 0.31094 0.12533
# Poissons Ratio (z) = 0.28848 0.28848
#
# Static dielectric constant tensor:
#      x y z
#    x 1.989760 0.000000 0.000000 
#    y 0.000000 1.989760 0.000000 
#    z 0.000000 0.000000 2.039050 
# 
# From -- ./inp_files/5696.got.cif
#   From: 2010.05.17/outbox.cif.g08.bks.cpg/sg120_3_cif.got.tgz:5696.got - 2010.05.20 11:28:13.
