data_PCOD9559829
_publ_section_title
;
Structure prediction by ZEFSAII (Michael W. Deem and Ramdas Pophale) SiO2 
 PCOD9559829
Probable space group: I -4 C 2
;
_chemical_formula_sum "Si O2"
_cell_formula_units_Z 56
_cell_length_a 17.077412
_cell_length_b 17.077412
_cell_length_c 9.916073
_cell_angle_alpha 90.000000
_cell_angle_beta 90.000000
_cell_angle_gamma 90.000000
_cell_volume 2891.903704
_symmetry_space_group_name_H-M "I -4 C 2"
_symmetry_group_IT_number 120
_symmetry_cell_setting 'tetragonal'
loop_
_space_group_symop_operation_xyz
x,y,z
y,-x,-z
-x,-y,z
-y,x,-z
y,x,1/2-z
-y,-x,1/2-z
-x,y,1/2+z
x,-y,1/2+z
1/2+x,1/2+y,1/2+z
1/2+y,1/2-x,1/2-z
1/2-x,1/2-y,1/2+z
1/2-y,1/2+x,1/2-z
1/2+y,1/2+x,-z
1/2-y,1/2-x,-z
1/2-x,1/2+y,z
1/2+x,1/2-y,z
loop_
_atom_site_type_symbol
_atom_site_label
_atom_site_fract_x
_atom_site_fract_y
_atom_site_fract_z
Si Si1 0.800339 0.919253 0.202332
Si Si2 0.017745 0.725886 0.056282
Si Si3 0.207548 0.671760 0.773025
Si Si4 0.620521 0.879480 0.500000
O O1 0.882858 0.882858 0.250000
O O2 0.743228 0.845296 0.174157
O O3 0.767219 0.966509 0.328872
O O4 0.785097 0.971131 0.069399
O O5 0.100049 0.706187 0.125008
O O6 0.969515 0.647130 0.017821
O O7 0.294146 0.705855 0.750000
O O8 0.169462 0.647425 0.630831
#
# Coordination Sequence:
#
# PCOD9559829 Si02
#       4
#    16  16  16   8
#     4  10  23  39  64  92 123 164 218 262 313 381
#     4  11  21  40  63  93 127 164 205 268 322 376
#     4  10  22  37  66  90 121 163 219 264 311 374
#     4  10  22  40  57  98 126 163 206 264 326 390
#
# _framework density 19.364405999999999
#
# number of rings (size 3 to 8) (size 9 to 14) (size 15 to 20)
#    0.000    1.714    2.857    0.857   12.000    0.000 
#    0.000    2.857    0.000    6.857    0.000    0.000 
#    0.000    0.000    0.000    0.000    0.000    0.000 
#
# Total GULP energy -156123.830291 kJ/mol
# GULP energy per Si atom -5575.851082 kJ/mol
# Density = 1.932033 g / cm^3
# Si number density = 19.364406 Si / 1000 Ang^3
#
#
#
# Elastic Constant Matrix: (Units=GPa)
#
#
# Indices 1 2 3 4 5 6 
#
# 1 99.3057 13.7100 37.7856 0.0000 0.0000 0.0000
# 2 13.7100 99.3040 37.7853 0.0000 0.0000 0.0000
# 3 37.7856 37.7853 127.9032 0.0000 0.0000 0.0000
# 4 0.0000 0.0000 0.0000 18.6321 0.0000 0.0000
# 5 0.0000 0.0000 0.0000 0.0000 18.6359 0.0000
# 6 0.0000 0.0000 0.0000 0.0000 0.0000 32.0533
#
#
#
# Elastic Compliance Matrix: (Units=1/GPa)
#
#
# Indices 1 2 3 4 5 6 
#
# 1 0.011355 -0.000328 -0.003258 0.000000 0.000000 0.000000
# 2 -0.000328 0.011355 -0.003258 0.000000 0.000000 0.000000
# 3 -0.003258 -0.003258 0.009743 0.000000 0.000000 0.000000
# 4 0.000000 0.000000 0.000000 0.053671 0.000000 0.000000
# 5 0.000000 0.000000 0.000000 0.000000 0.053660 0.000000
# 6 0.000000 0.000000 0.000000 0.000000 0.000000 0.031198
#
#
# Mechanical properties :
#
#
# Convention : Reuss Voigt Hill
#
# Bulk Modulus (GPa) = 53.28697 56.11941 54.70319
# Shear Modulus (GPa) = 26.18852 29.67971 27.93412
#
# Velocity S-wave (km/s) = 3.68150 3.91921 3.80221
# Velocity P-wave (km/s) = 6.75640 7.03732 6.89829
#
# Compressibility (1/GPa) = 0.01876631
#
# Stress axis : x y z
#
# Youngs Moduli (GPa) = 88.06928 88.06778 102.63673
#
# Poissons Ratio (x) = 0.02890 0.33434
# Poissons Ratio (y) = 0.02890 0.33434
# Poissons Ratio (z) = 0.28689 0.28688
#
# Static dielectric constant tensor:
#      x y z
#    x 1.703810 0.000000 0.000000 
#    y 0.000000 1.703810 0.000000 
#    z 0.000000 0.000000 1.673380 
# 
# From -- ./inp_files/992.got.cif
#   From: 2010.05.17/outbox.cif.g08.bks.cpg/sg120_1_cif.got.tgz:992.got - 2010.05.20 11:28:13.
