data_PCOD9559876
_publ_section_title
;
Structure prediction by ZEFSAII (Michael W. Deem and Ramdas Pophale) SiO2 
 PCOD9559876
Probable space group: I -4 C 2
;
_chemical_formula_sum "Si O2"
_cell_formula_units_Z 64
_cell_length_a 13.379669
_cell_length_b 13.379669
_cell_length_c 14.187999
_cell_angle_alpha 90.000000
_cell_angle_beta 90.000000
_cell_angle_gamma 90.000000
_cell_volume 2539.872339
_symmetry_space_group_name_H-M "I -4 C 2"
_symmetry_group_IT_number 120
_symmetry_cell_setting 'tetragonal'
loop_
_space_group_symop_operation_xyz
x,y,z
y,-x,-z
-x,-y,z
-y,x,-z
y,x,1/2-z
-y,-x,1/2-z
-x,y,1/2+z
x,-y,1/2+z
1/2+x,1/2+y,1/2+z
1/2+y,1/2-x,1/2-z
1/2-x,1/2-y,1/2+z
1/2-y,1/2+x,1/2-z
1/2+y,1/2+x,-z
1/2-y,1/2-x,-z
1/2-x,1/2+y,z
1/2+x,1/2-y,z
loop_
_atom_site_type_symbol
_atom_site_label
_atom_site_fract_x
_atom_site_fract_y
_atom_site_fract_z
Si Si1 0.245612 0.312359 0.596510
Si Si2 0.701653 0.050890 0.292616
Si Si3 0.107609 0.370328 0.891859
Si Si4 0.947674 0.099740 0.641866
O O1 0.183864 0.316137 0.500000
O O2 0.165734 0.320224 0.680297
O O3 0.299809 0.205287 0.605041
O O4 0.343325 0.381327 0.590138
O O5 0.695389 0.039072 0.179003
O O6 0.624179 0.973141 0.336194
O O7 0.804835 0.020406 0.345788
O O8 0.095401 0.404600 0.000000
O O9 0.917512 0.082489 0.750000
O O10 0.000000 0.000000 0.607121
#
# Coordination Sequence:
#
# PCOD9559876 Si02
#       4
#    16  16  16  16
#     4  10  22  44  70 106 152 197 243 314 387 456
#     4  11  23  45  72 101 146 199 244 315 386 460
#     4  10  24  44  71 104 143 192 247 304 381 461
#     4  10  23  42  70 113 140 199 264 317 390 458
#
# _framework density 25.198115999999999
#
# number of rings (size 3 to 8) (size 9 to 14) (size 15 to 20)
#    0.000    1.750    0.000    3.750    7.000    4.500 
#    9.000    1.250    0.000    0.000    0.000    0.000 
#    0.000    0.000    0.000    0.000    0.000    0.000 
#
# Total GULP energy -178779.847806 kJ/mol
# GULP energy per Si atom -5586.870244 kJ/mol
# Density = 2.514076 g / cm^3
# Si number density = 25.198116 Si / 1000 Ang^3
#
#
#
# Elastic Constant Matrix: (Units=GPa)
#
#
# Indices 1 2 3 4 5 6 
#
# 1 122.7694 56.7232 25.5328 0.0000 0.0000 0.0000
# 2 56.7232 122.7694 25.5328 0.0000 0.0000 0.0000
# 3 25.5328 25.5328 165.0214 0.0000 0.0000 0.0000
# 4 0.0000 0.0000 0.0000 20.7052 0.0000 0.0000
# 5 0.0000 0.0000 0.0000 0.0000 20.7058 0.0000
# 6 0.0000 0.0000 0.0000 0.0000 0.0000 31.4197
#
#
#
# Elastic Compliance Matrix: (Units=1/GPa)
#
#
# Indices 1 2 3 4 5 6 
#
# 1 0.010484 -0.004657 -0.000902 0.000000 0.000000 0.000000
# 2 -0.004657 0.010484 -0.000902 0.000000 0.000000 0.000000
# 3 -0.000902 -0.000902 0.006339 0.000000 0.000000 0.000000
# 4 0.000000 0.000000 0.000000 0.048297 0.000000 0.000000
# 5 0.000000 0.000000 0.000000 0.000000 0.048296 0.000000
# 6 0.000000 0.000000 0.000000 0.000000 0.000000 0.031827
#
#
# Mechanical properties :
#
#
# Convention : Reuss Voigt Hill
#
# Bulk Modulus (GPa) = 69.50412 69.57086 69.53749
# Shear Modulus (GPa) = 28.82784 34.75087 31.78936
#
# Velocity S-wave (km/s) = 3.38605 3.71766 3.55572
# Velocity P-wave (km/s) = 6.55210 6.78951 6.67186
#
# Compressibility (1/GPa) = 0.01438764
#
# Stress axis : x y z
#
# Youngs Moduli (GPa) = 95.38021 95.38024 157.75727
#
# Poissons Ratio (x) = 0.44414 0.14225
# Poissons Ratio (y) = 0.44414 0.14225
# Poissons Ratio (z) = 0.08600 0.08600
#
# Static dielectric constant tensor:
#      x y z
#    x 2.071790 0.000000 0.000000 
#    y 0.000000 2.071790 0.000000 
#    z 0.000000 0.000000 2.112040 
# 
# From -- ./inp_files/3301.got.cif
#   From: 2010.05.17/outbox.cif.g08.bks.cpg/sg120_2_cif.got.tgz:3301.got - 2010.05.20 11:28:13.
