data_PCOD9559674
_publ_section_title
;
Structure prediction by ZEFSAII (Michael W. Deem and Ramdas Pophale) SiO2 
 PCOD9559674
Probable space group: I -4 C 2
;
_chemical_formula_sum "Si O2"
_cell_formula_units_Z 80
_cell_length_a 29.124069
_cell_length_b 29.124069
_cell_length_c 5.034144
_cell_angle_alpha 90.000000
_cell_angle_beta 90.000000
_cell_angle_gamma 90.000000
_cell_volume 4270.018305
_symmetry_space_group_name_H-M "I -4 C 2"
_symmetry_group_IT_number 120
_symmetry_cell_setting 'tetragonal'
loop_
_space_group_symop_operation_xyz
x,y,z
y,-x,-z
-x,-y,z
-y,x,-z
y,x,1/2-z
-y,-x,1/2-z
-x,y,1/2+z
x,-y,1/2+z
1/2+x,1/2+y,1/2+z
1/2+y,1/2-x,1/2-z
1/2-x,1/2-y,1/2+z
1/2-y,1/2+x,1/2-z
1/2+y,1/2+x,-z
1/2-y,1/2-x,-z
1/2-x,1/2+y,z
1/2+x,1/2-y,z
loop_
_atom_site_type_symbol
_atom_site_label
_atom_site_fract_x
_atom_site_fract_y
_atom_site_fract_z
Si Si1 0.968418 0.255463 0.726200
Si Si2 0.351767 0.351767 0.750000
Si Si3 0.244319 0.122695 0.991013
Si Si4 0.725413 0.774588 0.000000
Si Si5 0.472024 0.400211 0.132860
Si Si6 0.319885 0.572840 0.589413
O O1 0.917602 0.269350 0.838435
O O2 0.957146 0.202278 0.646225
O O3 0.995164 0.268247 0.455342
O O4 0.301193 0.359751 0.641612
O O5 0.389831 0.354628 0.527159
O O6 0.268913 0.171020 0.939961
O O7 0.223227 0.097920 0.731040
O O8 0.744922 0.744922 0.750000
O O9 0.437315 0.437315 0.250000
O O10 0.516307 0.405540 0.325234
O O11 0.454109 0.349234 0.196975
#
# Coordination Sequence:
#
# PCOD9559674 Si02
#       6
#    16   8  16   8  16  16
#     4  11  22  38  60  86 113 145 190 251 304 350
#     4  10  20  34  56  84 115 148 184 250 292 360
#     4  11  23  39  60  87 123 161 204 251 307 371
#     4  12  26  42  62  90 130 176 214 253 308 379
#     4  12  28  43  61  79 100 135 176 235 308 380
#     4  11  23  38  60  86 110 140 188 244 304 367
#
# _framework density 18.735284
#
# number of rings (size 3 to 8) (size 9 to 14) (size 15 to 20)
#    0.000    0.800    3.000    4.800   11.200    1.200 
#    0.000    0.000    0.000    0.000    0.000    0.000 
#    0.000    0.000    0.000    0.000    0.000    3.000 
#
# Total GULP energy -223073.911995 kJ/mol
# GULP energy per Si atom -5576.847800 kJ/mol
# Density = 1.869264 g / cm^3
# Si number density = 18.735284 Si / 1000 Ang^3
#
#
#
# Elastic Constant Matrix: (Units=GPa)
#
#
# Indices 1 2 3 4 5 6 
#
# 1 72.3610 26.0156 12.1848 0.0000 0.0000 0.0000
# 2 26.0156 72.3605 12.1844 0.0000 0.0000 0.0000
# 3 12.1848 12.1844 95.5341 0.0000 0.0000 0.0000
# 4 0.0000 0.0000 0.0000 16.6549 0.0000 0.0000
# 5 0.0000 0.0000 0.0000 0.0000 16.6547 0.0000
# 6 0.0000 0.0000 0.0000 0.0000 0.0000 35.7556
#
#
#
# Elastic Compliance Matrix: (Units=1/GPa)
#
#
# Indices 1 2 3 4 5 6 
#
# 1 0.016037 -0.005540 -0.001339 0.000000 0.000000 0.000000
# 2 -0.005540 0.016037 -0.001339 0.000000 0.000000 0.000000
# 3 -0.001339 -0.001339 0.010809 0.000000 0.000000 0.000000
# 4 0.000000 0.000000 0.000000 0.060042 0.000000 0.000000
# 5 0.000000 0.000000 0.000000 0.000000 0.060043 0.000000
# 6 0.000000 0.000000 0.000000 0.000000 0.000000 0.027968
#
#
# Mechanical properties :
#
#
# Convention : Reuss Voigt Hill
#
# Bulk Modulus (GPa) = 37.81111 37.89169 37.85140
# Shear Modulus (GPa) = 23.12808 26.47109 24.79958
#
# Velocity S-wave (km/s) = 3.51731 3.76293 3.64219
# Velocity P-wave (km/s) = 6.05977 6.25686 6.15910
#
# Compressibility (1/GPa) = 0.02644725
#
# Stress axis : x y z
#
# Youngs Moduli (GPa) = 62.35612 62.35577 92.51576
#
# Poissons Ratio (x) = 0.34547 0.12386
# Poissons Ratio (y) = 0.34547 0.12385
# Poissons Ratio (z) = 0.08348 0.08348
#
# Static dielectric constant tensor:
#      x y z
#    x 1.699610 0.000000 0.000000 
#    y 0.000000 1.699610 0.000000 
#    z 0.000000 0.000000 1.757340 
# 
# From -- ./inp_files/459.got.cif
#   From: 2010.05.17/outbox.cif.g08.bks.cpg/sg120_1_cif.got.tgz:459.got - 2010.05.20 11:28:13.
