data_PCOD9559391
_publ_section_title
;
Structure prediction by ZEFSAII (Michael W. Deem and Ramdas Pophale) SiO2 
 PCOD9559391
Probable space group: I -4 M 2
;
_chemical_formula_sum "Si O2"
_cell_formula_units_Z 80
_cell_length_a 27.133402
_cell_length_b 27.133402
_cell_length_c 5.375210
_cell_angle_alpha 90.000000
_cell_angle_beta 90.000000
_cell_angle_gamma 90.000000
_cell_volume 3957.345191
_symmetry_space_group_name_H-M "I -4 M 2"
_symmetry_group_IT_number 119
_symmetry_cell_setting 'tetragonal'
loop_
_space_group_symop_operation_xyz
x,y,z
y,-x,-z
-x,-y,z
-y,x,-z
y,x,-z
-y,-x,-z
-x,y,z
x,-y,z
1/2+x,1/2+y,1/2+z
1/2+y,1/2-x,1/2-z
1/2-x,1/2-y,1/2+z
1/2-y,1/2+x,1/2-z
1/2+y,1/2+x,1/2-z
1/2-y,1/2-x,1/2-z
1/2-x,1/2+y,1/2+z
1/2+x,1/2-y,1/2+z
loop_
_atom_site_type_symbol
_atom_site_label
_atom_site_fract_x
_atom_site_fract_y
_atom_site_fract_z
Si Si1 0.870793 0.370793 0.750000
Si Si2 0.442742 0.134756 0.630293
Si Si3 0.197851 0.057907 0.420737
Si Si4 0.636720 0.442433 0.420072
Si Si5 0.784956 0.380416 0.122450
Si Si6 0.227092 0.727092 0.250000
O O1 0.865612 0.426535 0.656969
O O2 0.860891 0.330513 0.542109
O O3 0.500000 0.128168 0.675297
O O4 0.408963 0.091038 0.750000
O O5 0.422482 0.187807 0.718327
O O6 0.160038 0.069188 0.649271
O O7 0.243737 0.093589 0.459421
O O8 0.211259 0.000000 0.450114
O O9 0.175595 0.063921 0.145801
O O10 0.591476 0.408525 0.500000
O O11 0.622645 0.500000 0.414746
O O12 0.764225 0.332102 0.257235
O O13 0.248331 0.751669 0.500000
#
# Coordination Sequence:
#
# PCOD9559391 Si02
#       6
#     8  16  16  16  16   8
#     4  10  21  40  64  93 129 164 224 271 322 394
#     4  10  22  40  66  93 130 172 220 276 333 398
#     4  10  23  39  63  93 125 163 211 263 314 375
#     4  10  22  41  62  92 127 161 207 261 318 385
#     4  11  23  43  63  89 129 170 218 266 330 392
#     4  12  27  42  66  96 130 172 223 273 328 394
#
# _framework density 20.215572000000002
#
# number of rings (size 3 to 8) (size 9 to 14) (size 15 to 20)
#    0.000    1.600    3.000    1.800    2.800    6.800 
#    0.000    0.000    0.000    3.600    0.000    0.000 
#    0.000    0.000    0.000    0.000    0.000    0.000 
#
# Total GULP energy -223177.061421 kJ/mol
# GULP energy per Si atom -5579.426536 kJ/mol
# Density = 2.016956 g / cm^3
# Si number density = 20.215572 Si / 1000 Ang^3
#
#
#
# Elastic Constant Matrix: (Units=GPa)
#
#
# Indices 1 2 3 4 5 6 
#
# 1 61.0402 54.5972 5.7737 0.0000 0.0000 0.0000
# 2 54.5972 61.0366 5.7783 0.0000 0.0000 0.0000
# 3 5.7737 5.7783 67.2707 0.0000 0.0000 0.0000
# 4 0.0000 0.0000 0.0000 24.0997 0.0000 0.0000
# 5 0.0000 0.0000 0.0000 0.0000 24.0995 0.0000
# 6 0.0000 0.0000 0.0000 0.0000 0.0000 31.8690
#
#
#
# Elastic Compliance Matrix: (Units=1/GPa)
#
#
# Indices 1 2 3 4 5 6 
#
# 1 0.081984 -0.073264 -0.000743 0.000000 0.000000 0.000000
# 2 -0.073264 0.081990 -0.000755 0.000000 0.000000 0.000000
# 3 -0.000743 -0.000755 0.014994 0.000000 0.000000 0.000000
# 4 0.000000 0.000000 0.000000 0.041494 0.000000 0.000000
# 5 0.000000 0.000000 0.000000 0.000000 0.041495 0.000000
# 6 0.000000 0.000000 0.000000 0.000000 0.000000 0.031378
#
#
# Mechanical properties :
#
#
# Convention : Reuss Voigt Hill
#
# Bulk Modulus (GPa) = 33.96337 35.73843 34.85090
# Shear Modulus (GPa) = 11.04546 24.22685 17.63616
#
# Velocity S-wave (km/s) = 2.34002 3.46558 2.95685
# Velocity P-wave (km/s) = 4.91304 5.80782 5.37907
#
# Compressibility (1/GPa) = 0.02944349
#
# Stress axis : x y z
#
# Youngs Moduli (GPa) = 12.19749 12.19661 66.69367
#
# Poissons Ratio (x) = 0.89358 0.04958
# Poissons Ratio (y) = 0.89364 0.05032
# Poissons Ratio (z) = 0.00907 0.00920
#
# Static dielectric constant tensor:
#      x y z
#    x 1.707730 0.000000 0.000000 
#    y 0.000000 1.707730 0.000000 
#    z 0.000000 0.000000 1.816390 
# 
# From -- ./inp_files/1044.got.cif
#   From: 2010.05.17/outbox.cif.g08.bks.cpg/sg119_1_cif.got.tgz:1044.got - 2010.05.20 11:21:29.
