data_PCOD9559445
_publ_section_title
;
Structure prediction by ZEFSAII (Michael W. Deem and Ramdas Pophale) SiO2 
 PCOD9559445
Probable space group: I -4 M 2
;
_chemical_formula_sum "Si O2"
_cell_formula_units_Z 40
_cell_length_a 10.653060
_cell_length_b 10.653060
_cell_length_c 19.525219
_cell_angle_alpha 90.000000
_cell_angle_beta 90.000000
_cell_angle_gamma 90.000000
_cell_volume 2215.871950
_symmetry_space_group_name_H-M "I -4 M 2"
_symmetry_group_IT_number 119
_symmetry_cell_setting 'tetragonal'
loop_
_space_group_symop_operation_xyz
x,y,z
y,-x,-z
-x,-y,z
-y,x,-z
y,x,-z
-y,-x,-z
-x,y,z
x,-y,z
1/2+x,1/2+y,1/2+z
1/2+y,1/2-x,1/2-z
1/2-x,1/2-y,1/2+z
1/2-y,1/2+x,1/2-z
1/2+y,1/2+x,1/2-z
1/2-y,1/2-x,1/2-z
1/2-x,1/2+y,1/2+z
1/2+x,1/2-y,1/2+z
loop_
_atom_site_type_symbol
_atom_site_label
_atom_site_fract_x
_atom_site_fract_y
_atom_site_fract_z
Si Si1 0.500000 0.000000 0.750000
Si Si2 0.500000 0.500000 0.500000
Si Si3 0.220514 0.500000 0.140804
Si Si4 0.150698 0.232005 0.577401
Si Si5 0.000000 0.268260 0.929036
Si Si6 0.500000 0.000000 0.967570
O O1 0.500000 0.128514 0.794157
O O2 0.500000 0.626819 0.455885
O O3 0.304616 0.377603 0.128017
O O4 0.121651 0.500000 0.078753
O O5 0.203159 0.203159 0.500000
O O6 0.203477 0.365261 0.604168
O O7 0.000000 0.235828 0.572703
O O8 0.000000 0.373161 0.988984
#
# Coordination Sequence:
#
# PCOD9559445 Si02
#       6
#     2   2   8  16   8   4
#     4  10  28  48  68  80 128 196 226 270 304 398
#     4  12  20  24  44  72 128 180 196 220 280 416
#     4  11  22  38  62  87 121 173 228 256 316 382
#     4  12  20  32  59  96 133 163 201 272 347 395
#     4  12  19  32  48  92 133 164 192 248 344 396
#     4  11  16  33  52  82 130 165 183 252 322 391
#
# _framework density 18.051583999999998
#
# number of rings (size 3 to 8) (size 9 to 14) (size 15 to 20)
#    0.000    0.400   10.000    0.600    0.000    1.600 
#    0.000    0.000    8.800    0.000    0.000    0.000 
#    0.000    0.000    0.000    0.000    0.000    0.000 
#
# Total GULP energy -111560.691738 kJ/mol
# GULP energy per Si atom -5578.034587 kJ/mol
# Density = 1.801050 g / cm^3
# Si number density = 18.051584 Si / 1000 Ang^3
#
#
#
# Elastic Constant Matrix: (Units=GPa)
#
#
# Indices 1 2 3 4 5 6 
#
# 1 174.2645 54.3021 21.6257 0.0000 0.0000 0.0000
# 2 54.3021 174.2645 21.6257 0.0000 0.0000 0.0000
# 3 21.6257 21.6257 40.0641 0.0000 0.0000 0.0000
# 4 0.0000 0.0000 0.0000 24.5417 0.0000 0.0000
# 5 0.0000 0.0000 0.0000 0.0000 24.5417 0.0000
# 6 0.0000 0.0000 0.0000 0.0000 0.0000 39.6723
#
#
#
# Elastic Compliance Matrix: (Units=1/GPa)
#
#
# Indices 1 2 3 4 5 6 
#
# 1 0.006604 -0.001732 -0.002630 0.000000 0.000000 0.000000
# 2 -0.001732 0.006604 -0.002630 0.000000 0.000000 0.000000
# 3 -0.002630 -0.002630 0.027800 0.000000 0.000000 0.000000
# 4 0.000000 0.000000 0.000000 0.040747 0.000000 0.000000
# 5 0.000000 0.000000 0.000000 0.000000 0.040747 0.000000
# 6 0.000000 0.000000 0.000000 0.000000 0.000000 0.025207
#
#
# Mechanical properties :
#
#
# Convention : Reuss Voigt Hill
#
# Bulk Modulus (GPa) = 37.00387 64.85555 50.92971
# Shear Modulus (GPa) = 29.29103 37.15379 33.22241
#
# Velocity S-wave (km/s) = 4.03256 4.54166 4.29466
# Velocity P-wave (km/s) = 6.49811 7.96920 7.27096
#
# Compressibility (1/GPa) = 0.02702420
#
# Stress axis : x y z
#
# Youngs Moduli (GPa) = 151.41477 151.41477 35.97187
#
# Poissons Ratio (x) = 0.26219 0.09461
# Poissons Ratio (y) = 0.26219 0.09461
# Poissons Ratio (z) = 0.39826 0.39826
#
# Static dielectric constant tensor:
#      x y z
#    x 1.564510 0.000000 0.000000 
#    y 0.000000 1.564510 0.000000 
#    z 0.000000 0.000000 1.597740 
# 
# From -- ./inp_files/5999.got.cif
#   From: 2010.05.17/outbox.cif.g08.bks.cpg/sg119_3_cif.got.tgz:5999.got - 2010.05.20 11:21:29.
