data_PCOD9559511
_publ_section_title
;
Structure prediction by ZEFSAII (Michael W. Deem and Ramdas Pophale) SiO2 
 PCOD9559511
Probable space group: I -4 M 2
;
_chemical_formula_sum "Si O2"
_cell_formula_units_Z 80
_cell_length_a 14.344758
_cell_length_b 14.344758
_cell_length_c 19.442599
_cell_angle_alpha 90.000000
_cell_angle_beta 90.000000
_cell_angle_gamma 90.000000
_cell_volume 4000.744077
_symmetry_space_group_name_H-M "I -4 M 2"
_symmetry_group_IT_number 119
_symmetry_cell_setting 'tetragonal'
loop_
_space_group_symop_operation_xyz
x,y,z
y,-x,-z
-x,-y,z
-y,x,-z
y,x,-z
-y,-x,-z
-x,y,z
x,-y,z
1/2+x,1/2+y,1/2+z
1/2+y,1/2-x,1/2-z
1/2-x,1/2-y,1/2+z
1/2-y,1/2+x,1/2-z
1/2+y,1/2+x,1/2-z
1/2-y,1/2-x,1/2-z
1/2-x,1/2+y,1/2+z
1/2+x,1/2-y,1/2+z
loop_
_atom_site_type_symbol
_atom_site_label
_atom_site_fract_x
_atom_site_fract_y
_atom_site_fract_z
Si Si1 0.902854 0.889566 0.741360
Si Si2 0.611944 0.110290 0.168460
Si Si3 0.605570 0.602383 0.405162
Si Si4 0.244507 0.740578 0.923765
Si Si5 0.296759 0.888737 0.685650
O O1 0.898883 0.881462 0.823071
O O2 0.805974 0.859633 0.711686
O O3 0.000000 0.846058 0.716217
O O4 0.906820 0.000000 0.726282
O O5 0.500000 0.112604 0.159039
O O6 0.630095 0.130095 0.250000
O O7 0.660967 0.188799 0.120353
O O8 0.641169 0.000000 0.155708
O O9 0.500000 0.601285 0.430493
O O10 0.647637 0.500000 0.415009
O O11 0.662379 0.686098 0.433529
O O12 0.323639 0.798961 0.881556
O O13 0.283807 0.716194 0.000000
O O14 0.363371 0.863371 0.750000
O O15 0.302122 0.000000 0.672157
#
# Coordination Sequence:
#
# PCOD9559511 Si02
#       5
#    16  16  16  16  16
#     4   8  15  31  58  87 109 133 177 243 305 346
#     4   9  20  41  68  96 123 155 204 262 316 373
#     4   9  18  34  57  86 117 145 180 235 303 367
#     4  12  25  38  57  89 128 166 200 244 307 377
#     4  11  23  41  62  85 117 161 216 263 298 349
#
# _framework density 19.996279999999999
#
# number of rings (size 3 to 8) (size 9 to 14) (size 15 to 20)
#    0.000    2.200    2.000    3.000    0.000    3.400 
#    0.000    1.000    0.000    0.000    0.000    1.400 
#    0.000    0.000    0.000    0.000    0.000    0.000 
#
# Total GULP energy -222708.209800 kJ/mol
# GULP energy per Si atom -5567.705245 kJ/mol
# Density = 1.995077 g / cm^3
# Si number density = 19.996280 Si / 1000 Ang^3
#
#
#
# Elastic Constant Matrix: (Units=GPa)
#
#
# Indices 1 2 3 4 5 6 
#
# 1 78.9992 15.9748 25.8188 0.0000 0.0000 0.0000
# 2 15.9748 78.9994 25.8189 0.0000 0.0000 0.0000
# 3 25.8188 25.8189 86.9337 0.0000 0.0000 0.0000
# 4 0.0000 0.0000 0.0000 5.9862 0.0000 0.0000
# 5 0.0000 0.0000 0.0000 0.0000 5.9864 0.0000
# 6 0.0000 0.0000 0.0000 0.0000 0.0000 339.0388
#
#
#
# Elastic Compliance Matrix: (Units=1/GPa)
#
#
# Indices 1 2 3 4 5 6 
#
# 1 0.014212 -0.001655 -0.003729 0.000000 0.000000 0.000000
# 2 -0.001655 0.014212 -0.003729 0.000000 0.000000 0.000000
# 3 -0.003729 -0.003729 0.013718 0.000000 0.000000 0.000000
# 4 0.000000 0.000000 0.000000 0.167051 0.000000 0.000000
# 5 0.000000 0.000000 0.000000 0.000000 0.167044 0.000000
# 6 0.000000 0.000000 0.000000 0.000000 0.000000 0.002950
#
#
# Mechanical properties :
#
#
# Convention : Reuss Voigt Hill
#
# Bulk Modulus (GPa) = 41.81545 42.23968 42.02757
# Shear Modulus (GPa) = 12.33393 82.02360 47.17877
#
# Velocity S-wave (km/s) = 2.48626 6.41159 4.86261
# Velocity P-wave (km/s) = 5.40361 8.71670 7.25189
#
# Compressibility (1/GPa) = 0.02391461
#
# Stress axis : x y z
#
# Youngs Moduli (GPa) = 70.36382 70.36390 72.89584
#
# Poissons Ratio (x) = 0.11645 0.27185
# Poissons Ratio (y) = 0.11645 0.27185
# Poissons Ratio (z) = 0.26241 0.26241
#
# Static dielectric constant tensor:
#      x y z
#    x 1.748080 0.000000 0.000000 
#    y 0.000000 1.748080 0.000000 
#    z 0.000000 0.000000 1.848640 
# 
# From -- ./inp_files/7583.got.cif
#   From: 2010.05.17/outbox.cif.g08.bks.cpg/sg119_4_cif.got.tgz:7583.got - 2010.05.20 11:21:29.
