data_PCOD9559916
_publ_section_title
;
Structure prediction by ZEFSAII (Michael W. Deem and Ramdas Pophale) SiO2 
 PCOD9559916
Probable space group: I -4 C 2
;
_chemical_formula_sum "Si O2"
_cell_formula_units_Z 60
_cell_length_a 19.359926
_cell_length_b 19.359926
_cell_length_c 7.902213
_cell_angle_alpha 90.000000
_cell_angle_beta 90.000000
_cell_angle_gamma 90.000000
_cell_volume 2961.802652
_symmetry_space_group_name_H-M "I -4 C 2"
_symmetry_group_IT_number 120
_symmetry_cell_setting 'tetragonal'
loop_
_space_group_symop_operation_xyz
x,y,z
y,-x,-z
-x,-y,z
-y,x,-z
y,x,1/2-z
-y,-x,1/2-z
-x,y,1/2+z
x,-y,1/2+z
1/2+x,1/2+y,1/2+z
1/2+y,1/2-x,1/2-z
1/2-x,1/2-y,1/2+z
1/2-y,1/2+x,1/2-z
1/2+y,1/2+x,-z
1/2-y,1/2-x,-z
1/2-x,1/2+y,z
1/2+x,1/2-y,z
loop_
_atom_site_type_symbol
_atom_site_label
_atom_site_fract_x
_atom_site_fract_y
_atom_site_fract_z
Si Si1 0.210420 0.681161 0.696880
Si Si2 0.275661 0.550333 0.805442
Si Si3 0.581407 0.418594 0.750000
Si Si4 0.500000 0.500000 0.500000
Si Si5 0.600709 0.711403 0.812701
O O1 0.282872 0.717129 0.750000
O O2 0.195628 0.695628 0.500000
O O3 0.214929 0.600241 0.740291
O O4 0.153433 0.724660 0.798180
O O5 0.341759 0.569121 0.689702
O O6 0.269877 0.468105 0.793153
O O7 0.294382 0.575956 0.993826
O O8 0.524428 0.436159 0.610522
O O9 0.643813 0.643813 0.750000
#
# Coordination Sequence:
#
# PCOD9559916 Si02
#       5
#    16  16   8   4  16
#     4  11  22  41  63  87 120 162 210 259 311 368
#     4  12  24  40  62  90 123 163 212 257 309 368
#     4  11  24  36  56  78 120 166 204 253 298 370
#     4  10  24  38  48  78 120 166 208 246 304 362
#     4  11  26  41  63  91 127 166 211 256 312 368
#
# _framework density 20.257930999999999
#
# number of rings (size 3 to 8) (size 9 to 14) (size 15 to 20)
#    0.000    0.800    1.333    7.200   11.200    0.000 
#    0.000    0.000    0.000    0.800    0.000    5.600 
#    0.000    0.000    0.000    0.000    0.000    0.000 
#
# Total GULP energy -167642.152557 kJ/mol
# GULP energy per Si atom -5588.071752 kJ/mol
# Density = 2.021182 g / cm^3
# Si number density = 20.257931 Si / 1000 Ang^3
#
#
#
# Elastic Constant Matrix: (Units=GPa)
#
#
# Indices 1 2 3 4 5 6 
#
# 1 105.9015 68.4233 24.7025 0.0000 0.0000 0.0000
# 2 68.4233 105.8998 24.7018 0.0000 0.0000 0.0000
# 3 24.7025 24.7018 97.9125 0.0000 0.0000 0.0000
# 4 0.0000 0.0000 0.0000 26.0530 0.0000 0.0000
# 5 0.0000 0.0000 0.0000 0.0000 26.0520 0.0000
# 6 0.0000 0.0000 0.0000 0.0000 0.0000 32.1926
#
#
#
# Elastic Compliance Matrix: (Units=1/GPa)
#
#
# Indices 1 2 3 4 5 6 
#
# 1 0.016430 -0.010252 -0.001559 0.000000 0.000000 0.000000
# 2 -0.010252 0.016431 -0.001559 0.000000 0.000000 0.000000
# 3 -0.001559 -0.001559 0.011000 0.000000 0.000000 0.000000
# 4 0.000000 0.000000 0.000000 0.038383 0.000000 0.000000
# 5 0.000000 0.000000 0.000000 0.000000 0.038385 0.000000
# 6 0.000000 0.000000 0.000000 0.000000 0.000000 0.031063
#
#
# Mechanical properties :
#
#
# Convention : Reuss Voigt Hill
#
# Bulk Modulus (GPa) = 58.40673 60.59655 59.50164
# Shear Modulus (GPa) = 27.15351 29.65193 28.40272
#
# Velocity S-wave (km/s) = 3.66510 3.83001 3.74846
# Velocity P-wave (km/s) = 6.84140 7.03819 6.94049
#
# Compressibility (1/GPa) = 0.01712132
#
# Stress axis : x y z
#
# Youngs Moduli (GPa) = 60.86283 60.86205 90.91185
#
# Poissons Ratio (x) = 0.62398 0.14171
# Poissons Ratio (y) = 0.62398 0.14170
# Poissons Ratio (z) = 0.09487 0.09486
#
# Static dielectric constant tensor:
#      x y z
#    x 1.714990 0.000000 0.000000 
#    y 0.000000 1.714980 0.000000 
#    z 0.000000 0.000000 1.824250 
# 
# From -- ./inp_files/1107.got.cif
#   From: 2010.05.17/outbox.cif.g08.bks.cpg/sg120_1_cif.got.tgz:1107.got - 2010.05.20 11:28:13.
