data_PCOD9559415
_publ_section_title
;
Structure prediction by ZEFSAII (Michael W. Deem and Ramdas Pophale) SiO2 
 PCOD9559415
Probable space group: I -4 M 2
;
_chemical_formula_sum "Si O2"
_cell_formula_units_Z 56
_cell_length_a 12.373405
_cell_length_b 12.373405
_cell_length_c 19.139042
_cell_angle_alpha 90.000000
_cell_angle_beta 90.000000
_cell_angle_gamma 90.000000
_cell_volume 2930.209365
_symmetry_space_group_name_H-M "I -4 M 2"
_symmetry_group_IT_number 119
_symmetry_cell_setting 'tetragonal'
loop_
_space_group_symop_operation_xyz
x,y,z
y,-x,-z
-x,-y,z
-y,x,-z
y,x,-z
-y,-x,-z
-x,y,z
x,-y,z
1/2+x,1/2+y,1/2+z
1/2+y,1/2-x,1/2-z
1/2-x,1/2-y,1/2+z
1/2-y,1/2+x,1/2-z
1/2+y,1/2+x,1/2-z
1/2-y,1/2-x,1/2-z
1/2-x,1/2+y,1/2+z
1/2+x,1/2-y,1/2+z
loop_
_atom_site_type_symbol
_atom_site_label
_atom_site_fract_x
_atom_site_fract_y
_atom_site_fract_z
Si Si1 0.744909 0.627602 0.690513
Si Si2 0.626601 0.000000 0.544466
Si Si3 0.123332 0.000000 0.775611
Si Si4 0.870709 0.287959 0.966977
Si Si5 0.343796 0.000000 0.709688
O O1 0.765377 0.500000 0.705895
O O2 0.797772 0.702229 0.750000
O O3 0.614211 0.639381 0.684879
O O4 0.794688 0.654409 0.615191
O O5 0.671212 0.891445 0.509860
O O6 0.631275 0.000000 0.628033
O O7 0.500000 0.000000 0.525271
O O8 0.216102 0.000000 0.718090
O O9 0.000000 0.000000 0.749701
O O10 0.000000 0.280217 0.973272
O O11 0.816338 0.183663 0.000000
O O12 0.398892 0.101109 0.750000
#
# Coordination Sequence:
#
# PCOD9559415 Si02
#       5
#    16   8   8  16   8
#     4  10  23  41  63  90 119 162 205 250 305 365
#     4  10  22  42  60  91 126 156 205 251 307 353
#     4  10  23  39  60  90 127 152 200 252 303 359
#     4  10  24  40  63  90 124 161 200 254 305 364
#     4  11  22  36  67  98 115 159 202 254 303 360
#
# _framework density 19.111262
#
# number of rings (size 3 to 8) (size 9 to 14) (size 15 to 20)
#    0.000    1.857    1.429    0.857   12.000    0.571 
#    0.000    0.000    0.000    0.000    0.000    0.000 
#    0.000    0.000    0.000    0.000    0.000    0.000 
#
# Total GULP energy -156188.966435 kJ/mol
# GULP energy per Si atom -5578.177373 kJ/mol
# Density = 1.906776 g / cm^3
# Si number density = 19.111262 Si / 1000 Ang^3
#
#
#
# Elastic Constant Matrix: (Units=GPa)
#
#
# Indices 1 2 3 4 5 6 
#
# 1 69.0656 41.9974 60.3495 0.0000 0.0000 0.0000
# 2 41.9974 69.0715 60.3464 0.0000 0.0000 0.0000
# 3 60.3495 60.3464 139.5231 0.0000 0.0000 0.0000
# 4 0.0000 0.0000 0.0000 19.5120 0.0000 0.0000
# 5 0.0000 0.0000 0.0000 0.0000 19.5120 0.0000
# 6 0.0000 0.0000 0.0000 0.0000 0.0000 18.7594
#
#
#
# Elastic Compliance Matrix: (Units=1/GPa)
#
#
# Indices 1 2 3 4 5 6 
#
# 1 0.026967 -0.009975 -0.007350 0.000000 0.000000 0.000000
# 2 -0.009975 0.026962 -0.007347 0.000000 0.000000 0.000000
# 3 -0.007350 -0.007347 0.013524 0.000000 0.000000 0.000000
# 4 0.000000 0.000000 0.000000 0.051250 0.000000 0.000000
# 5 0.000000 0.000000 0.000000 0.000000 0.051250 0.000000
# 6 0.000000 0.000000 0.000000 0.000000 0.000000 0.053307
#
#
# Mechanical properties :
#
#
# Convention : Reuss Voigt Hill
#
# Bulk Modulus (GPa) = 55.22118 67.00519 61.11319
# Shear Modulus (GPa) = 17.94427 19.22114 18.58271
#
# Velocity S-wave (km/s) = 3.06753 3.17480 3.12163
# Velocity P-wave (km/s) = 6.44233 6.96963 6.71116
#
# Compressibility (1/GPa) = 0.01810899
#
# Stress axis : x y z
#
# Youngs Moduli (GPa) = 37.08223 37.08969 73.94263
#
# Poissons Ratio (x) = 0.36998 0.54347
# Poissons Ratio (y) = 0.36991 0.54324
# Poissons Ratio (z) = 0.27255 0.27249
#
# Static dielectric constant tensor:
#      x y z
#    x 1.689590 0.000000 0.000000 
#    y 0.000000 1.689590 0.000000 
#    z 0.000000 0.000000 1.635950 
# 
# From -- ./inp_files/7276.got.cif
#   From: 2010.05.17/outbox.cif.g08.bks.cpg/sg119_4_cif.got.tgz:7276.got - 2010.05.20 11:21:29.
