data_PCOD9559266
_publ_section_title
;
Structure prediction by ZEFSAII (Michael W. Deem and Ramdas Pophale) SiO2 
 PCOD9559266
Probable space group: I -4 M 2
;
_chemical_formula_sum "Si O2"
_cell_formula_units_Z 72
_cell_length_a 12.126520
_cell_length_b 12.126520
_cell_length_c 25.668175
_cell_angle_alpha 90.000000
_cell_angle_beta 90.000000
_cell_angle_gamma 90.000000
_cell_volume 3774.568978
_symmetry_space_group_name_H-M "I -4 M 2"
_symmetry_group_IT_number 119
_symmetry_cell_setting 'tetragonal'
loop_
_space_group_symop_operation_xyz
x,y,z
y,-x,-z
-x,-y,z
-y,x,-z
y,x,-z
-y,-x,-z
-x,y,z
x,-y,z
1/2+x,1/2+y,1/2+z
1/2+y,1/2-x,1/2-z
1/2-x,1/2-y,1/2+z
1/2-y,1/2+x,1/2-z
1/2+y,1/2+x,1/2-z
1/2-y,1/2-x,1/2-z
1/2-x,1/2+y,1/2+z
1/2+x,1/2-y,1/2+z
loop_
_atom_site_type_symbol
_atom_site_label
_atom_site_fract_x
_atom_site_fract_y
_atom_site_fract_z
Si Si1 0.262556 0.000000 0.063801
Si Si2 0.175796 0.500000 0.683071
Si Si3 0.132120 0.867880 0.500000
Si Si4 0.000000 0.874207 0.734072
Si Si5 0.310340 0.243710 0.194702
Si Si6 0.715522 0.255405 0.580608
Si Si7 0.871530 0.500000 0.455353
O O1 0.314534 0.000000 0.121058
O O2 0.200797 0.117648 0.061883
O O3 0.349693 0.000000 0.017277
O O4 0.291911 0.500000 0.715704
O O5 0.130687 0.377759 0.695110
O O6 0.183495 0.801201 0.549044
O O7 0.000000 0.849288 0.495537
O O8 0.103133 0.841421 0.698547
O O9 0.000000 0.000000 0.750494
O O10 0.248214 0.251787 0.250000
O O11 0.240391 0.245607 0.142228
O O12 0.607822 0.186432 0.567392
O O13 0.000000 0.500000 0.444079
#
# Coordination Sequence:
#
# PCOD9559266 Si02
#       7
#     8   8   8   8  16  16   8
#     4  10  20  41  62  91 122 160 213 258 317 367
#     4   8  18  39  60  85 118 158 203 255 308 359
#     4  11  24  40  62  93 130 166 204 251 312 386
#     4  10  20  35  61  94 126 163 200 247 314 381
#     4   9  20  40  60  90 125 155 208 253 313 370
#     4  11  23  41  65  93 124 165 208 262 315 375
#     4  12  24  41  65  90 128 167 213 259 317 381
#
# _framework density 19.075023999999999
#
# number of rings (size 3 to 8) (size 9 to 14) (size 15 to 20)
#    0.000    1.889    2.222    0.667    1.556    2.667 
#   24.000    3.333    0.000    0.000    0.000    0.000 
#    0.000    0.000    0.000    0.000    0.000    0.000 
#
# Total GULP energy -200562.160667 kJ/mol
# GULP energy per Si atom -5571.171130 kJ/mol
# Density = 1.903161 g / cm^3
# Si number density = 19.075024 Si / 1000 Ang^3
#
#
#
# Elastic Constant Matrix: (Units=GPa)
#
#
# Indices 1 2 3 4 5 6 
#
# 1 124.1994 51.5755 38.3005 0.0000 0.0000 0.0000
# 2 51.5755 124.2000 38.3006 0.0000 0.0000 0.0000
# 3 38.3005 38.3006 130.7262 0.0000 0.0000 0.0000
# 4 0.0000 0.0000 0.0000 19.3724 0.0000 0.0000
# 5 0.0000 0.0000 0.0000 0.0000 19.3724 0.0000
# 6 0.0000 0.0000 0.0000 0.0000 0.0000 21.4679
#
#
#
# Elastic Compliance Matrix: (Units=1/GPa)
#
#
# Indices 1 2 3 4 5 6 
#
# 1 0.010146 -0.003624 -0.001911 0.000000 0.000000 0.000000
# 2 -0.003624 0.010146 -0.001911 0.000000 0.000000 0.000000
# 3 -0.001911 -0.001911 0.008769 0.000000 0.000000 0.000000
# 4 0.000000 0.000000 0.000000 0.051620 0.000000 0.000000
# 5 0.000000 0.000000 0.000000 0.000000 0.051620 0.000000
# 6 0.000000 0.000000 0.000000 0.000000 0.000000 0.046581
#
#
# Mechanical properties :
#
#
# Convention : Reuss Voigt Hill
#
# Bulk Modulus (GPa) = 70.57313 70.60876 70.59094
# Shear Modulus (GPa) = 25.18949 28.77246 26.98097
#
# Velocity S-wave (km/s) = 3.63788 3.88801 3.76502
# Velocity P-wave (km/s) = 7.39753 7.56651 7.48250
#
# Compressibility (1/GPa) = 0.01416970
#
# Stress axis : x y z
#
# Youngs Moduli (GPa) = 98.56421 98.56465 114.03520
#
# Poissons Ratio (x) = 0.35719 0.21790
# Poissons Ratio (y) = 0.35718 0.21789
# Poissons Ratio (z) = 0.18833 0.18833
#
# Static dielectric constant tensor:
#      x y z
#    x 1.687240 0.000000 0.000000 
#    y 0.000000 1.687240 0.000000 
#    z 0.000000 0.000000 1.665340 
# 
# From -- ./inp_files/9448.got.cif
#   From: 2010.05.17/outbox.cif.g08.bks.cpg/sg119_5_cif.got.tgz:9448.got - 2010.05.20 11:21:29.
