data_PCOD9559464
_publ_section_title
;
Structure prediction by ZEFSAII (Michael W. Deem and Ramdas Pophale) SiO2 
 PCOD9559464
Probable space group: I -4 M 2
;
_chemical_formula_sum "Si O2"
_cell_formula_units_Z 120
_cell_length_a 17.647873
_cell_length_b 17.647873
_cell_length_c 21.915406
_cell_angle_alpha 90.000000
_cell_angle_beta 90.000000
_cell_angle_gamma 90.000000
_cell_volume 6825.496688
_symmetry_space_group_name_H-M "I -4 M 2"
_symmetry_group_IT_number 119
_symmetry_cell_setting 'tetragonal'
loop_
_space_group_symop_operation_xyz
x,y,z
y,-x,-z
-x,-y,z
-y,x,-z
y,x,-z
-y,-x,-z
-x,y,z
x,-y,z
1/2+x,1/2+y,1/2+z
1/2+y,1/2-x,1/2-z
1/2-x,1/2-y,1/2+z
1/2-y,1/2+x,1/2-z
1/2+y,1/2+x,1/2-z
1/2-y,1/2-x,1/2-z
1/2-x,1/2+y,1/2+z
1/2+x,1/2-y,1/2+z
loop_
_atom_site_type_symbol
_atom_site_label
_atom_site_fract_x
_atom_site_fract_y
_atom_site_fract_z
Si Si1 0.806188 0.192506 0.220297
Si Si2 0.912711 0.665376 0.806855
Si Si3 0.911510 0.830076 0.665743
Si Si4 0.801522 0.684750 0.028290
Si Si5 0.088664 0.088664 0.000000
Si Si6 0.090345 0.214635 0.102858
Si Si7 0.411492 0.336853 0.940178
Si Si8 0.672540 0.910962 0.408045
O O1 0.766909 0.266909 0.250000
O O2 0.737871 0.142155 0.192218
O O3 0.836745 0.141634 0.275794
O O4 0.866830 0.206719 0.167374
O O5 0.885409 0.614592 0.750000
O O6 0.896627 0.618006 0.867442
O O7 0.000000 0.686758 0.799577
O O8 0.890043 0.893821 0.616941
O O9 0.896690 0.749334 0.631648
O O10 0.000000 0.831946 0.681831
O O11 0.870814 0.715312 0.067589
O O12 0.740537 0.636181 0.066649
O O13 0.755812 0.755812 0.000000
O O14 0.823924 0.633724 0.970891
O O15 0.104452 0.142339 0.058054
O O16 0.000000 0.099615 0.983729
O O17 0.000000 0.222512 0.110083
O O18 0.500000 0.322114 0.948270
O O19 0.377802 0.377802 0.000000
O O20 0.669189 0.000000 0.419101
#
# Coordination Sequence:
#
# PCOD9559464 Si02
#       8
#    16  16  16  16   8  16  16  16
#     4  11  22  39  60  84 115 162 203 249 296 354
#     4  11  22  35  56  85 120 161 201 240 290 359
#     4  11  21  36  56  85 124 161 199 243 292 354
#     4  11  20  37  61  86 115 154 194 243 296 357
#     4   9  20  38  60  88 122 154 187 240 308 364
#     4  11  24  41  62  89 117 151 203 258 303 357
#     4  11  22  36  60  90 123 159 195 242 301 366
#     4  11  21  36  55  84 122 158 194 239 294 355
#
# _framework density 17.581137999999999
#
# number of rings (size 3 to 8) (size 9 to 14) (size 15 to 20)
#    0.000    1.133    6.000    3.200    0.000    4.000 
#    0.000    0.000    0.000    1.200    0.000    0.000 
#    0.000    0.000    0.000    0.000    0.000    0.000 
#
# Total GULP energy -335151.596852 kJ/mol
# GULP energy per Si atom -5585.859948 kJ/mol
# Density = 1.754112 g / cm^3
# Si number density = 17.581138 Si / 1000 Ang^3
#
#
#
# Elastic Constant Matrix: (Units=GPa)
#
#
# Indices 1 2 3 4 5 6 
#
# 1 84.8922 48.0861 47.4064 0.0000 0.0000 0.0000
# 2 48.0861 84.8946 47.4049 0.0000 0.0000 0.0000
# 3 47.4064 47.4049 112.1945 0.0000 0.0000 0.0000
# 4 0.0000 0.0000 0.0000 12.9863 0.0000 0.0000
# 5 0.0000 0.0000 0.0000 0.0000 12.9866 0.0000
# 6 0.0000 0.0000 0.0000 0.0000 0.0000 11.4715
#
#
#
# Elastic Compliance Matrix: (Units=1/GPa)
#
#
# Indices 1 2 3 4 5 6 
#
# 1 0.018966 -0.008203 -0.004548 0.000000 0.000000 0.000000
# 2 -0.008203 0.018965 -0.004547 0.000000 0.000000 0.000000
# 3 -0.004548 -0.004547 0.012756 0.000000 0.000000 0.000000
# 4 0.000000 0.000000 0.000000 0.077004 0.000000 0.000000
# 5 0.000000 0.000000 0.000000 0.000000 0.077002 0.000000
# 6 0.000000 0.000000 0.000000 0.000000 0.000000 0.087172
#
#
# Mechanical properties :
#
#
# Convention : Reuss Voigt Hill
#
# Bulk Modulus (GPa) = 62.14745 63.08625 62.61685
# Shear Modulus (GPa) = 15.06821 16.76116 15.91469
#
# Velocity S-wave (km/s) = 2.93075 3.09100 3.01194
# Velocity P-wave (km/s) = 6.84675 6.97853 6.91296
#
# Compressibility (1/GPa) = 0.01609077
#
# Stress axis : x y z
#
# Youngs Moduli (GPa) = 52.72636 52.72933 78.39538
#
# Poissons Ratio (x) = 0.43255 0.35652
# Poissons Ratio (y) = 0.43253 0.35646
# Poissons Ratio (z) = 0.23978 0.23976
#
# Static dielectric constant tensor:
#      x y z
#    x 1.603940 0.000000 0.000000 
#    y 0.000000 1.603940 0.000000 
#    z 0.000000 0.000000 1.601610 
# 
# From -- ./inp_files/8092.got.cif
#   From: 2010.05.17/outbox.cif.g08.bks.cpg/sg119_5_cif.got.tgz:8092.got - 2010.05.20 11:21:29.
