data_PCOD9559787
_publ_section_title
;
Structure prediction by ZEFSAII (Michael W. Deem and Ramdas Pophale) SiO2 
 PCOD9559787
Probable space group: I -4 C 2
;
_chemical_formula_sum "Si O2"
_cell_formula_units_Z 56
_cell_length_a 22.073134
_cell_length_b 22.073134
_cell_length_c 5.439753
_cell_angle_alpha 90.000000
_cell_angle_beta 90.000000
_cell_angle_gamma 90.000000
_cell_volume 2650.374106
_symmetry_space_group_name_H-M "I -4 C 2"
_symmetry_group_IT_number 120
_symmetry_cell_setting 'tetragonal'
loop_
_space_group_symop_operation_xyz
x,y,z
y,-x,-z
-x,-y,z
-y,x,-z
y,x,1/2-z
-y,-x,1/2-z
-x,y,1/2+z
x,-y,1/2+z
1/2+x,1/2+y,1/2+z
1/2+y,1/2-x,1/2-z
1/2-x,1/2-y,1/2+z
1/2-y,1/2+x,1/2-z
1/2+y,1/2+x,-z
1/2-y,1/2-x,-z
1/2-x,1/2+y,z
1/2+x,1/2-y,z
loop_
_atom_site_type_symbol
_atom_site_label
_atom_site_fract_x
_atom_site_fract_y
_atom_site_fract_z
Si Si1 0.828522 0.171479 0.250000
Si Si2 0.674705 0.021867 0.350374
Si Si3 0.287789 0.787789 0.000000
Si Si4 0.027735 0.183369 0.683937
Si Si5 0.658807 0.841194 0.000000
O O1 0.806568 0.217695 0.462794
O O2 0.818800 0.100718 0.307449
O O3 0.745936 0.007439 0.315865
O O4 0.670452 0.088569 0.458256
O O5 0.648418 0.981743 0.574197
O O6 0.310325 0.819301 0.751304
O O7 0.000643 0.156287 0.433099
#
# Coordination Sequence:
#
# PCOD9559787 Si02
#       5
#     8  16   8  16   8
#     4  12  26  44  66  99 142 162 214 269 322 396
#     4  10  21  39  60  86 126 169 214 259 307 386
#     4  12  27  38  64 104 136 166 190 272 352 384
#     4  10  24  41  63  90 125 174 213 253 315 383
#     4  12  23  42  62  97 130 167 214 259 332 393
#
# _framework density 21.129093000000001
#
# number of rings (size 3 to 8) (size 9 to 14) (size 15 to 20)
#    0.000    1.143    2.857    2.571    8.000    3.429 
#    0.000    0.000    0.000    5.143    0.000    0.000 
#    0.000    0.000    0.000    0.000    0.000    0.000 
#
# Total GULP energy -156237.343531 kJ/mol
# GULP energy per Si atom -5579.905126 kJ/mol
# Density = 2.108100 g / cm^3
# Si number density = 21.129093 Si / 1000 Ang^3
#
#
#
# Elastic Constant Matrix: (Units=GPa)
#
#
# Indices 1 2 3 4 5 6 
#
# 1 86.6565 7.4328 54.5841 0.0000 0.0000 0.0000
# 2 7.4328 86.6578 54.5842 0.0000 0.0000 0.0000
# 3 54.5841 54.5842 173.0910 0.0000 0.0000 0.0000
# 4 0.0000 0.0000 0.0000 26.6396 0.0000 0.0000
# 5 0.0000 0.0000 0.0000 0.0000 26.6400 0.0000
# 6 0.0000 0.0000 0.0000 0.0000 0.0000 14.2370
#
#
#
# Elastic Compliance Matrix: (Units=1/GPa)
#
#
# Indices 1 2 3 4 5 6 
#
# 1 0.014692 0.002069 -0.005285 0.000000 0.000000 0.000000
# 2 0.002069 0.014691 -0.005285 0.000000 0.000000 0.000000
# 3 -0.005285 -0.005285 0.009111 0.000000 0.000000 0.000000
# 4 0.000000 0.000000 0.000000 0.037538 0.000000 0.000000
# 5 0.000000 0.000000 0.000000 0.000000 0.037538 0.000000
# 6 0.000000 0.000000 0.000000 0.000000 0.000000 0.070240
#
#
# Mechanical properties :
#
#
# Convention : Reuss Voigt Hill
#
# Bulk Modulus (GPa) = 46.53277 64.40083 55.46680
# Shear Modulus (GPa) = 24.04124 28.82361 26.43242
#
# Velocity S-wave (km/s) = 3.37683 3.69747 3.54078
# Velocity P-wave (km/s) = 6.10531 6.98386 6.55931
#
# Compressibility (1/GPa) = 0.02149023
#
# Stress axis : x y z
#
# Youngs Moduli (GPa) = 68.06609 68.06722 109.75953
#
# Poissons Ratio (x) = -0.14084 0.58013
# Poissons Ratio (y) = -0.14084 0.58012
# Poissons Ratio (z) = 0.35976 0.35976
#
# Static dielectric constant tensor:
#      x y z
#    x 1.759910 0.000000 0.000000 
#    y 0.000000 1.759910 0.000000 
#    z 0.000000 0.000000 1.844880 
# 
# From -- ./inp_files/331.got.cif
#   From: 2010.05.17/outbox.cif.g08.bks.cpg/sg120_1_cif.got.tgz:331.got - 2010.05.20 11:28:13.
