data_PCOD9559906
_publ_section_title
;
Structure prediction by ZEFSAII (Michael W. Deem and Ramdas Pophale) SiO2 
 PCOD9559906
Probable space group: I -4 C 2
;
_chemical_formula_sum "Si O2"
_cell_formula_units_Z 112
_cell_length_a 14.001595
_cell_length_b 14.001595
_cell_length_c 26.533147
_cell_angle_alpha 90.000000
_cell_angle_beta 90.000000
_cell_angle_gamma 90.000000
_cell_volume 5201.681850
_symmetry_space_group_name_H-M "I -4 C 2"
_symmetry_group_IT_number 120
_symmetry_cell_setting 'tetragonal'
loop_
_space_group_symop_operation_xyz
x,y,z
y,-x,-z
-x,-y,z
-y,x,-z
y,x,1/2-z
-y,-x,1/2-z
-x,y,1/2+z
x,-y,1/2+z
1/2+x,1/2+y,1/2+z
1/2+y,1/2-x,1/2-z
1/2-x,1/2-y,1/2+z
1/2-y,1/2+x,1/2-z
1/2+y,1/2+x,-z
1/2-y,1/2-x,-z
1/2-x,1/2+y,z
1/2+x,1/2-y,z
loop_
_atom_site_type_symbol
_atom_site_label
_atom_site_fract_x
_atom_site_fract_y
_atom_site_fract_z
Si Si1 0.842920 0.437327 0.544570
Si Si2 0.101636 0.764001 0.218879
Si Si3 0.660178 0.169875 0.441356
Si Si4 0.842850 0.742305 0.117687
Si Si5 0.813662 0.048376 0.392945
Si Si6 0.881391 0.260106 0.734122
Si Si7 0.944668 0.126365 0.475043
O O1 0.917174 0.417174 0.500000
O O2 0.844748 0.546664 0.563159
O O3 0.853463 0.357831 0.587933
O O4 0.737069 0.422169 0.520957
O O5 0.151805 0.848196 0.250000
O O6 0.093687 0.798355 0.161568
O O7 0.166449 0.670940 0.228606
O O8 0.994601 0.738049 0.235262
O O9 0.685165 0.185165 0.500000
O O10 0.701942 0.253667 0.406297
O O11 0.720903 0.078053 0.425152
O O12 0.841789 0.721140 0.177521
O O13 0.935196 0.809460 0.111037
O O14 0.905255 0.089919 0.421584
O O15 0.843885 0.156116 0.750000
O O16 0.056271 0.107865 0.485328
#
# Coordination Sequence:
#
# PCOD9559906 Si02
#       7
#    16  16  16  16  16  16  16
#     4  12  27  43  64  95 137 178 227 285 334 402
#     4  10  23  46  72 103 141 176 230 290 353 416
#     4  12  25  41  67  96 131 185 225 274 344 400
#     4  11  25  44  67  97 134 176 227 282 339 411
#     4  11  25  46  68 100 137 180 230 283 342 420
#     4  10  23  44  71 100 134 179 226 285 351 416
#     4  11  25  40  65  98 134 181 228 276 338 406
#
# _framework density 21.531497000000002
#
# number of rings (size 3 to 8) (size 9 to 14) (size 15 to 20)
#    0.000    1.000    1.429    4.714    8.000    4.857 
#    0.000    2.857    0.000    0.000    0.000    0.000 
#    0.000    0.000    0.000    0.000    0.000    0.000 
#
# Total GULP energy -313397.667536 kJ/mol
# GULP energy per Si atom -5596.386920 kJ/mol
# Density = 2.148249 g / cm^3
# Si number density = 21.531497 Si / 1000 Ang^3
#
#
#
# Elastic Constant Matrix: (Units=GPa)
#
#
# Indices 1 2 3 4 5 6 
#
# 1 92.8570 -2.4871 28.6409 0.0000 0.0000 0.0000
# 2 -2.4871 92.8588 28.6382 0.0000 0.0000 0.0000
# 3 28.6409 28.6382 98.3047 0.0000 0.0000 0.0000
# 4 0.0000 0.0000 0.0000 30.5423 0.0000 0.0000
# 5 0.0000 0.0000 0.0000 0.0000 30.5422 0.0000
# 6 0.0000 0.0000 0.0000 0.0000 0.0000 23.7589
#
#
#
# Elastic Compliance Matrix: (Units=1/GPa)
#
#
# Indices 1 2 3 4 5 6 
#
# 1 0.012030 0.001542 -0.003954 0.000000 0.000000 0.000000
# 2 0.001542 0.012030 -0.003954 0.000000 0.000000 0.000000
# 3 -0.003954 -0.003954 0.012476 0.000000 0.000000 0.000000
# 4 0.000000 0.000000 0.000000 0.032742 0.000000 0.000000
# 5 0.000000 0.000000 0.000000 0.000000 0.032742 0.000000
# 6 0.000000 0.000000 0.000000 0.000000 0.000000 0.042090
#
#
# Mechanical properties :
#
#
# Convention : Reuss Voigt Hill
#
# Bulk Modulus (GPa) = 42.00986 43.73382 42.87184
# Shear Modulus (GPa) = 30.34433 32.25057 31.29745
#
# Velocity S-wave (km/s) = 3.75814 3.87438 3.81670
# Velocity P-wave (km/s) = 6.19554 6.35375 6.27514
#
# Compressibility (1/GPa) = 0.02380393
#
# Stress axis : x y z
#
# Youngs Moduli (GPa) = 83.12453 83.12791 80.15229
#
# Poissons Ratio (x) = -0.12816 0.31693
# Poissons Ratio (y) = -0.12815 0.31689
# Poissons Ratio (z) = 0.32868 0.32866
#
# Static dielectric constant tensor:
#      x y z
#    x 1.779690 0.000000 0.000000 
#    y 0.000000 1.779690 0.000000 
#    z 0.000000 0.000000 1.797840 
# 
# From -- ./inp_files/6295.got.cif
#   From: 2010.05.17/outbox.cif.g08.bks.cpg/sg120_4_cif.got.tgz:6295.got - 2010.05.20 11:28:13.
