data_PCOD9559923
_publ_section_title
;
Structure prediction by ZEFSAII (Michael W. Deem and Ramdas Pophale) SiO2 
 PCOD9559923
Probable space group: I -4 C 2
;
_chemical_formula_sum "Si O2"
_cell_formula_units_Z 48
_cell_length_a 10.417107
_cell_length_b 10.417107
_cell_length_c 18.485551
_cell_angle_alpha 90.000000
_cell_angle_beta 90.000000
_cell_angle_gamma 90.000000
_cell_volume 2005.980238
_symmetry_space_group_name_H-M "I -4 C 2"
_symmetry_group_IT_number 120
_symmetry_cell_setting 'tetragonal'
loop_
_space_group_symop_operation_xyz
x,y,z
y,-x,-z
-x,-y,z
-y,x,-z
y,x,1/2-z
-y,-x,1/2-z
-x,y,1/2+z
x,-y,1/2+z
1/2+x,1/2+y,1/2+z
1/2+y,1/2-x,1/2-z
1/2-x,1/2-y,1/2+z
1/2-y,1/2+x,1/2-z
1/2+y,1/2+x,-z
1/2-y,1/2-x,-z
1/2-x,1/2+y,z
1/2+x,1/2-y,z
loop_
_atom_site_type_symbol
_atom_site_label
_atom_site_fract_x
_atom_site_fract_y
_atom_site_fract_z
Si Si1 0.855362 0.100102 0.874741
Si Si2 0.000000 0.000000 0.750000
Si Si3 0.000000 0.500000 0.250000
Si Si4 0.809431 0.571235 0.124432
Si Si5 0.000000 0.500000 0.000000
Si Si6 0.500000 0.500000 0.000000
O O1 0.726310 0.183626 0.879523
O O2 0.984725 0.184206 0.871517
O O3 0.874651 0.013903 0.802542
O O4 0.876774 0.020256 0.948351
O O5 0.887480 0.541184 0.196892
O O6 0.882415 0.513305 0.054967
#
# Coordination Sequence:
#
# PCOD9559923 Si02
#       6
#    16   4   4  16   4   4
#     4  11  24  43  69 102 143 192 245 304 372 447
#     4  10  24  42  64  98 140 186 240 298 360 438
#     4  10  24  42  64  98 140 186 240 298 364 438
#     4  11  24  43  69 102 143 192 245 304 372 447
#     4  10  24  42  64  98 140 186 240 298 360 438
#     4  10  24  42  64  98 140 186 240 298 364 438
#
# _framework density 23.928449000000001
#
# number of rings (size 3 to 8) (size 9 to 14) (size 15 to 20)
#    0.000    1.333    0.000    4.000    0.000   18.667 
#    0.000    0.000    0.000    0.000    0.000    0.000 
#    0.000    0.000    0.000    0.000    0.000    0.000 
#
# Total GULP energy -133983.369853 kJ/mol
# GULP energy per Si atom -5582.640411 kJ/mol
# Density = 2.387399 g / cm^3
# Si number density = 23.928449 Si / 1000 Ang^3
#
#
#
# Elastic Constant Matrix: (Units=GPa)
#
#
# Indices 1 2 3 4 5 6 
#
# 1 83.7847 73.3569 37.0627 0.0000 0.0000 0.0000
# 2 73.3569 83.7847 37.0627 0.0000 0.0000 0.0000
# 3 37.0627 37.0627 158.2385 0.0000 0.0000 0.0000
# 4 0.0000 0.0000 0.0000 25.4871 0.0000 0.0000
# 5 0.0000 0.0000 0.0000 0.0000 25.4871 0.0000
# 6 0.0000 0.0000 0.0000 0.0000 0.0000 42.4333
#
#
#
# Elastic Compliance Matrix: (Units=1/GPa)
#
#
# Indices 1 2 3 4 5 6 
#
# 1 0.051526 -0.044372 -0.001676 0.000000 0.000000 0.000000
# 2 -0.044372 0.051526 -0.001676 0.000000 0.000000 0.000000
# 3 -0.001676 -0.001676 0.007105 0.000000 0.000000 0.000000
# 4 0.000000 0.000000 0.000000 0.039236 0.000000 0.000000
# 5 0.000000 0.000000 0.000000 0.000000 0.039236 0.000000
# 6 0.000000 0.000000 0.000000 0.000000 0.000000 0.023566
#
#
# Mechanical properties :
#
#
# Convention : Reuss Voigt Hill
#
# Bulk Modulus (GPa) = 67.98019 68.97473 68.47746
# Shear Modulus (GPa) = 15.99776 30.56987 23.28381
#
# Velocity S-wave (km/s) = 2.58847 3.57817 3.12277
# Velocity P-wave (km/s) = 6.11596 6.77931 6.45616
#
# Compressibility (1/GPa) = 0.01471017
#
# Stress axis : x y z
#
# Youngs Moduli (GPa) = 19.40767 19.40767 140.75569
#
# Poissons Ratio (x) = 0.86116 0.23586
# Poissons Ratio (y) = 0.86116 0.23586
# Poissons Ratio (z) = 0.03252 0.03252
#
# Static dielectric constant tensor:
#      x y z
#    x 1.976610 0.000000 0.000000 
#    y 0.000000 1.976610 0.000000 
#    z 0.000000 0.000000 2.105790 
# 
# From -- ./inp_files/4049.got.cif
#   From: 2010.05.17/outbox.cif.g08.bks.cpg/sg120_3_cif.got.tgz:4049.got - 2010.05.20 11:28:13.
