data_PCOD9559360
_publ_section_title
;
Structure prediction by ZEFSAII (Michael W. Deem and Ramdas Pophale) SiO2 
 PCOD9559360
Probable space group: I -4 M 2
;
_chemical_formula_sum "Si O2"
_cell_formula_units_Z 96
_cell_length_a 13.844032
_cell_length_b 13.844032
_cell_length_c 28.906221
_cell_angle_alpha 90.000000
_cell_angle_beta 90.000000
_cell_angle_gamma 90.000000
_cell_volume 5540.086016
_symmetry_space_group_name_H-M "I -4 M 2"
_symmetry_group_IT_number 119
_symmetry_cell_setting 'tetragonal'
loop_
_space_group_symop_operation_xyz
x,y,z
y,-x,-z
-x,-y,z
-y,x,-z
y,x,-z
-y,-x,-z
-x,y,z
x,-y,z
1/2+x,1/2+y,1/2+z
1/2+y,1/2-x,1/2-z
1/2-x,1/2-y,1/2+z
1/2-y,1/2+x,1/2-z
1/2+y,1/2+x,1/2-z
1/2-y,1/2-x,1/2-z
1/2-x,1/2+y,1/2+z
1/2+x,1/2-y,1/2+z
loop_
_atom_site_type_symbol
_atom_site_label
_atom_site_fract_x
_atom_site_fract_y
_atom_site_fract_z
Si Si1 0.889830 0.108773 0.582693
Si Si2 0.885056 0.613065 0.110573
Si Si3 0.215732 0.611033 0.789771
Si Si4 0.756952 0.245692 0.948358
Si Si5 0.724845 0.607950 0.180286
Si Si6 0.111608 0.615044 0.609948
O O1 0.832198 0.179494 0.550444
O O2 0.839410 0.110742 0.633042
O O3 0.000000 0.137269 0.588645
O O4 0.885381 0.000000 0.565058
O O5 0.862936 0.500000 0.095955
O O6 0.837658 0.695937 0.078259
O O7 0.832251 0.624033 0.160215
O O8 0.000000 0.622309 0.112451
O O9 0.246179 0.500000 0.783931
O O10 0.142123 0.642123 0.750000
O O11 0.307851 0.681569 0.788954
O O12 0.164911 0.619587 0.839820
O O13 0.842275 0.300314 0.920537
O O14 0.784664 0.215337 0.000000
O O15 0.717473 0.500000 0.199929
O O16 0.120686 0.500000 0.613894
O O17 0.000000 0.633851 0.593042
#
# Coordination Sequence:
#
# PCOD9559360 Si02
#       6
#    16  16  16  16  16  16
#     4   9  16  27  45  70 102 138 171 209 265 328
#     4   9  18  34  56  80 106 139 181 229 280 333
#     4  11  21  35  57  85 116 150 187 227 273 328
#     4  11  21  32  49  75 106 142 185 228 274 332
#     4   9  17  32  55  81 106 140 180 219 269 327
#     4  10  21  37  56  79 111 149 186 229 283 337
#
# _framework density 17.328251999999999
#
# number of rings (size 3 to 8) (size 9 to 14) (size 15 to 20)
#    0.000    2.167    3.333    3.000    0.000    5.167 
#    0.000    3.333    0.000    0.500    0.000    1.167 
#    0.000    0.000    0.000    0.000    0.000    0.000 
#
# Total GULP energy -267324.577859 kJ/mol
# GULP energy per Si atom -5569.262039 kJ/mol
# Density = 1.728881 g / cm^3
# Si number density = 17.328252 Si / 1000 Ang^3
#
#
#
# Elastic Constant Matrix: (Units=GPa)
#
#
# Indices 1 2 3 4 5 6 
#
# 1 106.3199 35.5887 15.2534 0.0000 0.0000 0.0000
# 2 35.5887 106.3201 15.2534 0.0000 0.0000 0.0000
# 3 15.2534 15.2534 35.2199 0.0000 0.0000 0.0000
# 4 0.0000 0.0000 0.0000 9.1941 0.0000 0.0000
# 5 0.0000 0.0000 0.0000 0.0000 9.1942 0.0000
# 6 0.0000 0.0000 0.0000 0.0000 0.0000 26.3043
#
#
#
# Elastic Compliance Matrix: (Units=1/GPa)
#
#
# Indices 1 2 3 4 5 6 
#
# 1 0.010954 -0.003184 -0.003365 0.000000 0.000000 0.000000
# 2 -0.003184 0.010954 -0.003365 0.000000 0.000000 0.000000
# 3 -0.003365 -0.003365 0.031308 0.000000 0.000000 0.000000
# 4 0.000000 0.000000 0.000000 0.108766 0.000000 0.000000
# 5 0.000000 0.000000 0.000000 0.000000 0.108764 0.000000
# 6 0.000000 0.000000 0.000000 0.000000 0.000000 0.038017
#
#
# Mechanical properties :
#
#
# Convention : Reuss Voigt Hill
#
# Bulk Modulus (GPa) = 29.95132 42.22788 36.08960
# Shear Modulus (GPa) = 14.71799 21.05614 17.88707
#
# Velocity S-wave (km/s) = 2.91755 3.48966 3.21635
# Velocity P-wave (km/s) = 5.35459 6.37646 5.88774
#
# Compressibility (1/GPa) = 0.03338751
#
# Stress axis : x y z
#
# Youngs Moduli (GPa) = 91.28982 91.28995 31.94087
#
# Poissons Ratio (x) = 0.29066 0.10749
# Poissons Ratio (y) = 0.29066 0.10749
# Poissons Ratio (z) = 0.30721 0.30721
#
# Static dielectric constant tensor:
#      x y z
#    x 1.613310 0.000000 0.000000 
#    y 0.000000 1.613310 0.000000 
#    z 0.000000 0.000000 1.608910 
# 
# From -- ./inp_files/10370.got.cif
#   From: 2010.05.17/outbox.cif.g08.bks.cpg/sg119_6_cif.got.tgz:10370.got - 2010.05.20 11:21:29.
