data_PCOD9559204
_publ_section_title
;
Structure prediction by ZEFSAII (Michael W. Deem and Ramdas Pophale) SiO2 
 PCOD9559204
Probable space group: I -4 M 2
;
_chemical_formula_sum "Si O2"
_cell_formula_units_Z 88
_cell_length_a 17.997385
_cell_length_b 17.997385
_cell_length_c 15.499003
_cell_angle_alpha 90.000000
_cell_angle_beta 90.000000
_cell_angle_gamma 90.000000
_cell_volume 5020.218002
_symmetry_space_group_name_H-M "I -4 M 2"
_symmetry_group_IT_number 119
_symmetry_cell_setting 'tetragonal'
loop_
_space_group_symop_operation_xyz
x,y,z
y,-x,-z
-x,-y,z
-y,x,-z
y,x,-z
-y,-x,-z
-x,y,z
x,-y,z
1/2+x,1/2+y,1/2+z
1/2+y,1/2-x,1/2-z
1/2-x,1/2-y,1/2+z
1/2-y,1/2+x,1/2-z
1/2+y,1/2+x,1/2-z
1/2-y,1/2-x,1/2-z
1/2-x,1/2+y,1/2+z
1/2+x,1/2-y,1/2+z
loop_
_atom_site_type_symbol
_atom_site_label
_atom_site_fract_x
_atom_site_fract_y
_atom_site_fract_z
Si Si1 0.227042 0.417164 0.695084
Si Si2 0.916613 0.916613 0.000000
Si Si3 0.087491 0.706793 0.279571
Si Si4 0.653959 0.086128 0.376105
Si Si5 0.662820 0.772588 0.960665
Si Si6 0.697000 0.349133 0.372324
O O1 0.255990 0.500000 0.677453
O O2 0.145657 0.407919 0.652333
O O3 0.213719 0.408548 0.797686
O O4 0.279131 0.352491 0.658559
O O5 0.901669 0.856025 0.072893
O O6 0.000000 0.908639 0.965585
O O7 0.134205 0.634205 0.250000
O O8 0.115392 0.733096 0.373418
O O9 0.110189 0.768729 0.209907
O O10 0.000000 0.693058 0.279514
O O11 0.687983 0.114898 0.465333
O O12 0.630307 0.000000 0.380823
O O13 0.734753 0.820873 0.931299
O O14 0.697085 0.697085 0.000000
#
# Coordination Sequence:
#
# PCOD9559204 Si02
#       6
#    16   8  16  16  16  16
#     4  10  20  34  55  82 114 153 190 233 291 348
#     4  11  22  34  52  78 110 142 178 234 299 354
#     4  10  23  38  59  85 115 154 194 238 290 348
#     4  10  20  33  52  80 116 148 186 233 286 346
#     4  11  19  34  58  84 106 146 191 244 279 330
#     4  11  20  36  57  81 109 147 192 241 282 341
#
# _framework density 17.529119000000001
#
# number of rings (size 3 to 8) (size 9 to 14) (size 15 to 20)
#    0.000    1.545    2.727    2.727    5.091    0.545 
#    0.000    5.455    0.000    4.364    0.000    0.000 
#    0.000    4.727    0.000    0.000    0.000    0.000 
#
# Total GULP energy -245547.996769 kJ/mol
# GULP energy per Si atom -5580.636290 kJ/mol
# Density = 1.748922 g / cm^3
# Si number density = 17.529119 Si / 1000 Ang^3
#
#
#
# Elastic Constant Matrix: (Units=GPa)
#
#
# Indices 1 2 3 4 5 6 
#
# 1 101.9580 42.4413 44.8544 0.0000 0.0000 0.0000
# 2 42.4413 101.9580 44.8544 0.0000 0.0000 0.0000
# 3 44.8544 44.8544 133.0999 0.0000 0.0000 0.0000
# 4 0.0000 0.0000 0.0000 22.0049 0.0000 0.0000
# 5 0.0000 0.0000 0.0000 0.0000 22.0049 0.0000
# 6 0.0000 0.0000 0.0000 0.0000 0.0000 16.5437
#
#
#
# Elastic Compliance Matrix: (Units=1/GPa)
#
#
# Indices 1 2 3 4 5 6 
#
# 1 0.012781 -0.004021 -0.002952 0.000000 0.000000 0.000000
# 2 -0.004021 0.012781 -0.002952 0.000000 0.000000 0.000000
# 3 -0.002952 -0.002952 0.009503 0.000000 0.000000 0.000000
# 4 0.000000 0.000000 0.000000 0.045444 0.000000 0.000000
# 5 0.000000 0.000000 0.000000 0.000000 0.045444 0.000000
# 6 0.000000 0.000000 0.000000 0.000000 0.000000 0.060446
#
#
# Mechanical properties :
#
#
# Convention : Reuss Voigt Hill
#
# Bulk Modulus (GPa) = 65.73061 66.81292 66.27177
# Shear Modulus (GPa) = 23.66082 25.76842 24.71462
#
# Velocity S-wave (km/s) = 3.67795 3.83826 3.75896
# Velocity P-wave (km/s) = 7.45760 7.60534 7.53183
#
# Compressibility (1/GPa) = 0.01521361
#
# Stress axis : x y z
#
# Youngs Moduli (GPa) = 78.24403 78.24403 105.23388
#
# Poissons Ratio (x) = 0.31466 0.31063
# Poissons Ratio (y) = 0.31466 0.31063
# Poissons Ratio (z) = 0.23096 0.23096
#
# Static dielectric constant tensor:
#      x y z
#    x 1.587350 0.000000 0.000000 
#    y 0.000000 1.587350 0.000000 
#    z 0.000000 0.000000 1.600750 
# 
# From -- ./inp_files/5385.got.cif
#   From: 2010.05.17/outbox.cif.g08.bks.cpg/sg119_3_cif.got.tgz:5385.got - 2010.05.20 11:21:29.
