data_PCOD9559527
_publ_section_title
;
Structure prediction by ZEFSAII (Michael W. Deem and Ramdas Pophale) SiO2 
 PCOD9559527
Probable space group: I -4 M 2
;
_chemical_formula_sum "Si O2"
_cell_formula_units_Z 40
_cell_length_a 10.369832
_cell_length_b 10.369832
_cell_length_c 19.791831
_cell_angle_alpha 90.000000
_cell_angle_beta 90.000000
_cell_angle_gamma 90.000000
_cell_volume 2128.283191
_symmetry_space_group_name_H-M "I -4 M 2"
_symmetry_group_IT_number 119
_symmetry_cell_setting 'tetragonal'
loop_
_space_group_symop_operation_xyz
x,y,z
y,-x,-z
-x,-y,z
-y,x,-z
y,x,-z
-y,-x,-z
-x,y,z
x,-y,z
1/2+x,1/2+y,1/2+z
1/2+y,1/2-x,1/2-z
1/2-x,1/2-y,1/2+z
1/2-y,1/2+x,1/2-z
1/2+y,1/2+x,1/2-z
1/2-y,1/2-x,1/2-z
1/2-x,1/2+y,1/2+z
1/2+x,1/2-y,1/2+z
loop_
_atom_site_type_symbol
_atom_site_label
_atom_site_fract_x
_atom_site_fract_y
_atom_site_fract_z
Si Si1 0.000000 0.500000 0.030543
Si Si2 0.500000 0.500000 0.500000
Si Si3 0.230647 0.500000 0.577156
Si Si4 0.000000 0.000000 0.500000
Si Si5 0.233540 0.655275 0.825441
Si Si6 0.230638 0.000000 0.607672
O O1 0.127915 0.500000 0.075696
O O2 0.000000 0.625144 0.982409
O O3 0.372279 0.500000 0.545694
O O4 0.206935 0.374792 0.623306
O O5 0.125591 0.000000 0.547310
O O6 0.232652 0.500000 0.828467
O O7 0.199062 0.699062 0.750000
O O8 0.372358 0.705787 0.848669
#
# Coordination Sequence:
#
# PCOD9559527 Si02
#       6
#     4   2   8   2  16   8
#     4  12  24  44  68 102 138 174 220 264 334 402
#     4  12  28  44  62 108 140 164 220 278 356 384
#     4  12  24  44  71  95 135 179 216 273 327 401
#     4  12  20  44  66  96 140 180 220 266 320 412
#     4  12  24  45  71  96 130 177 227 271 324 398
#     4  12  26  42  69 103 135 173 218 275 333 385
#
# _framework density 18.794492000000002
#
# number of rings (size 3 to 8) (size 9 to 14) (size 15 to 20)
#    0.000    0.000    6.000    4.800    0.000    3.200 
#    0.000    0.000    0.000    0.000    0.000    0.000 
#    0.000    0.000    0.000    0.000    0.000    0.000 
#
# Total GULP energy -112020.677272 kJ/mol
# GULP energy per Si atom -5601.033864 kJ/mol
# Density = 1.875171 g / cm^3
# Si number density = 18.794492 Si / 1000 Ang^3
#
#
#
# Elastic Constant Matrix: (Units=GPa)
#
#
# Indices 1 2 3 4 5 6 
#
# 1 225.4995 86.4524 114.3928 0.0000 0.0000 0.0000
# 2 86.4524 225.4995 114.3928 0.0000 0.0000 0.0000
# 3 114.3928 114.3928 154.9078 0.0000 0.0000 0.0000
# 4 0.0000 0.0000 0.0000 -159.8787 0.0000 0.0000
# 5 0.0000 0.0000 0.0000 0.0000 -159.8787 0.0000
# 6 0.0000 0.0000 0.0000 0.0000 0.0000 -82.8263
#
#
#
# Elastic Compliance Matrix: (Units=1/GPa)
#
#
# Indices 1 2 3 4 5 6 
#
# 1 0.007092 -0.000099 -0.005164 0.000000 0.000000 0.000000
# 2 -0.000099 0.007092 -0.005164 0.000000 0.000000 0.000000
# 3 -0.005164 -0.005164 0.014082 0.000000 0.000000 0.000000
# 4 0.000000 0.000000 0.000000 -0.006255 0.000000 0.000000
# 5 0.000000 0.000000 0.000000 0.000000 -0.006255 0.000000
# 6 0.000000 0.000000 0.000000 0.000000 0.000000 -0.012073
#
#
# Mechanical properties :
#
#
# Convention : Reuss Voigt Hill
#
# Bulk Modulus (GPa) = 134.91386 137.37587 136.14487
# Shear Modulus (GPa) = 185.12231 -61.13881 61.99175
#
# Velocity S-wave (km/s) = 9.93539 -5.70971 5.74940
# Velocity P-wave (km/s) = 14.26729 5.45753 10.80139
#
# Compressibility (1/GPa) = 0.00741214
#
# Stress axis : x y z
#
# Youngs Moduli (GPa) = 140.99749 140.99749 71.01203
#
# Poissons Ratio (x) = 0.01403 0.36670
# Poissons Ratio (y) = 0.01403 0.36670
# Poissons Ratio (z) = 0.72810 0.72810
#
# Static dielectric constant tensor:
#      x y z
#    x 1.619970 0.000000 0.000000 
#    y 0.000000 1.619970 0.000000 
#    z 0.000000 0.000000 1.615010 
# 
# From -- ./inp_files/8280.got.cif
#   From: 2010.05.17/outbox.cif.g08.bks.cpg/sg119_5_cif.got.tgz:8280.got - 2010.05.20 11:21:29.
