data_PCOD9559661
_publ_section_title
;
Structure prediction by ZEFSAII (Michael W. Deem and Ramdas Pophale) SiO2 
 PCOD9559661
Probable space group: I -4 C 2
;
_chemical_formula_sum "Si O2"
_cell_formula_units_Z 52
_cell_length_a 18.345965
_cell_length_b 18.345965
_cell_length_c 8.400678
_cell_angle_alpha 90.000000
_cell_angle_beta 90.000000
_cell_angle_gamma 90.000000
_cell_volume 2827.453424
_symmetry_space_group_name_H-M "I -4 C 2"
_symmetry_group_IT_number 120
_symmetry_cell_setting 'tetragonal'
loop_
_space_group_symop_operation_xyz
x,y,z
y,-x,-z
-x,-y,z
-y,x,-z
y,x,1/2-z
-y,-x,1/2-z
-x,y,1/2+z
x,-y,1/2+z
1/2+x,1/2+y,1/2+z
1/2+y,1/2-x,1/2-z
1/2-x,1/2-y,1/2+z
1/2-y,1/2+x,1/2-z
1/2+y,1/2+x,-z
1/2-y,1/2-x,-z
1/2-x,1/2+y,z
1/2+x,1/2-y,z
loop_
_atom_site_type_symbol
_atom_site_label
_atom_site_fract_x
_atom_site_fract_y
_atom_site_fract_z
Si Si1 0.174400 0.825601 0.750000
Si Si2 0.977197 0.838471 0.123857
Si Si3 0.500000 0.500000 0.250000
Si Si4 0.293910 0.206091 0.500000
Si Si5 0.600220 0.284030 0.808099
O O1 0.182429 0.912607 0.752925
O O2 0.202764 0.780075 0.601036
O O3 0.044126 0.785560 0.162772
O O4 0.942986 0.825060 0.950860
O O5 0.998331 0.923152 0.153346
O O6 0.363261 0.211934 0.382603
O O7 0.667356 0.332645 0.750000
#
# Coordination Sequence:
#
# PCOD9559661 Si02
#       5
#     8  16   4   8  16
#     4   9  20  34  52  78 110 148 200 229 292 336
#     4  10  23  32  50  79 110 155 195 234 272 338
#     4  10  20  32  46  72 122 154 182 218 270 320
#     4  10  20  38  56  72 108 162 192 248 288 332
#     4  11  23  36  54  77 113 156 198 238 280 336
#
# _framework density 18.391107999999999
#
# number of rings (size 3 to 8) (size 9 to 14) (size 15 to 20)
#    0.000    1.846    3.077    0.000   12.923    1.231 
#    0.000    0.000    0.000    0.000    0.000    0.000 
#    0.000   80.000    0.000    0.000    0.000    0.000 
#
# Total GULP energy -144946.648787 kJ/mol
# GULP energy per Si atom -5574.871107 kJ/mol
# Density = 1.834925 g / cm^3
# Si number density = 18.391108 Si / 1000 Ang^3
#
#
#
# Elastic Constant Matrix: (Units=GPa)
#
#
# Indices 1 2 3 4 5 6 
#
# 1 63.5898 49.2512 23.6681 0.0000 0.0000 0.0000
# 2 49.2512 63.5897 23.6665 0.0000 0.0000 0.0000
# 3 23.6681 23.6665 59.2546 0.0000 0.0000 0.0000
# 4 0.0000 0.0000 0.0000 35.9942 0.0000 0.0000
# 5 0.0000 0.0000 0.0000 0.0000 35.9927 0.0000
# 6 0.0000 0.0000 0.0000 0.0000 0.0000 34.1495
#
#
#
# Elastic Compliance Matrix: (Units=1/GPa)
#
#
# Indices 1 2 3 4 5 6 
#
# 1 0.040194 -0.029548 -0.004253 0.000000 0.000000 0.000000
# 2 -0.029548 0.040193 -0.004251 0.000000 0.000000 0.000000
# 3 -0.004253 -0.004251 0.020273 0.000000 0.000000 0.000000
# 4 0.000000 0.000000 0.000000 0.027782 0.000000 0.000000
# 5 0.000000 0.000000 0.000000 0.000000 0.027783 0.000000
# 6 0.000000 0.000000 0.000000 0.000000 0.000000 0.029283
#
#
# Mechanical properties :
#
#
# Convention : Reuss Voigt Hill
#
# Bulk Modulus (GPa) = 40.72303 42.17840 41.45072
# Shear Modulus (GPa) = 18.53229 27.21717 22.87473
#
# Velocity S-wave (km/s) = 3.17784 3.85113 3.53057
# Velocity P-wave (km/s) = 5.97124 6.53903 6.26157
#
# Compressibility (1/GPa) = 0.02455613
#
# Stress axis : x y z
#
# Youngs Moduli (GPa) = 24.87917 24.87968 49.32666
#
# Poissons Ratio (x) = 0.73515 0.20979
# Poissons Ratio (y) = 0.73513 0.20969
# Poissons Ratio (z) = 0.10581 0.10576
#
# Static dielectric constant tensor:
#      x y z
#    x 1.643410 0.000000 0.000000 
#    y 0.000000 1.643410 0.000000 
#    z 0.000000 0.000000 1.786200 
# 
# From -- ./inp_files/1012.got.cif
#   From: 2010.05.17/outbox.cif.g08.bks.cpg/sg120_1_cif.got.tgz:1012.got - 2010.05.20 11:28:13.
