data_PCOD9559207
_publ_section_title
;
Structure prediction by ZEFSAII (Michael W. Deem and Ramdas Pophale) SiO2 
 PCOD9559207
Probable space group: I -4 M 2
;
_chemical_formula_sum "Si O2"
_cell_formula_units_Z 112
_cell_length_a 14.110157
_cell_length_b 14.110157
_cell_length_c 31.708897
_cell_angle_alpha 90.000000
_cell_angle_beta 90.000000
_cell_angle_gamma 90.000000
_cell_volume 6313.131381
_symmetry_space_group_name_H-M "I -4 M 2"
_symmetry_group_IT_number 119
_symmetry_cell_setting 'tetragonal'
loop_
_space_group_symop_operation_xyz
x,y,z
y,-x,-z
-x,-y,z
-y,x,-z
y,x,-z
-y,-x,-z
-x,y,z
x,-y,z
1/2+x,1/2+y,1/2+z
1/2+y,1/2-x,1/2-z
1/2-x,1/2-y,1/2+z
1/2-y,1/2+x,1/2-z
1/2+y,1/2+x,1/2-z
1/2-y,1/2-x,1/2-z
1/2-x,1/2+y,1/2+z
1/2+x,1/2-y,1/2+z
loop_
_atom_site_type_symbol
_atom_site_label
_atom_site_fract_x
_atom_site_fract_y
_atom_site_fract_z
Si Si1 0.890861 0.109932 0.259520
Si Si2 0.611876 0.725502 0.324397
Si Si3 0.386956 0.256371 0.525453
Si Si4 0.389545 0.724742 0.844846
Si Si5 0.388302 0.110080 0.044637
Si Si6 0.386859 0.757815 0.623555
Si Si7 0.388277 0.219074 0.130921
O O1 0.815949 0.126064 0.222429
O O2 0.881144 0.185179 0.297063
O O3 0.000000 0.116751 0.243488
O O4 0.879476 0.000000 0.274664
O O5 0.500000 0.734878 0.331870
O O6 0.660676 0.649155 0.355333
O O7 0.664867 0.824079 0.334451
O O8 0.343912 0.343912 0.500000
O O9 0.500000 0.262720 0.525680
O O10 0.357986 0.167268 0.496700
O O11 0.359194 0.245711 0.574158
O O12 0.500000 0.726732 0.855860
O O13 0.339673 0.825714 0.853363
O O14 0.326322 0.649075 0.870362
O O15 0.500000 0.114892 0.037011
O O16 0.367271 0.169399 0.086345
O O17 0.363291 0.000000 0.052988
O O18 0.500000 0.770109 0.627448
O O19 0.500000 0.212714 0.139428
#
# Coordination Sequence:
#
# PCOD9559207 Si02
#       7
#    16  16  16  16  16  16  16
#     4   9  18  34  57  82 106 138 182 223 261 318
#     4  10  20  35  56  80 109 144 175 210 264 325
#     4  10  20  34  51  74 107 143 177 213 255 309
#     4  10  21  37  56  76 102 140 181 222 268 316
#     4   9  18  34  55  76 101 137 175 209 253 311
#     4  10  22  36  53  82 112 138 177 227 273 316
#     4  10  20  33  53  83 112 137 173 220 265 313
#
# _framework density 17.740798999999999
#
# number of rings (size 3 to 8) (size 9 to 14) (size 15 to 20)
#    0.000    2.286    0.000    3.000    0.000    7.571 
#    0.000    2.857    0.000    0.857    0.000   10.000 
#    0.000    8.000    0.000    0.000    0.000    0.000 
#
# Total GULP energy -312234.299719 kJ/mol
# GULP energy per Si atom -5575.612495 kJ/mol
# Density = 1.770042 g / cm^3
# Si number density = 17.740799 Si / 1000 Ang^3
#
#
#
# Elastic Constant Matrix: (Units=GPa)
#
#
# Indices 1 2 3 4 5 6 
#
# 1 98.0613 40.1974 38.1463 0.0000 0.0000 0.0000
# 2 40.1974 98.0613 38.1463 0.0000 0.0000 0.0000
# 3 38.1463 38.1463 64.8310 0.0000 0.0000 0.0000
# 4 0.0000 0.0000 0.0000 21.8904 0.0000 0.0000
# 5 0.0000 0.0000 0.0000 0.0000 21.8904 0.0000
# 6 0.0000 0.0000 0.0000 0.0000 0.0000 23.2698
#
#
#
# Elastic Compliance Matrix: (Units=1/GPa)
#
#
# Indices 1 2 3 4 5 6 
#
# 1 0.013996 -0.003286 -0.006302 0.000000 0.000000 0.000000
# 2 -0.003286 0.013996 -0.006302 0.000000 0.000000 0.000000
# 3 -0.006302 -0.006302 0.022841 0.000000 0.000000 0.000000
# 4 0.000000 0.000000 0.000000 0.045682 0.000000 0.000000
# 5 0.000000 0.000000 0.000000 0.000000 0.045682 0.000000
# 6 0.000000 0.000000 0.000000 0.000000 0.000000 0.042974
#
#
# Mechanical properties :
#
#
# Convention : Reuss Voigt Hill
#
# Bulk Modulus (GPa) = 52.48311 54.88149 53.68230
# Shear Modulus (GPa) = 22.39125 23.04104 22.71614
#
# Velocity S-wave (km/s) = 3.55651 3.60774 3.58221
# Velocity P-wave (km/s) = 6.82001 6.95390 6.88728
#
# Compressibility (1/GPa) = 0.01905375
#
# Stress axis : x y z
#
# Youngs Moduli (GPa) = 71.44846 71.44846 43.78145
#
# Poissons Ratio (x) = 0.23477 0.27591
# Poissons Ratio (y) = 0.23477 0.27591
# Poissons Ratio (z) = 0.45026 0.45026
#
# Static dielectric constant tensor:
#      x y z
#    x 1.612980 0.000000 0.000000 
#    y 0.000000 1.612980 0.000000 
#    z 0.000000 0.000000 1.605840 
# 
# From -- ./inp_files/9621.got.cif
#   From: 2010.05.17/outbox.cif.g08.bks.cpg/sg119_5_cif.got.tgz:9621.got - 2010.05.20 11:21:29.
