data_PCOD9559902
_publ_section_title
;
Structure prediction by ZEFSAII (Michael W. Deem and Ramdas Pophale) SiO2 
 PCOD9559902
Probable space group: I -4 C 2
;
_chemical_formula_sum "Si O2"
_cell_formula_units_Z 60
_cell_length_a 17.128113
_cell_length_b 17.128113
_cell_length_c 9.002645
_cell_angle_alpha 90.000000
_cell_angle_beta 90.000000
_cell_angle_gamma 90.000000
_cell_volume 2641.126264
_symmetry_space_group_name_H-M "I -4 C 2"
_symmetry_group_IT_number 120
_symmetry_cell_setting 'tetragonal'
loop_
_space_group_symop_operation_xyz
x,y,z
y,-x,-z
-x,-y,z
-y,x,-z
y,x,1/2-z
-y,-x,1/2-z
-x,y,1/2+z
x,-y,1/2+z
1/2+x,1/2+y,1/2+z
1/2+y,1/2-x,1/2-z
1/2-x,1/2-y,1/2+z
1/2-y,1/2+x,1/2-z
1/2+y,1/2+x,-z
1/2-y,1/2-x,-z
1/2-x,1/2+y,z
1/2+x,1/2-y,z
loop_
_atom_site_type_symbol
_atom_site_label
_atom_site_fract_x
_atom_site_fract_y
_atom_site_fract_z
Si Si1 0.838366 0.874078 0.087676
Si Si2 0.236184 0.959499 0.033645
Si Si3 0.500000 0.000000 0.500000
Si Si4 0.180070 0.319931 0.500000
Si Si5 0.023059 0.658888 0.183894
O O1 0.876583 0.876583 0.250000
O O2 0.814352 0.961376 0.042431
O O3 0.890249 0.826233 0.968624
O O4 0.757962 0.826508 0.093511
O O5 0.309069 0.965618 0.149158
O O6 0.281329 0.958404 0.877438
O O7 0.574451 0.001519 0.387032
O O8 0.105688 0.324323 0.606877
#
# Coordination Sequence:
#
# PCOD9559902 Si02
#       5
#    16  16   4   8  16
#     4  11  24  45  69 102 137 189 233 305 368 438
#     4  11  24  44  69 102 143 181 252 303 362 440
#     4  10  24  44  72 106 164 200 236 296 400 414
#     4   9  24  40  68 100 138 188 240 283 372 432
#     4  10  23  43  66 106 144 189 243 300 349 458
#
# _framework density 22.717580999999999
#
# number of rings (size 3 to 8) (size 9 to 14) (size 15 to 20)
#    0.000    1.600    2.667    0.000    3.733   12.267 
#    0.000    1.333    0.000    0.000    0.000    0.000 
#    0.000    0.000    0.000    0.000    0.000    0.000 
#
# Total GULP energy -167324.697674 kJ/mol
# GULP energy per Si atom -5577.489922 kJ/mol
# Density = 2.266588 g / cm^3
# Si number density = 22.717581 Si / 1000 Ang^3
#
#
#
# Elastic Constant Matrix: (Units=GPa)
#
#
# Indices 1 2 3 4 5 6 
#
# 1 106.4799 75.4276 23.8549 0.0000 0.0000 0.0000
# 2 75.4276 106.4828 23.8541 0.0000 0.0000 0.0000
# 3 23.8549 23.8541 91.7976 0.0000 0.0000 0.0000
# 4 0.0000 0.0000 0.0000 23.9167 0.0000 0.0000
# 5 0.0000 0.0000 0.0000 0.0000 23.9167 0.0000
# 6 0.0000 0.0000 0.0000 0.0000 0.0000 40.5373
#
#
#
# Elastic Compliance Matrix: (Units=1/GPa)
#
#
# Indices 1 2 3 4 5 6 
#
# 1 0.019051 -0.013151 -0.001533 0.000000 0.000000 0.000000
# 2 -0.013151 0.019050 -0.001533 0.000000 0.000000 0.000000
# 3 -0.001533 -0.001533 0.011690 0.000000 0.000000 0.000000
# 4 0.000000 0.000000 0.000000 0.041812 0.000000 0.000000
# 5 0.000000 0.000000 0.000000 0.000000 0.041812 0.000000
# 6 0.000000 0.000000 0.000000 0.000000 0.000000 0.024669
#
#
# Mechanical properties :
#
#
# Convention : Reuss Voigt Hill
#
# Bulk Modulus (GPa) = 57.61396 61.22594 59.41995
# Shear Modulus (GPa) = 25.47062 29.78238 27.62650
#
# Velocity S-wave (km/s) = 3.35204 3.62468 3.49102
# Velocity P-wave (km/s) = 6.35591 6.67287 6.51632
#
# Compressibility (1/GPa) = 0.01735691
#
# Stress axis : x y z
#
# Youngs Moduli (GPa) = 52.49040 52.49215 85.54134
#
# Poissons Ratio (x) = 0.69035 0.13115
# Poissons Ratio (y) = 0.69033 0.13111
# Poissons Ratio (z) = 0.08048 0.08046
#
# Static dielectric constant tensor:
#      x y z
#    x 1.846860 0.000000 0.000000 
#    y 0.000000 1.846860 0.000000 
#    z 0.000000 0.000000 1.929490 
# 
# From -- ./inp_files/1090.got.cif
#   From: 2010.05.17/outbox.cif.g08.bks.cpg/sg120_1_cif.got.tgz:1090.got - 2010.05.20 11:28:13.
