data_PCOD9559132
_publ_section_title
;
Structure prediction by ZEFSAII (Michael W. Deem and Ramdas Pophale) SiO2 
 PCOD9559132
Probable space group: I -4 M 2
;
_chemical_formula_sum "Si O2"
_cell_formula_units_Z 112
_cell_length_a 14.502259
_cell_length_b 14.502259
_cell_length_c 27.054950
_cell_angle_alpha 90.000000
_cell_angle_beta 90.000000
_cell_angle_gamma 90.000000
_cell_volume 5690.075772
_symmetry_space_group_name_H-M "I -4 M 2"
_symmetry_group_IT_number 119
_symmetry_cell_setting 'tetragonal'
loop_
_space_group_symop_operation_xyz
x,y,z
y,-x,-z
-x,-y,z
-y,x,-z
y,x,-z
-y,-x,-z
-x,y,z
x,-y,z
1/2+x,1/2+y,1/2+z
1/2+y,1/2-x,1/2-z
1/2-x,1/2-y,1/2+z
1/2-y,1/2+x,1/2-z
1/2+y,1/2+x,1/2-z
1/2-y,1/2-x,1/2-z
1/2-x,1/2+y,1/2+z
1/2+x,1/2-y,1/2+z
loop_
_atom_site_type_symbol
_atom_site_label
_atom_site_fract_x
_atom_site_fract_y
_atom_site_fract_z
Si Si1 0.396706 0.217224 0.620309
Si Si2 0.390393 0.388254 0.123955
Si Si3 0.108682 0.400063 0.849636
Si Si4 0.608855 0.767661 0.950487
Si Si5 0.900074 0.130707 0.942380
Si Si6 0.153498 0.605415 0.540653
Si Si7 0.731121 0.258025 0.192198
O O1 0.500000 0.191408 0.633815
O O2 0.345305 0.139638 0.588480
O O3 0.400149 0.310178 0.586983
O O4 0.329323 0.234196 0.665683
O O5 0.500000 0.364741 0.120886
O O6 0.384289 0.500000 0.128920
O O7 0.329989 0.361551 0.074724
O O8 0.337028 0.337327 0.169196
O O9 0.137137 0.500000 0.829521
O O10 0.123736 0.399720 0.908699
O O11 0.165324 0.319210 0.825401
O O12 0.000000 0.388441 0.842068
O O13 0.500000 0.761474 0.955940
O O14 0.644583 0.812605 0.001322
O O15 0.897136 0.240768 0.943044
O O16 0.000000 0.102307 0.921887
O O17 0.896316 0.103685 0.000000
O O18 0.130190 0.500000 0.522304
O O19 0.750178 0.250178 0.250000
#
# Coordination Sequence:
#
# PCOD9559132 Si02
#       7
#    16  16  16  16  16  16  16
#     4  11  23  39  59  85 117 152 195 245 292 350
#     4   9  20  41  66  91 121 159 203 249 300 361
#     4  10  21  37  58  86 119 154 194 244 301 361
#     4  10  20  35  60  91 122 158 196 236 286 346
#     4  11  21  35  55  81 120 161 194 231 279 341
#     4  10  19  33  56  86 123 162 197 239 288 348
#     4  11  24  41  63  87 114 150 196 255 316 369
#
# _framework density 19.683394
#
# number of rings (size 3 to 8) (size 9 to 14) (size 15 to 20)
#    0.000    1.714    2.857    1.714    0.000    4.429 
#    0.000    0.714    0.000    0.857    0.000    4.000 
#    0.000    0.000    0.000    0.000    0.000    0.000 
#
# Total GULP energy -312468.859667 kJ/mol
# GULP energy per Si atom -5579.801065 kJ/mol
# Density = 1.963859 g / cm^3
# Si number density = 19.683394 Si / 1000 Ang^3
#
#
#
# Elastic Constant Matrix: (Units=GPa)
#
#
# Indices 1 2 3 4 5 6 
#
# 1 103.9510 14.4058 26.2765 0.0000 0.0000 0.0000
# 2 14.4058 103.9507 26.2763 0.0000 0.0000 0.0000
# 3 26.2765 26.2763 84.5981 0.0000 0.0000 0.0000
# 4 0.0000 0.0000 0.0000 12.0709 0.0000 0.0000
# 5 0.0000 0.0000 0.0000 0.0000 12.0715 0.0000
# 6 0.0000 0.0000 0.0000 0.0000 0.0000 37.9687
#
#
#
# Elastic Compliance Matrix: (Units=1/GPa)
#
#
# Indices 1 2 3 4 5 6 
#
# 1 0.010484 -0.000683 -0.003044 0.000000 0.000000 0.000000
# 2 -0.000683 0.010484 -0.003044 0.000000 0.000000 0.000000
# 3 -0.003044 -0.003044 0.013712 0.000000 0.000000 0.000000
# 4 0.000000 0.000000 0.000000 0.082844 0.000000 0.000000
# 5 0.000000 0.000000 0.000000 0.000000 0.082840 0.000000
# 6 0.000000 0.000000 0.000000 0.000000 0.000000 0.026337
#
#
# Mechanical properties :
#
#
# Convention : Reuss Voigt Hill
#
# Bulk Modulus (GPa) = 47.31146 47.37965 47.34555
# Shear Modulus (GPa) = 20.21922 27.45831 23.83877
#
# Velocity S-wave (km/s) = 3.20851 3.73902 3.48388
# Velocity P-wave (km/s) = 6.14934 6.53938 6.34736
#
# Compressibility (1/GPa) = 0.02113653
#
# Stress axis : x y z
#
# Youngs Moduli (GPa) = 95.38238 95.38217 72.93080
#
# Poissons Ratio (x) = 0.06519 0.22201
# Poissons Ratio (y) = 0.06519 0.22201
# Poissons Ratio (z) = 0.29036 0.29035
#
# Static dielectric constant tensor:
#      x y z
#    x 1.732960 0.000000 0.000000 
#    y 0.000000 1.732960 0.000000 
#    z 0.000000 0.000000 1.680310 
# 
# From -- ./inp_files/9572.got.cif
#   From: 2010.05.17/outbox.cif.g08.bks.cpg/sg119_5_cif.got.tgz:9572.got - 2010.05.20 11:21:29.
