data_PCOD9559447
_publ_section_title
;
Structure prediction by ZEFSAII (Michael W. Deem and Ramdas Pophale) SiO2 
 PCOD9559447
Probable space group: I -4 M 2
;
_chemical_formula_sum "Si O2"
_cell_formula_units_Z 96
_cell_length_a 17.712197
_cell_length_b 17.712197
_cell_length_c 18.167477
_cell_angle_alpha 90.000000
_cell_angle_beta 90.000000
_cell_angle_gamma 90.000000
_cell_volume 5699.535813
_symmetry_space_group_name_H-M "I -4 M 2"
_symmetry_group_IT_number 119
_symmetry_cell_setting 'tetragonal'
loop_
_space_group_symop_operation_xyz
x,y,z
y,-x,-z
-x,-y,z
-y,x,-z
y,x,-z
-y,-x,-z
-x,y,z
x,-y,z
1/2+x,1/2+y,1/2+z
1/2+y,1/2-x,1/2-z
1/2-x,1/2-y,1/2+z
1/2-y,1/2+x,1/2-z
1/2+y,1/2+x,1/2-z
1/2-y,1/2-x,1/2-z
1/2-x,1/2+y,1/2+z
1/2+x,1/2-y,1/2+z
loop_
_atom_site_type_symbol
_atom_site_label
_atom_site_fract_x
_atom_site_fract_y
_atom_site_fract_z
Si Si1 0.911329 0.816205 0.331234
Si Si2 0.165730 0.085443 0.432682
Si Si3 0.204341 0.809935 0.801940
Si Si4 0.411665 0.821829 0.312807
Si Si5 0.305105 0.788184 0.936867
Si Si6 0.589599 0.157700 0.055512
O O1 0.885030 0.897126 0.362269
O O2 0.883369 0.808610 0.247777
O O3 0.859824 0.763125 0.384709
O O4 0.000000 0.802566 0.340533
O O5 0.134236 0.134236 0.500000
O O6 0.254562 0.098504 0.416928
O O7 0.159247 0.000000 0.457365
O O8 0.257410 0.757410 0.750000
O O9 0.130526 0.758784 0.815773
O O10 0.246743 0.823352 0.878813
O O11 0.500000 0.813749 0.298053
O O12 0.370872 0.870872 0.250000
O O13 0.395821 0.868884 0.386988
O O14 0.256123 0.743878 0.000000
O O15 0.362800 0.842027 0.980227
O O16 0.500000 0.143428 0.047837
#
# Coordination Sequence:
#
# PCOD9559447 Si02
#       6
#    16  16  16  16  16  16
#     4  11  20  32  50  78 111 140 176 217 260 313
#     4  11  20  30  48  78 114 145 171 204 257 327
#     4   9  20  35  55  75 101 142 184 217 256 320
#     4  11  22  36  52  73 103 141 181 222 266 320
#     4  11  17  34  57  78 101 136 178 221 264 313
#     4  11  20  32  54  81 106 136 171 216 274 327
#
# _framework density 16.843478000000001
#
# number of rings (size 3 to 8) (size 9 to 14) (size 15 to 20)
#    0.000    1.333    5.000    3.500    0.000    4.333 
#    0.000    0.833    0.000    0.000    0.000    0.000 
#    0.000   16.333    0.000    0.000    0.000    0.000 
#
# Total GULP energy -267445.556248 kJ/mol
# GULP energy per Si atom -5571.782422 kJ/mol
# Density = 1.680514 g / cm^3
# Si number density = 16.843478 Si / 1000 Ang^3
#
#
#
# Elastic Constant Matrix: (Units=GPa)
#
#
# Indices 1 2 3 4 5 6 
#
# 1 34.9624 25.6535 27.5853 0.0000 0.0000 0.0000
# 2 25.6535 34.9621 27.5854 0.0000 0.0000 0.0000
# 3 27.5853 27.5854 102.1462 0.0000 0.0000 0.0000
# 4 0.0000 0.0000 0.0000 12.4651 0.0000 0.0000
# 5 0.0000 0.0000 0.0000 0.0000 12.4652 0.0000
# 6 0.0000 0.0000 0.0000 0.0000 0.0000 9.9657
#
#
#
# Elastic Compliance Matrix: (Units=1/GPa)
#
#
# Indices 1 2 3 4 5 6 
#
# 1 0.064650 -0.042776 -0.005907 0.000000 0.000000 0.000000
# 2 -0.042776 0.064650 -0.005907 0.000000 0.000000 0.000000
# 3 -0.005907 -0.005907 0.012980 0.000000 0.000000 0.000000
# 4 0.000000 0.000000 0.000000 0.080224 0.000000 0.000000
# 5 0.000000 0.000000 0.000000 0.000000 0.080223 0.000000
# 6 0.000000 0.000000 0.000000 0.000000 0.000000 0.100344
#
#
# Mechanical properties :
#
#
# Convention : Reuss Voigt Hill
#
# Bulk Modulus (GPa) = 30.21198 37.07990 33.64594
# Shear Modulus (GPa) = 9.55501 13.06231 11.30866
#
# Velocity S-wave (km/s) = 2.38435 2.78782 2.59394
# Velocity P-wave (km/s) = 5.05530 5.69428 5.38427
#
# Compressibility (1/GPa) = 0.03309945
#
# Stress axis : x y z
#
# Youngs Moduli (GPa) = 15.46796 15.46782 77.03890
#
# Poissons Ratio (x) = 0.66165 0.45507
# Poissons Ratio (y) = 0.66166 0.45510
# Poissons Ratio (z) = 0.09137 0.09137
#
# Static dielectric constant tensor:
#      x y z
#    x 1.584810 0.000000 0.000000 
#    y 0.000000 1.584810 0.000000 
#    z 0.000000 0.000000 1.600490 
# 
# From -- ./inp_files/6658.got.cif
#   From: 2010.05.17/outbox.cif.g08.bks.cpg/sg119_4_cif.got.tgz:6658.got - 2010.05.20 11:21:29.
