data_PCOD9559632
_publ_section_title
;
Structure prediction by ZEFSAII (Michael W. Deem and Ramdas Pophale) SiO2 
 PCOD9559632
Probable space group: I -4 C 2
;
_chemical_formula_sum "Si O2"
_cell_formula_units_Z 88
_cell_length_a 14.303826
_cell_length_b 14.303826
_cell_length_c 20.257594
_cell_angle_alpha 90.000000
_cell_angle_beta 90.000000
_cell_angle_gamma 90.000000
_cell_volume 4144.692352
_symmetry_space_group_name_H-M "I -4 C 2"
_symmetry_group_IT_number 120
_symmetry_cell_setting 'tetragonal'
loop_
_space_group_symop_operation_xyz
x,y,z
y,-x,-z
-x,-y,z
-y,x,-z
y,x,1/2-z
-y,-x,1/2-z
-x,y,1/2+z
x,-y,1/2+z
1/2+x,1/2+y,1/2+z
1/2+y,1/2-x,1/2-z
1/2-x,1/2-y,1/2+z
1/2-y,1/2+x,1/2-z
1/2+y,1/2+x,-z
1/2-y,1/2-x,-z
1/2-x,1/2+y,z
1/2+x,1/2-y,z
loop_
_atom_site_type_symbol
_atom_site_label
_atom_site_fract_x
_atom_site_fract_y
_atom_site_fract_z
Si Si1 0.249955 0.249955 0.250000
Si Si2 0.114725 0.399042 0.920860
Si Si3 0.586192 0.177058 0.561519
Si Si4 0.803200 0.793400 0.390135
Si Si5 0.068539 0.367164 0.776729
Si Si6 0.861243 0.954910 0.012686
O O1 0.203864 0.200955 0.312750
O O2 0.360257 0.217662 0.254564
O O3 0.127345 0.506302 0.898211
O O4 0.211713 0.342328 0.919692
O O5 0.058280 0.358037 0.857669
O O6 0.093138 0.406862 0.000000
O O7 0.613331 0.113331 0.500000
O O8 0.683477 0.200326 0.594543
O O9 0.541538 0.270559 0.532208
O O10 0.894574 0.835974 0.423597
O O11 0.121795 0.464036 0.753941
O O12 0.942577 0.899708 0.974193
#
# Coordination Sequence:
#
# PCOD9559632 Si02
#       6
#     8  16  16  16  16  16
#     4  10  22  42  64  86 124 172 208 258 312 378
#     4  11  22  38  63  93 125 156 210 269 308 367
#     4  10  21  35  58  88 124 154 198 249 317 366
#     4  10  21  39  59  88 122 161 204 251 310 377
#     4  10  23  43  66  93 127 172 218 257 321 394
#     4  10  19  34  59  86 117 157 196 251 312 365
#
# _framework density 21.231974999999998
#
# number of rings (size 3 to 8) (size 9 to 14) (size 15 to 20)
#    0.000    1.818    1.818    2.727    0.000    6.182 
#    3.273    0.000    0.000    2.727    0.000    0.000 
#    0.000    0.000    0.000    0.000    0.000    0.000 
#
# Total GULP energy -245289.306296 kJ/mol
# GULP energy per Si atom -5574.756961 kJ/mol
# Density = 2.118365 g / cm^3
# Si number density = 21.231975 Si / 1000 Ang^3
#
#
#
# Elastic Constant Matrix: (Units=GPa)
#
#
# Indices 1 2 3 4 5 6 
#
# 1 -0.6512 102.7818 8.2773 0.0000 0.0000 0.0000
# 2 102.7818 -0.6512 8.2773 0.0000 0.0000 0.0000
# 3 8.2773 8.2773 109.3476 0.0000 0.0000 0.0000
# 4 0.0000 0.0000 0.0000 13.8100 0.0000 0.0000
# 5 0.0000 0.0000 0.0000 0.0000 13.8100 0.0000
# 6 0.0000 0.0000 0.0000 0.0000 0.0000 27.3755
#
#
#
# Elastic Compliance Matrix: (Units=1/GPa)
#
#
# Indices 1 2 3 4 5 6 
#
# 1 0.000122 0.009791 -0.000750 0.000000 0.000000 0.000000
# 2 0.009791 0.000122 -0.000750 0.000000 0.000000 0.000000
# 3 -0.000750 -0.000750 0.009259 0.000000 0.000000 0.000000
# 4 0.000000 0.000000 0.000000 0.072411 0.000000 0.000000
# 5 0.000000 0.000000 0.000000 0.000000 0.072411 0.000000
# 6 0.000000 0.000000 0.000000 0.000000 0.000000 0.036529
#
#
# Mechanical properties :
#
#
# Convention : Reuss Voigt Hill
#
# Bulk Modulus (GPa) = 38.33878 38.52421 38.43149
# Shear Modulus (GPa) = 27.32693 10.24636 18.78665
#
# Velocity S-wave (km/s) = 3.59146 2.19918 2.97783
# Velocity P-wave (km/s) = 5.94091 4.96310 5.47388
#
# Compressibility (1/GPa) = 0.02608325
#
# Stress axis : x y z
#
# Youngs Moduli (GPa) = 8165.60170 8165.60810 108.00591
#
# Poissons Ratio (x) = -79.94585 0.08105
# Poissons Ratio (y) = -79.94579 0.08105
# Poissons Ratio (z) = 6.12736 6.12736
#
# Static dielectric constant tensor:
#      x y z
#    x 1.792160 0.000000 0.000000 
#    y 0.000000 1.792160 0.000000 
#    z 0.000000 0.000000 2.205940 
# 
# From -- ./inp_files/5272.got.cif
#   From: 2010.05.17/outbox.cif.g08.bks.cpg/sg120_3_cif.got.tgz:5272.got - 2010.05.20 11:28:13.
