data_PCOD9559897
_publ_section_title
;
Structure prediction by ZEFSAII (Michael W. Deem and Ramdas Pophale) SiO2 
 PCOD9559897
Probable space group: I -4 C 2
;
_chemical_formula_sum "Si O2"
_cell_formula_units_Z 92
_cell_length_a 15.247196
_cell_length_b 15.247196
_cell_length_c 17.286444
_cell_angle_alpha 90.000000
_cell_angle_beta 90.000000
_cell_angle_gamma 90.000000
_cell_volume 4018.700397
_symmetry_space_group_name_H-M "I -4 C 2"
_symmetry_group_IT_number 120
_symmetry_cell_setting 'tetragonal'
loop_
_space_group_symop_operation_xyz
x,y,z
y,-x,-z
-x,-y,z
-y,x,-z
y,x,1/2-z
-y,-x,1/2-z
-x,y,1/2+z
x,-y,1/2+z
1/2+x,1/2+y,1/2+z
1/2+y,1/2-x,1/2-z
1/2-x,1/2-y,1/2+z
1/2-y,1/2+x,1/2-z
1/2+y,1/2+x,-z
1/2-y,1/2-x,-z
1/2-x,1/2+y,z
1/2+x,1/2-y,z
loop_
_atom_site_type_symbol
_atom_site_label
_atom_site_fract_x
_atom_site_fract_y
_atom_site_fract_z
Si Si1 0.500000 0.000000 0.000000
Si Si2 0.762834 0.621704 0.690519
Si Si3 0.659148 0.575626 0.837388
Si Si4 0.327898 0.025588 0.597900
Si Si5 0.500000 0.500000 0.750000
Si Si6 0.000000 0.000000 0.000000
Si Si7 0.465651 0.684492 0.515974
Si Si8 0.276282 0.706126 0.583651
O O1 0.421828 0.979558 0.059945
O O2 0.738071 0.607835 0.781021
O O3 0.665934 0.606546 0.655427
O O4 0.824083 0.540283 0.670161
O O5 0.785697 0.715200 0.648509
O O6 0.589478 0.507045 0.800286
O O7 0.692259 0.538813 0.917314
O O8 0.282782 0.121563 0.608489
O O9 0.268826 0.973592 0.535453
O O10 0.903324 0.986498 0.032841
O O11 0.374142 0.677633 0.560561
O O12 0.239199 0.739199 0.500000
#
# Coordination Sequence:
#
# PCOD9559897 Si02
#       8
#     4  16  16  16   4   4  16  16
#     4  12  28  44  68  94 132 184 248 302 320 376
#     4  10  23  47  62  96 141 177 225 281 337 419
#     4  10  23  41  69  98 146 173 209 281 356 427
#     4  12  24  43  70  95 132 183 235 286 339 399
#     4   8  18  36  56  94 134 172 196 236 346 426
#     4  12  22  36  72 122 150 164 220 294 370 440
#     4  12  23  39  69 107 141 172 218 294 357 421
#     4  12  23  41  69  99 135 181 235 286 350 411
#
# _framework density 22.892973000000001
#
# number of rings (size 3 to 8) (size 9 to 14) (size 15 to 20)
#    0.000    1.043    4.348    3.652    4.870    0.000 
#    6.261    0.000    0.000    1.043    0.000    0.000 
#    0.000    0.000    0.000    0.000    0.000    0.000 
#
# Total GULP energy -256071.682798 kJ/mol
# GULP energy per Si atom -5566.775713 kJ/mol
# Density = 2.284087 g / cm^3
# Si number density = 22.892973 Si / 1000 Ang^3
#
#
#
# Elastic Constant Matrix: (Units=GPa)
#
#
# Indices 1 2 3 4 5 6 
#
# 1 18.9222 77.5886 12.2661 0.0000 0.0000 0.0000
# 2 77.5886 18.9222 12.2661 0.0000 0.0000 0.0000
# 3 12.2661 12.2661 62.3027 0.0000 0.0000 0.0000
# 4 0.0000 0.0000 0.0000 21.7947 0.0000 0.0000
# 5 0.0000 0.0000 0.0000 0.0000 21.7947 0.0000
# 6 0.0000 0.0000 0.0000 0.0000 0.0000 34.1783
#
#
#
# Elastic Compliance Matrix: (Units=1/GPa)
#
#
# Indices 1 2 3 4 5 6 
#
# 1 -0.003069 0.013976 -0.002147 0.000000 0.000000 0.000000
# 2 0.013976 -0.003069 -0.002147 0.000000 0.000000 0.000000
# 3 -0.002147 -0.002147 0.016896 0.000000 0.000000 0.000000
# 4 0.000000 0.000000 0.000000 0.045883 0.000000 0.000000
# 5 0.000000 0.000000 0.000000 0.000000 0.045883 0.000000
# 6 0.000000 0.000000 0.000000 0.000000 0.000000 0.029258
#
#
# Mechanical properties :
#
#
# Convention : Reuss Voigt Hill
#
# Bulk Modulus (GPa) = 33.19914 33.82098 33.51006
# Shear Modulus (GPa) = 40.83001 15.42198 28.12599
#
# Velocity S-wave (km/s) = 4.22775 2.59830 3.50892
# Velocity P-wave (km/s) = 6.19397 4.87926 5.57550
#
# Compressibility (1/GPa) = 0.03012126
#
# Stress axis : x y z
#
# Youngs Moduli (GPa) = -325.83181 -325.83171 59.18481
#
# Poissons Ratio (x) = 4.55397 0.12710
# Poissons Ratio (y) = 4.55397 0.12710
# Poissons Ratio (z) = -0.69970 -0.69970
#
# Static dielectric constant tensor:
#      x y z
#    x 1.891580 0.000000 0.000000 
#    y 0.000000 1.891580 0.000000 
#    z 0.000000 0.000000 2.605960 
# 
# From -- ./inp_files/5419.got.cif
#   From: 2010.05.17/outbox.cif.g08.bks.cpg/sg120_3_cif.got.tgz:5419.got - 2010.05.20 11:28:13.
