data_PCOD9559425
_publ_section_title
;
Structure prediction by ZEFSAII (Michael W. Deem and Ramdas Pophale) SiO2 
 PCOD9559425
Probable space group: I -4 M 2
;
_chemical_formula_sum "Si O2"
_cell_formula_units_Z 34
_cell_length_a 7.762625
_cell_length_b 7.762625
_cell_length_c 28.299169
_cell_angle_alpha 90.000000
_cell_angle_beta 90.000000
_cell_angle_gamma 90.000000
_cell_volume 1705.261142
_symmetry_space_group_name_H-M "I -4 M 2"
_symmetry_group_IT_number 119
_symmetry_cell_setting 'tetragonal'
loop_
_space_group_symop_operation_xyz
x,y,z
y,-x,-z
-x,-y,z
-y,x,-z
y,x,-z
-y,-x,-z
-x,y,z
x,-y,z
1/2+x,1/2+y,1/2+z
1/2+y,1/2-x,1/2-z
1/2-x,1/2-y,1/2+z
1/2-y,1/2+x,1/2-z
1/2+y,1/2+x,1/2-z
1/2-y,1/2-x,1/2-z
1/2-x,1/2+y,1/2+z
1/2+x,1/2-y,1/2+z
loop_
_atom_site_type_symbol
_atom_site_label
_atom_site_fract_x
_atom_site_fract_y
_atom_site_fract_z
Si Si1 0.000000 0.500000 0.250000
Si Si2 0.209208 0.000000 0.828065
Si Si3 0.294259 0.705742 0.500000
Si Si4 0.188115 0.709536 0.603020
O O1 0.000000 0.671400 0.217718
O O2 0.255376 0.836115 0.860556
O O3 0.000000 0.000000 0.819465
O O4 0.500000 0.733813 0.502996
O O5 0.218141 0.770340 0.549315
O O6 0.192982 0.500000 0.600231
O O7 0.000000 0.763399 0.619486
#
# Coordination Sequence:
#
# PCOD9559425 Si02
#       4
#     2   8   8  16
#     4  12  28  44  68  96 108 164 220 260 324 350
#     4  10  22  44  64  86 122 156 206 262 306 363
#     4   9  14  26  50  81 122 168 202 235 291 360
#     4   9  17  32  57  88 122 163 200 242 301 367
#
# _framework density 19.938296999999999
#
# number of rings (size 3 to 8) (size 9 to 14) (size 15 to 20)
#    0.000    2.588    2.353    0.000    0.000    1.882 
#    4.235    0.000    0.000    0.000    0.000    0.000 
#    0.000    0.000    0.000    0.000    0.000    0.000 
#
# Total GULP energy -94873.818074 kJ/mol
# GULP energy per Si atom -5580.812828 kJ/mol
# Density = 1.989292 g / cm^3
# Si number density = 19.938297 Si / 1000 Ang^3
#
#
#
# Elastic Constant Matrix: (Units=GPa)
#
#
# Indices 1 2 3 4 5 6 
#
# 1 79.4801 61.9662 71.6129 0.0000 0.0000 0.0000
# 2 61.9662 79.4789 71.6127 0.0000 0.0000 0.0000
# 3 71.6129 71.6127 158.1901 0.0000 0.0000 0.0000
# 4 0.0000 0.0000 0.0000 -32.9967 0.0000 0.0000
# 5 0.0000 0.0000 0.0000 0.0000 -32.9978 0.0000
# 6 0.0000 0.0000 0.0000 0.0000 0.0000 2.2194
#
#
#
# Elastic Compliance Matrix: (Units=1/GPa)
#
#
# Indices 1 2 3 4 5 6 
#
# 1 0.035076 -0.022023 -0.005909 0.000000 0.000000 0.000000
# 2 -0.022023 0.035077 -0.005909 0.000000 0.000000 0.000000
# 3 -0.005909 -0.005909 0.011672 0.000000 0.000000 0.000000
# 4 0.000000 0.000000 0.000000 -0.030306 0.000000 0.000000
# 5 0.000000 0.000000 0.000000 0.000000 -0.030305 0.000000
# 6 0.000000 0.000000 0.000000 0.000000 0.000000 0.450565
#
#
# Mechanical properties :
#
#
# Convention : Reuss Voigt Hill
#
# Bulk Modulus (GPa) = 70.71360 80.83696 75.77528
# Shear Modulus (GPa) = 9.18821 -5.29118 1.94852
#
# Velocity S-wave (km/s) = 2.14903 -1.63081 0.98964
# Velocity P-wave (km/s) = 6.45763 6.08979 6.27640
#
# Compressibility (1/GPa) = 0.01414155
#
# Stress axis : x y z
#
# Youngs Moduli (GPa) = 28.50942 28.50883 85.67621
#
# Poissons Ratio (x) = 0.62785 0.50628
# Poissons Ratio (y) = 0.62786 0.50630
# Poissons Ratio (z) = 0.16847 0.16847
#
# Static dielectric constant tensor:
#      x y z
#    x 1.721460 0.000000 0.000000 
#    y 0.000000 1.721470 0.000000 
#    z 0.000000 0.000000 1.662770 
# 
# From -- ./inp_files/7021.got.cif
#   From: 2010.05.17/outbox.cif.g08.bks.cpg/sg119_4_cif.got.tgz:7021.got - 2010.05.20 11:21:29.
