data_PCOD9559759
_publ_section_title
;
Structure prediction by ZEFSAII (Michael W. Deem and Ramdas Pophale) SiO2 
 PCOD9559759
Probable space group: I -4 C 2
;
_chemical_formula_sum "Si O2"
_cell_formula_units_Z 96
_cell_length_a 25.744397
_cell_length_b 25.744397
_cell_length_c 8.884233
_cell_angle_alpha 90.000000
_cell_angle_beta 90.000000
_cell_angle_gamma 90.000000
_cell_volume 5888.238437
_symmetry_space_group_name_H-M "I -4 C 2"
_symmetry_group_IT_number 120
_symmetry_cell_setting 'tetragonal'
loop_
_space_group_symop_operation_xyz
x,y,z
y,-x,-z
-x,-y,z
-y,x,-z
y,x,1/2-z
-y,-x,1/2-z
-x,y,1/2+z
x,-y,1/2+z
1/2+x,1/2+y,1/2+z
1/2+y,1/2-x,1/2-z
1/2-x,1/2-y,1/2+z
1/2-y,1/2+x,1/2-z
1/2+y,1/2+x,-z
1/2-y,1/2-x,-z
1/2-x,1/2+y,z
1/2+x,1/2-y,z
loop_
_atom_site_type_symbol
_atom_site_label
_atom_site_fract_x
_atom_site_fract_y
_atom_site_fract_z
Si Si1 0.166124 0.745464 0.926468
Si Si2 0.447454 0.273890 0.902533
Si Si3 0.555527 0.722601 0.538642
Si Si4 0.056169 0.109402 0.375264
Si Si5 0.888749 0.941377 0.624715
Si Si6 0.170103 0.750607 0.564495
O O1 0.104586 0.745355 0.957362
O O2 0.169978 0.744919 0.745191
O O3 0.196096 0.798648 0.973631
O O4 0.198597 0.698597 0.000000
O O5 0.450038 0.277082 0.720141
O O6 0.439767 0.334050 0.948410
O O7 0.502322 0.255029 0.968389
O O8 0.560681 0.665430 0.464431
O O9 0.611008 0.749096 0.508025
O O10 0.099742 0.099742 0.250000
O O11 0.066621 0.067375 0.502172
O O12 0.998817 0.106085 0.306944
O O13 0.897931 0.897931 0.750000
O O14 0.204067 0.704067 0.500000
#
# Coordination Sequence:
#
# PCOD9559759 Si02
#       6
#    16  16  16  16  16  16
#     4   9  18  33  53  75  98 131 164 204 255 297
#     4  10  21  34  53  69  98 130 162 204 250 304
#     4  10  21  36  50  72  97 129 165 202 252 302
#     4  11  21  35  47  61  88 122 163 211 259 294
#     4  11  23  33  46  66  86 121 170 212 258 301
#     4   9  18  34  51  75 102 127 163 209 252 296
#
# _framework density 16.303687
#
# number of rings (size 3 to 8) (size 9 to 14) (size 15 to 20)
#    0.000    2.000    1.667    2.000    9.333    3.333 
#    6.000    0.000    0.000    0.000    0.000    0.000 
#    0.000    0.667    0.000    7.333    0.000    5.333 
#
# Total GULP energy -267512.877060 kJ/mol
# GULP energy per Si atom -5573.184939 kJ/mol
# Density = 1.626658 g / cm^3
# Si number density = 16.303687 Si / 1000 Ang^3
#
#
#
# Elastic Constant Matrix: (Units=GPa)
#
#
# Indices 1 2 3 4 5 6 
#
# 1 96.0429 50.0929 25.4558 0.0000 0.0000 0.0000
# 2 50.0929 96.0429 25.4558 0.0000 0.0000 0.0000
# 3 25.4558 25.4558 29.2704 0.0000 0.0000 0.0000
# 4 0.0000 0.0000 0.0000 23.9278 0.0000 0.0000
# 5 0.0000 0.0000 0.0000 0.0000 23.9278 0.0000
# 6 0.0000 0.0000 0.0000 0.0000 0.0000 21.5705
#
#
#
# Elastic Compliance Matrix: (Units=1/GPa)
#
#
# Indices 1 2 3 4 5 6 
#
# 1 0.015790 -0.005973 -0.008538 0.000000 0.000000 0.000000
# 2 -0.005973 0.015790 -0.008538 0.000000 0.000000 0.000000
# 3 -0.008538 -0.008538 0.049015 0.000000 0.000000 0.000000
# 4 0.000000 0.000000 0.000000 0.041792 0.000000 0.000000
# 5 0.000000 0.000000 0.000000 0.000000 0.041792 0.000000
# 6 0.000000 0.000000 0.000000 0.000000 0.000000 0.046360
#
#
# Mechanical properties :
#
#
# Convention : Reuss Voigt Hill
#
# Bulk Modulus (GPa) = 28.98743 47.04058 38.01401
# Shear Modulus (GPa) = 18.64723 21.90866 20.27794
#
# Velocity S-wave (km/s) = 3.38560 3.66974 3.53053
# Velocity P-wave (km/s) = 5.75337 6.84627 6.32348
#
# Compressibility (1/GPa) = 0.03449771
#
# Stress axis : x y z
#
# Youngs Moduli (GPa) = 63.33063 63.33063 20.40195
#
# Poissons Ratio (x) = 0.37825 0.17419
# Poissons Ratio (y) = 0.37825 0.17419
# Poissons Ratio (z) = 0.54072 0.54072
#
# Static dielectric constant tensor:
#      x y z
#    x 1.548840 0.000000 0.000000 
#    y 0.000000 1.548840 0.000000 
#    z 0.000000 0.000000 1.598560 
# 
# From -- ./inp_files/1510.got.cif
#   From: 2010.05.17/outbox.cif.g08.bks.cpg/sg120_1_cif.got.tgz:1510.got - 2010.05.20 11:28:13.
