data_PCOD9559409
_publ_section_title
;
Structure prediction by ZEFSAII (Michael W. Deem and Ramdas Pophale) SiO2 
 PCOD9559409
Probable space group: I -4 M 2
;
_chemical_formula_sum "Si O2"
_cell_formula_units_Z 112
_cell_length_a 15.597866
_cell_length_b 15.597866
_cell_length_c 21.548199
_cell_angle_alpha 90.000000
_cell_angle_beta 90.000000
_cell_angle_gamma 90.000000
_cell_volume 5242.535110
_symmetry_space_group_name_H-M "I -4 M 2"
_symmetry_group_IT_number 119
_symmetry_cell_setting 'tetragonal'
loop_
_space_group_symop_operation_xyz
x,y,z
y,-x,-z
-x,-y,z
-y,x,-z
y,x,-z
-y,-x,-z
-x,y,z
x,-y,z
1/2+x,1/2+y,1/2+z
1/2+y,1/2-x,1/2-z
1/2-x,1/2-y,1/2+z
1/2-y,1/2+x,1/2-z
1/2+y,1/2+x,1/2-z
1/2-y,1/2-x,1/2-z
1/2-x,1/2+y,1/2+z
1/2+x,1/2-y,1/2+z
loop_
_atom_site_type_symbol
_atom_site_label
_atom_site_fract_x
_atom_site_fract_y
_atom_site_fract_z
Si Si1 0.252983 0.905959 0.152894
Si Si2 0.594786 0.222094 0.132325
Si Si3 0.258998 0.404053 0.010574
Si Si4 0.860278 0.907039 0.935233
Si Si5 0.092025 0.722159 0.223308
Si Si6 0.328910 0.903408 0.921488
Si Si7 0.140341 0.904461 0.271562
O O1 0.326418 0.836367 0.150517
O O2 0.171321 0.885065 0.109014
O O3 0.218171 0.908474 0.222646
O O4 0.285447 0.000000 0.134762
O O5 0.500000 0.195068 0.155052
O O6 0.608704 0.317231 0.160861
O O7 0.592216 0.219889 0.058301
O O8 0.291518 0.500000 0.026412
O O9 0.181087 0.380034 0.057598
O O10 0.333407 0.333407 0.000000
O O11 0.761522 0.898490 0.956758
O O12 0.870963 0.000000 0.903159
O O13 0.908270 0.908270 0.000000
O O14 0.172710 0.672710 0.250000
O O15 0.098844 0.704705 0.149717
O O16 0.092967 0.820071 0.246813
O O17 0.000000 0.684466 0.243580
O O18 0.366884 0.000000 0.931265
O O19 0.099673 0.000000 0.269725
#
# Coordination Sequence:
#
# PCOD9559409 Si02
#       7
#    16  16  16  16  16  16  16
#     4  11  21  34  57  87 122 165 208 262 324 386
#     4  10  22  41  62  88 121 162 219 277 330 391
#     4  11  25  43  67  96 130 175 222 281 338 389
#     4  11  22  36  55  85 127 173 218 265 318 391
#     4  11  24  42  68  99 135 180 225 278 338 405
#     4  10  22  42  67  97 132 173 224 274 332 408
#     4  10  22  40  65  95 128 170 218 271 332 400
#
# _framework density 21.363710000000001
#
# number of rings (size 3 to 8) (size 9 to 14) (size 15 to 20)
#    0.000    1.429    1.429    3.857    2.000    4.429 
#    0.000    4.286    0.000    5.143    0.000    0.000 
#    0.000    0.000    0.000    0.000    0.000    0.000 
#
# Total GULP energy -312213.581495 kJ/mol
# GULP energy per Si atom -5575.242527 kJ/mol
# Density = 2.131509 g / cm^3
# Si number density = 21.363710 Si / 1000 Ang^3
#
#
#
# Elastic Constant Matrix: (Units=GPa)
#
#
# Indices 1 2 3 4 5 6 
#
# 1 109.9782 67.8797 13.9907 0.0000 0.0000 0.0000
# 2 67.8797 109.9782 13.9907 0.0000 0.0000 0.0000
# 3 13.9907 13.9907 50.8473 0.0000 0.0000 0.0000
# 4 0.0000 0.0000 0.0000 19.9067 0.0000 0.0000
# 5 0.0000 0.0000 0.0000 0.0000 19.9067 0.0000
# 6 0.0000 0.0000 0.0000 0.0000 0.0000 -11.8178
#
#
#
# Elastic Compliance Matrix: (Units=1/GPa)
#
#
# Indices 1 2 3 4 5 6 
#
# 1 0.014815 -0.008938 -0.001617 0.000000 0.000000 0.000000
# 2 -0.008938 0.014815 -0.001617 0.000000 0.000000 0.000000
# 3 -0.001617 -0.001617 0.020557 0.000000 0.000000 0.000000
# 4 0.000000 0.000000 0.000000 0.050234 0.000000 0.000000
# 5 0.000000 0.000000 0.000000 0.000000 0.050234 0.000000
# 6 0.000000 0.000000 0.000000 0.000000 0.000000 -0.084618
#
#
# Mechanical properties :
#
#
# Convention : Reuss Voigt Hill
#
# Bulk Modulus (GPa) = 38.69637 51.39175 45.04406
# Shear Modulus (GPa) = 50.50662 17.26196 33.88429
#
# Velocity S-wave (km/s) = 4.86751 2.84562 3.98687
# Velocity P-wave (km/s) = 7.05285 5.90801 6.50566
#
# Compressibility (1/GPa) = 0.02584222
#
# Stress axis : x y z
#
# Youngs Moduli (GPa) = 67.49755 67.49755 48.64621
#
# Poissons Ratio (x) = 0.60333 0.07866
# Poissons Ratio (y) = 0.60333 0.07866
# Poissons Ratio (z) = 0.10915 0.10915
#
# Static dielectric constant tensor:
#      x y z
#    x 1.796050 0.000000 0.000000 
#    y 0.000000 1.796050 0.000000 
#    z 0.000000 0.000000 1.814400 
# 
# From -- ./inp_files/8812.got.cif
#   From: 2010.05.17/outbox.cif.g08.bks.cpg/sg119_5_cif.got.tgz:8812.got - 2010.05.20 11:21:29.
