data_PCOD9559032
_publ_section_title
;
Structure prediction by ZEFSAII (Michael W. Deem and Ramdas Pophale) SiO2 
 PCOD9559032
Probable space group: I -4 M 2
;
_chemical_formula_sum "Si O2"
_cell_formula_units_Z 128
_cell_length_a 22.188512
_cell_length_b 22.188512
_cell_length_c 15.763982
_cell_angle_alpha 90.000000
_cell_angle_beta 90.000000
_cell_angle_gamma 90.000000
_cell_volume 7761.082279
_symmetry_space_group_name_H-M "I -4 M 2"
_symmetry_group_IT_number 119
_symmetry_cell_setting 'tetragonal'
loop_
_space_group_symop_operation_xyz
x,y,z
y,-x,-z
-x,-y,z
-y,x,-z
y,x,-z
-y,-x,-z
-x,y,z
x,-y,z
1/2+x,1/2+y,1/2+z
1/2+y,1/2-x,1/2-z
1/2-x,1/2-y,1/2+z
1/2-y,1/2+x,1/2-z
1/2+y,1/2+x,1/2-z
1/2-y,1/2-x,1/2-z
1/2-x,1/2+y,1/2+z
1/2+x,1/2-y,1/2+z
loop_
_atom_site_type_symbol
_atom_site_label
_atom_site_fract_x
_atom_site_fract_y
_atom_site_fract_z
Si Si1 0.193160 0.714416 0.514714
Si Si2 0.260712 0.871621 0.863078
Si Si3 0.892121 0.430102 0.655905
Si Si4 0.065419 0.248167 0.850033
Si Si5 0.432264 0.668049 0.518959
Si Si6 0.151696 0.430849 0.998724
Si Si7 0.263645 0.689684 0.688974
Si Si8 0.387729 0.070638 0.841341
O O1 0.217668 0.782333 0.500000
O O2 0.215736 0.670530 0.439884
O O3 0.121731 0.701754 0.516418
O O4 0.232279 0.694370 0.596552
O O5 0.207663 0.912665 0.900540
O O6 0.230459 0.822738 0.801429
O O7 0.317712 0.909219 0.831751
O O8 0.910196 0.500000 0.651079
O O9 0.906192 0.406192 0.750000
O O10 0.820046 0.427120 0.640006
O O11 0.923930 0.391802 0.582870
O O12 0.120238 0.222555 0.796456
O O13 0.000000 0.237730 0.811249
O O14 0.067319 0.214623 0.940177
O O15 0.383234 0.616767 0.500000
O O16 0.500000 0.644027 0.528377
O O17 0.173239 0.500000 0.004705
O O18 0.112369 0.415149 0.083450
O O19 0.212746 0.712746 0.750000
O O20 0.418378 0.081623 0.750000
O O21 0.391670 0.000000 0.864574
#
# Coordination Sequence:
#
# PCOD9559032 Si02
#       8
#    16  16  16  16  16  16  16  16
#     4   9  18  33  50  68  97 124 159 203 252 298
#     4  10  18  34  52  75  96 129 167 214 256 310
#     4  11  22  35  49  72 107 144 178 208 244 297
#     4  10  19  31  48  69  98 134 170 209 249 297
#     4  11  19  32  52  74 103 136 170 212 260 314
#     4  11  22  35  52  74 100 134 174 210 253 306
#     4  11  18  30  51  73  98 126 166 209 257 299
#     4  11  23  38  54  74 100 132 174 219 262 307
#
# _framework density 16.492546000000001
#
# number of rings (size 3 to 8) (size 9 to 14) (size 15 to 20)
#    0.000    1.500    3.750    3.375    0.000    3.375 
#    0.000    0.000    0.000    0.000    0.000    0.000 
#    0.000    0.250    0.000    0.000    0.000    0.125 
#
# Total GULP energy -356786.929297 kJ/mol
# GULP energy per Si atom -5574.795770 kJ/mol
# Density = 1.645501 g / cm^3
# Si number density = 16.492546 Si / 1000 Ang^3
#
#
#
# Elastic Constant Matrix: (Units=GPa)
#
#
# Indices 1 2 3 4 5 6 
#
# 1 -173.0304 314.1222 11.0474 0.0000 0.0000 0.0000
# 2 314.1222 -173.0890 11.0332 0.0000 0.0000 0.0000
# 3 11.0474 11.0332 41.6654 0.0000 0.0000 0.0000
# 4 0.0000 0.0000 0.0000 9.9679 0.0000 0.0000
# 5 0.0000 0.0000 0.0000 0.0000 9.9678 0.0000
# 6 0.0000 0.0000 0.0000 0.0000 0.0000 14.3815
#
#
#
# Elastic Compliance Matrix: (Units=1/GPa)
#
#
# Indices 1 2 3 4 5 6 
#
# 1 0.002672 0.004724 -0.001959 0.000000 0.000000 0.000000
# 2 0.004724 0.002671 -0.001960 0.000000 0.000000 0.000000
# 3 -0.001959 -0.001960 0.025039 0.000000 0.000000 0.000000
# 4 0.000000 0.000000 0.000000 0.100322 0.000000 0.000000
# 5 0.000000 0.000000 0.000000 0.000000 0.100323 0.000000
# 6 0.000000 0.000000 0.000000 0.000000 0.000000 0.069534
#
#
# Mechanical properties :
#
#
# Convention : Reuss Voigt Hill
#
# Bulk Modulus (GPa) = 31.25773 40.88350 36.07062
# Shear Modulus (GPa) = 16.14904 -35.84703 -9.84900
#
# Velocity S-wave (km/s) = 3.13257 -4.66717 -2.44637
# Velocity P-wave (km/s) = 5.66372 2.04949 3.73345
#
# Compressibility (1/GPa) = 0.03199208
#
# Stress axis : x y z
#
# Youngs Moduli (GPa) = 374.25392 374.36239 39.93723
#
# Poissons Ratio (x) = -1.76857 0.07826
# Poissons Ratio (y) = -1.76806 0.07828
# Poissons Ratio (z) = 0.73334 0.73373
#
# Static dielectric constant tensor:
#      x y z
#    x 1.597560 0.000000 0.000000 
#    y 0.000000 1.597570 0.000000 
#    z 0.000000 0.000000 1.605900 
# 
# From -- ./inp_files/6940.got.cif
#   From: 2010.05.17/outbox.cif.g08.bks.cpg/sg119_4_cif.got.tgz:6940.got - 2010.05.20 11:21:29.
