data_PCOD9559942
_publ_section_title
;
Structure prediction by ZEFSAII (Michael W. Deem and Ramdas Pophale) SiO2 
 PCOD9559942
Probable space group: I -4 C 2
;
_chemical_formula_sum "Si O2"
_cell_formula_units_Z 64
_cell_length_a 11.367724
_cell_length_b 11.367724
_cell_length_c 20.457410
_cell_angle_alpha 90.000000
_cell_angle_beta 90.000000
_cell_angle_gamma 90.000000
_cell_volume 2643.611854
_symmetry_space_group_name_H-M "I -4 C 2"
_symmetry_group_IT_number 120
_symmetry_cell_setting 'tetragonal'
loop_
_space_group_symop_operation_xyz
x,y,z
y,-x,-z
-x,-y,z
-y,x,-z
y,x,1/2-z
-y,-x,1/2-z
-x,y,1/2+z
x,-y,1/2+z
1/2+x,1/2+y,1/2+z
1/2+y,1/2-x,1/2-z
1/2-x,1/2-y,1/2+z
1/2-y,1/2+x,1/2-z
1/2+y,1/2+x,-z
1/2-y,1/2-x,-z
1/2-x,1/2+y,z
1/2+x,1/2-y,z
loop_
_atom_site_type_symbol
_atom_site_label
_atom_site_fract_x
_atom_site_fract_y
_atom_site_fract_z
Si Si1 0.619222 0.574948 0.108029
Si Si2 0.045795 0.221410 0.270558
Si Si3 0.986058 0.657912 0.459750
Si Si4 0.094407 0.327771 0.654558
O O1 0.500000 0.500000 0.105094
O O2 0.688743 0.552822 0.176397
O O3 0.711068 0.530194 0.053517
O O4 0.589847 0.712207 0.109868
O O5 0.096689 0.096689 0.250000
O O6 0.154151 0.284415 0.306687
O O7 0.001622 0.302772 0.211010
O O8 0.866767 0.633234 0.500000
O O9 0.944101 0.602502 0.390419
O O10 0.085967 0.585967 0.500000
#
# Coordination Sequence:
#
# PCOD9559942 Si02
#       4
#    16  16  16  16
#     4  11  23  47  79 112 152 198 256 324 398 464
#     4  11  22  40  73 112 155 189 238 312 395 483
#     4  10  26  52  75 100 149 208 267 326 364 449
#     4  11  25  42  71 114 149 201 250 315 393 463
#
# _framework density 24.209301
#
# number of rings (size 3 to 8) (size 9 to 14) (size 15 to 20)
#    0.000    1.250    2.500    2.250    0.000   13.500 
#    4.500    0.000    0.000    0.000    0.000    0.000 
#    0.000    0.000    0.000    0.000    0.000    0.000 
#
# Total GULP energy -178481.011844 kJ/mol
# GULP energy per Si atom -5577.531620 kJ/mol
# Density = 2.415420 g / cm^3
# Si number density = 24.209301 Si / 1000 Ang^3
#
#
#
# Elastic Constant Matrix: (Units=GPa)
#
#
# Indices 1 2 3 4 5 6 
#
# 1 262.5532 -86.5798 36.2538 0.0000 0.0000 0.0000
# 2 -86.5798 262.5531 36.2531 0.0000 0.0000 0.0000
# 3 36.2538 36.2531 90.9779 0.0000 0.0000 0.0000
# 4 0.0000 0.0000 0.0000 34.0107 0.0000 0.0000
# 5 0.0000 0.0000 0.0000 0.0000 34.0112 0.0000
# 6 0.0000 0.0000 0.0000 0.0000 0.0000 36.3120
#
#
#
# Elastic Compliance Matrix: (Units=1/GPa)
#
#
# Indices 1 2 3 4 5 6 
#
# 1 0.004832 0.001967 -0.002709 0.000000 0.000000 0.000000
# 2 0.001967 0.004832 -0.002709 0.000000 0.000000 0.000000
# 3 -0.002709 -0.002709 0.013151 0.000000 0.000000 0.000000
# 4 0.000000 0.000000 0.000000 0.029403 0.000000 0.000000
# 5 0.000000 0.000000 0.000000 0.000000 0.029402 0.000000
# 6 0.000000 0.000000 0.000000 0.000000 0.000000 0.027539
#
#
# Mechanical properties :
#
#
# Convention : Reuss Voigt Hill
#
# Bulk Modulus (GPa) = 62.84685 65.32648 64.08667
# Shear Modulus (GPa) = 41.19827 62.87723 52.03775
#
# Velocity S-wave (km/s) = 4.12971 5.10184 4.64129
# Velocity P-wave (km/s) = 6.98251 7.85796 7.43314
#
# Compressibility (1/GPa) = 0.01591170
#
# Stress axis : x y z
#
# Youngs Moduli (GPa) = 206.96966 206.96994 76.04022
#
# Poissons Ratio (x) = -0.40719 0.20602
# Poissons Ratio (y) = -0.40719 0.20602
# Poissons Ratio (z) = 0.56075 0.56074
#
# Static dielectric constant tensor:
#      x y z
#    x 1.915470 0.000000 0.000000 
#    y 0.000000 1.915470 0.000000 
#    z 0.000000 0.000000 1.900160 
# 
# From -- ./inp_files/5013.got.cif
#   From: 2010.05.17/outbox.cif.g08.bks.cpg/sg120_3_cif.got.tgz:5013.got - 2010.05.20 11:28:13.
