data_PCOD9559668
_publ_section_title
;
Structure prediction by ZEFSAII (Michael W. Deem and Ramdas Pophale) SiO2 
 PCOD9559668
Probable space group: I -4 C 2
;
_chemical_formula_sum "Si O2"
_cell_formula_units_Z 60
_cell_length_a 16.275662
_cell_length_b 16.275662
_cell_length_c 9.685712
_cell_angle_alpha 90.000000
_cell_angle_beta 90.000000
_cell_angle_gamma 90.000000
_cell_volume 2565.717733
_symmetry_space_group_name_H-M "I -4 C 2"
_symmetry_group_IT_number 120
_symmetry_cell_setting 'tetragonal'
loop_
_space_group_symop_operation_xyz
x,y,z
y,-x,-z
-x,-y,z
-y,x,-z
y,x,1/2-z
-y,-x,1/2-z
-x,y,1/2+z
x,-y,1/2+z
1/2+x,1/2+y,1/2+z
1/2+y,1/2-x,1/2-z
1/2-x,1/2-y,1/2+z
1/2-y,1/2+x,1/2-z
1/2+y,1/2+x,-z
1/2-y,1/2-x,-z
1/2-x,1/2+y,z
1/2+x,1/2-y,z
loop_
_atom_site_type_symbol
_atom_site_label
_atom_site_fract_x
_atom_site_fract_y
_atom_site_fract_z
Si Si1 0.175803 0.324198 0.000000
Si Si2 0.747539 0.002314 0.426283
Si Si3 0.770585 0.770585 0.250000
Si Si4 0.500000 0.000000 0.750000
Si Si5 0.410568 0.910568 0.500000
Si Si6 0.942179 0.831151 0.329082
O O1 0.199312 0.417393 0.961286
O O2 0.200723 0.272838 0.864037
O O3 0.778921 0.998926 0.272109
O O4 0.680879 0.071070 0.453908
O O5 0.826514 0.016123 0.523507
O O6 0.856306 0.780081 0.333978
O O7 0.565133 0.036866 0.638764
O O8 0.913724 0.913724 0.250000
#
# Coordination Sequence:
#
# PCOD9559668 Si02
#       6
#     8  16   8   4   8  16
#     4  10  20  38  62  97 127 175 217 272 330 392
#     4  11  22  39  65  95 135 174 221 274 337 404
#     4   8  20  38  58  90 130 166 232 264 316 396
#     4  10  20  34  48  82 140 170 200 262 308 434
#     4  11  22  35  58  91 131 180 211 261 340 398
#     4   9  22  43  61  94 131 168 225 276 323 398
#
# _framework density 23.385270999999999
#
# number of rings (size 3 to 8) (size 9 to 14) (size 15 to 20)
#    0.800    1.333    0.000    3.200    0.000    9.600 
#    0.000    0.000    0.000    2.400    0.000    0.000 
#    0.000    0.000    0.000    0.000    0.000    0.000 
#
# Total GULP energy -167330.431950 kJ/mol
# GULP energy per Si atom -5577.681065 kJ/mol
# Density = 2.333205 g / cm^3
# Si number density = 23.385271 Si / 1000 Ang^3
#
#
#
# Elastic Constant Matrix: (Units=GPa)
#
#
# Indices 1 2 3 4 5 6 
#
# 1 7.4732 34.2593 4.9236 0.0000 0.0000 0.0000
# 2 34.2593 7.4744 4.9241 0.0000 0.0000 0.0000
# 3 4.9236 4.9241 44.5808 0.0000 0.0000 0.0000
# 4 0.0000 0.0000 0.0000 24.1797 0.0000 0.0000
# 5 0.0000 0.0000 0.0000 0.0000 24.1793 0.0000
# 6 0.0000 0.0000 0.0000 0.0000 0.0000 36.3688
#
#
#
# Elastic Compliance Matrix: (Units=1/GPa)
#
#
# Indices 1 2 3 4 5 6 
#
# 1 -0.006366 0.030968 -0.002718 0.000000 0.000000 0.000000
# 2 0.030968 -0.006365 -0.002717 0.000000 0.000000 0.000000
# 3 -0.002718 -0.002717 0.023031 0.000000 0.000000 0.000000
# 4 0.000000 0.000000 0.000000 0.041357 0.000000 0.000000
# 5 0.000000 0.000000 0.000000 0.000000 0.041358 0.000000
# 6 0.000000 0.000000 0.000000 0.000000 0.000000 0.027496
#
#
# Mechanical properties :
#
#
# Convention : Reuss Voigt Hill
#
# Bulk Modulus (GPa) = 16.29512 16.41582 16.35547
# Shear Modulus (GPa) = 55.61715 17.97365 36.79540
#
# Velocity S-wave (km/s) = 4.88207 2.77535 3.97097
# Velocity P-wave (km/s) = 6.22597 4.15994 5.29470
#
# Compressibility (1/GPa) = 0.06136805
#
# Stress axis : x y z
#
# Youngs Moduli (GPa) = -157.08863 -157.11332 43.41894
#
# Poissons Ratio (x) = 4.86554 0.11799
# Poissons Ratio (y) = 4.86478 0.11798
# Poissons Ratio (z) = -0.42689 -0.42691
#
# Static dielectric constant tensor:
#      x y z
#    x 1.922700 0.000000 0.000000 
#    y 0.000000 1.922700 0.000000 
#    z 0.000000 0.000000 1.861640 
# 
# From -- ./inp_files/1131.got.cif
#   From: 2010.05.17/outbox.cif.g08.bks.cpg/sg120_1_cif.got.tgz:1131.got - 2010.05.20 11:28:13.
