data_PCOD9559312
_publ_section_title
;
Structure prediction by ZEFSAII (Michael W. Deem and Ramdas Pophale) SiO2 
 PCOD9559312
Probable space group: I -4 M 2
;
_chemical_formula_sum "Si O2"
_cell_formula_units_Z 96
_cell_length_a 22.626388
_cell_length_b 22.626388
_cell_length_c 10.200405
_cell_angle_alpha 90.000000
_cell_angle_beta 90.000000
_cell_angle_gamma 90.000000
_cell_volume 5222.132367
_symmetry_space_group_name_H-M "I -4 M 2"
_symmetry_group_IT_number 119
_symmetry_cell_setting 'tetragonal'
loop_
_space_group_symop_operation_xyz
x,y,z
y,-x,-z
-x,-y,z
-y,x,-z
y,x,-z
-y,-x,-z
-x,y,z
x,-y,z
1/2+x,1/2+y,1/2+z
1/2+y,1/2-x,1/2-z
1/2-x,1/2-y,1/2+z
1/2-y,1/2+x,1/2-z
1/2+y,1/2+x,1/2-z
1/2-y,1/2-x,1/2-z
1/2-x,1/2+y,1/2+z
1/2+x,1/2-y,1/2+z
loop_
_atom_site_type_symbol
_atom_site_label
_atom_site_fract_x
_atom_site_fract_y
_atom_site_fract_z
Si Si1 0.270999 0.369454 0.004809
Si Si2 0.769838 0.931301 0.968293
Si Si3 0.428863 0.931109 0.396889
Si Si4 0.070237 0.817962 0.742339
Si Si5 0.852059 0.932214 0.716155
Si Si6 0.348241 0.861777 0.903224
O O1 0.304327 0.412953 0.106615
O O2 0.205764 0.354394 0.051121
O O3 0.310461 0.310461 0.000000
O O4 0.274536 0.399803 0.862832
O O5 0.796822 0.916406 0.110070
O O6 0.748821 0.000000 0.973310
O O7 0.819648 0.928474 0.856480
O O8 0.716608 0.888417 0.929028
O O9 0.500000 0.927311 0.402528
O O10 0.411205 0.911205 0.250000
O O11 0.399701 0.892740 0.508764
O O12 0.412668 0.000000 0.411242
O O13 0.096923 0.882976 0.714956
O O14 0.000000 0.818383 0.725715
O O15 0.871254 0.000000 0.694783
O O16 0.363921 0.863921 0.750000
#
# Coordination Sequence:
#
# PCOD9559312 Si02
#       6
#    16  16  16  16  16  16
#     4  10  23  41  58  85 120 158 197 246 296 346
#     4  10  22  39  59  87 123 156 196 250 299 347
#     4   9  21  41  62  88 123 156 192 245 297 344
#     4  10  22  39  61  90 121 157 200 244 297 359
#     4  10  20  39  63  87 122 159 194 246 303 349
#     4  12  24  40  61  90 115 159 207 242 292 360
#
# _framework density 18.383293999999999
#
# number of rings (size 3 to 8) (size 9 to 14) (size 15 to 20)
#    0.000    1.833    1.667    2.000    2.333    4.333 
#    0.000    0.833    0.000    6.000    0.000    0.000 
#    0.000    0.000    0.000    0.000    0.000    0.000 
#
# Total GULP energy -268110.465200 kJ/mol
# GULP energy per Si atom -5585.634692 kJ/mol
# Density = 1.834145 g / cm^3
# Si number density = 18.383294 Si / 1000 Ang^3
#
#
#
# Elastic Constant Matrix: (Units=GPa)
#
#
# Indices 1 2 3 4 5 6 
#
# 1 50.1067 30.6474 19.0392 0.0000 0.0000 0.0000
# 2 30.6474 50.1067 19.0392 0.0000 0.0000 0.0000
# 3 19.0392 19.0392 92.9752 0.0000 0.0000 0.0000
# 4 0.0000 0.0000 0.0000 27.6155 0.0000 0.0000
# 5 0.0000 0.0000 0.0000 0.0000 27.6155 0.0000
# 6 0.0000 0.0000 0.0000 0.0000 0.0000 11.4841
#
#
#
# Elastic Compliance Matrix: (Units=1/GPa)
#
#
# Indices 1 2 3 4 5 6 
#
# 1 0.032548 -0.018841 -0.002807 0.000000 0.000000 0.000000
# 2 -0.018841 0.032548 -0.002807 0.000000 0.000000 0.000000
# 3 -0.002807 -0.002807 0.011905 0.000000 0.000000 0.000000
# 4 0.000000 0.000000 0.000000 0.036212 0.000000 0.000000
# 5 0.000000 0.000000 0.000000 0.000000 0.036212 0.000000
# 6 0.000000 0.000000 0.000000 0.000000 0.000000 0.087077
#
#
# Mechanical properties :
#
#
# Convention : Reuss Voigt Hill
#
# Bulk Modulus (GPa) = 35.59816 36.73779 36.16797
# Shear Modulus (GPa) = 16.96209 21.64054 19.30132
#
# Velocity S-wave (km/s) = 3.04088 3.43474 3.24379
# Velocity P-wave (km/s) = 5.63344 5.97977 5.80919
#
# Compressibility (1/GPa) = 0.02809134
#
# Stress axis : x y z
#
# Youngs Moduli (GPa) = 30.72381 30.72381 83.99763
#
# Poissons Ratio (x) = 0.57888 0.23577
# Poissons Ratio (y) = 0.57888 0.23577
# Poissons Ratio (z) = 0.08624 0.08624
#
# Static dielectric constant tensor:
#      x y z
#    x 1.610500 0.000000 0.000000 
#    y 0.000000 1.610500 0.000000 
#    z 0.000000 0.000000 1.625740 
# 
# From -- ./inp_files/2659.got.cif
#   From: 2010.05.17/outbox.cif.g08.bks.cpg/sg119_2_cif.got.tgz:2659.got - 2010.05.20 11:21:29.
