data_PCOD9559326
_publ_section_title
;
Structure prediction by ZEFSAII (Michael W. Deem and Ramdas Pophale) SiO2 
 PCOD9559326
Probable space group: I -4 M 2
;
_chemical_formula_sum "Si O2"
_cell_formula_units_Z 112
_cell_length_a 14.367907
_cell_length_b 14.367907
_cell_length_c 26.945337
_cell_angle_alpha 90.000000
_cell_angle_beta 90.000000
_cell_angle_gamma 90.000000
_cell_volume 5562.507840
_symmetry_space_group_name_H-M "I -4 M 2"
_symmetry_group_IT_number 119
_symmetry_cell_setting 'tetragonal'
loop_
_space_group_symop_operation_xyz
x,y,z
y,-x,-z
-x,-y,z
-y,x,-z
y,x,-z
-y,-x,-z
-x,y,z
x,-y,z
1/2+x,1/2+y,1/2+z
1/2+y,1/2-x,1/2-z
1/2-x,1/2-y,1/2+z
1/2-y,1/2+x,1/2-z
1/2+y,1/2+x,1/2-z
1/2-y,1/2-x,1/2-z
1/2-x,1/2+y,1/2+z
1/2+x,1/2-y,1/2+z
loop_
_atom_site_type_symbol
_atom_site_label
_atom_site_fract_x
_atom_site_fract_y
_atom_site_fract_z
Si Si1 0.757117 0.108001 0.104854
Si Si2 0.392962 0.156706 0.492292
Si Si3 0.110307 0.110362 0.737424
Si Si4 0.111024 0.222703 0.164678
Si Si5 0.204590 0.901301 0.461198
Si Si6 0.754436 0.109677 0.354993
Si Si7 0.606658 0.112447 0.895831
O O1 0.744315 0.114853 0.045110
O O2 0.852618 0.151938 0.123114
O O3 0.679091 0.168584 0.134631
O O4 0.748421 0.000000 0.117873
O O5 0.500000 0.124038 0.488368
O O6 0.315510 0.093302 0.466975
O O7 0.370839 0.155985 0.550828
O O8 0.178511 0.137060 0.782573
O O9 0.127219 0.181196 0.692338
O O10 0.000000 0.118668 0.751405
O O11 0.124774 0.000000 0.725327
O O12 0.146384 0.324959 0.147878
O O13 0.000000 0.226769 0.164232
O O14 0.174037 0.825964 0.500000
O O15 0.183457 0.878413 0.404689
O O16 0.162051 0.000000 0.474812
O O17 0.726228 0.000000 0.353886
O O18 0.500000 0.148029 0.895797
O O19 0.600401 0.000000 0.891333
#
# Coordination Sequence:
#
# PCOD9559326 Si02
#       7
#    16  16  16  16  16  16  16
#     4  10  21  36  58  87 120 156 194 248 303 357
#     4   9  19  35  55  81 114 153 194 232 282 349
#     4   9  18  36  62  87 115 157 206 253 305 367
#     4  10  21  36  58  88 118 154 201 248 296 357
#     4  10  21  34  53  82 116 153 190 234 287 345
#     4   9  20  38  58  84 116 152 200 252 300 359
#     4   9  18  33  55  85 119 155 195 237 283 341
#
# _framework density 20.134803999999999
#
# number of rings (size 3 to 8) (size 9 to 14) (size 15 to 20)
#    0.000    2.571    0.000    0.857    4.000    3.857 
#    0.000    6.429    0.000    1.714    0.000   10.000 
#    0.000    2.286    0.000    0.000    0.000    0.000 
#
# Total GULP energy -311803.377068 kJ/mol
# GULP energy per Si atom -5567.917448 kJ/mol
# Density = 2.008898 g / cm^3
# Si number density = 20.134804 Si / 1000 Ang^3
#
#
#
# Elastic Constant Matrix: (Units=GPa)
#
#
# Indices 1 2 3 4 5 6 
#
# 1 50.6968 21.0158 52.8231 0.0000 0.0000 0.0000
# 2 21.0158 50.6975 52.8255 0.0000 0.0000 0.0000
# 3 52.8231 52.8255 123.5651 0.0000 0.0000 0.0000
# 4 0.0000 0.0000 0.0000 19.1649 0.0000 0.0000
# 5 0.0000 0.0000 0.0000 0.0000 19.1648 0.0000
# 6 0.0000 0.0000 0.0000 0.0000 0.0000 15.6356
#
#
#
# Elastic Compliance Matrix: (Units=1/GPa)
#
#
# Indices 1 2 3 4 5 6 
#
# 1 0.035679 0.001988 -0.016102 0.000000 0.000000 0.000000
# 2 0.001988 0.035680 -0.016104 0.000000 0.000000 0.000000
# 3 -0.016102 -0.016104 0.021861 0.000000 0.000000 0.000000
# 4 0.000000 0.000000 0.000000 0.052179 0.000000 0.000000
# 5 0.000000 0.000000 0.000000 0.000000 0.052179 0.000000
# 6 0.000000 0.000000 0.000000 0.000000 0.000000 0.063957
#
#
# Mechanical properties :
#
#
# Convention : Reuss Voigt Hill
#
# Bulk Modulus (GPa) = 30.50240 53.14313 41.82277
# Shear Modulus (GPa) = 15.01963 17.34605 16.18284
#
# Velocity S-wave (km/s) = 2.73418 2.93831 2.83808
# Velocity P-wave (km/s) = 5.01494 6.16137 5.61748
#
# Compressibility (1/GPa) = 0.03278430
#
# Stress axis : x y z
#
# Youngs Moduli (GPa) = 28.02802 28.02674 45.74364
#
# Poissons Ratio (x) = -0.05572 0.73658
# Poissons Ratio (y) = -0.05572 0.73664
# Poissons Ratio (z) = 0.45131 0.45133
#
# Static dielectric constant tensor:
#      x y z
#    x 1.755580 0.000000 0.000000 
#    y 0.000000 1.755580 0.000000 
#    z 0.000000 0.000000 1.715290 
# 
# From -- ./inp_files/8840.got.cif
#   From: 2010.05.17/outbox.cif.g08.bks.cpg/sg119_5_cif.got.tgz:8840.got - 2010.05.20 11:21:29.
