data_PCOD9559245
_publ_section_title
;
Structure prediction by ZEFSAII (Michael W. Deem and Ramdas Pophale) SiO2 
 PCOD9559245
Probable space group: I -4 M 2
;
_chemical_formula_sum "Si O2"
_cell_formula_units_Z 56
_cell_length_a 23.105866
_cell_length_b 23.105866
_cell_length_c 5.259218
_cell_angle_alpha 90.000000
_cell_angle_beta 90.000000
_cell_angle_gamma 90.000000
_cell_volume 2807.796794
_symmetry_space_group_name_H-M "I -4 M 2"
_symmetry_group_IT_number 119
_symmetry_cell_setting 'tetragonal'
loop_
_space_group_symop_operation_xyz
x,y,z
y,-x,-z
-x,-y,z
-y,x,-z
y,x,-z
-y,-x,-z
-x,y,z
x,-y,z
1/2+x,1/2+y,1/2+z
1/2+y,1/2-x,1/2-z
1/2-x,1/2-y,1/2+z
1/2-y,1/2+x,1/2-z
1/2+y,1/2+x,1/2-z
1/2-y,1/2-x,1/2-z
1/2-x,1/2+y,1/2+z
1/2+x,1/2-y,1/2+z
loop_
_atom_site_type_symbol
_atom_site_label
_atom_site_fract_x
_atom_site_fract_y
_atom_site_fract_z
Si Si1 0.791548 0.291548 0.250000
Si Si2 0.253986 0.434917 0.507226
Si Si3 0.817654 0.596966 0.997079
Si Si4 0.821698 0.821698 0.000000
Si Si5 0.566100 0.933901 0.750000
O O1 0.813202 0.333349 0.024039
O O2 0.802931 0.224206 0.214889
O O3 0.276274 0.500000 0.509548
O O4 0.220263 0.424466 0.240822
O O5 0.304377 0.387539 0.546642
O O6 0.209539 0.426330 0.739811
O O7 0.883290 0.577227 0.045084
O O8 0.500000 0.927534 0.655240
#
# Coordination Sequence:
#
# PCOD9559245 Si02
#       5
#     8  16  16   8   8
#     4   9  18  33  56  81 108 138 178 233 276 313
#     4  11  22  38  58  80 110 144 179 225 281 342
#     4  10  22  38  56  78 109 148 188 230 281 329
#     4  10  20  34  58  87 112 138 180 225 276 328
#     4  10  20  35  54  78 112 156 204 244 276 323
#
# _framework density 19.944464
#
# number of rings (size 3 to 8) (size 9 to 14) (size 15 to 20)
#    0.000    1.857    0.000    4.286    0.000   12.571 
#    0.000    4.286    0.000    9.000    0.000    0.000 
#    0.000    9.143    0.000    0.000    0.000    1.143 
#
# Total GULP energy -156425.275745 kJ/mol
# GULP energy per Si atom -5586.616991 kJ/mol
# Density = 1.989907 g / cm^3
# Si number density = 19.944464 Si / 1000 Ang^3
#
#
#
# Elastic Constant Matrix: (Units=GPa)
#
#
# Indices 1 2 3 4 5 6 
#
# 1 222.8978 16.0842 32.8919 0.0000 0.0000 0.0000
# 2 16.0842 222.8938 32.8914 0.0000 0.0000 0.0000
# 3 32.8919 32.8914 101.8951 0.0000 0.0000 0.0000
# 4 0.0000 0.0000 0.0000 11.3357 0.0000 0.0000
# 5 0.0000 0.0000 0.0000 0.0000 11.3361 0.0000
# 6 0.0000 0.0000 0.0000 0.0000 0.0000 33.4442
#
#
#
# Elastic Compliance Matrix: (Units=1/GPa)
#
#
# Indices 1 2 3 4 5 6 
#
# 1 0.004714 -0.000121 -0.001482 0.000000 0.000000 0.000000
# 2 -0.000121 0.004714 -0.001482 0.000000 0.000000 0.000000
# 3 -0.001482 -0.001482 0.010771 0.000000 0.000000 0.000000
# 4 0.000000 0.000000 0.000000 0.088217 0.000000 0.000000
# 5 0.000000 0.000000 0.000000 0.000000 0.088214 0.000000
# 6 0.000000 0.000000 0.000000 0.000000 0.000000 0.029901
#
#
# Mechanical properties :
#
#
# Convention : Reuss Voigt Hill
#
# Bulk Modulus (GPa) = 71.29471 79.04685 75.17078
# Shear Modulus (GPa) = 21.06341 42.27780 31.67061
#
# Velocity S-wave (km/s) = 3.25330 4.60910 3.98922
# Velocity P-wave (km/s) = 7.06655 8.24891 7.68052
#
# Compressibility (1/GPa) = 0.01402629
#
# Stress axis : x y z
#
# Youngs Moduli (GPa) = 212.13943 212.13572 92.84113
#
# Poissons Ratio (x) = 0.02575 0.13763
# Poissons Ratio (y) = 0.02575 0.13763
# Poissons Ratio (z) = 0.31449 0.31448
#
# Static dielectric constant tensor:
#      x y z
#    x 1.736360 0.000000 0.000000 
#    y 0.000000 1.736360 0.000000 
#    z 0.000000 0.000000 1.651370 
# 
# From -- ./inp_files/715.got.cif
#   From: 2010.05.17/outbox.cif.g08.bks.cpg/sg119_1_cif.got.tgz:715.got - 2010.05.20 11:21:29.
