data_PCOD9559797
_publ_section_title
;
Structure prediction by ZEFSAII (Michael W. Deem and Ramdas Pophale) SiO2 
 PCOD9559797
Probable space group: I -4 C 2
;
_chemical_formula_sum "Si O2"
_cell_formula_units_Z 108
_cell_length_a 14.025488
_cell_length_b 14.025488
_cell_length_c 25.404269
_cell_angle_alpha 90.000000
_cell_angle_beta 90.000000
_cell_angle_gamma 90.000000
_cell_volume 4997.383340
_symmetry_space_group_name_H-M "I -4 C 2"
_symmetry_group_IT_number 120
_symmetry_cell_setting 'tetragonal'
loop_
_space_group_symop_operation_xyz
x,y,z
y,-x,-z
-x,-y,z
-y,x,-z
y,x,1/2-z
-y,-x,1/2-z
-x,y,1/2+z
x,-y,1/2+z
1/2+x,1/2+y,1/2+z
1/2+y,1/2-x,1/2-z
1/2-x,1/2-y,1/2+z
1/2-y,1/2+x,1/2-z
1/2+y,1/2+x,-z
1/2-y,1/2-x,-z
1/2-x,1/2+y,z
1/2+x,1/2-y,z
loop_
_atom_site_type_symbol
_atom_site_label
_atom_site_fract_x
_atom_site_fract_y
_atom_site_fract_z
Si Si1 0.500000 0.500000 0.500000
Si Si2 0.218439 0.289058 0.612468
Si Si3 0.348377 0.410160 0.928569
Si Si4 0.316127 0.103733 0.635913
Si Si5 0.677508 0.177508 0.500000
Si Si6 0.193535 0.546554 0.516775
Si Si7 0.990333 0.340977 0.258074
Si Si8 0.012228 0.715939 0.147084
O O1 0.431233 0.443212 0.539290
O O2 0.313250 0.352375 0.605346
O O3 0.251851 0.197528 0.645192
O O4 0.201118 0.262570 0.551444
O O5 0.116218 0.324413 0.632059
O O6 0.308549 0.490230 0.888375
O O7 0.268512 0.409964 0.974945
O O8 0.291334 0.067079 0.578175
O O9 0.304106 0.030955 0.683732
O O10 0.426500 0.141262 0.634996
O O11 0.566562 0.193056 0.489236
O O12 0.093311 0.593311 0.500000
O O13 0.904070 0.414267 0.244788
O O14 0.992539 0.267721 0.209664
#
# Coordination Sequence:
#
# PCOD9559797 Si02
#       8
#     4  16  16  16   8  16  16  16
#     4  12  28  44  60  92 134 176 240 256 332 406
#     4  11  21  39  59  84 128 165 215 260 317 384
#     4  11  24  41  63  90 126 176 215 278 315 401
#     4  10  22  38  64  90 127 170 212 262 327 393
#     4  12  23  32  56  92 130 167 194 262 330 394
#     4  12  21  37  59  95 126 157 205 263 338 400
#     4   9  20  39  62  94 129 160 203 268 332 398
#     4  10  21  40  63  92 125 166 213 270 328 392
#
# _framework density 21.611311000000001
#
# number of rings (size 3 to 8) (size 9 to 14) (size 15 to 20)
#    0.000    1.333    4.444    2.000    4.148    0.593 
#    2.667    0.000    0.000    0.000    0.000    1.037 
#    0.000    0.000    0.000    0.000    0.000    0.000 
#
# Total GULP energy -301548.956850 kJ/mol
# GULP energy per Si atom -5584.239942 kJ/mol
# Density = 2.156212 g / cm^3
# Si number density = 21.611311 Si / 1000 Ang^3
#
#
#
# Elastic Constant Matrix: (Units=GPa)
#
#
# Indices 1 2 3 4 5 6 
#
# 1 65.9179 7.9767 9.8439 0.0000 0.0000 0.0000
# 2 7.9767 65.9179 9.8439 0.0000 0.0000 0.0000
# 3 9.8439 9.8439 119.9189 0.0000 0.0000 0.0000
# 4 0.0000 0.0000 0.0000 22.7243 0.0000 0.0000
# 5 0.0000 0.0000 0.0000 0.0000 22.7243 0.0000
# 6 0.0000 0.0000 0.0000 0.0000 0.0000 8.6267
#
#
#
# Elastic Compliance Matrix: (Units=1/GPa)
#
#
# Indices 1 2 3 4 5 6 
#
# 1 0.015547 -0.001712 -0.001136 0.000000 0.000000 0.000000
# 2 -0.001712 0.015547 -0.001136 0.000000 0.000000 0.000000
# 3 -0.001136 -0.001136 0.008525 0.000000 0.000000 0.000000
# 4 0.000000 0.000000 0.000000 0.044006 0.000000 0.000000
# 5 0.000000 0.000000 0.000000 0.000000 0.044006 0.000000
# 6 0.000000 0.000000 0.000000 0.000000 0.000000 0.115919
#
#
# Mechanical properties :
#
#
# Convention : Reuss Voigt Hill
#
# Bulk Modulus (GPa) = 31.59226 34.12041 32.85634
# Shear Modulus (GPa) = 19.07902 25.75440 22.41671
#
# Velocity S-wave (km/s) = 2.97446 3.45586 3.22416
# Velocity P-wave (km/s) = 5.14263 5.63440 5.39412
#
# Compressibility (1/GPa) = 0.03165332
#
# Stress axis : x y z
#
# Youngs Moduli (GPa) = 64.32060 64.32060 117.29618
#
# Poissons Ratio (x) = 0.11010 0.13322
# Poissons Ratio (y) = 0.11010 0.13322
# Poissons Ratio (z) = 0.07305 0.07305
#
# Static dielectric constant tensor:
#      x y z
#    x 1.822420 0.000000 0.000000 
#    y 0.000000 1.822420 0.000000 
#    z 0.000000 0.000000 1.781260 
# 
# From -- ./inp_files/6320.got.cif
#   From: 2010.05.17/outbox.cif.g08.bks.cpg/sg120_4_cif.got.tgz:6320.got - 2010.05.20 11:28:13.
