data_PCOD9559148
_publ_section_title
;
Structure prediction by ZEFSAII (Michael W. Deem and Ramdas Pophale) SiO2 
 PCOD9559148
Probable space group: I -4 M 2
;
_chemical_formula_sum "Si O2"
_cell_formula_units_Z 64
_cell_length_a 22.199158
_cell_length_b 22.199158
_cell_length_c 7.538335
_cell_angle_alpha 90.000000
_cell_angle_beta 90.000000
_cell_angle_gamma 90.000000
_cell_volume 3714.911208
_symmetry_space_group_name_H-M "I -4 M 2"
_symmetry_group_IT_number 119
_symmetry_cell_setting 'tetragonal'
loop_
_space_group_symop_operation_xyz
x,y,z
y,-x,-z
-x,-y,z
-y,x,-z
y,x,-z
-y,-x,-z
-x,y,z
x,-y,z
1/2+x,1/2+y,1/2+z
1/2+y,1/2-x,1/2-z
1/2-x,1/2-y,1/2+z
1/2-y,1/2+x,1/2-z
1/2+y,1/2+x,1/2-z
1/2-y,1/2-x,1/2-z
1/2-x,1/2+y,1/2+z
1/2+x,1/2-y,1/2+z
loop_
_atom_site_type_symbol
_atom_site_label
_atom_site_fract_x
_atom_site_fract_y
_atom_site_fract_z
Si Si1 0.346877 0.754169 0.542505
Si Si2 0.928455 0.198906 0.761074
Si Si3 0.249036 0.650222 0.040585
Si Si4 0.934417 0.929766 0.285263
O O1 0.296216 0.703785 0.500000
O O2 0.402843 0.737860 0.421290
O O3 0.361760 0.751773 0.750173
O O4 0.314551 0.817611 0.497121
O O5 0.904328 0.229982 0.581837
O O6 0.904456 0.129529 0.777588
O O7 0.000000 0.195498 0.757855
O O8 0.298881 0.701120 0.000000
O O9 0.930306 0.930306 0.500000
O O10 0.000000 0.902558 0.236034
O O11 0.936564 0.000000 0.229224
#
# Coordination Sequence:
#
# PCOD9559148 Si02
#       4
#    16  16  16  16
#     4  10  20  34  55  76  96 131 179 221 258 314
#     4  11  21  32  51  78 106 133 171 225 273 314
#     4  10  19  35  57  73  96 135 176 218 263 312
#     4   8  15  28  44  62  91 138 183 211 246 295
#
# _framework density 17.227868999999998
#
# number of rings (size 3 to 8) (size 9 to 14) (size 15 to 20)
#    0.000    2.250    2.500    2.250    0.000    1.000 
#    0.000    1.250    0.000    0.000    0.000    7.000 
#    0.000    8.000    0.000   22.000    0.000    0.000 
#
# Total GULP energy -178505.576570 kJ/mol
# GULP energy per Si atom -5578.299268 kJ/mol
# Density = 1.718866 g / cm^3
# Si number density = 17.227869 Si / 1000 Ang^3
#
#
#
# Elastic Constant Matrix: (Units=GPa)
#
#
# Indices 1 2 3 4 5 6 
#
# 1 79.0626 48.3141 40.7763 0.0000 0.0000 0.0000
# 2 48.3141 79.0634 40.7764 0.0000 0.0000 0.0000
# 3 40.7763 40.7764 84.7958 0.0000 0.0000 0.0000
# 4 0.0000 0.0000 0.0000 16.3004 0.0000 0.0000
# 5 0.0000 0.0000 0.0000 0.0000 16.3007 0.0000
# 6 0.0000 0.0000 0.0000 0.0000 0.0000 24.9299
#
#
#
# Elastic Compliance Matrix: (Units=1/GPa)
#
#
# Indices 1 2 3 4 5 6 
#
# 1 0.021932 -0.010589 -0.005455 0.000000 0.000000 0.000000
# 2 -0.010589 0.021932 -0.005455 0.000000 0.000000 0.000000
# 3 -0.005455 -0.005455 0.017039 0.000000 0.000000 0.000000
# 4 0.000000 0.000000 0.000000 0.061348 0.000000 0.000000
# 5 0.000000 0.000000 0.000000 0.000000 0.061347 0.000000
# 6 0.000000 0.000000 0.000000 0.000000 0.000000 0.040113
#
#
# Mechanical properties :
#
#
# Convention : Reuss Voigt Hill
#
# Bulk Modulus (GPa) = 55.84520 55.85061 55.84790
# Shear Modulus (GPa) = 18.33672 19.04319 18.68995
#
# Velocity S-wave (km/s) = 3.26600 3.32832 3.29731
# Velocity P-wave (km/s) = 6.83435 6.87455 6.85448
#
# Compressibility (1/GPa) = 0.01790664
#
# Stress axis : x y z
#
# Youngs Moduli (GPa) = 45.59475 45.59530 58.68884
#
# Poissons Ratio (x) = 0.48282 0.32013
# Poissons Ratio (y) = 0.48281 0.32012
# Poissons Ratio (z) = 0.24870 0.24870
#
# Static dielectric constant tensor:
#      x y z
#    x 1.598390 0.000000 0.000000 
#    y 0.000000 1.598390 0.000000 
#    z 0.000000 0.000000 1.620660 
# 
# From -- ./inp_files/2255.got.cif
#   From: 2010.05.17/outbox.cif.g08.bks.cpg/sg119_2_cif.got.tgz:2255.got - 2010.05.20 11:21:29.
