data_PCOD9559615
_publ_section_title
;
Structure prediction by ZEFSAII (Michael W. Deem and Ramdas Pophale) SiO2 
 PCOD9559615
Probable space group: I -4 C 2
;
_chemical_formula_sum "Si O2"
_cell_formula_units_Z 64
_cell_length_a 26.577623
_cell_length_b 26.577623
_cell_length_c 5.488979
_cell_angle_alpha 90.000000
_cell_angle_beta 90.000000
_cell_angle_gamma 90.000000
_cell_volume 3877.250340
_symmetry_space_group_name_H-M "I -4 C 2"
_symmetry_group_IT_number 120
_symmetry_cell_setting 'tetragonal'
loop_
_space_group_symop_operation_xyz
x,y,z
y,-x,-z
-x,-y,z
-y,x,-z
y,x,1/2-z
-y,-x,1/2-z
-x,y,1/2+z
x,-y,1/2+z
1/2+x,1/2+y,1/2+z
1/2+y,1/2-x,1/2-z
1/2-x,1/2-y,1/2+z
1/2-y,1/2+x,1/2-z
1/2+y,1/2+x,-z
1/2-y,1/2-x,-z
1/2-x,1/2+y,z
1/2+x,1/2-y,z
loop_
_atom_site_type_symbol
_atom_site_label
_atom_site_fract_x
_atom_site_fract_y
_atom_site_fract_z
Si Si1 0.209608 0.634977 0.647525
Si Si2 0.273030 0.726971 0.750000
Si Si3 0.898465 0.516241 0.651718
Si Si4 0.877833 0.377833 0.000000
Si Si5 0.284991 0.976292 0.069012
O O1 0.171676 0.671676 0.500000
O O2 0.257073 0.669199 0.715726
O O3 0.222500 0.582771 0.519864
O O4 0.176311 0.618560 0.878857
O O5 0.254394 0.754394 0.500000
O O6 0.923589 0.506222 0.389988
O O7 0.885242 0.575076 0.680031
O O8 0.844936 0.512360 0.104191
O O9 0.265182 0.993268 0.334633
#
# Coordination Sequence:
#
# PCOD9559615 Si02
#       5
#    16   8  16   8  16
#     4  11  21  32  51  71  97 126 155 196 244 283
#     4  10  22  34  46  72 102 126 158 185 236 307
#     4  10  20  32  44  69  81 106 152 189 230 281
#     4  12  20  30  56  63  88 120 144 202 238 263
#     4  10  19  33  47  69  89 113 160 200 228 282
#
# _framework density 16.506542
#
# number of rings (size 3 to 8) (size 9 to 14) (size 15 to 20)
#    0.000    1.500    6.250    3.000    0.000    0.000 
#    0.000    0.000    0.000    2.250    0.000    0.000 
#    0.000    0.000    0.000    0.000    0.000    3.750 
#
# Total GULP energy -178471.183927 kJ/mol
# GULP energy per Si atom -5577.224498 kJ/mol
# Density = 1.646897 g / cm^3
# Si number density = 16.506542 Si / 1000 Ang^3
#
#
#
# Elastic Constant Matrix: (Units=GPa)
#
#
# Indices 1 2 3 4 5 6 
#
# 1 56.6640 49.2842 9.4719 0.0000 0.0000 0.0000
# 2 49.2842 56.6614 9.4717 0.0000 0.0000 0.0000
# 3 9.4719 9.4717 105.4474 0.0000 0.0000 0.0000
# 4 0.0000 0.0000 0.0000 17.3138 0.0000 0.0000
# 5 0.0000 0.0000 0.0000 0.0000 17.3142 0.0000
# 6 0.0000 0.0000 0.0000 0.0000 0.0000 21.8895
#
#
#
# Elastic Compliance Matrix: (Units=1/GPa)
#
#
# Indices 1 2 3 4 5 6 
#
# 1 0.072559 -0.062968 -0.000862 0.000000 0.000000 0.000000
# 2 -0.062968 0.072563 -0.000862 0.000000 0.000000 0.000000
# 3 -0.000862 -0.000862 0.009638 0.000000 0.000000 0.000000
# 4 0.000000 0.000000 0.000000 0.057757 0.000000 0.000000
# 5 0.000000 0.000000 0.000000 0.000000 0.057756 0.000000
# 6 0.000000 0.000000 0.000000 0.000000 0.000000 0.045684
#
#
# Mechanical properties :
#
#
# Convention : Reuss Voigt Hill
#
# Bulk Modulus (GPa) = 39.40568 39.46981 39.43775
# Shear Modulus (GPa) = 11.01809 21.33985 16.17897
#
# Velocity S-wave (km/s) = 2.58640 3.59947 3.13414
# Velocity P-wave (km/s) = 5.73096 6.42172 6.08615
#
# Compressibility (1/GPa) = 0.02537705
#
# Stress axis : x y z
#
# Youngs Moduli (GPa) = 13.78183 13.78122 103.75383
#
# Poissons Ratio (x) = 0.86778 0.08940
# Poissons Ratio (y) = 0.86782 0.08940
# Poissons Ratio (z) = 0.01188 0.01187
#
# Static dielectric constant tensor:
#      x y z
#    x 1.566460 0.000000 0.000000 
#    y 0.000000 1.566470 0.000000 
#    z 0.000000 0.000000 1.721000 
# 
# From -- ./inp_files/390.got.cif
#   From: 2010.05.17/outbox.cif.g08.bks.cpg/sg120_1_cif.got.tgz:390.got - 2010.05.20 11:28:13.
