data_PCOD9559200
_publ_section_title
;
Structure prediction by ZEFSAII (Michael W. Deem and Ramdas Pophale) SiO2 
 PCOD9559200
Probable space group: I -4 M 2
;
_chemical_formula_sum "Si O2"
_cell_formula_units_Z 72
_cell_length_a 23.012880
_cell_length_b 23.012880
_cell_length_c 7.364104
_cell_angle_alpha 90.000000
_cell_angle_beta 90.000000
_cell_angle_gamma 90.000000
_cell_volume 3899.975322
_symmetry_space_group_name_H-M "I -4 M 2"
_symmetry_group_IT_number 119
_symmetry_cell_setting 'tetragonal'
loop_
_space_group_symop_operation_xyz
x,y,z
y,-x,-z
-x,-y,z
-y,x,-z
y,x,-z
-y,-x,-z
-x,y,z
x,-y,z
1/2+x,1/2+y,1/2+z
1/2+y,1/2-x,1/2-z
1/2-x,1/2-y,1/2+z
1/2-y,1/2+x,1/2-z
1/2+y,1/2+x,1/2-z
1/2-y,1/2-x,1/2-z
1/2-x,1/2+y,1/2+z
1/2+x,1/2-y,1/2+z
loop_
_atom_site_type_symbol
_atom_site_label
_atom_site_fract_x
_atom_site_fract_y
_atom_site_fract_z
Si Si1 0.184059 0.222439 0.299609
Si Si2 0.431761 0.068240 0.250000
Si Si3 0.568695 0.774506 0.905410
Si Si4 0.230257 0.367165 0.713766
Si Si5 0.430733 0.157687 0.565802
O O1 0.207792 0.207792 0.500000
O O2 0.115327 0.230013 0.317896
O O3 0.209439 0.167319 0.191863
O O4 0.089591 0.275968 0.614560
O O5 0.500000 0.077474 0.212609
O O6 0.415779 0.104273 0.430327
O O7 0.500000 0.761147 0.895955
O O8 0.717405 0.782596 0.750000
O O9 0.579055 0.832407 0.781295
O O10 0.184074 0.315927 0.750000
O O11 0.211181 0.400064 0.534574
O O12 0.500000 0.161816 0.548184
#
# Coordination Sequence:
#
# PCOD9559200 Si02
#       5
#    16   8  16  16  16
#     4   9  20  32  52  79 102 136 172 208 265 315
#     4   9  18  34  52  70 100 144 194 234 260 304
#     4  10  22  36  52  75 107 136 170 217 264 321
#     4  10  20  35  53  76 103 136 172 218 262 316
#     4  10  20  33  52  75 100 141 178 216 272 311
#
# _framework density 18.461655
#
# number of rings (size 3 to 8) (size 9 to 14) (size 15 to 20)
#    0.000    2.333    1.111    0.667    9.333    0.000 
#    0.000    0.000    0.000    2.667    0.000    6.222 
#    0.000   52.889    0.000   48.889    0.000    0.000 
#
# Total GULP energy -200563.393908 kJ/mol
# GULP energy per Si atom -5571.205386 kJ/mol
# Density = 1.841964 g / cm^3
# Si number density = 18.461655 Si / 1000 Ang^3
#
#
#
# Elastic Constant Matrix: (Units=GPa)
#
#
# Indices 1 2 3 4 5 6 
#
# 1 78.4183 64.2628 38.1118 0.0000 0.0000 0.0000
# 2 64.2628 78.4237 38.1145 0.0000 0.0000 0.0000
# 3 38.1118 38.1145 119.3153 0.0000 0.0000 0.0000
# 4 0.0000 0.0000 0.0000 23.1301 0.0000 0.0000
# 5 0.0000 0.0000 0.0000 0.0000 23.1298 0.0000
# 6 0.0000 0.0000 0.0000 0.0000 0.0000 20.2813
#
#
#
# Elastic Compliance Matrix: (Units=1/GPa)
#
#
# Indices 1 2 3 4 5 6 
#
# 1 0.039542 -0.031090 -0.002699 0.000000 0.000000 0.000000
# 2 -0.031090 0.039539 -0.002700 0.000000 0.000000 0.000000
# 3 -0.002699 -0.002700 0.010106 0.000000 0.000000 0.000000
# 4 0.000000 0.000000 0.000000 0.043234 0.000000 0.000000
# 5 0.000000 0.000000 0.000000 0.000000 0.043234 0.000000
# 6 0.000000 0.000000 0.000000 0.000000 0.000000 0.049306
#
#
# Mechanical properties :
#
#
# Convention : Reuss Voigt Hill
#
# Bulk Modulus (GPa) = 61.69284 61.90394 61.79839
# Shear Modulus (GPa) = 16.48308 22.35281 19.41795
#
# Velocity S-wave (km/s) = 2.99126 3.48339 3.24666
# Velocity P-wave (km/s) = 6.73940 7.05567 6.89935
#
# Compressibility (1/GPa) = 0.01620934
#
# Stress axis : x y z
#
# Youngs Moduli (GPa) = 25.28984 25.29124 98.95403
#
# Poissons Ratio (x) = 0.78630 0.26707
# Poissons Ratio (y) = 0.78626 0.26716
# Poissons Ratio (z) = 0.06826 0.06828
#
# Static dielectric constant tensor:
#      x y z
#    x 1.674700 0.000000 0.000000 
#    y 0.000000 1.674700 0.000000 
#    z 0.000000 0.000000 1.757030 
# 
# From -- ./inp_files/2543.got.cif
#   From: 2010.05.17/outbox.cif.g08.bks.cpg/sg119_2_cif.got.tgz:2543.got - 2010.05.20 11:21:29.
