data_PCOD9559278
_publ_section_title
;
Structure prediction by ZEFSAII (Michael W. Deem and Ramdas Pophale) SiO2 
 PCOD9559278
Probable space group: I -4 M 2
;
_chemical_formula_sum "Si O2"
_cell_formula_units_Z 72
_cell_length_a 14.881073
_cell_length_b 14.881073
_cell_length_c 15.182368
_cell_angle_alpha 90.000000
_cell_angle_beta 90.000000
_cell_angle_gamma 90.000000
_cell_volume 3362.079729
_symmetry_space_group_name_H-M "I -4 M 2"
_symmetry_group_IT_number 119
_symmetry_cell_setting 'tetragonal'
loop_
_space_group_symop_operation_xyz
x,y,z
y,-x,-z
-x,-y,z
-y,x,-z
y,x,-z
-y,-x,-z
-x,y,z
x,-y,z
1/2+x,1/2+y,1/2+z
1/2+y,1/2-x,1/2-z
1/2-x,1/2-y,1/2+z
1/2-y,1/2+x,1/2-z
1/2+y,1/2+x,1/2-z
1/2-y,1/2-x,1/2-z
1/2-x,1/2+y,1/2+z
1/2+x,1/2-y,1/2+z
loop_
_atom_site_type_symbol
_atom_site_label
_atom_site_fract_x
_atom_site_fract_y
_atom_site_fract_z
Si Si1 0.717856 0.661381 0.159542
Si Si2 0.837735 0.269525 0.926731
Si Si3 0.900076 0.900076 0.500000
Si Si4 0.607067 0.899196 0.921769
Si Si5 0.398413 0.398743 0.321962
O O1 0.696922 0.767608 0.147299
O O2 0.823411 0.644807 0.144041
O O3 0.674349 0.621099 0.246654
O O4 0.670329 0.613345 0.077139
O O5 0.891532 0.184337 0.889429
O O6 0.772831 0.227170 0.000000
O O7 0.888030 0.345909 0.982135
O O8 0.000000 0.890504 0.537503
O O9 0.500000 0.887567 0.929803
O O10 0.626120 0.000000 0.889651
O O11 0.500000 0.398067 0.285132
O O12 0.383347 0.500000 0.359063
#
# Coordination Sequence:
#
# PCOD9559278 Si02
#       5
#    16  16   8  16  16
#     4  11  21  38  60  90 126 157 197 250 309 367
#     4  10  22  40  60  86 119 163 206 246 296 356
#     4  11  20  32  58  92 124 159 196 242 306 371
#     4  10  20  36  62  92 121 159 205 249 295 357
#     4  11  24  40  61  91 125 159 199 254 312 365
#
# _framework density 21.415316000000001
#
# number of rings (size 3 to 8) (size 9 to 14) (size 15 to 20)
#    0.000    1.444    3.333    4.000    0.000    7.111 
#    0.000    1.111    0.000    1.333    0.000   15.556 
#    0.000    0.000    0.000    0.000    0.000    0.000 
#
# Total GULP energy -201017.724057 kJ/mol
# GULP energy per Si atom -5583.825668 kJ/mol
# Density = 2.136657 g / cm^3
# Si number density = 21.415316 Si / 1000 Ang^3
#
#
#
# Elastic Constant Matrix: (Units=GPa)
#
#
# Indices 1 2 3 4 5 6 
#
# 1 111.8706 31.1128 22.3480 0.0000 0.0000 0.0000
# 2 31.1128 111.8699 22.3477 0.0000 0.0000 0.0000
# 3 22.3480 22.3477 55.1349 0.0000 0.0000 0.0000
# 4 0.0000 0.0000 0.0000 11.5225 0.0000 0.0000
# 5 0.0000 0.0000 0.0000 0.0000 11.5238 0.0000
# 6 0.0000 0.0000 0.0000 0.0000 0.0000 30.8382
#
#
#
# Elastic Compliance Matrix: (Units=1/GPa)
#
#
# Indices 1 2 3 4 5 6 
#
# 1 0.010196 -0.002187 -0.003246 0.000000 0.000000 0.000000
# 2 -0.002187 0.010196 -0.003246 0.000000 0.000000 0.000000
# 3 -0.003246 -0.003246 0.020769 0.000000 0.000000 0.000000
# 4 0.000000 0.000000 0.000000 0.086787 0.000000 0.000000
# 5 0.000000 0.000000 0.000000 0.000000 0.086777 0.000000
# 6 0.000000 0.000000 0.000000 0.000000 0.000000 0.032427
#
#
# Mechanical properties :
#
#
# Convention : Reuss Voigt Hill
#
# Bulk Modulus (GPa) = 42.01418 47.83248 44.92333
# Shear Modulus (GPa) = 18.35239 24.31468 21.33354
#
# Velocity S-wave (km/s) = 2.93059 3.37321 3.15966
# Velocity P-wave (km/s) = 5.57786 6.12825 5.85952
#
# Compressibility (1/GPa) = 0.02380149
#
# Stress axis : x y z
#
# Youngs Moduli (GPa) = 98.08124 98.08076 48.14912
#
# Poissons Ratio (x) = 0.21451 0.15630
# Poissons Ratio (y) = 0.21451 0.15630
# Poissons Ratio (z) = 0.31838 0.31838
#
# Static dielectric constant tensor:
#      x y z
#    x 1.813700 0.000000 0.000000 
#    y 0.000000 1.813700 0.000000 
#    z 0.000000 0.000000 1.792940 
# 
# From -- ./inp_files/6383.got.cif
#   From: 2010.05.17/outbox.cif.g08.bks.cpg/sg119_4_cif.got.tgz:6383.got - 2010.05.20 11:21:29.
