data_PCOD9559970
_publ_section_title
;
Structure prediction by ZEFSAII (Michael W. Deem and Ramdas Pophale) SiO2 
 PCOD9559970
Probable space group: I -4 C 2
;
_chemical_formula_sum "Si O2"
_cell_formula_units_Z 96
_cell_length_a 14.394698
_cell_length_b 14.394698
_cell_length_c 20.531996
_cell_angle_alpha 90.000000
_cell_angle_beta 90.000000
_cell_angle_gamma 90.000000
_cell_volume 4254.380081
_symmetry_space_group_name_H-M "I -4 C 2"
_symmetry_group_IT_number 120
_symmetry_cell_setting 'tetragonal'
loop_
_space_group_symop_operation_xyz
x,y,z
y,-x,-z
-x,-y,z
-y,x,-z
y,x,1/2-z
-y,-x,1/2-z
-x,y,1/2+z
x,-y,1/2+z
1/2+x,1/2+y,1/2+z
1/2+y,1/2-x,1/2-z
1/2-x,1/2-y,1/2+z
1/2-y,1/2+x,1/2-z
1/2+y,1/2+x,-z
1/2-y,1/2-x,-z
1/2-x,1/2+y,z
1/2+x,1/2-y,z
loop_
_atom_site_type_symbol
_atom_site_label
_atom_site_fract_x
_atom_site_fract_y
_atom_site_fract_z
Si Si1 0.660460 0.180833 0.745786
Si Si2 0.218492 0.013979 0.242882
Si Si3 0.928344 0.410108 0.114432
Si Si4 0.058354 0.090321 0.151707
Si Si5 0.327038 0.019279 0.506590
Si Si6 0.436056 0.636248 0.014341
O O1 0.738288 0.261713 0.750000
O O2 0.711672 0.090104 0.772082
O O3 0.571897 0.222869 0.782287
O O4 0.616668 0.141221 0.677158
O O5 0.150019 0.059809 0.190657
O O6 0.148843 0.990583 0.301718
O O7 0.000000 0.500000 0.128751
O O8 0.972056 0.332782 0.065156
O O9 0.849148 0.452806 0.067107
O O10 0.090868 0.145010 0.089159
O O11 0.000000 0.000000 0.131290
O O12 0.412993 0.087008 0.500000
O O13 0.233364 0.074761 0.520185
O O14 0.546552 0.615276 0.012631
#
# Coordination Sequence:
#
# PCOD9559970 Si02
#       6
#    16  16  16  16  16  16
#     4  12  25  45  66 106 135 184 242 294 348 424
#     4  11  26  41  68  95 136 181 237 287 347 419
#     4   9  21  42  73  98 143 186 222 286 355 423
#     4  11  21  46  66  89 132 189 226 286 354 412
#     4   9  20  44  69 104 135 181 229 275 354 421
#     4  11  23  40  64  97 135 172 223 281 344 416
#
# _framework density 22.564979999999998
#
# number of rings (size 3 to 8) (size 9 to 14) (size 15 to 20)
#    0.000    1.500    3.333    4.000    4.667    0.000 
#    3.000    1.667    0.000    0.000    0.000    0.000 
#    0.000    0.000    0.000    0.167    0.000    0.000 
#
# Total GULP energy -267678.140833 kJ/mol
# GULP energy per Si atom -5576.627934 kJ/mol
# Density = 2.251362 g / cm^3
# Si number density = 22.564980 Si / 1000 Ang^3
#
#
#
# Elastic Constant Matrix: (Units=GPa)
#
#
# Indices 1 2 3 4 5 6 
#
# 1 75.7960 -4.4618 3.5918 0.0000 0.0000 0.0000
# 2 -4.4618 75.8006 3.5912 0.0000 0.0000 0.0000
# 3 3.5918 3.5912 81.9007 0.0000 0.0000 0.0000
# 4 0.0000 0.0000 0.0000 -3.7665 0.0000 0.0000
# 5 0.0000 0.0000 0.0000 0.0000 -3.7659 0.0000
# 6 0.0000 0.0000 0.0000 0.0000 0.0000 30.7651
#
#
#
# Elastic Compliance Matrix: (Units=1/GPa)
#
#
# Indices 1 2 3 4 5 6 
#
# 1 0.013270 0.000810 -0.000618 0.000000 0.000000 0.000000
# 2 0.000810 0.013269 -0.000617 0.000000 0.000000 0.000000
# 3 -0.000618 -0.000617 0.012264 0.000000 0.000000 0.000000
# 4 0.000000 0.000000 0.000000 -0.265497 0.000000 0.000000
# 5 0.000000 0.000000 0.000000 0.000000 -0.265542 0.000000
# 6 0.000000 0.000000 0.000000 0.000000 0.000000 0.032504
#
#
# Mechanical properties :
#
#
# Convention : Reuss Voigt Hill
#
# Bulk Modulus (GPa) = 26.34715 26.54885 26.44800
# Shear Modulus (GPa) = -11.20498 20.03161 4.41331
#
# Velocity S-wave (km/s) = -2.23079 2.98271 1.40003
# Velocity P-wave (km/s) = 2.25083 4.86345 3.78942
#
# Compressibility (1/GPa) = 0.03795477
#
# Stress axis : x y z
#
# Youngs Moduli (GPa) = 75.35636 75.36098 81.53908
#
# Poissons Ratio (x) = -0.06107 0.05035
# Poissons Ratio (y) = -0.06107 0.05034
# Poissons Ratio (z) = 0.04653 0.04653
#
# Static dielectric constant tensor:
#      x y z
#    x 1.804200 0.000000 0.000000 
#    y 0.000000 1.804210 0.000000 
#    z 0.000000 0.000000 1.901480 
# 
# From -- ./inp_files/5336.got.cif
#   From: 2010.05.17/outbox.cif.g08.bks.cpg/sg120_3_cif.got.tgz:5336.got - 2010.05.20 11:28:13.
