data_PCOD9559618
_publ_section_title
;
Structure prediction by ZEFSAII (Michael W. Deem and Ramdas Pophale) SiO2 
 PCOD9559618
Probable space group: I -4 C 2
;
_chemical_formula_sum "Si O2"
_cell_formula_units_Z 48
_cell_length_a 16.338016
_cell_length_b 16.338016
_cell_length_c 9.203799
_cell_angle_alpha 90.000000
_cell_angle_beta 90.000000
_cell_angle_gamma 90.000000
_cell_volume 2456.777125
_symmetry_space_group_name_H-M "I -4 C 2"
_symmetry_group_IT_number 120
_symmetry_cell_setting 'tetragonal'
loop_
_space_group_symop_operation_xyz
x,y,z
y,-x,-z
-x,-y,z
-y,x,-z
y,x,1/2-z
-y,-x,1/2-z
-x,y,1/2+z
x,-y,1/2+z
1/2+x,1/2+y,1/2+z
1/2+y,1/2-x,1/2-z
1/2-x,1/2-y,1/2+z
1/2-y,1/2+x,1/2-z
1/2+y,1/2+x,-z
1/2-y,1/2-x,-z
1/2-x,1/2+y,z
1/2+x,1/2-y,z
loop_
_atom_site_type_symbol
_atom_site_label
_atom_site_fract_x
_atom_site_fract_y
_atom_site_fract_z
Si Si1 0.906626 0.406626 0.000000
Si Si2 0.656932 0.435620 0.583892
Si Si3 0.500000 0.000000 0.750000
Si Si4 0.272837 0.439059 0.383334
Si Si5 0.000000 0.000000 0.750000
O O1 0.921117 0.312992 0.044153
O O2 0.934540 0.459475 0.140205
O O3 0.691734 0.474892 0.439788
O O4 0.625165 0.343440 0.570552
O O5 0.725420 0.438189 0.709483
O O6 0.580376 0.489399 0.648389
#
# Coordination Sequence:
#
# PCOD9559618 Si02
#       5
#     8  16   4  16   4
#     4  11  22  42  62  82 108 147 196 242 282 335
#     4  10  19  33  54  86 116 149 181 223 276 337
#     4  10  24  42  64  78 104 154 196 230 284 346
#     4  10  20  35  56  82 115 145 186 230 279 335
#     4   8  16  30  52  78 116 150 176 202 268 354
#
# _framework density 19.537792
#
# number of rings (size 3 to 8) (size 9 to 14) (size 15 to 20)
#    0.000    2.333    0.000    6.000    0.000    1.333 
#    0.000   20.000    0.000    0.000    0.000    0.000 
#    0.000    0.000    0.000    0.000    0.000    0.000 
#
# Total GULP energy -133936.005985 kJ/mol
# GULP energy per Si atom -5580.666916 kJ/mol
# Density = 1.949332 g / cm^3
# Si number density = 19.537792 Si / 1000 Ang^3
#
#
#
# Elastic Constant Matrix: (Units=GPa)
#
#
# Indices 1 2 3 4 5 6 
#
# 1 85.4349 45.0741 37.3781 0.0000 0.0000 0.0000
# 2 45.0741 85.4349 37.3781 0.0000 0.0000 0.0000
# 3 37.3781 37.3781 91.1151 0.0000 0.0000 0.0000
# 4 0.0000 0.0000 0.0000 20.2234 0.0000 0.0000
# 5 0.0000 0.0000 0.0000 0.0000 20.2234 0.0000
# 6 0.0000 0.0000 0.0000 0.0000 0.0000 16.4514
#
#
#
# Elastic Compliance Matrix: (Units=1/GPa)
#
#
# Indices 1 2 3 4 5 6 
#
# 1 0.017396 -0.007380 -0.004109 0.000000 0.000000 0.000000
# 2 -0.007380 0.017396 -0.004109 0.000000 0.000000 0.000000
# 3 -0.004109 -0.004109 0.014346 0.000000 0.000000 0.000000
# 4 0.000000 0.000000 0.000000 0.049448 0.000000 0.000000
# 5 0.000000 0.000000 0.000000 0.000000 0.049448 0.000000
# 6 0.000000 0.000000 0.000000 0.000000 0.000000 0.060785
#
#
# Mechanical properties :
#
#
# Convention : Reuss Voigt Hill
#
# Bulk Modulus (GPa) = 55.73288 55.73842 55.73565
# Shear Modulus (GPa) = 20.32555 20.85661 20.59108
#
# Velocity S-wave (km/s) = 3.22890 3.27081 3.24992
# Velocity P-wave (km/s) = 6.51833 6.54635 6.53236
#
# Compressibility (1/GPa) = 0.01794273
#
# Stress axis : x y z
#
# Youngs Moduli (GPa) = 57.48389 57.48389 69.70470
#
# Poissons Ratio (x) = 0.42425 0.28640
# Poissons Ratio (y) = 0.42425 0.28640
# Poissons Ratio (z) = 0.23619 0.23619
#
# Static dielectric constant tensor:
#      x y z
#    x 1.689220 0.000000 0.000000 
#    y 0.000000 1.689220 0.000000 
#    z 0.000000 0.000000 1.718590 
# 
# From -- ./inp_files/954.got.cif
#   From: 2010.05.17/outbox.cif.g08.bks.cpg/sg120_1_cif.got.tgz:954.got - 2010.05.20 11:28:13.
