data_PCOD9559155
_publ_section_title
;
Structure prediction by ZEFSAII (Michael W. Deem and Ramdas Pophale) SiO2 
 PCOD9559155
Probable space group: I -4 M 2
;
_chemical_formula_sum "Si O2"
_cell_formula_units_Z 112
_cell_length_a 14.546337
_cell_length_b 14.546337
_cell_length_c 26.736249
_cell_angle_alpha 90.000000
_cell_angle_beta 90.000000
_cell_angle_gamma 90.000000
_cell_volume 5657.281208
_symmetry_space_group_name_H-M "I -4 M 2"
_symmetry_group_IT_number 119
_symmetry_cell_setting 'tetragonal'
loop_
_space_group_symop_operation_xyz
x,y,z
y,-x,-z
-x,-y,z
-y,x,-z
y,x,-z
-y,-x,-z
-x,y,z
x,-y,z
1/2+x,1/2+y,1/2+z
1/2+y,1/2-x,1/2-z
1/2-x,1/2-y,1/2+z
1/2-y,1/2+x,1/2-z
1/2+y,1/2+x,1/2-z
1/2-y,1/2-x,1/2-z
1/2-x,1/2+y,1/2+z
1/2+x,1/2-y,1/2+z
loop_
_atom_site_type_symbol
_atom_site_label
_atom_site_fract_x
_atom_site_fract_y
_atom_site_fract_z
Si Si1 0.667583 0.667229 0.917308
Si Si2 0.596586 0.390605 0.183422
Si Si3 0.606287 0.109794 0.190671
Si Si4 0.707335 0.391957 0.457293
Si Si5 0.752120 0.890423 0.761164
Si Si6 0.296851 0.282430 0.359598
Si Si7 0.603036 0.797700 0.997179
O O1 0.627643 0.601195 0.875628
O O2 0.699038 0.750506 0.881557
O O3 0.753931 0.627531 0.948684
O O4 0.602677 0.711144 0.958949
O O5 0.500000 0.353632 0.203431
O O6 0.598067 0.500000 0.189717
O O7 0.679563 0.355990 0.217377
O O8 0.500000 0.139584 0.179586
O O9 0.624813 0.124813 0.250000
O O10 0.687480 0.154492 0.157770
O O11 0.608661 0.000000 0.182984
O O12 0.636132 0.363869 0.500000
O O13 0.713967 0.500000 0.448222
O O14 0.670312 0.339084 0.407965
O O15 0.808344 0.356006 0.477832
O O16 0.653681 0.846320 0.750000
O O17 0.789253 0.849189 0.812758
O O18 0.749063 0.000000 0.762523
O O19 0.500000 0.839221 0.997561
#
# Coordination Sequence:
#
# PCOD9559155 Si02
#       7
#    16  16  16  16  16  16  16
#     4  10  19  36  59  89 126 164 196 242 301 372
#     4  10  21  36  57  88 124 162 206 250 300 373
#     4   9  20  38  61  95 135 169 204 248 308 384
#     4  11  24  46  67  89 121 162 215 269 321 372
#     4  11  23  40  60  87 122 165 216 267 317 367
#     4  11  21  40  62  90 120 166 207 256 314 377
#     4  10  20  38  64  96 127 159 201 251 312 381
#
# _framework density 19.797497
#
# number of rings (size 3 to 8) (size 9 to 14) (size 15 to 20)
#    0.000    1.714    4.286    2.143    0.000    2.857 
#    0.000    0.000    0.000    7.714    0.000    0.000 
#    0.000    0.000    0.000    0.000    0.000    0.000 
#
# Total GULP energy -311888.731537 kJ/mol
# GULP energy per Si atom -5569.441635 kJ/mol
# Density = 1.975244 g / cm^3
# Si number density = 19.797497 Si / 1000 Ang^3
#
#
#
# Elastic Constant Matrix: (Units=GPa)
#
#
# Indices 1 2 3 4 5 6 
#
# 1 99.7503 30.2307 43.1425 0.0000 0.0000 0.0000
# 2 30.2307 99.7470 43.1417 0.0000 0.0000 0.0000
# 3 43.1425 43.1417 144.2258 0.0000 0.0000 0.0000
# 4 0.0000 0.0000 0.0000 20.6047 0.0000 0.0000
# 5 0.0000 0.0000 0.0000 0.0000 20.6046 0.0000
# 6 0.0000 0.0000 0.0000 0.0000 0.0000 19.4766
#
#
#
# Elastic Compliance Matrix: (Units=1/GPa)
#
#
# Indices 1 2 3 4 5 6 
#
# 1 0.011992 -0.002393 -0.002872 0.000000 0.000000 0.000000
# 2 -0.002393 0.011992 -0.002872 0.000000 0.000000 0.000000
# 3 -0.002872 -0.002872 0.008652 0.000000 0.000000 0.000000
# 4 0.000000 0.000000 0.000000 0.048533 0.000000 0.000000
# 5 0.000000 0.000000 0.000000 0.000000 0.048533 0.000000
# 6 0.000000 0.000000 0.000000 0.000000 0.000000 0.051344
#
#
# Mechanical properties :
#
#
# Convention : Reuss Voigt Hill
#
# Bulk Modulus (GPa) = 61.10690 64.08366 62.59528
# Shear Modulus (GPa) = 24.65831 27.28439 25.97135
#
# Velocity S-wave (km/s) = 3.53303 3.71640 3.62588
# Velocity P-wave (km/s) = 6.89754 7.13130 7.01539
#
# Compressibility (1/GPa) = 0.01636476
#
# Stress axis : x y z
#
# Youngs Moduli (GPa) = 83.38844 83.38569 115.58675
#
# Poissons Ratio (x) = 0.19950 0.33191
# Poissons Ratio (y) = 0.19951 0.33192
# Poissons Ratio (z) = 0.23945 0.23945
#
# Static dielectric constant tensor:
#      x y z
#    x 1.732080 0.000000 0.000000 
#    y 0.000000 1.732080 0.000000 
#    z 0.000000 0.000000 1.711440 
# 
# From -- ./inp_files/8862.got.cif
#   From: 2010.05.17/outbox.cif.g08.bks.cpg/sg119_5_cif.got.tgz:8862.got - 2010.05.20 11:21:29.
