data_PCOD9559717
_publ_section_title
;
Structure prediction by ZEFSAII (Michael W. Deem and Ramdas Pophale) SiO2 
 PCOD9559717
Probable space group: I -4 C 2
;
_chemical_formula_sum "Si O2"
_cell_formula_units_Z 68
_cell_length_a 16.426964
_cell_length_b 16.426964
_cell_length_c 12.492485
_cell_angle_alpha 90.000000
_cell_angle_beta 90.000000
_cell_angle_gamma 90.000000
_cell_volume 3371.036442
_symmetry_space_group_name_H-M "I -4 C 2"
_symmetry_group_IT_number 120
_symmetry_cell_setting 'tetragonal'
loop_
_space_group_symop_operation_xyz
x,y,z
y,-x,-z
-x,-y,z
-y,x,-z
y,x,1/2-z
-y,-x,1/2-z
-x,y,1/2+z
x,-y,1/2+z
1/2+x,1/2+y,1/2+z
1/2+y,1/2-x,1/2-z
1/2-x,1/2-y,1/2+z
1/2-y,1/2+x,1/2-z
1/2+y,1/2+x,-z
1/2-y,1/2-x,-z
1/2-x,1/2+y,z
1/2+x,1/2-y,z
loop_
_atom_site_type_symbol
_atom_site_label
_atom_site_fract_x
_atom_site_fract_y
_atom_site_fract_z
Si Si1 0.856480 0.927147 0.117865
Si Si2 0.931389 0.639027 0.900500
Si Si3 0.030471 0.782359 0.554850
Si Si4 0.060891 0.693068 0.749450
Si Si5 0.500000 0.500000 0.250000
O O1 0.903482 0.843274 0.102865
O O2 0.772454 0.915030 0.182259
O O3 0.918797 0.989884 0.177020
O O4 0.834333 0.961359 0.001692
O O5 0.856620 0.627051 0.818635
O O6 0.012588 0.634804 0.830257
O O7 0.922681 0.577320 0.000000
O O8 0.932700 0.725749 0.961177
O O9 0.002633 0.726956 0.654125
#
# Coordination Sequence:
#
# PCOD9559717 Si02
#       5
#    16  16  16  16   4
#     4  11  21  35  60  88 127 161 210 254 309 374
#     4   9  21  40  64  86 120 158 203 260 321 371
#     4  10  20  38  58  89 125 162 206 259 310 380
#     4  10  20  41  60  87 121 159 206 264 310 385
#     4  12  20  34  60  88 122 172 204 254 302 362
#
# _framework density 20.171837
#
# number of rings (size 3 to 8) (size 9 to 14) (size 15 to 20)
#    0.000    1.882    2.353    1.412    0.000    0.471 
#    0.000   25.882    0.000    0.000    0.000    0.000 
#    0.000    0.000    0.000    0.000    0.000    0.000 
#
# Total GULP energy -189394.505805 kJ/mol
# GULP energy per Si atom -5570.426641 kJ/mol
# Density = 2.012592 g / cm^3
# Si number density = 20.171837 Si / 1000 Ang^3
#
#
#
# Elastic Constant Matrix: (Units=GPa)
#
#
# Indices 1 2 3 4 5 6 
#
# 1 39.4563 20.5606 30.1743 0.0000 0.0000 0.0000
# 2 20.5606 39.4567 30.1734 0.0000 0.0000 0.0000
# 3 30.1743 30.1734 102.4791 0.0000 0.0000 0.0000
# 4 0.0000 0.0000 0.0000 22.1676 0.0000 0.0000
# 5 0.0000 0.0000 0.0000 0.0000 22.1672 0.0000
# 6 0.0000 0.0000 0.0000 0.0000 0.0000 21.0083
#
#
#
# Elastic Compliance Matrix: (Units=1/GPa)
#
#
# Indices 1 2 3 4 5 6 
#
# 1 0.038296 -0.014626 -0.006970 0.000000 0.000000 0.000000
# 2 -0.014626 0.038295 -0.006969 0.000000 0.000000 0.000000
# 3 -0.006970 -0.006969 0.013862 0.000000 0.000000 0.000000
# 4 0.000000 0.000000 0.000000 0.045111 0.000000 0.000000
# 5 0.000000 0.000000 0.000000 0.000000 0.045112 0.000000
# 6 0.000000 0.000000 0.000000 0.000000 0.000000 0.047600
#
#
# Mechanical properties :
#
#
# Convention : Reuss Voigt Hill
#
# Bulk Modulus (GPa) = 30.00817 38.13429 34.07123
# Shear Modulus (GPa) = 16.86267 19.76755 18.31511
#
# Velocity S-wave (km/s) = 2.89442 3.13382 3.01650
# Velocity P-wave (km/s) = 5.10674 5.66041 5.39069
#
# Compressibility (1/GPa) = 0.03332426
#
# Stress axis : x y z
#
# Youngs Moduli (GPa) = 26.11232 26.11313 72.13907
#
# Poissons Ratio (x) = 0.38193 0.50278
# Poissons Ratio (y) = 0.38192 0.50272
# Poissons Ratio (z) = 0.18199 0.18198
#
# Static dielectric constant tensor:
#      x y z
#    x 1.727900 0.000000 0.000000 
#    y 0.000000 1.727900 0.000000 
#    z 0.000000 0.000000 1.757440 
# 
# From -- ./inp_files/2443.got.cif
#   From: 2010.05.17/outbox.cif.g08.bks.cpg/sg120_2_cif.got.tgz:2443.got - 2010.05.20 11:28:13.
