data_PCOD9559380
_publ_section_title
;
Structure prediction by ZEFSAII (Michael W. Deem and Ramdas Pophale) SiO2 
 PCOD9559380
Probable space group: I -4 M 2
;
_chemical_formula_sum "Si O2"
_cell_formula_units_Z 112
_cell_length_a 14.689642
_cell_length_b 14.689642
_cell_length_c 25.318906
_cell_angle_alpha 90.000000
_cell_angle_beta 90.000000
_cell_angle_gamma 90.000000
_cell_volume 5463.454869
_symmetry_space_group_name_H-M "I -4 M 2"
_symmetry_group_IT_number 119
_symmetry_cell_setting 'tetragonal'
loop_
_space_group_symop_operation_xyz
x,y,z
y,-x,-z
-x,-y,z
-y,x,-z
y,x,-z
-y,-x,-z
-x,y,z
x,-y,z
1/2+x,1/2+y,1/2+z
1/2+y,1/2-x,1/2-z
1/2-x,1/2-y,1/2+z
1/2-y,1/2+x,1/2-z
1/2+y,1/2+x,1/2-z
1/2-y,1/2-x,1/2-z
1/2-x,1/2+y,1/2+z
1/2+x,1/2-y,1/2+z
loop_
_atom_site_type_symbol
_atom_site_label
_atom_site_fract_x
_atom_site_fract_y
_atom_site_fract_z
Si Si1 0.219111 0.820779 0.157286
Si Si2 0.346774 0.102077 0.808445
Si Si3 0.606222 0.608863 0.561747
Si Si4 0.286032 0.389926 0.848439
Si Si5 0.600518 0.102464 0.573786
Si Si6 0.889427 0.195948 0.447820
Si Si7 0.896969 0.104720 0.246377
O O1 0.175873 0.730125 0.182396
O O2 0.173810 0.839897 0.100776
O O3 0.327080 0.804920 0.153961
O O4 0.172465 0.890873 0.197436
O O5 0.387835 0.112165 0.750000
O O6 0.403646 0.109770 0.862446
O O7 0.310105 0.000000 0.811424
O O8 0.625318 0.625318 0.500000
O O9 0.500000 0.631894 0.572873
O O10 0.614817 0.500000 0.570163
O O11 0.271661 0.500000 0.848726
O O12 0.342806 0.356561 0.899127
O O13 0.346246 0.359345 0.797981
O O14 0.500000 0.145402 0.562669
O O15 0.696970 0.139973 0.553436
O O16 0.596176 0.000000 0.552525
O O17 0.853265 0.146736 0.500000
O O18 0.000000 0.192637 0.444011
O O19 0.000000 0.140718 0.237852
O O20 0.908983 0.000000 0.258692
#
# Coordination Sequence:
#
# PCOD9559380 Si02
#       7
#    16  16  16  16  16  16  16
#     4  12  22  35  57  90 124 163 209 262 316 379
#     4  11  21  33  53  86 126 168 208 245 296 373
#     4   9  19  38  64  93 125 161 206 267 335 394
#     4  11  24  41  59  85 126 171 212 258 314 376
#     4   9  19  37  59  86 124 165 202 248 310 379
#     4  11  23  41  66  93 121 160 215 273 321 372
#     4  10  21  38  63  92 122 158 204 265 333 390
#
# _framework density 20.499848
#
# number of rings (size 3 to 8) (size 9 to 14) (size 15 to 20)
#    0.000    1.571    1.429    4.714    0.000    4.000 
#    0.000    0.000    0.000    2.571    0.000    4.000 
#    0.000    1.429    0.000    0.000    0.000    0.000 
#
# Total GULP energy -312047.288920 kJ/mol
# GULP energy per Si atom -5572.273016 kJ/mol
# Density = 2.045319 g / cm^3
# Si number density = 20.499848 Si / 1000 Ang^3
#
#
#
# Elastic Constant Matrix: (Units=GPa)
#
#
# Indices 1 2 3 4 5 6 
#
# 1 96.1670 31.4776 32.8893 0.0000 0.0000 0.0000
# 2 31.4776 96.1696 32.8904 0.0000 0.0000 0.0000
# 3 32.8893 32.8904 97.8426 0.0000 0.0000 0.0000
# 4 0.0000 0.0000 0.0000 13.8832 0.0000 0.0000
# 5 0.0000 0.0000 0.0000 0.0000 13.8969 0.0000
# 6 0.0000 0.0000 0.0000 0.0000 0.0000 25.8195
#
#
#
# Elastic Compliance Matrix: (Units=1/GPa)
#
#
# Indices 1 2 3 4 5 6 
#
# 1 0.012467 -0.002991 -0.003185 0.000000 0.000000 0.000000
# 2 -0.002991 0.012467 -0.003185 0.000000 0.000000 0.000000
# 3 -0.003185 -0.003185 0.012362 0.000000 0.000000 0.000000
# 4 0.000000 0.000000 0.000000 0.072029 0.000000 0.000000
# 5 0.000000 0.000000 0.000000 0.000000 0.071958 0.000000
# 6 0.000000 0.000000 0.000000 0.000000 0.000000 0.038730
#
#
# Mechanical properties :
#
#
# Convention : Reuss Voigt Hill
#
# Bulk Modulus (GPa) = 53.84385 53.85489 53.84937
# Shear Modulus (GPa) = 20.41416 23.58139 21.99778
#
# Velocity S-wave (km/s) = 3.15909 3.39532 3.27933
# Velocity P-wave (km/s) = 6.29515 6.45746 6.37682
#
# Compressibility (1/GPa) = 0.01857222
#
# Stress axis : x y z
#
# Youngs Moduli (GPa) = 80.21158 80.21331 80.89347
#
# Poissons Ratio (x) = 0.23994 0.25766
# Poissons Ratio (y) = 0.23994 0.25767
# Poissons Ratio (z) = 0.25549 0.25550
#
# Static dielectric constant tensor:
#      x y z
#    x 2.180040 0.000000 0.000000 
#    y 0.000000 2.181130 0.000000 
#    z 0.000000 0.000000 1.744030 
# 
# From -- ./inp_files/8837.got.cif
#   From: 2010.05.17/outbox.cif.g08.bks.cpg/sg119_5_cif.got.tgz:8837.got - 2010.05.20 11:21:29.
