data_PCOD9559854
_publ_section_title
;
Structure prediction by ZEFSAII (Michael W. Deem and Ramdas Pophale) SiO2 
 PCOD9559854
Probable space group: I -4 C 2
;
_chemical_formula_sum "Si O2"
_cell_formula_units_Z 56
_cell_length_a 13.301974
_cell_length_b 13.301974
_cell_length_c 14.838525
_cell_angle_alpha 90.000000
_cell_angle_beta 90.000000
_cell_angle_gamma 90.000000
_cell_volume 2625.565892
_symmetry_space_group_name_H-M "I -4 C 2"
_symmetry_group_IT_number 120
_symmetry_cell_setting 'tetragonal'
loop_
_space_group_symop_operation_xyz
x,y,z
y,-x,-z
-x,-y,z
-y,x,-z
y,x,1/2-z
-y,-x,1/2-z
-x,y,1/2+z
x,-y,1/2+z
1/2+x,1/2+y,1/2+z
1/2+y,1/2-x,1/2-z
1/2-x,1/2-y,1/2+z
1/2-y,1/2+x,1/2-z
1/2+y,1/2+x,-z
1/2-y,1/2-x,-z
1/2-x,1/2+y,z
1/2+x,1/2-y,z
loop_
_atom_site_type_symbol
_atom_site_label
_atom_site_fract_x
_atom_site_fract_y
_atom_site_fract_z
Si Si1 0.758451 0.572760 0.009911
Si Si2 0.648559 0.851442 0.000000
Si Si3 0.173453 0.798622 0.156773
Si Si4 0.386461 0.460509 0.843023
O O1 0.709134 0.601058 0.105213
O O2 0.842778 0.657223 0.000000
O O3 0.816538 0.466821 0.008718
O O4 0.671829 0.579943 0.932241
O O5 0.684319 0.791455 0.087466
O O6 0.225680 0.774321 0.250000
O O7 0.057639 0.818988 0.180100
O O8 0.500000 0.500000 0.865134
O O9 0.398200 0.398200 0.750000
#
# Coordination Sequence:
#
# PCOD9559854 Si02
#       4
#    16   8  16  16
#     4  11  25  45  72 101 145 192 231 291 359 430
#     4  10  25  48  70  99 140 190 240 288 351 434
#     4  11  23  43  66 105 135 180 235 292 355 412
#     4  10  22  40  72 108 138 178 231 302 353 411
#
# _framework density 21.328735000000002
#
# number of rings (size 3 to 8) (size 9 to 14) (size 15 to 20)
#    0.000    1.429    4.286    0.429    8.000    1.143 
#   10.286    1.429    0.000    0.000    0.000    0.000 
#    0.000    0.000    0.000    0.000    0.000    0.000 
#
# Total GULP energy -156283.774648 kJ/mol
# GULP energy per Si atom -5581.563380 kJ/mol
# Density = 2.128019 g / cm^3
# Si number density = 21.328735 Si / 1000 Ang^3
#
#
#
# Elastic Constant Matrix: (Units=GPa)
#
#
# Indices 1 2 3 4 5 6 
#
# 1 108.6612 61.1250 74.2489 0.0000 0.0000 0.0000
# 2 61.1250 108.6614 74.2494 0.0000 0.0000 0.0000
# 3 74.2489 74.2494 213.6129 0.0000 0.0000 0.0000
# 4 0.0000 0.0000 0.0000 21.0354 0.0000 0.0000
# 5 0.0000 0.0000 0.0000 0.0000 21.0332 0.0000
# 6 0.0000 0.0000 0.0000 0.0000 0.0000 35.7173
#
#
#
# Elastic Compliance Matrix: (Units=1/GPa)
#
#
# Indices 1 2 3 4 5 6 
#
# 1 0.014749 -0.006287 -0.002941 0.000000 0.000000 0.000000
# 2 -0.006287 0.014749 -0.002941 0.000000 0.000000 0.000000
# 3 -0.002941 -0.002941 0.006726 0.000000 0.000000 0.000000
# 4 0.000000 0.000000 0.000000 0.047539 0.000000 0.000000
# 5 0.000000 0.000000 0.000000 0.000000 0.047544 0.000000
# 6 0.000000 0.000000 0.000000 0.000000 0.000000 0.027998
#
#
# Mechanical properties :
#
#
# Convention : Reuss Voigt Hill
#
# Bulk Modulus (GPa) = 84.13792 94.46470 89.30131
# Shear Modulus (GPa) = 26.65143 30.31131 28.48137
#
# Velocity S-wave (km/s) = 3.53874 3.77390 3.65821
# Velocity P-wave (km/s) = 7.49871 7.96089 7.73326
#
# Compressibility (1/GPa) = 0.01188525
#
# Stress axis : x y z
#
# Youngs Moduli (GPa) = 67.79913 67.79898 148.67321
#
# Poissons Ratio (x) = 0.42626 0.43730
# Poissons Ratio (y) = 0.42626 0.43731
# Poissons Ratio (z) = 0.19942 0.19943
#
# Static dielectric constant tensor:
#      x y z
#    x 1.817210 0.000000 0.000000 
#    y 0.000000 1.817210 0.000000 
#    z 0.000000 0.000000 1.834600 
# 
# From -- ./inp_files/2211.got.cif
#   From: 2010.05.17/outbox.cif.g08.bks.cpg/sg120_2_cif.got.tgz:2211.got - 2010.05.20 11:28:13.
