data_PCOD9559404
_publ_section_title
;
Structure prediction by ZEFSAII (Michael W. Deem and Ramdas Pophale) SiO2 
 PCOD9559404
Probable space group: I -4 M 2
;
_chemical_formula_sum "Si O2"
_cell_formula_units_Z 112
_cell_length_a 14.435867
_cell_length_b 14.435867
_cell_length_c 26.662033
_cell_angle_alpha 90.000000
_cell_angle_beta 90.000000
_cell_angle_gamma 90.000000
_cell_volume 5556.214532
_symmetry_space_group_name_H-M "I -4 M 2"
_symmetry_group_IT_number 119
_symmetry_cell_setting 'tetragonal'
loop_
_space_group_symop_operation_xyz
x,y,z
y,-x,-z
-x,-y,z
-y,x,-z
y,x,-z
-y,-x,-z
-x,y,z
x,-y,z
1/2+x,1/2+y,1/2+z
1/2+y,1/2-x,1/2-z
1/2-x,1/2-y,1/2+z
1/2-y,1/2+x,1/2-z
1/2+y,1/2+x,1/2-z
1/2-y,1/2-x,1/2-z
1/2-x,1/2+y,1/2+z
1/2+x,1/2-y,1/2+z
loop_
_atom_site_type_symbol
_atom_site_label
_atom_site_fract_x
_atom_site_fract_y
_atom_site_fract_z
Si Si1 0.148223 0.598801 0.803032
Si Si2 0.391991 0.639689 0.232916
Si Si3 0.225284 0.890451 0.834528
Si Si4 0.391243 0.105863 0.475289
Si Si5 0.108068 0.748414 0.887394
Si Si6 0.891536 0.778599 0.458698
Si Si7 0.604186 0.758334 0.847775
O O1 0.133522 0.500000 0.829277
O O2 0.097960 0.597960 0.750000
O O3 0.253821 0.607657 0.784961
O O4 0.120440 0.682687 0.838580
O O5 0.500000 0.610155 0.235151
O O6 0.340086 0.624611 0.285655
O O7 0.325465 0.596736 0.191197
O O8 0.170676 0.838325 0.879215
O O9 0.321959 0.834492 0.829244
O O10 0.238824 0.000000 0.841841
O O11 0.500000 0.113743 0.486146
O O12 0.366760 0.183032 0.434185
O O13 0.327561 0.118233 0.523635
O O14 0.374249 0.000000 0.456971
O O15 0.000000 0.773526 0.891325
O O16 0.838037 0.838037 0.500000
O O17 0.861792 0.783618 0.400947
O O18 0.000000 0.804208 0.460695
O O19 0.500000 0.796924 0.855541
#
# Coordination Sequence:
#
# PCOD9559404 Si02
#       7
#    16  16  16  16  16  16  16
#     4  11  20  32  54  83 121 162 195 236 293 361
#     4  11  23  41  64  89 122 162 198 243 308 379
#     4  12  25  42  62  86 122 164 211 260 310 369
#     4   9  19  37  62  90 122 159 199 251 312 374
#     4  11  21  36  58  89 125 160 202 246 301 372
#     4  10  22  39  61  90 124 162 205 253 309 370
#     4  11  24  43  66  92 122 161 213 264 310 361
#
# _framework density 20.157609999999998
#
# number of rings (size 3 to 8) (size 9 to 14) (size 15 to 20)
#    0.000    1.286    2.857    3.000    0.000    5.143 
#    0.000    2.857    0.000    1.714    0.000    0.000 
#    0.000    5.714    0.000    0.000    0.000    0.000 
#
# Total GULP energy -312696.863098 kJ/mol
# GULP energy per Si atom -5583.872555 kJ/mol
# Density = 2.011173 g / cm^3
# Si number density = 20.157610 Si / 1000 Ang^3
#
#
#
# Elastic Constant Matrix: (Units=GPa)
#
#
# Indices 1 2 3 4 5 6 
#
# 1 116.2430 42.8216 21.6365 0.0000 0.0000 0.0000
# 2 42.8216 116.2430 21.6365 0.0000 0.0000 0.0000
# 3 21.6365 21.6365 50.1074 0.0000 0.0000 0.0000
# 4 0.0000 0.0000 0.0000 21.3758 0.0000 0.0000
# 5 0.0000 0.0000 0.0000 0.0000 21.3758 0.0000
# 6 0.0000 0.0000 0.0000 0.0000 0.0000 6.3218
#
#
#
# Elastic Compliance Matrix: (Units=1/GPa)
#
#
# Indices 1 2 3 4 5 6 
#
# 1 0.010372 -0.003248 -0.003076 0.000000 0.000000 0.000000
# 2 -0.003248 0.010372 -0.003076 0.000000 0.000000 0.000000
# 3 -0.003076 -0.003076 0.022614 0.000000 0.000000 0.000000
# 4 0.000000 0.000000 0.000000 0.046782 0.000000 0.000000
# 5 0.000000 0.000000 0.000000 0.000000 0.046782 0.000000
# 6 0.000000 0.000000 0.000000 0.000000 0.000000 0.158184
#
#
# Mechanical properties :
#
#
# Convention : Reuss Voigt Hill
#
# Bulk Modulus (GPa) = 40.72191 50.53137 45.62664
# Shear Modulus (GPa) = 15.52359 22.91460 19.21910
#
# Velocity S-wave (km/s) = 2.77810 3.37526 3.09113
# Velocity P-wave (km/s) = 5.52594 6.34921 5.95183
#
# Compressibility (1/GPa) = 0.02455680
#
# Stress axis : x y z
#
# Youngs Moduli (GPa) = 96.41543 96.41543 44.22128
#
# Poissons Ratio (x) = 0.31318 0.13602
# Poissons Ratio (y) = 0.31318 0.13602
# Poissons Ratio (z) = 0.29657 0.29657
#
# Static dielectric constant tensor:
#      x y z
#    x 1.748830 0.000000 0.000000 
#    y 0.000000 1.748830 0.000000 
#    z 0.000000 0.000000 1.695790 
# 
# From -- ./inp_files/8852.got.cif
#   From: 2010.05.17/outbox.cif.g08.bks.cpg/sg119_5_cif.got.tgz:8852.got - 2010.05.20 11:21:29.
