data_PCOD9559239
_publ_section_title
;
Structure prediction by ZEFSAII (Michael W. Deem and Ramdas Pophale) SiO2 
 PCOD9559239
Probable space group: I -4 M 2
;
_chemical_formula_sum "Si O2"
_cell_formula_units_Z 88
_cell_length_a 18.364654
_cell_length_b 18.364654
_cell_length_c 13.221918
_cell_angle_alpha 90.000000
_cell_angle_beta 90.000000
_cell_angle_gamma 90.000000
_cell_volume 4459.230894
_symmetry_space_group_name_H-M "I -4 M 2"
_symmetry_group_IT_number 119
_symmetry_cell_setting 'tetragonal'
loop_
_space_group_symop_operation_xyz
x,y,z
y,-x,-z
-x,-y,z
-y,x,-z
y,x,-z
-y,-x,-z
-x,y,z
x,-y,z
1/2+x,1/2+y,1/2+z
1/2+y,1/2-x,1/2-z
1/2-x,1/2-y,1/2+z
1/2-y,1/2+x,1/2-z
1/2+y,1/2+x,1/2-z
1/2-y,1/2-x,1/2-z
1/2-x,1/2+y,1/2+z
1/2+x,1/2-y,1/2+z
loop_
_atom_site_type_symbol
_atom_site_label
_atom_site_fract_x
_atom_site_fract_y
_atom_site_fract_z
Si Si1 0.418881 0.305170 0.040692
Si Si2 0.642526 0.142526 0.750000
Si Si3 0.413598 0.313077 0.271208
Si Si4 0.580360 0.145940 0.962399
Si Si5 0.292996 0.416260 0.325277
Si Si6 0.854534 0.742472 0.970495
O O1 0.500000 0.337633 0.040661
O O2 0.402757 0.284267 0.157308
O O3 0.361075 0.361075 0.000000
O O4 0.420400 0.233328 0.972791
O O5 0.593904 0.124030 0.846769
O O6 0.629785 0.226480 0.721106
O O7 0.500000 0.319209 0.289209
O O8 0.369486 0.388401 0.282587
O O9 0.376172 0.264944 0.358047
O O10 0.500000 0.120353 0.997895
O O11 0.656953 0.128634 0.016729
O O12 0.280655 0.500000 0.301880
O O13 0.285728 0.402434 0.445857
O O14 0.772830 0.772830 0.000000
#
# Coordination Sequence:
#
# PCOD9559239 Si02
#       6
#    16   8  16  16  16  16
#     4  10  21  35  52  78 111 145 184 230 282 341
#     4  10  20  34  56  83 114 150 188 233 286 346
#     4  10  21  36  56  84 117 154 193 238 292 350
#     4  10  20  35  56  82 112 146 187 237 287 337
#     4  10  20  35  57  84 115 153 195 240 290 346
#     4   9  19  35  57  84 116 154 196 242 291 348
#
# _framework density 19.734345000000001
#
# number of rings (size 3 to 8) (size 9 to 14) (size 15 to 20)
#    0.000    2.182    0.000    2.727    0.000    6.364 
#    0.000    1.818    0.000   31.636    0.000    1.273 
#    0.000   29.091    0.000    0.000    0.000    0.000 
#
# Total GULP energy -245323.415101 kJ/mol
# GULP energy per Si atom -5575.532161 kJ/mol
# Density = 1.968943 g / cm^3
# Si number density = 19.734345 Si / 1000 Ang^3
#
#
#
# Elastic Constant Matrix: (Units=GPa)
#
#
# Indices 1 2 3 4 5 6 
#
# 1 71.8370 36.4552 35.9905 0.0000 0.0000 0.0000
# 2 36.4552 71.8370 35.9905 0.0000 0.0000 0.0000
# 3 35.9905 35.9905 76.0013 0.0000 0.0000 0.0000
# 4 0.0000 0.0000 0.0000 18.9578 0.0000 0.0000
# 5 0.0000 0.0000 0.0000 0.0000 18.9578 0.0000
# 6 0.0000 0.0000 0.0000 0.0000 0.0000 9.8765
#
#
#
# Elastic Compliance Matrix: (Units=1/GPa)
#
#
# Indices 1 2 3 4 5 6 
#
# 1 0.020870 -0.007394 -0.006382 0.000000 0.000000 0.000000
# 2 -0.007394 0.020870 -0.006382 0.000000 0.000000 0.000000
# 3 -0.006382 -0.006382 0.019202 0.000000 0.000000 0.000000
# 4 0.000000 0.000000 0.000000 0.052749 0.000000 0.000000
# 5 0.000000 0.000000 0.000000 0.000000 0.052749 0.000000
# 6 0.000000 0.000000 0.000000 0.000000 0.000000 0.101251
#
#
# Mechanical properties :
#
#
# Convention : Reuss Voigt Hill
#
# Bulk Modulus (GPa) = 48.47918 48.50533 48.49225
# Shear Modulus (GPa) = 15.87912 16.97432 16.42672
#
# Velocity S-wave (km/s) = 2.83970 2.93600 2.88825
# Velocity P-wave (km/s) = 5.94736 6.01049 5.97901
#
# Compressibility (1/GPa) = 0.02062741
#
# Stress axis : x y z
#
# Youngs Moduli (GPa) = 47.91650 47.91650 52.07861
#
# Poissons Ratio (x) = 0.35427 0.33235
# Poissons Ratio (y) = 0.35427 0.33235
# Poissons Ratio (z) = 0.30579 0.30579
#
# Static dielectric constant tensor:
#      x y z
#    x 1.708910 0.000000 0.000000 
#    y 0.000000 1.708910 0.000000 
#    z 0.000000 0.000000 1.719270 
# 
# From -- ./inp_files/5383.got.cif
#   From: 2010.05.17/outbox.cif.g08.bks.cpg/sg119_3_cif.got.tgz:5383.got - 2010.05.20 11:21:29.
