data_PCOD9559485
_publ_section_title
;
Structure prediction by ZEFSAII (Michael W. Deem and Ramdas Pophale) SiO2 
 PCOD9559485
Probable space group: I -4 M 2
;
_chemical_formula_sum "Si O2"
_cell_formula_units_Z 72
_cell_length_a 13.897559
_cell_length_b 13.897559
_cell_length_c 17.237913
_cell_angle_alpha 90.000000
_cell_angle_beta 90.000000
_cell_angle_gamma 90.000000
_cell_volume 3329.367512
_symmetry_space_group_name_H-M "I -4 M 2"
_symmetry_group_IT_number 119
_symmetry_cell_setting 'tetragonal'
loop_
_space_group_symop_operation_xyz
x,y,z
y,-x,-z
-x,-y,z
-y,x,-z
y,x,-z
-y,-x,-z
-x,y,z
x,-y,z
1/2+x,1/2+y,1/2+z
1/2+y,1/2-x,1/2-z
1/2-x,1/2-y,1/2+z
1/2-y,1/2+x,1/2-z
1/2+y,1/2+x,1/2-z
1/2-y,1/2-x,1/2-z
1/2-x,1/2+y,1/2+z
1/2+x,1/2-y,1/2+z
loop_
_atom_site_type_symbol
_atom_site_label
_atom_site_fract_x
_atom_site_fract_y
_atom_site_fract_z
Si Si1 0.887066 0.107304 0.667229
Si Si2 0.740483 0.111726 0.964339
Si Si3 0.195960 0.798541 0.810816
Si Si4 0.115405 0.115405 0.500000
Si Si5 0.609771 0.883886 0.101023
O O1 0.879817 0.156184 0.751162
O O2 0.849441 0.153050 0.584894
O O3 0.000000 0.099155 0.651397
O O4 0.845081 0.000000 0.674769
O O5 0.756611 0.134449 0.874969
O O6 0.757110 0.000000 0.979801
O O7 0.824601 0.175400 0.000000
O O8 0.643072 0.136246 0.011897
O O9 0.278966 0.778966 0.750000
O O10 0.156522 0.697286 0.846057
O O11 0.000000 0.131053 0.493891
O O12 0.500000 0.848857 0.116673
O O13 0.608245 0.000000 0.111406
#
# Coordination Sequence:
#
# PCOD9559485 Si02
#       5
#    16  16  16   8  16
#     4   9  17  32  55  83 117 156 197 245 302 360
#     4   9  19  38  62  88 119 152 192 239 291 356
#     4  11  22  35  53  84 125 153 189 241 298 350
#     4   7  12  26  48  76 112 150 188 227 276 350
#     4   9  19  38  62  83 109 153 205 252 293 338
#
# _framework density 21.625730000000001
#
# number of rings (size 3 to 8) (size 9 to 14) (size 15 to 20)
#    0.000    2.778    0.000    2.667    0.000    2.889 
#    6.000    3.333    0.000    0.000    0.000    0.000 
#    0.000   21.778    0.000    0.000    0.000    0.000 
#
# Total GULP energy -200404.241450 kJ/mol
# GULP energy per Si atom -5566.784485 kJ/mol
# Density = 2.157651 g / cm^3
# Si number density = 21.625730 Si / 1000 Ang^3
#
#
#
# Elastic Constant Matrix: (Units=GPa)
#
#
# Indices 1 2 3 4 5 6 
#
# 1 73.8124 12.1680 24.9257 0.0000 0.0000 0.0000
# 2 12.1680 73.8144 24.9280 0.0000 0.0000 0.0000
# 3 24.9257 24.9280 143.0017 0.0000 0.0000 0.0000
# 4 0.0000 0.0000 0.0000 26.5624 0.0000 0.0000
# 5 0.0000 0.0000 0.0000 0.0000 26.5637 0.0000
# 6 0.0000 0.0000 0.0000 0.0000 0.0000 20.2188
#
#
#
# Elastic Compliance Matrix: (Units=1/GPa)
#
#
# Indices 1 2 3 4 5 6 
#
# 1 0.014580 -0.001642 -0.002255 0.000000 0.000000 0.000000
# 2 -0.001642 0.014580 -0.002255 0.000000 0.000000 0.000000
# 3 -0.002255 -0.002255 0.007779 0.000000 0.000000 0.000000
# 4 0.000000 0.000000 0.000000 0.037647 0.000000 0.000000
# 5 0.000000 0.000000 0.000000 0.000000 0.037645 0.000000
# 6 0.000000 0.000000 0.000000 0.000000 0.000000 0.049459
#
#
# Mechanical properties :
#
#
# Convention : Reuss Voigt Hill
#
# Bulk Modulus (GPa) = 40.59386 46.07466 43.33426
# Shear Modulus (GPa) = 27.44135 29.90941 28.67538
#
# Velocity S-wave (km/s) = 3.56606 3.72297 3.64536
# Velocity P-wave (km/s) = 5.98060 6.31129 6.14817
#
# Compressibility (1/GPa) = 0.02463427
#
# Stress axis : x y z
#
# Youngs Moduli (GPa) = 68.58677 68.58797 128.54857
#
# Poissons Ratio (x) = 0.11261 0.28990
# Poissons Ratio (y) = 0.11261 0.28992
# Poissons Ratio (z) = 0.15467 0.15469
#
# Static dielectric constant tensor:
#      x y z
#    x 0.599380 0.000000 0.000000 
#    y 0.000000 0.599620 0.000000 
#    z 0.000000 0.000000 1.844980 
# 
# From -- ./inp_files/6402.got.cif
#   From: 2010.05.17/outbox.cif.g08.bks.cpg/sg119_4_cif.got.tgz:6402.got - 2010.05.20 11:21:29.
