data_PCOD9559714
_publ_section_title
;
Structure prediction by ZEFSAII (Michael W. Deem and Ramdas Pophale) SiO2 
 PCOD9559714
Probable space group: I -4 C 2
;
_chemical_formula_sum "Si O2"
_cell_formula_units_Z 104
_cell_length_a 17.877100
_cell_length_b 17.877100
_cell_length_c 17.146597
_cell_angle_alpha 90.000000
_cell_angle_beta 90.000000
_cell_angle_gamma 90.000000
_cell_volume 5479.893013
_symmetry_space_group_name_H-M "I -4 C 2"
_symmetry_group_IT_number 120
_symmetry_cell_setting 'tetragonal'
loop_
_space_group_symop_operation_xyz
x,y,z
y,-x,-z
-x,-y,z
-y,x,-z
y,x,1/2-z
-y,-x,1/2-z
-x,y,1/2+z
x,-y,1/2+z
1/2+x,1/2+y,1/2+z
1/2+y,1/2-x,1/2-z
1/2-x,1/2-y,1/2+z
1/2-y,1/2+x,1/2-z
1/2+y,1/2+x,-z
1/2-y,1/2-x,-z
1/2-x,1/2+y,z
1/2+x,1/2-y,z
loop_
_atom_site_type_symbol
_atom_site_label
_atom_site_fract_x
_atom_site_fract_y
_atom_site_fract_z
Si Si1 0.919878 0.803036 0.227961
Si Si2 0.405684 0.281976 0.255927
Si Si3 0.880485 0.729087 0.928754
Si Si4 0.849263 0.321174 0.840497
Si Si5 0.426683 0.046807 0.907652
Si Si6 0.772364 0.727637 0.500000
Si Si7 0.201634 0.570522 0.415490
O O1 0.881584 0.881584 0.250000
O O2 0.878022 0.744208 0.284745
O O3 0.909815 0.770078 0.140876
O O4 0.008795 0.799075 0.236763
O O5 0.355191 0.355191 0.250000
O O6 0.403857 0.256497 0.345364
O O7 0.365598 0.218486 0.202389
O O8 0.812018 0.776461 0.965918
O O9 0.849303 0.644984 0.917491
O O10 0.942650 0.727396 0.995726
O O11 0.916063 0.378858 0.857821
O O12 0.822646 0.290683 0.924870
O O13 0.500000 0.000000 0.886427
O O14 0.352627 0.997028 0.892680
O O15 0.434274 0.065726 0.000000
#
# Coordination Sequence:
#
# PCOD9559714 Si02
#       7
#    16  16  16  16  16   8  16
#     4  12  26  44  65  94 130 172 222 281 331 393
#     4  12  25  43  67  96 128 167 223 277 328 393
#     4  10  20  37  67  90 126 170 213 267 320 376
#     4  12  23  40  67  95 130 169 218 262 326 395
#     4  11  23  38  59  96 142 168 200 257 325 410
#     4  10  20  38  65  96 123 164 222 274 304 400
#     4  10  21  39  61  93 132 172 212 254 321 398
#
# _framework density 18.978473000000001
#
# number of rings (size 3 to 8) (size 9 to 14) (size 15 to 20)
#    0.000    1.077    5.385    4.154    4.308    0.308 
#    0.000    0.000    0.000    0.000    0.000    2.154 
#    0.000    0.000    0.000    0.000    0.000    0.000 
#
# Total GULP energy -290313.158475 kJ/mol
# GULP energy per Si atom -5582.945355 kJ/mol
# Density = 1.893528 g / cm^3
# Si number density = 18.978473 Si / 1000 Ang^3
#
#
#
# Elastic Constant Matrix: (Units=GPa)
#
#
# Indices 1 2 3 4 5 6 
#
# 1 62.8858 19.5794 8.1490 0.0000 0.0000 0.0000
# 2 19.5794 62.8862 8.1487 0.0000 0.0000 0.0000
# 3 8.1490 8.1487 88.9375 0.0000 0.0000 0.0000
# 4 0.0000 0.0000 0.0000 18.5172 0.0000 0.0000
# 5 0.0000 0.0000 0.0000 0.0000 18.5172 0.0000
# 6 0.0000 0.0000 0.0000 0.0000 0.0000 38.2541
#
#
#
# Elastic Compliance Matrix: (Units=1/GPa)
#
#
# Indices 1 2 3 4 5 6 
#
# 1 0.017721 -0.005371 -0.001132 0.000000 0.000000 0.000000
# 2 -0.005371 0.017720 -0.001132 0.000000 0.000000 0.000000
# 3 -0.001132 -0.001132 0.011451 0.000000 0.000000 0.000000
# 4 0.000000 0.000000 0.000000 0.054004 0.000000 0.000000
# 5 0.000000 0.000000 0.000000 0.000000 0.054004 0.000000
# 6 0.000000 0.000000 0.000000 0.000000 0.000000 0.026141
#
#
# Mechanical properties :
#
#
# Convention : Reuss Voigt Hill
#
# Bulk Modulus (GPa) = 31.62073 31.82931 31.72502
# Shear Modulus (GPa) = 24.17210 26.97986 25.57598
#
# Velocity S-wave (km/s) = 3.57271 3.77451 3.67499
# Velocity P-wave (km/s) = 5.80659 5.98361 5.89576
#
# Compressibility (1/GPa) = 0.03162483
#
# Stress axis : x y z
#
# Youngs Moduli (GPa) = 56.43146 56.43189 87.32700
#
# Poissons Ratio (x) = 0.30307 0.09882
# Poissons Ratio (y) = 0.30307 0.09881
# Poissons Ratio (z) = 0.06386 0.06385
#
# Static dielectric constant tensor:
#      x y z
#    x 1.676780 0.000000 0.000000 
#    y 0.000000 1.676780 0.000000 
#    z 0.000000 0.000000 1.680640 
# 
# From -- ./inp_files/4517.got.cif
#   From: 2010.05.17/outbox.cif.g08.bks.cpg/sg120_3_cif.got.tgz:4517.got - 2010.05.20 11:28:13.
