data_PCOD9559279
_publ_section_title
;
Structure prediction by ZEFSAII (Michael W. Deem and Ramdas Pophale) SiO2 
 PCOD9559279
Probable space group: I -4 M 2
;
_chemical_formula_sum "Si O2"
_cell_formula_units_Z 72
_cell_length_a 11.838762
_cell_length_b 11.838762
_cell_length_c 27.316140
_cell_angle_alpha 90.000000
_cell_angle_beta 90.000000
_cell_angle_gamma 90.000000
_cell_volume 3828.528722
_symmetry_space_group_name_H-M "I -4 M 2"
_symmetry_group_IT_number 119
_symmetry_cell_setting 'tetragonal'
loop_
_space_group_symop_operation_xyz
x,y,z
y,-x,-z
-x,-y,z
-y,x,-z
y,x,-z
-y,-x,-z
-x,y,z
x,-y,z
1/2+x,1/2+y,1/2+z
1/2+y,1/2-x,1/2-z
1/2-x,1/2-y,1/2+z
1/2-y,1/2+x,1/2-z
1/2+y,1/2+x,1/2-z
1/2-y,1/2-x,1/2-z
1/2-x,1/2+y,1/2+z
1/2+x,1/2-y,1/2+z
loop_
_atom_site_type_symbol
_atom_site_label
_atom_site_fract_x
_atom_site_fract_y
_atom_site_fract_z
Si Si1 0.000000 0.865759 0.844644
Si Si2 0.703446 0.870249 0.614921
Si Si3 0.247282 0.868756 0.452861
Si Si4 0.000000 0.368829 0.038986
Si Si5 0.132368 0.234158 0.209132
Si Si6 0.500000 0.209947 0.441049
O O1 0.109382 0.841211 0.811376
O O2 0.000000 0.798700 0.896423
O O3 0.000000 0.000000 0.855670
O O4 0.816700 0.815767 0.593853
O O5 0.609932 0.860492 0.572358
O O6 0.651002 0.811354 0.661736
O O7 0.723288 0.000000 0.625778
O O8 0.202888 0.797113 0.500000
O O9 0.379898 0.854266 0.440195
O O10 0.222928 0.000000 0.462254
O O11 0.000000 0.500000 0.019202
O O12 0.000000 0.267060 0.999818
O O13 0.215716 0.284285 0.250000
O O14 0.000000 0.238044 0.224623
#
# Coordination Sequence:
#
# PCOD9559279 Si02
#       6
#     8  16  16   8  16   8
#     4  10  24  46  70  96 138 172 215 289 344 395
#     4  11  22  38  62  95 132 168 214 274 332 399
#     4  12  25  41  62  91 132 179 223 269 330 397
#     4  10  20  36  62  94 132 170 212 270 330 388
#     4  11  23  43  71  98 129 168 218 277 344 400
#     4  12  22  42  66  92 128 185 228 260 335 400
#
# _framework density 18.806180000000001
#
# number of rings (size 3 to 8) (size 9 to 14) (size 15 to 20)
#    0.000    0.889    5.556    2.333    0.000    2.667 
#    4.000    0.000    2.444    0.000    0.000    0.000 
#    0.000    0.000    0.000    0.000    0.000    0.000 
#
# Total GULP energy -200734.238893 kJ/mol
# GULP energy per Si atom -5575.951080 kJ/mol
# Density = 1.876338 g / cm^3
# Si number density = 18.806180 Si / 1000 Ang^3
#
#
#
# Elastic Constant Matrix: (Units=GPa)
#
#
# Indices 1 2 3 4 5 6 
#
# 1 129.0945 53.0009 52.2864 0.0000 0.0000 0.0000
# 2 53.0009 129.0964 52.2868 0.0000 0.0000 0.0000
# 3 52.2864 52.2868 98.8315 0.0000 0.0000 0.0000
# 4 0.0000 0.0000 0.0000 24.9362 0.0000 0.0000
# 5 0.0000 0.0000 0.0000 0.0000 24.9344 0.0000
# 6 0.0000 0.0000 0.0000 0.0000 0.0000 21.5572
#
#
#
# Elastic Compliance Matrix: (Units=1/GPa)
#
#
# Indices 1 2 3 4 5 6 
#
# 1 0.010515 -0.002627 -0.004173 0.000000 0.000000 0.000000
# 2 -0.002627 0.010515 -0.004173 0.000000 0.000000 0.000000
# 3 -0.004173 -0.004173 0.014534 0.000000 0.000000 0.000000
# 4 0.000000 0.000000 0.000000 0.040102 0.000000 0.000000
# 5 0.000000 0.000000 0.000000 0.000000 0.040105 0.000000
# 6 0.000000 0.000000 0.000000 0.000000 0.000000 0.046388
#
#
# Mechanical properties :
#
#
# Convention : Reuss Voigt Hill
#
# Bulk Modulus (GPa) = 73.43568 74.68562 74.06065
# Shear Modulus (GPa) = 26.50482 27.58210 27.04346
#
# Velocity S-wave (km/s) = 3.75823 3.83384 3.79622
# Velocity P-wave (km/s) = 7.61353 7.70697 7.66039
#
# Compressibility (1/GPa) = 0.01361736
#
# Stress axis : x y z
#
# Youngs Moduli (GPa) = 95.10284 95.10418 68.80468
#
# Poissons Ratio (x) = 0.24981 0.28714
# Poissons Ratio (y) = 0.24981 0.28714
# Poissons Ratio (z) = 0.39689 0.39689
#
# Static dielectric constant tensor:
#      x y z
#    x 1.684350 0.000000 0.000000 
#    y 0.000000 1.684350 0.000000 
#    z 0.000000 0.000000 1.662890 
# 
# From -- ./inp_files/9383.got.cif
#   From: 2010.05.17/outbox.cif.g08.bks.cpg/sg119_5_cif.got.tgz:9383.got - 2010.05.20 11:21:29.
