data_PCOD9559895
_publ_section_title
;
Structure prediction by ZEFSAII (Michael W. Deem and Ramdas Pophale) SiO2 
 PCOD9559895
Probable space group: I -4 C 2
;
_chemical_formula_sum "Si O2"
_cell_formula_units_Z 96
_cell_length_a 14.065965
_cell_length_b 14.065965
_cell_length_c 21.263179
_cell_angle_alpha 90.000000
_cell_angle_beta 90.000000
_cell_angle_gamma 90.000000
_cell_volume 4206.949125
_symmetry_space_group_name_H-M "I -4 C 2"
_symmetry_group_IT_number 120
_symmetry_cell_setting 'tetragonal'
loop_
_space_group_symop_operation_xyz
x,y,z
y,-x,-z
-x,-y,z
-y,x,-z
y,x,1/2-z
-y,-x,1/2-z
-x,y,1/2+z
x,-y,1/2+z
1/2+x,1/2+y,1/2+z
1/2+y,1/2-x,1/2-z
1/2-x,1/2-y,1/2+z
1/2-y,1/2+x,1/2-z
1/2+y,1/2+x,-z
1/2-y,1/2-x,-z
1/2-x,1/2+y,z
1/2+x,1/2-y,z
loop_
_atom_site_type_symbol
_atom_site_label
_atom_site_fract_x
_atom_site_fract_y
_atom_site_fract_z
Si Si1 0.486203 0.154378 0.746254
Si Si2 0.454652 0.260763 0.629613
Si Si3 0.939506 0.591513 0.926294
Si Si4 0.381529 0.796108 0.440429
Si Si5 0.737072 0.327625 0.185751
Si Si6 0.868356 0.942847 0.983357
O O1 0.574872 0.094083 0.771103
O O2 0.516183 0.215190 0.685961
O O3 0.429927 0.225812 0.791100
O O4 0.405382 0.165973 0.601212
O O5 0.371942 0.323111 0.661872
O O6 0.514832 0.315008 0.576942
O O7 0.000000 0.500000 0.901663
O O8 0.011436 0.679131 0.918980
O O9 0.923480 0.576521 0.000000
O O10 0.364907 0.864907 0.500000
O O11 0.313559 0.795037 0.379822
O O12 0.373830 0.696247 0.475780
O O13 0.736644 0.263357 0.250000
O O14 0.968007 0.892888 0.971392
#
# Coordination Sequence:
#
# PCOD9559895 Si02
#       6
#    16  16  16  16  16  16
#     4  10  23  41  68  99 137 182 227 288 358 429
#     4  11  22  41  66  92 134 182 234 286 342 423
#     4  11  21  36  60 103 144 170 215 288 360 424
#     4  12  23  40  69 102 137 180 228 294 357 424
#     4  10  24  44  64  96 138 181 233 289 347 421
#     4  11  24  43  66  96 133 182 229 286 351 422
#
# _framework density 22.819389000000001
#
# number of rings (size 3 to 8) (size 9 to 14) (size 15 to 20)
#    0.000    1.167    5.000    1.000    7.000    2.000 
#    0.000    0.000    0.000    6.000    0.000    0.000 
#    0.000    0.000    0.000    0.000    0.000    0.000 
#
# Total GULP energy -267653.801543 kJ/mol
# GULP energy per Si atom -5576.120865 kJ/mol
# Density = 2.276745 g / cm^3
# Si number density = 22.819389 Si / 1000 Ang^3
#
#
#
# Elastic Constant Matrix: (Units=GPa)
#
#
# Indices 1 2 3 4 5 6 
#
# 1 63.3884 14.1920 42.7745 0.0000 0.0000 0.0000
# 2 14.1920 63.3885 42.7747 0.0000 0.0000 0.0000
# 3 42.7745 42.7747 159.4520 0.0000 0.0000 0.0000
# 4 0.0000 0.0000 0.0000 26.5356 0.0000 0.0000
# 5 0.0000 0.0000 0.0000 0.0000 26.5354 0.0000
# 6 0.0000 0.0000 0.0000 0.0000 0.0000 35.2870
#
#
#
# Elastic Compliance Matrix: (Units=1/GPa)
#
#
# Indices 1 2 3 4 5 6 
#
# 1 0.019316 -0.001011 -0.004910 0.000000 0.000000 0.000000
# 2 -0.001011 0.019316 -0.004910 0.000000 0.000000 0.000000
# 3 -0.004910 -0.004910 0.008906 0.000000 0.000000 0.000000
# 4 0.000000 0.000000 0.000000 0.037685 0.000000 0.000000
# 5 0.000000 0.000000 0.000000 0.000000 0.037685 0.000000
# 6 0.000000 0.000000 0.000000 0.000000 0.000000 0.028339
#
#
# Mechanical properties :
#
#
# Convention : Reuss Voigt Hill
#
# Bulk Modulus (GPa) = 38.64937 53.96792 46.30865
# Shear Modulus (GPa) = 27.54286 30.10411 28.82348
#
# Velocity S-wave (km/s) = 3.47795 3.63607 3.55789
# Velocity P-wave (km/s) = 5.75344 6.42879 6.10047
#
# Compressibility (1/GPa) = 0.02587364
#
# Stress axis : x y z
#
# Youngs Moduli (GPa) = 51.77152 51.77150 112.28377
#
# Poissons Ratio (x) = 0.05234 0.55136
# Poissons Ratio (y) = 0.05234 0.55136
# Poissons Ratio (z) = 0.25422 0.25422
#
# Static dielectric constant tensor:
#      x y z
#    x 1.873430 0.000000 0.000000 
#    y 0.000000 1.873430 0.000000 
#    z 0.000000 0.000000 1.917730 
# 
# From -- ./inp_files/5365.got.cif
#   From: 2010.05.17/outbox.cif.g08.bks.cpg/sg120_3_cif.got.tgz:5365.got - 2010.05.20 11:28:13.
