data_PCOD9559263
_publ_section_title
;
Structure prediction by ZEFSAII (Michael W. Deem and Ramdas Pophale) SiO2 
 PCOD9559263
Probable space group: I -4 M 2
;
_chemical_formula_sum "Si O2"
_cell_formula_units_Z 84
_cell_length_a 14.359419
_cell_length_b 14.359419
_cell_length_c 23.964691
_cell_angle_alpha 90.000000
_cell_angle_beta 90.000000
_cell_angle_gamma 90.000000
_cell_volume 4941.349471
_symmetry_space_group_name_H-M "I -4 M 2"
_symmetry_group_IT_number 119
_symmetry_cell_setting 'tetragonal'
loop_
_space_group_symop_operation_xyz
x,y,z
y,-x,-z
-x,-y,z
-y,x,-z
y,x,-z
-y,-x,-z
-x,y,z
x,-y,z
1/2+x,1/2+y,1/2+z
1/2+y,1/2-x,1/2-z
1/2-x,1/2-y,1/2+z
1/2-y,1/2+x,1/2-z
1/2+y,1/2+x,1/2-z
1/2-y,1/2-x,1/2-z
1/2-x,1/2+y,1/2+z
1/2+x,1/2-y,1/2+z
loop_
_atom_site_type_symbol
_atom_site_label
_atom_site_fract_x
_atom_site_fract_y
_atom_site_fract_z
Si Si1 0.177319 0.722900 0.844955
Si Si2 0.388542 0.000000 0.106917
Si Si3 0.193501 0.894765 0.262059
Si Si4 0.826993 0.500000 0.478241
Si Si5 0.000000 0.500000 0.393529
Si Si6 0.702946 0.795690 0.551041
Si Si7 0.707215 0.000000 0.602287
Si Si8 0.604499 0.500000 0.175542
O O1 0.141931 0.799440 0.800849
O O2 0.243794 0.660768 0.806006
O O3 0.235428 0.766199 0.895657
O O4 0.091428 0.661155 0.867441
O O5 0.500000 0.000000 0.116618
O O6 0.368356 0.000000 0.040547
O O7 0.090361 0.891888 0.285917
O O8 0.228806 0.000000 0.261224
O O9 0.774094 0.403149 0.467553
O O10 0.910228 0.500000 0.433289
O O11 0.000000 0.395364 0.366365
O O12 0.769758 0.769758 0.500000
O O13 0.708358 0.905086 0.566362
O O14 0.802583 0.000000 0.637826
O O15 0.500000 0.500000 0.147636
#
# Coordination Sequence:
#
# PCOD9559263 Si02
#       8
#    16   8  16   8   4  16   8   8
#     4  11  22  37  60  84 117 153 194 246 296 348
#     4  12  22  36  59  87 117 157 200 244 299 362
#     4  10  21  39  57  85 114 151 193 240 293 355
#     4  10  20  35  58  87 119 154 198 237 299 345
#     4   8  18  34  60  82 119 153 194 248 286 352
#     4  11  22  38  61  88 121 159 197 251 293 359
#     4  10  20  40  57  88 119 161 203 241 306 349
#     4  10  20  37  63  82 117 157 193 240 298 360
#
# _framework density 16.999403999999998
#
# number of rings (size 3 to 8) (size 9 to 14) (size 15 to 20)
#    0.000    1.524    5.238    0.571    0.000    0.762 
#    3.429    0.000    0.000    2.571    0.000    0.000 
#    0.000    0.000    0.000    0.000    0.000    0.000 
#
# Total GULP energy -234000.559092 kJ/mol
# GULP energy per Si atom -5571.441883 kJ/mol
# Density = 1.696071 g / cm^3
# Si number density = 16.999404 Si / 1000 Ang^3
#
#
#
# Elastic Constant Matrix: (Units=GPa)
#
#
# Indices 1 2 3 4 5 6 
#
# 1 116.1636 37.7107 42.7410 0.0000 0.0000 0.0000
# 2 37.7107 116.1636 42.7410 0.0000 0.0000 0.0000
# 3 42.7410 42.7410 89.8500 0.0000 0.0000 0.0000
# 4 0.0000 0.0000 0.0000 18.5996 0.0000 0.0000
# 5 0.0000 0.0000 0.0000 0.0000 18.5996 0.0000
# 6 0.0000 0.0000 0.0000 0.0000 0.0000 20.8332
#
#
#
# Elastic Compliance Matrix: (Units=1/GPa)
#
#
# Indices 1 2 3 4 5 6 
#
# 1 0.010790 -0.001957 -0.004202 0.000000 0.000000 0.000000
# 2 -0.001957 0.010790 -0.004202 0.000000 0.000000 0.000000
# 3 -0.004202 -0.004202 0.015127 0.000000 0.000000 0.000000
# 4 0.000000 0.000000 0.000000 0.053764 0.000000 0.000000
# 5 0.000000 0.000000 0.000000 0.000000 0.053764 0.000000
# 6 0.000000 0.000000 0.000000 0.000000 0.000000 0.048000
#
#
# Mechanical properties :
#
#
# Convention : Reuss Voigt Hill
#
# Bulk Modulus (GPa) = 62.55460 63.17364 62.86412
# Shear Modulus (GPa) = 22.90579 24.87214 23.88896
#
# Velocity S-wave (km/s) = 3.67474 3.82922 3.75278
# Velocity P-wave (km/s) = 7.40830 7.53615 7.47250
#
# Compressibility (1/GPa) = 0.01598603
#
# Stress axis : x y z
#
# Youngs Moduli (GPa) = 92.68034 92.68034 66.10604
#
# Poissons Ratio (x) = 0.18135 0.27777
# Poissons Ratio (y) = 0.18135 0.27777
# Poissons Ratio (z) = 0.38943 0.38943
#
# Static dielectric constant tensor:
#      x y z
#    x 1.591760 0.000000 0.000000 
#    y 0.000000 1.591760 0.000000 
#    z 0.000000 0.000000 1.548310 
# 
# From -- ./inp_files/7749.got.cif
#   From: 2010.05.17/outbox.cif.g08.bks.cpg/sg119_4_cif.got.tgz:7749.got - 2010.05.20 11:21:29.
