data_PCOD9559974
_publ_section_title
;
Structure prediction by ZEFSAII (Michael W. Deem and Ramdas Pophale) SiO2 
 PCOD9559974
Probable space group: I -4 C 2
;
_chemical_formula_sum "Si O2"
_cell_formula_units_Z 84
_cell_length_a 24.756693
_cell_length_b 24.756693
_cell_length_c 9.034125
_cell_angle_alpha 90.000000
_cell_angle_beta 90.000000
_cell_angle_gamma 90.000000
_cell_volume 5536.959637
_symmetry_space_group_name_H-M "I -4 C 2"
_symmetry_group_IT_number 120
_symmetry_cell_setting 'tetragonal'
loop_
_space_group_symop_operation_xyz
x,y,z
y,-x,-z
-x,-y,z
-y,x,-z
y,x,1/2-z
-y,-x,1/2-z
-x,y,1/2+z
x,-y,1/2+z
1/2+x,1/2+y,1/2+z
1/2+y,1/2-x,1/2-z
1/2-x,1/2-y,1/2+z
1/2-y,1/2+x,1/2-z
1/2+y,1/2+x,-z
1/2-y,1/2-x,-z
1/2-x,1/2+y,z
1/2+x,1/2-y,z
loop_
_atom_site_type_symbol
_atom_site_label
_atom_site_fract_x
_atom_site_fract_y
_atom_site_fract_z
Si Si1 0.555345 0.699601 0.928091
Si Si2 0.055344 0.199601 0.071911
Si Si3 0.000000 0.000000 0.500000
Si Si4 0.666342 0.244411 0.072780
Si Si5 0.166342 0.255589 0.427220
Si Si6 0.587143 0.412858 0.580245
O O1 0.551287 0.695415 0.750001
O O2 0.605928 0.737879 0.965859
O O3 0.500000 0.719503 0.000002
O O4 0.566744 0.640322 0.995360
O O5 0.105928 0.237879 0.034143
O O6 0.066743 0.140322 0.004640
O O7 0.958966 0.958965 0.580830
O O8 0.706122 0.293877 0.029163
O O9 0.669254 0.239302 0.250000
O O10 0.691065 0.191065 0.000000
O O11 0.191066 0.308935 0.500000
O O12 0.600504 0.399497 0.750000
#
# Coordination Sequence:
#
# PCOD9559974 Si02
#       6
#    16  16   4  16  16  16
#     4  11  22  36  51  71 100 128 164 209 250 293
#     4  11  22  36  51  71 100 128 164 209 250 293
#     4  12  26  36  48  66  90 128 182 216 250 272
#     4   9  18  33  51  72  97 126 160 206 251 296
#     4   9  18  33  51  72  97 126 160 206 251 296
#     4  12  24  35  49  66  91 129 172 215 253 288
#
# _framework density 15.170781
#
# number of rings (size 3 to 8) (size 9 to 14) (size 15 to 20)
#    0.000    1.524    3.810    2.000    0.000    4.571 
#    0.000    0.000    0.000    0.000    0.000    0.000 
#    0.000    0.762    0.000    8.381    0.000    6.095 
#
# Total GULP energy -234362.512582 kJ/mol
# GULP energy per Si atom -5580.059823 kJ/mol
# Density = 1.513625 g / cm^3
# Si number density = 15.170781 Si / 1000 Ang^3
#
#
#
# Elastic Constant Matrix: (Units=GPa)
#
#
# Indices 1 2 3 4 5 6 
#
# 1 105.3087 72.0489 45.6514 0.0000 0.0000 0.0000
# 2 72.0489 105.3058 45.6519 0.0000 0.0000 0.0000
# 3 45.6514 45.6519 66.2322 0.0000 0.0000 0.0000
# 4 0.0000 0.0000 0.0000 17.1579 0.0000 0.0000
# 5 0.0000 0.0000 0.0000 0.0000 17.1576 0.0000
# 6 0.0000 0.0000 0.0000 0.0000 0.0000 33.4416
#
#
#
# Elastic Compliance Matrix: (Units=1/GPa)
#
#
# Indices 1 2 3 4 5 6 
#
# 1 0.019403 -0.010664 -0.006023 0.000000 0.000000 0.000000
# 2 -0.010664 0.019404 -0.006024 0.000000 0.000000 0.000000
# 3 -0.006023 -0.006024 0.023402 0.000000 0.000000 0.000000
# 4 0.000000 0.000000 0.000000 0.058282 0.000000 0.000000
# 5 0.000000 0.000000 0.000000 0.000000 0.058283 0.000000
# 6 0.000000 0.000000 0.000000 0.000000 0.000000 0.029903
#
#
# Mechanical properties :
#
#
# Convention : Reuss Voigt Hill
#
# Bulk Modulus (GPa) = 59.57317 67.06121 63.31719
# Shear Modulus (GPa) = 19.25324 21.11772 20.18548
#
# Velocity S-wave (km/s) = 3.56631 3.73500 3.65163
# Velocity P-wave (km/s) = 7.50411 7.93098 7.72050
#
# Compressibility (1/GPa) = 0.01678608
#
# Stress axis : x y z
#
# Youngs Moduli (GPa) = 51.53829 51.53582 42.73067
#
# Poissons Ratio (x) = 0.54958 0.25738
# Poissons Ratio (y) = 0.54961 0.25742
# Poissons Ratio (z) = 0.31043 0.31046
#
# Static dielectric constant tensor:
#      x y z
#    x 1.499990 0.000000 0.000000 
#    y 0.000000 1.499990 0.000000 
#    z 0.000000 0.000000 1.513230 
# 
# From -- ./inp_files/1473.got.cif
#   From: 2010.05.17/outbox.cif.g08.bks.cpg/sg120_1_cif.got.tgz:1473.got - 2010.05.20 11:28:13.
