data_PCOD9559469
_publ_section_title
;
Structure prediction by ZEFSAII (Michael W. Deem and Ramdas Pophale) SiO2 
 PCOD9559469
Probable space group: I -4 M 2
;
_chemical_formula_sum "Si O2"
_cell_formula_units_Z 112
_cell_length_a 14.349841
_cell_length_b 14.349841
_cell_length_c 29.781780
_cell_angle_alpha 90.000000
_cell_angle_beta 90.000000
_cell_angle_gamma 90.000000
_cell_volume 6132.602690
_symmetry_space_group_name_H-M "I -4 M 2"
_symmetry_group_IT_number 119
_symmetry_cell_setting 'tetragonal'
loop_
_space_group_symop_operation_xyz
x,y,z
y,-x,-z
-x,-y,z
-y,x,-z
y,x,-z
-y,-x,-z
-x,y,z
x,-y,z
1/2+x,1/2+y,1/2+z
1/2+y,1/2-x,1/2-z
1/2-x,1/2-y,1/2+z
1/2-y,1/2+x,1/2-z
1/2+y,1/2+x,1/2-z
1/2-y,1/2-x,1/2-z
1/2-x,1/2+y,1/2+z
1/2+x,1/2-y,1/2+z
loop_
_atom_site_type_symbol
_atom_site_label
_atom_site_fract_x
_atom_site_fract_y
_atom_site_fract_z
Si Si1 0.193657 0.111633 0.718663
Si Si2 0.396127 0.107996 0.360971
Si Si3 0.891820 0.184894 0.625439
Si Si4 0.886705 0.397690 0.419633
Si Si5 0.288434 0.390335 0.040085
Si Si6 0.606726 0.759507 0.276985
Si Si7 0.887544 0.397593 0.315952
O O1 0.143364 0.158552 0.675348
O O2 0.156041 0.162581 0.763423
O O3 0.302391 0.131880 0.709446
O O4 0.178680 0.000000 0.718878
O O5 0.500000 0.112449 0.382973
O O6 0.295944 0.117182 0.384878
O O7 0.394084 0.194350 0.326158
O O8 0.392605 0.000000 0.341778
O O9 0.837504 0.127681 0.587831
O O10 0.000000 0.160951 0.623032
O O11 0.859036 0.500000 0.434827
O O12 0.855304 0.316276 0.451877
O O13 0.856542 0.386279 0.367747
O O14 0.000000 0.393586 0.418301
O O15 0.288187 0.500000 0.030416
O O16 0.338761 0.338761 0.000000
O O17 0.500000 0.751907 0.262098
O O18 0.663069 0.836932 0.250000
O O19 0.854279 0.500000 0.299054
O O20 0.000000 0.403548 0.316401
#
# Coordination Sequence:
#
# PCOD9559469 Si02
#       7
#    16  16  16  16  16  16  16
#     4  11  21  33  51  78 110 144 183 223 267 323
#     4   9  19  37  60  81 100 130 177 234 285 323
#     4  11  21  34  53  76 105 143 182 218 259 321
#     4   8  14  28  50  72  94 128 176 223 261 297
#     4  11  22  35  51  78 115 150 178 211 259 325
#     4  11  21  34  52  74 101 133 175 225 272 321
#     4   8  14  28  51  74  96 129 177 226 262 298
#
# _framework density 18.263045999999999
#
# number of rings (size 3 to 8) (size 9 to 14) (size 15 to 20)
#    0.000    2.143    2.857    2.571    0.000    3.429 
#    0.000    1.429    0.000    4.286    0.000    0.000 
#    0.000    1.429    0.000    0.000    0.000    0.000 
#
# Total GULP energy -311952.111159 kJ/mol
# GULP energy per Si atom -5570.573414 kJ/mol
# Density = 1.822148 g / cm^3
# Si number density = 18.263046 Si / 1000 Ang^3
#
#
#
# Elastic Constant Matrix: (Units=GPa)
#
#
# Indices 1 2 3 4 5 6 
#
# 1 102.9445 27.4844 16.5634 0.0000 0.0000 0.0000
# 2 27.4844 102.9444 16.5636 0.0000 0.0000 0.0000
# 3 16.5634 16.5636 36.4089 0.0000 0.0000 0.0000
# 4 0.0000 0.0000 0.0000 22.3746 0.0000 0.0000
# 5 0.0000 0.0000 0.0000 0.0000 22.3744 0.0000
# 6 0.0000 0.0000 0.0000 0.0000 0.0000 15.5875
#
#
#
# Elastic Compliance Matrix: (Units=1/GPa)
#
#
# Indices 1 2 3 4 5 6 
#
# 1 0.010960 -0.002292 -0.003944 0.000000 0.000000 0.000000
# 2 -0.002292 0.010960 -0.003944 0.000000 0.000000 0.000000
# 3 -0.003944 -0.003944 0.031054 0.000000 0.000000 0.000000
# 4 0.000000 0.000000 0.000000 0.044694 0.000000 0.000000
# 5 0.000000 0.000000 0.000000 0.000000 0.044694 0.000000
# 6 0.000000 0.000000 0.000000 0.000000 0.000000 0.064154
#
#
# Mechanical properties :
#
#
# Convention : Reuss Voigt Hill
#
# Bulk Modulus (GPa) = 30.65911 40.39118 35.52515
# Shear Modulus (GPa) = 21.03085 24.17973 22.60529
#
# Velocity S-wave (km/s) = 3.39713 3.64259 3.52200
# Velocity P-wave (km/s) = 5.67550 6.31313 6.00279
#
# Compressibility (1/GPa) = 0.03261673
#
# Stress axis : x y z
#
# Youngs Moduli (GPa) = 91.23818 91.23788 32.20207
#
# Poissons Ratio (x) = 0.20909 0.12699
# Poissons Ratio (y) = 0.20909 0.12699
# Poissons Ratio (z) = 0.35980 0.35981
#
# Static dielectric constant tensor:
#      x y z
#    x 1.661230 0.000000 0.000000 
#    y 0.000000 1.661230 0.000000 
#    z 0.000000 0.000000 1.651370 
# 
# From -- ./inp_files/9605.got.cif
#   From: 2010.05.17/outbox.cif.g08.bks.cpg/sg119_5_cif.got.tgz:9605.got - 2010.05.20 11:21:29.
