data_PCOD9559165
_publ_section_title
;
Structure prediction by ZEFSAII (Michael W. Deem and Ramdas Pophale) SiO2 
 PCOD9559165
Probable space group: I -4 M 2
;
_chemical_formula_sum "Si O2"
_cell_formula_units_Z 112
_cell_length_a 23.987784
_cell_length_b 23.987784
_cell_length_c 12.611414
_cell_angle_alpha 90.000000
_cell_angle_beta 90.000000
_cell_angle_gamma 90.000000
_cell_volume 7256.781416
_symmetry_space_group_name_H-M "I -4 M 2"
_symmetry_group_IT_number 119
_symmetry_cell_setting 'tetragonal'
loop_
_space_group_symop_operation_xyz
x,y,z
y,-x,-z
-x,-y,z
-y,x,-z
y,x,-z
-y,-x,-z
-x,y,z
x,-y,z
1/2+x,1/2+y,1/2+z
1/2+y,1/2-x,1/2-z
1/2-x,1/2-y,1/2+z
1/2-y,1/2+x,1/2-z
1/2+y,1/2+x,1/2-z
1/2-y,1/2-x,1/2-z
1/2-x,1/2+y,1/2+z
1/2+x,1/2-y,1/2+z
loop_
_atom_site_type_symbol
_atom_site_label
_atom_site_fract_x
_atom_site_fract_y
_atom_site_fract_z
Si Si1 0.564153 0.761178 0.111908
Si Si2 0.627366 0.278290 0.519582
Si Si3 0.264870 0.291257 0.161952
Si Si4 0.346884 0.562790 0.039010
Si Si5 0.197821 0.323715 0.961426
Si Si6 0.064659 0.816074 0.814786
Si Si7 0.614085 0.664957 0.739097
O O1 0.500000 0.782066 0.107837
O O2 0.613262 0.804548 0.081899
O O3 0.573649 0.732018 0.226116
O O4 0.568583 0.709622 0.029181
O O5 0.682592 0.317409 0.500000
O O6 0.646512 0.214389 0.500887
O O7 0.584095 0.293777 0.428423
O O8 0.604957 0.296809 0.635158
O O9 0.218344 0.281657 0.250000
O O10 0.287908 0.231426 0.126202
O O11 0.312675 0.328239 0.211238
O O12 0.239331 0.322418 0.061834
O O13 0.368075 0.500000 0.020551
O O14 0.334118 0.571489 0.163697
O O15 0.390742 0.609259 0.000000
O O16 0.102185 0.870437 0.792821
O O17 0.000000 0.830158 0.811622
#
# Coordination Sequence:
#
# PCOD9559165 Si02
#       7
#    16  16  16  16  16  16  16
#     4  10  20  31  46  67  94 129 160 185 238 296
#     4  10  20  31  46  73  94 120 162 197 242 295
#     4  11  17  26  42  69  98 119 146 189 236 290
#     4  11  21  33  48  67  90 122 162 208 253 287
#     4  11  18  27  45  69  98 124 148 190 240 283
#     4  10  20  33  47  62  91 128 157 195 237 291
#     4  11  19  32  48  68  91 121 160 200 240 299
#
# _framework density 15.43384
#
# number of rings (size 3 to 8) (size 9 to 14) (size 15 to 20)
#    0.000    1.429    7.143    0.857    0.000    0.714 
#    0.000    0.000    0.000    0.000    0.000    0.000 
#    0.000    0.571    0.000    3.143    0.000    2.429 
#
# Total GULP energy -311987.819141 kJ/mol
# GULP energy per Si atom -5571.211056 kJ/mol
# Density = 1.539871 g / cm^3
# Si number density = 15.433840 Si / 1000 Ang^3
#
#
#
# Elastic Constant Matrix: (Units=GPa)
#
#
# Indices 1 2 3 4 5 6 
#
# 1 37.2809 -1.2407 13.8843 0.0000 0.0000 0.0000
# 2 -1.2407 37.2784 13.8846 0.0000 0.0000 0.0000
# 3 13.8843 13.8846 106.2588 0.0000 0.0000 0.0000
# 4 0.0000 0.0000 0.0000 14.6766 0.0000 0.0000
# 5 0.0000 0.0000 0.0000 0.0000 14.6766 0.0000
# 6 0.0000 0.0000 0.0000 0.0000 0.0000 10.7580
#
#
#
# Elastic Compliance Matrix: (Units=1/GPa)
#
#
# Indices 1 2 3 4 5 6 
#
# 1 0.028406 0.002447 -0.004031 0.000000 0.000000 0.000000
# 2 0.002447 0.028408 -0.004032 0.000000 0.000000 0.000000
# 3 -0.004031 -0.004032 0.010465 0.000000 0.000000 0.000000
# 4 0.000000 0.000000 0.000000 0.068135 0.000000 0.000000
# 5 0.000000 0.000000 0.000000 0.000000 0.068136 0.000000
# 6 0.000000 0.000000 0.000000 0.000000 0.000000 0.092954
#
#
# Mechanical properties :
#
#
# Convention : Reuss Voigt Hill
#
# Bulk Modulus (GPa) = 17.84228 25.98605 21.91417
# Shear Modulus (GPa) = 15.31772 18.30824 16.81298
#
# Velocity S-wave (km/s) = 3.15378 3.44792 3.30412
# Velocity P-wave (km/s) = 4.98471 5.72053 5.36525
#
# Compressibility (1/GPa) = 0.05604663
#
# Stress axis : x y z
#
# Youngs Moduli (GPa) = 35.20353 35.20097 95.56048
#
# Poissons Ratio (x) = -0.08614 0.38525
# Poissons Ratio (y) = -0.08614 0.38528
# Poissons Ratio (z) = 0.14192 0.14192
#
# Static dielectric constant tensor:
#      x y z
#    x 1.519750 0.000000 0.000000 
#    y 0.000000 1.519750 0.000000 
#    z 0.000000 0.000000 1.502660 
# 
# From -- ./inp_files/4364.got.cif
#   From: 2010.05.17/outbox.cif.g08.bks.cpg/sg119_3_cif.got.tgz:4364.got - 2010.05.20 11:21:29.
