data_PCOD9559693
_publ_section_title
;
Structure prediction by ZEFSAII (Michael W. Deem and Ramdas Pophale) SiO2 
 PCOD9559693
Probable space group: I -4 C 2
;
_chemical_formula_sum "Si O2"
_cell_formula_units_Z 52
_cell_length_a 14.992336
_cell_length_b 14.992336
_cell_length_c 9.510093
_cell_angle_alpha 90.000000
_cell_angle_beta 90.000000
_cell_angle_gamma 90.000000
_cell_volume 2137.584923
_symmetry_space_group_name_H-M "I -4 C 2"
_symmetry_group_IT_number 120
_symmetry_cell_setting 'tetragonal'
loop_
_space_group_symop_operation_xyz
x,y,z
y,-x,-z
-x,-y,z
-y,x,-z
y,x,1/2-z
-y,-x,1/2-z
-x,y,1/2+z
x,-y,1/2+z
1/2+x,1/2+y,1/2+z
1/2+y,1/2-x,1/2-z
1/2-x,1/2-y,1/2+z
1/2-y,1/2+x,1/2-z
1/2+y,1/2+x,-z
1/2-y,1/2-x,-z
1/2-x,1/2+y,z
1/2+x,1/2-y,z
loop_
_atom_site_type_symbol
_atom_site_label
_atom_site_fract_x
_atom_site_fract_y
_atom_site_fract_z
Si Si1 0.226136 0.607443 0.334052
Si Si2 0.316736 0.040592 0.632211
Si Si3 0.500000 0.000000 0.750000
Si Si4 0.585700 0.410412 0.088109
O O1 0.144002 0.676445 0.310325
O O2 0.242782 0.532630 0.213617
O O3 0.194151 0.549474 0.467137
O O4 0.320112 0.644472 0.394215
O O5 0.412755 0.999017 0.658640
O O6 0.565478 0.434523 0.250000
O O7 0.493730 0.383498 0.006268
#
# Coordination Sequence:
#
# PCOD9559693 Si02
#       4
#    16  16   4  16
#     4  10  20  36  56  86 117 152 192 239 293 354
#     4   9  19  33  56  85 121 154 188 232 288 353
#     4   8  16  30  52  82 116 158 196 218 264 362
#     4  11  23  41  63  82 107 150 206 255 294 345
#
# _framework density 24.326518
#
# number of rings (size 3 to 8) (size 9 to 14) (size 15 to 20)
#    0.000    2.154    0.000    3.692    0.000   18.462 
#    0.000    6.154    0.000    0.000    0.000    0.000 
#    0.000    0.000    0.000    0.000    0.000    0.000 
#
# Total GULP energy -144754.791428 kJ/mol
# GULP energy per Si atom -5567.491978 kJ/mol
# Density = 2.427115 g / cm^3
# Si number density = 24.326518 Si / 1000 Ang^3
#
#
#
# Elastic Constant Matrix: (Units=GPa)
#
#
# Indices 1 2 3 4 5 6 
#
# 1 67.7185 11.8649 -2.8375 0.0000 0.0000 0.0000
# 2 11.8649 67.7173 -2.8377 0.0000 0.0000 0.0000
# 3 -2.8375 -2.8377 134.8231 0.0000 0.0000 0.0000
# 4 0.0000 0.0000 0.0000 26.1741 0.0000 0.0000
# 5 0.0000 0.0000 0.0000 0.0000 26.1739 0.0000
# 6 0.0000 0.0000 0.0000 0.0000 0.0000 34.3225
#
#
#
# Elastic Compliance Matrix: (Units=1/GPa)
#
#
# Indices 1 2 3 4 5 6 
#
# 1 0.015244 -0.002660 0.000265 0.000000 0.000000 0.000000
# 2 -0.002660 0.015244 0.000265 0.000000 0.000000 0.000000
# 3 0.000265 0.000265 0.007428 0.000000 0.000000 0.000000
# 4 0.000000 0.000000 0.000000 0.038206 0.000000 0.000000
# 5 0.000000 0.000000 0.000000 0.000000 0.038206 0.000000
# 6 0.000000 0.000000 0.000000 0.000000 0.000000 0.029135
#
#
# Mechanical properties :
#
#
# Convention : Reuss Voigt Hill
#
# Bulk Modulus (GPa) = 29.71190 31.40427 30.55809
# Shear Modulus (GPa) = 31.45779 34.93871 33.19825
#
# Velocity S-wave (km/s) = 3.59994 3.79389 3.69818
# Velocity P-wave (km/s) = 5.43320 5.66824 5.55197
#
# Compressibility (1/GPa) = 0.03365654
#
# Stress axis : x y z
#
# Youngs Moduli (GPa) = 65.59901 65.59781 134.62079
#
# Poissons Ratio (x) = 0.17448 -0.03565
# Poissons Ratio (y) = 0.17448 -0.03566
# Poissons Ratio (z) = -0.01737 -0.01738
#
# Static dielectric constant tensor:
#      x y z
#    x 2.118310 0.000000 0.000000 
#    y 0.000000 2.118300 0.000000 
#    z 0.000000 0.000000 1.920040 
# 
# From -- ./inp_files/987.got.cif
#   From: 2010.05.17/outbox.cif.g08.bks.cpg/sg120_1_cif.got.tgz:987.got - 2010.05.20 11:28:13.
