data_PCOD9559395
_publ_section_title
;
Structure prediction by ZEFSAII (Michael W. Deem and Ramdas Pophale) SiO2 
 PCOD9559395
Probable space group: I -4 M 2
;
_chemical_formula_sum "Si O2"
_cell_formula_units_Z 80
_cell_length_a 27.352621
_cell_length_b 27.352621
_cell_length_c 5.412313
_cell_angle_alpha 90.000000
_cell_angle_beta 90.000000
_cell_angle_gamma 90.000000
_cell_volume 4049.307895
_symmetry_space_group_name_H-M "I -4 M 2"
_symmetry_group_IT_number 119
_symmetry_cell_setting 'tetragonal'
loop_
_space_group_symop_operation_xyz
x,y,z
y,-x,-z
-x,-y,z
-y,x,-z
y,x,-z
-y,-x,-z
-x,y,z
x,-y,z
1/2+x,1/2+y,1/2+z
1/2+y,1/2-x,1/2-z
1/2-x,1/2-y,1/2+z
1/2-y,1/2+x,1/2-z
1/2+y,1/2+x,1/2-z
1/2-y,1/2-x,1/2-z
1/2-x,1/2+y,1/2+z
1/2+x,1/2-y,1/2+z
loop_
_atom_site_type_symbol
_atom_site_label
_atom_site_fract_x
_atom_site_fract_y
_atom_site_fract_z
Si Si1 0.869679 0.369679 0.750000
Si Si2 0.442632 0.134478 0.630979
Si Si3 0.180706 0.101650 0.473125
Si Si4 0.636229 0.442298 0.475587
Si Si5 0.785555 0.379006 0.131193
Si Si6 0.227411 0.727411 0.250000
O O1 0.864919 0.424694 0.651775
O O2 0.860520 0.329269 0.544125
O O3 0.500000 0.128088 0.667027
O O4 0.409389 0.090612 0.750000
O O5 0.422258 0.186673 0.726374
O O6 0.154712 0.154712 0.500000
O O7 0.160573 0.073046 0.714625
O O8 0.238826 0.102985 0.484379
O O9 0.165087 0.078509 0.212976
O O10 0.583792 0.416209 0.500000
O O11 0.633085 0.500000 0.489727
O O12 0.766113 0.331356 0.276030
O O13 0.246789 0.753211 0.500000
#
# Coordination Sequence:
#
# PCOD9559395 Si02
#       6
#     8  16  16  16  16   8
#     4  10  21  42  64  93 131 164 222 275 324 388
#     4  10  23  43  67  92 129 168 218 282 339 400
#     4  10  23  39  60  90 130 169 210 264 320 383
#     4  10  22  41  62  89 123 162 211 267 321 381
#     4  11  23  41  62  92 132 170 219 265 323 393
#     4  12  25  38  68 100 132 178 223 267 326 386
#
# _framework density 19.756463
#
# number of rings (size 3 to 8) (size 9 to 14) (size 15 to 20)
#    0.000    1.600    3.000    1.800    2.800    7.600 
#    0.000    0.000    0.000    3.600    0.000    0.000 
#    0.000    0.000    0.000    0.000    0.000    0.000 
#
# Total GULP energy -223080.411980 kJ/mol
# GULP energy per Si atom -5577.010300 kJ/mol
# Density = 1.971150 g / cm^3
# Si number density = 19.756463 Si / 1000 Ang^3
#
#
#
# Elastic Constant Matrix: (Units=GPa)
#
#
# Indices 1 2 3 4 5 6 
#
# 1 122.6186 24.3499 1.9302 0.0000 0.0000 0.0000
# 2 24.3499 122.5816 1.9079 0.0000 0.0000 0.0000
# 3 1.9302 1.9079 49.9929 0.0000 0.0000 0.0000
# 4 0.0000 0.0000 0.0000 0.0500 0.0000 0.0000
# 5 0.0000 0.0000 0.0000 0.0000 0.0302 0.0000
# 6 0.0000 0.0000 0.0000 0.0000 0.0000 8.7389
#
#
#
# Elastic Compliance Matrix: (Units=1/GPa)
#
#
# Indices 1 2 3 4 5 6 
#
# 1 0.008494 -0.001683 -0.000264 0.000000 0.000000 0.000000
# 2 -0.001683 0.008496 -0.000259 0.000000 0.000000 0.000000
# 3 -0.000264 -0.000259 0.020023 0.000000 0.000000 0.000000
# 4 0.000000 0.000000 0.000000 20.000631 0.000000 0.000000
# 5 0.000000 0.000000 0.000000 0.000000 33.080694 0.000000
# 6 0.000000 0.000000 0.000000 0.000000 0.000000 0.114430
#
#
# Mechanical properties :
#
#
# Convention : Reuss Voigt Hill
#
# Bulk Modulus (GPa) = 30.67416 39.06322 34.86869
# Shear Modulus (GPa) = 0.09390 19.56417 9.82904
#
# Velocity S-wave (km/s) = 0.21825 3.15026 2.23291
# Velocity P-wave (km/s) = 3.95264 5.74870 4.93310
#
# Compressibility (1/GPa) = 0.03260073
#
# Stress axis : x y z
#
# Youngs Moduli (GPa) = 117.73349 117.69965 49.94273
#
# Poissons Ratio (x) = 0.19810 0.01317
# Poissons Ratio (y) = 0.19816 0.01295
# Poissons Ratio (z) = 0.03105 0.03051
#
# Static dielectric constant tensor:
#      x y z
#    x 1.700090 0.000000 0.000000 
#    y 0.000000 1.700080 0.000000 
#    z 0.000000 0.000000 1.759270 
# 
# From -- ./inp_files/1043.got.cif
#   From: 2010.05.17/outbox.cif.g08.bks.cpg/sg119_1_cif.got.tgz:1043.got - 2010.05.20 11:21:29.
