data_PCOD9559382
_publ_section_title
;
Structure prediction by ZEFSAII (Michael W. Deem and Ramdas Pophale) SiO2 
 PCOD9559382
Probable space group: I -4 M 2
;
_chemical_formula_sum "Si O2"
_cell_formula_units_Z 56
_cell_length_a 15.421647
_cell_length_b 15.421647
_cell_length_c 10.665072
_cell_angle_alpha 90.000000
_cell_angle_beta 90.000000
_cell_angle_gamma 90.000000
_cell_volume 2536.444171
_symmetry_space_group_name_H-M "I -4 M 2"
_symmetry_group_IT_number 119
_symmetry_cell_setting 'tetragonal'
loop_
_space_group_symop_operation_xyz
x,y,z
y,-x,-z
-x,-y,z
-y,x,-z
y,x,-z
-y,-x,-z
-x,y,z
x,-y,z
1/2+x,1/2+y,1/2+z
1/2+y,1/2-x,1/2-z
1/2-x,1/2-y,1/2+z
1/2-y,1/2+x,1/2-z
1/2+y,1/2+x,1/2-z
1/2-y,1/2-x,1/2-z
1/2-x,1/2+y,1/2+z
1/2+x,1/2-y,1/2+z
loop_
_atom_site_type_symbol
_atom_site_label
_atom_site_fract_x
_atom_site_fract_y
_atom_site_fract_z
Si Si1 0.101495 0.898505 0.000000
Si Si2 0.099016 0.865103 0.721146
Si Si3 0.206714 0.399618 0.149899
Si Si4 0.674011 0.096078 0.375345
O O1 0.149235 0.881679 0.130443
O O2 0.000000 0.885315 0.031770
O O3 0.188080 0.902834 0.663707
O O4 0.089700 0.775606 0.650325
O O5 0.000000 0.904952 0.716173
O O6 0.178269 0.500000 0.166665
O O7 0.164590 0.335411 0.250000
O O8 0.171364 0.366376 0.015063
O O9 0.639081 0.139081 0.250000
O O10 0.634865 0.000000 0.382201
#
# Coordination Sequence:
#
# PCOD9559382 Si02
#       4
#     8  16  16  16
#     4   9  18  32  54  90 128 162 202 247 310 388
#     4  10  21  38  64  96 132 170 213 270 334 402
#     4  11  25  43  67  99 133 177 226 275 334 392
#     4  10  23  42  64  93 128 173 226 274 332 399
#
# _framework density 22.078151999999999
#
# number of rings (size 3 to 8) (size 9 to 14) (size 15 to 20)
#    0.000    1.857    0.000    2.571    4.000    3.429 
#    0.000    4.286    0.000   10.286    0.000    0.000 
#    0.000    0.000    0.000    0.000    0.000    0.000 
#
# Total GULP energy -155883.718959 kJ/mol
# GULP energy per Si atom -5567.275677 kJ/mol
# Density = 2.202790 g / cm^3
# Si number density = 22.078152 Si / 1000 Ang^3
#
#
#
# Elastic Constant Matrix: (Units=GPa)
#
#
# Indices 1 2 3 4 5 6 
#
# 1 60.3318 37.5723 44.8261 0.0000 0.0000 0.0000
# 2 37.5723 60.3341 44.8288 0.0000 0.0000 0.0000
# 3 44.8261 44.8288 197.7256 0.0000 0.0000 0.0000
# 4 0.0000 0.0000 0.0000 -12.4237 0.0000 0.0000
# 5 0.0000 0.0000 0.0000 0.0000 -12.4204 0.0000
# 6 0.0000 0.0000 0.0000 0.0000 0.0000 -368.8632
#
#
#
# Elastic Compliance Matrix: (Units=1/GPa)
#
#
# Indices 1 2 3 4 5 6 
#
# 1 0.028413 -0.015523 -0.002922 0.000000 0.000000 0.000000
# 2 -0.015523 0.028412 -0.002923 0.000000 0.000000 0.000000
# 3 -0.002922 -0.002923 0.006383 0.000000 0.000000 0.000000
# 4 0.000000 0.000000 0.000000 -0.080491 0.000000 0.000000
# 5 0.000000 0.000000 0.000000 0.000000 -0.080513 0.000000
# 6 0.000000 0.000000 0.000000 0.000000 0.000000 -0.002711
#
#
# Mechanical properties :
#
#
# Convention : Reuss Voigt Hill
#
# Bulk Modulus (GPa) = 48.84425 63.64956 56.24690
# Shear Modulus (GPa) = -98.13935 -65.99717 -82.06826
#
# Velocity S-wave (km/s) = -6.67438 -5.47334 -6.10347
# Velocity P-wave (km/s) = 6.10124 3.32437 4.91307
#
# Compressibility (1/GPa) = 0.02047324
#
# Stress axis : x y z
#
# Youngs Moduli (GPa) = 35.19510 35.19588 156.67572
#
# Poissons Ratio (x) = 0.54633 0.45783
# Poissons Ratio (y) = 0.54632 0.45790
# Poissons Ratio (z) = 0.10285 0.10286
#
# Static dielectric constant tensor:
#      x y z
#    x 1.838600 0.000000 0.000000 
#    y 0.000000 1.838590 0.000000 
#    z 0.000000 0.000000 1.849680 
# 
# From -- ./inp_files/2016.got.cif
#   From: 2010.05.17/outbox.cif.g08.bks.cpg/sg119_2_cif.got.tgz:2016.got - 2010.05.20 11:21:29.
