data_PCOD9559833
_publ_section_title
;
Structure prediction by ZEFSAII (Michael W. Deem and Ramdas Pophale) SiO2 
 PCOD9559833
Probable space group: I -4 C 2
;
_chemical_formula_sum "Si O2"
_cell_formula_units_Z 72
_cell_length_a 10.585324
_cell_length_b 10.585324
_cell_length_c 28.998643
_cell_angle_alpha 90.000000
_cell_angle_beta 90.000000
_cell_angle_gamma 90.000000
_cell_volume 3249.271391
_symmetry_space_group_name_H-M "I -4 C 2"
_symmetry_group_IT_number 120
_symmetry_cell_setting 'tetragonal'
loop_
_space_group_symop_operation_xyz
x,y,z
y,-x,-z
-x,-y,z
-y,x,-z
y,x,1/2-z
-y,-x,1/2-z
-x,y,1/2+z
x,-y,1/2+z
1/2+x,1/2+y,1/2+z
1/2+y,1/2-x,1/2-z
1/2-x,1/2-y,1/2+z
1/2-y,1/2+x,1/2-z
1/2+y,1/2+x,-z
1/2-y,1/2-x,-z
1/2-x,1/2+y,z
1/2+x,1/2-y,z
loop_
_atom_site_type_symbol
_atom_site_label
_atom_site_fract_x
_atom_site_fract_y
_atom_site_fract_z
Si Si1 0.000000 0.000000 0.387262
Si Si2 0.340925 0.312192 0.830764
Si Si3 0.542826 0.870768 0.550856
Si Si4 0.688415 0.063936 0.749029
Si Si5 0.208942 0.184450 0.913865
O O1 0.109626 0.067716 0.358572
O O2 0.928396 0.116916 0.411564
O O3 0.455342 0.266810 0.797786
O O4 0.247289 0.359366 0.790998
O O5 0.280748 0.208881 0.865050
O O6 0.586777 0.913224 0.500000
O O7 0.670716 0.807244 0.569638
O O8 0.416691 0.785892 0.555009
O O9 0.500000 0.000000 0.576141
O O10 0.568541 0.142821 0.732274
#
# Coordination Sequence:
#
# PCOD9559833 Si02
#       5
#     8  16  16  16  16
#     4  12  24  41  71 104 140 196 248 316 386 460
#     4  11  23  42  65 101 141 194 254 311 383 457
#     4  11  28  48  78 110 151 194 249 314 392 479
#     4  10  22  38  61  94 141 194 248 313 374 443
#     4  12  25  48  75 109 148 195 249 316 393 475
#
# _framework density 22.158812999999999
#
# number of rings (size 3 to 8) (size 9 to 14) (size 15 to 20)
#    0.000    0.889    2.222    4.000    3.111    3.556 
#    0.000    0.000    0.000    0.000    0.000    0.000 
#    0.000    0.000    0.000    0.000    0.000    0.000 
#
# Total GULP energy -200561.247115 kJ/mol
# GULP energy per Si atom -5571.145753 kJ/mol
# Density = 2.210838 g / cm^3
# Si number density = 22.158813 Si / 1000 Ang^3
#
#
#
# Elastic Constant Matrix: (Units=GPa)
#
#
# Indices 1 2 3 4 5 6 
#
# 1 96.9106 48.0673 32.2335 0.0000 0.0000 0.0000
# 2 48.0673 96.9105 32.2334 0.0000 0.0000 0.0000
# 3 32.2335 32.2334 78.6439 0.0000 0.0000 0.0000
# 4 0.0000 0.0000 0.0000 25.6330 0.0000 0.0000
# 5 0.0000 0.0000 0.0000 0.0000 25.6331 0.0000
# 6 0.0000 0.0000 0.0000 0.0000 0.0000 49.4396
#
#
#
# Elastic Compliance Matrix: (Units=1/GPa)
#
#
# Indices 1 2 3 4 5 6 
#
# 1 0.014454 -0.006019 -0.003457 0.000000 0.000000 0.000000
# 2 -0.006019 0.014454 -0.003457 0.000000 0.000000 0.000000
# 3 -0.003457 -0.003457 0.015550 0.000000 0.000000 0.000000
# 4 0.000000 0.000000 0.000000 0.039012 0.000000 0.000000
# 5 0.000000 0.000000 0.000000 0.000000 0.039012 0.000000
# 6 0.000000 0.000000 0.000000 0.000000 0.000000 0.020227
#
#
# Mechanical properties :
#
#
# Convention : Reuss Voigt Hill
#
# Bulk Modulus (GPa) = 53.79065 55.28150 54.53607
# Shear Modulus (GPa) = 28.60848 30.80319 29.70584
#
# Velocity S-wave (km/s) = 3.59704 3.73246 3.66538
# Velocity P-wave (km/s) = 6.44820 6.60129 6.52520
#
# Compressibility (1/GPa) = 0.01859059
#
# Stress axis : x y z
#
# Youngs Moduli (GPa) = 69.18374 69.18368 64.31067
#
# Poissons Ratio (x) = 0.41644 0.22233
# Poissons Ratio (y) = 0.41644 0.22233
# Poissons Ratio (z) = 0.23918 0.23918
#
# Static dielectric constant tensor:
#      x y z
#    x 1.965770 0.000000 0.000000 
#    y 0.000000 1.965780 0.000000 
#    z 0.000000 0.000000 1.900320 
# 
# From -- ./inp_files/6147.got.cif
#   From: 2010.05.17/outbox.cif.g08.bks.cpg/sg120_4_cif.got.tgz:6147.got - 2010.05.20 11:28:13.
