data_PCOD9559110
_publ_section_title
;
Structure prediction by ZEFSAII (Michael W. Deem and Ramdas Pophale) SiO2 
 PCOD9559110
Probable space group: I -4 M 2
;
_chemical_formula_sum "Si O2"
_cell_formula_units_Z 112
_cell_length_a 14.820501
_cell_length_b 14.820501
_cell_length_c 23.437724
_cell_angle_alpha 90.000000
_cell_angle_beta 90.000000
_cell_angle_gamma 90.000000
_cell_volume 5148.031620
_symmetry_space_group_name_H-M "I -4 M 2"
_symmetry_group_IT_number 119
_symmetry_cell_setting 'tetragonal'
loop_
_space_group_symop_operation_xyz
x,y,z
y,-x,-z
-x,-y,z
-y,x,-z
y,x,-z
-y,-x,-z
-x,y,z
x,-y,z
1/2+x,1/2+y,1/2+z
1/2+y,1/2-x,1/2-z
1/2-x,1/2-y,1/2+z
1/2-y,1/2+x,1/2-z
1/2+y,1/2+x,1/2-z
1/2-y,1/2-x,1/2-z
1/2-x,1/2+y,1/2+z
1/2+x,1/2-y,1/2+z
loop_
_atom_site_type_symbol
_atom_site_label
_atom_site_fract_x
_atom_site_fract_y
_atom_site_fract_z
Si Si1 0.751434 0.106203 0.484366
Si Si2 0.363042 0.609362 0.221856
Si Si3 0.599118 0.110633 0.571948
Si Si4 0.224474 0.600806 0.850732
Si Si5 0.101640 0.339719 0.306947
Si Si6 0.109707 0.103655 0.935705
Si Si7 0.770596 0.105056 0.167898
O O1 0.840599 0.159402 0.500000
O O2 0.673874 0.139236 0.527248
O O3 0.724845 0.117201 0.418503
O O4 0.763911 0.000000 0.494332
O O5 0.379247 0.500000 0.220468
O O6 0.401166 0.671861 0.171305
O O7 0.257215 0.630209 0.214976
O O8 0.392162 0.657183 0.280416
O O9 0.500000 0.141504 0.554940
O O10 0.620217 0.144921 0.636220
O O11 0.596606 0.000000 0.571062
O O12 0.187081 0.500000 0.838995
O O13 0.166903 0.682267 0.823414
O O14 0.101954 0.398047 0.250000
O O15 0.000000 0.324375 0.325948
O O16 0.137778 0.174352 0.887734
O O17 0.000000 0.101079 0.933982
O O18 0.139729 0.000000 0.925000
O O19 0.132720 0.132720 0.000000
O O20 0.743417 0.000000 0.160413
#
# Coordination Sequence:
#
# PCOD9559110 Si02
#       7
#    16  16  16  16  16  16  16
#     4  10  22  40  63  92 126 166 213 267 326 388
#     4  11  24  42  65  92 123 159 202 259 326 390
#     4   9  18  34  58  88 123 165 211 257 307 368
#     4  11  25  43  64  91 125 168 215 266 325 386
#     4  10  19  32  54  86 124 163 202 248 304 370
#     4   8  15  31  58  94 134 172 212 262 323 391
#     4  11  23  40  65  95 128 169 216 266 322 386
#
# _framework density 21.755887999999999
#
# number of rings (size 3 to 8) (size 9 to 14) (size 15 to 20)
#    0.000    2.000    0.000    3.857    0.000    5.714 
#    0.000    2.857    0.000    7.714    0.000    0.000 
#    0.000    0.286    0.000    0.000    0.000    0.000 
#
# Total GULP energy -312543.403151 kJ/mol
# GULP energy per Si atom -5581.132199 kJ/mol
# Density = 2.170637 g / cm^3
# Si number density = 21.755888 Si / 1000 Ang^3
#
#
#
# Elastic Constant Matrix: (Units=GPa)
#
#
# Indices 1 2 3 4 5 6 
#
# 1 98.2037 61.0323 39.1527 0.0000 0.0000 0.0000
# 2 61.0323 98.2091 39.1503 0.0000 0.0000 0.0000
# 3 39.1527 39.1503 123.5261 0.0000 0.0000 0.0000
# 4 0.0000 0.0000 0.0000 11.8399 0.0000 0.0000
# 5 0.0000 0.0000 0.0000 0.0000 11.8377 0.0000
# 6 0.0000 0.0000 0.0000 0.0000 0.0000 -97.4880
#
#
#
# Elastic Compliance Matrix: (Units=1/GPa)
#
#
# Indices 1 2 3 4 5 6 
#
# 1 0.017171 -0.009731 -0.002358 0.000000 0.000000 0.000000
# 2 -0.009731 0.017169 -0.002357 0.000000 0.000000 0.000000
# 3 -0.002358 -0.002357 0.009590 0.000000 0.000000 0.000000
# 4 0.000000 0.000000 0.000000 0.084460 0.000000 0.000000
# 5 0.000000 0.000000 0.000000 0.000000 0.084476 0.000000
# 6 0.000000 0.000000 0.000000 0.000000 0.000000 -0.010258
#
#
# Mechanical properties :
#
#
# Convention : Reuss Voigt Hill
#
# Bulk Modulus (GPa) = 66.50165 66.51218 66.50691
# Shear Modulus (GPa) = 21.14047 -2.72184 9.20931
#
# Velocity S-wave (km/s) = 3.12061 -1.11973 2.05966
# Velocity P-wave (km/s) = 6.60438 5.38207 6.02431
#
# Compressibility (1/GPa) = 0.01503722
#
# Stress axis : x y z
#
# Youngs Moduli (GPa) = 58.23911 58.24380 104.27398
#
# Poissons Ratio (x) = 0.56675 0.24592
# Poissons Ratio (y) = 0.56670 0.24582
# Poissons Ratio (z) = 0.13735 0.13730
#
# Static dielectric constant tensor:
#      x y z
#    x 1.837830 0.000000 0.000000 
#    y 0.000000 1.837820 0.000000 
#    z 0.000000 0.000000 1.849570 
# 
# From -- ./inp_files/8836.got.cif
#   From: 2010.05.17/outbox.cif.g08.bks.cpg/sg119_5_cif.got.tgz:8836.got - 2010.05.20 11:21:29.
