data_PCOD9559837
_publ_section_title
;
Structure prediction by ZEFSAII (Michael W. Deem and Ramdas Pophale) SiO2 
 PCOD9559837
Probable space group: I -4 C 2
;
_chemical_formula_sum "Si O2"
_cell_formula_units_Z 52
_cell_length_a 17.588653
_cell_length_b 17.588653
_cell_length_c 9.030916
_cell_angle_alpha 90.000000
_cell_angle_beta 90.000000
_cell_angle_gamma 90.000000
_cell_volume 2793.810625
_symmetry_space_group_name_H-M "I -4 C 2"
_symmetry_group_IT_number 120
_symmetry_cell_setting 'tetragonal'
loop_
_space_group_symop_operation_xyz
x,y,z
y,-x,-z
-x,-y,z
-y,x,-z
y,x,1/2-z
-y,-x,1/2-z
-x,y,1/2+z
x,-y,1/2+z
1/2+x,1/2+y,1/2+z
1/2+y,1/2-x,1/2-z
1/2-x,1/2-y,1/2+z
1/2-y,1/2+x,1/2-z
1/2+y,1/2+x,-z
1/2-y,1/2-x,-z
1/2-x,1/2+y,z
1/2+x,1/2-y,z
loop_
_atom_site_type_symbol
_atom_site_label
_atom_site_fract_x
_atom_site_fract_y
_atom_site_fract_z
Si Si1 0.265274 0.891320 0.514472
Si Si2 0.766103 0.005656 0.782110
Si Si3 0.644198 0.587489 0.041484
Si Si4 0.000000 0.000000 0.500000
O O1 0.320192 0.820192 0.500000
O O2 0.284528 0.956985 0.395091
O O3 0.177221 0.867359 0.482222
O O4 0.268953 0.930891 0.674911
O O5 0.801454 0.942458 0.671243
O O6 0.825306 0.050482 0.888339
O O7 0.564417 0.548145 0.080542
#
# Coordination Sequence:
#
# PCOD9559837 Si02
#       4
#    16  16  16   4
#     4  11  24  41  61  86 120 158 201 250 307 363
#     4  10  22  39  54  89 120 154 204 244 288 351
#     4  11  22  33  58  90 126 169 196 229 287 354
#     4  12  20  30  56  90 140 158 196 230 280 374
#
# _framework density 18.612570999999999
#
# number of rings (size 3 to 8) (size 9 to 14) (size 15 to 20)
#    0.000    1.231    6.154    1.846    0.000    6.154 
#    0.000    4.615    0.000    2.769    0.000    0.000 
#    0.000    0.000    0.000    0.000    0.000    0.000 
#
# Total GULP energy -144948.522190 kJ/mol
# GULP energy per Si atom -5574.943161 kJ/mol
# Density = 1.857021 g / cm^3
# Si number density = 18.612571 Si / 1000 Ang^3
#
#
#
# Elastic Constant Matrix: (Units=GPa)
#
#
# Indices 1 2 3 4 5 6 
#
# 1 71.2668 45.6345 34.7328 0.0000 0.0000 0.0000
# 2 45.6345 71.2668 34.7328 0.0000 0.0000 0.0000
# 3 34.7328 34.7328 131.7141 0.0000 0.0000 0.0000
# 4 0.0000 0.0000 0.0000 11.0054 0.0000 0.0000
# 5 0.0000 0.0000 0.0000 0.0000 11.0054 0.0000
# 6 0.0000 0.0000 0.0000 0.0000 0.0000 43.6228
#
#
#
# Elastic Compliance Matrix: (Units=1/GPa)
#
#
# Indices 1 2 3 4 5 6 
#
# 1 0.024579 -0.014435 -0.002675 0.000000 0.000000 0.000000
# 2 -0.014435 0.024579 -0.002675 0.000000 0.000000 0.000000
# 3 -0.002675 -0.002675 0.009003 0.000000 0.000000 0.000000
# 4 0.000000 0.000000 0.000000 0.090864 0.000000 0.000000
# 5 0.000000 0.000000 0.000000 0.000000 0.090864 0.000000
# 6 0.000000 0.000000 0.000000 0.000000 0.000000 0.022924
#
#
# Mechanical properties :
#
#
# Convention : Reuss Voigt Hill
#
# Bulk Modulus (GPa) = 53.78999 56.04975 54.91987
# Shear Modulus (GPa) = 16.20331 23.73655 19.96993
#
# Velocity S-wave (km/s) = 2.95372 3.57500 3.27911
# Velocity P-wave (km/s) = 6.37144 6.87169 6.62629
#
# Compressibility (1/GPa) = 0.01859082
#
# Stress axis : x y z
#
# Youngs Moduli (GPa) = 40.68592 40.68592 111.07497
#
# Poissons Ratio (x) = 0.58729 0.29711
# Poissons Ratio (y) = 0.58729 0.29711
# Poissons Ratio (z) = 0.10883 0.10883
#
# Static dielectric constant tensor:
#      x y z
#    x 1.643980 0.000000 0.000000 
#    y 0.000000 1.643980 0.000000 
#    z 0.000000 0.000000 1.694560 
# 
# From -- ./inp_files/976.got.cif
#   From: 2010.05.17/outbox.cif.g08.bks.cpg/sg120_1_cif.got.tgz:976.got - 2010.05.20 11:28:13.
