data_PCOD9559981
_publ_section_title
;
Structure prediction by ZEFSAII (Michael W. Deem and Ramdas Pophale) SiO2 
 PCOD9559981
Probable space group: I -4 C 2
;
_chemical_formula_sum "Si O2"
_cell_formula_units_Z 80
_cell_length_a 26.046259
_cell_length_b 26.046259
_cell_length_c 5.233364
_cell_angle_alpha 90.000000
_cell_angle_beta 90.000000
_cell_angle_gamma 90.000000
_cell_volume 3550.353952
_symmetry_space_group_name_H-M "I -4 C 2"
_symmetry_group_IT_number 120
_symmetry_cell_setting 'tetragonal'
loop_
_space_group_symop_operation_xyz
x,y,z
y,-x,-z
-x,-y,z
-y,x,-z
y,x,1/2-z
-y,-x,1/2-z
-x,y,1/2+z
x,-y,1/2+z
1/2+x,1/2+y,1/2+z
1/2+y,1/2-x,1/2-z
1/2-x,1/2-y,1/2+z
1/2-y,1/2+x,1/2-z
1/2+y,1/2+x,-z
1/2-y,1/2-x,-z
1/2-x,1/2+y,z
1/2+x,1/2-y,z
loop_
_atom_site_type_symbol
_atom_site_label
_atom_site_fract_x
_atom_site_fract_y
_atom_site_fract_z
Si Si1 0.315497 0.760916 0.314220
Si Si2 0.470219 0.319657 0.721270
Si Si3 0.182161 0.884345 0.418012
Si Si4 0.620265 0.035041 0.069245
Si Si5 0.731891 0.916046 0.518534
O O1 0.258321 0.741680 0.250000
O O2 0.309473 0.809473 0.500000
O O3 0.336587 0.712550 0.470180
O O4 0.358372 0.770428 0.099254
O O5 0.509833 0.334961 0.944147
O O6 0.417466 0.337756 0.845548
O O7 0.455570 0.259230 0.681102
O O8 0.136010 0.863990 0.250000
O O9 0.227066 0.912540 0.252059
O O10 0.675798 0.062984 0.071514
O O11 0.615952 0.992577 0.844030
O O12 0.577041 0.077041 0.000000
#
# Coordination Sequence:
#
# PCOD9559981 Si02
#       5
#    16  16  16  16  16
#     4  11  24  36  59  92 139 193 237 277 337 419
#     4  11  22  40  65  95 133 182 224 278 337 395
#     4  11  23  41  65  96 141 185 231 280 343 415
#     4  12  30  51  78 104 133 175 235 307 383 445
#     4  11  25  42  68  97 138 175 240 288 356 426
#
# _framework density 22.532965999999998
#
# number of rings (size 3 to 8) (size 9 to 14) (size 15 to 20)
#    0.000    0.800    4.000    2.400    8.400    1.200 
#    0.000    0.000    0.000    0.000    0.000    0.000 
#    0.000    2.400    0.000    0.000    0.000    0.000 
#
# Total GULP energy -223301.493759 kJ/mol
# GULP energy per Si atom -5582.537344 kJ/mol
# Density = 2.248168 g / cm^3
# Si number density = 22.532966 Si / 1000 Ang^3
#
#
#
# Elastic Constant Matrix: (Units=GPa)
#
#
# Indices 1 2 3 4 5 6 
#
# 1 59.8482 29.2536 16.7663 0.0000 0.0000 0.0000
# 2 29.2536 59.8425 16.7649 0.0000 0.0000 0.0000
# 3 16.7663 16.7649 114.7569 0.0000 0.0000 0.0000
# 4 0.0000 0.0000 0.0000 46.0836 0.0000 0.0000
# 5 0.0000 0.0000 0.0000 0.0000 46.0845 0.0000
# 6 0.0000 0.0000 0.0000 0.0000 0.0000 31.6712
#
#
#
# Elastic Compliance Matrix: (Units=1/GPa)
#
#
# Indices 1 2 3 4 5 6 
#
# 1 0.022281 -0.010406 -0.001735 0.000000 0.000000 0.000000
# 2 -0.010406 0.022284 -0.001735 0.000000 0.000000 0.000000
# 3 -0.001735 -0.001735 0.009221 0.000000 0.000000 0.000000
# 4 0.000000 0.000000 0.000000 0.021700 0.000000 0.000000
# 5 0.000000 0.000000 0.000000 0.000000 0.021699 0.000000
# 6 0.000000 0.000000 0.000000 0.000000 0.000000 0.031574
#
#
# Mechanical properties :
#
#
# Convention : Reuss Voigt Hill
#
# Bulk Modulus (GPa) = 38.41201 40.00193 39.20697
# Shear Modulus (GPa) = 30.26820 36.21205 33.24013
#
# Velocity S-wave (km/s) = 3.66906 4.01318 3.84497
# Velocity P-wave (km/s) = 5.91890 6.26620 6.09503
#
# Compressibility (1/GPa) = 0.02603353
#
# Stress axis : x y z
#
# Youngs Moduli (GPa) = 44.88030 44.87619 108.44743
#
# Poissons Ratio (x) = 0.46698 0.18818
# Poissons Ratio (y) = 0.46703 0.18816
# Poissons Ratio (z) = 0.07788 0.07786
#
# Static dielectric constant tensor:
#      x y z
#    x 1.857350 0.000000 0.000000 
#    y 0.000000 1.857350 0.000000 
#    z 0.000000 0.000000 2.006340 
# 
# From -- ./inp_files/450.got.cif
#   From: 2010.05.17/outbox.cif.g08.bks.cpg/sg120_1_cif.got.tgz:450.got - 2010.05.20 11:28:13.
