data_PCOD9559175
_publ_section_title
;
Structure prediction by ZEFSAII (Michael W. Deem and Ramdas Pophale) SiO2 
 PCOD9559175
Probable space group: I -4 M 2
;
_chemical_formula_sum "Si O2"
_cell_formula_units_Z 96
_cell_length_a 14.805475
_cell_length_b 14.805475
_cell_length_c 23.790398
_cell_angle_alpha 90.000000
_cell_angle_beta 90.000000
_cell_angle_gamma 90.000000
_cell_volume 5214.904963
_symmetry_space_group_name_H-M "I -4 M 2"
_symmetry_group_IT_number 119
_symmetry_cell_setting 'tetragonal'
loop_
_space_group_symop_operation_xyz
x,y,z
y,-x,-z
-x,-y,z
-y,x,-z
y,x,-z
-y,-x,-z
-x,y,z
x,-y,z
1/2+x,1/2+y,1/2+z
1/2+y,1/2-x,1/2-z
1/2-x,1/2-y,1/2+z
1/2-y,1/2+x,1/2-z
1/2+y,1/2+x,1/2-z
1/2-y,1/2-x,1/2-z
1/2-x,1/2+y,1/2+z
1/2+x,1/2-y,1/2+z
loop_
_atom_site_type_symbol
_atom_site_label
_atom_site_fract_x
_atom_site_fract_y
_atom_site_fract_z
Si Si1 0.790827 0.898731 0.773692
Si Si2 0.100034 0.396784 0.160649
Si Si3 0.102692 0.794431 0.361282
Si Si4 0.393544 0.288671 0.047980
Si Si5 0.394030 0.100260 0.090121
Si Si6 0.394404 0.781057 0.295511
O O1 0.688642 0.896516 0.797539
O O2 0.794070 0.886686 0.706186
O O3 0.847870 0.816953 0.799132
O O4 0.825740 0.000000 0.785861
O O5 0.108057 0.500000 0.185430
O O6 0.188755 0.387227 0.122326
O O7 0.000000 0.393661 0.134282
O O8 0.172123 0.857674 0.392887
O O9 0.000000 0.822660 0.374509
O O10 0.500000 0.304327 0.042331
O O11 0.375713 0.181980 0.048250
O O12 0.340403 0.340403 0.000000
O O13 0.500000 0.107804 0.106775
O O14 0.332914 0.109922 0.145307
O O15 0.380247 0.000000 0.066459
O O16 0.500000 0.773023 0.279479
O O17 0.339332 0.839332 0.250000
#
# Coordination Sequence:
#
# PCOD9559175 Si02
#       6
#    16  16  16  16  16  16
#     4  10  20  32  48  74 110 148 181 212 252 305
#     4   9  17  30  50  76 107 143 179 214 253 300
#     4  10  20  32  47  71 103 137 174 215 256 298
#     4  11  23  39  58  76  97 128 167 211 256 305
#     4   9  19  36  57  80 104 130 162 205 257 304
#     4  11  21  33  52  78 108 140 175 212 251 303
#
# _framework density 18.408771999999999
#
# number of rings (size 3 to 8) (size 9 to 14) (size 15 to 20)
#    0.000    2.000    0.000    4.500    0.000    6.333 
#    0.000    7.500    0.000    5.000    0.000    0.000 
#    0.000    0.000    0.000    0.000    0.000    0.000 
#
# Total GULP energy -267766.018882 kJ/mol
# GULP energy per Si atom -5578.458727 kJ/mol
# Density = 1.836687 g / cm^3
# Si number density = 18.408772 Si / 1000 Ang^3
#
#
#
# Elastic Constant Matrix: (Units=GPa)
#
#
# Indices 1 2 3 4 5 6 
#
# 1 123.2202 80.6295 32.2694 0.0000 0.0000 0.0000
# 2 80.6295 123.2202 32.2694 0.0000 0.0000 0.0000
# 3 32.2694 32.2694 28.4292 0.0000 0.0000 0.0000
# 4 0.0000 0.0000 0.0000 20.4410 0.0000 0.0000
# 5 0.0000 0.0000 0.0000 0.0000 20.4410 0.0000
# 6 0.0000 0.0000 0.0000 0.0000 0.0000 32.5002
#
#
#
# Elastic Compliance Matrix: (Units=1/GPa)
#
#
# Indices 1 2 3 4 5 6 
#
# 1 0.015568 -0.007911 -0.008692 0.000000 0.000000 0.000000
# 2 -0.007911 0.015568 -0.008692 0.000000 0.000000 0.000000
# 3 -0.008692 -0.008692 0.054907 0.000000 0.000000 0.000000
# 4 0.000000 0.000000 0.000000 0.048921 0.000000 0.000000
# 5 0.000000 0.000000 0.000000 0.000000 0.048921 0.000000
# 6 0.000000 0.000000 0.000000 0.000000 0.000000 0.030769
#
#
# Mechanical properties :
#
#
# Convention : Reuss Voigt Hill
#
# Bulk Modulus (GPa) = 28.20512 62.80068 45.50290
# Shear Modulus (GPa) = 18.04650 23.32319 20.68484
#
# Velocity S-wave (km/s) = 3.13440 3.56330 3.35571
# Velocity P-wave (km/s) = 5.33424 7.14969 6.30762
#
# Compressibility (1/GPa) = 0.03545456
#
# Stress axis : x y z
#
# Youngs Moduli (GPa) = 64.23303 64.23303 18.21271
#
# Poissons Ratio (x) = 0.50814 0.15830
# Poissons Ratio (y) = 0.50814 0.15830
# Poissons Ratio (z) = 0.55830 0.55830
#
# Static dielectric constant tensor:
#      x y z
#    x 1.655130 0.000000 0.000000 
#    y 0.000000 1.655130 0.000000 
#    z 0.000000 0.000000 1.629220 
# 
# From -- ./inp_files/7777.got.cif
#   From: 2010.05.17/outbox.cif.g08.bks.cpg/sg119_4_cif.got.tgz:7777.got - 2010.05.20 11:21:29.
