data_PCOD9559432
_publ_section_title
;
Structure prediction by ZEFSAII (Michael W. Deem and Ramdas Pophale) SiO2 
 PCOD9559432
Probable space group: I -4 M 2
;
_chemical_formula_sum "Si O2"
_cell_formula_units_Z 40
_cell_length_a 7.523552
_cell_length_b 7.523552
_cell_length_c 34.426013
_cell_angle_alpha 90.000000
_cell_angle_beta 90.000000
_cell_angle_gamma 90.000000
_cell_volume 1948.644349
_symmetry_space_group_name_H-M "I -4 M 2"
_symmetry_group_IT_number 119
_symmetry_cell_setting 'tetragonal'
loop_
_space_group_symop_operation_xyz
x,y,z
y,-x,-z
-x,-y,z
-y,x,-z
y,x,-z
-y,-x,-z
-x,y,z
x,-y,z
1/2+x,1/2+y,1/2+z
1/2+y,1/2-x,1/2-z
1/2-x,1/2-y,1/2+z
1/2-y,1/2+x,1/2-z
1/2+y,1/2+x,1/2-z
1/2-y,1/2-x,1/2-z
1/2-x,1/2+y,1/2+z
1/2+x,1/2-y,1/2+z
loop_
_atom_site_type_symbol
_atom_site_label
_atom_site_fract_x
_atom_site_fract_y
_atom_site_fract_z
Si Si1 0.500000 0.280437 0.266461
Si Si2 0.283502 0.194458 0.585441
Si Si3 0.500000 0.715691 0.357856
Si Si4 0.288419 0.288419 0.500000
O O1 0.500000 0.500000 0.260499
O O2 0.674677 0.174677 0.250000
O O3 0.500000 0.242527 0.312706
O O4 0.500000 0.210927 0.583079
O O5 0.220850 0.334140 0.616831
O O6 0.220396 0.218029 0.541112
O O7 0.238612 0.000000 0.599185
O O8 0.500000 0.500000 0.359332
O O9 0.257893 0.500000 0.501429
#
# Coordination Sequence:
#
# PCOD9559432 Si02
#       4
#     8  16   8   8
#     4  10  23  43  70 101 135 174 219 285 348 421
#     4   9  16  26  46  77 111 154 204 252 298 368
#     4   9  17  33  55  86 119 157 210 257 319 388
#     4   9  14  24  44  69 104 152 202 245 300 357
#
# _framework density 20.527092
#
# number of rings (size 3 to 8) (size 9 to 14) (size 15 to 20)
#    0.000    2.800    2.000    0.000    0.000    2.000 
#    0.000    4.000    8.800    0.600    0.000    0.000 
#    0.000    0.000    0.000    0.000    0.000    0.000 
#
# Total GULP energy -111481.859544 kJ/mol
# GULP energy per Si atom -5574.092977 kJ/mol
# Density = 2.048037 g / cm^3
# Si number density = 20.527092 Si / 1000 Ang^3
#
#
#
# Elastic Constant Matrix: (Units=GPa)
#
#
# Indices 1 2 3 4 5 6 
#
# 1 4821.3535-4666.0573 69.6113 -0.0003 0.0001 0.0000
# 2 -4666.0573 4821.3548 69.6116 0.0003 -0.0001 0.0000
# 3 69.6113 69.6116 193.4906 0.0000 0.0000 0.0000
# 4 -0.0003 0.0003 0.0000 -82.8669 0.0000 0.0000
# 5 0.0001 -0.0001 0.0000 0.0000 -82.8669 0.0000
# 6 0.0000 0.0000 0.0000 0.0000 0.0000 4.5966
#
#
#
# Elastic Compliance Matrix: (Units=1/GPa)
#
#
# Indices 1 2 3 4 5 6 
#
# 1 0.004805 0.004700 -0.003420 0.000000 0.000000 0.000000
# 2 0.004700 0.004805 -0.003420 0.000000 0.000000 0.000000
# 3 -0.003420 -0.003420 0.007629 0.000000 0.000000 0.000000
# 4 0.000000 0.000000 0.000000 -0.012068 0.000000 0.000000
# 5 0.000000 0.000000 0.000000 0.000000 -0.012068 0.000000
# 6 0.000000 0.000000 0.000000 0.000000 0.000000 0.217554
#
#
# Mechanical properties :
#
#
# Convention : Reuss Voigt Hill
#
# Bulk Modulus (GPa) = 77.15875 86.94777 82.05326
# Shear Modulus (GPa) = 22.80428 925.30810 474.05619
#
# Velocity S-wave (km/s) = 3.33669 21.25447 15.21325
# Velocity P-wave (km/s) = 7.24672 25.39265 18.67219
#
# Compressibility (1/GPa) = 0.01296029
#
# Stress axis : x y z
#
# Youngs Moduli (GPa) = 208.11030 208.11035 131.08422
#
# Poissons Ratio (x) = -0.97806 0.44825
# Poissons Ratio (y) = -0.97806 0.44825
# Poissons Ratio (z) = 0.71164 0.71164
#
# Static dielectric constant tensor:
#      x y z
#    x 1.760070 0.000000 0.000000 
#    y 0.000000 1.760070 0.000000 
#    z 0.000000 0.000000 1.118880 
# 
# From -- ./inp_files/9134.got.cif
#   From: 2010.05.17/outbox.cif.g08.bks.cpg/sg119_5_cif.got.tgz:9134.got - 2010.05.20 11:21:29.
