data_PCOD9559791
_publ_section_title
;
Structure prediction by ZEFSAII (Michael W. Deem and Ramdas Pophale) SiO2 
 PCOD9559791
Probable space group: I -4 C 2
;
_chemical_formula_sum "Si O2"
_cell_formula_units_Z 112
_cell_length_a 13.524263
_cell_length_b 13.524263
_cell_length_c 25.586621
_cell_angle_alpha 90.000000
_cell_angle_beta 90.000000
_cell_angle_gamma 90.000000
_cell_volume 4679.938561
_symmetry_space_group_name_H-M "I -4 C 2"
_symmetry_group_IT_number 120
_symmetry_cell_setting 'tetragonal'
loop_
_space_group_symop_operation_xyz
x,y,z
y,-x,-z
-x,-y,z
-y,x,-z
y,x,1/2-z
-y,-x,1/2-z
-x,y,1/2+z
x,-y,1/2+z
1/2+x,1/2+y,1/2+z
1/2+y,1/2-x,1/2-z
1/2-x,1/2-y,1/2+z
1/2-y,1/2+x,1/2-z
1/2+y,1/2+x,-z
1/2-y,1/2-x,-z
1/2-x,1/2+y,z
1/2+x,1/2-y,z
loop_
_atom_site_type_symbol
_atom_site_label
_atom_site_fract_x
_atom_site_fract_y
_atom_site_fract_z
Si Si1 0.976264 0.343051 0.734269
Si Si2 0.289816 0.562352 0.173933
Si Si3 0.859781 0.805528 0.495739
Si Si4 0.584501 0.154361 0.629975
Si Si5 0.008436 0.647418 0.533680
Si Si6 0.672612 0.364430 0.608676
Si Si7 0.639169 0.723662 0.609094
O O1 0.078148 0.388871 0.757243
O O2 0.998926 0.349523 0.673001
O O3 0.957374 0.241667 0.765834
O O4 0.184315 0.602469 0.151323
O O5 0.324824 0.462564 0.143939
O O6 0.362996 0.653900 0.160042
O O7 0.759105 0.740896 0.500000
O O8 0.853321 0.876936 0.546478
O O9 0.857813 0.843741 0.437180
O O10 0.948008 0.728293 0.501894
O O11 0.568109 0.098766 0.574494
O O12 0.602724 0.272602 0.624806
O O13 0.078503 0.578503 0.500000
O O14 0.063233 0.709784 0.577600
O O15 0.775355 0.305596 0.615668
#
# Coordination Sequence:
#
# PCOD9559791 Si02
#       7
#    16  16  16  16  16  16  16
#     4   9  19  36  60  95 130 160 203 275 342 396
#     4  10  21  39  66  85 124 180 212 263 346 394
#     4   9  20  39  53  81 126 160 202 267 320 389
#     4   9  21  41  58  93 133 159 222 282 321 410
#     4  11  23  39  61  91 124 168 214 278 334 388
#     4   9  19  38  59  85 125 169 210 264 323 392
#     4  10  22  36  57  89 123 160 217 261 309 402
#
# _framework density 23.931940000000001
#
# number of rings (size 3 to 8) (size 9 to 14) (size 15 to 20)
#    0.000    2.429    0.000    2.143    6.000    0.857 
#    2.571    4.286    0.000    0.000    0.000    4.000 
#    0.000    0.000    0.000    0.000    0.000    0.000 
#
# Total GULP energy -312007.281651 kJ/mol
# GULP energy per Si atom -5571.558601 kJ/mol
# Density = 2.387747 g / cm^3
# Si number density = 23.931940 Si / 1000 Ang^3
#
#
#
# Elastic Constant Matrix: (Units=GPa)
#
#
# Indices 1 2 3 4 5 6 
#
# 1 56.0829 29.7477 40.8539 0.0000 0.0000 0.0000
# 2 29.7477 56.0819 40.8545 0.0000 0.0000 0.0000
# 3 40.8539 40.8545 119.2204 0.0000 0.0000 0.0000
# 4 0.0000 0.0000 0.0000 18.8465 0.0000 0.0000
# 5 0.0000 0.0000 0.0000 0.0000 18.8501 0.0000
# 6 0.0000 0.0000 0.0000 0.0000 0.0000 32.8688
#
#
#
# Elastic Compliance Matrix: (Units=1/GPa)
#
#
# Indices 1 2 3 4 5 6 
#
# 1 0.027632 -0.010340 -0.005925 0.000000 0.000000 0.000000
# 2 -0.010340 0.027633 -0.005926 0.000000 0.000000 0.000000
# 3 -0.005925 -0.005926 0.012449 0.000000 0.000000 0.000000
# 4 0.000000 0.000000 0.000000 0.053060 0.000000 0.000000
# 5 0.000000 0.000000 0.000000 0.000000 0.053050 0.000000
# 6 0.000000 0.000000 0.000000 0.000000 0.000000 0.030424
#
#
# Mechanical properties :
#
#
# Convention : Reuss Voigt Hill
#
# Bulk Modulus (GPa) = 42.86223 50.47748 46.66986
# Shear Modulus (GPa) = 19.50019 22.10837 20.80428
#
# Velocity S-wave (km/s) = 2.85760 3.04271 2.95161
# Velocity P-wave (km/s) = 5.36999 5.78636 5.58206
#
# Compressibility (1/GPa) = 0.02333056
#
# Stress axis : x y z
#
# Youngs Moduli (GPa) = 36.19012 36.18891 80.32814
#
# Poissons Ratio (x) = 0.37421 0.47597
# Poissons Ratio (y) = 0.37422 0.47601
# Poissons Ratio (z) = 0.21444 0.21445
#
# Static dielectric constant tensor:
#      x y z
#    x 2.136240 0.000000 0.000000 
#    y 0.000000 2.136240 0.000000 
#    z 0.000000 0.000000 2.009400 
# 
# From -- ./inp_files/6290.got.cif
#   From: 2010.05.17/outbox.cif.g08.bks.cpg/sg120_4_cif.got.tgz:6290.got - 2010.05.20 11:28:13.
