data_PCOD9559653
_publ_section_title
;
Structure prediction by ZEFSAII (Michael W. Deem and Ramdas Pophale) SiO2 
 PCOD9559653
Probable space group: I -4 C 2
;
_chemical_formula_sum "Si O2"
_cell_formula_units_Z 120
_cell_length_a 29.015327
_cell_length_b 29.015327
_cell_length_c 8.058397
_cell_angle_alpha 90.000000
_cell_angle_beta 90.000000
_cell_angle_gamma 90.000000
_cell_volume 6784.277411
_symmetry_space_group_name_H-M "I -4 C 2"
_symmetry_group_IT_number 120
_symmetry_cell_setting 'tetragonal'
loop_
_space_group_symop_operation_xyz
x,y,z
y,-x,-z
-x,-y,z
-y,x,-z
y,x,1/2-z
-y,-x,1/2-z
-x,y,1/2+z
x,-y,1/2+z
1/2+x,1/2+y,1/2+z
1/2+y,1/2-x,1/2-z
1/2-x,1/2-y,1/2+z
1/2-y,1/2+x,1/2-z
1/2+y,1/2+x,-z
1/2-y,1/2-x,-z
1/2-x,1/2+y,z
1/2+x,1/2-y,z
loop_
_atom_site_type_symbol
_atom_site_label
_atom_site_fract_x
_atom_site_fract_y
_atom_site_fract_z
Si Si1 0.794191 0.544815 0.005110
Si Si2 0.646652 0.358718 0.552145
Si Si3 0.955663 0.811773 0.038449
Si Si4 0.185639 0.364525 0.149271
Si Si5 0.803653 0.231376 0.425323
Si Si6 0.057533 0.806212 0.930012
Si Si7 0.353852 0.146148 0.000000
Si Si8 0.057774 0.300671 0.392142
O O1 0.739392 0.547396 0.039255
O O2 0.800353 0.557447 0.810090
O O3 0.817339 0.580840 0.130120
O O4 0.810444 0.493434 0.042865
O O5 0.646884 0.353117 0.750000
O O6 0.657493 0.412539 0.519912
O O7 0.686961 0.324688 0.482374
O O8 0.598911 0.338988 0.484532
O O9 0.949105 0.807923 0.233946
O O10 0.009163 0.823631 0.006567
O O11 0.236521 0.347768 0.104779
O O12 0.173109 0.344057 0.328415
O O13 0.155040 0.344961 0.000000
O O14 0.784513 0.215488 0.250000
O O15 0.763692 0.263692 0.500000
O O16 0.068103 0.751500 0.961261
O O17 0.337961 0.094476 0.044646
#
# Coordination Sequence:
#
# PCOD9559653 Si02
#       8
#    16  16  16  16  16  16   8  16
#     4  10  19  40  57  83 117 156 195 254 292 346
#     4  11  22  36  55  82 114 150 196 237 292 347
#     4  10  20  38  59  83 113 148 199 242 298 344
#     4  11  22  39  57  81 121 156 204 249 290 347
#     4  10  24  37  52  78 114 162 198 241 286 344
#     4  10  22  36  59  84 112 154 191 246 295 350
#     4  12  24  34  60  88 117 160 198 244 306 356
#     4  10  22  35  59  86 118 152 198 244 302 354
#
# _framework density 17.687954999999999
#
# number of rings (size 3 to 8) (size 9 to 14) (size 15 to 20)
#    0.000    1.600    2.667    2.000    4.667    3.200 
#    0.000    0.000    0.000    0.400    0.000    3.267 
#    0.000    0.000    0.000    0.000    0.000    0.000 
#
# Total GULP energy -334460.438416 kJ/mol
# GULP energy per Si atom -5574.340640 kJ/mol
# Density = 1.764770 g / cm^3
# Si number density = 17.687955 Si / 1000 Ang^3
#
#
#
# Elastic Constant Matrix: (Units=GPa)
#
#
# Indices 1 2 3 4 5 6 
#
# 1 109.6468 66.8147 22.1833 0.0000 0.0000 0.0000
# 2 66.8147 109.6423 22.1833 0.0000 0.0000 0.0000
# 3 22.1833 22.1833 53.3755 0.0000 0.0000 0.0000
# 4 0.0000 0.0000 0.0000 32.8301 0.0000 0.0000
# 5 0.0000 0.0000 0.0000 0.0000 32.8312 0.0000
# 6 0.0000 0.0000 0.0000 0.0000 0.0000 23.9656
#
#
#
# Elastic Compliance Matrix: (Units=1/GPa)
#
#
# Indices 1 2 3 4 5 6 
#
# 1 0.014838 -0.008510 -0.002630 0.000000 0.000000 0.000000
# 2 -0.008510 0.014839 -0.002630 0.000000 0.000000 0.000000
# 3 -0.002630 -0.002630 0.020921 0.000000 0.000000 0.000000
# 4 0.000000 0.000000 0.000000 0.030460 0.000000 0.000000
# 5 0.000000 0.000000 0.000000 0.000000 0.030459 0.000000
# 6 0.000000 0.000000 0.000000 0.000000 0.000000 0.041726
#
#
# Mechanical properties :
#
#
# Convention : Reuss Voigt Hill
#
# Bulk Modulus (GPa) = 43.36966 55.00301 49.18633
# Shear Modulus (GPa) = 26.52956 28.69096 27.61026
#
# Velocity S-wave (km/s) = 3.87701 4.03185 3.95519
# Velocity P-wave (km/s) = 6.67938 7.26899 6.98042
#
# Compressibility (1/GPa) = 0.02305760
#
# Stress axis : x y z
#
# Youngs Moduli (GPa) = 67.39490 67.39191 47.79805
#
# Poissons Ratio (x) = 0.57350 0.12571
# Poissons Ratio (y) = 0.57353 0.12572
# Poissons Ratio (z) = 0.17725 0.17726
#
# Static dielectric constant tensor:
#      x y z
#    x 1.625010 0.000000 0.000000 
#    y 0.000000 1.625030 0.000000 
#    z 0.000000 0.000000 1.629780 
# 
# From -- ./inp_files/1723.got.cif
#   From: 2010.05.17/outbox.cif.g08.bks.cpg/sg120_1_cif.got.tgz:1723.got - 2010.05.20 11:28:13.
