data_PCOD9559173
_publ_section_title
;
Structure prediction by ZEFSAII (Michael W. Deem and Ramdas Pophale) SiO2 
 PCOD9559173
Probable space group: I -4 M 2
;
_chemical_formula_sum "Si O2"
_cell_formula_units_Z 104
_cell_length_a 20.582782
_cell_length_b 20.582782
_cell_length_c 15.904462
_cell_angle_alpha 90.000000
_cell_angle_beta 90.000000
_cell_angle_gamma 90.000000
_cell_volume 6737.939877
_symmetry_space_group_name_H-M "I -4 M 2"
_symmetry_group_IT_number 119
_symmetry_cell_setting 'tetragonal'
loop_
_space_group_symop_operation_xyz
x,y,z
y,-x,-z
-x,-y,z
-y,x,-z
y,x,-z
-y,-x,-z
-x,y,z
x,-y,z
1/2+x,1/2+y,1/2+z
1/2+y,1/2-x,1/2-z
1/2-x,1/2-y,1/2+z
1/2-y,1/2+x,1/2-z
1/2+y,1/2+x,1/2-z
1/2-y,1/2-x,1/2-z
1/2-x,1/2+y,1/2+z
1/2+x,1/2-y,1/2+z
loop_
_atom_site_type_symbol
_atom_site_label
_atom_site_fract_x
_atom_site_fract_y
_atom_site_fract_z
Si Si1 0.575520 0.173460 0.989120
Si Si2 0.836936 0.774013 0.576789
Si Si3 0.923958 0.660727 0.915245
Si Si4 0.423234 0.923234 0.250000
Si Si5 0.923001 0.320669 0.288271
Si Si6 0.824434 0.212485 0.252307
Si Si7 0.777770 0.834691 0.081142
O O1 0.500000 0.161051 0.004489
O O2 0.585204 0.184230 0.889637
O O3 0.600925 0.232274 0.048031
O O4 0.619653 0.112842 0.014393
O O5 0.821890 0.821890 0.500000
O O6 0.831796 0.810288 0.665889
O O7 0.777820 0.721740 0.579494
O O8 0.907965 0.624576 0.827060
O O9 0.898943 0.734228 0.918170
O O10 0.000000 0.656876 0.926529
O O11 0.500000 0.915113 0.227534
O O12 0.880314 0.380314 0.250000
O O13 0.890433 0.254041 0.255559
O O14 0.000000 0.327105 0.270223
O O15 0.767636 0.267636 0.250000
O O16 0.817272 0.173109 0.166644
O O17 0.821789 0.821789 0.000000
#
# Coordination Sequence:
#
# PCOD9559173 Si02
#       7
#    16  16  16   8  16  16  16
#     4  10  20  32  47  70 101 131 162 198 233 283
#     4   9  15  28  47  69  90 120 156 195 245 285
#     4  10  21  33  47  68  95 131 164 196 235 283
#     4   9  18  32  46  64  96 134 168 194 221 272
#     4  10  21  34  48  69  97 131 167 201 234 279
#     4   9  17  30  50  68  91 122 155 201 250 286
#     4   9  19  31  47  69  91 118 159 203 248 286
#
# _framework density 15.434984999999999
#
# number of rings (size 3 to 8) (size 9 to 14) (size 15 to 20)
#    0.000    2.538    1.538    0.462   11.846    1.692 
#    0.000    1.538    0.000    0.000    0.000    0.000 
#    0.000    5.538    0.000    0.000    0.000    0.000 
#
# Total GULP energy -289588.124395 kJ/mol
# GULP energy per Si atom -5569.002392 kJ/mol
# Density = 1.539985 g / cm^3
# Si number density = 15.434985 Si / 1000 Ang^3
#
#
#
# Elastic Constant Matrix: (Units=GPa)
#
#
# Indices 1 2 3 4 5 6 
#
# 1 43.3475 49.7773 33.3734 0.0000 0.0000 0.0000
# 2 49.7773 43.3475 33.3734 0.0000 0.0000 0.0000
# 3 33.3734 33.3734 86.4927 0.0000 0.0000 0.0000
# 4 0.0000 0.0000 0.0000 19.6678 0.0000 0.0000
# 5 0.0000 0.0000 0.0000 0.0000 19.6678 0.0000
# 6 0.0000 0.0000 0.0000 0.0000 0.0000 17.3741
#
#
#
# Elastic Compliance Matrix: (Units=1/GPa)
#
#
# Indices 1 2 3 4 5 6 
#
# 1 -0.070341 0.085184 -0.005727 0.000000 0.000000 0.000000
# 2 0.085184 -0.070341 -0.005727 0.000000 0.000000 0.000000
# 3 -0.005727 -0.005727 0.015981 0.000000 0.000000 0.000000
# 4 0.000000 0.000000 0.000000 0.050844 0.000000 0.000000
# 5 0.000000 0.000000 0.000000 0.000000 0.050844 0.000000
# 6 0.000000 0.000000 0.000000 0.000000 0.000000 0.057557
#
#
# Mechanical properties :
#
#
# Convention : Reuss Voigt Hill
#
# Bulk Modulus (GPa) = 43.93904 45.13731 44.53817
# Shear Modulus (GPa) = -47.47159 15.11952 -16.17604
#
# Velocity S-wave (km/s) = -5.55181 3.13319 -3.24081
# Velocity P-wave (km/s) = 3.54511 6.51123 3.86189
#
# Compressibility (1/GPa) = 0.02275880
#
# Stress axis : x y z
#
# Youngs Moduli (GPa) = -14.21654 -14.21654 62.57244
#
# Poissons Ratio (x) = 1.21102 0.35837
# Poissons Ratio (y) = 1.21102 0.35837
# Poissons Ratio (z) = -0.08142 -0.08142
#
# Static dielectric constant tensor:
#      x y z
#    x 1.507670 0.000000 0.000000 
#    y 0.000000 1.507670 0.000000 
#    z 0.000000 0.000000 1.557760 
# 
# From -- ./inp_files/5626.got.cif
#   From: 2010.05.17/outbox.cif.g08.bks.cpg/sg119_3_cif.got.tgz:5626.got - 2010.05.20 11:21:29.
