data_PCOD9559880
_publ_section_title
;
Structure prediction by ZEFSAII (Michael W. Deem and Ramdas Pophale) SiO2 
 PCOD9559880
Probable space group: I -4 C 2
;
_chemical_formula_sum "Si O2"
_cell_formula_units_Z 96
_cell_length_a 21.520743
_cell_length_b 21.520743
_cell_length_c 9.918977
_cell_angle_alpha 90.000000
_cell_angle_beta 90.000000
_cell_angle_gamma 90.000000
_cell_volume 4593.898608
_symmetry_space_group_name_H-M "I -4 C 2"
_symmetry_group_IT_number 120
_symmetry_cell_setting 'tetragonal'
loop_
_space_group_symop_operation_xyz
x,y,z
y,-x,-z
-x,-y,z
-y,x,-z
y,x,1/2-z
-y,-x,1/2-z
-x,y,1/2+z
x,-y,1/2+z
1/2+x,1/2+y,1/2+z
1/2+y,1/2-x,1/2-z
1/2-x,1/2-y,1/2+z
1/2-y,1/2+x,1/2-z
1/2+y,1/2+x,-z
1/2-y,1/2-x,-z
1/2-x,1/2+y,z
1/2+x,1/2-y,z
loop_
_atom_site_type_symbol
_atom_site_label
_atom_site_fract_x
_atom_site_fract_y
_atom_site_fract_z
Si Si1 0.143193 0.245074 0.725776
Si Si2 0.086803 0.125731 0.112654
Si Si3 0.942756 0.750665 0.954305
Si Si4 0.981754 0.311962 0.732030
Si Si5 0.108140 0.627361 0.147708
Si Si6 0.368581 0.556924 0.861459
O O1 0.204502 0.204502 0.750000
O O2 0.117242 0.270175 0.869067
O O3 0.144554 0.306826 0.637953
O O4 0.090489 0.198219 0.664366
O O5 0.127470 0.127470 0.250000
O O6 0.015898 0.123328 0.161954
O O7 0.081018 0.182906 0.007911
O O8 0.110407 0.071186 0.014438
O O9 0.998449 0.739050 0.845835
O O10 0.965439 0.717401 0.088488
O O11 0.922465 0.351210 0.774442
O O12 0.041872 0.355832 0.712832
O O13 0.099633 0.599633 0.000000
O O14 0.410920 0.589081 0.750000
#
# Coordination Sequence:
#
# PCOD9559880 Si02
#       6
#    16  16  16  16  16  16
#     4  10  22  46  70  97 146 189 236 301 353 421
#     4  12  25  37  64  96 133 186 243 295 358 427
#     4  11  23  45  71 101 141 187 241 285 358 436
#     4  11  25  45  79 107 142 187 236 293 361 441
#     4  11  24  47  74 110 145 188 235 292 364 425
#     4  11  23  42  60  91 138 186 235 301 363 415
#
# _framework density 20.897282000000001
#
# number of rings (size 3 to 8) (size 9 to 14) (size 15 to 20)
#    0.000    1.000    5.000    3.000    2.333    5.000 
#    3.000    0.833    0.000    0.000    0.000    0.000 
#    0.000    0.000    0.000    0.000    0.000    0.000 
#
# Total GULP energy -267574.913740 kJ/mol
# GULP energy per Si atom -5574.477370 kJ/mol
# Density = 2.084972 g / cm^3
# Si number density = 20.897282 Si / 1000 Ang^3
#
#
#
# Elastic Constant Matrix: (Units=GPa)
#
#
# Indices 1 2 3 4 5 6 
#
# 1 36.1547 58.1418 13.7816 0.0000 0.0000 0.0000
# 2 58.1418 36.1781 13.7892 0.0000 0.0000 0.0000
# 3 13.7816 13.7892 126.3634 0.0000 0.0000 0.0000
# 4 0.0000 0.0000 0.0000 -46.5401 0.0000 0.0000
# 5 0.0000 0.0000 0.0000 0.0000 -46.3865 0.0000
# 6 0.0000 0.0000 0.0000 0.0000 0.0000 26.7338
#
#
#
# Elastic Compliance Matrix: (Units=1/GPa)
#
#
# Indices 1 2 3 4 5 6 
#
# 1 -0.017282 0.028229 -0.001196 0.000000 0.000000 0.000000
# 2 0.028229 -0.017271 -0.001194 0.000000 0.000000 0.000000
# 3 -0.001196 -0.001194 0.008174 0.000000 0.000000 0.000000
# 4 0.000000 0.000000 0.000000 -0.021487 0.000000 0.000000
# 5 0.000000 0.000000 0.000000 0.000000 -0.021558 0.000000
# 6 0.000000 0.000000 0.000000 0.000000 0.000000 0.037406
#
#
# Mechanical properties :
#
#
# Convention : Reuss Voigt Hill
#
# Bulk Modulus (GPa) = 39.52482 41.12461 40.32472
# Shear Modulus (GPa) = -66.43425 -5.70633 -36.07029
#
# Velocity S-wave (km/s) = -5.64446 -1.65426 -4.15911
# Velocity P-wave (km/s) = 4.85025 4.00916 1.93023
#
# Compressibility (1/GPa) = 0.02530056
#
# Stress axis : x y z
#
# Youngs Moduli (GPa) = -57.86465 -57.90096 122.33329
#
# Poissons Ratio (x) = 1.63449 0.14627
# Poissons Ratio (y) = 1.63347 0.14608
# Poissons Ratio (z) = -0.06919 -0.06914
#
# Static dielectric constant tensor:
#      x y z
#    x 1.790190 0.000000 0.000000 
#    y 0.000000 1.790190 0.000000 
#    z 0.000000 0.000000 2.177350 
# 
# From -- ./inp_files/1543.got.cif
#   From: 2010.05.17/outbox.cif.g08.bks.cpg/sg120_1_cif.got.tgz:1543.got - 2010.05.20 11:28:13.
