data_PCOD9559064
_publ_section_title
;
Structure prediction by ZEFSAII (Michael W. Deem and Ramdas Pophale) SiO2 
 PCOD9559064
Probable space group: I -4 M 2
;
_chemical_formula_sum "Si O2"
_cell_formula_units_Z 96
_cell_length_a 21.649242
_cell_length_b 21.649242
_cell_length_c 11.354228
_cell_angle_alpha 90.000000
_cell_angle_beta 90.000000
_cell_angle_gamma 90.000000
_cell_volume 5321.609479
_symmetry_space_group_name_H-M "I -4 M 2"
_symmetry_group_IT_number 119
_symmetry_cell_setting 'tetragonal'
loop_
_space_group_symop_operation_xyz
x,y,z
y,-x,-z
-x,-y,z
-y,x,-z
y,x,-z
-y,-x,-z
-x,y,z
x,-y,z
1/2+x,1/2+y,1/2+z
1/2+y,1/2-x,1/2-z
1/2-x,1/2-y,1/2+z
1/2-y,1/2+x,1/2-z
1/2+y,1/2+x,1/2-z
1/2-y,1/2-x,1/2-z
1/2-x,1/2+y,1/2+z
1/2+x,1/2-y,1/2+z
loop_
_atom_site_type_symbol
_atom_site_label
_atom_site_fract_x
_atom_site_fract_y
_atom_site_fract_z
Si Si1 0.825778 0.427401 0.278524
Si Si2 0.396714 0.342865 0.322019
Si Si3 0.170760 0.749059 0.667104
Si Si4 0.261936 0.632591 0.092019
Si Si5 0.395721 0.430261 0.124954
Si Si6 0.928906 0.210059 0.073952
O O1 0.840809 0.500000 0.282275
O O2 0.884759 0.384759 0.250000
O O3 0.780470 0.409893 0.171368
O O4 0.781494 0.413008 0.393027
O O5 0.379654 0.285440 0.241422
O O6 0.426636 0.391298 0.230679
O O7 0.334604 0.380027 0.361446
O O8 0.426374 0.314841 0.439669
O O9 0.195372 0.695372 0.750000
O O10 0.226008 0.798794 0.644005
O O11 0.143432 0.735823 0.538591
O O12 0.329517 0.601152 0.094209
O O13 0.387215 0.500000 0.164624
O O14 0.429471 0.429471 0.000000
O O15 0.000000 0.202169 0.114634
#
# Coordination Sequence:
#
# PCOD9559064 Si02
#       6
#    16  16  16  16  16  16
#     4  11  23  39  61  87 115 148 187 231 284 349
#     4  10  20  34  53  79 108 150 184 235 291 329
#     4  10  19  30  52  84 116 141 174 229 285 347
#     4  10  19  35  54  83 111 150 189 223 289 341
#     4  11  20  36  55  77 111 153 202 244 283 332
#     4  10  21  35  54  79 110 150 191 231 285 344
#
# _framework density 18.039656000000001
#
# number of rings (size 3 to 8) (size 9 to 14) (size 15 to 20)
#    0.000    1.667    6.667    1.500    2.333    2.333 
#    0.000    0.000    0.000    8.000    0.000    0.000 
#    0.000    0.000    0.000    0.000    0.000    0.000 
#
# Total GULP energy -267289.968540 kJ/mol
# GULP energy per Si atom -5568.541011 kJ/mol
# Density = 1.799860 g / cm^3
# Si number density = 18.039656 Si / 1000 Ang^3
#
#
#
# Elastic Constant Matrix: (Units=GPa)
#
#
# Indices 1 2 3 4 5 6 
#
# 1 70.5523 40.0215 27.6385 0.0000 0.0000 0.0000
# 2 40.0215 70.5523 27.6385 0.0000 0.0000 0.0000
# 3 27.6385 27.6385 125.1141 0.0000 0.0000 0.0000
# 4 0.0000 0.0000 0.0000 11.5925 0.0000 0.0000
# 5 0.0000 0.0000 0.0000 0.0000 11.5925 0.0000
# 6 0.0000 0.0000 0.0000 0.0000 0.0000 12.9095
#
#
#
# Elastic Compliance Matrix: (Units=1/GPa)
#
#
# Indices 1 2 3 4 5 6 
#
# 1 0.021460 -0.011294 -0.002246 0.000000 0.000000 0.000000
# 2 -0.011294 0.021460 -0.002246 0.000000 0.000000 0.000000
# 3 -0.002246 -0.002246 0.008985 0.000000 0.000000 0.000000
# 4 0.000000 0.000000 0.000000 0.086263 0.000000 0.000000
# 5 0.000000 0.000000 0.000000 0.000000 0.086263 0.000000
# 6 0.000000 0.000000 0.000000 0.000000 0.000000 0.077462
#
#
# Mechanical properties :
#
#
# Convention : Reuss Voigt Hill
#
# Bulk Modulus (GPa) = 49.17749 50.75731 49.96740
# Shear Modulus (GPa) = 14.69540 18.61356 16.65448
#
# Velocity S-wave (km/s) = 2.85725 3.21567 3.04174
# Velocity P-wave (km/s) = 6.18103 6.47958 6.33206
#
# Compressibility (1/GPa) = 0.02033451
#
# Stress axis : x y z
#
# Youngs Moduli (GPa) = 46.59797 46.59797 111.29738
#
# Poissons Ratio (x) = 0.52626 0.24996
# Poissons Ratio (y) = 0.52626 0.24996
# Poissons Ratio (z) = 0.10465 0.10465
#
# Static dielectric constant tensor:
#      x y z
#    x 1.630810 0.000000 0.000000 
#    y 0.000000 1.630810 0.000000 
#    z 0.000000 0.000000 1.666550 
# 
# From -- ./inp_files/4205.got.cif
#   From: 2010.05.17/outbox.cif.g08.bks.cpg/sg119_3_cif.got.tgz:4205.got - 2010.05.20 11:21:29.
