data_PCOD9559864
_publ_section_title
;
Structure prediction by ZEFSAII (Michael W. Deem and Ramdas Pophale) SiO2 
 PCOD9559864
Probable space group: I -4 C 2
;
_chemical_formula_sum "Si O2"
_cell_formula_units_Z 72
_cell_length_a 10.723093
_cell_length_b 10.723093
_cell_length_c 24.692247
_cell_angle_alpha 90.000000
_cell_angle_beta 90.000000
_cell_angle_gamma 90.000000
_cell_volume 2839.231194
_symmetry_space_group_name_H-M "I -4 C 2"
_symmetry_group_IT_number 120
_symmetry_cell_setting 'tetragonal'
loop_
_space_group_symop_operation_xyz
x,y,z
y,-x,-z
-x,-y,z
-y,x,-z
y,x,1/2-z
-y,-x,1/2-z
-x,y,1/2+z
x,-y,1/2+z
1/2+x,1/2+y,1/2+z
1/2+y,1/2-x,1/2-z
1/2-x,1/2-y,1/2+z
1/2-y,1/2+x,1/2-z
1/2+y,1/2+x,-z
1/2-y,1/2-x,-z
1/2-x,1/2+y,z
1/2+x,1/2-y,z
loop_
_atom_site_type_symbol
_atom_site_label
_atom_site_fract_x
_atom_site_fract_y
_atom_site_fract_z
Si Si1 0.807160 0.592031 0.837770
Si Si2 0.000000 0.500000 0.425140
Si Si3 0.612713 0.631199 0.341904
Si Si4 0.500000 0.500000 0.750000
Si Si5 0.000000 0.500000 0.750000
Si Si6 0.652904 0.152904 0.500000
Si Si7 0.602101 0.621219 0.462140
O O1 0.886211 0.546425 0.889490
O O2 0.691690 0.496889 0.838069
O O3 0.804123 0.743135 0.837641
O O4 0.892211 0.556591 0.786854
O O5 0.039295 0.378981 0.459739
O O6 0.518225 0.617266 0.291167
O O7 0.549693 0.628460 0.401873
O O8 0.683583 0.264867 0.540850
O O9 0.650614 0.486741 0.486864
#
# Coordination Sequence:
#
# PCOD9559864 Si02
#       7
#    16   8  16   4   4   8  16
#     4  11  25  47  73 113 152 208 266 345 411 505
#     4  10  22  42  66 108 148 196 264 314 406 488
#     4  12  27  47  77 112 157 210 275 341 426 503
#     4  12  28  48  74 108 152 208 280 342 416 496
#     4  10  24  46  76 102 156 198 276 342 420 478
#     4  11  22  40  72 101 148 204 244 319 392 488
#     4  11  25  43  69 109 155 201 261 329 401 495
#
# _framework density 25.358975999999998
#
# number of rings (size 3 to 8) (size 9 to 14) (size 15 to 20)
#    0.000    0.889    2.222    4.000    3.111    8.000 
#    0.000    0.000    0.000    0.000    0.000    0.000 
#    0.000    0.000    0.000    0.000    0.000    0.000 
#
# Total GULP energy -200468.605484 kJ/mol
# GULP energy per Si atom -5568.572375 kJ/mol
# Density = 2.530126 g / cm^3
# Si number density = 25.358976 Si / 1000 Ang^3
#
#
#
# Elastic Constant Matrix: (Units=GPa)
#
#
# Indices 1 2 3 4 5 6 
#
# 1 58.3966 4.7515 36.8234 0.0000 0.0000 0.0000
# 2 4.7515 58.3966 36.8234 0.0000 0.0000 0.0000
# 3 36.8234 36.8234 166.8498 0.0000 0.0000 0.0000
# 4 0.0000 0.0000 0.0000 37.9650 0.0000 0.0000
# 5 0.0000 0.0000 0.0000 0.0000 37.9650 0.0000
# 6 0.0000 0.0000 0.0000 0.0000 0.0000 36.3391
#
#
#
# Elastic Compliance Matrix: (Units=1/GPa)
#
#
# Indices 1 2 3 4 5 6 
#
# 1 0.019983 0.001342 -0.004706 0.000000 0.000000 0.000000
# 2 0.001342 0.019983 -0.004706 0.000000 0.000000 0.000000
# 3 -0.004706 -0.004706 0.008071 0.000000 0.000000 0.000000
# 4 0.000000 0.000000 0.000000 0.026340 0.000000 0.000000
# 5 0.000000 0.000000 0.000000 0.000000 0.026340 0.000000
# 6 0.000000 0.000000 0.000000 0.000000 0.000000 0.027519
#
#
# Mechanical properties :
#
#
# Convention : Reuss Voigt Hill
#
# Bulk Modulus (GPa) = 31.35320 48.93773 40.14547
# Shear Modulus (GPa) = 32.25636 36.13679 34.19658
#
# Velocity S-wave (km/s) = 3.57037 3.77903 3.67618
# Velocity P-wave (km/s) = 5.42100 6.19526 5.82102
#
# Compressibility (1/GPa) = 0.03189467
#
# Stress axis : x y z
#
# Youngs Moduli (GPa) = 50.04310 50.04310 123.90434
#
# Poissons Ratio (x) = -0.06714 0.58313
# Poissons Ratio (y) = -0.06714 0.58313
# Poissons Ratio (z) = 0.23552 0.23552
#
# Static dielectric constant tensor:
#      x y z
#    x 2.845750 0.000000 0.000000 
#    y 0.000000 2.845750 0.000000 
#    z 0.000000 0.000000 2.156880 
# 
# From -- ./inp_files/6201.got.cif
#   From: 2010.05.17/outbox.cif.g08.bks.cpg/sg120_4_cif.got.tgz:6201.got - 2010.05.20 11:28:13.
