data_PCOD9559436
_publ_section_title
;
Structure prediction by ZEFSAII (Michael W. Deem and Ramdas Pophale) SiO2 
 PCOD9559436
Probable space group: I -4 M 2
;
_chemical_formula_sum "Si O2"
_cell_formula_units_Z 88
_cell_length_a 14.291447
_cell_length_b 14.291447
_cell_length_c 21.690256
_cell_angle_alpha 90.000000
_cell_angle_beta 90.000000
_cell_angle_gamma 90.000000
_cell_volume 4430.136257
_symmetry_space_group_name_H-M "I -4 M 2"
_symmetry_group_IT_number 119
_symmetry_cell_setting 'tetragonal'
loop_
_space_group_symop_operation_xyz
x,y,z
y,-x,-z
-x,-y,z
-y,x,-z
y,x,-z
-y,-x,-z
-x,y,z
x,-y,z
1/2+x,1/2+y,1/2+z
1/2+y,1/2-x,1/2-z
1/2-x,1/2-y,1/2+z
1/2-y,1/2+x,1/2-z
1/2+y,1/2+x,1/2-z
1/2-y,1/2-x,1/2-z
1/2-x,1/2+y,1/2+z
1/2+x,1/2-y,1/2+z
loop_
_atom_site_type_symbol
_atom_site_label
_atom_site_fract_x
_atom_site_fract_y
_atom_site_fract_z
Si Si1 0.744722 0.105954 0.169729
Si Si2 0.278932 0.778932 0.750000
Si Si3 0.889688 0.275552 0.595079
Si Si4 0.600086 0.360341 0.568444
Si Si5 0.395929 0.744708 0.868863
Si Si6 0.356259 0.890913 0.969127
O O1 0.786942 0.176132 0.219781
O O2 0.648727 0.153871 0.147330
O O3 0.814508 0.108286 0.110723
O O4 0.733256 0.000000 0.190454
O O5 0.353472 0.782903 0.804786
O O6 0.828466 0.180830 0.603682
O O7 0.869008 0.330369 0.531181
O O8 0.000000 0.257309 0.599403
O O9 0.599076 0.400925 0.500000
O O10 0.500000 0.379795 0.599209
O O11 0.608517 0.250877 0.553505
O O12 0.500000 0.703889 0.861085
O O13 0.403148 0.831686 0.915288
O O14 0.384480 0.000000 0.977537
#
# Coordination Sequence:
#
# PCOD9559436 Si02
#       6
#    16   8  16  16  16  16
#     4  11  23  41  63  90 122 162 209 260 316 375
#     4  10  24  42  60  88 124 166 214 266 316 358
#     4  11  23  41  64  94 130 164 204 257 319 383
#     4  11  20  35  62  95 130 160 189 237 312 391
#     4  11  24  43  66  91 125 170 217 264 312 370
#     4  11  21  38  66  96 127 161 199 249 315 385
#
# _framework density 19.863949999999999
#
# number of rings (size 3 to 8) (size 9 to 14) (size 15 to 20)
#    0.000    1.091    5.455    2.182    0.000    8.545 
#    0.000    0.000    0.000    2.182    0.000    0.000 
#    0.000    0.000    0.000    0.000    0.000    0.000 
#
# Total GULP energy -245618.260441 kJ/mol
# GULP energy per Si atom -5582.233192 kJ/mol
# Density = 1.981874 g / cm^3
# Si number density = 19.863950 Si / 1000 Ang^3
#
#
#
# Elastic Constant Matrix: (Units=GPa)
#
#
# Indices 1 2 3 4 5 6 
#
# 1 144.3142 23.1416 15.3013 0.0000 0.0000 0.0000
# 2 23.1416 144.3145 15.3011 0.0000 0.0000 0.0000
# 3 15.3013 15.3011 69.9086 0.0000 0.0000 0.0000
# 4 0.0000 0.0000 0.0000 -3.4866 0.0000 0.0000
# 5 0.0000 0.0000 0.0000 0.0000 -3.4865 0.0000
# 6 0.0000 0.0000 0.0000 0.0000 0.0000 -9.1305
#
#
#
# Elastic Compliance Matrix: (Units=1/GPa)
#
#
# Indices 1 2 3 4 5 6 
#
# 1 0.007237 -0.001016 -0.001362 0.000000 0.000000 0.000000
# 2 -0.001016 0.007237 -0.001362 0.000000 0.000000 0.000000
# 3 -0.001362 -0.001362 0.014900 0.000000 0.000000 0.000000
# 4 0.000000 0.000000 0.000000 -0.286813 0.000000 0.000000
# 5 0.000000 0.000000 0.000000 0.000000 -0.286825 0.000000
# 6 0.000000 0.000000 0.000000 0.000000 0.000000 -0.109524
#
#
# Mechanical properties :
#
#
# Convention : Reuss Voigt Hill
#
# Bulk Modulus (GPa) = 45.67167 51.78059 48.72613
# Shear Modulus (GPa) = -7.82459 17.09885 4.63713
#
# Velocity S-wave (km/s) = -1.98687 2.93712 1.52955
# Velocity P-wave (km/s) = 4.21647 6.13404 5.26332
#
# Compressibility (1/GPa) = 0.02189541
#
# Stress axis : x y z
#
# Youngs Moduli (GPa) = 138.18615 138.18643 67.11229
#
# Poissons Ratio (x) = 0.14041 0.09138
# Poissons Ratio (y) = 0.14041 0.09137
# Poissons Ratio (z) = 0.18814 0.18814
#
# Static dielectric constant tensor:
#      x y z
#    x 1.743540 0.000000 0.000000 
#    y 0.000000 1.743540 0.000000 
#    z 0.000000 0.000000 1.703120 
# 
# From -- ./inp_files/7707.got.cif
#   From: 2010.05.17/outbox.cif.g08.bks.cpg/sg119_4_cif.got.tgz:7707.got - 2010.05.20 11:21:29.
