data_PCOD9559546
_publ_section_title
;
Structure prediction by ZEFSAII (Michael W. Deem and Ramdas Pophale) SiO2 
 PCOD9559546
Probable space group: I -4 M 2
;
_chemical_formula_sum "Si O2"
_cell_formula_units_Z 44
_cell_length_a 15.000000
_cell_length_b 15.000000
_cell_length_c 21.000000
_cell_angle_alpha 90.000000
_cell_angle_beta 90.000000
_cell_angle_gamma 90.000000
_cell_volume 4725.000000
_symmetry_space_group_name_H-M "I -4 M 2"
_symmetry_group_IT_number 119
_symmetry_cell_setting 'tetragonal'
loop_
_space_group_symop_operation_xyz
x,y,z
y,-x,-z
-x,-y,z
-y,x,-z
y,x,-z
-y,-x,-z
-x,y,z
x,-y,z
1/2+x,1/2+y,1/2+z
1/2+y,1/2-x,1/2-z
1/2-x,1/2-y,1/2+z
1/2-y,1/2+x,1/2-z
1/2+y,1/2+x,1/2-z
1/2-y,1/2-x,1/2-z
1/2-x,1/2+y,1/2+z
1/2+x,1/2-y,1/2+z
loop_
_atom_site_type_symbol
_atom_site_label
_atom_site_fract_x
_atom_site_fract_y
_atom_site_fract_z
Si Si1 0.225368 0.604697 0.704122
Si Si2 0.601010 0.601010 0.500000
Si Si3 0.901088 0.223363 0.208278
Si Si4 0.899201 0.708463 0.942425
Si Si5 0.178107 0.400028 0.157119
Si Si6 0.245702 0.104020 0.517143
O O1 0.232226 0.500000 0.721727
O O2 0.160763 0.660763 0.750000
O O3 0.321610 0.653035 0.702126
O O4 0.189135 0.609355 0.632092
O O5 0.607798 0.500000 0.472795
O O6 0.610709 0.684603 0.452692
O O7 0.883384 0.313133 0.166735
O O8 0.898769 0.258198 0.281230
O O9 0.000000 0.188316 0.194179
O O10 0.000000 0.685493 0.963496
O O11 0.825427 0.655773 0.981550
O O12 0.135303 0.500000 0.156308
O O13 0.232923 0.390100 0.092238
O O14 0.155412 0.155412 0.500000
O O15 0.243519 0.000000 0.499449
#
# Coordination Sequence:
#
# PCOD9559546 Si02
#       6
#    16   8  16  16  16  16
#     4  11  24  42  61  83 114 152 200 248 292 340
#     4   9  18  34  60  92 125 156 182 222 289 362
#     4  10  20  36  61  90 123 154 185 231 287 352
#     4  10  22  39  60  88 118 148 191 242 290 346
#     4   9  19  37  59  87 121 152 190 232 280 348
#     4  11  23  39  60  85 118 156 198 245 291 339
#
# _framework density 9.3121690000000008
#
# number of rings (size 3 to 8) (size 9 to 14) (size 15 to 20)
#    0.000    1.909    2.727    1.091    0.000    3.636 
#    0.000    7.273    0.000    3.273    0.000    0.000 
#    0.000    0.000    0.000    0.000    0.000    0.000 
#
# Total GULP energy -245489.743715 kJ/mol
# GULP energy per Si atom -5579.312357 kJ/mol
# Density = 0.929097 g / cm^3
# Si number density = 9.312169 Si / 1000 Ang^3
#
#
#
# Elastic Constant Matrix: (Units=GPa)
#
#
# Indices 1 2 3 4 5 6 
#
# 1 131.4407 75.1764 40.2683 0.0000 0.0000 0.0000
# 2 75.1764 131.4407 40.2683 0.0000 0.0000 0.0000
# 3 40.2683 40.2683 65.8505 0.0000 0.0000 0.0000
# 4 0.0000 0.0000 0.0000 9.9585 0.0000 0.0000
# 5 0.0000 0.0000 0.0000 0.0000 9.9585 0.0000
# 6 0.0000 0.0000 0.0000 0.0000 0.0000 15.5595
#
#
#
# Elastic Compliance Matrix: (Units=1/GPa)
#
#
# Indices 1 2 3 4 5 6 
#
# 1 0.012064 -0.005709 -0.003886 0.000000 0.000000 0.000000
# 2 -0.005709 0.012064 -0.003886 0.000000 0.000000 0.000000
# 3 -0.003886 -0.003886 0.019938 0.000000 0.000000 0.000000
# 4 0.000000 0.000000 0.000000 0.100417 0.000000 0.000000
# 5 0.000000 0.000000 0.000000 0.000000 0.100417 0.000000
# 6 0.000000 0.000000 0.000000 0.000000 0.000000 0.064269
#
#
# Mechanical properties :
#
#
# Convention : Reuss Voigt Hill
#
# Bulk Modulus (GPa) = 58.46584 71.12869 64.79727
# Shear Modulus (GPa) = 14.62706 18.62990 16.62848
#
# Velocity S-wave (km/s) = 2.80549 3.16618 2.99128
# Velocity P-wave (km/s) = 6.47724 7.18613 6.84087
#
# Compressibility (1/GPa) = 0.01710400
#
# Stress axis : x y z
#
# Youngs Moduli (GPa) = 82.89198 82.89198 50.15445
#
# Poissons Ratio (x) = 0.47326 0.19489
# Poissons Ratio (y) = 0.47326 0.19489
# Poissons Ratio (z) = 0.32211 0.32211
#
# Static dielectric constant tensor:
#      x y z
#    x 1.642150 0.000000 0.000000 
#    y 0.000000 1.642150 0.000000 
#    z 0.000000 0.000000 1.639640 
# 
# From -- ./inp_files/7680.got.cif
#   From: 2010.05.17/outbox.ucp.g08.bks.cvg/sg119_4_cif.got.tgz:7680.got - 2010.06.11 11:34:25.
