data_PCOD9559187
_publ_section_title
;
Structure prediction by ZEFSAII (Michael W. Deem and Ramdas Pophale) SiO2 
 PCOD9559187
Probable space group: I -4 M 2
;
_chemical_formula_sum "Si O2"
_cell_formula_units_Z 48
_cell_length_a 24.869579
_cell_length_b 24.869579
_cell_length_c 4.979184
_cell_angle_alpha 90.000000
_cell_angle_beta 90.000000
_cell_angle_gamma 90.000000
_cell_volume 3079.605186
_symmetry_space_group_name_H-M "I -4 M 2"
_symmetry_group_IT_number 119
_symmetry_cell_setting 'tetragonal'
loop_
_space_group_symop_operation_xyz
x,y,z
y,-x,-z
-x,-y,z
-y,x,-z
y,x,-z
-y,-x,-z
-x,y,z
x,-y,z
1/2+x,1/2+y,1/2+z
1/2+y,1/2-x,1/2-z
1/2-x,1/2-y,1/2+z
1/2-y,1/2+x,1/2-z
1/2+y,1/2+x,1/2-z
1/2-y,1/2-x,1/2-z
1/2-x,1/2+y,1/2+z
1/2+x,1/2-y,1/2+z
loop_
_atom_site_type_symbol
_atom_site_label
_atom_site_fract_x
_atom_site_fract_y
_atom_site_fract_z
Si Si1 0.210546 0.625848 0.122730
Si Si2 0.177095 0.438640 0.600842
Si Si3 0.777539 0.777539 0.500000
Si Si4 0.060124 0.560124 0.750000
O O1 0.168001 0.668001 0.250000
O O2 0.210119 0.578846 0.340852
O O3 0.191531 0.601068 0.843018
O O4 0.263538 0.661626 0.078578
O O5 0.188728 0.500000 0.676455
O O6 0.112179 0.435695 0.558886
O O7 0.739636 0.760364 0.250000
O O8 0.063606 0.500000 0.874925
#
# Coordination Sequence:
#
# PCOD9559187 Si02
#       4
#    16  16   8   8
#     4  11  19  34  48  68  89 117 155 199 240 288
#     4  11  21  33  48  66  92 123 157 200 246 284
#     4  10  20  32  52  70  90 114 152 203 250 287
#     4   9  18  32  46  62  86 124 170 208 242 278
#
# _framework density 15.586413
#
# number of rings (size 3 to 8) (size 9 to 14) (size 15 to 20)
#    0.000    1.500    3.333    5.000    0.000    0.000 
#    0.000    1.667    0.000    8.000    0.000    0.000 
#    0.000    0.000    0.000    0.000    0.000   58.333 
#
# Total GULP energy -133805.989097 kJ/mol
# GULP energy per Si atom -5575.249546 kJ/mol
# Density = 1.555094 g / cm^3
# Si number density = 15.586413 Si / 1000 Ang^3
#
#
#
# Elastic Constant Matrix: (Units=GPa)
#
#
# Indices 1 2 3 4 5 6 
#
# 1 69.1253 54.8909 21.6716 0.0000 0.0000 0.0000
# 2 54.8909 69.1253 21.6716 0.0000 0.0000 0.0000
# 3 21.6716 21.6716 79.5147 0.0000 0.0000 0.0000
# 4 0.0000 0.0000 0.0000 21.9117 0.0000 0.0000
# 5 0.0000 0.0000 0.0000 0.0000 21.9117 0.0000
# 6 0.0000 0.0000 0.0000 0.0000 0.0000 30.1341
#
#
#
# Elastic Compliance Matrix: (Units=1/GPa)
#
#
# Indices 1 2 3 4 5 6 
#
# 1 0.039582 -0.030670 -0.002429 0.000000 0.000000 0.000000
# 2 -0.030670 0.039582 -0.002429 0.000000 0.000000 0.000000
# 3 -0.002429 -0.002429 0.013900 0.000000 0.000000 0.000000
# 4 0.000000 0.000000 0.000000 0.045638 0.000000 0.000000
# 5 0.000000 0.000000 0.000000 0.000000 0.045638 0.000000
# 6 0.000000 0.000000 0.000000 0.000000 0.000000 0.033185
#
#
# Mechanical properties :
#
#
# Convention : Reuss Voigt Hill
#
# Bulk Modulus (GPa) = 45.43610 46.02596 45.73103
# Shear Modulus (GPa) = 16.89660 22.76026 19.82843
#
# Velocity S-wave (km/s) = 3.29608 3.82548 3.57061
# Velocity P-wave (km/s) = 6.61059 7.00757 6.81197
#
# Compressibility (1/GPa) = 0.02200893
#
# Stress axis : x y z
#
# Youngs Moduli (GPa) = 25.26384 25.26384 71.94059
#
# Poissons Ratio (x) = 0.77484 0.17475
# Poissons Ratio (y) = 0.77484 0.17475
# Poissons Ratio (z) = 0.06137 0.06137
#
# Static dielectric constant tensor:
#      x y z
#    x 1.529180 0.000000 0.000000 
#    y 0.000000 1.529180 0.000000 
#    z 0.000000 0.000000 1.561740 
# 
# From -- ./inp_files/643.got.cif
#   From: 2010.05.17/outbox.cif.g08.bks.cpg/sg119_1_cif.got.tgz:643.got - 2010.05.20 11:21:29.
