data_PCOD9559166
_publ_section_title
;
Structure prediction by ZEFSAII (Michael W. Deem and Ramdas Pophale) SiO2 
 PCOD9559166
Probable space group: I -4 M 2
;
_chemical_formula_sum "Si O2"
_cell_formula_units_Z 112
_cell_length_a 14.733562
_cell_length_b 14.733562
_cell_length_c 25.462350
_cell_angle_alpha 90.000000
_cell_angle_beta 90.000000
_cell_angle_gamma 90.000000
_cell_volume 5527.312174
_symmetry_space_group_name_H-M "I -4 M 2"
_symmetry_group_IT_number 119
_symmetry_cell_setting 'tetragonal'
loop_
_space_group_symop_operation_xyz
x,y,z
y,-x,-z
-x,-y,z
-y,x,-z
y,x,-z
-y,-x,-z
-x,y,z
x,-y,z
1/2+x,1/2+y,1/2+z
1/2+y,1/2-x,1/2-z
1/2-x,1/2-y,1/2+z
1/2-y,1/2+x,1/2-z
1/2+y,1/2+x,1/2-z
1/2-y,1/2-x,1/2-z
1/2-x,1/2+y,1/2+z
1/2+x,1/2-y,1/2+z
loop_
_atom_site_type_symbol
_atom_site_label
_atom_site_fract_x
_atom_site_fract_y
_atom_site_fract_z
Si Si1 0.894368 0.104769 0.253636
Si Si2 0.233342 0.901595 0.153018
Si Si3 0.396362 0.899892 0.011526
Si Si4 0.794706 0.890741 0.452095
Si Si5 0.866324 0.101469 0.938738
Si Si6 0.787940 0.801670 0.653501
Si Si7 0.399119 0.161775 0.603093
O O1 0.842753 0.108006 0.198309
O O2 0.846027 0.169636 0.295182
O O3 0.000000 0.128003 0.247125
O O4 0.888613 0.000000 0.272340
O O5 0.179642 0.904162 0.098231
O O6 0.289000 0.808343 0.156877
O O7 0.280127 0.000000 0.160396
O O8 0.500000 0.904224 0.030686
O O9 0.356555 0.808809 0.036497
O O10 0.354424 0.000000 0.021247
O O11 0.399217 0.886162 0.948570
O O12 0.855281 0.855281 0.500000
O O13 0.826494 0.846620 0.397831
O O14 0.795467 0.000000 0.450011
O O15 0.760715 0.100945 0.923827
O O16 0.900565 0.000000 0.926429
O O17 0.880793 0.119207 0.000000
O O18 0.685221 0.836088 0.642492
O O19 0.500000 0.144795 0.625585
#
# Coordination Sequence:
#
# PCOD9559166 Si02
#       7
#    16  16  16  16  16  16  16
#     4  10  22  42  66  90 118 156 203 255 311 369
#     4  10  22  38  59  86 120 160 196 240 300 366
#     4   9  18  33  53  76 109 156 201 239 290 361
#     4  11  23  38  57  86 124 164 206 256 310 360
#     4  10  20  31  49  81 116 149 184 227 281 348
#     4  11  22  37  62  89 120 156 209 259 306 360
#     4   9  19  33  52  80 118 154 191 241 297 356
#
# _framework density 20.263013000000001
#
# number of rings (size 3 to 8) (size 9 to 14) (size 15 to 20)
#    0.000    2.000    1.429    1.714    4.000    4.000 
#    0.000    0.000    0.000    1.286    0.000    4.000 
#    0.000    0.286    0.000    0.000    0.000    0.000 
#
# Total GULP energy -312582.062839 kJ/mol
# GULP energy per Si atom -5581.822551 kJ/mol
# Density = 2.021689 g / cm^3
# Si number density = 20.263013 Si / 1000 Ang^3
#
#
#
# Elastic Constant Matrix: (Units=GPa)
#
#
# Indices 1 2 3 4 5 6 
#
# 1 64.4398 23.7452 28.8792 0.0000 0.0000 0.0000
# 2 23.7452 64.4398 28.8792 0.0000 0.0000 0.0000
# 3 28.8792 28.8792 86.6600 0.0000 0.0000 0.0000
# 4 0.0000 0.0000 0.0000 5.6697 0.0000 0.0000
# 5 0.0000 0.0000 0.0000 0.0000 5.6697 0.0000
# 6 0.0000 0.0000 0.0000 0.0000 0.0000 16.0243
#
#
#
# Elastic Compliance Matrix: (Units=1/GPa)
#
#
# Indices 1 2 3 4 5 6 
#
# 1 0.019540 -0.005034 -0.004834 0.000000 0.000000 0.000000
# 2 -0.005034 0.019540 -0.004834 0.000000 0.000000 0.000000
# 3 -0.004834 -0.004834 0.014761 0.000000 0.000000 0.000000
# 4 0.000000 0.000000 0.000000 0.176375 0.000000 0.000000
# 5 0.000000 0.000000 0.000000 0.000000 0.176375 0.000000
# 6 0.000000 0.000000 0.000000 0.000000 0.000000 0.062405
#
#
# Mechanical properties :
#
#
# Convention : Reuss Voigt Hill
#
# Bulk Modulus (GPa) = 40.92174 42.06073 41.49123
# Shear Modulus (GPa) = 9.87078 14.40848 12.13963
#
# Velocity S-wave (km/s) = 2.20950 2.66949 2.45031
# Velocity P-wave (km/s) = 5.17188 5.50491 5.34099
#
# Compressibility (1/GPa) = 0.02443689
#
# Stress axis : x y z
#
# Youngs Moduli (GPa) = 51.17803 51.17803 67.74507
#
# Poissons Ratio (x) = 0.25761 0.32748
# Poissons Ratio (y) = 0.25761 0.32748
# Poissons Ratio (z) = 0.24740 0.24740
#
# Static dielectric constant tensor:
#      x y z
#    x 1.792110 0.000000 0.000000 
#    y 0.000000 1.792110 0.000000 
#    z 0.000000 0.000000 1.680810 
# 
# From -- ./inp_files/8849.got.cif
#   From: 2010.05.17/outbox.cif.g08.bks.cpg/sg119_5_cif.got.tgz:8849.got - 2010.05.20 11:21:29.
