data_PCOD9559651
_publ_section_title
;
Structure prediction by ZEFSAII (Michael W. Deem and Ramdas Pophale) SiO2 
 PCOD9559651
Probable space group: I -4 C 2
;
_chemical_formula_sum "Si O2"
_cell_formula_units_Z 92
_cell_length_a 14.568560
_cell_length_b 14.568560
_cell_length_c 19.110145
_cell_angle_alpha 90.000000
_cell_angle_beta 90.000000
_cell_angle_gamma 90.000000
_cell_volume 4055.993368
_symmetry_space_group_name_H-M "I -4 C 2"
_symmetry_group_IT_number 120
_symmetry_cell_setting 'tetragonal'
loop_
_space_group_symop_operation_xyz
x,y,z
y,-x,-z
-x,-y,z
-y,x,-z
y,x,1/2-z
-y,-x,1/2-z
-x,y,1/2+z
x,-y,1/2+z
1/2+x,1/2+y,1/2+z
1/2+y,1/2-x,1/2-z
1/2-x,1/2-y,1/2+z
1/2-y,1/2+x,1/2-z
1/2+y,1/2+x,-z
1/2-y,1/2-x,-z
1/2-x,1/2+y,z
1/2+x,1/2-y,z
loop_
_atom_site_type_symbol
_atom_site_label
_atom_site_fract_x
_atom_site_fract_y
_atom_site_fract_z
Si Si1 0.670793 0.562843 0.798795
Si Si2 0.277643 0.222358 0.000000
Si Si3 0.136931 0.863070 0.250000
Si Si4 0.500000 0.500000 0.394390
Si Si5 0.500000 0.000000 0.000000
Si Si6 0.138627 0.440101 0.748535
Si Si7 0.324244 0.948399 0.593981
Si Si8 0.610058 0.319585 0.903115
O O1 0.648208 0.648208 0.750000
O O2 0.655733 0.471298 0.753049
O O3 0.586982 0.550258 0.853897
O O4 0.781187 0.565958 0.806976
O O5 0.283159 0.132989 0.048259
O O6 0.286532 0.315284 0.042535
O O7 0.161283 0.829570 0.327535
O O8 0.441356 0.414939 0.425279
O O9 0.413581 0.012179 0.053000
O O10 0.112500 0.545964 0.733074
O O11 0.162130 0.406034 0.670974
O O12 0.254203 0.030870 0.602033
#
# Coordination Sequence:
#
# PCOD9559651 Si02
#       8
#    16   8   8   8   4  16  16  16
#     4  11  17  39  64 105 143 176 226 298 375 429
#     4  11  29  45  74 101 147 201 248 294 366 453
#     4  10  19  38  70 102 142 181 222 318 368 425
#     4  10  21  38  75 106 144 182 230 306 384 437
#     4  10  22  44  70  80 130 198 252 286 352 414
#     4  11  25  43  66 104 151 189 241 303 374 438
#     4  11  24  47  66  98 138 193 244 301 357 443
#     4  11  23  46  71 109 147 183 247 301 375 443
#
# _framework density 22.682482
#
# number of rings (size 3 to 8) (size 9 to 14) (size 15 to 20)
#    0.000    1.217    5.217    1.565    4.870    1.391 
#    7.826    0.000    0.000    0.000    0.000    0.000 
#    0.000    0.000    0.000    0.000    0.000    0.000 
#
# Total GULP energy -256448.645655 kJ/mol
# GULP energy per Si atom -5574.970558 kJ/mol
# Density = 2.263086 g / cm^3
# Si number density = 22.682482 Si / 1000 Ang^3
#
#
#
# Elastic Constant Matrix: (Units=GPa)
#
#
# Indices 1 2 3 4 5 6 
#
# 1 88.6986 32.0877 18.8777 0.0000 0.0000 0.0000
# 2 32.0877 88.6990 18.8791 0.0000 0.0000 0.0000
# 3 18.8777 18.8791 81.7217 0.0000 0.0000 0.0000
# 4 0.0000 0.0000 0.0000 21.3258 0.0000 0.0000
# 5 0.0000 0.0000 0.0000 0.0000 21.3286 0.0000
# 6 0.0000 0.0000 0.0000 0.0000 0.0000 24.7520
#
#
#
# Elastic Compliance Matrix: (Units=1/GPa)
#
#
# Indices 1 2 3 4 5 6 
#
# 1 0.013294 -0.004370 -0.002061 0.000000 0.000000 0.000000
# 2 -0.004370 0.013294 -0.002062 0.000000 0.000000 0.000000
# 3 -0.002061 -0.002062 0.013189 0.000000 0.000000 0.000000
# 4 0.000000 0.000000 0.000000 0.046892 0.000000 0.000000
# 5 0.000000 0.000000 0.000000 0.000000 0.046885 0.000000
# 6 0.000000 0.000000 0.000000 0.000000 0.000000 0.040401
#
#
# Mechanical properties :
#
#
# Convention : Reuss Voigt Hill
#
# Bulk Modulus (GPa) = 43.87820 44.31206 44.09513
# Shear Modulus (GPa) = 25.18410 26.09960 25.64185
#
# Velocity S-wave (km/s) = 3.33571 3.39580 3.36589
# Velocity P-wave (km/s) = 5.85000 5.91215 5.88116
#
# Compressibility (1/GPa) = 0.02279036
#
# Stress axis : x y z
#
# Youngs Moduli (GPa) = 75.22251 75.22231 75.82051
#
# Poissons Ratio (x) = 0.32876 0.15628
# Poissons Ratio (y) = 0.32876 0.15631
# Poissons Ratio (z) = 0.15505 0.15507
#
# Static dielectric constant tensor:
#      x y z
#    x 1.674430 0.000000 0.000000 
#    y 0.000000 1.675820 0.000000 
#    z 0.000000 0.000000 1.920080 
# 
# From -- ./inp_files/5421.got.cif
#   From: 2010.05.17/outbox.cif.g08.bks.cpg/sg120_3_cif.got.tgz:5421.got - 2010.05.20 11:28:13.
