data_PCOD9559170
_publ_section_title
;
Structure prediction by ZEFSAII (Michael W. Deem and Ramdas Pophale) SiO2 
 PCOD9559170
Probable space group: I -4 M 2
;
_chemical_formula_sum "Si O2"
_cell_formula_units_Z 72
_cell_length_a 30.863205
_cell_length_b 30.863205
_cell_length_c 5.261380
_cell_angle_alpha 90.000000
_cell_angle_beta 90.000000
_cell_angle_gamma 90.000000
_cell_volume 5011.661346
_symmetry_space_group_name_H-M "I -4 M 2"
_symmetry_group_IT_number 119
_symmetry_cell_setting 'tetragonal'
loop_
_space_group_symop_operation_xyz
x,y,z
y,-x,-z
-x,-y,z
-y,x,-z
y,x,-z
-y,-x,-z
-x,y,z
x,-y,z
1/2+x,1/2+y,1/2+z
1/2+y,1/2-x,1/2-z
1/2-x,1/2-y,1/2+z
1/2-y,1/2+x,1/2-z
1/2+y,1/2+x,1/2-z
1/2-y,1/2-x,1/2-z
1/2-x,1/2+y,1/2+z
1/2+x,1/2-y,1/2+z
loop_
_atom_site_type_symbol
_atom_site_label
_atom_site_fract_x
_atom_site_fract_y
_atom_site_fract_z
Si Si1 0.549075 0.111153 0.869220
Si Si2 0.292231 0.950029 0.747159
Si Si3 0.266337 0.306622 0.750015
Si Si4 0.127392 0.627392 0.750000
Si Si5 0.102646 0.277633 0.776462
O O1 0.500000 0.106935 0.967785
O O2 0.566517 0.066517 0.750000
O O3 0.549366 0.155276 0.701513
O O4 0.586884 0.121851 0.065412
O O5 0.282840 0.922160 0.492884
O O6 0.280294 0.000000 0.702618
O O7 0.268830 0.930108 0.992415
O O8 0.292436 0.292436 0.500000
O O9 0.222210 0.277791 0.750000
O O10 0.254630 0.357140 0.748045
O O11 0.292458 0.292458 0.000000
O O12 0.123299 0.675787 0.854506
#
# Coordination Sequence:
#
# PCOD9559170 Si02
#       5
#    16  16  16   8  16
#     4  10  20  33  45  59  80 103 137 192 236 292
#     4  10  21  33  50  70  88 112 154 196 228 273
#     4  10  20  32  46  71  98 118 147 183 224 287
#     4  10  20  32  46  65  76 108 148 170 226 306
#     4  11  19  33  53  67  91 120 145 181 238 276
#
# _framework density 14.366493
#
# number of rings (size 3 to 8) (size 9 to 14) (size 15 to 20)
#    0.000    1.778    3.333    2.000    0.000    2.000 
#    0.000    0.000    0.000    0.000    0.000    0.000 
#    0.000    0.000    0.000    0.000    0.000    0.000 
#
# Total GULP energy -200455.505364 kJ/mol
# GULP energy per Si atom -5568.208482 kJ/mol
# Density = 1.433379 g / cm^3
# Si number density = 14.366493 Si / 1000 Ang^3
#
#
#
# Elastic Constant Matrix: (Units=GPa)
#
#
# Indices 1 2 3 4 5 6 
#
# 1 66.6380 50.6021 31.9976 0.0000 0.0000 0.0000
# 2 50.6021 66.6370 31.9973 0.0000 0.0000 0.0000
# 3 31.9976 31.9973 76.7013 0.0000 0.0000 0.0000
# 4 0.0000 0.0000 0.0000 13.5571 0.0000 0.0000
# 5 0.0000 0.0000 0.0000 0.0000 13.5561 0.0000
# 6 0.0000 0.0000 0.0000 0.0000 0.0000 24.2752
#
#
#
# Elastic Compliance Matrix: (Units=1/GPa)
#
#
# Indices 1 2 3 4 5 6 
#
# 1 0.036703 -0.025659 -0.004607 0.000000 0.000000 0.000000
# 2 -0.025659 0.036704 -0.004607 0.000000 0.000000 0.000000
# 3 -0.004607 -0.004607 0.016882 0.000000 0.000000 0.000000
# 4 0.000000 0.000000 0.000000 0.073762 0.000000 0.000000
# 5 0.000000 0.000000 0.000000 0.000000 0.073768 0.000000
# 6 0.000000 0.000000 0.000000 0.000000 0.000000 0.041194
#
#
# Mechanical properties :
#
#
# Convention : Reuss Voigt Hill
#
# Bulk Modulus (GPa) = 48.68306 48.79670 48.73988
# Shear Modulus (GPa) = 14.06049 16.63631 15.34840
#
# Velocity S-wave (km/s) = 3.13181 3.40662 3.27210
# Velocity P-wave (km/s) = 6.85841 7.03653 6.94804
#
# Compressibility (1/GPa) = 0.02054103
#
# Stress axis : x y z
#
# Youngs Moduli (GPa) = 27.24569 27.24531 59.23556
#
# Poissons Ratio (x) = 0.69908 0.27292
# Poissons Ratio (y) = 0.69909 0.27292
# Poissons Ratio (z) = 0.12553 0.12553
#
# Static dielectric constant tensor:
#      x y z
#    x 1.473800 0.000000 0.000000 
#    y 0.000000 1.473800 0.000000 
#    z 0.000000 0.000000 1.535600 
# 
# From -- ./inp_files/919.got.cif
#   From: 2010.05.17/outbox.cif.g08.bks.cpg/sg119_1_cif.got.tgz:919.got - 2010.05.20 11:21:29.
