data_PCOD9559101
_publ_section_title
;
Structure prediction by ZEFSAII (Michael W. Deem and Ramdas Pophale) SiO2 
 PCOD9559101
Probable space group: I -4 M 2
;
_chemical_formula_sum "Si O2"
_cell_formula_units_Z 64
_cell_length_a 15.161549
_cell_length_b 15.161549
_cell_length_c 15.136136
_cell_angle_alpha 90.000000
_cell_angle_beta 90.000000
_cell_angle_gamma 90.000000
_cell_volume 3479.382453
_symmetry_space_group_name_H-M "I -4 M 2"
_symmetry_group_IT_number 119
_symmetry_cell_setting 'tetragonal'
loop_
_space_group_symop_operation_xyz
x,y,z
y,-x,-z
-x,-y,z
-y,x,-z
y,x,-z
-y,-x,-z
-x,y,z
x,-y,z
1/2+x,1/2+y,1/2+z
1/2+y,1/2-x,1/2-z
1/2-x,1/2-y,1/2+z
1/2-y,1/2+x,1/2-z
1/2+y,1/2+x,1/2-z
1/2-y,1/2-x,1/2-z
1/2-x,1/2+y,1/2+z
1/2+x,1/2-y,1/2+z
loop_
_atom_site_type_symbol
_atom_site_label
_atom_site_fract_x
_atom_site_fract_y
_atom_site_fract_z
Si Si1 0.400952 0.865081 0.353935
Si Si2 0.601373 0.662694 0.409969
Si Si3 0.393340 0.595348 0.229590
Si Si4 0.214698 0.897658 0.431193
O O1 0.500000 0.896865 0.376372
O O2 0.385219 0.885219 0.250000
O O3 0.401001 0.760477 0.370604
O O4 0.319658 0.897446 0.414074
O O5 0.654536 0.654536 0.500000
O O6 0.500000 0.635741 0.429880
O O7 0.639327 0.605876 0.329325
O O8 0.500000 0.598241 0.236826
O O9 0.367917 0.500000 0.192724
O O10 0.370049 0.672438 0.162953
O O11 0.170291 0.829710 0.500000
O O12 0.188185 0.000000 0.450738
#
# Coordination Sequence:
#
# PCOD9559101 Si02
#       4
#    16  16  16  16
#     4  11  22  38  58  82 115 155 199 244 288 339
#     4  10  19  32  52  80 114 152 193 239 291 344
#     4   9  17  30  49  76 112 151 188 227 279 346
#     4  11  22  37  57  84 117 153 192 240 297 352
#
# _framework density 18.394069999999999
#
# number of rings (size 3 to 8) (size 9 to 14) (size 15 to 20)
#    0.000    1.750    2.500    3.000    0.000    4.250 
#    0.000    0.000    0.000    0.000    0.000    0.000 
#    0.000    0.000    0.000    0.000    0.000    0.000 
#
# Total GULP energy -178307.940898 kJ/mol
# GULP energy per Si atom -5572.123153 kJ/mol
# Density = 1.835220 g / cm^3
# Si number density = 18.394070 Si / 1000 Ang^3
#
#
#
# Elastic Constant Matrix: (Units=GPa)
#
#
# Indices 1 2 3 4 5 6 
#
# 1 94.8249 19.5663 37.6698 0.0000 0.0000 0.0000
# 2 19.5663 94.8253 37.6702 0.0000 0.0000 0.0000
# 3 37.6698 37.6702 106.8471 0.0000 0.0000 0.0000
# 4 0.0000 0.0000 0.0000 23.3703 0.0000 0.0000
# 5 0.0000 0.0000 0.0000 0.0000 23.3700 0.0000
# 6 0.0000 0.0000 0.0000 0.0000 0.0000 18.6910
#
#
#
# Elastic Compliance Matrix: (Units=1/GPa)
#
#
# Indices 1 2 3 4 5 6 
#
# 1 0.012337 -0.000951 -0.004014 0.000000 0.000000 0.000000
# 2 -0.000951 0.012337 -0.004014 0.000000 0.000000 0.000000
# 3 -0.004014 -0.004014 0.012190 0.000000 0.000000 0.000000
# 4 0.000000 0.000000 0.000000 0.042789 0.000000 0.000000
# 5 0.000000 0.000000 0.000000 0.000000 0.042790 0.000000
# 6 0.000000 0.000000 0.000000 0.000000 0.000000 0.053502
#
#
# Mechanical properties :
#
#
# Convention : Reuss Voigt Hill
#
# Bulk Modulus (GPa) = 52.89760 54.03443 53.46602
# Shear Modulus (GPa) = 24.97460 26.52567 25.75013
#
# Velocity S-wave (km/s) = 3.68877 3.80159 3.74560
# Velocity P-wave (km/s) = 6.85296 6.97920 6.91637
#
# Compressibility (1/GPa) = 0.01890445
#
# Stress axis : x y z
#
# Youngs Moduli (GPa) = 81.05968 81.05970 82.03696
#
# Poissons Ratio (x) = 0.07708 0.32931
# Poissons Ratio (y) = 0.07708 0.32931
# Poissons Ratio (z) = 0.32538 0.32539
#
# Static dielectric constant tensor:
#      x y z
#    x 1.674930 0.000000 0.000000 
#    y 0.000000 1.674930 0.000000 
#    z 0.000000 0.000000 1.626840 
# 
# From -- ./inp_files/5049.got.cif
#   From: 2010.05.17/outbox.cif.g08.bks.cpg/sg119_3_cif.got.tgz:5049.got - 2010.05.20 11:21:29.
