data_PCOD9559149
_publ_section_title
;
Structure prediction by ZEFSAII (Michael W. Deem and Ramdas Pophale) SiO2 
 PCOD9559149
Probable space group: I -4 M 2
;
_chemical_formula_sum "Si O2"
_cell_formula_units_Z 96
_cell_length_a 15.048556
_cell_length_b 15.048556
_cell_length_c 20.657024
_cell_angle_alpha 90.000000
_cell_angle_beta 90.000000
_cell_angle_gamma 90.000000
_cell_volume 4677.969776
_symmetry_space_group_name_H-M "I -4 M 2"
_symmetry_group_IT_number 119
_symmetry_cell_setting 'tetragonal'
loop_
_space_group_symop_operation_xyz
x,y,z
y,-x,-z
-x,-y,z
-y,x,-z
y,x,-z
-y,-x,-z
-x,y,z
x,-y,z
1/2+x,1/2+y,1/2+z
1/2+y,1/2-x,1/2-z
1/2-x,1/2-y,1/2+z
1/2-y,1/2+x,1/2-z
1/2+y,1/2+x,1/2-z
1/2-y,1/2-x,1/2-z
1/2-x,1/2+y,1/2+z
1/2+x,1/2-y,1/2+z
loop_
_atom_site_type_symbol
_atom_site_label
_atom_site_fract_x
_atom_site_fract_y
_atom_site_fract_z
Si Si1 0.786774 0.395205 0.443293
Si Si2 0.603770 0.108632 0.821184
Si Si3 0.898028 0.341945 0.916173
Si Si4 0.636784 0.399819 0.613560
Si Si5 0.607215 0.595049 0.236853
Si Si6 0.784728 0.397783 0.800472
O O1 0.805914 0.500000 0.445631
O O2 0.836000 0.358444 0.380024
O O3 0.825776 0.362019 0.511188
O O4 0.681083 0.387891 0.433266
O O5 0.500000 0.131581 0.830224
O O6 0.636490 0.136490 0.750000
O O7 0.607429 0.000000 0.819705
O O8 0.903078 0.243093 0.886441
O O9 0.832037 0.393920 0.869796
O O10 0.000000 0.377274 0.917108
O O11 0.605979 0.500000 0.596256
O O12 0.604822 0.377539 0.686040
O O13 0.500000 0.591798 0.229285
O O14 0.644748 0.500000 0.215339
O O15 0.637104 0.683668 0.200691
O O16 0.783235 0.500000 0.777715
O O17 0.841609 0.341609 0.750000
#
# Coordination Sequence:
#
# PCOD9559149 Si02
#       6
#    16  16  16  16  16  16
#     4  10  20  33  54  82 114 151 195 244 296 358
#     4   8  15  31  53  75 106 148 190 236 289 345
#     4  10  21  36  52  80 121 159 196 240 296 360
#     4  10  19  35  57  80 112 153 197 247 302 362
#     4   9  18  34  58  87 120 156 198 251 306 358
#     4  11  21  36  59  87 124 165 206 253 301 357
#
# _framework density 20.521723000000001
#
# number of rings (size 3 to 8) (size 9 to 14) (size 15 to 20)
#    0.000    2.333    1.667    2.000    0.000    2.833 
#    3.000    2.500    0.000    6.000    0.000    1.167 
#    0.000    1.667    0.000    5.333    0.000    0.000 
#
# Total GULP energy -267897.733226 kJ/mol
# GULP energy per Si atom -5581.202776 kJ/mol
# Density = 2.047501 g / cm^3
# Si number density = 20.521723 Si / 1000 Ang^3
#
#
#
# Elastic Constant Matrix: (Units=GPa)
#
#
# Indices 1 2 3 4 5 6 
#
# 1 85.8530 22.7852 50.5213 0.0000 0.0000 0.0000
# 2 22.7852 85.8530 50.5213 0.0000 0.0000 0.0000
# 3 50.5213 50.5213 128.6503 0.0000 0.0000 0.0000
# 4 0.0000 0.0000 0.0000 23.1612 0.0000 0.0000
# 5 0.0000 0.0000 0.0000 0.0000 23.1612 0.0000
# 6 0.0000 0.0000 0.0000 0.0000 0.0000 3.7788
#
#
#
# Elastic Compliance Matrix: (Units=1/GPa)
#
#
# Indices 1 2 3 4 5 6 
#
# 1 0.015179 -0.000677 -0.005695 0.000000 0.000000 0.000000
# 2 -0.000677 0.015179 -0.005695 0.000000 0.000000 0.000000
# 3 -0.005695 -0.005695 0.012246 0.000000 0.000000 0.000000
# 4 0.000000 0.000000 0.000000 0.043176 0.000000 0.000000
# 5 0.000000 0.000000 0.000000 0.000000 0.043176 0.000000
# 6 0.000000 0.000000 0.000000 0.000000 0.000000 0.264632
#
#
# Mechanical properties :
#
#
# Convention : Reuss Voigt Hill
#
# Bulk Modulus (GPa) = 54.14306 60.89023 57.51664
# Shear Modulus (GPa) = 11.79588 21.78882 16.79235
#
# Velocity S-wave (km/s) = 2.40010 3.26198 2.86365
# Velocity P-wave (km/s) = 5.84134 6.62743 6.24676
#
# Compressibility (1/GPa) = 0.01846959
#
# Stress axis : x y z
#
# Youngs Moduli (GPa) = 65.88176 65.88176 81.66124
#
# Poissons Ratio (x) = 0.04462 0.46504
# Poissons Ratio (y) = 0.04462 0.46504
# Poissons Ratio (z) = 0.37518 0.37518
#
# Static dielectric constant tensor:
#      x y z
#    x 1.765800 0.000000 0.000000 
#    y 0.000000 1.765800 0.000000 
#    z 0.000000 0.000000 1.753700 
# 
# From -- ./inp_files/7775.got.cif
#   From: 2010.05.17/outbox.cif.g08.bks.cpg/sg119_4_cif.got.tgz:7775.got - 2010.05.20 11:21:29.
