data_PCOD9559765
_publ_section_title
;
Structure prediction by ZEFSAII (Michael W. Deem and Ramdas Pophale) SiO2 
 PCOD9559765
Probable space group: I -4 C 2
;
_chemical_formula_sum "Si O2"
_cell_formula_units_Z 100
_cell_length_a 15.226184
_cell_length_b 15.226184
_cell_length_c 23.484075
_cell_angle_alpha 90.000000
_cell_angle_beta 90.000000
_cell_angle_gamma 90.000000
_cell_volume 5444.469962
_symmetry_space_group_name_H-M "I -4 C 2"
_symmetry_group_IT_number 120
_symmetry_cell_setting 'tetragonal'
loop_
_space_group_symop_operation_xyz
x,y,z
y,-x,-z
-x,-y,z
-y,x,-z
y,x,1/2-z
-y,-x,1/2-z
-x,y,1/2+z
x,-y,1/2+z
1/2+x,1/2+y,1/2+z
1/2+y,1/2-x,1/2-z
1/2-x,1/2-y,1/2+z
1/2-y,1/2+x,1/2-z
1/2+y,1/2+x,-z
1/2-y,1/2-x,-z
1/2-x,1/2+y,z
1/2+x,1/2-y,z
loop_
_atom_site_type_symbol
_atom_site_label
_atom_site_fract_x
_atom_site_fract_y
_atom_site_fract_z
Si Si1 0.945012 0.198886 0.325930
Si Si2 0.655327 0.543263 0.365437
Si Si3 0.292235 0.224544 0.690494
Si Si4 0.000000 0.500000 0.250000
Si Si5 0.337773 0.618698 0.111322
Si Si6 0.502918 0.195228 0.213153
Si Si7 0.619328 0.584568 0.491463
O O1 0.909653 0.098649 0.324779
O O2 0.858072 0.252264 0.341928
O O3 0.025027 0.198883 0.369447
O O4 0.976331 0.247470 0.268497
O O5 0.623090 0.442588 0.373556
O O6 0.752055 0.541070 0.338633
O O7 0.654446 0.587395 0.427591
O O8 0.241930 0.241930 0.750000
O O9 0.291924 0.308654 0.650096
O O10 0.392715 0.204256 0.705990
O O11 0.092018 0.480925 0.282470
O O12 0.331778 0.631719 0.043548
O O13 0.615928 0.481570 0.508540
#
# Coordination Sequence:
#
# PCOD9559765 Si02
#       7
#    16  16  16   4  16  16  16
#     4  12  21  36  60  88 122 155 191 248 306 347
#     4  10  21  35  62  94 120 149 190 248 309 366
#     4  11  22  37  54  85 125 150 199 247 291 360
#     4  12  24  44  60  76 118 176 208 232 304 366
#     4  10  21  37  60  88 124 160 190 243 304 370
#     4  11  23  38  59  85 116 161 203 241 296 364
#     4   9  16  33  59  86 119 155 189 227 301 376
#
# _framework density 18.367260000000002
#
# number of rings (size 3 to 8) (size 9 to 14) (size 15 to 20)
#    0.000    1.440    4.800    1.920    0.000    0.000 
#    0.000    4.000    0.000    0.000    0.000    1.120 
#    0.000    0.000    0.000    0.000    0.000    0.000 
#
# Total GULP energy -278865.870062 kJ/mol
# GULP energy per Si atom -5577.317401 kJ/mol
# Density = 1.832546 g / cm^3
# Si number density = 18.367260 Si / 1000 Ang^3
#
#
#
# Elastic Constant Matrix: (Units=GPa)
#
#
# Indices 1 2 3 4 5 6 
#
# 1 81.0979 25.7083 41.2904 0.0000 0.0000 0.0000
# 2 25.7083 81.0979 41.2904 0.0000 0.0000 0.0000
# 3 41.2904 41.2904 107.0991 0.0000 0.0000 0.0000
# 4 0.0000 0.0000 0.0000 11.8864 0.0000 0.0000
# 5 0.0000 0.0000 0.0000 0.0000 11.8864 0.0000
# 6 0.0000 0.0000 0.0000 0.0000 0.0000 22.9206
#
#
#
# Elastic Compliance Matrix: (Units=1/GPa)
#
#
# Indices 1 2 3 4 5 6 
#
# 1 0.015696 -0.002357 -0.005143 0.000000 0.000000 0.000000
# 2 -0.002357 0.015696 -0.005143 0.000000 0.000000 0.000000
# 3 -0.005143 -0.005143 0.013302 0.000000 0.000000 0.000000
# 4 0.000000 0.000000 0.000000 0.084130 0.000000 0.000000
# 5 0.000000 0.000000 0.000000 0.000000 0.084130 0.000000
# 6 0.000000 0.000000 0.000000 0.000000 0.000000 0.043629
#
#
# Mechanical properties :
#
#
# Convention : Reuss Voigt Hill
#
# Bulk Modulus (GPa) = 51.52022 53.98592 52.75307
# Shear Modulus (GPa) = 17.34068 20.07238 18.70653
#
# Velocity S-wave (km/s) = 3.07597 3.30939 3.19481
# Velocity P-wave (km/s) = 6.38172 6.63770 6.51097
#
# Compressibility (1/GPa) = 0.01940985
#
# Stress axis : x y z
#
# Youngs Moduli (GPa) = 63.70867 63.70867 75.17399
#
# Poissons Ratio (x) = 0.15019 0.38659
# Poissons Ratio (y) = 0.15019 0.38659
# Poissons Ratio (z) = 0.32763 0.32763
#
# Static dielectric constant tensor:
#      x y z
#    x 1.655210 0.000000 0.000000 
#    y 0.000000 1.655210 0.000000 
#    z 0.000000 0.000000 1.635150 
# 
# From -- ./inp_files/5854.got.cif
#   From: 2010.05.17/outbox.cif.g08.bks.cpg/sg120_3_cif.got.tgz:5854.got - 2010.05.20 11:28:13.
