data_PCOD9559332
_publ_section_title
;
Structure prediction by ZEFSAII (Michael W. Deem and Ramdas Pophale) SiO2 
 PCOD9559332
Probable space group: I -4 M 2
;
_chemical_formula_sum "Si O2"
_cell_formula_units_Z 72
_cell_length_a 13.014150
_cell_length_b 13.014150
_cell_length_c 25.348268
_cell_angle_alpha 90.000000
_cell_angle_beta 90.000000
_cell_angle_gamma 90.000000
_cell_volume 4293.187995
_symmetry_space_group_name_H-M "I -4 M 2"
_symmetry_group_IT_number 119
_symmetry_cell_setting 'tetragonal'
loop_
_space_group_symop_operation_xyz
x,y,z
y,-x,-z
-x,-y,z
-y,x,-z
y,x,-z
-y,-x,-z
-x,y,z
x,-y,z
1/2+x,1/2+y,1/2+z
1/2+y,1/2-x,1/2-z
1/2-x,1/2-y,1/2+z
1/2-y,1/2+x,1/2-z
1/2+y,1/2+x,1/2-z
1/2-y,1/2-x,1/2-z
1/2-x,1/2+y,1/2+z
1/2+x,1/2-y,1/2+z
loop_
_atom_site_type_symbol
_atom_site_label
_atom_site_fract_x
_atom_site_fract_y
_atom_site_fract_z
Si Si1 0.118848 0.811255 0.945691
Si Si2 0.500000 0.375151 0.626329
Si Si3 0.000000 0.124562 0.246619
Si Si4 0.227662 0.122450 0.283215
Si Si5 0.618325 0.219053 0.093683
Si Si6 0.880401 0.119599 0.500000
O O1 0.132653 0.700720 0.919995
O O2 0.000000 0.832916 0.958045
O O3 0.156111 0.898575 0.905336
O O4 0.179538 0.820463 0.000000
O O5 0.500000 0.500000 0.628203
O O6 0.500000 0.338958 0.686161
O O7 0.890729 0.153825 0.271954
O O8 0.000000 0.000000 0.247356
O O9 0.306958 0.193043 0.250000
O O10 0.247476 0.131964 0.345744
O O11 0.239485 0.000000 0.269409
O O12 0.500000 0.186824 0.086954
O O13 0.638663 0.310010 0.051249
O O14 0.000000 0.134067 0.485306
#
# Coordination Sequence:
#
# PCOD9559332 Si02
#       6
#    16   8   8  16  16   8
#     4  11  20  33  52  78 111 141 176 220 268 322
#     4   9  18  30  52  76 104 136 176 218 267 310
#     4   9  18  34  54  81 107 141 183 230 270 317
#     4  10  21  36  56  82 112 145 186 229 279 328
#     4  10  21  35  53  79 107 142 178 216 269 328
#     4   9  18  32  52  74  99 128 168 216 263 310
#
# _framework density 16.770755000000001
#
# number of rings (size 3 to 8) (size 9 to 14) (size 15 to 20)
#    0.000    2.111    2.222    1.333    1.556    3.333 
#    0.000    2.222    0.000    0.333    0.000    0.000 
#    0.000    0.000    0.000    0.000    0.000    0.000 
#
# Total GULP energy -200601.483523 kJ/mol
# GULP energy per Si atom -5572.263431 kJ/mol
# Density = 1.673258 g / cm^3
# Si number density = 16.770755 Si / 1000 Ang^3
#
#
#
# Elastic Constant Matrix: (Units=GPa)
#
#
# Indices 1 2 3 4 5 6 
#
# 1 70.6824 35.1626 37.0917 0.0000 0.0000 0.0000
# 2 35.1626 70.6840 37.0909 0.0000 0.0000 0.0000
# 3 37.0917 37.0909 90.9535 0.0000 0.0000 0.0000
# 4 0.0000 0.0000 0.0000 19.2282 0.0000 0.0000
# 5 0.0000 0.0000 0.0000 0.0000 19.2275 0.0000
# 6 0.0000 0.0000 0.0000 0.0000 0.0000 24.1769
#
#
#
# Elastic Compliance Matrix: (Units=1/GPa)
#
#
# Indices 1 2 3 4 5 6 
#
# 1 0.020691 -0.007462 -0.005395 0.000000 0.000000 0.000000
# 2 -0.007462 0.020690 -0.005394 0.000000 0.000000 0.000000
# 3 -0.005395 -0.005394 0.015395 0.000000 0.000000 0.000000
# 4 0.000000 0.000000 0.000000 0.052007 0.000000 0.000000
# 5 0.000000 0.000000 0.000000 0.000000 0.052009 0.000000
# 6 0.000000 0.000000 0.000000 0.000000 0.000000 0.041362
#
#
# Mechanical properties :
#
#
# Convention : Reuss Voigt Hill
#
# Bulk Modulus (GPa) = 49.32659 50.11224 49.71942
# Shear Modulus (GPa) = 20.37374 20.72483 20.54929
#
# Velocity S-wave (km/s) = 3.48923 3.51917 3.50423
# Velocity P-wave (km/s) = 6.76085 6.81604 6.78850
#
# Compressibility (1/GPa) = 0.02027304
#
# Stress axis : x y z
#
# Youngs Moduli (GPa) = 48.33000 48.33207 64.95784
#
# Poissons Ratio (x) = 0.36066 0.35045
# Poissons Ratio (y) = 0.36064 0.35041
# Poissons Ratio (z) = 0.26074 0.26072
#
# Static dielectric constant tensor:
#      x y z
#    x 1.571030 0.000000 0.000000 
#    y 0.000000 1.571030 0.000000 
#    z 0.000000 0.000000 1.559730 
# 
# From -- ./inp_files/9418.got.cif
#   From: 2010.05.17/outbox.cif.g08.bks.cpg/sg119_5_cif.got.tgz:9418.got - 2010.05.20 11:21:29.
