data_PCOD9559184
_publ_section_title
;
Structure prediction by ZEFSAII (Michael W. Deem and Ramdas Pophale) SiO2 
 PCOD9559184
Probable space group: I -4 M 2
;
_chemical_formula_sum "Si O2"
_cell_formula_units_Z 58
_cell_length_a 12.106384
_cell_length_b 12.106384
_cell_length_c 24.349416
_cell_angle_alpha 90.000000
_cell_angle_beta 90.000000
_cell_angle_gamma 90.000000
_cell_volume 3568.760798
_symmetry_space_group_name_H-M "I -4 M 2"
_symmetry_group_IT_number 119
_symmetry_cell_setting 'tetragonal'
loop_
_space_group_symop_operation_xyz
x,y,z
y,-x,-z
-x,-y,z
-y,x,-z
y,x,-z
-y,-x,-z
-x,y,z
x,-y,z
1/2+x,1/2+y,1/2+z
1/2+y,1/2-x,1/2-z
1/2-x,1/2-y,1/2+z
1/2-y,1/2+x,1/2-z
1/2+y,1/2+x,1/2-z
1/2-y,1/2-x,1/2-z
1/2-x,1/2+y,1/2+z
1/2+x,1/2-y,1/2+z
loop_
_atom_site_type_symbol
_atom_site_label
_atom_site_fract_x
_atom_site_fract_y
_atom_site_fract_z
Si Si1 0.130478 0.278504 0.963579
Si Si2 0.500000 0.665440 0.898634
Si Si3 0.000000 0.627613 0.465661
Si Si4 0.629837 0.129837 0.250000
Si Si5 0.000000 0.000000 0.500000
Si Si6 0.254944 0.627924 0.861924
O O1 0.198022 0.295425 0.907523
O O2 0.000000 0.266488 0.953384
O O3 0.180335 0.180335 0.000000
O O4 0.148575 0.391061 0.998191
O O5 0.500000 0.793415 0.913721
O O6 0.500000 0.602570 0.957939
O O7 0.387100 0.635686 0.867827
O O8 0.000000 0.500000 0.449817
O O9 0.500000 0.143878 0.265050
O O10 0.653832 0.206992 0.197998
O O11 0.223227 0.500000 0.873559
#
# Coordination Sequence:
#
# PCOD9559184 Si02
#       6
#    16   8   8   8   2  16
#     4  11  21  33  53  80 112 145 179 221 274 335
#     4  12  20  32  56  84 118 140 176 222 287 335
#     4  10  20  32  50  80 110 144 172 213 264 345
#     4   9  20  36  56  78 105 142 188 230 269 316
#     4  12  20  28  52 100 116 140 160 224 290 356
#     4  11  20  34  55  84 110 142 180 231 276 326
#
# _framework density 16.252139
#
# number of rings (size 3 to 8) (size 9 to 14) (size 15 to 20)
#    0.000    1.241    5.517    2.483    0.000    1.379 
#    0.000    0.000    6.069    0.000    0.000    0.000 
#    0.000    0.000    0.000    0.000    0.000    0.000 
#
# Total GULP energy -161865.776435 kJ/mol
# GULP energy per Si atom -5581.578498 kJ/mol
# Density = 1.621515 g / cm^3
# Si number density = 16.252139 Si / 1000 Ang^3
#
#
#
# Elastic Constant Matrix: (Units=GPa)
#
#
# Indices 1 2 3 4 5 6 
#
# 1 72.0327 36.5687 51.8718 0.0000 0.0000 0.0000
# 2 36.5687 72.0327 51.8718 0.0000 0.0000 0.0000
# 3 51.8718 51.8718 106.7826 0.0000 0.0000 0.0000
# 4 0.0000 0.0000 0.0000 22.9815 0.0000 0.0000
# 5 0.0000 0.0000 0.0000 0.0000 22.9815 0.0000
# 6 0.0000 0.0000 0.0000 0.0000 0.0000 23.4830
#
#
#
# Elastic Compliance Matrix: (Units=1/GPa)
#
#
# Indices 1 2 3 4 5 6 
#
# 1 0.022689 -0.005509 -0.008346 0.000000 0.000000 0.000000
# 2 -0.005509 0.022689 -0.008346 0.000000 0.000000 0.000000
# 3 -0.008346 -0.008346 0.017473 0.000000 0.000000 0.000000
# 4 0.000000 0.000000 0.000000 0.043513 0.000000 0.000000
# 5 0.000000 0.000000 0.000000 0.000000 0.043513 0.000000
# 6 0.000000 0.000000 0.000000 0.000000 0.000000 0.042584
#
#
# Mechanical properties :
#
#
# Convention : Reuss Voigt Hill
#
# Bulk Modulus (GPa) = 54.19781 59.05251 56.62516
# Shear Modulus (GPa) = 20.57512 21.25825 20.91669
#
# Velocity S-wave (km/s) = 3.56194 3.62059 3.59139
# Velocity P-wave (km/s) = 7.09486 7.34114 7.21905
#
# Compressibility (1/GPa) = 0.01845093
#
# Stress axis : x y z
#
# Youngs Moduli (GPa) = 44.07418 44.07418 57.23108
#
# Poissons Ratio (x) = 0.24279 0.47763
# Poissons Ratio (y) = 0.24279 0.47763
# Poissons Ratio (z) = 0.36783 0.36783
#
# Static dielectric constant tensor:
#      x y z
#    x 1.549380 0.000000 0.000000 
#    y 0.000000 1.549380 0.000000 
#    z 0.000000 0.000000 1.520380 
# 
# From -- ./inp_files/7420.got.cif
#   From: 2010.05.17/outbox.cif.g08.bks.cpg/sg119_4_cif.got.tgz:7420.got - 2010.05.20 11:21:29.
