data_PCOD9559931
_publ_section_title
;
Structure prediction by ZEFSAII (Michael W. Deem and Ramdas Pophale) SiO2 
 PCOD9559931
Probable space group: I -4 C 2
;
_chemical_formula_sum "Si O2"
_cell_formula_units_Z 64
_cell_length_a 11.154508
_cell_length_b 11.154508
_cell_length_c 21.870395
_cell_angle_alpha 90.000000
_cell_angle_beta 90.000000
_cell_angle_gamma 90.000000
_cell_volume 2721.181223
_symmetry_space_group_name_H-M "I -4 C 2"
_symmetry_group_IT_number 120
_symmetry_cell_setting 'tetragonal'
loop_
_space_group_symop_operation_xyz
x,y,z
y,-x,-z
-x,-y,z
-y,x,-z
y,x,1/2-z
-y,-x,1/2-z
-x,y,1/2+z
x,-y,1/2+z
1/2+x,1/2+y,1/2+z
1/2+y,1/2-x,1/2-z
1/2-x,1/2-y,1/2+z
1/2-y,1/2+x,1/2-z
1/2+y,1/2+x,-z
1/2-y,1/2-x,-z
1/2-x,1/2+y,z
1/2+x,1/2-y,z
loop_
_atom_site_type_symbol
_atom_site_label
_atom_site_fract_x
_atom_site_fract_y
_atom_site_fract_z
Si Si1 0.645901 0.040198 0.209758
Si Si2 0.066111 0.817802 0.491053
Si Si3 0.063690 0.119444 0.320404
Si Si4 0.852510 0.694392 0.102354
O O1 0.593942 0.114291 0.267275
O O2 0.591505 0.099992 0.149502
O O3 0.782206 0.039081 0.189987
O O4 0.061514 0.722917 0.545751
O O5 0.136985 0.762214 0.433447
O O6 0.931465 0.862046 0.481343
O O7 0.099184 0.099184 0.250000
O O8 0.181232 0.160280 0.358553
O O9 0.000000 0.000000 0.346146
#
# Coordination Sequence:
#
# PCOD9559931 Si02
#       4
#    16  16  16  16
#     4  11  25  46  69 110 152 193 236 309 382 451
#     4  10  24  46  75 108 146 198 256 317 371 446
#     4  11  25  44  73 114 148 200 251 305 369 463
#     4  11  24  45  74 111 147 195 252 309 377 446
#
# _framework density 23.519197999999999
#
# number of rings (size 3 to 8) (size 9 to 14) (size 15 to 20)
#    0.000    1.250    2.500    1.500    7.000    8.000 
#    0.000    0.000    0.000   12.000    0.000    0.000 
#    0.000    0.000    0.000    0.000    0.000    0.000 
#
# Total GULP energy -178210.411975 kJ/mol
# GULP energy per Si atom -5569.075374 kJ/mol
# Density = 2.346567 g / cm^3
# Si number density = 23.519198 Si / 1000 Ang^3
#
#
#
# Elastic Constant Matrix: (Units=GPa)
#
#
# Indices 1 2 3 4 5 6 
#
# 1 87.3945 57.9051 60.0992 0.0000 0.0000 0.0000
# 2 57.9051 87.3945 60.0992 0.0000 0.0000 0.0000
# 3 60.0992 60.0992 176.8330 0.0000 0.0000 0.0000
# 4 0.0000 0.0000 0.0000 40.4477 0.0000 0.0000
# 5 0.0000 0.0000 0.0000 0.0000 40.4477 0.0000
# 6 0.0000 0.0000 0.0000 0.0000 0.0000 32.4139
#
#
#
# Elastic Compliance Matrix: (Units=1/GPa)
#
#
# Indices 1 2 3 4 5 6 
#
# 1 0.021742 -0.012168 -0.003254 0.000000 0.000000 0.000000
# 2 -0.012168 0.021742 -0.003254 0.000000 0.000000 0.000000
# 3 -0.003254 -0.003254 0.007867 0.000000 0.000000 0.000000
# 4 0.000000 0.000000 0.000000 0.024723 0.000000 0.000000
# 5 0.000000 0.000000 0.000000 0.000000 0.024723 0.000000
# 6 0.000000 0.000000 0.000000 0.000000 0.000000 0.030851
#
#
# Mechanical properties :
#
#
# Convention : Reuss Voigt Hill
#
# Bulk Modulus (GPa) = 71.43139 78.64763 75.03951
# Shear Modulus (GPa) = 28.79064 34.22975 31.51020
#
# Velocity S-wave (km/s) = 3.50256 3.81910 3.66425
# Velocity P-wave (km/s) = 6.84066 7.27735 7.06238
#
# Compressibility (1/GPa) = 0.01399945
#
# Stress axis : x y z
#
# Youngs Moduli (GPa) = 45.99324 45.99324 127.11629
#
# Poissons Ratio (x) = 0.55966 0.41362
# Poissons Ratio (y) = 0.55966 0.41362
# Poissons Ratio (z) = 0.14966 0.14966
#
# Static dielectric constant tensor:
#      x y z
#    x 2.003320 0.000000 0.000000 
#    y 0.000000 2.003320 0.000000 
#    z 0.000000 0.000000 1.902880 
# 
# From -- ./inp_files/5008.got.cif
#   From: 2010.05.17/outbox.cif.g08.bks.cpg/sg120_3_cif.got.tgz:5008.got - 2010.05.20 11:28:13.
