data_PCOD9559701
_publ_section_title
;
Structure prediction by ZEFSAII (Michael W. Deem and Ramdas Pophale) SiO2 
 PCOD9559701
Probable space group: I -4 C 2
;
_chemical_formula_sum "Si O2"
_cell_formula_units_Z 96
_cell_length_a 15.311896
_cell_length_b 15.311896
_cell_length_c 19.735055
_cell_angle_alpha 90.000000
_cell_angle_beta 90.000000
_cell_angle_gamma 90.000000
_cell_volume 4626.965725
_symmetry_space_group_name_H-M "I -4 C 2"
_symmetry_group_IT_number 120
_symmetry_cell_setting 'tetragonal'
loop_
_space_group_symop_operation_xyz
x,y,z
y,-x,-z
-x,-y,z
-y,x,-z
y,x,1/2-z
-y,-x,1/2-z
-x,y,1/2+z
x,-y,1/2+z
1/2+x,1/2+y,1/2+z
1/2+y,1/2-x,1/2-z
1/2-x,1/2-y,1/2+z
1/2-y,1/2+x,1/2-z
1/2+y,1/2+x,-z
1/2-y,1/2-x,-z
1/2-x,1/2+y,z
1/2+x,1/2-y,z
loop_
_atom_site_type_symbol
_atom_site_label
_atom_site_fract_x
_atom_site_fract_y
_atom_site_fract_z
Si Si1 0.100552 0.651115 0.675194
Si Si2 0.677340 0.263572 0.565071
Si Si3 0.524954 0.816714 0.818273
Si Si4 0.552030 0.111692 0.572569
Si Si5 0.887908 0.090655 0.994201
Si Si6 0.830942 0.185104 0.856210
O O1 0.179062 0.580233 0.675667
O O2 0.047836 0.642706 0.745161
O O3 0.126699 0.753735 0.675533
O O4 0.039905 0.624210 0.610863
O O5 0.732498 0.232498 0.500000
O O6 0.588071 0.209592 0.560731
O O7 0.664778 0.365380 0.555592
O O8 0.728555 0.226378 0.628131
O O9 0.563296 0.881405 0.876128
O O10 0.579159 0.725450 0.825915
O O11 0.564045 0.064045 0.500000
O O12 0.857793 0.133521 0.924048
O O13 0.987920 0.116960 0.005395
#
# Coordination Sequence:
#
# PCOD9559701 Si02
#       6
#    16  16  16  16  16  16
#     4  12  23  41  67  95 136 183 221 292 359 420
#     4   8  17  36  55  86 130 160 208 275 327 401
#     4  11  24  41  65  94 137 176 228 282 355 428
#     4  10  21  40  64  99 132 166 222 285 349 424
#     4  10  20  36  61  90 132 176 221 285 345 402
#     4  10  23  39  62  95 126 180 238 273 339 434
#
# _framework density 20.747938000000001
#
# number of rings (size 3 to 8) (size 9 to 14) (size 15 to 20)
#    0.000    1.833    1.667    3.000    2.333    1.333 
#    6.000    0.000    0.000    0.000    0.000    4.667 
#    0.000    0.000    0.000    0.000    0.000    0.000 
#
# Total GULP energy -267246.460743 kJ/mol
# GULP energy per Si atom -5567.634599 kJ/mol
# Density = 2.070071 g / cm^3
# Si number density = 20.747938 Si / 1000 Ang^3
#
#
#
# Elastic Constant Matrix: (Units=GPa)
#
#
# Indices 1 2 3 4 5 6 
#
# 1 72.7884 34.3295 30.4719 0.0000 0.0000 0.0000
# 2 34.3295 72.7884 30.4719 0.0000 0.0000 0.0000
# 3 30.4719 30.4719 90.3728 0.0000 0.0000 0.0000
# 4 0.0000 0.0000 0.0000 14.9928 0.0000 0.0000
# 5 0.0000 0.0000 0.0000 0.0000 14.9928 0.0000
# 6 0.0000 0.0000 0.0000 0.0000 0.0000 5.0347
#
#
#
# Elastic Compliance Matrix: (Units=1/GPa)
#
#
# Indices 1 2 3 4 5 6 
#
# 1 0.018777 -0.007225 -0.003895 0.000000 0.000000 0.000000
# 2 -0.007225 0.018777 -0.003895 0.000000 0.000000 0.000000
# 3 -0.003895 -0.003895 0.013692 0.000000 0.000000 0.000000
# 4 0.000000 0.000000 0.000000 0.066699 0.000000 0.000000
# 5 0.000000 0.000000 0.000000 0.000000 0.066699 0.000000
# 6 0.000000 0.000000 0.000000 0.000000 0.000000 0.198623
#
#
# Mechanical properties :
#
#
# Convention : Reuss Voigt Hill
#
# Bulk Modulus (GPa) = 47.13621 47.38848 47.26234
# Shear Modulus (GPa) = 11.89435 16.38247 14.13841
#
# Velocity S-wave (km/s) = 2.39692 2.81302 2.61327
# Velocity P-wave (km/s) = 5.51617 5.78277 5.65104
#
# Compressibility (1/GPa) = 0.02121511
#
# Stress axis : x y z
#
# Youngs Moduli (GPa) = 53.25768 53.25768 73.03613
#
# Poissons Ratio (x) = 0.38479 0.28447
# Poissons Ratio (y) = 0.38479 0.28447
# Poissons Ratio (z) = 0.20743 0.20743
#
# Static dielectric constant tensor:
#      x y z
#    x 1.783250 0.000000 0.000000 
#    y 0.000000 1.783250 0.000000 
#    z 0.000000 0.000000 1.761760 
# 
# From -- ./inp_files/5345.got.cif
#   From: 2010.05.17/outbox.cif.g08.bks.cpg/sg120_3_cif.got.tgz:5345.got - 2010.05.20 11:28:13.
