data_PCOD9559076
_publ_section_title
;
Structure prediction by ZEFSAII (Michael W. Deem and Ramdas Pophale) SiO2 
 PCOD9559076
Probable space group: I -4 M 2
;
_chemical_formula_sum "Si O2"
_cell_formula_units_Z 128
_cell_length_a 24.153155
_cell_length_b 24.153155
_cell_length_c 12.377741
_cell_angle_alpha 90.000000
_cell_angle_beta 90.000000
_cell_angle_gamma 90.000000
_cell_volume 7220.863374
_symmetry_space_group_name_H-M "I -4 M 2"
_symmetry_group_IT_number 119
_symmetry_cell_setting 'tetragonal'
loop_
_space_group_symop_operation_xyz
x,y,z
y,-x,-z
-x,-y,z
-y,x,-z
y,x,-z
-y,-x,-z
-x,y,z
x,-y,z
1/2+x,1/2+y,1/2+z
1/2+y,1/2-x,1/2-z
1/2-x,1/2-y,1/2+z
1/2-y,1/2+x,1/2-z
1/2+y,1/2+x,1/2-z
1/2-y,1/2-x,1/2-z
1/2-x,1/2+y,1/2+z
1/2+x,1/2-y,1/2+z
loop_
_atom_site_type_symbol
_atom_site_label
_atom_site_fract_x
_atom_site_fract_y
_atom_site_fract_z
Si Si1 0.433617 0.782251 0.255212
Si Si2 0.064080 0.837590 0.738498
Si Si3 0.937132 0.847912 0.994382
Si Si4 0.242459 0.066882 0.605921
Si Si5 0.932783 0.749723 0.147616
Si Si6 0.933397 0.341350 0.976907
Si Si7 0.065890 0.653803 0.540984
Si Si8 0.065252 0.884336 0.396622
O O1 0.500000 0.773407 0.264474
O O2 0.412455 0.723183 0.209673
O O3 0.415828 0.804826 0.371967
O O4 0.424853 0.828167 0.164645
O O5 0.063186 0.832374 0.868442
O O6 0.096752 0.890991 0.695077
O O7 0.000000 0.843466 0.700282
O O8 0.000000 0.857277 0.027843
O O9 0.903102 0.903102 0.000000
O O10 0.913537 0.800893 0.073379
O O11 0.248223 0.086799 0.729576
O O12 0.293808 0.084753 0.532139
O O13 0.179333 0.078510 0.570683
O O14 0.246022 0.000000 0.606349
O O15 0.000000 0.753255 0.150034
O O16 0.919899 0.694048 0.083277
O O17 0.900336 0.398292 0.980548
O O18 0.000000 0.348836 0.970216
O O19 0.000000 0.645443 0.524582
O O20 0.077377 0.922624 0.500000
O O21 0.000000 0.887110 0.364737
#
# Coordination Sequence:
#
# PCOD9559076 Si02
#       8
#    16  16  16  16  16  16  16  16
#     4   9  17  33  53  77 106 141 186 220 254 317
#     4  10  19  32  52  76 103 138 183 228 268 315
#     4  10  19  31  49  74 102 133 172 223 276 321
#     4   9  19  35  53  75 104 141 187 224 260 319
#     4   9  17  33  54  74 100 138 184 223 257 315
#     4  10  19  33  56  83 108 140 177 217 272 332
#     4  10  20  33  53  82 112 140 173 220 273 329
#     4  11  22  35  52  78 110 149 188 227 277 328
#
# _framework density 17.726413000000001
#
# number of rings (size 3 to 8) (size 9 to 14) (size 15 to 20)
#    0.000    2.250    1.250    2.250    0.000    5.250 
#    0.000    1.250    0.000    4.500    6.500    3.500 
#    0.000    0.000    0.000    0.000    0.000    0.000 
#
# Total GULP energy -356556.067163 kJ/mol
# GULP energy per Si atom -5571.188549 kJ/mol
# Density = 1.768607 g / cm^3
# Si number density = 17.726413 Si / 1000 Ang^3
#
#
#
# Elastic Constant Matrix: (Units=GPa)
#
#
# Indices 1 2 3 4 5 6 
#
# 1 64.3755 35.6940 8.9790 0.0000 0.0000 0.0000
# 2 35.6940 64.3741 8.9779 0.0000 0.0000 0.0000
# 3 8.9790 8.9779 46.9767 0.0000 0.0000 0.0000
# 4 0.0000 0.0000 0.0000 20.8137 0.0000 0.0000
# 5 0.0000 0.0000 0.0000 0.0000 20.8138 0.0000
# 6 0.0000 0.0000 0.0000 0.0000 0.0000 -22.0482
#
#
#
# Elastic Compliance Matrix: (Units=1/GPa)
#
#
# Indices 1 2 3 4 5 6 
#
# 1 0.022607 -0.012259 -0.001978 0.000000 0.000000 0.000000
# 2 -0.012259 0.022607 -0.001977 0.000000 0.000000 0.000000
# 3 -0.001978 -0.001977 0.022043 0.000000 0.000000 0.000000
# 4 0.000000 0.000000 0.000000 0.048045 0.000000 0.000000
# 5 0.000000 0.000000 0.000000 0.000000 0.048045 0.000000
# 6 0.000000 0.000000 0.000000 0.000000 0.000000 -0.045355
#
#
# Mechanical properties :
#
#
# Convention : Reuss Voigt Hill
#
# Bulk Modulus (GPa) = 28.71244 31.44757 30.08001
# Shear Modulus (GPa) = 30.85814 12.05422 21.45618
#
# Velocity S-wave (km/s) = 4.17682 2.61054 3.48287
# Velocity P-wave (km/s) = 6.28441 5.18320 5.76018
#
# Compressibility (1/GPa) = 0.03482810
#
# Stress axis : x y z
#
# Youngs Moduli (GPa) = 44.23391 44.23319 45.36556
#
# Poissons Ratio (x) = 0.54227 0.08974
# Poissons Ratio (y) = 0.54227 0.08971
# Poissons Ratio (z) = 0.08750 0.08747
#
# Static dielectric constant tensor:
#      x y z
#    x 1.610150 0.000000 0.000000 
#    y 0.000000 1.610150 0.000000 
#    z 0.000000 0.000000 1.670290 
# 
# From -- ./inp_files/4447.got.cif
#   From: 2010.05.17/outbox.cif.g08.bks.cpg/sg119_3_cif.got.tgz:4447.got - 2010.05.20 11:21:29.
