data_PCOD9559969
_publ_section_title
;
Structure prediction by ZEFSAII (Michael W. Deem and Ramdas Pophale) SiO2 
 PCOD9559969
Probable space group: I -4 C 2
;
_chemical_formula_sum "Si O2"
_cell_formula_units_Z 116
_cell_length_a 17.327973
_cell_length_b 17.327973
_cell_length_c 16.368983
_cell_angle_alpha 90.000000
_cell_angle_beta 90.000000
_cell_angle_gamma 90.000000
_cell_volume 4914.928709
_symmetry_space_group_name_H-M "I -4 C 2"
_symmetry_group_IT_number 120
_symmetry_cell_setting 'tetragonal'
loop_
_space_group_symop_operation_xyz
x,y,z
y,-x,-z
-x,-y,z
-y,x,-z
y,x,1/2-z
-y,-x,1/2-z
-x,y,1/2+z
x,-y,1/2+z
1/2+x,1/2+y,1/2+z
1/2+y,1/2-x,1/2-z
1/2-x,1/2-y,1/2+z
1/2-y,1/2+x,1/2-z
1/2+y,1/2+x,-z
1/2-y,1/2-x,-z
1/2-x,1/2+y,z
1/2+x,1/2-y,z
loop_
_atom_site_type_symbol
_atom_site_label
_atom_site_fract_x
_atom_site_fract_y
_atom_site_fract_z
Si Si1 0.593763 0.371172 0.943226
Si Si2 0.193482 0.162025 0.386695
Si Si3 0.662413 0.044128 0.501208
Si Si4 0.834665 0.252201 0.119030
Si Si5 0.818626 0.430940 0.744830
Si Si6 0.000000 0.000000 0.500000
Si Si7 0.432285 0.158304 0.638066
Si Si8 0.222332 0.035052 0.142681
O O1 0.661832 0.353689 0.879974
O O2 0.516018 0.328538 0.917852
O O3 0.626150 0.337446 0.028291
O O4 0.568521 0.460317 0.949277
O O5 0.233057 0.245598 0.401296
O O6 0.257713 0.106349 0.349078
O O7 0.115235 0.181484 0.337983
O O8 0.576637 0.076637 0.500000
O O9 0.712180 0.105225 0.446881
O O10 0.699614 0.049866 0.590498
O O11 0.661873 0.962716 0.454896
O O12 0.856754 0.292999 0.203751
O O13 0.857715 0.492048 0.806512
O O14 0.869820 0.403413 0.668673
O O15 0.745179 0.479147 0.715244
#
# Coordination Sequence:
#
# PCOD9559969 Si02
#       8
#    16  16  16  16  16   4  16  16
#     4  12  23  40  71 107 141 183 234 297 363 428
#     4  12  23  44  77 105 133 195 244 303 352 426
#     4  11  21  43  73 105 136 186 242 301 349 427
#     4  11  23  43  75  99 143 186 249 299 354 432
#     4  11  28  47  68 105 144 191 237 298 372 434
#     4  12  24  40  64 110 152 180 216 298 392 428
#     4  11  27  48  72 102 149 191 243 291 372 437
#     4  12  24  42  71 109 141 180 242 298 356 432
#
# _framework density 23.601562000000001
#
# number of rings (size 3 to 8) (size 9 to 14) (size 15 to 20)
#    0.000    0.552    5.517    2.069    3.862    4.690 
#    0.000    0.690    0.000    0.828    0.000    0.000 
#    0.000    0.000    0.000    0.000    0.000    0.000 
#
# Total GULP energy -324439.968376 kJ/mol
# GULP energy per Si atom -5593.792558 kJ/mol
# Density = 2.354784 g / cm^3
# Si number density = 23.601562 Si / 1000 Ang^3
#
#
#
# Elastic Constant Matrix: (Units=GPa)
#
#
# Indices 1 2 3 4 5 6 
#
# 1 107.4568 55.9904 12.4804 0.0000 0.0000 0.0000
# 2 55.9904 107.4568 12.4804 0.0000 0.0000 0.0000
# 3 12.4804 12.4804 36.3732 0.0000 0.0000 0.0000
# 4 0.0000 0.0000 0.0000 27.3534 0.0000 0.0000
# 5 0.0000 0.0000 0.0000 0.0000 27.3534 0.0000
# 6 0.0000 0.0000 0.0000 0.0000 0.0000 48.7264
#
#
#
# Elastic Compliance Matrix: (Units=1/GPa)
#
#
# Indices 1 2 3 4 5 6 
#
# 1 0.012943 -0.006487 -0.002215 0.000000 0.000000 0.000000
# 2 -0.006487 0.012943 -0.002215 0.000000 0.000000 0.000000
# 3 -0.002215 -0.002215 0.029013 0.000000 0.000000 0.000000
# 4 0.000000 0.000000 0.000000 0.036559 0.000000 0.000000
# 5 0.000000 0.000000 0.000000 0.000000 0.036559 0.000000
# 6 0.000000 0.000000 0.000000 0.000000 0.000000 0.020523
#
#
# Mechanical properties :
#
#
# Convention : Reuss Voigt Hill
#
# Bulk Modulus (GPa) = 30.24383 45.90993 38.07688
# Shear Modulus (GPa) = 27.56398 32.04235 29.80317
#
# Velocity S-wave (km/s) = 3.42115 3.68861 3.55739
# Velocity P-wave (km/s) = 5.33365 6.13477 5.74818
#
# Compressibility (1/GPa) = 0.03306460
#
# Stress axis : x y z
#
# Youngs Moduli (GPa) = 77.25990 77.25990 34.46726
#
# Poissons Ratio (x) = 0.50117 0.07636
# Poissons Ratio (y) = 0.50117 0.07636
# Poissons Ratio (z) = 0.17116 0.17116
#
# Static dielectric constant tensor:
#      x y z
#    x 1.901640 0.000000 0.000000 
#    y 0.000000 1.901640 0.000000 
#    z 0.000000 0.000000 1.940900 
# 
# From -- ./inp_files/4584.got.cif
#   From: 2010.05.17/outbox.cif.g08.bks.cpg/sg120_3_cif.got.tgz:4584.got - 2010.05.20 11:28:13.
