data_PCOD9559707
_publ_section_title
;
Structure prediction by ZEFSAII (Michael W. Deem and Ramdas Pophale) SiO2 
 PCOD9559707
Probable space group: I -4 C 2
;
_chemical_formula_sum "Si O2"
_cell_formula_units_Z 96
_cell_length_a 14.571517
_cell_length_b 14.571517
_cell_length_c 23.418552
_cell_angle_alpha 90.000000
_cell_angle_beta 90.000000
_cell_angle_gamma 90.000000
_cell_volume 4972.440249
_symmetry_space_group_name_H-M "I -4 C 2"
_symmetry_group_IT_number 120
_symmetry_cell_setting 'tetragonal'
loop_
_space_group_symop_operation_xyz
x,y,z
y,-x,-z
-x,-y,z
-y,x,-z
y,x,1/2-z
-y,-x,1/2-z
-x,y,1/2+z
x,-y,1/2+z
1/2+x,1/2+y,1/2+z
1/2+y,1/2-x,1/2-z
1/2-x,1/2-y,1/2+z
1/2-y,1/2+x,1/2-z
1/2+y,1/2+x,-z
1/2-y,1/2-x,-z
1/2-x,1/2+y,z
1/2+x,1/2-y,z
loop_
_atom_site_type_symbol
_atom_site_label
_atom_site_fract_x
_atom_site_fract_y
_atom_site_fract_z
Si Si1 0.286180 0.099518 0.349957
Si Si2 0.853079 0.040343 0.506308
Si Si3 0.842065 0.788906 0.807838
Si Si4 0.187389 0.044704 0.233917
Si Si5 0.906943 0.270740 0.100556
Si Si6 0.724858 0.376877 0.112460
O O1 0.349358 0.188347 0.337044
O O2 0.249293 0.064198 0.288871
O O3 0.204127 0.148414 0.385656
O O4 0.313954 0.004510 0.380240
O O5 0.784671 0.072943 0.457036
O O6 0.808852 0.046459 0.568845
O O7 0.939890 0.108251 0.505349
O O8 0.780918 0.780918 0.750000
O O9 0.797616 0.863250 0.850895
O O10 0.939850 0.819243 0.784186
O O11 0.090531 0.090531 0.250000
O O12 0.228628 0.092903 0.177942
O O13 0.823673 0.341203 0.092913
#
# Coordination Sequence:
#
# PCOD9559707 Si02
#       6
#    16  16  16  16  16  16
#     4  10  20  37  58  86 119 159 203 249 306 372
#     4  11  22  37  59  90 122 153 205 267 321 380
#     4  11  21  37  59  89 126 162 207 259 311 376
#     4  10  21  37  59  88 121 157 200 255 312 370
#     4  11  21  38  61  84 118 170 207 250 318 378
#     4  10  21  39  59  85 123 159 205 255 310 383
#
# _framework density 19.306415000000001
#
# number of rings (size 3 to 8) (size 9 to 14) (size 15 to 20)
#    0.000    1.500    3.333    4.000    0.000    0.333 
#    0.000    0.833    0.000    0.000    0.000    2.333 
#    0.000    0.000    0.000    0.000    0.000    0.000 
#
# Total GULP energy -267707.648950 kJ/mol
# GULP energy per Si atom -5577.242686 kJ/mol
# Density = 1.926247 g / cm^3
# Si number density = 19.306415 Si / 1000 Ang^3
#
#
#
# Elastic Constant Matrix: (Units=GPa)
#
#
# Indices 1 2 3 4 5 6 
#
# 1 74.9641 10.2453 12.1014 0.0000 0.0000 0.0000
# 2 10.2453 74.9641 12.1014 0.0000 0.0000 0.0000
# 3 12.1014 12.1014 75.4013 0.0000 0.0000 0.0000
# 4 0.0000 0.0000 0.0000 24.6669 0.0000 0.0000
# 5 0.0000 0.0000 0.0000 0.0000 24.6669 0.0000
# 6 0.0000 0.0000 0.0000 0.0000 0.0000 16.4776
#
#
#
# Elastic Compliance Matrix: (Units=1/GPa)
#
#
# Indices 1 2 3 4 5 6 
#
# 1 0.013874 -0.001578 -0.001973 0.000000 0.000000 0.000000
# 2 -0.001578 0.013874 -0.001973 0.000000 0.000000 0.000000
# 3 -0.001973 -0.001973 0.013896 0.000000 0.000000 0.000000
# 4 0.000000 0.000000 0.000000 0.040540 0.000000 0.000000
# 5 0.000000 0.000000 0.000000 0.000000 0.040540 0.000000
# 6 0.000000 0.000000 0.000000 0.000000 0.000000 0.060688
#
#
# Mechanical properties :
#
#
# Convention : Reuss Voigt Hill
#
# Bulk Modulus (GPa) = 32.68549 32.69172 32.68860
# Shear Modulus (GPa) = 24.43080 25.88769 25.15924
#
# Velocity S-wave (km/s) = 3.56114 3.66578 3.61384
# Velocity P-wave (km/s) = 5.82027 5.90653 5.86356
#
# Compressibility (1/GPa) = 0.03059462
#
# Stress axis : x y z
#
# Youngs Moduli (GPa) = 72.07774 72.07774 71.96400
#
# Poissons Ratio (x) = 0.11371 0.14202
# Poissons Ratio (y) = 0.11371 0.14202
# Poissons Ratio (z) = 0.14224 0.14224
#
# Static dielectric constant tensor:
#      x y z
#    x 1.682290 0.000000 0.000000 
#    y 0.000000 1.682290 0.000000 
#    z 0.000000 0.000000 1.658260 
# 
# From -- ./inp_files/5335.got.cif
#   From: 2010.05.17/outbox.cif.g08.bks.cpg/sg120_3_cif.got.tgz:5335.got - 2010.05.20 11:28:13.
