data_PCOD9559488
_publ_section_title
;
Structure prediction by ZEFSAII (Michael W. Deem and Ramdas Pophale) SiO2 
 PCOD9559488
Probable space group: I -4 M 2
;
_chemical_formula_sum "Si O2"
_cell_formula_units_Z 56
_cell_length_a 14.519034
_cell_length_b 14.519034
_cell_length_c 12.620098
_cell_angle_alpha 90.000000
_cell_angle_beta 90.000000
_cell_angle_gamma 90.000000
_cell_volume 2660.346294
_symmetry_space_group_name_H-M "I -4 M 2"
_symmetry_group_IT_number 119
_symmetry_cell_setting 'tetragonal'
loop_
_space_group_symop_operation_xyz
x,y,z
y,-x,-z
-x,-y,z
-y,x,-z
y,x,-z
-y,-x,-z
-x,y,z
x,-y,z
1/2+x,1/2+y,1/2+z
1/2+y,1/2-x,1/2-z
1/2-x,1/2-y,1/2+z
1/2-y,1/2+x,1/2-z
1/2+y,1/2+x,1/2-z
1/2-y,1/2-x,1/2-z
1/2-x,1/2+y,1/2+z
1/2+x,1/2-y,1/2+z
loop_
_atom_site_type_symbol
_atom_site_label
_atom_site_fract_x
_atom_site_fract_y
_atom_site_fract_z
Si Si1 0.729174 0.000000 0.880290
Si Si2 0.667957 0.000000 0.664041
Si Si3 0.500000 0.132244 0.065339
Si Si4 0.500000 0.301053 0.191704
Si Si5 0.702358 0.349431 0.237407
Si Si6 0.157137 0.500000 0.616353
O O1 0.645057 0.000000 0.791337
O O2 0.785068 0.090979 0.845183
O O3 0.703391 0.000000 0.000904
O O4 0.731683 0.091597 0.659293
O O5 0.608568 0.000000 0.559162
O O6 0.500000 0.240024 0.085954
O O7 0.410700 0.087251 0.117986
O O8 0.597316 0.351756 0.201610
O O9 0.500000 0.229773 0.290456
O O10 0.749278 0.249278 0.250000
#
# Coordination Sequence:
#
# PCOD9559488 Si02
#       6
#     8   8   8   8  16   8
#     4   8  21  37  61  86 108 142 198 247 293 334
#     4   8  21  37  61  86 108 142 198 247 293 334
#     4  11  22  36  57  85 118 152 192 244 294 346
#     4  12  24  36  54  84 124 164 192 219 278 363
#     4   9  19  38  60  84 117 153 194 242 288 341
#     4  11  22  36  57  85 118 152 192 244 294 346
#
# _framework density 21.049890999999999
#
# number of rings (size 3 to 8) (size 9 to 14) (size 15 to 20)
#    1.714    0.286    0.000    4.286    0.000    5.714 
#    0.000    7.143    0.000    6.857    0.000    0.000 
#    0.000    0.000    0.000    0.000    0.000    0.000 
#
# Total GULP energy -155934.467547 kJ/mol
# GULP energy per Si atom -5569.088127 kJ/mol
# Density = 2.100198 g / cm^3
# Si number density = 21.049891 Si / 1000 Ang^3
#
#
#
# Elastic Constant Matrix: (Units=GPa)
#
#
# Indices 1 2 3 4 5 6 
#
# 1 68.0380 4.5885 0.3360 0.0000 0.0000 0.0000
# 2 4.5885 68.0380 0.3360 0.0000 0.0000 0.0000
# 3 0.3360 0.3360 91.3341 0.0000 0.0000 0.0000
# 4 0.0000 0.0000 0.0000 22.5105 0.0000 0.0000
# 5 0.0000 0.0000 0.0000 0.0000 22.5105 0.0000
# 6 0.0000 0.0000 0.0000 0.0000 0.0000 13.2364
#
#
#
# Elastic Compliance Matrix: (Units=1/GPa)
#
#
# Indices 1 2 3 4 5 6 
#
# 1 0.014765 -0.000996 -0.000051 0.000000 0.000000 0.000000
# 2 -0.000996 0.014765 -0.000051 0.000000 0.000000 0.000000
# 3 -0.000051 -0.000051 0.010949 0.000000 0.000000 0.000000
# 4 0.000000 0.000000 0.000000 0.044424 0.000000 0.000000
# 5 0.000000 0.000000 0.000000 0.000000 0.044424 0.000000
# 6 0.000000 0.000000 0.000000 0.000000 0.000000 0.075549
#
#
# Mechanical properties :
#
#
# Convention : Reuss Voigt Hill
#
# Bulk Modulus (GPa) = 26.11946 26.43680 26.27813
# Shear Modulus (GPa) = 22.74470 26.46147 24.60308
#
# Velocity S-wave (km/s) = 3.29068 3.54938 3.42248
# Velocity P-wave (km/s) = 5.18396 5.42069 5.30365
#
# Compressibility (1/GPa) = 0.03828564
#
# Stress axis : x y z
#
# Youngs Moduli (GPa) = 67.72752 67.72752 91.33103
#
# Poissons Ratio (x) = 0.06742 0.00463
# Poissons Ratio (y) = 0.06742 0.00463
# Poissons Ratio (z) = 0.00343 0.00343
#
# Static dielectric constant tensor:
#      x y z
#    x 1.797750 0.000000 0.000000 
#    y 0.000000 1.797750 0.000000 
#    z 0.000000 0.000000 1.739990 
# 
# From -- ./inp_files/5031.got.cif
#   From: 2010.05.17/outbox.cif.g08.bks.cpg/sg119_3_cif.got.tgz:5031.got - 2010.05.20 11:21:29.
