data_PCOD9559408
_publ_section_title
;
Structure prediction by ZEFSAII (Michael W. Deem and Ramdas Pophale) SiO2 
 PCOD9559408
Probable space group: I -4 M 2
;
_chemical_formula_sum "Si O2"
_cell_formula_units_Z 96
_cell_length_a 25.095693
_cell_length_b 25.095693
_cell_length_c 7.445402
_cell_angle_alpha 90.000000
_cell_angle_beta 90.000000
_cell_angle_gamma 90.000000
_cell_volume 4689.068071
_symmetry_space_group_name_H-M "I -4 M 2"
_symmetry_group_IT_number 119
_symmetry_cell_setting 'tetragonal'
loop_
_space_group_symop_operation_xyz
x,y,z
y,-x,-z
-x,-y,z
-y,x,-z
y,x,-z
-y,-x,-z
-x,y,z
x,-y,z
1/2+x,1/2+y,1/2+z
1/2+y,1/2-x,1/2-z
1/2-x,1/2-y,1/2+z
1/2-y,1/2+x,1/2-z
1/2+y,1/2+x,1/2-z
1/2-y,1/2-x,1/2-z
1/2-x,1/2+y,1/2+z
1/2+x,1/2-y,1/2+z
loop_
_atom_site_type_symbol
_atom_site_label
_atom_site_fract_x
_atom_site_fract_y
_atom_site_fract_z
Si Si1 0.148722 0.559475 0.775159
Si Si2 0.940283 0.857088 0.079694
Si Si3 0.266637 0.410763 0.681585
Si Si4 0.806550 0.722847 0.945839
Si Si5 0.889491 0.326386 0.362592
Si Si6 0.781599 0.935544 0.601003
O O1 0.130489 0.500000 0.734226
O O2 0.104251 0.604251 0.750000
O O3 0.204847 0.570157 0.674478
O O4 0.163253 0.567672 0.983010
O O5 0.923983 0.832459 0.273510
O O6 0.000000 0.879153 0.098586
O O7 0.899530 0.899530 0.000000
O O8 0.942449 0.808536 0.936726
O O9 0.265121 0.353243 0.585732
O O10 0.281477 0.412824 0.895498
O O11 0.800921 0.699080 0.750000
O O12 0.753070 0.753070 0.000000
O O13 0.818203 0.671004 0.063954
O O14 0.879862 0.379862 0.250000
O O15 0.909396 0.269045 0.294972
O O16 0.776281 0.000000 0.589327
#
# Coordination Sequence:
#
# PCOD9559408 Si02
#       6
#    16  16  16  16  16  16
#     4  11  22  41  65  90 122 166 216 266 322 382
#     4  11  25  43  65  96 126 165 217 265 324 390
#     4  11  20  43  64  91 127 170 208 261 321 381
#     4  12  22  36  55  89 132 168 203 247 318 393
#     4  11  20  38  59  88 127 162 207 259 318 384
#     4  10  22  40  64  91 120 161 214 263 309 375
#
# _framework density 20.47315
#
# number of rings (size 3 to 8) (size 9 to 14) (size 15 to 20)
#    0.000    1.000    5.000    5.000    0.000    2.333 
#    0.000    0.833    0.000    0.000    0.000    2.333 
#    0.000    0.000    0.000    0.000    0.000    0.000 
#
# Total GULP energy -267656.685594 kJ/mol
# GULP energy per Si atom -5576.180950 kJ/mol
# Density = 2.042655 g / cm^3
# Si number density = 20.473150 Si / 1000 Ang^3
#
#
#
# Elastic Constant Matrix: (Units=GPa)
#
#
# Indices 1 2 3 4 5 6 
#
# 1 93.6557 38.8814 18.3721 0.0000 0.0000 0.0000
# 2 38.8814 93.6582 18.3735 0.0000 0.0000 0.0000
# 3 18.3721 18.3735 68.2247 0.0000 0.0000 0.0000
# 4 0.0000 0.0000 0.0000 7.1223 0.0000 0.0000
# 5 0.0000 0.0000 0.0000 0.0000 7.1214 0.0000
# 6 0.0000 0.0000 0.0000 0.0000 0.0000 11.0843
#
#
#
# Elastic Compliance Matrix: (Units=1/GPa)
#
#
# Indices 1 2 3 4 5 6 
#
# 1 0.013205 -0.005051 -0.002196 0.000000 0.000000 0.000000
# 2 -0.005051 0.013205 -0.002196 0.000000 0.000000 0.000000
# 3 -0.002196 -0.002196 0.015840 0.000000 0.000000 0.000000
# 4 0.000000 0.000000 0.000000 0.140403 0.000000 0.000000
# 5 0.000000 0.000000 0.000000 0.000000 0.140421 0.000000
# 6 0.000000 0.000000 0.000000 0.000000 0.000000 0.090218
#
#
# Mechanical properties :
#
#
# Convention : Reuss Voigt Hill
#
# Bulk Modulus (GPa) = 42.80009 45.19918 43.99964
# Shear Modulus (GPa) = 11.36451 17.05971 14.21211
#
# Velocity S-wave (km/s) = 2.35860 2.88978 2.63759
# Velocity P-wave (km/s) = 5.32618 5.76712 5.55103
#
# Compressibility (1/GPa) = 0.02336443
#
# Stress axis : x y z
#
# Youngs Moduli (GPa) = 75.72786 75.72939 63.13090
#
# Poissons Ratio (x) = 0.38253 0.13861
# Poissons Ratio (y) = 0.38252 0.13863
# Poissons Ratio (z) = 0.16627 0.16630
#
# Static dielectric constant tensor:
#      x y z
#    x 1.805120 0.000000 0.000000 
#    y 0.000000 1.805130 0.000000 
#    z 0.000000 0.000000 1.752370 
# 
# From -- ./inp_files/2673.got.cif
#   From: 2010.05.17/outbox.cif.g08.bks.cpg/sg119_2_cif.got.tgz:2673.got - 2010.05.20 11:21:29.
