data_PCOD9559783
_publ_section_title
;
Structure prediction by ZEFSAII (Michael W. Deem and Ramdas Pophale) SiO2 
 PCOD9559783
Probable space group: I -4 C 2
;
_chemical_formula_sum "Si O2"
_cell_formula_units_Z 112
_cell_length_a 14.607723
_cell_length_b 14.607723
_cell_length_c 27.236554
_cell_angle_alpha 90.000000
_cell_angle_beta 90.000000
_cell_angle_gamma 90.000000
_cell_volume 5811.887634
_symmetry_space_group_name_H-M "I -4 C 2"
_symmetry_group_IT_number 120
_symmetry_cell_setting 'tetragonal'
loop_
_space_group_symop_operation_xyz
x,y,z
y,-x,-z
-x,-y,z
-y,x,-z
y,x,1/2-z
-y,-x,1/2-z
-x,y,1/2+z
x,-y,1/2+z
1/2+x,1/2+y,1/2+z
1/2+y,1/2-x,1/2-z
1/2-x,1/2-y,1/2+z
1/2-y,1/2+x,1/2-z
1/2+y,1/2+x,-z
1/2-y,1/2-x,-z
1/2-x,1/2+y,z
1/2+x,1/2-y,z
loop_
_atom_site_type_symbol
_atom_site_label
_atom_site_fract_x
_atom_site_fract_y
_atom_site_fract_z
Si Si1 0.272791 0.445506 0.492000
Si Si2 0.622875 0.092478 0.244437
Si Si3 0.211437 0.794169 0.927075
Si Si4 0.851614 0.340963 0.152527
Si Si5 0.174305 0.443383 0.137292
Si Si6 0.813492 0.472173 0.409678
Si Si7 0.312582 0.388207 0.060490
O O1 0.270872 0.368568 0.534415
O O2 0.182518 0.475303 0.462063
O O3 0.339938 0.409370 0.448864
O O4 0.307128 0.533976 0.520110
O O5 0.515872 0.121155 0.241843
O O6 0.670111 0.146511 0.288912
O O7 0.668090 0.101010 0.191193
O O8 0.199340 0.732949 0.878107
O O9 0.228972 0.900007 0.914008
O O10 0.306100 0.757889 0.949525
O O11 0.847289 0.449988 0.142981
O O12 0.947363 0.305917 0.130129
O O13 0.093467 0.397561 0.105111
O O14 0.272433 0.428385 0.111120
#
# Coordination Sequence:
#
# PCOD9559783 Si02
#       7
#    16  16  16  16  16  16  16
#     4  12  23  40  60  83 124 177 209 261 316 369
#     4   9  17  33  61  94 127 159 204 262 328 398
#     4  11  24  41  59  93 128 162 219 268 309 387
#     4  11  20  39  66  88 128 171 204 265 337 376
#     4  10  21  38  64  96 127 159 212 271 327 383
#     4  11  23  36  61  90 127 163 210 263 314 385
#     4  11  24  40  61  87 125 166 215 263 308 385
#
# _framework density 19.270847
#
# number of rings (size 3 to 8) (size 9 to 14) (size 15 to 20)
#    0.000    1.286    5.714    0.857    2.000    0.286 
#    0.000    2.857    6.286    0.000    0.000    0.000 
#    0.000    0.286    0.000    0.000    0.000    0.000 
#
# Total GULP energy -312087.577013 kJ/mol
# GULP energy per Si atom -5572.992447 kJ/mol
# Density = 1.922699 g / cm^3
# Si number density = 19.270847 Si / 1000 Ang^3
#
#
#
# Elastic Constant Matrix: (Units=GPa)
#
#
# Indices 1 2 3 4 5 6 
#
# 1 87.3020 17.6663 52.0633 0.0000 0.0000 0.0000
# 2 17.6663 87.3020 52.0633 0.0000 0.0000 0.0000
# 3 52.0633 52.0633 125.9105 0.0000 0.0000 0.0000
# 4 0.0000 0.0000 0.0000 11.6839 0.0000 0.0000
# 5 0.0000 0.0000 0.0000 0.0000 11.6839 0.0000
# 6 0.0000 0.0000 0.0000 0.0000 0.0000 15.8980
#
#
#
# Elastic Compliance Matrix: (Units=1/GPa)
#
#
# Indices 1 2 3 4 5 6 
#
# 1 0.015256 0.000896 -0.006679 0.000000 0.000000 0.000000
# 2 0.000896 0.015256 -0.006679 0.000000 0.000000 0.000000
# 3 -0.006679 -0.006679 0.013465 0.000000 0.000000 0.000000
# 4 0.000000 0.000000 0.000000 0.085588 0.000000 0.000000
# 5 0.000000 0.000000 0.000000 0.000000 0.085588 0.000000
# 6 0.000000 0.000000 0.000000 0.000000 0.000000 0.062901
#
#
# Mechanical properties :
#
#
# Convention : Reuss Voigt Hill
#
# Bulk Modulus (GPa) = 52.48178 60.45558 56.46868
# Shear Modulus (GPa) = 16.16402 19.76795 17.96598
#
# Velocity S-wave (km/s) = 2.89931 3.20628 3.05665
# Velocity P-wave (km/s) = 6.20491 6.71912 6.46713
#
# Compressibility (1/GPa) = 0.01905423
#
# Stress axis : x y z
#
# Youngs Moduli (GPa) = 65.54749 65.54749 74.26483
#
# Poissons Ratio (x) = -0.05871 0.49599
# Poissons Ratio (y) = -0.05871 0.49599
# Poissons Ratio (z) = 0.43777 0.43777
#
# Static dielectric constant tensor:
#      x y z
#    x 1.700180 0.000000 0.000000 
#    y 0.000000 1.700180 0.000000 
#    z 0.000000 0.000000 1.730910 
# 
# From -- ./inp_files/6694.got.cif
#   From: 2010.05.17/outbox.cif.g08.bks.cpg/sg120_4_cif.got.tgz:6694.got - 2010.05.20 11:28:13.
