data_PCOD9559231
_publ_section_title
;
Structure prediction by ZEFSAII (Michael W. Deem and Ramdas Pophale) SiO2 
 PCOD9559231
Probable space group: I -4 M 2
;
_chemical_formula_sum "Si O2"
_cell_formula_units_Z 112
_cell_length_a 14.716850
_cell_length_b 14.716850
_cell_length_c 24.374490
_cell_angle_alpha 90.000000
_cell_angle_beta 90.000000
_cell_angle_gamma 90.000000
_cell_volume 5279.165343
_symmetry_space_group_name_H-M "I -4 M 2"
_symmetry_group_IT_number 119
_symmetry_cell_setting 'tetragonal'
loop_
_space_group_symop_operation_xyz
x,y,z
y,-x,-z
-x,-y,z
-y,x,-z
y,x,-z
-y,-x,-z
-x,y,z
x,-y,z
1/2+x,1/2+y,1/2+z
1/2+y,1/2-x,1/2-z
1/2-x,1/2-y,1/2+z
1/2-y,1/2+x,1/2-z
1/2+y,1/2+x,1/2-z
1/2-y,1/2-x,1/2-z
1/2-x,1/2+y,1/2+z
1/2+x,1/2-y,1/2+z
loop_
_atom_site_type_symbol
_atom_site_label
_atom_site_fract_x
_atom_site_fract_y
_atom_site_fract_z
Si Si1 0.896270 0.301074 0.699841
Si Si2 0.257544 0.107681 0.508784
Si Si3 0.389468 0.103723 0.086672
Si Si4 0.332010 0.100375 0.631891
Si Si5 0.110966 0.893709 0.059466
Si Si6 0.103309 0.209989 0.163304
Si Si7 0.660044 0.604157 0.212888
O O1 0.835169 0.335169 0.750000
O O2 0.864234 0.348079 0.643651
O O3 0.895178 0.191850 0.693120
O O4 0.000000 0.329917 0.710824
O O5 0.169461 0.169461 0.500000
O O6 0.334592 0.136122 0.465092
O O7 0.295713 0.116597 0.570448
O O8 0.237698 0.000000 0.500329
O O9 0.500000 0.100485 0.086279
O O10 0.356369 0.000000 0.083136
O O11 0.392505 0.183691 0.651022
O O12 0.247553 0.100483 0.673790
O O13 0.374737 0.000000 0.633498
O O14 0.148491 0.840590 0.111905
O O15 0.000000 0.886753 0.056766
O O16 0.131675 0.000000 0.065519
O O17 0.141797 0.858204 0.000000
O O18 0.131042 0.188109 0.225029
O O19 0.000000 0.177526 0.162085
O O20 0.621735 0.500000 0.212773
#
# Coordination Sequence:
#
# PCOD9559231 Si02
#       7
#    16  16  16  16  16  16  16
#     4  11  22  37  61  91 123 161 204 251 306 368
#     4  10  21  37  60  89 119 155 198 248 308 368
#     4   9  19  37  60  88 124 163 204 251 303 363
#     4  10  21  37  56  78 108 148 194 246 301 359
#     4   8  15  30  52  79 114 154 193 236 290 354
#     4  10  20  34  55  82 112 151 197 246 303 362
#     4  10  22  40  59  81 115 157 200 249 305 365
#
# _framework density 21.215475999999999
#
# number of rings (size 3 to 8) (size 9 to 14) (size 15 to 20)
#    0.000    2.286    0.000    3.000    0.000    3.143 
#    0.000    2.857    0.000   13.714    0.000    0.000 
#    0.000    0.286    0.000    0.000    0.000    0.000 
#
# Total GULP energy -312573.485474 kJ/mol
# GULP energy per Si atom -5581.669383 kJ/mol
# Density = 2.116719 g / cm^3
# Si number density = 21.215476 Si / 1000 Ang^3
#
#
#
# Elastic Constant Matrix: (Units=GPa)
#
#
# Indices 1 2 3 4 5 6 
#
# 1 86.4181 25.4161 46.3396 0.0000 0.0000 0.0000
# 2 25.4161 86.4179 46.3395 0.0000 0.0000 0.0000
# 3 46.3396 46.3395 155.4986 0.0000 0.0000 0.0000
# 4 0.0000 0.0000 0.0000 1751.4270 -0.0008 0.0000
# 5 0.0000 0.0000 0.0000 -0.0008 1752.6204 0.0000
# 6 0.0000 0.0000 0.0000 0.0000 0.0000 22.5140
#
#
#
# Elastic Compliance Matrix: (Units=1/GPa)
#
#
# Indices 1 2 3 4 5 6 
#
# 1 0.014134 -0.002259 -0.003539 0.000000 0.000000 0.000000
# 2 -0.002259 0.014134 -0.003539 0.000000 0.000000 0.000000
# 3 -0.003539 -0.003539 0.008540 0.000000 0.000000 0.000000
# 4 0.000000 0.000000 0.000000 0.000571 0.000000 0.000000
# 5 0.000000 0.000000 0.000000 0.000000 0.000571 0.000000
# 6 0.000000 0.000000 0.000000 0.000000 0.000000 0.044417
#
#
# Mechanical properties :
#
#
# Convention : Reuss Voigt Hill
#
# Bulk Modulus (GPa) = 55.14452 62.72499 58.93476
# Shear Modulus (GPa) = 46.69259 719.32824 383.01041
#
# Velocity S-wave (km/s) = 4.69644 18.43351 13.45085
# Velocity P-wave (km/s) = 7.44699 21.97018 16.40345
#
# Compressibility (1/GPa) = 0.01813417
#
# Stress axis : x y z
#
# Youngs Moduli (GPa) = 70.75330 70.75309 117.09617
#
# Poissons Ratio (x) = 0.15985 0.41436
# Poissons Ratio (y) = 0.15985 0.41436
# Poissons Ratio (z) = 0.25037 0.25037
#
# Static dielectric constant tensor:
#      x y z
#    x -2.137760 0.000000 0.000000 
#    y 0.000000 -2.135090 0.000000 
#    z 0.000000 0.000000 1.761140 
# 
# From -- ./inp_files/8864.got.cif
#   From: 2010.05.17/outbox.cif.g08.bks.cpg/sg119_5_cif.got.tgz:8864.got - 2010.05.20 11:21:29.
