data_PCOD9559104
_publ_section_title
;
Structure prediction by ZEFSAII (Michael W. Deem and Ramdas Pophale) SiO2 
 PCOD9559104
Probable space group: I -4 M 2
;
_chemical_formula_sum "Si O2"
_cell_formula_units_Z 48
_cell_length_a 7.717091
_cell_length_b 7.717091
_cell_length_c 39.760352
_cell_angle_alpha 90.000000
_cell_angle_beta 90.000000
_cell_angle_gamma 90.000000
_cell_volume 2367.867864
_symmetry_space_group_name_H-M "I -4 M 2"
_symmetry_group_IT_number 119
_symmetry_cell_setting 'tetragonal'
loop_
_space_group_symop_operation_xyz
x,y,z
y,-x,-z
-x,-y,z
-y,x,-z
y,x,-z
-y,-x,-z
-x,y,z
x,-y,z
1/2+x,1/2+y,1/2+z
1/2+y,1/2-x,1/2-z
1/2-x,1/2-y,1/2+z
1/2-y,1/2+x,1/2-z
1/2+y,1/2+x,1/2-z
1/2-y,1/2-x,1/2-z
1/2-x,1/2+y,1/2+z
1/2+x,1/2-y,1/2+z
loop_
_atom_site_type_symbol
_atom_site_label
_atom_site_fract_x
_atom_site_fract_y
_atom_site_fract_z
Si Si1 0.288546 0.801911 0.287641
Si Si2 0.787753 0.000000 0.837072
Si Si3 0.500000 0.712306 0.585860
Si Si4 0.709586 0.192133 0.462228
O O1 0.500000 0.805054 0.287590
O O2 0.241230 0.741230 0.250000
O O3 0.232505 0.669223 0.316234
O O4 0.230123 0.000000 0.292808
O O5 0.730239 0.000000 0.875632
O O6 0.000000 0.000000 0.837241
O O7 0.500000 0.500000 0.586334
O O8 0.665909 0.768920 0.564395
O O9 0.771109 0.228892 0.500000
O O10 0.500000 0.200034 0.463310
O O11 0.762567 0.000000 0.452081
#
# Coordination Sequence:
#
# PCOD9559104 Si02
#       4
#    16   8   8  16
#     4   8  14  25  42  67 100 136 179 228 268 314
#     4   9  16  26  44  74 106 144 180 218 280 330
#     4   9  18  30  47  75 115 144 177 235 282 327
#     4  10  19  32  53  78 105 143 185 227 276 327
#
# _framework density 20.271404
#
# number of rings (size 3 to 8) (size 9 to 14) (size 15 to 20)
#    0.000    3.000    1.667    1.000    0.000    1.667 
#    0.000    6.667    0.000    0.500    8.667    0.000 
#    0.000    0.000    0.000    0.000    0.000    0.000 
#
# Total GULP energy -133974.712276 kJ/mol
# GULP energy per Si atom -5582.279678 kJ/mol
# Density = 2.022527 g / cm^3
# Si number density = 20.271404 Si / 1000 Ang^3
#
#
#
# Elastic Constant Matrix: (Units=GPa)
#
#
# Indices 1 2 3 4 5 6 
#
# 1 82.1953 37.2249 74.5263 0.0000 0.0000 0.0000
# 2 37.2249 82.1943 74.5279 0.0000 0.0000 0.0000
# 3 74.5263 74.5279 216.5511 0.0000 0.0000 0.0000
# 4 0.0000 0.0000 0.0000 -14.8793 0.0000 0.0000
# 5 0.0000 0.0000 0.0000 0.0000 -14.8799 0.0000
# 6 0.0000 0.0000 0.0000 0.0000 0.0000 0.5180
#
#
#
# Elastic Compliance Matrix: (Units=1/GPa)
#
#
# Indices 1 2 3 4 5 6 
#
# 1 0.018458 -0.003779 -0.005052 0.000000 0.000000 0.000000
# 2 -0.003779 0.018459 -0.005052 0.000000 0.000000 0.000000
# 3 -0.005052 -0.005052 0.008095 0.000000 0.000000 0.000000
# 4 0.000000 0.000000 0.000000 -0.067208 0.000000 0.000000
# 5 0.000000 0.000000 0.000000 0.000000 -0.067205 0.000000
# 6 0.000000 0.000000 0.000000 0.000000 0.000000 1.930620
#
#
# Mechanical properties :
#
#
# Convention : Reuss Voigt Hill
#
# Bulk Modulus (GPa) = 57.98388 83.72208 70.85298
# Shear Modulus (GPa) = 2.66705 7.12919 4.89812
#
# Velocity S-wave (km/s) = 1.14827 1.87737 1.55612
# Velocity P-wave (km/s) = 5.51579 6.78893 6.18520
#
# Compressibility (1/GPa) = 0.01724617
#
# Stress axis : x y z
#
# Youngs Moduli (GPa) = 54.17706 54.17510 123.52979
#
# Poissons Ratio (x) = 0.20472 0.62405
# Poissons Ratio (y) = 0.20472 0.62410
# Poissons Ratio (z) = 0.27369 0.27371
#
# Static dielectric constant tensor:
#      x y z
#    x 1.740280 0.000000 0.000000 
#    y 0.000000 1.740280 0.000000 
#    z 0.000000 0.000000 1.662840 
# 
# From -- ./inp_files/9874.got.cif
#   From: 2010.05.17/outbox.cif.g08.bks.cpg/sg119_5_cif.got.tgz:9874.got - 2010.05.20 11:21:29.
