data_PCOD9559022
_publ_section_title
;
Structure prediction by ZEFSAII (Michael W. Deem and Ramdas Pophale) SiO2 
 PCOD9559022
Probable space group: I -4 M 2
;
_chemical_formula_sum "Si O2"
_cell_formula_units_Z 112
_cell_length_a 14.244062
_cell_length_b 14.244062
_cell_length_c 27.362652
_cell_angle_alpha 90.000000
_cell_angle_beta 90.000000
_cell_angle_gamma 90.000000
_cell_volume 5551.698823
_symmetry_space_group_name_H-M "I -4 M 2"
_symmetry_group_IT_number 119
_symmetry_cell_setting 'tetragonal'
loop_
_space_group_symop_operation_xyz
x,y,z
y,-x,-z
-x,-y,z
-y,x,-z
y,x,-z
-y,-x,-z
-x,y,z
x,-y,z
1/2+x,1/2+y,1/2+z
1/2+y,1/2-x,1/2-z
1/2-x,1/2-y,1/2+z
1/2-y,1/2+x,1/2-z
1/2+y,1/2+x,1/2-z
1/2-y,1/2-x,1/2-z
1/2-x,1/2+y,1/2+z
1/2+x,1/2-y,1/2+z
loop_
_atom_site_type_symbol
_atom_site_label
_atom_site_fract_x
_atom_site_fract_y
_atom_site_fract_z
Si Si1 0.864944 0.892403 0.907744
Si Si2 0.607682 0.151266 0.575590
Si Si3 0.599630 0.705308 0.869094
Si Si4 0.890532 0.704205 0.965095
Si Si5 0.893933 0.245256 0.253958
Si Si6 0.726742 0.606080 0.687922
Si Si7 0.610458 0.203355 0.127192
O O1 0.753721 0.898068 0.900560
O O2 0.880952 0.814392 0.950032
O O3 0.901172 0.843561 0.858633
O O4 0.896358 0.000000 0.917231
O O5 0.500000 0.112226 0.576609
O O6 0.693965 0.104176 0.603532
O O7 0.637432 0.173178 0.519506
O O8 0.500000 0.660270 0.881937
O O9 0.602578 0.722856 0.811172
O O10 0.688975 0.641387 0.878913
O O11 0.842199 0.642215 0.923899
O O12 0.000000 0.684662 0.962561
O O13 0.847291 0.347291 0.250000
O O14 0.826056 0.171955 0.226561
O O15 0.000000 0.240748 0.234025
O O16 0.744578 0.500000 0.705717
O O17 0.821753 0.654933 0.667772
O O18 0.500000 0.192487 0.136914
#
# Coordination Sequence:
#
# PCOD9559022 Si02
#       7
#    16  16  16  16  16  16  16
#     4  10  18  31  57  93 132 169 207 254 313 380
#     4  10  20  38  63  90 128 171 212 263 322 387
#     4  11  24  42  65  91 122 163 214 268 323 383
#     4  10  21  36  60  94 129 171 216 257 315 389
#     4  11  23  43  67  96 131 170 216 267 323 383
#     4  11  23  41  67  98 133 174 217 260 320 394
#     4  11  23  42  67  93 130 171 210 267 326 382
#
# _framework density 20.174004
#
# number of rings (size 3 to 8) (size 9 to 14) (size 15 to 20)
#    0.000    1.429    4.286    2.571    0.000    6.714 
#    0.000    5.000    0.000    5.143    0.000    2.000 
#    0.000    0.000    0.000    0.000    0.000    0.000 
#
# Total GULP energy -312434.541726 kJ/mol
# GULP energy per Si atom -5579.188245 kJ/mol
# Density = 2.012809 g / cm^3
# Si number density = 20.174004 Si / 1000 Ang^3
#
#
#
# Elastic Constant Matrix: (Units=GPa)
#
#
# Indices 1 2 3 4 5 6 
#
# 1 172.0913 29.9407 47.3936 0.0000 0.0000 0.0000
# 2 29.9407 172.0913 47.3936 0.0000 0.0000 0.0000
# 3 47.3936 47.3936 94.8438 0.0000 0.0000 0.0000
# 4 0.0000 0.0000 0.0000 52.3399 0.0000 0.0000
# 5 0.0000 0.0000 0.0000 0.0000 52.3399 0.0000
# 6 0.0000 0.0000 0.0000 0.0000 0.0000 -33.4037
#
#
#
# Elastic Compliance Matrix: (Units=1/GPa)
#
#
# Indices 1 2 3 4 5 6 
#
# 1 0.006750 -0.000285 -0.003231 0.000000 0.000000 0.000000
# 2 -0.000285 0.006750 -0.003231 0.000000 0.000000 0.000000
# 3 -0.003231 -0.003231 0.013773 0.000000 0.000000 0.000000
# 4 0.000000 0.000000 0.000000 0.019106 0.000000 0.000000
# 5 0.000000 0.000000 0.000000 0.000000 0.019106 0.000000
# 6 0.000000 0.000000 0.000000 0.000000 0.000000 -0.029937
#
#
# Mechanical properties :
#
#
# Convention : Reuss Voigt Hill
#
# Bulk Modulus (GPa) = 72.56749 76.49800 74.53274
# Shear Modulus (GPa) = 93.22460 35.20842 64.21651
#
# Velocity S-wave (km/s) = 6.80519 4.18214 5.64805
# Velocity P-wave (km/s) = 9.88920 7.83082 8.91959
#
# Compressibility (1/GPa) = 0.01378028
#
# Stress axis : x y z
#
# Youngs Moduli (GPa) = 148.14476 148.14476 72.60818
#
# Poissons Ratio (x) = 0.04217 0.23458
# Poissons Ratio (y) = 0.04217 0.23458
# Poissons Ratio (z) = 0.47863 0.47863
#
# Static dielectric constant tensor:
#      x y z
#    x 1.695510 0.000000 0.000000 
#    y 0.000000 1.695510 0.000000 
#    z 0.000000 0.000000 1.596090 
# 
# From -- ./inp_files/9653.got.cif
#   From: 2010.05.17/outbox.cif.g08.bks.cpg/sg119_5_cif.got.tgz:9653.got - 2010.05.20 11:21:29.
