data_PCOD9559269
_publ_section_title
;
Structure prediction by ZEFSAII (Michael W. Deem and Ramdas Pophale) SiO2 
 PCOD9559269
Probable space group: I -4 M 2
;
_chemical_formula_sum "Si O2"
_cell_formula_units_Z 80
_cell_length_a 13.834885
_cell_length_b 13.834885
_cell_length_c 22.076481
_cell_angle_alpha 90.000000
_cell_angle_beta 90.000000
_cell_angle_gamma 90.000000
_cell_volume 4225.527718
_symmetry_space_group_name_H-M "I -4 M 2"
_symmetry_group_IT_number 119
_symmetry_cell_setting 'tetragonal'
loop_
_space_group_symop_operation_xyz
x,y,z
y,-x,-z
-x,-y,z
-y,x,-z
y,x,-z
-y,-x,-z
-x,y,z
x,-y,z
1/2+x,1/2+y,1/2+z
1/2+y,1/2-x,1/2-z
1/2-x,1/2-y,1/2+z
1/2-y,1/2+x,1/2-z
1/2+y,1/2+x,1/2-z
1/2-y,1/2-x,1/2-z
1/2-x,1/2+y,1/2+z
1/2+x,1/2-y,1/2+z
loop_
_atom_site_type_symbol
_atom_site_label
_atom_site_fract_x
_atom_site_fract_y
_atom_site_fract_z
Si Si1 0.111821 0.697229 0.865755
Si Si2 0.613960 0.306137 0.173022
Si Si3 0.731886 0.888606 0.994552
Si Si4 0.885515 0.220678 0.444525
Si Si5 0.616884 0.391737 0.302740
O O1 0.191404 0.633411 0.832110
O O2 0.139152 0.808605 0.851021
O O3 0.000000 0.681588 0.846739
O O4 0.117219 0.684896 0.938038
O O5 0.500000 0.324669 0.166459
O O6 0.670616 0.354871 0.117858
O O7 0.646231 0.350604 0.237063
O O8 0.665324 0.824650 0.951111
O O9 0.741416 0.000000 0.977764
O O10 0.834495 0.834495 0.000000
O O11 0.841946 0.158055 0.500000
O O12 0.000000 0.227365 0.449738
O O13 0.500000 0.397632 0.301907
O O14 0.654073 0.500000 0.314027
#
# Coordination Sequence:
#
# PCOD9559269 Si02
#       5
#    16  16  16  16  16
#     4  10  20  36  56  80 111 150 192 235 291 353
#     4  11  21  36  57  85 117 150 193 242 291 349
#     4  10  21  38  58  82 114 151 194 241 289 342
#     4  11  22  37  56  82 116 153 193 237 287 344
#     4   9  19  35  56  82 110 141 182 234 289 344
#
# _framework density 18.932545999999999
#
# number of rings (size 3 to 8) (size 9 to 14) (size 15 to 20)
#    0.000    1.800    4.000    1.800    0.000    4.000 
#    0.000    4.000    0.000    3.600    0.000    0.000 
#    0.000    1.600    0.000    0.000    0.000    0.000 
#
# Total GULP energy -223304.741161 kJ/mol
# GULP energy per Si atom -5582.618529 kJ/mol
# Density = 1.888945 g / cm^3
# Si number density = 18.932546 Si / 1000 Ang^3
#
#
#
# Elastic Constant Matrix: (Units=GPa)
#
#
# Indices 1 2 3 4 5 6 
#
# 1 95.6636 36.2063 7.3101 0.0000 0.0000 0.0000
# 2 36.2063 95.6657 7.3126 0.0000 0.0000 0.0000
# 3 7.3101 7.3126 46.6873 0.0000 0.0000 0.0000
# 4 0.0000 0.0000 0.0000 24.6405 0.0000 0.0000
# 5 0.0000 0.0000 0.0000 0.0000 24.6405 0.0000
# 6 0.0000 0.0000 0.0000 0.0000 0.0000 17.4559
#
#
#
# Elastic Compliance Matrix: (Units=1/GPa)
#
#
# Indices 1 2 3 4 5 6 
#
# 1 0.012268 -0.004551 -0.001208 0.000000 0.000000 0.000000
# 2 -0.004551 0.012268 -0.001209 0.000000 0.000000 0.000000
# 3 -0.001208 -0.001209 0.021798 0.000000 0.000000 0.000000
# 4 0.000000 0.000000 0.000000 0.040584 0.000000 0.000000
# 5 0.000000 0.000000 0.000000 0.000000 0.040584 0.000000
# 6 0.000000 0.000000 0.000000 0.000000 0.000000 0.057287
#
#
# Mechanical properties :
#
#
# Convention : Reuss Voigt Hill
#
# Bulk Modulus (GPa) = 30.86624 37.74163 34.30394
# Shear Modulus (GPa) = 23.86381 25.82656 24.84519
#
# Velocity S-wave (km/s) = 3.55415 3.69743 3.62650
# Velocity P-wave (km/s) = 5.76033 6.18110 5.97442
#
# Compressibility (1/GPa) = 0.03239786
#
# Stress axis : x y z
#
# Youngs Moduli (GPa) = 81.51341 81.51452 45.87657
#
# Poissons Ratio (x) = 0.37094 0.05542
# Poissons Ratio (y) = 0.37094 0.05546
# Poissons Ratio (z) = 0.09848 0.09855
#
# Static dielectric constant tensor:
#      x y z
#    x 1.658810 0.000000 0.000000 
#    y 0.000000 1.658810 0.000000 
#    z 0.000000 0.000000 1.670390 
# 
# From -- ./inp_files/7589.got.cif
#   From: 2010.05.17/outbox.cif.g08.bks.cpg/sg119_4_cif.got.tgz:7589.got - 2010.05.20 11:21:29.
