data_PCOD9559633
_publ_section_title
;
Structure prediction by ZEFSAII (Michael W. Deem and Ramdas Pophale) SiO2 
 PCOD9559633
Probable space group: I -4 C 2
;
_chemical_formula_sum "Si O2"
_cell_formula_units_Z 96
_cell_length_a 14.323887
_cell_length_b 14.323887
_cell_length_c 22.186388
_cell_angle_alpha 90.000000
_cell_angle_beta 90.000000
_cell_angle_gamma 90.000000
_cell_volume 4552.064176
_symmetry_space_group_name_H-M "I -4 C 2"
_symmetry_group_IT_number 120
_symmetry_cell_setting 'tetragonal'
loop_
_space_group_symop_operation_xyz
x,y,z
y,-x,-z
-x,-y,z
-y,x,-z
y,x,1/2-z
-y,-x,1/2-z
-x,y,1/2+z
x,-y,1/2+z
1/2+x,1/2+y,1/2+z
1/2+y,1/2-x,1/2-z
1/2-x,1/2-y,1/2+z
1/2-y,1/2+x,1/2-z
1/2+y,1/2+x,-z
1/2-y,1/2-x,-z
1/2-x,1/2+y,z
1/2+x,1/2-y,z
loop_
_atom_site_type_symbol
_atom_site_label
_atom_site_fract_x
_atom_site_fract_y
_atom_site_fract_z
Si Si1 0.227491 0.195943 0.679177
Si Si2 0.757653 0.458353 0.025954
Si Si3 0.434666 0.220511 0.648840
Si Si4 0.656382 0.885516 0.898279
Si Si5 0.644407 0.711912 0.522939
Si Si6 0.549024 0.408791 0.680104
O O1 0.207820 0.207820 0.750000
O O2 0.339291 0.184583 0.678475
O O3 0.192049 0.284158 0.638704
O O4 0.152939 0.117687 0.657200
O O5 0.835944 0.434673 0.075240
O O6 0.668416 0.393922 0.036669
O O7 0.792518 0.423108 0.959490
O O8 0.730246 0.564825 0.025183
O O9 0.522234 0.150423 0.642761
O O10 0.395095 0.242481 0.582802
O O11 0.482402 0.317045 0.673425
O O12 0.736499 0.763502 0.500000
O O13 0.500000 0.500000 0.652064
O O14 0.566302 0.433699 0.750000
#
# Coordination Sequence:
#
# PCOD9559633 Si02
#       6
#    16  16  16  16  16  16
#     4  10  19  34  60  90 125 176 212 259 340 391
#     4  10  19  37  64  87 123 160 210 262 334 379
#     4  10  20  36  60  89 124 170 213 262 327 400
#     4   9  18  38  58  85 127 160 208 268 309 393
#     4  11  21  39  62  88 124 163 202 271 322 395
#     4   9  20  38  60  91 128 161 219 283 323 389
#
# _framework density 21.089334000000001
#
# number of rings (size 3 to 8) (size 9 to 14) (size 15 to 20)
#    0.000    2.167    3.333    0.000    2.333    0.333 
#   12.000    6.667    0.000    2.000    0.000    0.000 
#    0.000    0.000    0.000    0.000    0.000    0.000 
#
# Total GULP energy -267291.145168 kJ/mol
# GULP energy per Si atom -5568.565524 kJ/mol
# Density = 2.104133 g / cm^3
# Si number density = 21.089334 Si / 1000 Ang^3
#
#
#
# Elastic Constant Matrix: (Units=GPa)
#
#
# Indices 1 2 3 4 5 6 
#
# 1 117.8583 58.1708 13.5391 0.0000 0.0000 0.0000
# 2 58.1708 117.8605 13.5386 0.0000 0.0000 0.0000
# 3 13.5391 13.5386 65.5862 0.0000 0.0000 0.0000
# 4 0.0000 0.0000 0.0000 31.3981 0.0000 0.0000
# 5 0.0000 0.0000 0.0000 0.0000 31.4002 0.0000
# 6 0.0000 0.0000 0.0000 0.0000 0.0000 18.2611
#
#
#
# Elastic Compliance Matrix: (Units=1/GPa)
#
#
# Indices 1 2 3 4 5 6 
#
# 1 0.011310 -0.005443 -0.001211 0.000000 0.000000 0.000000
# 2 -0.005443 0.011310 -0.001211 0.000000 0.000000 0.000000
# 3 -0.001211 -0.001211 0.015747 0.000000 0.000000 0.000000
# 4 0.000000 0.000000 0.000000 0.031849 0.000000 0.000000
# 5 0.000000 0.000000 0.000000 0.000000 0.031847 0.000000
# 6 0.000000 0.000000 0.000000 0.000000 0.000000 0.054761
#
#
# Mechanical properties :
#
#
# Convention : Reuss Voigt Hill
#
# Bulk Modulus (GPa) = 44.17577 52.42246 48.29912
# Shear Modulus (GPa) = 27.76206 30.61564 29.18885
#
# Velocity S-wave (km/s) = 3.63216 3.81427 3.72433
# Velocity P-wave (km/s) = 6.21149 6.65654 6.43786
#
# Compressibility (1/GPa) = 0.02263684
#
# Stress axis : x y z
#
# Youngs Moduli (GPa) = 88.41345 88.41533 63.50359
#
# Poissons Ratio (x) = 0.48126 0.07692
# Poissons Ratio (y) = 0.48125 0.07691
# Poissons Ratio (z) = 0.10709 0.10708
#
# Static dielectric constant tensor:
#      x y z
#    x 1.773060 0.000000 0.000000 
#    y 0.000000 1.773040 0.000000 
#    z 0.000000 0.000000 1.785590 
# 
# From -- ./inp_files/5378.got.cif
#   From: 2010.05.17/outbox.cif.g08.bks.cpg/sg120_3_cif.got.tgz:5378.got - 2010.05.20 11:28:13.
