data_PCOD9559993
_publ_section_title
;
Structure prediction by ZEFSAII (Michael W. Deem and Ramdas Pophale) SiO2 
 PCOD9559993
Probable space group: I -4 C 2
;
_chemical_formula_sum "Si O2"
_cell_formula_units_Z 112
_cell_length_a 15.060493
_cell_length_b 15.060493
_cell_length_c 24.978433
_cell_angle_alpha 90.000000
_cell_angle_beta 90.000000
_cell_angle_gamma 90.000000
_cell_volume 5665.569442
_symmetry_space_group_name_H-M "I -4 C 2"
_symmetry_group_IT_number 120
_symmetry_cell_setting 'tetragonal'
loop_
_space_group_symop_operation_xyz
x,y,z
y,-x,-z
-x,-y,z
-y,x,-z
y,x,1/2-z
-y,-x,1/2-z
-x,y,1/2+z
x,-y,1/2+z
1/2+x,1/2+y,1/2+z
1/2+y,1/2-x,1/2-z
1/2-x,1/2-y,1/2+z
1/2-y,1/2+x,1/2-z
1/2+y,1/2+x,-z
1/2-y,1/2-x,-z
1/2-x,1/2+y,z
1/2+x,1/2-y,z
loop_
_atom_site_type_symbol
_atom_site_label
_atom_site_fract_x
_atom_site_fract_y
_atom_site_fract_z
Si Si1 0.765676 0.465348 0.356842
Si Si2 0.577830 0.926754 0.436951
Si Si3 0.845709 0.200268 0.119261
Si Si4 0.194346 0.153117 0.100702
Si Si5 0.468858 0.235830 0.358149
Si Si6 0.883685 0.905831 0.992991
Si Si7 0.522969 0.140308 0.250261
O O1 0.836193 0.463602 0.405775
O O2 0.729959 0.565007 0.351073
O O3 0.692648 0.392725 0.371245
O O4 0.810542 0.437928 0.300990
O O5 0.593672 0.906329 0.500000
O O6 0.549946 0.840894 0.402309
O O7 0.500000 0.000000 0.434293
O O8 0.777926 0.282106 0.110808
O O9 0.793062 0.120119 0.146841
O O10 0.879152 0.158503 0.063258
O O11 0.171413 0.144730 0.038333
O O12 0.211557 0.054317 0.121357
O O13 0.495262 0.197413 0.300755
O O14 0.987728 0.879866 0.997653
O O15 0.435221 0.089839 0.229852
#
# Coordination Sequence:
#
# PCOD9559993 Si02
#       7
#    16  16  16  16  16  16  16
#     4  12  26  44  69 104 135 187 231 285 353 416
#     4  11  24  44  66  99 140 173 233 298 351 408
#     4  12  25  43  67  99 141 181 234 288 351 416
#     4  12  25  43  67  99 141 181 234 288 351 416
#     4  12  26  44  69 104 135 187 231 285 353 416
#     4  11  23  42  68  94 135 191 230 280 344 432
#     4  11  22  44  74  99 136 180 238 293 350 415
#
# _framework density 19.768533000000001
#
# number of rings (size 3 to 8) (size 9 to 14) (size 15 to 20)
#    0.000    0.429    5.714    3.000    4.000    1.714 
#    0.000    2.857    0.000    1.714    0.000    0.000 
#    0.000    0.000    0.000    0.000    0.000    0.000 
#
# Total GULP energy -313224.019209 kJ/mol
# GULP energy per Si atom -5593.286057 kJ/mol
# Density = 1.972354 g / cm^3
# Si number density = 19.768533 Si / 1000 Ang^3
#
#
#
# Elastic Constant Matrix: (Units=GPa)
#
#
# Indices 1 2 3 4 5 6 
#
# 1 67.1132 9.8707 -3.1740 0.0000 0.0000 0.0000
# 2 9.8707 67.1133 -3.1741 0.0000 0.0000 0.0000
# 3 -3.1740 -3.1741 69.9237 0.0000 0.0000 0.0000
# 4 0.0000 0.0000 0.0000 16.6349 0.0000 0.0000
# 5 0.0000 0.0000 0.0000 0.0000 16.6349 0.0000
# 6 0.0000 0.0000 0.0000 0.0000 0.0000 43.2421
#
#
#
# Elastic Compliance Matrix: (Units=1/GPa)
#
#
# Indices 1 2 3 4 5 6 
#
# 1 0.015254 -0.002216 0.000592 0.000000 0.000000 0.000000
# 2 -0.002216 0.015254 0.000592 0.000000 0.000000 0.000000
# 3 0.000592 0.000592 0.014355 0.000000 0.000000 0.000000
# 4 0.000000 0.000000 0.000000 0.060115 0.000000 0.000000
# 5 0.000000 0.000000 0.000000 0.000000 0.060115 0.000000
# 6 0.000000 0.000000 0.000000 0.000000 0.000000 0.023126
#
#
# Mechanical properties :
#
#
# Convention : Reuss Voigt Hill
#
# Bulk Modulus (GPa) = 23.36475 23.46616 23.41546
# Shear Modulus (GPa) = 24.44416 28.67757 26.56087
#
# Velocity S-wave (km/s) = 3.52023 3.81289 3.66948
# Velocity P-wave (km/s) = 5.32612 5.59289 5.46113
#
# Compressibility (1/GPa) = 0.04279951
#
# Stress axis : x y z
#
# Youngs Moduli (GPa) = 65.55645 65.55648 69.66196
#
# Poissons Ratio (x) = 0.14524 -0.04123
# Poissons Ratio (y) = 0.14524 -0.04123
# Poissons Ratio (z) = -0.03880 -0.03880
#
# Static dielectric constant tensor:
#      x y z
#    x 1.695850 0.000000 0.000000 
#    y 0.000000 1.695850 0.000000 
#    z 0.000000 0.000000 1.662360 
# 
# From -- ./inp_files/5913.got.cif
#   From: 2010.05.17/outbox.cif.g08.bks.cpg/sg120_3_cif.got.tgz:5913.got - 2010.05.20 11:28:13.
