data_PCOD9559077
_publ_section_title
;
Structure prediction by ZEFSAII (Michael W. Deem and Ramdas Pophale) SiO2 
 PCOD9559077
Probable space group: I -4 M 2
;
_chemical_formula_sum "Si O2"
_cell_formula_units_Z 112
_cell_length_a 16.665133
_cell_length_b 16.665133
_cell_length_c 22.885558
_cell_angle_alpha 90.000000
_cell_angle_beta 90.000000
_cell_angle_gamma 90.000000
_cell_volume 6355.929538
_symmetry_space_group_name_H-M "I -4 M 2"
_symmetry_group_IT_number 119
_symmetry_cell_setting 'tetragonal'
loop_
_space_group_symop_operation_xyz
x,y,z
y,-x,-z
-x,-y,z
-y,x,-z
y,x,-z
-y,-x,-z
-x,y,z
x,-y,z
1/2+x,1/2+y,1/2+z
1/2+y,1/2-x,1/2-z
1/2-x,1/2-y,1/2+z
1/2-y,1/2+x,1/2-z
1/2+y,1/2+x,1/2-z
1/2-y,1/2-x,1/2-z
1/2-x,1/2+y,1/2+z
1/2+x,1/2-y,1/2+z
loop_
_atom_site_type_symbol
_atom_site_label
_atom_site_fract_x
_atom_site_fract_y
_atom_site_fract_z
Si Si1 0.701710 0.848527 0.919342
Si Si2 0.089909 0.342985 0.309014
Si Si3 0.874690 0.089118 0.932619
Si Si4 0.702295 0.588642 0.672334
Si Si5 0.595726 0.096205 0.470980
Si Si6 0.715464 0.815919 0.383908
Si Si7 0.678384 0.306745 0.777888
O O1 0.654939 0.860616 0.858833
O O2 0.779802 0.903452 0.922569
O O3 0.738434 0.756886 0.918896
O O4 0.642996 0.874263 0.971300
O O5 0.108813 0.391187 0.250000
O O6 0.103779 0.248912 0.294880
O O7 0.000000 0.359010 0.329244
O O8 0.912522 0.147946 0.885445
O O9 0.903733 0.000000 0.922531
O O10 0.889228 0.110773 0.000000
O O11 0.729352 0.500000 0.687326
O O12 0.774092 0.646492 0.654524
O O13 0.660153 0.629795 0.727644
O O14 0.500000 0.116880 0.458793
O O15 0.663335 0.124316 0.423795
O O16 0.598529 0.000000 0.477701
O O17 0.780297 0.844431 0.335636
O O18 0.741797 0.241797 0.750000
#
# Coordination Sequence:
#
# PCOD9559077 Si02
#       7
#    16  16  16  16  16  16  16
#     4  10  20  35  54  72  95 133 178 213 243 297
#     4  10  20  34  51  72 100 132 168 210 256 307
#     4  11  22  34  50  72 101 136 168 201 244 296
#     4  10  19  31  50  74  99 129 165 206 248 289
#     4  11  22  33  49  77 110 135 158 204 269 322
#     4   9  18  35  54  71  95 132 175 210 243 297
#     4   8  17  33  52  72  94 127 171 210 243 288
#
# _framework density 17.62134
#
# number of rings (size 3 to 8) (size 9 to 14) (size 15 to 20)
#    0.000    2.143    0.000    6.429    0.000    4.571 
#    0.000    0.000    0.000    0.000    0.000    7.000 
#    0.000   14.857    0.000    0.000    0.000    0.000 
#
# Total GULP energy -311890.225377 kJ/mol
# GULP energy per Si atom -5569.468310 kJ/mol
# Density = 1.758123 g / cm^3
# Si number density = 17.621340 Si / 1000 Ang^3
#
#
#
# Elastic Constant Matrix: (Units=GPa)
#
#
# Indices 1 2 3 4 5 6 
#
# 1 46.1394 -4.2616 -9.8632 0.0000 0.0000 0.0000
# 2 -4.2616 46.1407 -9.8626 0.0000 0.0000 0.0000
# 3 -9.8632 -9.8626 31.4959 0.0000 0.0000 0.0000
# 4 0.0000 0.0000 0.0000 -7.3825 0.0000 0.0000
# 5 0.0000 0.0000 0.0000 0.0000 -7.3845 0.0000
# 6 0.0000 0.0000 0.0000 0.0000 0.0000 77.7407
#
#
#
# Elastic Compliance Matrix: (Units=1/GPa)
#
#
# Indices 1 2 3 4 5 6 
#
# 1 0.023926 0.004085 0.008772 0.000000 0.000000 0.000000
# 2 0.004085 0.023925 0.008771 0.000000 0.000000 0.000000
# 3 0.008772 0.008771 0.037244 0.000000 0.000000 0.000000
# 4 0.000000 0.000000 0.000000 -0.135455 0.000000 0.000000
# 5 0.000000 0.000000 0.000000 0.000000 -0.135419 0.000000
# 6 0.000000 0.000000 0.000000 0.000000 0.000000 0.012863
#
#
# Mechanical properties :
#
#
# Convention : Reuss Voigt Hill
#
# Bulk Modulus (GPa) = 7.79123 8.42235 8.10679
# Shear Modulus (GPa) = -28.83706 22.44563 -3.19572
#
# Velocity S-wave (km/s) = -4.04974 3.57287 -1.34814
# Velocity P-wave (km/s) = 4.17566 4.67018 1.47893
#
# Compressibility (1/GPa) = 0.12834936
#
# Stress axis : x y z
#
# Youngs Moduli (GPa) = 41.79583 41.79741 26.85020
#
# Poissons Ratio (x) = -0.17073 -0.23552
# Poissons Ratio (y) = -0.17073 -0.23550
# Poissons Ratio (z) = -0.36662 -0.36661
#
# Static dielectric constant tensor:
#      x y z
#    x 1.637860 0.000000 0.000000 
#    y 0.000000 1.637860 0.000000 
#    z 0.000000 0.000000 1.628800 
# 
# From -- ./inp_files/8000.got.cif
#   From: 2010.05.17/outbox.cif.g08.bks.cpg/sg119_4_cif.got.tgz:8000.got - 2010.05.20 11:21:29.
