data_PCOD9559216
_publ_section_title
;
Structure prediction by ZEFSAII (Michael W. Deem and Ramdas Pophale) SiO2 
 PCOD9559216
Probable space group: I -4 M 2
;
_chemical_formula_sum "Si O2"
_cell_formula_units_Z 120
_cell_length_a 27.504194
_cell_length_b 27.504194
_cell_length_c 9.343231
_cell_angle_alpha 90.000000
_cell_angle_beta 90.000000
_cell_angle_gamma 90.000000
_cell_volume 7067.973811
_symmetry_space_group_name_H-M "I -4 M 2"
_symmetry_group_IT_number 119
_symmetry_cell_setting 'tetragonal'
loop_
_space_group_symop_operation_xyz
x,y,z
y,-x,-z
-x,-y,z
-y,x,-z
y,x,-z
-y,-x,-z
-x,y,z
x,-y,z
1/2+x,1/2+y,1/2+z
1/2+y,1/2-x,1/2-z
1/2-x,1/2-y,1/2+z
1/2-y,1/2+x,1/2-z
1/2+y,1/2+x,1/2-z
1/2-y,1/2-x,1/2-z
1/2-x,1/2+y,1/2+z
1/2+x,1/2-y,1/2+z
loop_
_atom_site_type_symbol
_atom_site_label
_atom_site_fract_x
_atom_site_fract_y
_atom_site_fract_z
Si Si1 0.156956 0.861267 0.339956
Si Si2 0.255313 0.198845 0.388193
Si Si3 0.613251 0.895798 0.011209
Si Si4 0.941853 0.784768 0.820106
Si Si5 0.875634 0.802808 0.080657
Si Si6 0.442785 0.057216 0.750000
Si Si7 0.327286 0.942163 0.268970
Si Si8 0.194973 0.333934 0.401812
O O1 0.135899 0.864102 0.500000
O O2 0.207858 0.831617 0.352216
O O3 0.175183 0.912188 0.273022
O O4 0.122502 0.828565 0.236433
O O5 0.239746 0.239746 0.500000
O O6 0.278144 0.221857 0.250000
O O7 0.298233 0.174358 0.476033
O O8 0.638481 0.928838 0.133506
O O9 0.585167 0.852771 0.097502
O O10 0.578064 0.920806 0.897340
O O11 0.658472 0.878390 0.914332
O O12 0.928120 0.729220 0.769414
O O13 0.000000 0.789198 0.808876
O O14 0.923131 0.794977 0.982315
O O15 0.850941 0.750013 0.081360
O O16 0.839189 0.839189 0.000000
O O17 0.500000 0.066572 0.746494
O O18 0.327278 0.000000 0.293165
O O19 0.191345 0.308656 0.250000
#
# Coordination Sequence:
#
# PCOD9559216 Si02
#       8
#    16  16  16  16  16   8  16  16
#     4  10  20  34  52  78 114 147 183 225 266 314
#     4  11  20  30  47  74 109 149 185 217 255 313
#     4  11  22  36  55  80 101 132 181 233 296 346
#     4  10  20  37  56  79 109 151 189 221 267 323
#     4  10  20  34  53  77 109 149 187 220 261 315
#     4  11  24  44  62  74  96 134 186 252 320 364
#     4  10  21  37  56  78 107 138 180 235 284 337
#     4  12  21  31  48  76 110 143 178 221 272 329
#
# _framework density 16.977990999999999
#
# number of rings (size 3 to 8) (size 9 to 14) (size 15 to 20)
#    0.000    1.400    2.000    6.400    1.867    0.000 
#    0.000    0.667    0.000    3.200    0.000    0.000 
#    0.000   31.467    0.000    0.000    0.000    0.000 
#
# Total GULP energy -334415.428811 kJ/mol
# GULP energy per Si atom -5573.590480 kJ/mol
# Density = 1.693935 g / cm^3
# Si number density = 16.977991 Si / 1000 Ang^3
#
#
#
# Elastic Constant Matrix: (Units=GPa)
#
#
# Indices 1 2 3 4 5 6 
#
# 1 72.8033 34.2938 37.9894 0.0000 0.0000 0.0000
# 2 34.2938 72.8006 37.9886 0.0000 0.0000 0.0000
# 3 37.9894 37.9886 117.2653 0.0000 0.0000 0.0000
# 4 0.0000 0.0000 0.0000 183.4393 0.0000 0.0000
# 5 0.0000 0.0000 0.0000 0.0000 183.4151 0.0000
# 6 0.0000 0.0000 0.0000 0.0000 0.0000 24.2112
#
#
#
# Elastic Compliance Matrix: (Units=1/GPa)
#
#
# Indices 1 2 3 4 5 6 
#
# 1 0.019046 -0.006922 -0.003928 0.000000 0.000000 0.000000
# 2 -0.006922 0.019047 -0.003928 0.000000 0.000000 0.000000
# 3 -0.003928 -0.003928 0.011072 0.000000 0.000000 0.000000
# 4 0.000000 0.000000 0.000000 0.005451 0.000000 0.000000
# 5 0.000000 0.000000 0.000000 0.000000 0.005452 0.000000
# 6 0.000000 0.000000 0.000000 0.000000 0.000000 0.041303
#
#
# Mechanical properties :
#
#
# Convention : Reuss Voigt Hill
#
# Bulk Modulus (GPa) = 50.99522 53.71250 52.35386
# Shear Modulus (GPa) = 36.37340 88.38629 62.37984
#
# Velocity S-wave (km/s) = 4.63361 7.22304 6.06806
# Velocity P-wave (km/s) = 7.66345 10.06322 8.94418
#
# Compressibility (1/GPa) = 0.01960968
#
# Stress axis : x y z
#
# Youngs Moduli (GPa) = 52.50492 52.50300 90.31439
#
# Poissons Ratio (x) = 0.36344 0.35472
# Poissons Ratio (y) = 0.36346 0.35472
# Poissons Ratio (z) = 0.20622 0.20621
#
# Static dielectric constant tensor:
#      x y z
#    x 1.410280 0.000000 0.000000 
#    y 0.000000 1.410220 0.000000 
#    z 0.000000 0.000000 1.618810 
# 
# From -- ./inp_files/2898.got.cif
#   From: 2010.05.17/outbox.cif.g08.bks.cpg/sg119_2_cif.got.tgz:2898.got - 2010.05.20 11:21:29.
