data_PCOD9559697
_publ_section_title
;
Structure prediction by ZEFSAII (Michael W. Deem and Ramdas Pophale) SiO2 
 PCOD9559697
Probable space group: I -4 C 2
;
_chemical_formula_sum "Si O2"
_cell_formula_units_Z 60
_cell_length_a 13.270278
_cell_length_b 13.270278
_cell_length_c 14.523632
_cell_angle_alpha 90.000000
_cell_angle_beta 90.000000
_cell_angle_gamma 90.000000
_cell_volume 2557.615636
_symmetry_space_group_name_H-M "I -4 C 2"
_symmetry_group_IT_number 120
_symmetry_cell_setting 'tetragonal'
loop_
_space_group_symop_operation_xyz
x,y,z
y,-x,-z
-x,-y,z
-y,x,-z
y,x,1/2-z
-y,-x,1/2-z
-x,y,1/2+z
x,-y,1/2+z
1/2+x,1/2+y,1/2+z
1/2+y,1/2-x,1/2-z
1/2-x,1/2-y,1/2+z
1/2-y,1/2+x,1/2-z
1/2+y,1/2+x,-z
1/2-y,1/2-x,-z
1/2-x,1/2+y,z
1/2+x,1/2-y,z
loop_
_atom_site_type_symbol
_atom_site_label
_atom_site_fract_x
_atom_site_fract_y
_atom_site_fract_z
Si Si1 0.266053 0.733948 0.750000
Si Si2 0.039289 0.692629 0.466944
Si Si3 0.500000 0.500000 0.000000
Si Si4 0.897473 0.403719 0.716585
Si Si5 0.321611 0.625073 0.938053
O O1 0.152638 0.704604 0.726014
O O2 0.289937 0.664164 0.838075
O O3 0.087652 0.587652 0.500000
O O4 0.039454 0.672430 0.357862
O O5 0.124396 0.778668 0.486466
O O6 0.934499 0.734243 0.506734
O O7 0.546059 0.586765 0.063550
O O8 0.892983 0.483536 0.801063
#
# Coordination Sequence:
#
# PCOD9559697 Si02
#       5
#     8  16   4  16  16
#     4  10  20  37  60  85 116 156 204 254 310 378
#     4  10  20  36  59  85 117 157 202 255 312 373
#     4   8  16  34  52  76 116 146 188 252 308 366
#     4  10  22  40  59  86 124 162 206 259 316 379
#     4   9  19  34  55  84 114 150 197 252 311 373
#
# _framework density 23.459350000000001
#
# number of rings (size 3 to 8) (size 9 to 14) (size 15 to 20)
#    0.000    2.400    0.000    1.600    0.000    4.800 
#    0.000   13.333    0.000    0.000    0.000    0.000 
#    0.000    0.000    0.000    0.000    0.000    0.000 
#
# Total GULP energy -167121.634470 kJ/mol
# GULP energy per Si atom -5570.721149 kJ/mol
# Density = 2.340596 g / cm^3
# Si number density = 23.459350 Si / 1000 Ang^3
#
#
#
# Elastic Constant Matrix: (Units=GPa)
#
#
# Indices 1 2 3 4 5 6 
#
# 1 100.0525 60.6196 6.5042 0.0000 0.0000 0.0000
# 2 60.6196 100.0539 6.5042 0.0000 0.0000 0.0000
# 3 6.5042 6.5042 41.0790 0.0000 0.0000 0.0000
# 4 0.0000 0.0000 0.0000 22.3341 0.0000 0.0000
# 5 0.0000 0.0000 0.0000 0.0000 22.3336 0.0000
# 6 0.0000 0.0000 0.0000 0.0000 0.0000 60.5597
#
#
#
# Elastic Compliance Matrix: (Units=1/GPa)
#
#
# Indices 1 2 3 4 5 6 
#
# 1 0.015832 -0.009527 -0.000998 0.000000 0.000000 0.000000
# 2 -0.009527 0.015832 -0.000998 0.000000 0.000000 0.000000
# 3 -0.000998 -0.000998 0.024659 0.000000 0.000000 0.000000
# 4 0.000000 0.000000 0.000000 0.044775 0.000000 0.000000
# 5 0.000000 0.000000 0.000000 0.000000 0.044776 0.000000
# 6 0.000000 0.000000 0.000000 0.000000 0.000000 0.016513
#
#
# Mechanical properties :
#
#
# Convention : Reuss Voigt Hill
#
# Bulk Modulus (GPa) = 30.05190 43.16017 36.60604
# Shear Modulus (GPa) = 25.44202 32.21598 28.82900
#
# Velocity S-wave (km/s) = 3.29677 3.70978 3.50936
# Velocity P-wave (km/s) = 5.22777 6.06529 5.66204
#
# Compressibility (1/GPa) = 0.03327576
#
# Stress axis : x y z
#
# Youngs Moduli (GPa) = 63.16322 63.16414 40.55243
#
# Poissons Ratio (x) = 0.60178 0.04048
# Poissons Ratio (y) = 0.60177 0.04048
# Poissons Ratio (z) = 0.06305 0.06305
#
# Static dielectric constant tensor:
#      x y z
#    x 1.909850 0.000000 0.000000 
#    y 0.000000 1.909850 0.000000 
#    z 0.000000 0.000000 2.053230 
# 
# From -- ./inp_files/3326.got.cif
#   From: 2010.05.17/outbox.cif.g08.bks.cpg/sg120_2_cif.got.tgz:3326.got - 2010.05.20 11:28:13.
