data_PCOD9559779
_publ_section_title
;
Structure prediction by ZEFSAII (Michael W. Deem and Ramdas Pophale) SiO2 
 PCOD9559779
Probable space group: I -4 C 2
;
_chemical_formula_sum "Si O2"
_cell_formula_units_Z 96
_cell_length_a 16.504534
_cell_length_b 16.504534
_cell_length_c 16.718592
_cell_angle_alpha 90.000000
_cell_angle_beta 90.000000
_cell_angle_gamma 90.000000
_cell_volume 4554.138485
_symmetry_space_group_name_H-M "I -4 C 2"
_symmetry_group_IT_number 120
_symmetry_cell_setting 'tetragonal'
loop_
_space_group_symop_operation_xyz
x,y,z
y,-x,-z
-x,-y,z
-y,x,-z
y,x,1/2-z
-y,-x,1/2-z
-x,y,1/2+z
x,-y,1/2+z
1/2+x,1/2+y,1/2+z
1/2+y,1/2-x,1/2-z
1/2-x,1/2-y,1/2+z
1/2-y,1/2+x,1/2-z
1/2+y,1/2+x,-z
1/2-y,1/2-x,-z
1/2-x,1/2+y,z
1/2+x,1/2-y,z
loop_
_atom_site_type_symbol
_atom_site_label
_atom_site_fract_x
_atom_site_fract_y
_atom_site_fract_z
Si Si1 0.336915 0.353238 0.655846
Si Si2 0.205620 0.457264 0.998758
Si Si3 0.573091 0.112375 0.732656
Si Si4 0.113723 0.020302 0.465185
Si Si5 0.331645 0.888383 0.579725
Si Si6 0.831297 0.664680 0.121022
O O1 0.355026 0.355026 0.750000
O O2 0.414309 0.386309 0.606752
O O3 0.253430 0.393951 0.627021
O O4 0.319699 0.259267 0.634136
O O5 0.152243 0.521950 0.045420
O O6 0.224218 0.381158 0.057080
O O7 0.291822 0.495926 0.978636
O O8 0.161732 0.419277 0.922393
O O9 0.478081 0.107732 0.750454
O O10 0.600580 0.136081 0.643765
O O11 0.617236 0.169499 0.796392
O O12 0.065116 0.066431 0.537089
O O13 0.332878 0.832878 0.500000
#
# Coordination Sequence:
#
# PCOD9559779 Si02
#       6
#    16  16  16  16  16  16
#     4  11  23  40  64  89 125 164 204 255 316 364
#     4  10  21  39  63  88 122 163 202 255 310 370
#     4  11  22  39  59  87 126 161 200 250 305 365
#     4  10  21  39  65  90 120 159 208 258 311 372
#     4  12  24  39  62  93 123 160 210 253 306 375
#     4  10  21  38  61  89 121 162 204 249 307 368
#
# _framework density 21.079730000000001
#
# number of rings (size 3 to 8) (size 9 to 14) (size 15 to 20)
#    0.000    1.333    5.000    1.000    4.667    0.000 
#    0.000    1.667    3.667    0.000    0.000    0.000 
#    0.000    0.000    0.000    0.000    0.000    0.000 
#
# Total GULP energy -267749.344143 kJ/mol
# GULP energy per Si atom -5578.111336 kJ/mol
# Density = 2.103175 g / cm^3
# Si number density = 21.079730 Si / 1000 Ang^3
#
#
#
# Elastic Constant Matrix: (Units=GPa)
#
#
# Indices 1 2 3 4 5 6 
#
# 1 39.5653 -13.5823 8.9319 0.0000 0.0000 0.0000
# 2 -13.5823 39.5653 8.9319 0.0000 0.0000 0.0000
# 3 8.9319 8.9319 115.8492 0.0000 0.0000 0.0000
# 4 0.0000 0.0000 0.0000 25.7552 0.0000 0.0000
# 5 0.0000 0.0000 0.0000 0.0000 25.7552 0.0000
# 6 0.0000 0.0000 0.0000 0.0000 0.0000 21.8006
#
#
#
# Elastic Compliance Matrix: (Units=1/GPa)
#
#
# Indices 1 2 3 4 5 6 
#
# 1 0.029728 0.010913 -0.003133 0.000000 0.000000 0.000000
# 2 0.010913 0.029728 -0.003133 0.000000 0.000000 0.000000
# 3 -0.003133 -0.003133 0.009115 0.000000 0.000000 0.000000
# 4 0.000000 0.000000 0.000000 0.038827 0.000000 0.000000
# 5 0.000000 0.000000 0.000000 0.000000 0.038827 0.000000
# 6 0.000000 0.000000 0.000000 0.000000 0.000000 0.045870
#
#
# Mechanical properties :
#
#
# Convention : Reuss Voigt Hill
#
# Bulk Modulus (GPa) = 12.84300 22.61588 17.72944
# Shear Modulus (GPa) = 23.95112 27.37544 25.66328
#
# Velocity S-wave (km/s) = 3.37444 3.60760 3.49297
# Velocity P-wave (km/s) = 4.61392 5.30142 4.96957
#
# Compressibility (1/GPa) = 0.07786343
#
# Stress axis : x y z
#
# Youngs Moduli (GPa) = 33.63804 33.63803 109.70838
#
# Poissons Ratio (x) = -0.36708 0.34376
# Poissons Ratio (y) = -0.36708 0.34376
# Poissons Ratio (z) = 0.10540 0.10540
#
# Static dielectric constant tensor:
#      x y z
#    x 1.756570 0.000000 0.000000 
#    y 0.000000 1.756570 0.000000 
#    z 0.000000 0.000000 1.766550 
# 
# From -- ./inp_files/4456.got.cif
#   From: 2010.05.17/outbox.cif.g08.bks.cpg/sg120_3_cif.got.tgz:4456.got - 2010.05.20 11:28:13.
