data_PCOD9559267
_publ_section_title
;
Structure prediction by ZEFSAII (Michael W. Deem and Ramdas Pophale) SiO2 
 PCOD9559267
Probable space group: I -4 M 2
;
_chemical_formula_sum "Si O2"
_cell_formula_units_Z 80
_cell_length_a 13.304869
_cell_length_b 13.304869
_cell_length_c 27.536561
_cell_angle_alpha 90.000000
_cell_angle_beta 90.000000
_cell_angle_gamma 90.000000
_cell_volume 4874.509337
_symmetry_space_group_name_H-M "I -4 M 2"
_symmetry_group_IT_number 119
_symmetry_cell_setting 'tetragonal'
loop_
_space_group_symop_operation_xyz
x,y,z
y,-x,-z
-x,-y,z
-y,x,-z
y,x,-z
-y,-x,-z
-x,y,z
x,-y,z
1/2+x,1/2+y,1/2+z
1/2+y,1/2-x,1/2-z
1/2-x,1/2-y,1/2+z
1/2-y,1/2+x,1/2-z
1/2+y,1/2+x,1/2-z
1/2-y,1/2-x,1/2-z
1/2-x,1/2+y,1/2+z
1/2+x,1/2-y,1/2+z
loop_
_atom_site_type_symbol
_atom_site_label
_atom_site_fract_x
_atom_site_fract_y
_atom_site_fract_z
Si Si1 0.209194 0.388615 0.295962
Si Si2 0.616839 0.769847 0.520991
Si Si3 0.500000 0.617145 0.747767
Si Si4 0.802715 0.243137 0.387074
Si Si5 0.885835 0.380923 0.920332
Si Si6 0.500000 0.618728 0.864741
O O1 0.177698 0.500000 0.313348
O O2 0.143516 0.356485 0.250000
O O3 0.322245 0.406425 0.275519
O O4 0.201429 0.308912 0.338395
O O5 0.668795 0.668795 0.500000
O O6 0.500000 0.754792 0.533386
O O7 0.681761 0.804428 0.566969
O O8 0.623296 0.849228 0.476886
O O9 0.500000 0.500000 0.736308
O O10 0.500000 0.629838 0.805925
O O11 0.701681 0.177383 0.392424
O O12 0.900571 0.172742 0.385005
O O13 0.874434 0.500000 0.914997
O O14 0.000000 0.352772 0.905287
O O15 0.500000 0.500000 0.875681
#
# Coordination Sequence:
#
# PCOD9559267 Si02
#       6
#    16  16   8  16  16   8
#     4  10  20  36  53  81 112 144 180 221 275 330
#     4   9  19  34  54  79 109 142 178 223 272 332
#     4   9  20  38  56  76 110 150 182 222 280 335
#     4  11  20  35  56  82 110 142 189 228 279 334
#     4   9  19  36  56  76 103 141 181 227 279 329
#     4  11  22  36  54  80 112 150 188 230 284 337
#
# _framework density 16.411909000000001
#
# number of rings (size 3 to 8) (size 9 to 14) (size 15 to 20)
#    0.600    1.600    2.000    1.200    1.400    1.200 
#    0.000    1.000    0.000    0.000    0.000    1.400 
#    0.000    0.000    0.000    0.000    0.000    0.000 
#
# Total GULP energy -222851.159761 kJ/mol
# GULP energy per Si atom -5571.278994 kJ/mol
# Density = 1.637455 g / cm^3
# Si number density = 16.411909 Si / 1000 Ang^3
#
#
#
# Elastic Constant Matrix: (Units=GPa)
#
#
# Indices 1 2 3 4 5 6 
#
# 1 128.9788 81.9454 55.6834 0.0000 0.0000 0.0000
# 2 81.9454 128.9771 55.6823 0.0000 0.0000 0.0000
# 3 55.6834 55.6823 73.6904 0.0000 0.0000 0.0000
# 4 0.0000 0.0000 0.0000 15.0205 0.0000 0.0000
# 5 0.0000 0.0000 0.0000 0.0000 15.0212 0.0000
# 6 0.0000 0.0000 0.0000 0.0000 0.0000 26.0247
#
#
#
# Elastic Compliance Matrix: (Units=1/GPa)
#
#
# Indices 1 2 3 4 5 6 
#
# 1 0.014575 -0.006687 -0.005961 0.000000 0.000000 0.000000
# 2 -0.006687 0.014575 -0.005960 0.000000 0.000000 0.000000
# 3 -0.005961 -0.005960 0.022578 0.000000 0.000000 0.000000
# 4 0.000000 0.000000 0.000000 0.066575 0.000000 0.000000
# 5 0.000000 0.000000 0.000000 0.000000 0.066573 0.000000
# 6 0.000000 0.000000 0.000000 0.000000 0.000000 0.038425
#
#
# Mechanical properties :
#
#
# Convention : Reuss Voigt Hill
#
# Bulk Modulus (GPa) = 68.90670 79.80763 74.35716
# Shear Modulus (GPa) = 18.84268 20.43562 19.63915
#
# Velocity S-wave (km/s) = 3.39205 3.53253 3.46300
# Velocity P-wave (km/s) = 7.57749 8.08528 7.83550
#
# Compressibility (1/GPa) = 0.01451238
#
# Stress axis : x y z
#
# Youngs Moduli (GPa) = 68.61054 68.61046 44.29036
#
# Poissons Ratio (x) = 0.45879 0.26400
# Poissons Ratio (y) = 0.45879 0.26399
# Poissons Ratio (z) = 0.40897 0.40895
#
# Static dielectric constant tensor:
#      x y z
#    x 1.543830 0.000000 0.000000 
#    y 0.000000 1.543830 0.000000 
#    z 0.000000 0.000000 1.526550 
# 
# From -- ./inp_files/10190.got.cif
#   From: 2010.05.17/outbox.cif.g08.bks.cpg/sg119_6_cif.got.tgz:10190.got - 2010.05.20 11:21:29.
