data_PCOD9559843
_publ_section_title
;
Structure prediction by ZEFSAII (Michael W. Deem and Ramdas Pophale) SiO2 
 PCOD9559843
Probable space group: I -4 C 2
;
_chemical_formula_sum "Si O2"
_cell_formula_units_Z 112
_cell_length_a 15.064161
_cell_length_b 15.064161
_cell_length_c 24.579206
_cell_angle_alpha 90.000000
_cell_angle_beta 90.000000
_cell_angle_gamma 90.000000
_cell_volume 5577.733327
_symmetry_space_group_name_H-M "I -4 C 2"
_symmetry_group_IT_number 120
_symmetry_cell_setting 'tetragonal'
loop_
_space_group_symop_operation_xyz
x,y,z
y,-x,-z
-x,-y,z
-y,x,-z
y,x,1/2-z
-y,-x,1/2-z
-x,y,1/2+z
x,-y,1/2+z
1/2+x,1/2+y,1/2+z
1/2+y,1/2-x,1/2-z
1/2-x,1/2-y,1/2+z
1/2-y,1/2+x,1/2-z
1/2+y,1/2+x,-z
1/2-y,1/2-x,-z
1/2-x,1/2+y,z
1/2+x,1/2-y,z
loop_
_atom_site_type_symbol
_atom_site_label
_atom_site_fract_x
_atom_site_fract_y
_atom_site_fract_z
Si Si1 0.863868 0.752996 0.409513
Si Si2 0.444836 0.081431 0.856269
Si Si3 0.558778 0.245700 0.694389
Si Si4 0.677200 0.686914 0.394555
Si Si5 0.196655 0.865333 0.809034
Si Si6 0.626785 0.430599 0.994752
Si Si7 0.697614 0.097772 0.186716
O O1 0.907257 0.657648 0.396116
O O2 0.758749 0.740283 0.421286
O O3 0.859179 0.812555 0.354557
O O4 0.911211 0.800522 0.459394
O O5 0.357968 0.049333 0.823086
O O6 0.518079 0.127608 0.817787
O O7 0.500000 0.000000 0.882155
O O8 0.639021 0.282015 0.658405
O O9 0.470405 0.300614 0.681673
O O10 0.579919 0.250599 0.758070
O O11 0.648145 0.615616 0.438030
O O12 0.599494 0.746822 0.369517
O O13 0.159687 0.840314 0.750000
O O14 0.301477 0.838982 0.810148
O O15 0.534266 0.388457 0.014326
#
# Coordination Sequence:
#
# PCOD9559843 Si02
#       7
#    16  16  16  16  16  16  16
#     4  10  22  40  62  87 125 164 207 264 326 382
#     4  11  22  36  60  95 126 162 205 263 313 382
#     4  11  21  36  58  89 126 165 209 251 313 381
#     4  10  22  39  63  85 120 165 204 263 320 384
#     4  11  21  36  55  86 127 170 207 252 316 384
#     4  11  23  41  65  89 114 158 219 270 318 382
#     4  11  20  35  57  90 128 161 210 251 319 381
#
# _framework density 20.079841999999999
#
# number of rings (size 3 to 8) (size 9 to 14) (size 15 to 20)
#    0.000    1.286    1.429    6.857    0.000    0.000 
#    0.000    0.000    0.000    6.000    0.000    0.000 
#    0.000    0.000    0.000    0.000    0.000    0.000 
#
# Total GULP energy -312758.559504 kJ/mol
# GULP energy per Si atom -5584.974277 kJ/mol
# Density = 2.003414 g / cm^3
# Si number density = 20.079842 Si / 1000 Ang^3
#
#
#
# Elastic Constant Matrix: (Units=GPa)
#
#
# Indices 1 2 3 4 5 6 
#
# 1 63.9978 25.6980 17.5785 0.0000 0.0000 0.0000
# 2 25.6980 63.9986 17.5781 0.0000 0.0000 0.0000
# 3 17.5785 17.5781 63.1231 0.0000 0.0000 0.0000
# 4 0.0000 0.0000 0.0000 10.9338 0.0000 0.0000
# 5 0.0000 0.0000 0.0000 0.0000 10.9341 0.0000
# 6 0.0000 0.0000 0.0000 0.0000 0.0000 33.8074
#
#
#
# Elastic Compliance Matrix: (Units=1/GPa)
#
#
# Indices 1 2 3 4 5 6 
#
# 1 0.019312 -0.006797 -0.003485 0.000000 0.000000 0.000000
# 2 -0.006797 0.019312 -0.003485 0.000000 0.000000 0.000000
# 3 -0.003485 -0.003485 0.017783 0.000000 0.000000 0.000000
# 4 0.000000 0.000000 0.000000 0.091459 0.000000 0.000000
# 5 0.000000 0.000000 0.000000 0.000000 0.091457 0.000000
# 6 0.000000 0.000000 0.000000 0.000000 0.000000 0.029579
#
#
# Mechanical properties :
#
#
# Convention : Reuss Voigt Hill
#
# Bulk Modulus (GPa) = 34.63530 34.75876 34.69703
# Shear Modulus (GPa) = 16.33655 19.81938 18.07796
#
# Velocity S-wave (km/s) = 2.85543 3.14511 3.00376
# Velocity P-wave (km/s) = 5.30637 5.52601 5.41730
#
# Compressibility (1/GPa) = 0.02887228
#
# Stress axis : x y z
#
# Youngs Moduli (GPa) = 51.78052 51.78143 56.23325
#
# Poissons Ratio (x) = 0.35198 0.19598
# Poissons Ratio (y) = 0.35197 0.19597
# Poissons Ratio (z) = 0.18046 0.18045
#
# Static dielectric constant tensor:
#      x y z
#    x 1.736950 0.000000 0.000000 
#    y 0.000000 1.736950 0.000000 
#    z 0.000000 0.000000 1.673760 
# 
# From -- ./inp_files/5940.got.cif
#   From: 2010.05.17/outbox.cif.g08.bks.cpg/sg120_3_cif.got.tgz:5940.got - 2010.05.20 11:28:13.
