data_PCOD9559310
_publ_section_title
;
Structure prediction by ZEFSAII (Michael W. Deem and Ramdas Pophale) SiO2 
 PCOD9559310
Probable space group: I -4 M 2
;
_chemical_formula_sum "Si O2"
_cell_formula_units_Z 96
_cell_length_a 14.261538
_cell_length_b 14.261538
_cell_length_c 21.585084
_cell_angle_alpha 90.000000
_cell_angle_beta 90.000000
_cell_angle_gamma 90.000000
_cell_volume 4390.221881
_symmetry_space_group_name_H-M "I -4 M 2"
_symmetry_group_IT_number 119
_symmetry_cell_setting 'tetragonal'
loop_
_space_group_symop_operation_xyz
x,y,z
y,-x,-z
-x,-y,z
-y,x,-z
y,x,-z
-y,-x,-z
-x,y,z
x,-y,z
1/2+x,1/2+y,1/2+z
1/2+y,1/2-x,1/2-z
1/2-x,1/2-y,1/2+z
1/2-y,1/2+x,1/2-z
1/2+y,1/2+x,1/2-z
1/2-y,1/2-x,1/2-z
1/2-x,1/2+y,1/2+z
1/2+x,1/2-y,1/2+z
loop_
_atom_site_type_symbol
_atom_site_label
_atom_site_fract_x
_atom_site_fract_y
_atom_site_fract_z
Si Si1 0.665945 0.397047 0.597806
Si Si2 0.305398 0.606313 0.939579
Si Si3 0.755596 0.106443 0.233100
Si Si4 0.151773 0.605376 0.523130
Si Si5 0.285605 0.612162 0.178402
Si Si6 0.896103 0.310707 0.118158
O O1 0.618052 0.500000 0.595662
O O2 0.729867 0.396995 0.659671
O O3 0.738199 0.392072 0.541014
O O4 0.609813 0.300894 0.604701
O O5 0.338141 0.500000 0.944746
O O6 0.192357 0.608619 0.940257
O O7 0.350194 0.654359 0.879982
O O8 0.336796 0.663205 0.000000
O O9 0.662033 0.162033 0.250000
O O10 0.841378 0.164696 0.262588
O O11 0.756033 0.000000 0.257099
O O12 0.118509 0.500000 0.538476
O O13 0.141579 0.619347 0.449318
O O14 0.284026 0.500000 0.181163
O O15 0.183049 0.654435 0.164897
O O16 0.000000 0.333734 0.140387
#
# Coordination Sequence:
#
# PCOD9559310 Si02
#       6
#    16  16  16  16  16  16
#     4  10  20  38  65  95 129 168 215 270 333 404
#     4  12  23  38  61  90 127 171 219 273 330 391
#     4  11  23  43  70 100 134 175 220 272 335 397
#     4  10  20  38  66  96 130 170 214 271 343 411
#     4  12  26  45  66  93 135 181 228 282 334 396
#     4  11  22  39  66  95 130 175 220 274 341 407
#
# _framework density 21.866776999999999
#
# number of rings (size 3 to 8) (size 9 to 14) (size 15 to 20)
#    0.000    1.000    5.000    1.500    0.000    4.000 
#    0.000    3.333    0.000    8.000    0.000    0.000 
#    0.000    0.000    0.000    0.000    0.000    0.000 
#
# Total GULP energy -268386.656593 kJ/mol
# GULP energy per Si atom -5591.388679 kJ/mol
# Density = 2.181701 g / cm^3
# Si number density = 21.866777 Si / 1000 Ang^3
#
#
#
# Elastic Constant Matrix: (Units=GPa)
#
#
# Indices 1 2 3 4 5 6 
#
# 1 146.5386 39.2033 17.8044 0.0000 0.0000 0.0000
# 2 39.2033 146.5376 17.8045 0.0000 0.0000 0.0000
# 3 17.8044 17.8045 62.4948 0.0000 0.0000 0.0000
# 4 0.0000 0.0000 0.0000 10.0340 0.0000 0.0000
# 5 0.0000 0.0000 0.0000 0.0000 10.0343 0.0000
# 6 0.0000 0.0000 0.0000 0.0000 0.0000 -14.6403
#
#
#
# Elastic Compliance Matrix: (Units=1/GPa)
#
#
# Indices 1 2 3 4 5 6 
#
# 1 0.007506 -0.001811 -0.001622 0.000000 0.000000 0.000000
# 2 -0.001811 0.007506 -0.001622 0.000000 0.000000 0.000000
# 3 -0.001622 -0.001622 0.016926 0.000000 0.000000 0.000000
# 4 0.000000 0.000000 0.000000 0.099661 0.000000 0.000000
# 5 0.000000 0.000000 0.000000 0.000000 0.099658 0.000000
# 6 0.000000 0.000000 0.000000 0.000000 0.000000 -0.068305
#
#
# Mechanical properties :
#
#
# Convention : Reuss Voigt Hill
#
# Bulk Modulus (GPa) = 45.81741 56.13283 50.97512
# Shear Modulus (GPa) = 27.72558 19.80285 23.76421
#
# Velocity S-wave (km/s) = 3.56467 3.01261 3.30020
# Velocity P-wave (km/s) = 6.15962 6.15038 6.15500
#
# Compressibility (1/GPa) = 0.02182576
#
# Stress axis : x y z
#
# Youngs Moduli (GPa) = 133.23151 133.23057 59.08144
#
# Poissons Ratio (x) = 0.24127 0.09586
# Poissons Ratio (y) = 0.24127 0.09586
# Poissons Ratio (z) = 0.21616 0.21616
#
# Static dielectric constant tensor:
#      x y z
#    x 1.801620 0.000000 0.000000 
#    y 0.000000 1.801620 0.000000 
#    z 0.000000 0.000000 1.790810 
# 
# From -- ./inp_files/7820.got.cif
#   From: 2010.05.17/outbox.cif.g08.bks.cpg/sg119_4_cif.got.tgz:7820.got - 2010.05.20 11:21:29.
