data_PCOD9559048
_publ_section_title
;
Structure prediction by ZEFSAII (Michael W. Deem and Ramdas Pophale) SiO2 
 PCOD9559048
Probable space group: I -4 M 2
;
_chemical_formula_sum "Si O2"
_cell_formula_units_Z 88
_cell_length_a 14.407080
_cell_length_b 14.407080
_cell_length_c 26.724023
_cell_angle_alpha 90.000000
_cell_angle_beta 90.000000
_cell_angle_gamma 90.000000
_cell_volume 5546.943884
_symmetry_space_group_name_H-M "I -4 M 2"
_symmetry_group_IT_number 119
_symmetry_cell_setting 'tetragonal'
loop_
_space_group_symop_operation_xyz
x,y,z
y,-x,-z
-x,-y,z
-y,x,-z
y,x,-z
-y,-x,-z
-x,y,z
x,-y,z
1/2+x,1/2+y,1/2+z
1/2+y,1/2-x,1/2-z
1/2-x,1/2-y,1/2+z
1/2-y,1/2+x,1/2-z
1/2+y,1/2+x,1/2-z
1/2-y,1/2-x,1/2-z
1/2-x,1/2+y,1/2+z
1/2+x,1/2-y,1/2+z
loop_
_atom_site_type_symbol
_atom_site_label
_atom_site_fract_x
_atom_site_fract_y
_atom_site_fract_z
Si Si1 0.392187 0.888746 0.974755
Si Si2 0.892703 0.391003 0.190246
Si Si3 0.722067 0.894932 0.071863
Si Si4 0.296326 0.232038 0.889706
Si Si5 0.611738 0.394011 0.944176
Si Si6 0.101302 0.101302 0.000000
O O1 0.500000 0.861304 0.967387
O O2 0.325901 0.835535 0.936033
O O3 0.384901 0.000000 0.966685
O O4 0.358752 0.871891 0.031650
O O5 0.879361 0.500000 0.177373
O O6 0.882001 0.382001 0.250000
O O7 0.821257 0.329975 0.159245
O O8 0.000000 0.367987 0.177687
O O9 0.739393 0.811332 0.109695
O O10 0.815320 0.895300 0.038481
O O11 0.707532 0.000000 0.091087
O O12 0.351817 0.325741 0.902188
O O13 0.500000 0.394479 0.944739
O O14 0.643450 0.500000 0.937705
O O15 0.639889 0.360111 0.000000
O O16 0.000000 0.106927 0.025436
#
# Coordination Sequence:
#
# PCOD9559048 Si02
#       6
#    16  16  16  16  16   8
#     4  10  19  29  43  67  97 124 152 191 234 273
#     4   9  19  35  53  74  97 116 140 185 243 291
#     4  10  20  31  41  63  96 127 158 190 225 267
#     4  12  19  28  49  70  87 123 164 196 225 275
#     4   9  18  30  43  65  99 131 158 190 228 275
#     4   9  16  28  42  54  80 121 156 182 212 255
#
# _framework density 15.864592
#
# number of rings (size 3 to 8) (size 9 to 14) (size 15 to 20)
#    0.000    2.091    1.818    4.364    0.000    4.364 
#    0.000    0.000    0.000    1.091    0.000    2.545 
#    0.000    0.000    0.000    1.636    0.000    0.182 
#
# Total GULP energy -245379.037438 kJ/mol
# GULP energy per Si atom -5576.796305 kJ/mol
# Density = 1.582848 g / cm^3
# Si number density = 15.864592 Si / 1000 Ang^3
#
#
#
# Elastic Constant Matrix: (Units=GPa)
#
#
# Indices 1 2 3 4 5 6 
#
# 1 73.6889 17.3419 24.8676 0.0000 0.0000 0.0000
# 2 17.3419 73.6884 24.8675 0.0000 0.0000 0.0000
# 3 24.8676 24.8675 38.9854 0.0000 0.0000 0.0000
# 4 0.0000 0.0000 0.0000 21.5837 0.0000 0.0000
# 5 0.0000 0.0000 0.0000 0.0000 21.5838 0.0000
# 6 0.0000 0.0000 0.0000 0.0000 0.0000 21.4947
#
#
#
# Elastic Compliance Matrix: (Units=1/GPa)
#
#
# Indices 1 2 3 4 5 6 
#
# 1 0.017304 -0.000443 -0.010756 0.000000 0.000000 0.000000
# 2 -0.000443 0.017305 -0.010756 0.000000 0.000000 0.000000
# 3 -0.010756 -0.010756 0.039372 0.000000 0.000000 0.000000
# 4 0.000000 0.000000 0.000000 0.046331 0.000000 0.000000
# 5 0.000000 0.000000 0.000000 0.000000 0.046331 0.000000
# 6 0.000000 0.000000 0.000000 0.000000 0.000000 0.046523
#
#
# Mechanical properties :
#
#
# Convention : Reuss Voigt Hill
#
# Bulk Modulus (GPa) = 33.25234 35.61298 34.43266
# Shear Modulus (GPa) = 18.71970 20.88482 19.80226
#
# Velocity S-wave (km/s) = 3.43879 3.63222 3.53683
# Velocity P-wave (km/s) = 6.06405 6.33147 6.19920
#
# Compressibility (1/GPa) = 0.03007307
#
# Stress axis : x y z
#
# Youngs Moduli (GPa) = 57.78869 57.78834 25.39883
#
# Poissons Ratio (x) = 0.02559 0.27318
# Poissons Ratio (y) = 0.02559 0.27318
# Poissons Ratio (z) = 0.62155 0.62155
#
# Static dielectric constant tensor:
#      x y z
#    x 1.563620 0.000000 0.000000 
#    y 0.000000 1.563620 0.000000 
#    z 0.000000 0.000000 1.503710 
# 
# From -- ./inp_files/8697.got.cif
#   From: 2010.05.17/outbox.cif.g08.bks.cpg/sg119_5_cif.got.tgz:8697.got - 2010.05.20 11:21:29.
