data_PCOD9559450
_publ_section_title
;
Structure prediction by ZEFSAII (Michael W. Deem and Ramdas Pophale) SiO2 
 PCOD9559450
Probable space group: I -4 M 2
;
_chemical_formula_sum "Si O2"
_cell_formula_units_Z 60
_cell_length_a 12.288218
_cell_length_b 12.288218
_cell_length_c 24.096472
_cell_angle_alpha 90.000000
_cell_angle_beta 90.000000
_cell_angle_gamma 90.000000
_cell_volume 3638.574540
_symmetry_space_group_name_H-M "I -4 M 2"
_symmetry_group_IT_number 119
_symmetry_cell_setting 'tetragonal'
loop_
_space_group_symop_operation_xyz
x,y,z
y,-x,-z
-x,-y,z
-y,x,-z
y,x,-z
-y,-x,-z
-x,y,z
x,-y,z
1/2+x,1/2+y,1/2+z
1/2+y,1/2-x,1/2-z
1/2-x,1/2-y,1/2+z
1/2-y,1/2+x,1/2-z
1/2+y,1/2+x,1/2-z
1/2-y,1/2-x,1/2-z
1/2-x,1/2+y,1/2+z
1/2+x,1/2-y,1/2+z
loop_
_atom_site_type_symbol
_atom_site_label
_atom_site_fract_x
_atom_site_fract_y
_atom_site_fract_z
Si Si1 0.759065 0.000000 0.873214
Si Si2 0.000000 0.240935 0.373213
Si Si3 0.128025 0.806213 0.937752
Si Si4 0.684794 0.000000 0.750000
Si Si5 0.000000 0.500000 0.101802
Si Si6 0.193788 0.128025 0.437752
O O1 0.820535 0.894413 0.896342
O O2 0.751238 0.000000 0.806697
O O3 0.634724 0.000000 0.894973
O O4 0.000000 0.248763 0.306697
O O5 0.894413 0.179465 0.396342
O O6 0.000000 0.365276 0.394973
O O7 0.193947 0.693947 0.932510
O O8 0.000000 0.793465 0.929145
O O9 0.149549 0.850452 0.000000
O O10 0.603871 0.896130 0.750000
O O11 0.149548 0.149548 0.500000
O O12 0.206535 0.000000 0.429145
#
# Coordination Sequence:
#
# PCOD9559450 Si02
#       6
#     8   8  16   8   4  16
#     4  12  21  37  61  90 123 157 199 246 314 359
#     4  12  21  37  61  90 123 157 199 246 314 359
#     4  11  23  39  57  83 118 160 204 249 298 354
#     4  11  18  34  59  92 126 156 193 253 312 364
#     4  12  20  37  60  96 124 156 204 253 292 390
#     4  11  23  39  57  83 118 160 204 249 298 354
#
# _framework density 16.489974
#
# number of rings (size 3 to 8) (size 9 to 14) (size 15 to 20)
#    0.000    0.667    8.000    0.800    0.000    0.533 
#    0.000    2.667    0.000    0.000    0.000    0.000 
#    0.000    6.400    0.000    0.000    0.000    0.000 
#
# Total GULP energy -167092.084279 kJ/mol
# GULP energy per Si atom -5569.736143 kJ/mol
# Density = 1.645244 g / cm^3
# Si number density = 16.489974 Si / 1000 Ang^3
#
#
#
# Elastic Constant Matrix: (Units=GPa)
#
#
# Indices 1 2 3 4 5 6 
#
# 1 179.8713 87.6523 58.6772 0.0000 0.0000 0.0000
# 2 87.6523 179.8712 58.6771 0.0000 0.0000 0.0000
# 3 58.6772 58.6771 132.9280 0.0000 0.0000 0.0000
# 4 0.0000 0.0000 0.0000 17.3222 0.0000 0.0000
# 5 0.0000 0.0000 0.0000 0.0000 17.3238 0.0000
# 6 0.0000 0.0000 0.0000 0.0000 0.0000 14.8323
#
#
#
# Elastic Compliance Matrix: (Units=1/GPa)
#
#
# Indices 1 2 3 4 5 6 
#
# 1 0.007740 -0.003104 -0.002046 0.000000 0.000000 0.000000
# 2 -0.003104 0.007740 -0.002046 0.000000 0.000000 0.000000
# 3 -0.002046 -0.002046 0.009329 0.000000 0.000000 0.000000
# 4 0.000000 0.000000 0.000000 0.057729 0.000000 0.000000
# 5 0.000000 0.000000 0.000000 0.000000 0.057724 0.000000
# 6 0.000000 0.000000 0.000000 0.000000 0.000000 0.067421
#
#
# Mechanical properties :
#
#
# Convention : Reuss Voigt Hill
#
# Bulk Modulus (GPa) = 96.00987 100.29821 98.15404
# Shear Modulus (GPa) = 22.16825 29.07325 25.62075
#
# Velocity S-wave (km/s) = 3.67051 4.20347 3.94600
# Velocity P-wave (km/s) = 8.73574 9.19319 8.96738
#
# Compressibility (1/GPa) = 0.01041560
#
# Stress axis : x y z
#
# Youngs Moduli (GPa) = 129.20417 129.20416 107.18818
#
# Poissons Ratio (x) = 0.40106 0.21934
# Poissons Ratio (y) = 0.40106 0.21933
# Poissons Ratio (z) = 0.26439 0.26438
#
# Static dielectric constant tensor:
#      x y z
#    x 1.540310 0.000000 0.000000 
#    y 0.000000 1.540310 0.000000 
#    z 0.000000 0.000000 1.565970 
# 
# From -- ./inp_files/7432.got.cif
#   From: 2010.05.17/outbox.cif.g08.bks.cpg/sg119_4_cif.got.tgz:7432.got - 2010.05.20 11:21:29.
