data_PCOD9559523
_publ_section_title
;
Structure prediction by ZEFSAII (Michael W. Deem and Ramdas Pophale) SiO2 
 PCOD9559523
Probable space group: I -4 M 2
;
_chemical_formula_sum "Si O2"
_cell_formula_units_Z 54
_cell_length_a 10.745107
_cell_length_b 10.745107
_cell_length_c 22.415754
_cell_angle_alpha 90.000000
_cell_angle_beta 90.000000
_cell_angle_gamma 90.000000
_cell_volume 2588.062982
_symmetry_space_group_name_H-M "I -4 M 2"
_symmetry_group_IT_number 119
_symmetry_cell_setting 'tetragonal'
loop_
_space_group_symop_operation_xyz
x,y,z
y,-x,-z
-x,-y,z
-y,x,-z
y,x,-z
-y,-x,-z
-x,y,z
x,-y,z
1/2+x,1/2+y,1/2+z
1/2+y,1/2-x,1/2-z
1/2-x,1/2-y,1/2+z
1/2-y,1/2+x,1/2-z
1/2+y,1/2+x,1/2-z
1/2-y,1/2-x,1/2-z
1/2-x,1/2+y,1/2+z
1/2+x,1/2-y,1/2+z
loop_
_atom_site_type_symbol
_atom_site_label
_atom_site_fract_x
_atom_site_fract_y
_atom_site_fract_z
Si Si1 0.215538 0.500000 0.846929
Si Si2 0.259652 0.721578 0.375583
Si Si3 0.500000 0.853758 0.818281
Si Si4 0.000000 0.500000 0.750000
Si Si5 0.144412 0.144412 0.000000
Si Si6 0.806264 0.000000 0.791498
Si Si7 0.000000 0.000000 0.312247
O O1 0.190038 0.637211 0.873986
O O2 0.127493 0.500000 0.788487
O O3 0.366520 0.500000 0.843634
O O4 0.272308 0.674250 0.442821
O O5 0.326657 0.621662 0.331837
O O6 0.120648 0.708681 0.349329
O O7 0.500000 0.822501 0.746690
O O8 0.500000 0.000000 0.836303
O O9 0.000000 0.161109 0.982456
O O10 0.889754 0.000000 0.734357
#
# Coordination Sequence:
#
# PCOD9559523 Si02
#       7
#     8  16   8   2   8   8   4
#     4  12  26  45  65 103 149 188 233 287 362 432
#     4  12  26  43  70 103 140 190 236 302 357 425
#     4  12  24  41  73 110 144 185 241 303 361 435
#     4  12  28  44  60 104 148 192 224 276 366 444
#     4  11  26  50  72  99 132 184 256 305 356 426
#     4  12  24  40  69 106 139 185 239 290 364 421
#     4  12  24  40  66  98 142 184 230 278 358 440
#
# _framework density 20.865027000000001
#
# number of rings (size 3 to 8) (size 9 to 14) (size 15 to 20)
#    0.000    0.148    5.926    2.667    6.222    1.185 
#    0.000    1.481    0.000    1.778    0.000    0.000 
#    0.000    0.000    0.000    0.000    0.000    0.000 
#
# Total GULP energy -150511.846995 kJ/mol
# GULP energy per Si atom -5574.512852 kJ/mol
# Density = 2.081754 g / cm^3
# Si number density = 20.865027 Si / 1000 Ang^3
#
#
#
# Elastic Constant Matrix: (Units=GPa)
#
#
# Indices 1 2 3 4 5 6 
#
# 1 104.8848 -11.0004 15.2801 0.0000 0.0000 0.0000
# 2 -11.0004 104.8848 15.2801 0.0000 0.0000 0.0000
# 3 15.2801 15.2801 104.7317 0.0000 0.0000 0.0000
# 4 0.0000 0.0000 0.0000 19.4481 0.0000 0.0000
# 5 0.0000 0.0000 0.0000 0.0000 19.4481 0.0000
# 6 0.0000 0.0000 0.0000 0.0000 0.0000 -28.6944
#
#
#
# Elastic Compliance Matrix: (Units=1/GPa)
#
#
# Indices 1 2 3 4 5 6 
#
# 1 0.009906 0.001277 -0.001631 0.000000 0.000000 0.000000
# 2 0.001277 0.009906 -0.001631 0.000000 0.000000 0.000000
# 3 -0.001631 -0.001631 0.010024 0.000000 0.000000 0.000000
# 4 0.000000 0.000000 0.000000 0.051419 0.000000 0.000000
# 5 0.000000 0.000000 0.000000 0.000000 0.051419 0.000000
# 6 0.000000 0.000000 0.000000 0.000000 0.000000 -0.034850
#
#
# Mechanical properties :
#
#
# Convention : Reuss Voigt Hill
#
# Bulk Modulus (GPa) = 38.66496 39.29122 38.97809
# Shear Modulus (GPa) = 45.28273 21.70314 33.49293
#
# Velocity S-wave (km/s) = 4.66367 3.22866 4.01086
# Velocity P-wave (km/s) = 6.89717 5.72460 6.33806
#
# Compressibility (1/GPa) = 0.02586321
#
# Stress axis : x y z
#
# Youngs Moduli (GPa) = 100.95053 100.95053 99.75791
#
# Poissons Ratio (x) = -0.12887 0.16275
# Poissons Ratio (y) = -0.12887 0.16275
# Poissons Ratio (z) = 0.16470 0.16470
#
# Static dielectric constant tensor:
#      x y z
#    x 2.657580 0.000000 0.000000 
#    y 0.000000 2.657580 0.000000 
#    z 0.000000 0.000000 1.667650 
# 
# From -- ./inp_files/7368.got.cif
#   From: 2010.05.17/outbox.cif.g08.bks.cpg/sg119_4_cif.got.tgz:7368.got - 2010.05.20 11:21:29.
