data_PCOD9559823
_publ_section_title
;
Structure prediction by ZEFSAII (Michael W. Deem and Ramdas Pophale) SiO2 
 PCOD9559823
Probable space group: I -4 C 2
;
_chemical_formula_sum "Si O2"
_cell_formula_units_Z 72
_cell_length_a 13.821288
_cell_length_b 13.821288
_cell_length_c 19.079364
_cell_angle_alpha 90.000000
_cell_angle_beta 90.000000
_cell_angle_gamma 90.000000
_cell_volume 3644.692784
_symmetry_space_group_name_H-M "I -4 C 2"
_symmetry_group_IT_number 120
_symmetry_cell_setting 'tetragonal'
loop_
_space_group_symop_operation_xyz
x,y,z
y,-x,-z
-x,-y,z
-y,x,-z
y,x,1/2-z
-y,-x,1/2-z
-x,y,1/2+z
x,-y,1/2+z
1/2+x,1/2+y,1/2+z
1/2+y,1/2-x,1/2-z
1/2-x,1/2-y,1/2+z
1/2-y,1/2+x,1/2-z
1/2+y,1/2+x,-z
1/2-y,1/2-x,-z
1/2-x,1/2+y,z
1/2+x,1/2-y,z
loop_
_atom_site_type_symbol
_atom_site_label
_atom_site_fract_x
_atom_site_fract_y
_atom_site_fract_z
Si Si1 0.444811 0.682446 0.338189
Si Si2 0.500000 0.500000 0.750000
Si Si3 0.621294 0.595935 0.979565
Si Si4 0.500000 0.000000 0.250000
Si Si5 0.765192 0.765192 0.250000
Si Si6 0.171864 0.328137 0.000000
Si Si7 0.100553 0.659916 0.349988
O O1 0.498047 0.597657 0.295541
O O2 0.389299 0.628383 0.399867
O O3 0.366669 0.734977 0.290425
O O4 0.515365 0.764386 0.365908
O O5 0.626338 0.479832 0.984568
O O6 0.715001 0.648453 0.009571
O O7 0.574129 0.059661 0.199672
O O8 0.776893 0.679353 0.193875
O O9 0.124422 0.360063 0.074232
#
# Coordination Sequence:
#
# PCOD9559823 Si02
#       7
#    16   4  16   4   8   8  16
#     4  11  22  41  66 101 131 181 235 282 351 413
#     4  10  22  36  66 100 126 170 232 294 336 404
#     4  11  23  44  69  99 142 181 228 291 349 416
#     4  12  28  50  76 100 144 186 232 300 364 422
#     4  11  23  43  72  97 141 185 236 284 352 424
#     4  12  26  45  72 103 142 182 238 290 362 421
#     4  12  25  48  69 105 142 187 233 296 354 434
#
# _framework density 19.754753000000001
#
# number of rings (size 3 to 8) (size 9 to 14) (size 15 to 20)
#    0.000    0.667    6.667    2.000    0.000    0.444 
#    8.000    0.000    0.000    0.000    0.000    0.000 
#    0.000    0.000    0.000    0.000    0.000    0.000 
#
# Total GULP energy -200931.236434 kJ/mol
# GULP energy per Si atom -5581.423234 kJ/mol
# Density = 1.970979 g / cm^3
# Si number density = 19.754753 Si / 1000 Ang^3
#
#
#
# Elastic Constant Matrix: (Units=GPa)
#
#
# Indices 1 2 3 4 5 6 
#
# 1 40.5889 82.0005 21.1553 0.0000 0.0000 0.0000
# 2 82.0005 40.5864 21.1544 0.0000 0.0000 0.0000
# 3 21.1553 21.1544 105.8258 0.0000 0.0000 0.0000
# 4 0.0000 0.0000 0.0000 27.6855 0.0000 0.0000
# 5 0.0000 0.0000 0.0000 0.0000 27.6857 0.0000
# 6 0.0000 0.0000 0.0000 0.0000 0.0000 26.5693
#
#
#
# Elastic Compliance Matrix: (Units=1/GPa)
#
#
# Indices 1 2 3 4 5 6 
#
# 1 -0.007692 0.016454 -0.001751 0.000000 0.000000 0.000000
# 2 0.016454 -0.007693 -0.001752 0.000000 0.000000 0.000000
# 3 -0.001751 -0.001752 0.010150 0.000000 0.000000 0.000000
# 4 0.000000 0.000000 0.000000 0.036120 0.000000 0.000000
# 5 0.000000 0.000000 0.000000 0.000000 0.036120 0.000000
# 6 0.000000 0.000000 0.000000 0.000000 0.000000 0.037637
#
#
# Mechanical properties :
#
#
# Convention : Reuss Voigt Hill
#
# Bulk Modulus (GPa) = 48.38520 48.40238 48.39379
# Shear Modulus (GPa) = 58.39203 20.56748 39.47975
#
# Velocity S-wave (km/s) = 5.44267 3.23017 4.47530
# Velocity P-wave (km/s) = 8.00268 6.20216 7.15925
#
# Compressibility (1/GPa) = 0.02066748
#
# Stress axis : x y z
#
# Youngs Moduli (GPa) = -129.99924 -129.99165 98.52447
#
# Poissons Ratio (x) = 2.13895 0.17256
# Poissons Ratio (y) = 2.13907 0.17257
# Poissons Ratio (z) = -0.22769 -0.22769
#
# Static dielectric constant tensor:
#      x y z
#    x 1.682160 0.000000 0.000000 
#    y 0.000000 1.682170 0.000000 
#    z 0.000000 0.000000 1.799240 
# 
# From -- ./inp_files/4328.got.cif
#   From: 2010.05.17/outbox.cif.g08.bks.cpg/sg120_3_cif.got.tgz:4328.got - 2010.05.20 11:28:13.
