data_PCOD9559720
_publ_section_title
;
Structure prediction by ZEFSAII (Michael W. Deem and Ramdas Pophale) SiO2 
 PCOD9559720
Probable space group: I -4 C 2
;
_chemical_formula_sum "Si O2"
_cell_formula_units_Z 88
_cell_length_a 14.400233
_cell_length_b 14.400233
_cell_length_c 19.244762
_cell_angle_alpha 90.000000
_cell_angle_beta 90.000000
_cell_angle_gamma 90.000000
_cell_volume 3990.722989
_symmetry_space_group_name_H-M "I -4 C 2"
_symmetry_group_IT_number 120
_symmetry_cell_setting 'tetragonal'
loop_
_space_group_symop_operation_xyz
x,y,z
y,-x,-z
-x,-y,z
-y,x,-z
y,x,1/2-z
-y,-x,1/2-z
-x,y,1/2+z
x,-y,1/2+z
1/2+x,1/2+y,1/2+z
1/2+y,1/2-x,1/2-z
1/2-x,1/2-y,1/2+z
1/2-y,1/2+x,1/2-z
1/2+y,1/2+x,-z
1/2-y,1/2-x,-z
1/2-x,1/2+y,z
1/2+x,1/2-y,z
loop_
_atom_site_type_symbol
_atom_site_label
_atom_site_fract_x
_atom_site_fract_y
_atom_site_fract_z
Si Si1 0.024069 0.751134 0.305664
Si Si2 0.188570 0.773379 0.827318
Si Si3 0.832106 0.667895 0.000000
Si Si4 0.934174 0.587837 0.135694
Si Si5 0.841503 0.834663 0.915151
Si Si6 0.991498 0.212320 0.655800
O O1 0.069005 0.648440 0.309509
O O2 0.071606 0.808643 0.367080
O O3 0.030508 0.806485 0.233178
O O4 0.915862 0.738166 0.322680
O O5 0.231502 0.768499 0.750000
O O6 0.252762 0.715392 0.878734
O O7 0.185809 0.883127 0.846065
O O8 0.877892 0.617845 0.934051
O O9 0.849103 0.778002 0.987063
O O10 0.000000 0.500000 0.126018
O O11 0.994173 0.676211 0.155757
O O12 0.825764 0.944028 0.905670
#
# Coordination Sequence:
#
# PCOD9559720 Si02
#       6
#    16  16   8  16  16  16
#     4  10  22  37  65  95 132 164 206 273 346 401
#     4  10  20  38  60  93 130 163 208 268 338 399
#     4  10  23  46  56  84 131 176 220 264 314 397
#     4  11  23  39  63  98 131 167 224 275 332 395
#     4  11  22  42  61  88 127 174 216 269 324 392
#     4  11  22  37  65  96 126 167 217 271 339 399
#
# _framework density 22.051141999999999
#
# number of rings (size 3 to 8) (size 9 to 14) (size 15 to 20)
#    0.000    1.455    3.636    3.000    5.091    0.727 
#    9.818    2.727    0.000    0.000    0.000    0.000 
#    0.000    0.000    0.000    0.000    0.000    0.000 
#
# Total GULP energy -245809.843717 kJ/mol
# GULP energy per Si atom -5586.587357 kJ/mol
# Density = 2.200095 g / cm^3
# Si number density = 22.051142 Si / 1000 Ang^3
#
#
#
# Elastic Constant Matrix: (Units=GPa)
#
#
# Indices 1 2 3 4 5 6 
#
# 1 62.4942 -4.5204 -1.2768 0.0000 0.0000 0.0000
# 2 -4.5204 62.4933 -1.2774 0.0000 0.0000 0.0000
# 3 -1.2768 -1.2774 45.8999 0.0000 0.0000 0.0000
# 4 0.0000 0.0000 0.0000 21.1338 0.0000 0.0000
# 5 0.0000 0.0000 0.0000 0.0000 21.1330 0.0000
# 6 0.0000 0.0000 0.0000 0.0000 0.0000 42.5147
#
#
#
# Elastic Compliance Matrix: (Units=1/GPa)
#
#
# Indices 1 2 3 4 5 6 
#
# 1 0.016096 0.001174 0.000480 0.000000 0.000000 0.000000
# 2 0.001174 0.016096 0.000481 0.000000 0.000000 0.000000
# 3 0.000480 0.000481 0.021813 0.000000 0.000000 0.000000
# 4 0.000000 0.000000 0.000000 0.047318 0.000000 0.000000
# 5 0.000000 0.000000 0.000000 0.000000 0.047319 0.000000
# 6 0.000000 0.000000 0.000000 0.000000 0.000000 0.023521
#
#
# Mechanical properties :
#
#
# Convention : Reuss Voigt Hill
#
# Bulk Modulus (GPa) = 17.15960 17.41534 17.28747
# Shear Modulus (GPa) = 26.69241 28.82044 27.75642
#
# Velocity S-wave (km/s) = 3.48297 3.61914 3.55171
# Velocity P-wave (km/s) = 4.89626 5.03777 4.96752
#
# Compressibility (1/GPa) = 0.05827640
#
# Stress axis : x y z
#
# Youngs Moduli (GPa) = 62.12631 62.12542 45.84360
#
# Poissons Ratio (x) = -0.07294 -0.02202
# Poissons Ratio (y) = -0.07294 -0.02203
# Poissons Ratio (z) = -0.02985 -0.02986
#
# Static dielectric constant tensor:
#      x y z
#    x 1.812710 0.000000 0.000000 
#    y 0.000000 1.812700 0.000000 
#    z 0.000000 0.000000 1.864010 
# 
# From -- ./inp_files/5245.got.cif
#   From: 2010.05.17/outbox.cif.g08.bks.cpg/sg120_3_cif.got.tgz:5245.got - 2010.05.20 11:28:13.
