data_PCOD9559334
_publ_section_title
;
Structure prediction by ZEFSAII (Michael W. Deem and Ramdas Pophale) SiO2 
 PCOD9559334
Probable space group: I -4 M 2
;
_chemical_formula_sum "Si O2"
_cell_formula_units_Z 80
_cell_length_a 11.849327
_cell_length_b 11.849327
_cell_length_c 28.071992
_cell_angle_alpha 90.000000
_cell_angle_beta 90.000000
_cell_angle_gamma 90.000000
_cell_volume 3941.491558
_symmetry_space_group_name_H-M "I -4 M 2"
_symmetry_group_IT_number 119
_symmetry_cell_setting 'tetragonal'
loop_
_space_group_symop_operation_xyz
x,y,z
y,-x,-z
-x,-y,z
-y,x,-z
y,x,-z
-y,-x,-z
-x,y,z
x,-y,z
1/2+x,1/2+y,1/2+z
1/2+y,1/2-x,1/2-z
1/2-x,1/2-y,1/2+z
1/2-y,1/2+x,1/2-z
1/2+y,1/2+x,1/2-z
1/2-y,1/2-x,1/2-z
1/2-x,1/2+y,1/2+z
1/2+x,1/2-y,1/2+z
loop_
_atom_site_type_symbol
_atom_site_label
_atom_site_fract_x
_atom_site_fract_y
_atom_site_fract_z
Si Si1 0.637447 0.000000 0.006140
Si Si2 0.865644 0.250249 0.624856
Si Si3 0.705189 0.373905 0.773292
Si Si4 0.636095 0.000000 0.116595
Si Si5 0.500000 0.871157 0.645714
Si Si6 0.130205 0.691210 0.434971
Si Si7 0.500000 0.372465 0.700444
O O1 0.673142 0.887553 0.977973
O O2 0.500000 0.000000 0.003434
O O3 0.669298 0.000000 0.061034
O O4 0.840775 0.177518 0.672279
O O5 0.827822 0.379013 0.636854
O O6 0.797711 0.203945 0.580003
O O7 0.000000 0.249366 0.615115
O O8 0.751127 0.500000 0.778002
O O9 0.796434 0.296434 0.750000
O O10 0.604115 0.372561 0.736546
O O11 0.500000 0.000000 0.119532
O O12 0.607955 0.869431 0.610793
O O13 0.500000 0.749566 0.673257
O O14 0.500000 0.000000 0.668984
O O15 0.000000 0.723778 0.444432
O O16 0.500000 0.500000 0.675894
#
# Coordination Sequence:
#
# PCOD9559334 Si02
#       7
#     8  16  16   8   8  16   8
#     4   8  16  34  58  81 107 143 179 224 273 337
#     4  10  21  35  54  82 112 148 187 233 290 347
#     4  10  22  37  55  78 111 152 197 243 293 345
#     4   9  19  36  56  79 109 143 189 226 273 344
#     4   9  18  37  61  83 117 157 205 249 293 349
#     4   9  18  33  58  85 114 147 186 231 288 350
#     4  10  21  39  57  81 117 163 201 249 307 354
#
# _framework density 20.296883000000001
#
# number of rings (size 3 to 8) (size 9 to 14) (size 15 to 20)
#    0.000    2.600    0.000    2.400    2.800    1.400 
#    3.600    0.000    0.000    0.000    0.000    7.000 
#    0.000    0.000    0.000    0.000    0.000    0.000 
#
# Total GULP energy -222852.471648 kJ/mol
# GULP energy per Si atom -5571.311791 kJ/mol
# Density = 2.025069 g / cm^3
# Si number density = 20.296883 Si / 1000 Ang^3
#
#
#
# Elastic Constant Matrix: (Units=GPa)
#
#
# Indices 1 2 3 4 5 6 
#
# 1 62.2791 22.6464 13.9057 0.0000 0.0000 0.0000
# 2 22.6464 62.2791 13.9057 0.0000 0.0000 0.0000
# 3 13.9057 13.9057 39.0577 0.0000 0.0000 0.0000
# 4 0.0000 0.0000 0.0000 -10.1444 0.0000 0.0000
# 5 0.0000 0.0000 0.0000 0.0000 -10.1444 0.0000
# 6 0.0000 0.0000 0.0000 0.0000 0.0000 31.5880
#
#
#
# Elastic Compliance Matrix: (Units=1/GPa)
#
#
# Indices 1 2 3 4 5 6 
#
# 1 0.019280 -0.005951 -0.004746 0.000000 0.000000 0.000000
# 2 -0.005951 0.019280 -0.004746 0.000000 0.000000 0.000000
# 3 -0.004746 -0.004746 0.028982 0.000000 0.000000 0.000000
# 4 0.000000 0.000000 0.000000 -0.098577 0.000000 0.000000
# 5 0.000000 0.000000 0.000000 0.000000 -0.098577 0.000000
# 6 0.000000 0.000000 0.000000 0.000000 0.000000 0.031658
#
#
# Mechanical properties :
#
#
# Convention : Reuss Voigt Hill
#
# Bulk Modulus (GPa) = 27.27896 29.39235 28.33566
# Shear Modulus (GPa) = -91.15921 9.80374 -40.67773
#
# Velocity S-wave (km/s) = -6.70898 2.20015 -4.48162
# Velocity P-wave (km/s) = 6.82237 4.57896 3.57616
#
# Compressibility (1/GPa) = 0.03665829
#
# Stress axis : x y z
#
# Youngs Moduli (GPa) = 51.86614 51.86614 34.50389
#
# Poissons Ratio (x) = 0.30867 0.16374
# Poissons Ratio (y) = 0.30867 0.16374
# Poissons Ratio (z) = 0.24613 0.24613
#
# Static dielectric constant tensor:
#      x y z
#    x 2.028140 0.000000 0.000000 
#    y 0.000000 2.028140 0.000000 
#    z 0.000000 0.000000 1.754420 
# 
# From -- ./inp_files/10211.got.cif
#   From: 2010.05.17/outbox.cif.g08.bks.cpg/sg119_6_cif.got.tgz:10211.got - 2010.05.20 11:21:29.
