data_PCOD9559948
_publ_section_title
;
Structure prediction by ZEFSAII (Michael W. Deem and Ramdas Pophale) SiO2 
 PCOD9559948
Probable space group: I -4 C 2
;
_chemical_formula_sum "Si O2"
_cell_formula_units_Z 64
_cell_length_a 11.419668
_cell_length_b 11.419668
_cell_length_c 19.716728
_cell_angle_alpha 90.000000
_cell_angle_beta 90.000000
_cell_angle_gamma 90.000000
_cell_volume 2571.235178
_symmetry_space_group_name_H-M "I -4 C 2"
_symmetry_group_IT_number 120
_symmetry_cell_setting 'tetragonal'
loop_
_space_group_symop_operation_xyz
x,y,z
y,-x,-z
-x,-y,z
-y,x,-z
y,x,1/2-z
-y,-x,1/2-z
-x,y,1/2+z
x,-y,1/2+z
1/2+x,1/2+y,1/2+z
1/2+y,1/2-x,1/2-z
1/2-x,1/2-y,1/2+z
1/2-y,1/2+x,1/2-z
1/2+y,1/2+x,-z
1/2-y,1/2-x,-z
1/2-x,1/2+y,z
1/2+x,1/2-y,z
loop_
_atom_site_type_symbol
_atom_site_label
_atom_site_fract_x
_atom_site_fract_y
_atom_site_fract_z
Si Si1 0.630611 0.959800 0.932667
Si Si2 0.033797 0.187743 0.983424
Si Si3 0.983182 0.182806 0.832397
Si Si4 0.990470 0.205323 0.185057
O O1 0.696765 0.934354 0.863167
O O2 0.500000 0.000000 0.919501
O O3 0.622973 0.877028 0.000000
O O4 0.711833 0.062632 0.963563
O O5 0.007445 0.231120 0.907275
O O6 0.127083 0.083565 0.985592
O O7 0.091970 0.093414 0.821360
O O8 0.990781 0.251719 0.761671
O O9 0.859208 0.113527 0.834267
#
# Coordination Sequence:
#
# PCOD9559948 Si02
#       4
#    16  16  16  16
#     4  11  24  41  58  90 148 198 227 273 367 449
#     4  11  18  36  69 107 134 176 244 308 351 413
#     4   9  16  30  69 108 133 161 243 316 355 396
#     4   9  16  34  62 107 140 171 223 312 369 414
#
# _framework density 24.890763
#
# number of rings (size 3 to 8) (size 9 to 14) (size 15 to 20)
#    0.000    2.000    5.000    3.000    0.000    0.000 
#    4.500    1.250   11.000    3.000    0.000    0.000 
#    0.000    0.000    0.000    0.000    0.000    0.000 
#
# Total GULP energy -178383.087544 kJ/mol
# GULP energy per Si atom -5574.471486 kJ/mol
# Density = 2.483411 g / cm^3
# Si number density = 24.890763 Si / 1000 Ang^3
#
#
#
# Elastic Constant Matrix: (Units=GPa)
#
#
# Indices 1 2 3 4 5 6 
#
# 1 86.9968 11.2229 36.0869 0.0000 0.0000 0.0000
# 2 11.2229 86.9969 36.0870 0.0000 0.0000 0.0000
# 3 36.0869 36.0870 216.1266 0.0000 0.0000 0.0000
# 4 0.0000 0.0000 0.0000 36.1619 0.0000 0.0000
# 5 0.0000 0.0000 0.0000 0.0000 36.1620 0.0000
# 6 0.0000 0.0000 0.0000 0.0000 0.0000 9.9340
#
#
#
# Elastic Compliance Matrix: (Units=1/GPa)
#
#
# Indices 1 2 3 4 5 6 
#
# 1 0.012401 -0.000796 -0.001938 0.000000 0.000000 0.000000
# 2 -0.000796 0.012401 -0.001938 0.000000 0.000000 0.000000
# 3 -0.001938 -0.001938 0.005274 0.000000 0.000000 0.000000
# 4 0.000000 0.000000 0.000000 0.027653 0.000000 0.000000
# 5 0.000000 0.000000 0.000000 0.000000 0.027653 0.000000
# 6 0.000000 0.000000 0.000000 0.000000 0.000000 0.100665
#
#
# Mechanical properties :
#
#
# Convention : Reuss Voigt Hill
#
# Bulk Modulus (GPa) = 48.23141 61.87933 55.05537
# Shear Modulus (GPa) = 24.71556 36.89980 30.80768
#
# Velocity S-wave (km/s) = 3.15455 3.85446 3.52193
# Velocity P-wave (km/s) = 5.71730 6.68756 6.22138
#
# Compressibility (1/GPa) = 0.02073338
#
# Stress axis : x y z
#
# Youngs Moduli (GPa) = 80.63766 80.63778 189.60918
#
# Poissons Ratio (x) = 0.06419 0.36741
# Poissons Ratio (y) = 0.06419 0.36741
# Poissons Ratio (z) = 0.15625 0.15625
#
# Static dielectric constant tensor:
#      x y z
#    x 2.056980 0.000000 0.000000 
#    y 0.000000 2.056980 0.000000 
#    z 0.000000 0.000000 2.016140 
# 
# From -- ./inp_files/5019.got.cif
#   From: 2010.05.17/outbox.cif.g08.bks.cpg/sg120_3_cif.got.tgz:5019.got - 2010.05.20 11:28:13.
