data_PCOD9559130
_publ_section_title
;
Structure prediction by ZEFSAII (Michael W. Deem and Ramdas Pophale) SiO2 
 PCOD9559130
Probable space group: I -4 M 2
;
_chemical_formula_sum "Si O2"
_cell_formula_units_Z 112
_cell_length_a 15.300910
_cell_length_b 15.300910
_cell_length_c 25.815141
_cell_angle_alpha 90.000000
_cell_angle_beta 90.000000
_cell_angle_gamma 90.000000
_cell_volume 6043.785226
_symmetry_space_group_name_H-M "I -4 M 2"
_symmetry_group_IT_number 119
_symmetry_cell_setting 'tetragonal'
loop_
_space_group_symop_operation_xyz
x,y,z
y,-x,-z
-x,-y,z
-y,x,-z
y,x,-z
-y,-x,-z
-x,y,z
x,-y,z
1/2+x,1/2+y,1/2+z
1/2+y,1/2-x,1/2-z
1/2-x,1/2-y,1/2+z
1/2-y,1/2+x,1/2-z
1/2+y,1/2+x,1/2-z
1/2-y,1/2-x,1/2-z
1/2-x,1/2+y,1/2+z
1/2+x,1/2-y,1/2+z
loop_
_atom_site_type_symbol
_atom_site_label
_atom_site_fract_x
_atom_site_fract_y
_atom_site_fract_z
Si Si1 0.222542 0.336258 0.564422
Si Si2 0.667540 0.098635 0.175243
Si Si3 0.405319 0.757629 0.547014
Si Si4 0.104903 0.835053 0.556577
Si Si5 0.602364 0.290140 0.841780
Si Si6 0.595890 0.269738 0.222718
Si Si7 0.896168 0.405334 0.367487
O O1 0.200064 0.384040 0.617501
O O2 0.224836 0.395366 0.513630
O O3 0.319629 0.294099 0.565791
O O4 0.150209 0.260556 0.555399
O O5 0.604686 0.177257 0.192532
O O6 0.745828 0.106219 0.217117
O O7 0.631841 0.000000 0.180321
O O8 0.500000 0.714898 0.557529
O O9 0.404397 0.848331 0.577609
O O10 0.122229 0.877772 0.500000
O O11 0.159445 0.881287 0.603257
O O12 0.000000 0.833117 0.566478
O O13 0.500000 0.297094 0.829775
O O14 0.664174 0.335023 0.800088
O O15 0.627542 0.187615 0.842924
O O16 0.500000 0.306541 0.213468
O O17 0.872940 0.500000 0.342314
O O18 0.000000 0.403768 0.373379
#
# Coordination Sequence:
#
# PCOD9559130 Si02
#       7
#    16  16  16  16  16  16  16
#     4  11  20  37  55  84 112 145 187 236 291 342
#     4  10  21  37  61  83 110 152 193 244 299 343
#     4  10  19  33  56  79 107 146 186 227 285 349
#     4  12  23  36  54  82 120 159 193 231 281 347
#     4  11  21  36  58  85 119 160 198 235 285 347
#     4  10  21  38  57  83 116 152 196 243 292 348
#     4   9  17  31  53  83 116 150 192 238 282 333
#
# _framework density 18.531433
#
# number of rings (size 3 to 8) (size 9 to 14) (size 15 to 20)
#    0.000    1.571    4.286    1.286    0.000    3.857 
#    0.000    2.143    0.000   14.143    0.000    0.000 
#    0.000    4.571    0.000    0.000    0.000    0.000 
#
# Total GULP energy -312118.419425 kJ/mol
# GULP energy per Si atom -5573.543204 kJ/mol
# Density = 1.848925 g / cm^3
# Si number density = 18.531433 Si / 1000 Ang^3
#
#
#
# Elastic Constant Matrix: (Units=GPa)
#
#
# Indices 1 2 3 4 5 6 
#
# 1 -450.1965 597.8969 14.8875 0.0000 0.0000 0.0000
# 2 597.8969 -450.1969 14.9039 0.0000 0.0000 0.0000
# 3 14.8875 14.9039 32.3338 0.0000 0.0000 0.0000
# 4 0.0000 0.0000 0.0000 12.0070 0.0000 0.0000
# 5 0.0000 0.0000 0.0000 0.0000 12.0070 0.0000
# 6 0.0000 0.0000 0.0000 0.0000 0.0000 13.4130
#
#
#
# Elastic Compliance Matrix: (Units=1/GPa)
#
#
# Indices 1 2 3 4 5 6 
#
# 1 0.003255 0.004209 -0.003439 0.000000 0.000000 0.000000
# 2 0.004209 0.003255 -0.003438 0.000000 0.000000 0.000000
# 3 -0.003439 -0.003438 0.034096 0.000000 0.000000 0.000000
# 4 0.000000 0.000000 0.000000 0.083285 0.000000 0.000000
# 5 0.000000 0.000000 0.000000 0.000000 0.083285 0.000000
# 6 0.000000 0.000000 0.000000 0.000000 0.000000 0.074554
#
#
# Mechanical properties :
#
#
# Convention : Reuss Voigt Hill
#
# Bulk Modulus (GPa) = 28.35321 43.03523 35.69422
# Shear Modulus (GPa) = 16.73235 -92.23113 -37.74939
#
# Velocity S-wave (km/s) = 3.00812 -7.06245 -4.51826
# Velocity P-wave (km/s) = 5.23434 6.57502 2.81360
#
# Compressibility (1/GPa) = 0.03526937
#
# Stress axis : x y z
#
# Youngs Moduli (GPa) = 307.21796 307.22839 29.32930
#
# Poissons Ratio (x) = -1.29315 0.10086
# Poissons Ratio (y) = -1.29310 0.10084
# Poissons Ratio (z) = 1.05647 1.05635
#
# Static dielectric constant tensor:
#      x y z
#    x 1.656790 0.000000 0.000000 
#    y 0.000000 1.656790 0.000000 
#    z 0.000000 0.000000 1.639610 
# 
# From -- ./inp_files/9584.got.cif
#   From: 2010.05.17/outbox.cif.g08.bks.cpg/sg119_5_cif.got.tgz:9584.got - 2010.05.20 11:21:29.
