data_PCOD9559634
_publ_section_title
;
Structure prediction by ZEFSAII (Michael W. Deem and Ramdas Pophale) SiO2 
 PCOD9559634
Probable space group: I -4 C 2
;
_chemical_formula_sum "Si O2"
_cell_formula_units_Z 112
_cell_length_a 14.243076
_cell_length_b 14.243076
_cell_length_c 26.935346
_cell_angle_alpha 90.000000
_cell_angle_beta 90.000000
_cell_angle_gamma 90.000000
_cell_volume 5464.244729
_symmetry_space_group_name_H-M "I -4 C 2"
_symmetry_group_IT_number 120
_symmetry_cell_setting 'tetragonal'
loop_
_space_group_symop_operation_xyz
x,y,z
y,-x,-z
-x,-y,z
-y,x,-z
y,x,1/2-z
-y,-x,1/2-z
-x,y,1/2+z
x,-y,1/2+z
1/2+x,1/2+y,1/2+z
1/2+y,1/2-x,1/2-z
1/2-x,1/2-y,1/2+z
1/2-y,1/2+x,1/2-z
1/2+y,1/2+x,-z
1/2-y,1/2-x,-z
1/2-x,1/2+y,z
1/2+x,1/2-y,z
loop_
_atom_site_type_symbol
_atom_site_label
_atom_site_fract_x
_atom_site_fract_y
_atom_site_fract_z
Si Si1 0.248647 0.212239 0.700272
Si Si2 0.357545 0.355259 0.396053
Si Si3 0.848748 0.395903 0.184443
Si Si4 0.398169 0.531243 0.328449
Si Si5 0.700159 0.035941 0.783021
Si Si6 0.066505 0.212057 0.395403
Si Si7 0.412161 0.366182 0.998963
O O1 0.186742 0.186742 0.750000
O O2 0.201527 0.192325 0.647565
O O3 0.230049 0.323094 0.704948
O O4 0.356786 0.180921 0.699219
O O5 0.376020 0.457180 0.372331
O O6 0.456411 0.303879 0.402260
O O7 0.319564 0.370204 0.451326
O O8 0.836797 0.475023 0.226522
O O9 0.812591 0.418983 0.129948
O O10 0.951792 0.350528 0.187204
O O11 0.500000 0.500000 0.308791
O O12 0.312194 0.526816 0.290226
O O13 0.404508 0.631244 0.355970
O O14 0.111089 0.189165 0.448567
O O15 0.376372 0.474401 0.995209
#
# Coordination Sequence:
#
# PCOD9559634 Si02
#       7
#    16  16  16  16  16  16  16
#     4  10  22  39  60  87 124 165 212 272 311 388
#     4  10  19  34  62  92 126 171 208 262 332 378
#     4  11  24  41  63  84 127 175 213 265 317 390
#     4  10  19  36  63  93 122 157 200 268 334 371
#     4  11  24  43  62  86 128 173 217 258 321 387
#     4  10  20  34  58  95 130 160 218 263 322 389
#     4   9  16  31  58  93 135 168 205 270 335 396
#
# _framework density 20.496886
#
# number of rings (size 3 to 8) (size 9 to 14) (size 15 to 20)
#    0.000    1.857    4.286    0.000    4.000    0.286 
#    0.000    6.429    0.000    0.000    0.000    0.000 
#    0.000    5.143    0.000    0.000    0.000    0.000 
#
# Total GULP energy -311928.598763 kJ/mol
# GULP energy per Si atom -5570.153549 kJ/mol
# Density = 2.045023 g / cm^3
# Si number density = 20.496886 Si / 1000 Ang^3
#
#
#
# Elastic Constant Matrix: (Units=GPa)
#
#
# Indices 1 2 3 4 5 6 
#
# 1 -16.5906 125.2304 45.5471 0.0000 0.0000 0.0000
# 2 125.2304 -16.5906 45.5471 0.0000 0.0000 0.0000
# 3 45.5471 45.5471 142.3877 0.0000 0.0000 0.0000
# 4 0.0000 0.0000 0.0000 21.9710 0.0000 0.0000
# 5 0.0000 0.0000 0.0000 0.0000 21.9710 0.0000
# 6 0.0000 0.0000 0.0000 0.0000 0.0000 14.7759
#
#
#
# Elastic Compliance Matrix: (Units=1/GPa)
#
#
# Indices 1 2 3 4 5 6 
#
# 1 0.002764 0.009815 -0.004024 0.000000 0.000000 0.000000
# 2 0.009815 0.002764 -0.004024 0.000000 0.000000 0.000000
# 3 -0.004024 -0.004024 0.009597 0.000000 0.000000 0.000000
# 4 0.000000 0.000000 0.000000 0.045515 0.000000 0.000000
# 5 0.000000 0.000000 0.000000 0.000000 0.045515 0.000000
# 6 0.000000 0.000000 0.000000 0.000000 0.000000 0.067678
#
#
# Mechanical properties :
#
#
# Convention : Reuss Voigt Hill
#
# Bulk Modulus (GPa) = 53.59117 60.20617 56.89867
# Shear Modulus (GPa) = 28.32599 4.60237 16.46418
#
# Velocity S-wave (km/s) = 3.72151 1.50009 2.83725
# Velocity P-wave (km/s) = 6.68349 5.69539 6.20912
#
# Compressibility (1/GPa) = 0.01865979
#
# Stress axis : x y z
#
# Youngs Moduli (GPa) = 361.83383 361.83383 104.19654
#
# Poissons Ratio (x) = -3.55134 0.41925
# Poissons Ratio (y) = -3.55134 0.41925
# Poissons Ratio (z) = 1.45589 1.45589
#
# Static dielectric constant tensor:
#      x y z
#    x 1.783940 0.000000 0.000000 
#    y 0.000000 1.783940 0.000000 
#    z 0.000000 0.000000 1.848240 
# 
# From -- ./inp_files/6301.got.cif
#   From: 2010.05.17/outbox.cif.g08.bks.cpg/sg120_4_cif.got.tgz:6301.got - 2010.05.20 11:28:13.
