data_PCOD9559834
_publ_section_title
;
Structure prediction by ZEFSAII (Michael W. Deem and Ramdas Pophale) SiO2 
 PCOD9559834
Probable space group: I -4 C 2
;
_chemical_formula_sum "Si O2"
_cell_formula_units_Z 104
_cell_length_a 17.558713
_cell_length_b 17.558713
_cell_length_c 18.196443
_cell_angle_alpha 90.000000
_cell_angle_beta 90.000000
_cell_angle_gamma 90.000000
_cell_volume 5610.116267
_symmetry_space_group_name_H-M "I -4 C 2"
_symmetry_group_IT_number 120
_symmetry_cell_setting 'tetragonal'
loop_
_space_group_symop_operation_xyz
x,y,z
y,-x,-z
-x,-y,z
-y,x,-z
y,x,1/2-z
-y,-x,1/2-z
-x,y,1/2+z
x,-y,1/2+z
1/2+x,1/2+y,1/2+z
1/2+y,1/2-x,1/2-z
1/2-x,1/2-y,1/2+z
1/2-y,1/2+x,1/2-z
1/2+y,1/2+x,-z
1/2-y,1/2-x,-z
1/2-x,1/2+y,z
1/2+x,1/2-y,z
loop_
_atom_site_type_symbol
_atom_site_label
_atom_site_fract_x
_atom_site_fract_y
_atom_site_fract_z
Si Si1 0.418850 0.958813 0.855779
Si Si2 0.631439 0.868561 0.500000
Si Si3 0.276751 0.209503 0.878843
Si Si4 0.585956 0.157250 0.720850
Si Si5 0.437641 0.702553 0.968820
Si Si6 0.381923 0.704376 0.809281
Si Si7 0.117099 0.199205 0.487939
O O1 0.416543 0.909162 0.781238
O O2 0.500000 0.000000 0.863724
O O3 0.358492 0.025218 0.842167
O O4 0.399543 0.909901 0.927026
O O5 0.609420 0.779981 0.488988
O O6 0.327755 0.165354 0.819536
O O7 0.200272 0.238577 0.837364
O O8 0.331758 0.266222 0.922155
O O9 0.240657 0.151073 0.939024
O O10 0.570390 0.233069 0.766247
O O11 0.426023 0.684295 0.882730
O O12 0.526844 0.712449 0.983829
O O13 0.390589 0.636156 0.008931
O O14 0.359642 0.640359 0.750000
#
# Coordination Sequence:
#
# PCOD9559834 Si02
#       7
#    16   8  16  16  16  16  16
#     4  12  24  37  52  90 133 165 197 241 303 373
#     4  12  25  40  66  88 128 169 212 250 306 376
#     4   9  20  38  60  89 120 161 209 255 299 376
#     4  11  20  36  57  82 126 166 198 243 300 366
#     4  11  22  40  62  92 118 166 206 266 312 372
#     4   9  19  37  62  84 116 162 204 252 308 363
#     4  10  22  38  62  92 125 156 214 263 313 365
#
# _framework density 18.537941
#
# number of rings (size 3 to 8) (size 9 to 14) (size 15 to 20)
#    0.000    1.538    3.077    3.000    4.308    0.308 
#    0.000    0.000    0.000    0.000    0.000    8.615 
#    0.000    0.000    0.000    0.000    0.000    0.000 
#
# Total GULP energy -289939.681529 kJ/mol
# GULP energy per Si atom -5575.763106 kJ/mol
# Density = 1.849575 g / cm^3
# Si number density = 18.537941 Si / 1000 Ang^3
#
#
#
# Elastic Constant Matrix: (Units=GPa)
#
#
# Indices 1 2 3 4 5 6 
#
# 1 68.5841 36.0962 17.6969 0.0000 0.0000 0.0000
# 2 36.0962 68.5836 17.6959 0.0000 0.0000 0.0000
# 3 17.6969 17.6959 82.1579 0.0000 0.0000 0.0000
# 4 0.0000 0.0000 0.0000 3.7929 0.0000 0.0000
# 5 0.0000 0.0000 0.0000 0.0000 3.7813 0.0000
# 6 0.0000 0.0000 0.0000 0.0000 0.0000 27.8481
#
#
#
# Elastic Compliance Matrix: (Units=1/GPa)
#
#
# Indices 1 2 3 4 5 6 
#
# 1 0.020542 -0.010239 -0.002219 0.000000 0.000000 0.000000
# 2 -0.010239 0.020542 -0.002219 0.000000 0.000000 0.000000
# 3 -0.002219 -0.002219 0.013128 0.000000 0.000000 0.000000
# 4 0.000000 0.000000 0.000000 0.263650 0.000000 0.000000
# 5 0.000000 0.000000 0.000000 0.000000 0.264461 0.000000
# 6 0.000000 0.000000 0.000000 0.000000 0.000000 0.035909
#
#
# Mechanical properties :
#
#
# Convention : Reuss Voigt Hill
#
# Bulk Modulus (GPa) = 40.22985 40.25596 40.24290
# Shear Modulus (GPa) = 7.62344 16.94024 12.28184
#
# Velocity S-wave (km/s) = 2.03009 3.02622 2.57675
# Velocity P-wave (km/s) = 5.21953 5.82866 5.53248
#
# Compressibility (1/GPa) = 0.02485717
#
# Stress axis : x y z
#
# Youngs Moduli (GPa) = 48.68054 48.68050 76.17470
#
# Poissons Ratio (x) = 0.49843 0.16907
# Poissons Ratio (y) = 0.49843 0.16904
# Poissons Ratio (z) = 0.10804 0.10803
#
# Static dielectric constant tensor:
#      x y z
#    x 1.671690 0.000000 0.000000 
#    y 0.000000 1.671680 0.000000 
#    z 0.000000 0.000000 1.680750 
# 
# From -- ./inp_files/4522.got.cif
#   From: 2010.05.17/outbox.cif.g08.bks.cpg/sg120_3_cif.got.tgz:4522.got - 2010.05.20 11:28:13.
