data_PCOD9559539
_publ_section_title
;
Structure prediction by ZEFSAII (Michael W. Deem and Ramdas Pophale) SiO2 
 PCOD9559539
Probable space group: I -4 M 2
;
_chemical_formula_sum "Si O2"
_cell_formula_units_Z 56
_cell_length_a 13.795066
_cell_length_b 13.795066
_cell_length_c 12.462612
_cell_angle_alpha 90.000000
_cell_angle_beta 90.000000
_cell_angle_gamma 90.000000
_cell_volume 2371.682994
_symmetry_space_group_name_H-M "I -4 M 2"
_symmetry_group_IT_number 119
_symmetry_cell_setting 'tetragonal'
loop_
_space_group_symop_operation_xyz
x,y,z
y,-x,-z
-x,-y,z
-y,x,-z
y,x,-z
-y,-x,-z
-x,y,z
x,-y,z
1/2+x,1/2+y,1/2+z
1/2+y,1/2-x,1/2-z
1/2-x,1/2-y,1/2+z
1/2-y,1/2+x,1/2-z
1/2+y,1/2+x,1/2-z
1/2-y,1/2-x,1/2-z
1/2-x,1/2+y,1/2+z
1/2+x,1/2-y,1/2+z
loop_
_atom_site_type_symbol
_atom_site_label
_atom_site_fract_x
_atom_site_fract_y
_atom_site_fract_z
Si Si1 0.381995 0.112836 0.367277
Si Si2 0.385539 0.614462 0.000000
Si Si3 0.616015 0.820414 0.599370
Si Si4 0.705200 0.392828 0.209953
O O1 0.500000 0.111382 0.358839
O O2 0.350129 0.149872 0.250000
O O3 0.360901 0.173783 0.474026
O O4 0.352622 0.000000 0.384419
O O5 0.341410 0.648148 0.886284
O O6 0.500000 0.632113 0.994033
O O7 0.500000 0.837727 0.611100
O O8 0.640674 0.723983 0.668656
O O9 0.687135 0.896078 0.657378
O O10 0.662322 0.500000 0.221843
#
# Coordination Sequence:
#
# PCOD9559539 Si02
#       4
#    16   8  16  16
#     4   8  13  21  35  59  99 151 188 201 222 280
#     4   9  18  34  54  74  98 134 192 257 292 306
#     4   9  16  26  44  75 112 140 163 199 257 338
#     4   9  17  28  46  74 105 140 179 219 272 325
#
# _framework density 23.611923999999998
#
# number of rings (size 3 to 8) (size 9 to 14) (size 15 to 20)
#    0.000    3.286    0.000    1.714    0.000    2.857 
#    0.000    5.714    6.286    0.000    0.000    0.000 
#    0.000    2.286    0.000   24.000    0.000    0.000 
#
# Total GULP energy -155879.483740 kJ/mol
# GULP energy per Si atom -5567.124419 kJ/mol
# Density = 2.355818 g / cm^3
# Si number density = 23.611924 Si / 1000 Ang^3
#
#
#
# Elastic Constant Matrix: (Units=GPa)
#
#
# Indices 1 2 3 4 5 6 
#
# 1 48.5484 9.7648 42.2553 0.0000 0.0000 0.0000
# 2 9.7648 48.5476 42.2556 0.0000 0.0000 0.0000
# 3 42.2553 42.2556 290.9837 0.0000 0.0000 0.0000
# 4 0.0000 0.0000 0.0000 42.9820 0.0000 0.0000
# 5 0.0000 0.0000 0.0000 0.0000 42.9816 0.0000
# 6 0.0000 0.0000 0.0000 0.0000 0.0000 13.9258
#
#
#
# Elastic Compliance Matrix: (Units=1/GPa)
#
#
# Indices 1 2 3 4 5 6 
#
# 1 0.023752 -0.002032 -0.003154 0.000000 0.000000 0.000000
# 2 -0.002032 0.023752 -0.003154 0.000000 0.000000 0.000000
# 3 -0.003154 -0.003154 0.004353 0.000000 0.000000 0.000000
# 4 0.000000 0.000000 0.000000 0.023266 0.000000 0.000000
# 5 0.000000 0.000000 0.000000 0.000000 0.023266 0.000000
# 6 0.000000 0.000000 0.000000 0.000000 0.000000 0.071809
#
#
# Mechanical properties :
#
#
# Convention : Reuss Voigt Hill
#
# Bulk Modulus (GPa) = 28.42819 64.07012 46.24916
# Shear Modulus (GPa) = 25.17576 39.56480 32.37028
#
# Velocity S-wave (km/s) = 3.26886 4.09788 3.70662
# Velocity P-wave (km/s) = 5.12964 7.04157 6.16023
#
# Compressibility (1/GPa) = 0.03517635
#
# Stress axis : x y z
#
# Youngs Moduli (GPa) = 42.10176 42.10089 229.74411
#
# Poissons Ratio (x) = 0.08556 0.72462
# Poissons Ratio (y) = 0.08556 0.72465
# Poissons Ratio (z) = 0.13279 0.13279
#
# Static dielectric constant tensor:
#      x y z
#    x 1.929380 0.000000 0.000000 
#    y 0.000000 1.929380 0.000000 
#    z 0.000000 0.000000 1.984250 
# 
# From -- ./inp_files/3529.got.cif
#   From: 2010.05.17/outbox.cif.g08.bks.cpg/sg119_2_cif.got.tgz:3529.got - 2010.05.20 11:21:29.
