data_PCOD9559244
_publ_section_title
;
Structure prediction by ZEFSAII (Michael W. Deem and Ramdas Pophale) SiO2 
 PCOD9559244
Probable space group: I -4 M 2
;
_chemical_formula_sum "Si O2"
_cell_formula_units_Z 96
_cell_length_a 14.789205
_cell_length_b 14.789205
_cell_length_c 21.206971
_cell_angle_alpha 90.000000
_cell_angle_beta 90.000000
_cell_angle_gamma 90.000000
_cell_volume 4638.401093
_symmetry_space_group_name_H-M "I -4 M 2"
_symmetry_group_IT_number 119
_symmetry_cell_setting 'tetragonal'
loop_
_space_group_symop_operation_xyz
x,y,z
y,-x,-z
-x,-y,z
-y,x,-z
y,x,-z
-y,-x,-z
-x,y,z
x,-y,z
1/2+x,1/2+y,1/2+z
1/2+y,1/2-x,1/2-z
1/2-x,1/2-y,1/2+z
1/2-y,1/2+x,1/2-z
1/2+y,1/2+x,1/2-z
1/2-y,1/2-x,1/2-z
1/2-x,1/2+y,1/2+z
1/2+x,1/2-y,1/2+z
loop_
_atom_site_type_symbol
_atom_site_label
_atom_site_fract_x
_atom_site_fract_y
_atom_site_fract_z
Si Si1 0.609601 0.399977 0.631402
Si Si2 0.662524 0.100846 0.317986
Si Si3 0.601086 0.363784 0.221686
Si Si4 0.109941 0.709746 0.075714
Si Si5 0.696303 0.898027 0.691140
Si Si6 0.391954 0.104911 0.451160
O O1 0.500000 0.399666 0.639192
O O2 0.635964 0.500000 0.607439
O O3 0.647654 0.388672 0.702385
O O4 0.631444 0.315166 0.587579
O O5 0.637289 0.137289 0.250000
O O6 0.769640 0.097150 0.314828
O O7 0.632710 0.145638 0.382882
O O8 0.622674 0.000000 0.321434
O O9 0.500000 0.404517 0.213833
O O10 0.695051 0.404337 0.197722
O O11 0.160875 0.652650 0.129354
O O12 0.000000 0.699978 0.083029
O O13 0.137155 0.667888 0.008730
O O14 0.658861 0.841140 0.750000
O O15 0.659776 0.000000 0.693079
O O16 0.500000 0.099775 0.453958
O O17 0.357655 0.000000 0.456846
#
# Coordination Sequence:
#
# PCOD9559244 Si02
#       6
#    16  16  16  16  16  16
#     4   9  17  32  56  86 121 162 206 252 301 359
#     4  10  20  34  57  87 116 150 200 262 318 372
#     4  10  21  37  57  82 115 156 205 261 314 360
#     4  10  20  35  57  89 128 168 206 250 308 376
#     4  12  23  35  55  87 126 166 210 257 305 364
#     4   9  18  34  56  85 125 167 203 247 313 384
#
# _framework density 20.696785999999999
#
# number of rings (size 3 to 8) (size 9 to 14) (size 15 to 20)
#    0.000    2.000    1.667    2.500    0.000    3.667 
#    0.000    0.833    0.000    0.000    0.000    7.000 
#    0.000   26.667    0.000    0.000    0.000    0.500 
#
# Total GULP energy -267803.435066 kJ/mol
# GULP energy per Si atom -5579.238231 kJ/mol
# Density = 2.064968 g / cm^3
# Si number density = 20.696786 Si / 1000 Ang^3
#
#
#
# Elastic Constant Matrix: (Units=GPa)
#
#
# Indices 1 2 3 4 5 6 
#
# 1 97.4210 30.3267 56.6610 0.0000 0.0000 0.0000
# 2 30.3267 97.4228 56.6618 0.0000 0.0000 0.0000
# 3 56.6610 56.6618 164.0813 0.0000 0.0000 0.0000
# 4 0.0000 0.0000 0.0000 22.5154 0.0000 0.0000
# 5 0.0000 0.0000 0.0000 0.0000 22.5152 0.0000
# 6 0.0000 0.0000 0.0000 0.0000 0.0000 14.4547
#
#
#
# Elastic Compliance Matrix: (Units=1/GPa)
#
#
# Indices 1 2 3 4 5 6 
#
# 1 0.013095 -0.001810 -0.003897 0.000000 0.000000 0.000000
# 2 -0.001810 0.013094 -0.003897 0.000000 0.000000 0.000000
# 3 -0.003897 -0.003897 0.008786 0.000000 0.000000 0.000000
# 4 0.000000 0.000000 0.000000 0.044414 0.000000 0.000000
# 5 0.000000 0.000000 0.000000 0.000000 0.044415 0.000000
# 6 0.000000 0.000000 0.000000 0.000000 0.000000 0.069182
#
#
# Mechanical properties :
#
#
# Convention : Reuss Voigt Hill
#
# Bulk Modulus (GPa) = 63.42043 71.80267 67.61155
# Shear Modulus (GPa) = 22.99400 26.24876 24.62138
#
# Velocity S-wave (km/s) = 3.33677 3.56512 3.45283
# Velocity P-wave (km/s) = 6.74941 7.19130 6.97386
#
# Compressibility (1/GPa) = 0.01576779
#
# Stress axis : x y z
#
# Youngs Moduli (GPa) = 76.36756 76.36880 113.81823
#
# Poissons Ratio (x) = 0.13821 0.44354
# Poissons Ratio (y) = 0.13820 0.44354
# Poissons Ratio (z) = 0.29760 0.29760
#
# Static dielectric constant tensor:
#      x y z
#    x 1.765420 0.000000 0.000000 
#    y 0.000000 1.765420 0.000000 
#    z 0.000000 0.000000 1.713400 
# 
# From -- ./inp_files/7801.got.cif
#   From: 2010.05.17/outbox.cif.g08.bks.cpg/sg119_4_cif.got.tgz:7801.got - 2010.05.20 11:21:29.
