data_PCOD9559023
_publ_section_title
;
Structure prediction by ZEFSAII (Michael W. Deem and Ramdas Pophale) SiO2 
 PCOD9559023
Probable space group: I -4 M 2
;
_chemical_formula_sum "Si O2"
_cell_formula_units_Z 104
_cell_length_a 18.674327
_cell_length_b 18.674327
_cell_length_c 17.045018
_cell_angle_alpha 90.000000
_cell_angle_beta 90.000000
_cell_angle_gamma 90.000000
_cell_volume 5944.117460
_symmetry_space_group_name_H-M "I -4 M 2"
_symmetry_group_IT_number 119
_symmetry_cell_setting 'tetragonal'
loop_
_space_group_symop_operation_xyz
x,y,z
y,-x,-z
-x,-y,z
-y,x,-z
y,x,-z
-y,-x,-z
-x,y,z
x,-y,z
1/2+x,1/2+y,1/2+z
1/2+y,1/2-x,1/2-z
1/2-x,1/2-y,1/2+z
1/2-y,1/2+x,1/2-z
1/2+y,1/2+x,1/2-z
1/2-y,1/2-x,1/2-z
1/2-x,1/2+y,1/2+z
1/2+x,1/2-y,1/2+z
loop_
_atom_site_type_symbol
_atom_site_label
_atom_site_fract_x
_atom_site_fract_y
_atom_site_fract_z
Si Si1 0.084224 0.299484 0.242371
Si Si2 0.697108 0.184670 0.053426
Si Si3 0.416974 0.831957 0.316167
Si Si4 0.163356 0.163356 0.500000
Si Si5 0.158674 0.085598 0.662709
Si Si6 0.659443 0.582107 0.690273
Si Si7 0.781088 0.155862 0.900477
O O1 0.128419 0.371582 0.250000
O O2 0.099057 0.241225 0.310833
O O3 0.112710 0.262916 0.163103
O O4 0.000000 0.311171 0.239166
O O5 0.656118 0.126254 0.103105
O O6 0.757521 0.221632 0.109323
O O7 0.654319 0.251473 0.018334
O O8 0.744918 0.146946 0.985524
O O9 0.500000 0.852336 0.321122
O O10 0.375532 0.875532 0.250000
O O11 0.414448 0.745981 0.300718
O O12 0.144453 0.119177 0.577640
O O13 0.111109 0.122545 0.730532
O O14 0.147360 0.000000 0.662959
O O15 0.639937 0.500000 0.675071
O O16 0.638634 0.636226 0.619553
#
# Coordination Sequence:
#
# PCOD9559023 Si02
#       7
#    16  16  16   8  16  16  16
#     4  10  19  32  50  72 100 133 170 210 254 306
#     4   9  17  31  53  78 101 129 168 214 258 306
#     4  10  20  34  54  79 106 137 173 213 257 310
#     4  10  18  32  52  71 100 136 176 221 268 312
#     4  10  21  34  50  74 102 134 173 218 262 306
#     4   9  18  33  53  77 105 138 174 211 259 321
#     4   8  16  30  50  76 101 127 162 210 258 298
#
# _framework density 17.496289000000001
#
# number of rings (size 3 to 8) (size 9 to 14) (size 15 to 20)
#    0.000    2.769    0.000    2.769    0.000    6.154 
#    0.000    3.077    0.000    1.846    0.000    2.154 
#    0.000    9.846    0.000    0.000    0.000    0.000 
#
# Total GULP energy -289532.884715 kJ/mol
# GULP energy per Si atom -5567.940091 kJ/mol
# Density = 1.745647 g / cm^3
# Si number density = 17.496289 Si / 1000 Ang^3
#
#
#
# Elastic Constant Matrix: (Units=GPa)
#
#
# Indices 1 2 3 4 5 6 
#
# 1 50.9977 27.6545 15.4060 0.0000 0.0000 0.0000
# 2 27.6545 50.9923 15.4063 0.0000 0.0000 0.0000
# 3 15.4060 15.4063 61.3739 0.0000 0.0000 0.0000
# 4 0.0000 0.0000 0.0000 8.5987 0.0000 0.0000
# 5 0.0000 0.0000 0.0000 0.0000 8.5986 0.0000
# 6 0.0000 0.0000 0.0000 0.0000 0.0000 18.4921
#
#
#
# Elastic Compliance Matrix: (Units=1/GPa)
#
#
# Indices 1 2 3 4 5 6 
#
# 1 0.028471 -0.014371 -0.003539 0.000000 0.000000 0.000000
# 2 -0.014371 0.028474 -0.003540 0.000000 0.000000 0.000000
# 3 -0.003539 -0.003540 0.018071 0.000000 0.000000 0.000000
# 4 0.000000 0.000000 0.000000 0.116296 0.000000 0.000000
# 5 0.000000 0.000000 0.000000 0.000000 0.116297 0.000000
# 6 0.000000 0.000000 0.000000 0.000000 0.000000 0.054077
#
#
# Mechanical properties :
#
#
# Convention : Reuss Voigt Hill
#
# Bulk Modulus (GPa) = 31.13861 31.14416 31.14138
# Shear Modulus (GPa) = 12.03969 14.13103 13.08536
#
# Velocity S-wave (km/s) = 2.62607 2.84502 2.73773
# Velocity P-wave (km/s) = 5.19912 5.35082 5.27551
#
# Compressibility (1/GPa) = 0.03211447
#
# Stress axis : x y z
#
# Youngs Moduli (GPa) = 35.12348 35.11938 55.33827
#
# Poissons Ratio (x) = 0.50471 0.19586
# Poissons Ratio (y) = 0.50477 0.19591
# Poissons Ratio (z) = 0.12431 0.12433
#
# Static dielectric constant tensor:
#      x y z
#    x 1.598780 0.000000 0.000000 
#    y 0.000000 1.598780 0.000000 
#    z 0.000000 0.000000 1.617430 
# 
# From -- ./inp_files/6747.got.cif
#   From: 2010.05.17/outbox.cif.g08.bks.cpg/sg119_4_cif.got.tgz:6747.got - 2010.05.20 11:21:29.
