data_PCOD9559529
_publ_section_title
;
Structure prediction by ZEFSAII (Michael W. Deem and Ramdas Pophale) SiO2 
 PCOD9559529
Probable space group: I -4 M 2
;
_chemical_formula_sum "Si O2"
_cell_formula_units_Z 52
_cell_length_a 11.522653
_cell_length_b 11.522653
_cell_length_c 19.682369
_cell_angle_alpha 90.000000
_cell_angle_beta 90.000000
_cell_angle_gamma 90.000000
_cell_volume 2613.258289
_symmetry_space_group_name_H-M "I -4 M 2"
_symmetry_group_IT_number 119
_symmetry_cell_setting 'tetragonal'
loop_
_space_group_symop_operation_xyz
x,y,z
y,-x,-z
-x,-y,z
-y,x,-z
y,x,-z
-y,-x,-z
-x,y,z
x,-y,z
1/2+x,1/2+y,1/2+z
1/2+y,1/2-x,1/2-z
1/2-x,1/2-y,1/2+z
1/2-y,1/2+x,1/2-z
1/2+y,1/2+x,1/2-z
1/2-y,1/2-x,1/2-z
1/2-x,1/2+y,1/2+z
1/2+x,1/2-y,1/2+z
loop_
_atom_site_type_symbol
_atom_site_label
_atom_site_fract_x
_atom_site_fract_y
_atom_site_fract_z
Si Si1 0.137955 0.771830 0.069285
Si Si2 0.241853 0.000000 0.132066
Si Si3 0.246091 0.500000 0.794560
Si Si4 0.136677 0.754951 0.315427
Si Si5 0.000000 0.500000 0.633361
O O1 0.183634 0.669058 0.116881
O O2 0.000000 0.765655 0.056204
O O3 0.169224 0.887859 0.111274
O O4 0.209552 0.790449 0.000000
O O5 0.257421 0.000000 0.213038
O O6 0.371714 0.000000 0.098940
O O7 0.309005 0.616586 0.819140
O O8 0.116964 0.500000 0.823254
O O9 0.193029 0.693029 0.250000
O O10 0.000000 0.762519 0.305990
#
# Coordination Sequence:
#
# PCOD9559529 Si02
#       5
#    16   8   8  16   4
#     4  12  26  45  68 100 137 178 228 285 346 406
#     4  12  22  40  69 103 134 169 224 287 346 397
#     4  12  22  42  73 107 134 174 226 289 346 398
#     4  12  26  45  71 102 139 180 229 281 345 407
#     4  12  21  40  72 104 140 170 225 294 329 410
#
# _framework density 19.898531999999999
#
# number of rings (size 3 to 8) (size 9 to 14) (size 15 to 20)
#    0.000    0.000    7.692    3.231    0.000    3.385 
#    5.538    0.000    0.000    0.000    0.000    0.000 
#    0.000    0.000    0.000    0.000    0.000    0.000 
#
# Total GULP energy -145459.497314 kJ/mol
# GULP energy per Si atom -5594.596051 kJ/mol
# Density = 1.985324 g / cm^3
# Si number density = 19.898532 Si / 1000 Ang^3
#
#
#
# Elastic Constant Matrix: (Units=GPa)
#
#
# Indices 1 2 3 4 5 6 
#
# 1 133.4587 43.7983 34.3020 0.0000 0.0000 0.0000
# 2 43.7983 133.4585 34.3018 0.0000 0.0000 0.0000
# 3 34.3020 34.3018 87.1236 0.0000 0.0000 0.0000
# 4 0.0000 0.0000 0.0000 23.0063 0.0000 0.0000
# 5 0.0000 0.0000 0.0000 0.0000 23.0048 0.0000
# 6 0.0000 0.0000 0.0000 0.0000 0.0000 23.0356
#
#
#
# Elastic Compliance Matrix: (Units=1/GPa)
#
#
# Indices 1 2 3 4 5 6 
#
# 1 0.008904 -0.002249 -0.002620 0.000000 0.000000 0.000000
# 2 -0.002249 0.008904 -0.002620 0.000000 0.000000 0.000000
# 3 -0.002620 -0.002620 0.013541 0.000000 0.000000 0.000000
# 4 0.000000 0.000000 0.000000 0.043466 0.000000 0.000000
# 5 0.000000 0.000000 0.000000 0.000000 0.043469 0.000000
# 6 0.000000 0.000000 0.000000 0.000000 0.000000 0.043411
#
#
# Mechanical properties :
#
#
# Convention : Reuss Voigt Hill
#
# Bulk Modulus (GPa) = 61.08367 64.31610 62.69989
# Shear Modulus (GPa) = 27.45242 29.91858 28.68550
#
# Velocity S-wave (km/s) = 3.71835 3.88178 3.80094
# Velocity P-wave (km/s) = 7.01421 7.24453 7.13030
#
# Compressibility (1/GPa) = 0.01637099
#
# Stress axis : x y z
#
# Youngs Moduli (GPa) = 112.30315 112.30314 73.84769
#
# Poissons Ratio (x) = 0.25254 0.19352
# Poissons Ratio (y) = 0.25254 0.19351
# Poissons Ratio (z) = 0.29429 0.29428
#
# Static dielectric constant tensor:
#      x y z
#    x 1.697920 0.000000 0.000000 
#    y 0.000000 1.697920 0.000000 
#    z 0.000000 0.000000 1.710190 
# 
# From -- ./inp_files/7320.got.cif
#   From: 2010.05.17/outbox.cif.g08.bks.cpg/sg119_4_cif.got.tgz:7320.got - 2010.05.20 11:21:29.
