data_PCOD9559153
_publ_section_title
;
Structure prediction by ZEFSAII (Michael W. Deem and Ramdas Pophale) SiO2 
 PCOD9559153
Probable space group: I -4 M 2
;
_chemical_formula_sum "Si O2"
_cell_formula_units_Z 88
_cell_length_a 15.121205
_cell_length_b 15.121205
_cell_length_c 21.964593
_cell_angle_alpha 90.000000
_cell_angle_beta 90.000000
_cell_angle_gamma 90.000000
_cell_volume 5022.222654
_symmetry_space_group_name_H-M "I -4 M 2"
_symmetry_group_IT_number 119
_symmetry_cell_setting 'tetragonal'
loop_
_space_group_symop_operation_xyz
x,y,z
y,-x,-z
-x,-y,z
-y,x,-z
y,x,-z
-y,-x,-z
-x,y,z
x,-y,z
1/2+x,1/2+y,1/2+z
1/2+y,1/2-x,1/2-z
1/2-x,1/2-y,1/2+z
1/2-y,1/2+x,1/2-z
1/2+y,1/2+x,1/2-z
1/2-y,1/2-x,1/2-z
1/2-x,1/2+y,1/2+z
1/2+x,1/2-y,1/2+z
loop_
_atom_site_type_symbol
_atom_site_label
_atom_site_fract_x
_atom_site_fract_y
_atom_site_fract_z
Si Si1 0.000000 0.396712 0.438537
Si Si2 0.099054 0.900947 0.500000
Si Si3 0.332644 0.193268 0.146929
Si Si4 0.704392 0.599913 0.732187
Si Si5 0.243393 0.595870 0.239612
Si Si6 0.603062 0.000000 0.415634
Si Si7 0.366359 0.252229 0.899296
O O1 0.000000 0.395999 0.511549
O O2 0.086984 0.340380 0.417864
O O3 0.000000 0.500000 0.418117
O O4 0.174005 0.892364 0.551169
O O5 0.000000 0.893055 0.527037
O O6 0.374269 0.247277 0.204194
O O7 0.274039 0.117894 0.178516
O O8 0.412737 0.153202 0.108427
O O9 0.268884 0.261135 0.110296
O O10 0.674860 0.500000 0.734366
O O11 0.625856 0.669659 0.724974
O O12 0.210744 0.500000 0.257940
O O13 0.170017 0.670017 0.250000
O O14 0.267963 0.596317 0.168359
O O15 0.500000 0.000000 0.395149
#
# Coordination Sequence:
#
# PCOD9559153 Si02
#       7
#     8   8  16  16  16   8  16
#     4  11  24  40  57  81 113 151 204 254 299 339
#     4  11  22  34  58  92 124 158 191 226 296 375
#     4  10  20  34  56  81 116 152 186 231 279 344
#     4  10  19  36  55  83 114 149 186 230 287 344
#     4  11  22  39  57  82 114 149 198 246 294 351
#     4  11  22  36  56  88 116 152 192 234 288 347
#     4  11  21  39  55  81 116 153 194 242 290 351
#
# _framework density 17.522122
#
# number of rings (size 3 to 8) (size 9 to 14) (size 15 to 20)
#    0.000    1.364    6.364    1.636    1.273    2.000 
#    0.000    0.000    0.000    0.000    0.000    0.000 
#    0.000    0.000    0.000    0.545    0.000    0.000 
#
# Total GULP energy -245197.419449 kJ/mol
# GULP energy per Si atom -5572.668624 kJ/mol
# Density = 1.748224 g / cm^3
# Si number density = 17.522122 Si / 1000 Ang^3
#
#
#
# Elastic Constant Matrix: (Units=GPa)
#
#
# Indices 1 2 3 4 5 6 
#
# 1 110.9643 65.6905 26.6986 0.0000 0.0000 0.0000
# 2 65.6905 110.9648 26.6982 0.0000 0.0000 0.0000
# 3 26.6986 26.6982 46.0877 0.0000 0.0000 0.0000
# 4 0.0000 0.0000 0.0000 12.3147 0.0000 0.0000
# 5 0.0000 0.0000 0.0000 0.0000 12.3149 0.0000
# 6 0.0000 0.0000 0.0000 0.0000 0.0000 6.1116
#
#
#
# Elastic Compliance Matrix: (Units=1/GPa)
#
#
# Indices 1 2 3 4 5 6 
#
# 1 0.014475 -0.007613 -0.003975 0.000000 0.000000 0.000000
# 2 -0.007613 0.014475 -0.003975 0.000000 0.000000 0.000000
# 3 -0.003975 -0.003975 0.026304 0.000000 0.000000 0.000000
# 4 0.000000 0.000000 0.000000 0.081204 0.000000 0.000000
# 5 0.000000 0.000000 0.000000 0.000000 0.081202 0.000000
# 6 0.000000 0.000000 0.000000 0.000000 0.000000 0.163622
#
#
# Mechanical properties :
#
#
# Convention : Reuss Voigt Hill
#
# Bulk Modulus (GPa) = 41.44746 56.24349 48.84548
# Shear Modulus (GPa) = 11.89198 16.07687 13.98443
#
# Velocity S-wave (km/s) = 2.60798 3.03234 2.82813
# Velocity P-wave (km/s) = 5.72490 6.66546 6.21300
#
# Compressibility (1/GPa) = 0.02412693
#
# Stress axis : x y z
#
# Youngs Moduli (GPa) = 69.08415 69.08482 38.01766
#
# Poissons Ratio (x) = 0.52592 0.15114
# Poissons Ratio (y) = 0.52591 0.15113
# Poissons Ratio (z) = 0.27464 0.27463
#
# Static dielectric constant tensor:
#      x y z
#    x 1.617220 0.000000 0.000000 
#    y 0.000000 1.617220 0.000000 
#    z 0.000000 0.000000 1.590090 
# 
# From -- ./inp_files/7735.got.cif
#   From: 2010.05.17/outbox.cif.g08.bks.cpg/sg119_4_cif.got.tgz:7735.got - 2010.05.20 11:21:29.
