data_PCOD9559024
_publ_section_title
;
Structure prediction by ZEFSAII (Michael W. Deem and Ramdas Pophale) SiO2 
 PCOD9559024
Probable space group: I -4 M 2
;
_chemical_formula_sum "Si O2"
_cell_formula_units_Z 80
_cell_length_a 29.141052
_cell_length_b 29.141052
_cell_length_c 5.197937
_cell_angle_alpha 90.000000
_cell_angle_beta 90.000000
_cell_angle_gamma 90.000000
_cell_volume 4414.092839
_symmetry_space_group_name_H-M "I -4 M 2"
_symmetry_group_IT_number 119
_symmetry_cell_setting 'tetragonal'
loop_
_space_group_symop_operation_xyz
x,y,z
y,-x,-z
-x,-y,z
-y,x,-z
y,x,-z
-y,-x,-z
-x,y,z
x,-y,z
1/2+x,1/2+y,1/2+z
1/2+y,1/2-x,1/2-z
1/2-x,1/2-y,1/2+z
1/2-y,1/2+x,1/2-z
1/2+y,1/2+x,1/2-z
1/2-y,1/2-x,1/2-z
1/2-x,1/2+y,1/2+z
1/2+x,1/2-y,1/2+z
loop_
_atom_site_type_symbol
_atom_site_label
_atom_site_fract_x
_atom_site_fract_y
_atom_site_fract_z
Si Si1 0.126107 0.665556 0.498525
Si Si2 0.554042 0.595253 0.259945
Si Si3 0.553182 0.309095 0.488071
Si Si4 0.950447 0.413281 0.500296
Si Si5 0.945411 0.749426 0.476245
O O1 0.157767 0.657767 0.250000
O O2 0.089249 0.624233 0.501229
O O3 0.092739 0.709498 0.481583
O O4 0.157544 0.657544 0.750000
O O5 0.560912 0.560912 0.500000
O O6 0.500000 0.599805 0.196429
O O7 0.572505 0.643581 0.374598
O O8 0.579371 0.579371 0.000000
O O9 0.500000 0.320417 0.543058
O O10 0.568897 0.285406 0.752112
O O11 0.555175 0.272938 0.255546
O O12 0.943874 0.443874 0.750000
O O13 0.000000 0.390397 0.500530
O O14 0.943690 0.443690 0.250000
O O15 0.000000 0.736172 0.427308
#
# Coordination Sequence:
#
# PCOD9559024 Si02
#       5
#    16  16  16  16  16
#     4  10  20  32  46  68  96 122 154 203 262 325
#     4  11  22  36  54  79 116 154 187 220 248 282
#     4   9  19  33  51  76 101 133 177 221 256 290
#     4  10  20  31  42  57  80 112 152 195 239 292
#     4  10  18  32  53  72  97 133 172 213 266 324
#
# _framework density 18.123767000000001
#
# number of rings (size 3 to 8) (size 9 to 14) (size 15 to 20)
#    0.000    2.000    0.000    4.200    0.000    5.600 
#    0.000    6.000    0.000    0.000    0.000    0.000 
#    0.000   44.800    0.000    0.000    0.000    0.000 
#
# Total GULP energy -222803.326995 kJ/mol
# GULP energy per Si atom -5570.083175 kJ/mol
# Density = 1.808252 g / cm^3
# Si number density = 18.123767 Si / 1000 Ang^3
#
#
#
# Elastic Constant Matrix: (Units=GPa)
#
#
# Indices 1 2 3 4 5 6 
#
# 1 52.5770 15.4074 12.8116 0.0000 0.0000 0.0000
# 2 15.4074 52.5770 12.8116 0.0000 0.0000 0.0000
# 3 12.8116 12.8116 114.6114 0.0000 0.0000 0.0000
# 4 0.0000 0.0000 0.0000 25.1869 0.0000 0.0000
# 5 0.0000 0.0000 0.0000 0.0000 25.1869 0.0000
# 6 0.0000 0.0000 0.0000 0.0000 0.0000 14.0213
#
#
#
# Elastic Compliance Matrix: (Units=1/GPa)
#
#
# Indices 1 2 3 4 5 6 
#
# 1 0.021130 -0.005774 -0.001717 0.000000 0.000000 0.000000
# 2 -0.005774 0.021130 -0.001717 0.000000 0.000000 0.000000
# 3 -0.001717 -0.001717 0.009109 0.000000 0.000000 0.000000
# 4 0.000000 0.000000 0.000000 0.039703 0.000000 0.000000
# 5 0.000000 0.000000 0.000000 0.000000 0.039703 0.000000
# 6 0.000000 0.000000 0.000000 0.000000 0.000000 0.071320
#
#
# Mechanical properties :
#
#
# Convention : Reuss Voigt Hill
#
# Bulk Modulus (GPa) = 30.34434 33.53631 31.94032
# Shear Modulus (GPa) = 21.59879 24.79464 23.19671
#
# Velocity S-wave (km/s) = 3.45590 3.70276 3.58146
# Velocity P-wave (km/s) = 5.71870 6.06834 5.89611
#
# Compressibility (1/GPa) = 0.03295508
#
# Stress axis : x y z
#
# Youngs Moduli (GPa) = 47.32610 47.32610 109.78267
#
# Poissons Ratio (x) = 0.27325 0.18845
# Poissons Ratio (y) = 0.27325 0.18845
# Poissons Ratio (z) = 0.08124 0.08124
#
# Static dielectric constant tensor:
#      x y z
#    x 1.635760 0.000000 0.000000 
#    y 0.000000 1.635760 0.000000 
#    z 0.000000 0.000000 1.642840 
# 
# From -- ./inp_files/1001.got.cif
#   From: 2010.05.17/outbox.cif.g08.bks.cpg/sg119_1_cif.got.tgz:1001.got - 2010.05.20 11:21:29.
