data_PCOD9559623
_publ_section_title
;
Structure prediction by ZEFSAII (Michael W. Deem and Ramdas Pophale) SiO2 
 PCOD9559623
Probable space group: I -4 C 2
;
_chemical_formula_sum "Si O2"
_cell_formula_units_Z 80
_cell_length_a 15.866382
_cell_length_b 15.866382
_cell_length_c 13.573661
_cell_angle_alpha 90.000000
_cell_angle_beta 90.000000
_cell_angle_gamma 90.000000
_cell_volume 3417.061623
_symmetry_space_group_name_H-M "I -4 C 2"
_symmetry_group_IT_number 120
_symmetry_cell_setting 'tetragonal'
loop_
_space_group_symop_operation_xyz
x,y,z
y,-x,-z
-x,-y,z
-y,x,-z
y,x,1/2-z
-y,-x,1/2-z
-x,y,1/2+z
x,-y,1/2+z
1/2+x,1/2+y,1/2+z
1/2+y,1/2-x,1/2-z
1/2-x,1/2-y,1/2+z
1/2-y,1/2+x,1/2-z
1/2+y,1/2+x,-z
1/2-y,1/2-x,-z
1/2-x,1/2+y,z
1/2+x,1/2-y,z
loop_
_atom_site_type_symbol
_atom_site_label
_atom_site_fract_x
_atom_site_fract_y
_atom_site_fract_z
Si Si1 0.710672 0.973394 0.150029
Si Si2 0.726748 0.546669 0.964177
Si Si3 0.862452 0.655618 0.184993
Si Si4 0.036840 0.155525 0.699111
Si Si5 0.716767 0.697237 0.413599
O O1 0.667827 0.894539 0.203519
O O2 0.653709 0.057608 0.162214
O O3 0.792439 0.990706 0.216669
O O4 0.742036 0.974168 0.038253
O O5 0.803796 0.569860 0.890783
O O6 0.648875 0.522238 0.895141
O O7 0.702295 0.626954 0.028948
O O8 0.779552 0.708852 0.156235
O O9 0.074490 0.074490 0.750000
O O10 0.114781 0.210948 0.654442
O O11 0.784555 0.715446 0.500000
#
# Coordination Sequence:
#
# PCOD9559623 Si02
#       5
#    16  16  16  16  16
#     4  10  19  34  54  83 118 154 190 234 287 349
#     4   9  19  33  53  82 111 150 184 234 292 342
#     4   9  18  32  53  75 115 158 189 228 284 341
#     4  11  19  33  59  86 108 144 189 239 292 334
#     4   9  18  36  56  82 117 150 186 239 292 341
#
# _framework density 23.411926999999999
#
# number of rings (size 3 to 8) (size 9 to 14) (size 15 to 20)
#    0.000    2.400    4.000    1.800    0.000    2.000 
#    0.000    3.000    0.000   12.600    5.200    0.000 
#    0.000    0.000    0.000    0.000    0.000    0.000 
#
# Total GULP energy -223441.321211 kJ/mol
# GULP energy per Si atom -5586.033030 kJ/mol
# Density = 2.335864 g / cm^3
# Si number density = 23.411927 Si / 1000 Ang^3
#
#
#
# Elastic Constant Matrix: (Units=GPa)
#
#
# Indices 1 2 3 4 5 6 
#
# 1 39.1904 7.1516 16.7910 0.0000 0.0000 0.0000
# 2 7.1516 39.1890 16.7909 0.0000 0.0000 0.0000
# 3 16.7910 16.7909 139.6229 0.0000 0.0000 0.0000
# 4 0.0000 0.0000 0.0000 32.2087 0.0000 0.0000
# 5 0.0000 0.0000 0.0000 0.0000 32.2087 0.0000
# 6 0.0000 0.0000 0.0000 0.0000 0.0000 21.0902
#
#
#
# Elastic Compliance Matrix: (Units=1/GPa)
#
#
# Indices 1 2 3 4 5 6 
#
# 1 0.027425 -0.003787 -0.002843 0.000000 0.000000 0.000000
# 2 -0.003787 0.027426 -0.002843 0.000000 0.000000 0.000000
# 3 -0.002843 -0.002843 0.007846 0.000000 0.000000 0.000000
# 4 0.000000 0.000000 0.000000 0.031048 0.000000 0.000000
# 5 0.000000 0.000000 0.000000 0.000000 0.031047 0.000000
# 6 0.000000 0.000000 0.000000 0.000000 0.000000 0.047415
#
#
# Mechanical properties :
#
#
# Convention : Reuss Voigt Hill
#
# Bulk Modulus (GPa) = 22.85567 33.27437 28.06502
# Shear Modulus (GPa) = 24.30282 28.91945 26.61114
#
# Velocity S-wave (km/s) = 3.22538 3.51842 3.37508
# Velocity P-wave (km/s) = 4.86357 5.54519 5.21553
#
# Compressibility (1/GPa) = 0.04375282
#
# Stress axis : x y z
#
# Youngs Moduli (GPa) = 36.46244 36.46113 127.45515
#
# Poissons Ratio (x) = 0.13807 0.36233
# Poissons Ratio (y) = 0.13808 0.36234
# Poissons Ratio (z) = 0.10365 0.10365
#
# Static dielectric constant tensor:
#      x y z
#    x 1.905840 0.000000 0.000000 
#    y 0.000000 1.905840 0.000000 
#    z 0.000000 0.000000 1.934820 
# 
# From -- ./inp_files/3427.got.cif
#   From: 2010.05.17/outbox.cif.g08.bks.cpg/sg120_2_cif.got.tgz:3427.got - 2010.05.20 11:28:13.
