data_PCOD9559448
_publ_section_title
;
Structure prediction by ZEFSAII (Michael W. Deem and Ramdas Pophale) SiO2 
 PCOD9559448
Probable space group: I -4 M 2
;
_chemical_formula_sum "Si O2"
_cell_formula_units_Z 80
_cell_length_a 14.017085
_cell_length_b 14.017085
_cell_length_c 27.356302
_cell_angle_alpha 90.000000
_cell_angle_beta 90.000000
_cell_angle_gamma 90.000000
_cell_volume 5374.929885
_symmetry_space_group_name_H-M "I -4 M 2"
_symmetry_group_IT_number 119
_symmetry_cell_setting 'tetragonal'
loop_
_space_group_symop_operation_xyz
x,y,z
y,-x,-z
-x,-y,z
-y,x,-z
y,x,-z
-y,-x,-z
-x,y,z
x,-y,z
1/2+x,1/2+y,1/2+z
1/2+y,1/2-x,1/2-z
1/2-x,1/2-y,1/2+z
1/2-y,1/2+x,1/2-z
1/2+y,1/2+x,1/2-z
1/2-y,1/2-x,1/2-z
1/2-x,1/2+y,1/2+z
1/2+x,1/2-y,1/2+z
loop_
_atom_site_type_symbol
_atom_site_label
_atom_site_fract_x
_atom_site_fract_y
_atom_site_fract_z
Si Si1 0.394290 0.613567 0.764120
Si Si2 0.887723 0.887345 0.557617
Si Si3 0.705890 0.111365 0.203917
Si Si4 0.887029 0.386465 0.193153
Si Si5 0.704177 0.714876 0.854418
O O1 0.500000 0.646900 0.750033
O O2 0.396939 0.500000 0.771350
O O3 0.312668 0.630631 0.724300
O O4 0.361291 0.660196 0.814517
O O5 0.871146 0.871146 0.500000
O O6 0.822391 0.824905 0.592762
O O7 0.000000 0.868873 0.567508
O O8 0.871148 0.000000 0.567276
O O9 0.638480 0.138480 0.250000
O O10 0.691421 0.187341 0.160862
O O11 0.695771 0.000000 0.191496
O O12 0.867989 0.500000 0.186539
O O13 0.862808 0.362808 0.250000
O O14 0.824065 0.324127 0.156578
O O15 0.000000 0.372628 0.187229
#
# Coordination Sequence:
#
# PCOD9559448 Si02
#       5
#    16  16  16  16  16
#     4   9  16  26  42  65  90 111 136 175 217 254
#     4   9  18  32  49  69  89 104 125 168 224 271
#     4   9  19  31  41  59  87 119 151 180 210 247
#     4   9  17  27  39  61  94 125 148 170 203 253
#     4  11  18  26  45  64  83 114 149 178 208 253
#
# _framework density 14.883914000000001
#
# number of rings (size 3 to 8) (size 9 to 14) (size 15 to 20)
#    0.000    2.600    0.000    5.400    0.000    5.000 
#    0.000    0.000    0.000    1.200    0.000    2.800 
#    0.000    0.000    0.000    1.800    0.000    0.200 
#
# Total GULP energy -223039.436093 kJ/mol
# GULP energy per Si atom -5575.985902 kJ/mol
# Density = 1.485004 g / cm^3
# Si number density = 14.883914 Si / 1000 Ang^3
#
#
#
# Elastic Constant Matrix: (Units=GPa)
#
#
# Indices 1 2 3 4 5 6 
#
# 1 78.9986 31.7333 39.1043 0.0000 0.0000 0.0000
# 2 31.7333 78.9986 39.1043 0.0000 0.0000 0.0000
# 3 39.1043 39.1043 57.6998 0.0000 0.0000 0.0000
# 4 0.0000 0.0000 0.0000 20.3568 0.0000 0.0000
# 5 0.0000 0.0000 0.0000 0.0000 20.3568 0.0000
# 6 0.0000 0.0000 0.0000 0.0000 0.0000 18.8032
#
#
#
# Elastic Compliance Matrix: (Units=1/GPa)
#
#
# Indices 1 2 3 4 5 6 
#
# 1 0.019240 -0.001917 -0.011740 0.000000 0.000000 0.000000
# 2 -0.001917 0.019240 -0.011740 0.000000 0.000000 0.000000
# 3 -0.011740 -0.011740 0.033244 0.000000 0.000000 0.000000
# 4 0.000000 0.000000 0.000000 0.049124 0.000000 0.000000
# 5 0.000000 0.000000 0.000000 0.000000 0.049124 0.000000
# 6 0.000000 0.000000 0.000000 0.000000 0.000000 0.053182
#
#
# Mechanical properties :
#
#
# Convention : Reuss Voigt Hill
#
# Bulk Modulus (GPa) = 47.77952 48.39787 48.08870
# Shear Modulus (GPa) = 17.79842 18.95368 18.37605
#
# Velocity S-wave (km/s) = 3.46181 3.57239 3.51754
# Velocity P-wave (km/s) = 6.93902 7.04297 6.99119
#
# Compressibility (1/GPa) = 0.02092947
#
# Stress axis : x y z
#
# Youngs Moduli (GPa) = 51.97550 51.97550 30.08087
#
# Poissons Ratio (x) = 0.09965 0.35314
# Poissons Ratio (y) = 0.09965 0.35314
# Poissons Ratio (z) = 0.61018 0.61018
#
# Static dielectric constant tensor:
#      x y z
#    x 1.527670 0.000000 0.000000 
#    y 0.000000 1.527670 0.000000 
#    z 0.000000 0.000000 1.458190 
# 
# From -- ./inp_files/7528.got.cif
#   From: 2010.05.17/outbox.cif.g08.bks.cpg/sg119_4_cif.got.tgz:7528.got - 2010.05.20 11:21:29.
