data_PCOD9559991
_publ_section_title
;
Structure prediction by ZEFSAII (Michael W. Deem and Ramdas Pophale) SiO2 
 PCOD9559991
Probable space group: I -4 C 2
;
_chemical_formula_sum "Si O2"
_cell_formula_units_Z 96
_cell_length_a 14.335510
_cell_length_b 14.335510
_cell_length_c 19.137259
_cell_angle_alpha 90.000000
_cell_angle_beta 90.000000
_cell_angle_gamma 90.000000
_cell_volume 3932.837757
_symmetry_space_group_name_H-M "I -4 C 2"
_symmetry_group_IT_number 120
_symmetry_cell_setting 'tetragonal'
loop_
_space_group_symop_operation_xyz
x,y,z
y,-x,-z
-x,-y,z
-y,x,-z
y,x,1/2-z
-y,-x,1/2-z
-x,y,1/2+z
x,-y,1/2+z
1/2+x,1/2+y,1/2+z
1/2+y,1/2-x,1/2-z
1/2-x,1/2-y,1/2+z
1/2-y,1/2+x,1/2-z
1/2+y,1/2+x,-z
1/2-y,1/2-x,-z
1/2-x,1/2+y,z
1/2+x,1/2-y,z
loop_
_atom_site_type_symbol
_atom_site_label
_atom_site_fract_x
_atom_site_fract_y
_atom_site_fract_z
Si Si1 0.934071 0.143526 0.371489
Si Si2 0.000120 0.687123 0.176234
Si Si3 0.873160 0.346161 0.924208
Si Si4 0.944272 0.660012 0.829447
Si Si5 0.939642 0.864827 0.147192
Si Si6 0.350186 0.290017 0.517674
O O1 0.900513 0.236741 0.333812
O O2 0.894847 0.159462 0.450148
O O3 0.045687 0.126285 0.360085
O O4 0.898194 0.045125 0.344631
O O5 0.924756 0.617540 0.144155
O O6 0.939383 0.778588 0.200321
O O7 0.088304 0.693914 0.123205
O O8 0.037503 0.644994 0.248089
O O9 0.833324 0.244207 0.946693
O O10 0.965053 0.335556 0.878047
O O11 0.891550 0.391550 0.000000
O O12 0.927303 0.806293 0.075987
O O13 0.313982 0.186019 0.500000
#
# Coordination Sequence:
#
# PCOD9559991 Si02
#       6
#    16  16  16  16  16  16
#     4  11  25  46  74 108 155 201 268 334 404 484
#     4  12  27  47  79 112 161 210 273 336 412 492
#     4  11  25  47  78 115 154 201 268 336 404 484
#     4  12  26  50  76 115 159 217 266 337 414 488
#     4  11  24  45  71 110 149 210 262 331 399 485
#     4  11  22  43  74 113 154 194 261 332 403 476
#
# _framework density 24.409853999999999
#
# number of rings (size 3 to 8) (size 9 to 14) (size 15 to 20)
#    0.000    0.667    3.333    4.500    2.333    4.000 
#    0.000    3.333    0.000    0.000    0.000    0.000 
#    0.000    0.000    0.000    0.000    0.000    0.000 
#
# Total GULP energy -267745.168804 kJ/mol
# GULP energy per Si atom -5578.024350 kJ/mol
# Density = 2.435430 g / cm^3
# Si number density = 24.409854 Si / 1000 Ang^3
#
#
#
# Elastic Constant Matrix: (Units=GPa)
#
#
# Indices 1 2 3 4 5 6 
#
# 1 85.6140 36.9517 15.7047 0.0000 0.0000 0.0000
# 2 36.9517 85.6146 15.7049 0.0000 0.0000 0.0000
# 3 15.7047 15.7049 91.3620 0.0000 0.0000 0.0000
# 4 0.0000 0.0000 0.0000 25.3023 0.0000 0.0000
# 5 0.0000 0.0000 0.0000 0.0000 25.3020 0.0000
# 6 0.0000 0.0000 0.0000 0.0000 0.0000 33.6002
#
#
#
# Elastic Compliance Matrix: (Units=1/GPa)
#
#
# Indices 1 2 3 4 5 6 
#
# 1 0.014542 -0.006007 -0.001467 0.000000 0.000000 0.000000
# 2 -0.006007 0.014542 -0.001467 0.000000 0.000000 0.000000
# 3 -0.001467 -0.001467 0.011450 0.000000 0.000000 0.000000
# 4 0.000000 0.000000 0.000000 0.039522 0.000000 0.000000
# 5 0.000000 0.000000 0.000000 0.000000 0.039523 0.000000
# 6 0.000000 0.000000 0.000000 0.000000 0.000000 0.029762
#
#
# Mechanical properties :
#
#
# Convention : Reuss Voigt Hill
#
# Bulk Modulus (GPa) = 44.14797 44.36813 44.25805
# Shear Modulus (GPa) = 28.60830 29.78951 29.19891
#
# Velocity S-wave (km/s) = 3.42716 3.49720 3.46236
# Velocity P-wave (km/s) = 5.81257 5.87562 5.84418
#
# Compressibility (1/GPa) = 0.02265110
#
# Stress axis : x y z
#
# Youngs Moduli (GPa) = 68.76488 68.76534 87.33738
#
# Poissons Ratio (x) = 0.41310 0.12813
# Poissons Ratio (y) = 0.41310 0.12813
# Poissons Ratio (z) = 0.10089 0.10089
#
# Static dielectric constant tensor:
#      x y z
#    x 2.064370 0.000000 0.000000 
#    y 0.000000 2.064370 0.000000 
#    z 0.000000 0.000000 1.965180 
# 
# From -- ./inp_files/5381.got.cif
#   From: 2010.05.17/outbox.cif.g08.bks.cpg/sg120_3_cif.got.tgz:5381.got - 2010.05.20 11:28:13.
