data_PCOD9559735
_publ_section_title
;
Structure prediction by ZEFSAII (Michael W. Deem and Ramdas Pophale) SiO2 
 PCOD9559735
Probable space group: I -4 C 2
;
_chemical_formula_sum "Si O2"
_cell_formula_units_Z 96
_cell_length_a 24.009437
_cell_length_b 24.009437
_cell_length_c 8.575811
_cell_angle_alpha 90.000000
_cell_angle_beta 90.000000
_cell_angle_gamma 90.000000
_cell_volume 4943.552536
_symmetry_space_group_name_H-M "I -4 C 2"
_symmetry_group_IT_number 120
_symmetry_cell_setting 'tetragonal'
loop_
_space_group_symop_operation_xyz
x,y,z
y,-x,-z
-x,-y,z
-y,x,-z
y,x,1/2-z
-y,-x,1/2-z
-x,y,1/2+z
x,-y,1/2+z
1/2+x,1/2+y,1/2+z
1/2+y,1/2-x,1/2-z
1/2-x,1/2-y,1/2+z
1/2-y,1/2+x,1/2-z
1/2+y,1/2+x,-z
1/2-y,1/2-x,-z
1/2-x,1/2+y,z
1/2+x,1/2-y,z
loop_
_atom_site_type_symbol
_atom_site_label
_atom_site_fract_x
_atom_site_fract_y
_atom_site_fract_z
Si Si1 0.426609 0.352871 0.333532
Si Si2 0.574592 0.706780 0.842518
Si Si3 0.921491 0.718059 0.864324
Si Si4 0.202053 0.202053 0.250000
Si Si5 0.992173 0.730803 0.600470
Si Si6 0.395599 0.532233 0.327272
Si Si7 0.199837 0.699837 0.500000
O O1 0.368598 0.368598 0.250000
O O2 0.427501 0.286279 0.360571
O O3 0.445353 0.380721 0.499451
O O4 0.469244 0.376925 0.203908
O O5 0.640939 0.711367 0.827484
O O6 0.538129 0.740032 0.712603
O O7 0.563258 0.643630 0.798518
O O8 0.545298 0.726131 0.000583
O O9 0.945921 0.698820 0.699625
O O10 0.967858 0.697324 0.986075
O O11 0.859455 0.703655 0.912271
O O12 0.249758 0.205195 0.379037
O O13 0.455212 0.544789 0.250000
#
# Coordination Sequence:
#
# PCOD9559735 Si02
#       7
#    16  16  16   8  16  16   8
#     4  12  24  37  57  82 109 159 207 262 333 385
#     4  11  20  39  60  84 112 160 219 262 309 378
#     4  11  22  41  63  89 122 162 219 259 313 396
#     4  12  26  40  58  88 141 176 201 254 344 404
#     4  10  20  39  66  85 108 161 221 269 302 366
#     4  12  22  37  57  80 109 144 211 279 316 372
#     4  12  28  42  56 100 138 179 204 271 330 422
#
# _framework density 19.419232000000001
#
# number of rings (size 3 to 8) (size 9 to 14) (size 15 to 20)
#    0.000    0.667    7.500    1.000    5.833    0.333 
#    0.000    1.667    0.000    0.000    0.000    0.000 
#    0.000    2.000    0.000    0.000    0.000    0.000 
#
# Total GULP energy -267580.754795 kJ/mol
# GULP energy per Si atom -5574.599058 kJ/mol
# Density = 1.937503 g / cm^3
# Si number density = 19.419232 Si / 1000 Ang^3
#
#
#
# Elastic Constant Matrix: (Units=GPa)
#
#
# Indices 1 2 3 4 5 6 
#
# 1 15.2146 102.9837 31.0344 0.0000 0.0000 0.0000
# 2 102.9837 15.2142 31.0335 0.0000 0.0000 0.0000
# 3 31.0344 31.0335 110.0796 0.0000 0.0000 0.0000
# 4 0.0000 0.0000 0.0000 23.0277 0.0000 0.0000
# 5 0.0000 0.0000 0.0000 0.0000 23.0276 0.0000
# 6 0.0000 0.0000 0.0000 0.0000 0.0000 30.8060
#
#
#
# Elastic Compliance Matrix: (Units=1/GPa)
#
#
# Indices 1 2 3 4 5 6 
#
# 1 -0.000732 0.010662 -0.002800 0.000000 0.000000 0.000000
# 2 0.010662 -0.000731 -0.002800 0.000000 0.000000 0.000000
# 3 -0.002800 -0.002800 0.010663 0.000000 0.000000 0.000000
# 4 0.000000 0.000000 0.000000 0.043426 0.000000 0.000000
# 5 0.000000 0.000000 0.000000 0.000000 0.043426 0.000000
# 6 0.000000 0.000000 0.000000 0.000000 0.000000 0.032461
#
#
# Mechanical properties :
#
#
# Convention : Reuss Voigt Hill
#
# Bulk Modulus (GPa) = 51.74545 52.29018 52.01782
# Shear Modulus (GPa) = 40.05466 13.73606 26.89536
#
# Velocity S-wave (km/s) = 4.54654 2.66248 3.72558
# Velocity P-wave (km/s) = 7.36653 6.03632 6.73435
#
# Compressibility (1/GPa) = 0.01932537
#
# Stress axis : x y z
#
# Youngs Moduli (GPa) = -1367.04539 -1367.05894 93.78311
#
# Poissons Ratio (x) = 14.57559 0.26255
# Poissons Ratio (y) = 14.57545 0.26256
# Poissons Ratio (z) = -3.82717 -3.82733
#
# Static dielectric constant tensor:
#      x y z
#    x 1.718630 0.000000 0.000000 
#    y 0.000000 1.718630 0.000000 
#    z 0.000000 0.000000 1.783990 
# 
# From -- ./inp_files/1585.got.cif
#   From: 2010.05.17/outbox.cif.g08.bks.cpg/sg120_1_cif.got.tgz:1585.got - 2010.05.20 11:28:13.
