data_PCOD9559080
_publ_section_title
;
Structure prediction by ZEFSAII (Michael W. Deem and Ramdas Pophale) SiO2 
 PCOD9559080
Probable space group: I -4 M 2
;
_chemical_formula_sum "Si O2"
_cell_formula_units_Z 42
_cell_length_a 8.136767
_cell_length_b 8.136767
_cell_length_c 32.959455
_cell_angle_alpha 90.000000
_cell_angle_beta 90.000000
_cell_angle_gamma 90.000000
_cell_volume 2182.145886
_symmetry_space_group_name_H-M "I -4 M 2"
_symmetry_group_IT_number 119
_symmetry_cell_setting 'tetragonal'
loop_
_space_group_symop_operation_xyz
x,y,z
y,-x,-z
-x,-y,z
-y,x,-z
y,x,-z
-y,-x,-z
-x,y,z
x,-y,z
1/2+x,1/2+y,1/2+z
1/2+y,1/2-x,1/2-z
1/2-x,1/2-y,1/2+z
1/2-y,1/2+x,1/2-z
1/2+y,1/2+x,1/2-z
1/2-y,1/2-x,1/2-z
1/2-x,1/2+y,1/2+z
1/2+x,1/2-y,1/2+z
loop_
_atom_site_type_symbol
_atom_site_label
_atom_site_fract_x
_atom_site_fract_y
_atom_site_fract_z
Si Si1 0.190088 0.500000 0.171843
Si Si2 0.322077 0.303798 0.369863
Si Si3 0.500000 0.000000 0.750000
Si Si4 0.801311 0.806692 0.545183
O O1 0.266205 0.666602 0.154724
O O2 0.156121 0.500000 0.219928
O O3 0.000000 0.500000 0.155353
O O4 0.500000 0.234771 0.358464
O O5 0.327797 0.500000 0.362503
O O6 0.289669 0.273394 0.417333
O O7 0.751468 0.751468 0.500000
O O8 0.000000 0.795416 0.546834
O O9 0.758428 0.000000 0.549619
#
# Coordination Sequence:
#
# PCOD9559080 Si02
#       4
#     8  16   2  16
#     4   8  16  32  53  78 103 140 177 229 280 342
#     4  10  19  31  51  77 105 140 181 228 280 333
#     4   8  16  32  60  80  96 144 184 216 308 352
#     4   9  18  32  49  70 103 149 196 236 277 333
#
# _framework density 19.247108999999998
#
# number of rings (size 3 to 8) (size 9 to 14) (size 15 to 20)
#    0.571    2.286    1.905    1.143    0.000    2.286 
#    0.000    5.714    0.000    4.571    0.000    0.000 
#    0.000    0.000    0.000    0.000    0.000    0.000 
#
# Total GULP energy -116917.969698 kJ/mol
# GULP energy per Si atom -5567.522367 kJ/mol
# Density = 1.920330 g / cm^3
# Si number density = 19.247109 Si / 1000 Ang^3
#
#
#
# Elastic Constant Matrix: (Units=GPa)
#
#
# Indices 1 2 3 4 5 6 
#
# 1 67.3581 19.0186 32.4290 0.0000 0.0000 0.0000
# 2 19.0186 67.3581 32.4290 0.0000 0.0000 0.0000
# 3 32.4290 32.4290 103.8028 0.0000 0.0000 0.0000
# 4 0.0000 0.0000 0.0000 18.7877 0.0000 0.0000
# 5 0.0000 0.0000 0.0000 0.0000 18.7877 0.0000
# 6 0.0000 0.0000 0.0000 0.0000 0.0000 9.9682
#
#
#
# Elastic Compliance Matrix: (Units=1/GPa)
#
#
# Indices 1 2 3 4 5 6 
#
# 1 0.017906 -0.002781 -0.004725 0.000000 0.000000 0.000000
# 2 -0.002781 0.017906 -0.004725 0.000000 0.000000 0.000000
# 3 -0.004725 -0.004725 0.012586 0.000000 0.000000 0.000000
# 4 0.000000 0.000000 0.000000 0.053226 0.000000 0.000000
# 5 0.000000 0.000000 0.000000 0.000000 0.053226 0.000000
# 6 0.000000 0.000000 0.000000 0.000000 0.000000 0.100320
#
#
# Mechanical properties :
#
#
# Convention : Reuss Voigt Hill
#
# Bulk Modulus (GPa) = 41.77888 45.14134 43.46011
# Shear Modulus (GPa) = 17.38454 19.81821 18.60137
#
# Velocity S-wave (km/s) = 3.00864 3.21233 3.11215
# Velocity P-wave (km/s) = 5.81575 6.10436 5.96180
#
# Compressibility (1/GPa) = 0.02393554
#
# Stress axis : x y z
#
# Youngs Moduli (GPa) = 55.84679 55.84679 79.45275
#
# Poissons Ratio (x) = 0.15530 0.37544
# Poissons Ratio (y) = 0.15530 0.37544
# Poissons Ratio (z) = 0.26389 0.26389
#
# Static dielectric constant tensor:
#      x y z
#    x 1.703110 0.000000 0.000000 
#    y 0.000000 1.703110 0.000000 
#    z 0.000000 0.000000 1.646560 
# 
# From -- ./inp_files/9797.got.cif
#   From: 2010.05.17/outbox.cif.g08.bks.cpg/sg119_5_cif.got.tgz:9797.got - 2010.05.20 11:21:29.
