data_PCOD9559752
_publ_section_title
;
Structure prediction by ZEFSAII (Michael W. Deem and Ramdas Pophale) SiO2 
 PCOD9559752
Probable space group: I -4 C 2
;
_chemical_formula_sum "Si O2"
_cell_formula_units_Z 120
_cell_length_a 14.258271
_cell_length_b 14.258271
_cell_length_c 27.765664
_cell_angle_alpha 90.000000
_cell_angle_beta 90.000000
_cell_angle_gamma 90.000000
_cell_volume 5644.712065
_symmetry_space_group_name_H-M "I -4 C 2"
_symmetry_group_IT_number 120
_symmetry_cell_setting 'tetragonal'
loop_
_space_group_symop_operation_xyz
x,y,z
y,-x,-z
-x,-y,z
-y,x,-z
y,x,1/2-z
-y,-x,1/2-z
-x,y,1/2+z
x,-y,1/2+z
1/2+x,1/2+y,1/2+z
1/2+y,1/2-x,1/2-z
1/2-x,1/2-y,1/2+z
1/2-y,1/2+x,1/2-z
1/2+y,1/2+x,-z
1/2-y,1/2-x,-z
1/2-x,1/2+y,z
1/2+x,1/2-y,z
loop_
_atom_site_type_symbol
_atom_site_label
_atom_site_fract_x
_atom_site_fract_y
_atom_site_fract_z
Si Si1 0.140555 0.126663 0.304144
Si Si2 0.000000 0.000000 0.084040
Si Si3 0.014995 0.187313 0.957753
Si Si4 0.778515 0.484759 0.143629
Si Si5 0.639833 0.148634 0.200475
Si Si6 0.941047 0.179685 0.134094
Si Si7 0.580715 0.155086 0.690777
Si Si8 0.132989 0.769215 0.032146
O O1 0.103781 0.103781 0.250000
O O2 0.066253 0.194976 0.327905
O O3 0.243587 0.170020 0.297242
O O4 0.164079 0.044550 0.342127
O O5 0.914951 0.964324 0.051002
O O6 0.937699 0.073479 0.114536
O O7 0.126145 0.177763 0.966259
O O8 0.991907 0.252161 0.911919
O O9 0.963924 0.229088 0.003476
O O10 0.797478 0.587028 0.165243
O O11 0.866841 0.420380 0.157900
O O12 0.530907 0.144294 0.184330
O O13 0.640652 0.105815 0.253809
O O14 0.892977 0.238087 0.176548
O O15 0.903890 0.240428 0.087865
O O16 0.200998 0.700998 0.000000
#
# Coordination Sequence:
#
# PCOD9559752 Si02
#       8
#    16   8  16  16  16  16  16  16
#     4  11  22  42  64  99 145 190 239 298 357 444
#     4  10  20  43  65  98 134 178 229 272 359 438
#     4  11  24  42  72 100 133 181 227 292 360 434
#     4  12  23  39  65 103 141 174 244 302 356 435
#     4  11  23  40  68  95 138 195 244 291 369 435
#     4  10  22  40  67  99 135 183 233 300 365 428
#     4  11  21  40  67  96 138 184 244 293 355 436
#     4  11  24  47  74 103 136 180 242 296 367 444
#
# _framework density 21.258834
#
# number of rings (size 3 to 8) (size 9 to 14) (size 15 to 20)
#    0.000    1.067    4.000    3.600    0.000    3.733 
#    2.400    0.333    2.933    0.000    0.000    0.000 
#    0.000    0.000    0.000    0.000    0.000    0.000 
#
# Total GULP energy -334034.997770 kJ/mol
# GULP energy per Si atom -5567.249963 kJ/mol
# Density = 2.121045 g / cm^3
# Si number density = 21.258834 Si / 1000 Ang^3
#
#
#
# Elastic Constant Matrix: (Units=GPa)
#
#
# Indices 1 2 3 4 5 6 
#
# 1 54.7924 -3.3031 23.6115 0.0000 0.0000 0.0000
# 2 -3.3031 54.7924 23.6115 0.0000 0.0000 0.0000
# 3 23.6115 23.6115 94.9339 0.0000 0.0000 0.0000
# 4 0.0000 0.0000 0.0000 30.6355 0.0000 0.0000
# 5 0.0000 0.0000 0.0000 0.0000 30.6355 0.0000
# 6 0.0000 0.0000 0.0000 0.0000 0.0000 74.5213
#
#
#
# Elastic Compliance Matrix: (Units=1/GPa)
#
#
# Indices 1 2 3 4 5 6 
#
# 1 0.021187 0.003974 -0.006258 0.000000 0.000000 0.000000
# 2 0.003974 0.021187 -0.006258 0.000000 0.000000 0.000000
# 3 -0.006258 -0.006258 0.013647 0.000000 0.000000 0.000000
# 4 0.000000 0.000000 0.000000 0.032642 0.000000 0.000000
# 5 0.000000 0.000000 0.000000 0.000000 0.032642 0.000000
# 6 0.000000 0.000000 0.000000 0.000000 0.000000 0.013419
#
#
# Mechanical properties :
#
#
# Convention : Reuss Voigt Hill
#
# Bulk Modulus (GPa) = 25.68268 32.48427 29.08348
# Shear Modulus (GPa) = 30.34241 37.86503 34.10372
#
# Velocity S-wave (km/s) = 3.78204 4.22494 4.00961
# Velocity P-wave (km/s) = 5.58381 6.25409 5.92843
#
# Compressibility (1/GPa) = 0.03893674
#
# Stress axis : x y z
#
# Youngs Moduli (GPa) = 47.19882 47.19882 73.27883
#
# Poissons Ratio (x) = -0.18757 0.45857
# Poissons Ratio (y) = -0.18757 0.45857
# Poissons Ratio (z) = 0.29537 0.29537
#
# Static dielectric constant tensor:
#      x y z
#    x 1.837560 0.000000 0.000000 
#    y 0.000000 1.837560 0.000000 
#    z 0.000000 0.000000 1.862670 
# 
# From -- ./inp_files/6725.got.cif
#   From: 2010.05.17/outbox.cif.g08.bks.cpg/sg120_4_cif.got.tgz:6725.got - 2010.05.20 11:28:13.
