data_PCOD9559213
_publ_section_title
;
Structure prediction by ZEFSAII (Michael W. Deem and Ramdas Pophale) SiO2 
 PCOD9559213
Probable space group: I -4 M 2
;
_chemical_formula_sum "Si O2"
_cell_formula_units_Z 128
_cell_length_a 21.002600
_cell_length_b 21.002600
_cell_length_c 15.173627
_cell_angle_alpha 90.000000
_cell_angle_beta 90.000000
_cell_angle_gamma 90.000000
_cell_volume 6693.226570
_symmetry_space_group_name_H-M "I -4 M 2"
_symmetry_group_IT_number 119
_symmetry_cell_setting 'tetragonal'
loop_
_space_group_symop_operation_xyz
x,y,z
y,-x,-z
-x,-y,z
-y,x,-z
y,x,-z
-y,-x,-z
-x,y,z
x,-y,z
1/2+x,1/2+y,1/2+z
1/2+y,1/2-x,1/2-z
1/2-x,1/2-y,1/2+z
1/2-y,1/2+x,1/2-z
1/2+y,1/2+x,1/2-z
1/2-y,1/2-x,1/2-z
1/2-x,1/2+y,1/2+z
1/2+x,1/2-y,1/2+z
loop_
_atom_site_type_symbol
_atom_site_label
_atom_site_fract_x
_atom_site_fract_y
_atom_site_fract_z
Si Si1 0.761225 0.382031 0.093461
Si Si2 0.719147 0.574839 0.431661
Si Si3 0.784957 0.679756 0.526637
Si Si4 0.317657 0.073673 0.769173
Si Si5 0.574812 0.427601 0.621906
Si Si6 0.665095 0.433298 0.965884
Si Si7 0.305243 0.266362 0.186122
Si Si8 0.311833 0.568175 0.757962
O O1 0.781359 0.423051 0.176144
O O2 0.711192 0.329494 0.131162
O O3 0.815667 0.340668 0.045939
O O4 0.730804 0.423125 0.016251
O O5 0.724908 0.500000 0.446554
O O6 0.748590 0.613696 0.513513
O O7 0.764136 0.589824 0.345266
O O8 0.643067 0.587693 0.419487
O O9 0.732098 0.732098 0.500000
O O10 0.811054 0.707465 0.618487
O O11 0.375439 0.124561 0.750000
O O12 0.338705 0.000000 0.786120
O O13 0.500000 0.426197 0.645759
O O14 0.583834 0.500000 0.578061
O O15 0.623090 0.428259 0.703515
O O16 0.635997 0.500000 0.993091
O O17 0.673968 0.432630 0.862031
O O18 0.621092 0.378909 0.000000
O O19 0.245991 0.254010 0.250000
O O20 0.366569 0.273384 0.248275
O O21 0.280950 0.500000 0.734697
#
# Coordination Sequence:
#
# PCOD9559213 Si02
#       8
#    16  16  16  16  16  16  16  16
#     4  11  19  36  53  80 110 146 190 234 279 341
#     4  10  21  38  59  85 117 152 197 241 284 345
#     4  10  21  35  56  82 112 142 183 235 290 334
#     4  11  22  35  57  86 117 154 193 239 291 348
#     4   9  19  35  56  83 118 160 200 239 284 337
#     4  11  21  34  49  72 110 151 193 233 275 332
#     4  11  22  36  59  83 110 141 182 239 298 344
#     4  10  20  34  51  75 112 149 188 234 280 335
#
# _framework density 19.123811
#
# number of rings (size 3 to 8) (size 9 to 14) (size 15 to 20)
#    0.000    1.625    3.750    1.875    5.250    0.750 
#    0.000    2.500    0.000    0.000    0.000    0.000 
#    0.000    1.250    0.000    0.000    0.000    0.000 
#
# Total GULP energy -356394.096253 kJ/mol
# GULP energy per Si atom -5568.657754 kJ/mol
# Density = 1.908028 g / cm^3
# Si number density = 19.123811 Si / 1000 Ang^3
#
#
#
# Elastic Constant Matrix: (Units=GPa)
#
#
# Indices 1 2 3 4 5 6 
#
# 1 81.9053 40.6126 23.1442 0.0000 0.0000 0.0000
# 2 40.6126 81.9052 23.1446 0.0000 0.0000 0.0000
# 3 23.1442 23.1446 44.4946 0.0000 0.0000 0.0000
# 4 0.0000 0.0000 0.0000 25.6298 0.0000 0.0000
# 5 0.0000 0.0000 0.0000 0.0000 25.6299 0.0000
# 6 0.0000 0.0000 0.0000 0.0000 0.0000 24.2026
#
#
#
# Elastic Compliance Matrix: (Units=1/GPa)
#
#
# Indices 1 2 3 4 5 6 
#
# 1 0.017188 -0.007029 -0.005284 0.000000 0.000000 0.000000
# 2 -0.007029 0.017188 -0.005284 0.000000 0.000000 0.000000
# 3 -0.005284 -0.005284 0.027972 0.000000 0.000000 0.000000
# 4 0.000000 0.000000 0.000000 0.039017 0.000000 0.000000
# 5 0.000000 0.000000 0.000000 0.000000 0.039017 0.000000
# 6 0.000000 0.000000 0.000000 0.000000 0.000000 0.041318
#
#
# Mechanical properties :
#
#
# Convention : Reuss Voigt Hill
#
# Bulk Modulus (GPa) = 36.82903 42.45643 39.64273
# Shear Modulus (GPa) = 22.12923 23.18603 22.65763
#
# Velocity S-wave (km/s) = 3.40539 3.48575 3.44581
# Velocity P-wave (km/s) = 5.89595 6.20078 6.05029
#
# Compressibility (1/GPa) = 0.02715250
#
# Stress axis : x y z
#
# Youngs Moduli (GPa) = 58.18065 58.18022 35.75038
#
# Poissons Ratio (x) = 0.40898 0.18890
# Poissons Ratio (y) = 0.40898 0.18891
# Poissons Ratio (z) = 0.30742 0.30743
#
# Static dielectric constant tensor:
#      x y z
#    x 1.712570 0.000000 0.000000 
#    y 0.000000 1.712560 0.000000 
#    z 0.000000 0.000000 1.705970 
# 
# From -- ./inp_files/6943.got.cif
#   From: 2010.05.17/outbox.cif.g08.bks.cpg/sg119_4_cif.got.tgz:6943.got - 2010.05.20 11:21:29.
