data_PCOD9559327
_publ_section_title
;
Structure prediction by ZEFSAII (Michael W. Deem and Ramdas Pophale) SiO2 
 PCOD9559327
Probable space group: I -4 M 2
;
_chemical_formula_sum "Si O2"
_cell_formula_units_Z 112
_cell_length_a 14.713068
_cell_length_b 14.713068
_cell_length_c 26.735258
_cell_angle_alpha 90.000000
_cell_angle_beta 90.000000
_cell_angle_gamma 90.000000
_cell_volume 5787.498132
_symmetry_space_group_name_H-M "I -4 M 2"
_symmetry_group_IT_number 119
_symmetry_cell_setting 'tetragonal'
loop_
_space_group_symop_operation_xyz
x,y,z
y,-x,-z
-x,-y,z
-y,x,-z
y,x,-z
-y,-x,-z
-x,y,z
x,-y,z
1/2+x,1/2+y,1/2+z
1/2+y,1/2-x,1/2-z
1/2-x,1/2-y,1/2+z
1/2-y,1/2+x,1/2-z
1/2+y,1/2+x,1/2-z
1/2-y,1/2-x,1/2-z
1/2-x,1/2+y,1/2+z
1/2+x,1/2-y,1/2+z
loop_
_atom_site_type_symbol
_atom_site_label
_atom_site_fract_x
_atom_site_fract_y
_atom_site_fract_z
Si Si1 0.889489 0.396098 0.392738
Si Si2 0.889808 0.397078 0.994937
Si Si3 0.360451 0.602958 0.762628
Si Si4 0.110037 0.207094 0.954019
Si Si5 0.890756 0.792091 0.844611
Si Si6 0.397488 0.796389 0.793731
Si Si7 0.597074 0.844974 0.197208
O O1 0.857042 0.500000 0.385691
O O2 0.867872 0.363051 0.448606
O O3 0.861988 0.332566 0.346920
O O4 0.000000 0.399220 0.392370
O O5 0.857303 0.500000 0.983958
O O6 0.000000 0.401761 0.995827
O O7 0.865296 0.314089 0.959122
O O8 0.397530 0.500000 0.766168
O O9 0.351842 0.630859 0.704146
O O10 0.402615 0.687723 0.791122
O O11 0.258973 0.598163 0.784744
O O12 0.140735 0.175050 0.898940
O O13 0.000000 0.199764 0.957368
O O14 0.153466 0.153466 0.000000
O O15 0.862598 0.688068 0.833678
O O16 0.000000 0.790584 0.846202
O O17 0.500000 0.832818 0.785942
O O18 0.333509 0.833509 0.750000
O O19 0.500000 0.865721 0.172143
O O20 0.602746 0.897255 0.250000
#
# Coordination Sequence:
#
# PCOD9559327 Si02
#       7
#    16  16  16  16  16  16  16
#     4   8  15  29  48  72 102 128 150 185 236 292
#     4   8  15  30  51  73  98 127 157 192 240 296
#     4   9  19  35  50  66  95 134 171 203 236 284
#     4  10  21  35  51  71  95 127 166 208 250 289
#     4   9  18  32  48  68  96 126 161 208 251 286
#     4  11  21  31  48  73  99 129 164 203 246 291
#     4   9  16  27  46  71  99 130 161 195 238 291
#
# _framework density 19.352059000000001
#
# number of rings (size 3 to 8) (size 9 to 14) (size 15 to 20)
#    0.000    2.857    0.000    3.857    0.000    5.000 
#    0.000    3.571    0.000    2.571    0.000    0.000 
#    0.000    0.286    0.000    0.000    0.000    4.857 
#
# Total GULP energy -312054.580207 kJ/mol
# GULP energy per Si atom -5572.403218 kJ/mol
# Density = 1.930801 g / cm^3
# Si number density = 19.352059 Si / 1000 Ang^3
#
#
#
# Elastic Constant Matrix: (Units=GPa)
#
#
# Indices 1 2 3 4 5 6 
#
# 1 47.5860 -1.6054 7.2215 0.0000 0.0000 0.0000
# 2 -1.6054 47.5862 7.2218 0.0000 0.0000 0.0000
# 3 7.2215 7.2218 71.3920 0.0000 0.0000 0.0000
# 4 0.0000 0.0000 0.0000 14.0614 0.0000 0.0000
# 5 0.0000 0.0000 0.0000 0.0000 14.0612 0.0000
# 6 0.0000 0.0000 0.0000 0.0000 0.0000 16.6900
#
#
#
# Elastic Compliance Matrix: (Units=1/GPa)
#
#
# Indices 1 2 3 4 5 6 
#
# 1 0.021395 0.001067 -0.002272 0.000000 0.000000 0.000000
# 2 0.001067 0.021395 -0.002272 0.000000 0.000000 0.000000
# 3 -0.002272 -0.002272 0.014467 0.000000 0.000000 0.000000
# 4 0.000000 0.000000 0.000000 0.071117 0.000000 0.000000
# 5 0.000000 0.000000 0.000000 0.000000 0.071117 0.000000
# 6 0.000000 0.000000 0.000000 0.000000 0.000000 0.059916
#
#
# Mechanical properties :
#
#
# Convention : Reuss Voigt Hill
#
# Bulk Modulus (GPa) = 19.87980 21.35997 20.61989
# Shear Modulus (GPa) = 17.65970 19.21095 18.43532
#
# Velocity S-wave (km/s) = 3.02412 3.15415 3.08982
# Velocity P-wave (km/s) = 4.74223 4.93218 4.83814
#
# Compressibility (1/GPa) = 0.05030231
#
# Stress axis : x y z
#
# Youngs Moduli (GPa) = 46.73908 46.73920 69.12353
#
# Poissons Ratio (x) = -0.04985 0.15705
# Poissons Ratio (y) = -0.04985 0.15706
# Poissons Ratio (z) = 0.10620 0.10620
#
# Static dielectric constant tensor:
#      x y z
#    x 1.717770 0.000000 0.000000 
#    y 0.000000 1.717770 0.000000 
#    z 0.000000 0.000000 1.699300 
# 
# From -- ./inp_files/9575.got.cif
#   From: 2010.05.17/outbox.cif.g08.bks.cpg/sg119_5_cif.got.tgz:9575.got - 2010.05.20 11:21:29.
