data_PCOD9559532
_publ_section_title
;
Structure prediction by ZEFSAII (Michael W. Deem and Ramdas Pophale) SiO2 
 PCOD9559532
Probable space group: I -4 M 2
;
_chemical_formula_sum "Si O2"
_cell_formula_units_Z 24
_cell_length_a 10.219124
_cell_length_b 10.219124
_cell_length_c 10.136981
_cell_angle_alpha 90.000000
_cell_angle_beta 90.000000
_cell_angle_gamma 90.000000
_cell_volume 1058.609947
_symmetry_space_group_name_H-M "I -4 M 2"
_symmetry_group_IT_number 119
_symmetry_cell_setting 'tetragonal'
loop_
_space_group_symop_operation_xyz
x,y,z
y,-x,-z
-x,-y,z
-y,x,-z
y,x,-z
-y,-x,-z
-x,y,z
x,-y,z
1/2+x,1/2+y,1/2+z
1/2+y,1/2-x,1/2-z
1/2-x,1/2-y,1/2+z
1/2-y,1/2+x,1/2-z
1/2+y,1/2+x,1/2-z
1/2-y,1/2-x,1/2-z
1/2-x,1/2+y,1/2+z
1/2+x,1/2-y,1/2+z
loop_
_atom_site_type_symbol
_atom_site_label
_atom_site_fract_x
_atom_site_fract_y
_atom_site_fract_z
Si Si1 0.785132 0.214869 0.000000
Si Si2 0.150492 0.000000 0.216583
Si Si3 0.845598 0.500000 0.962246
O O1 0.634262 0.189525 0.965359
O O2 0.876119 0.176258 0.877652
O O3 0.255729 0.000000 0.332279
O O4 0.000000 0.000000 0.263035
O O5 0.000000 0.500000 0.931255
#
# Coordination Sequence:
#
# PCOD9559532 Si02
#       3
#     8   8   8
#     4  12  25  45  70 104 140 192 236 306 352 448
#     4  12  24  48  72 106 143 193 243 303 370 442
#     4  12  28  48  74 106 143 199 247 303 378 438
#
# _framework density 22.671237999999999
#
# number of rings (size 3 to 8) (size 9 to 14) (size 15 to 20)
#    0.000    0.000    6.667    2.000    9.333    0.000 
#    0.000    0.000    0.000    0.000    0.000    0.000 
#    0.000    0.000    0.000    0.000    0.000    0.000 
#
# Total GULP energy -67298.932700 kJ/mol
# GULP energy per Si atom -5608.244392 kJ/mol
# Density = 2.261964 g / cm^3
# Si number density = 22.671238 Si / 1000 Ang^3
#
#
#
# Elastic Constant Matrix: (Units=GPa)
#
#
# Indices 1 2 3 4 5 6 
#
# 1 241.2090 52.0327 38.6012 0.0000 0.0000 0.0000
# 2 52.0327 241.2120 38.6010 0.0000 0.0000 0.0000
# 3 38.6012 38.6010 58.9627 0.0000 0.0000 0.0000
# 4 0.0000 0.0000 0.0000 12.5912 0.0000 0.0000
# 5 0.0000 0.0000 0.0000 0.0000 12.5910 0.0000
# 6 0.0000 0.0000 0.0000 0.0000 0.0000 37.3922
#
#
#
# Elastic Compliance Matrix: (Units=1/GPa)
#
#
# Indices 1 2 3 4 5 6 
#
# 1 0.004703 -0.000583 -0.002697 0.000000 0.000000 0.000000
# 2 -0.000583 0.004703 -0.002697 0.000000 0.000000 0.000000
# 3 -0.002697 -0.002697 0.020492 0.000000 0.000000 0.000000
# 4 0.000000 0.000000 0.000000 0.079420 0.000000 0.000000
# 5 0.000000 0.000000 0.000000 0.000000 0.079422 0.000000
# 6 0.000000 0.000000 0.000000 0.000000 0.000000 0.026744
#
#
# Mechanical properties :
#
#
# Convention : Reuss Voigt Hill
#
# Bulk Modulus (GPa) = 55.73335 88.87262 72.30298
# Shear Modulus (GPa) = 21.42059 39.99147 30.70603
#
# Velocity S-wave (km/s) = 3.07715 4.20453 3.68422
# Velocity P-wave (km/s) = 6.10424 7.92820 7.07525
#
# Compressibility (1/GPa) = 0.01794258
#
# Stress axis : x y z
#
# Youngs Moduli (GPa) = 212.62132 212.62455 48.80022
#
# Poissons Ratio (x) = 0.12393 0.13164
# Poissons Ratio (y) = 0.12393 0.13163
# Poissons Ratio (z) = 0.57354 0.57353
#
# Static dielectric constant tensor:
#      x y z
#    x 1.845530 0.000000 0.000000 
#    y 0.000000 1.845520 0.000000 
#    z 0.000000 0.000000 1.781600 
# 
# From -- ./inp_files/1319.got.cif
#   From: 2010.05.17/outbox.cif.g08.bks.cpg/sg119_1_cif.got.tgz:1319.got - 2010.05.20 11:21:29.
