data_PCOD9559497
_publ_section_title
;
Structure prediction by ZEFSAII (Michael W. Deem and Ramdas Pophale) SiO2 
 PCOD9559497
Probable space group: I -4 M 2
;
_chemical_formula_sum "Si O2"
_cell_formula_units_Z 60
_cell_length_a 14.348402
_cell_length_b 14.348402
_cell_length_c 14.720318
_cell_angle_alpha 90.000000
_cell_angle_beta 90.000000
_cell_angle_gamma 90.000000
_cell_volume 3030.569609
_symmetry_space_group_name_H-M "I -4 M 2"
_symmetry_group_IT_number 119
_symmetry_cell_setting 'tetragonal'
loop_
_space_group_symop_operation_xyz
x,y,z
y,-x,-z
-x,-y,z
-y,x,-z
y,x,-z
-y,-x,-z
-x,y,z
x,-y,z
1/2+x,1/2+y,1/2+z
1/2+y,1/2-x,1/2-z
1/2-x,1/2-y,1/2+z
1/2-y,1/2+x,1/2-z
1/2+y,1/2+x,1/2-z
1/2-y,1/2-x,1/2-z
1/2-x,1/2+y,1/2+z
1/2+x,1/2-y,1/2+z
loop_
_atom_site_type_symbol
_atom_site_label
_atom_site_fract_x
_atom_site_fract_y
_atom_site_fract_z
Si Si1 0.795320 0.500000 0.337409
Si Si2 0.000000 0.839890 0.336880
Si Si3 0.000000 0.500000 0.250000
Si Si4 0.000000 0.808160 0.888963
Si Si5 0.500000 0.500000 0.500000
Si Si6 0.000000 0.708672 0.512781
Si Si7 0.152093 0.000000 0.321456
Si Si8 0.204548 0.352701 0.493521
O O1 0.728914 0.500000 0.249733
O O2 0.775711 0.590383 0.400514
O O3 0.903680 0.500000 0.307176
O O4 0.000000 0.779432 0.427835
O O5 0.088383 0.908559 0.334906
O O6 0.000000 0.814432 0.781770
O O7 0.088818 0.753920 0.927611
O O8 0.000000 0.909889 0.935558
O O9 0.094400 0.650531 0.505656
O O10 0.000000 0.766312 0.605627
O O11 0.250778 0.250778 0.500000
#
# Coordination Sequence:
#
# PCOD9559497 Si02
#       8
#     8   8   2   8   2   8   8  16
#     4  11  23  39  67  98 124 159 209 281 336 381
#     4  11  22  40  67  93 127 165 218 279 321 368
#     4  12  24  40  60  92 132 166 208 252 340 392
#     4  11  24  39  72  99 130 160 205 281 332 385
#     4  12  20  44  72 108 134 144 212 292 356 364
#     4  12  26  42  59  87 138 184 217 245 300 400
#     4  11  24  40  64  96 125 172 219 263 319 374
#     4  11  23  41  65  95 129 169 213 265 326 378
#
# _framework density 19.798258000000001
#
# number of rings (size 3 to 8) (size 9 to 14) (size 15 to 20)
#    0.000    0.800    1.333    7.200    3.733    3.733 
#    0.000    5.333    0.000    3.200    0.000    0.000 
#    0.000    0.000    0.000    0.000    0.000    0.000 
#
# Total GULP energy -167880.137802 kJ/mol
# GULP energy per Si atom -5596.004593 kJ/mol
# Density = 1.975320 g / cm^3
# Si number density = 19.798258 Si / 1000 Ang^3
#
#
#
# Elastic Constant Matrix: (Units=GPa)
#
#
# Indices 1 2 3 4 5 6 
#
# 1 104.5929 31.4149 35.4289 0.0000 0.0000 0.0000
# 2 31.4149 104.5929 35.4289 0.0000 0.0000 0.0000
# 3 35.4289 35.4289 156.1208 0.0000 0.0000 0.0000
# 4 0.0000 0.0000 0.0000 16.4839 0.0000 0.0000
# 5 0.0000 0.0000 0.0000 0.0000 16.4839 0.0000
# 6 0.0000 0.0000 0.0000 0.0000 0.0000 -64.3216
#
#
#
# Elastic Compliance Matrix: (Units=1/GPa)
#
#
# Indices 1 2 3 4 5 6 
#
# 1 0.011002 -0.002663 -0.001892 0.000000 0.000000 0.000000
# 2 -0.002663 0.011002 -0.001892 0.000000 0.000000 0.000000
# 3 -0.001892 -0.001892 0.007264 0.000000 0.000000 0.000000
# 4 0.000000 0.000000 0.000000 0.060665 0.000000 0.000000
# 5 0.000000 0.000000 0.000000 0.000000 0.060665 0.000000
# 6 0.000000 0.000000 0.000000 0.000000 0.000000 -0.015547
#
#
# Mechanical properties :
#
#
# Convention : Reuss Voigt Hill
#
# Bulk Modulus (GPa) = 61.08047 63.31688 62.19868
# Shear Modulus (GPa) = 32.59350 11.26481 21.92916
#
# Velocity S-wave (km/s) = 4.06184 2.38792 3.33172
# Velocity P-wave (km/s) = 7.27437 6.29709 6.80330
#
# Compressibility (1/GPa) = 0.01637184
#
# Stress axis : x y z
#
# Youngs Moduli (GPa) = 90.89394 90.89394 137.66296
#
# Poissons Ratio (x) = 0.24209 0.26049
# Poissons Ratio (y) = 0.24209 0.26049
# Poissons Ratio (z) = 0.17199 0.17199
#
# Static dielectric constant tensor:
#      x y z
#    x 1.693040 0.000000 0.000000 
#    y 0.000000 1.693040 0.000000 
#    z 0.000000 0.000000 1.653420 
# 
# From -- ./inp_files/5159.got.cif
#   From: 2010.05.17/outbox.cif.g08.bks.cpg/sg119_3_cif.got.tgz:5159.got - 2010.05.20 11:21:29.
