data_PCOD9559243
_publ_section_title
;
Structure prediction by ZEFSAII (Michael W. Deem and Ramdas Pophale) SiO2 
 PCOD9559243
Probable space group: I -4 M 2
;
_chemical_formula_sum "Si O2"
_cell_formula_units_Z 72
_cell_length_a 13.948714
_cell_length_b 13.948714
_cell_length_c 18.186479
_cell_angle_alpha 90.000000
_cell_angle_beta 90.000000
_cell_angle_gamma 90.000000
_cell_volume 3538.481790
_symmetry_space_group_name_H-M "I -4 M 2"
_symmetry_group_IT_number 119
_symmetry_cell_setting 'tetragonal'
loop_
_space_group_symop_operation_xyz
x,y,z
y,-x,-z
-x,-y,z
-y,x,-z
y,x,-z
-y,-x,-z
-x,y,z
x,-y,z
1/2+x,1/2+y,1/2+z
1/2+y,1/2-x,1/2-z
1/2-x,1/2-y,1/2+z
1/2-y,1/2+x,1/2-z
1/2+y,1/2+x,1/2-z
1/2-y,1/2-x,1/2-z
1/2-x,1/2+y,1/2+z
1/2+x,1/2-y,1/2+z
loop_
_atom_site_type_symbol
_atom_site_label
_atom_site_fract_x
_atom_site_fract_y
_atom_site_fract_z
Si Si1 0.113087 0.722186 0.807829
Si Si2 0.383878 0.114363 0.453660
Si Si3 0.280964 0.115361 0.602283
Si Si4 0.886281 0.613720 0.250000
Si Si5 0.887769 0.112819 0.300231
O O1 0.140141 0.640141 0.750000
O O2 0.146189 0.683249 0.886496
O O3 0.145558 0.819550 0.766774
O O4 0.000000 0.732245 0.815264
O O5 0.500000 0.121195 0.464533
O O6 0.327258 0.147332 0.526345
O O7 0.364998 0.000000 0.438554
O O8 0.338736 0.147655 0.674513
O O9 0.171590 0.134520 0.625650
O O10 0.291196 0.000000 0.598968
O O11 0.870021 0.500000 0.255542
O O12 0.000000 0.129046 0.282600
O O13 0.873084 0.000000 0.311795
#
# Coordination Sequence:
#
# PCOD9559243 Si02
#       5
#    16  16  16   8  16
#     4  10  20  34  57  86 115 149 188 231 285 343
#     4   9  17  31  54  88 124 148 174 225 293 355
#     4   9  17  30  52  81 113 148 183 226 281 335
#     4   9  16  26  46  80 116 146 177 218 280 354
#     4   9  19  36  57  82 113 153 200 239 273 323
#
# _framework density 20.347709999999999
#
# number of rings (size 3 to 8) (size 9 to 14) (size 15 to 20)
#    0.000    2.778    0.000    1.333    1.556    3.778 
#    0.000    1.111    0.000    4.000    0.000   12.444 
#    0.000   10.667    0.000    0.000    0.000    0.000 
#
# Total GULP energy -200723.967687 kJ/mol
# GULP energy per Si atom -5575.665769 kJ/mol
# Density = 2.030140 g / cm^3
# Si number density = 20.347710 Si / 1000 Ang^3
#
#
#
# Elastic Constant Matrix: (Units=GPa)
#
#
# Indices 1 2 3 4 5 6 
#
# 1 78.8985 -18.5408 46.6199 0.0000 0.0000 0.0000
# 2 -18.5408 78.8983 46.6199 0.0000 0.0000 0.0000
# 3 46.6199 46.6199 192.8372 0.0000 0.0000 0.0000
# 4 0.0000 0.0000 0.0000 32.7608 0.0000 0.0000
# 5 0.0000 0.0000 0.0000 0.0000 32.7610 0.0000
# 6 0.0000 0.0000 0.0000 0.0000 0.0000 9.0074
#
#
#
# Elastic Compliance Matrix: (Units=1/GPa)
#
#
# Indices 1 2 3 4 5 6 
#
# 1 0.018353 0.008090 -0.006393 0.000000 0.000000 0.000000
# 2 0.008090 0.018353 -0.006393 0.000000 0.000000 0.000000
# 3 -0.006393 -0.006393 0.008277 0.000000 0.000000 0.000000
# 4 0.000000 0.000000 0.000000 0.030524 0.000000 0.000000
# 5 0.000000 0.000000 0.000000 0.000000 0.030524 0.000000
# 6 0.000000 0.000000 0.000000 0.000000 0.000000 0.111019
#
#
# Mechanical properties :
#
#
# Convention : Reuss Voigt Hill
#
# Bulk Modulus (GPa) = 28.09592 55.55911 41.82751
# Shear Modulus (GPa) = 20.98141 33.30151 27.14146
#
# Velocity S-wave (km/s) = 3.21463 4.04991 3.65620
# Velocity P-wave (km/s) = 5.25512 7.01663 6.19877
#
# Compressibility (1/GPa) = 0.03559236
#
# Stress axis : x y z
#
# Youngs Moduli (GPa) = 54.48630 54.48613 120.81925
#
# Poissons Ratio (x) = -0.44082 0.77239
# Poissons Ratio (y) = -0.44082 0.77240
# Poissons Ratio (z) = 0.34833 0.34833
#
# Static dielectric constant tensor:
#      x y z
#    x 1.752560 0.000000 0.000000 
#    y 0.000000 1.752560 0.000000 
#    z 0.000000 0.000000 1.700210 
# 
# From -- ./inp_files/6355.got.cif
#   From: 2010.05.17/outbox.cif.g08.bks.cpg/sg119_4_cif.got.tgz:6355.got - 2010.05.20 11:21:29.
