data_PCOD9559157
_publ_section_title
;
Structure prediction by ZEFSAII (Michael W. Deem and Ramdas Pophale) SiO2 
 PCOD9559157
Probable space group: I -4 M 2
;
_chemical_formula_sum "Si O2"
_cell_formula_units_Z 96
_cell_length_a 14.416296
_cell_length_b 14.416296
_cell_length_c 22.400896
_cell_angle_alpha 90.000000
_cell_angle_beta 90.000000
_cell_angle_gamma 90.000000
_cell_volume 4655.569039
_symmetry_space_group_name_H-M "I -4 M 2"
_symmetry_group_IT_number 119
_symmetry_cell_setting 'tetragonal'
loop_
_space_group_symop_operation_xyz
x,y,z
y,-x,-z
-x,-y,z
-y,x,-z
y,x,-z
-y,-x,-z
-x,y,z
x,-y,z
1/2+x,1/2+y,1/2+z
1/2+y,1/2-x,1/2-z
1/2-x,1/2-y,1/2+z
1/2-y,1/2+x,1/2-z
1/2+y,1/2+x,1/2-z
1/2-y,1/2-x,1/2-z
1/2-x,1/2+y,1/2+z
1/2+x,1/2-y,1/2+z
loop_
_atom_site_type_symbol
_atom_site_label
_atom_site_fract_x
_atom_site_fract_y
_atom_site_fract_z
Si Si1 0.653534 0.398033 0.593400
Si Si2 0.396089 0.308799 0.056617
Si Si3 0.889314 0.104128 0.228551
Si Si4 0.141278 0.602868 0.540184
Si Si5 0.274122 0.610862 0.160529
Si Si6 0.101321 0.307586 0.094236
O O1 0.610680 0.500000 0.580680
O O2 0.661565 0.391885 0.665303
O O3 0.752486 0.396711 0.561861
O O4 0.605186 0.301548 0.577432
O O5 0.500000 0.341162 0.043665
O O6 0.398299 0.197945 0.066157
O O7 0.352064 0.360725 0.112527
O O8 0.331294 0.331294 0.000000
O O9 0.864128 0.183742 0.275101
O O10 0.000000 0.112431 0.215746
O O11 0.875097 0.000000 0.254006
O O12 0.104683 0.500000 0.556064
O O13 0.138211 0.611370 0.468273
O O14 0.258698 0.500000 0.158766
O O15 0.182285 0.663976 0.139106
O O16 0.000000 0.327261 0.120108
#
# Coordination Sequence:
#
# PCOD9559157 Si02
#       6
#    16  16  16  16  16  16
#     4  10  19  36  62  87 116 154 200 251 302 362
#     4  12  23  38  60  88 120 157 205 256 305 356
#     4   9  19  36  59  89 121 155 202 257 311 363
#     4  10  21  39  61  87 123 161 198 244 303 369
#     4  11  23  40  60  85 121 161 204 254 306 364
#     4  11  22  37  59  87 123 160 198 248 306 367
#
# _framework density 20.620463999999998
#
# number of rings (size 3 to 8) (size 9 to 14) (size 15 to 20)
#    0.000    1.500    3.333    2.000    0.000    4.167 
#    0.000    2.500    0.000    6.000    0.000    2.333 
#    0.000    4.000    0.000    0.000    0.000    0.000 
#
# Total GULP energy -267951.128361 kJ/mol
# GULP energy per Si atom -5582.315174 kJ/mol
# Density = 2.057353 g / cm^3
# Si number density = 20.620464 Si / 1000 Ang^3
#
#
#
# Elastic Constant Matrix: (Units=GPa)
#
#
# Indices 1 2 3 4 5 6 
#
# 1 97.7608 17.4602 13.0138 0.0000 0.0000 0.0000
# 2 17.4602 97.7608 13.0138 0.0000 0.0000 0.0000
# 3 13.0138 13.0138 66.8687 0.0000 0.0000 0.0000
# 4 0.0000 0.0000 0.0000 -398.5059 0.0000 0.0000
# 5 0.0000 0.0000 0.0000 0.0000 -398.5059 0.0000
# 6 0.0000 0.0000 0.0000 0.0000 0.0000 -1.1141
#
#
#
# Elastic Compliance Matrix: (Units=1/GPa)
#
#
# Indices 1 2 3 4 5 6 
#
# 1 0.010766 -0.001688 -0.001767 0.000000 0.000000 0.000000
# 2 -0.001688 0.010766 -0.001767 0.000000 0.000000 0.000000
# 3 -0.001767 -0.001767 0.015642 0.000000 0.000000 0.000000
# 4 0.000000 0.000000 0.000000 -0.002509 0.000000 0.000000
# 5 0.000000 0.000000 0.000000 0.000000 -0.002509 0.000000
# 6 0.000000 0.000000 0.000000 0.000000 0.000000 -0.897600
#
#
# Mechanical properties :
#
#
# Convention : Reuss Voigt Hill
#
# Bulk Modulus (GPa) = 37.40905 38.81844 38.11374
# Shear Modulus (GPa) = -5.90952 -145.03167 -75.47059
#
# Velocity S-wave (km/s) = -1.69472 -8.39563 -6.05634
# Velocity P-wave (km/s) = 3.78836 8.66695 5.51200
#
# Compressibility (1/GPa) = 0.02673150
#
# Stress axis : x y z
#
# Youngs Moduli (GPa) = 92.88817 92.88817 63.92896
#
# Poissons Ratio (x) = 0.15675 0.11295
# Poissons Ratio (y) = 0.15675 0.11295
# Poissons Ratio (z) = 0.16411 0.16411
#
# Static dielectric constant tensor:
#      x y z
#    x 1.779480 0.000000 0.000000 
#    y 0.000000 1.779480 0.000000 
#    z 0.000000 0.000000 1.714380 
# 
# From -- ./inp_files/7791.got.cif
#   From: 2010.05.17/outbox.cif.g08.bks.cpg/sg119_4_cif.got.tgz:7791.got - 2010.05.20 11:21:29.
