data_PCOD9559665
_publ_section_title
;
Structure prediction by ZEFSAII (Michael W. Deem and Ramdas Pophale) SiO2 
 PCOD9559665
Probable space group: I -4 C 2
;
_chemical_formula_sum "Si O2"
_cell_formula_units_Z 84
_cell_length_a 23.064584
_cell_length_b 23.064584
_cell_length_c 7.758125
_cell_angle_alpha 90.000000
_cell_angle_beta 90.000000
_cell_angle_gamma 90.000000
_cell_volume 4127.128819
_symmetry_space_group_name_H-M "I -4 C 2"
_symmetry_group_IT_number 120
_symmetry_cell_setting 'tetragonal'
loop_
_space_group_symop_operation_xyz
x,y,z
y,-x,-z
-x,-y,z
-y,x,-z
y,x,1/2-z
-y,-x,1/2-z
-x,y,1/2+z
x,-y,1/2+z
1/2+x,1/2+y,1/2+z
1/2+y,1/2-x,1/2-z
1/2-x,1/2-y,1/2+z
1/2-y,1/2+x,1/2-z
1/2+y,1/2+x,-z
1/2-y,1/2-x,-z
1/2-x,1/2+y,z
1/2+x,1/2-y,z
loop_
_atom_site_type_symbol
_atom_site_label
_atom_site_fract_x
_atom_site_fract_y
_atom_site_fract_z
Si Si1 0.500000 0.500000 0.000000
Si Si2 0.443550 0.074932 0.202577
Si Si3 0.053699 0.119155 0.525195
Si Si4 0.583525 0.753850 0.637990
Si Si5 0.358734 0.641267 0.250000
Si Si6 0.126014 0.373987 0.000000
Si Si7 0.527253 0.297064 0.809055
O O1 0.559561 0.476132 0.916009
O O2 0.513127 0.075625 0.215315
O O3 0.420073 0.120342 0.342741
O O4 0.424056 0.075945 0.000000
O O5 0.111358 0.110788 0.414641
O O6 0.063144 0.167920 0.667641
O O7 0.010153 0.151634 0.395404
O O8 0.625027 0.708474 0.736878
O O9 0.613754 0.814840 0.604235
O O10 0.520664 0.748007 0.733626
O O11 0.567862 0.731431 0.448118
#
# Coordination Sequence:
#
# PCOD9559665 Si02
#       7
#     4  16  16  16   8   8  16
#     4  12  20  26  52  94 128 142 204 266 328 406
#     4  11  21  39  65 100 143 180 202 261 352 420
#     4  10  20  33  55  85 118 165 200 263 328 397
#     4  10  23  41  64  90 123 168 220 280 324 395
#     4  10  22  43  56  76 128 168 222 274 320 381
#     4  12  26  41  68 102 132 172 232 276 330 401
#     4   9  20  39  60  85 120 167 216 251 338 400
#
# _framework density 20.353134000000001
#
# number of rings (size 3 to 8) (size 9 to 14) (size 15 to 20)
#    0.000    1.714    1.905    4.000    2.667    5.714 
#    6.857    1.905    0.000    0.000    0.000    0.000 
#    0.000    0.000    0.000    0.000    0.000    0.000 
#
# Total GULP energy -234098.673911 kJ/mol
# GULP energy per Si atom -5573.777950 kJ/mol
# Density = 2.030681 g / cm^3
# Si number density = 20.353134 Si / 1000 Ang^3
#
#
#
# Elastic Constant Matrix: (Units=GPa)
#
#
# Indices 1 2 3 4 5 6 
#
# 1 48.8558 48.7425 7.6844 0.0000 0.0000 0.0000
# 2 48.7425 48.8603 7.6862 0.0000 0.0000 0.0000
# 3 7.6844 7.6862 92.7113 0.0000 0.0000 0.0000
# 4 0.0000 0.0000 0.0000 12.5566 0.0000 0.0000
# 5 0.0000 0.0000 0.0000 0.0000 12.5560 0.0000
# 6 0.0000 0.0000 0.0000 0.0000 0.0000 19.5700
#
#
#
# Elastic Compliance Matrix: (Units=1/GPa)
#
#
# Indices 1 2 3 4 5 6 
#
# 1 4.334709 -4.324137 -0.000794 0.000000 0.000000 0.000000
# 2 -4.324137 4.334329 -0.000927 0.000000 0.000000 0.000000
# 3 -0.000794 -0.000927 0.010929 0.000000 0.000000 0.000000
# 4 0.000000 0.000000 0.000000 0.079639 0.000000 0.000000
# 5 0.000000 0.000000 0.000000 0.000000 0.079643 0.000000
# 6 0.000000 0.000000 0.000000 0.000000 0.000000 0.051098
#
#
# Mechanical properties :
#
#
# Convention : Reuss Voigt Hill
#
# Bulk Modulus (GPa) = 35.39906 35.40597 35.40252
# Shear Modulus (GPa) = 0.28488 17.35749 8.82118
#
# Velocity S-wave (km/s) = 0.37453 2.92347 2.08410
# Velocity P-wave (km/s) = 4.19729 5.36928 4.81905
#
# Compressibility (1/GPa) = 0.02824933
#
# Stress axis : x y z
#
# Youngs Moduli (GPa) = 0.23070 0.23072 91.50093
#
# Poissons Ratio (x) = 0.99765 0.07267
# Poissons Ratio (y) = 0.99756 0.08482
# Poissons Ratio (z) = 0.00018 0.00021
#
# Static dielectric constant tensor:
#      x y z
#    x 1.184420 0.000000 0.000000 
#    y 0.000000 1.184380 0.000000 
#    z 0.000000 0.000000 1.859850 
# 
# From -- ./inp_files/1489.got.cif
#   From: 2010.05.17/outbox.cif.g08.bks.cpg/sg120_1_cif.got.tgz:1489.got - 2010.05.20 11:28:13.
