data_PCOD9559025
_publ_section_title
;
Structure prediction by ZEFSAII (Michael W. Deem and Ramdas Pophale) SiO2 
 PCOD9559025
Probable space group: I -4 M 2
;
_chemical_formula_sum "Si O2"
_cell_formula_units_Z 112
_cell_length_a 31.848913
_cell_length_b 31.848913
_cell_length_c 5.636296
_cell_angle_alpha 90.000000
_cell_angle_beta 90.000000
_cell_angle_gamma 90.000000
_cell_volume 5717.195218
_symmetry_space_group_name_H-M "I -4 M 2"
_symmetry_group_IT_number 119
_symmetry_cell_setting 'tetragonal'
loop_
_space_group_symop_operation_xyz
x,y,z
y,-x,-z
-x,-y,z
-y,x,-z
y,x,-z
-y,-x,-z
-x,y,z
x,-y,z
1/2+x,1/2+y,1/2+z
1/2+y,1/2-x,1/2-z
1/2-x,1/2-y,1/2+z
1/2-y,1/2+x,1/2-z
1/2+y,1/2+x,1/2-z
1/2-y,1/2-x,1/2-z
1/2-x,1/2+y,1/2+z
1/2+x,1/2-y,1/2+z
loop_
_atom_site_type_symbol
_atom_site_label
_atom_site_fract_x
_atom_site_fract_y
_atom_site_fract_z
Si Si1 0.416492 0.549388 0.240545
Si Si2 0.291266 0.192539 0.499120
Si Si3 0.708831 0.047403 0.883055
Si Si4 0.708635 0.545787 0.710493
Si Si5 0.109158 0.239350 0.418948
Si Si6 0.097523 0.159148 0.128295
Si Si7 0.647393 0.118560 0.001676
O O1 0.434734 0.565267 0.500000
O O2 0.408601 0.500000 0.263974
O O3 0.373862 0.576069 0.195243
O O4 0.443427 0.556573 0.000000
O O5 0.284824 0.215177 0.750000
O O6 0.262712 0.150988 0.504621
O O7 0.341004 0.179051 0.499607
O O8 0.284635 0.215366 0.250000
O O9 0.725602 0.075971 0.667842
O O10 0.696733 0.000000 0.816030
O O11 0.748696 0.044276 0.057127
O O12 0.672712 0.075215 0.000104
O O13 0.703013 0.500000 0.825716
O O14 0.670870 0.558401 0.540790
O O15 0.714384 0.584912 0.880015
O O16 0.115129 0.203424 0.222236
O O17 0.134527 0.134527 0.000000
O O18 0.622838 0.122838 0.250000
O O19 0.623046 0.123046 0.750000
#
# Coordination Sequence:
#
# PCOD9559025 Si02
#       7
#    16  16  16  16  16  16  16
#     4  11  25  45  70  98 130 166 212 265 319 382
#     4  10  19  33  58  87 118 155 207 250 306 368
#     4  10  20  34  51  88 128 161 197 253 314 374
#     4  10  21  36  59  87 121 155 198 251 314 376
#     4  11  21  36  61  90 121 164 208 258 314 389
#     4  10  25  42  60  88 124 166 209 257 318 384
#     4  10  18  32  53  77 118 159 204 242 299 368
#
# _framework density 19.590026999999999
#
# number of rings (size 3 to 8) (size 9 to 14) (size 15 to 20)
#    0.000    1.714    2.857    3.000    6.000    2.571 
#    0.000    0.000    0.000    0.000    3.714    0.000 
#    0.000    1.714    0.000    0.000    0.000    0.000 
#
# Total GULP energy -312265.639592 kJ/mol
# GULP energy per Si atom -5576.172136 kJ/mol
# Density = 1.954544 g / cm^3
# Si number density = 19.590027 Si / 1000 Ang^3
#
#
#
# Elastic Constant Matrix: (Units=GPa)
#
#
# Indices 1 2 3 4 5 6 
#
# 1 78.0889 72.7734 28.5670 0.0000 0.0000 0.0000
# 2 72.7734 78.0841 28.5643 0.0000 0.0000 0.0000
# 3 28.5670 28.5643 107.2730 0.0000 0.0000 0.0000
# 4 0.0000 0.0000 0.0000 -9.9419 0.0000 0.0000
# 5 0.0000 0.0000 0.0000 0.0000 -9.9437 0.0000
# 6 0.0000 0.0000 0.0000 0.0000 0.0000 6.6605
#
#
#
# Elastic Compliance Matrix: (Units=1/GPa)
#
#
# Indices 1 2 3 4 5 6 
#
# 1 0.097791 -0.090421 -0.001965 0.000000 0.000000 0.000000
# 2 -0.090421 0.097795 -0.001961 0.000000 0.000000 0.000000
# 3 -0.001965 -0.001961 0.010368 0.000000 0.000000 0.000000
# 4 0.000000 0.000000 0.000000 -0.100584 0.000000 0.000000
# 5 0.000000 0.000000 0.000000 0.000000 -0.100566 0.000000
# 6 0.000000 0.000000 0.000000 0.000000 0.000000 0.150138
#
#
# Mechanical properties :
#
#
# Convention : Reuss Voigt Hill
#
# Bulk Modulus (GPa) = 57.93982 58.13947 58.03965
# Shear Modulus (GPa) = 14.31072 6.25774 10.28423
#
# Velocity S-wave (km/s) = 2.70573 1.78921 2.29371
# Velocity P-wave (km/s) = 6.27708 5.83189 6.05857
#
# Compressibility (1/GPa) = 0.01725929
#
# Stress axis : x y z
#
# Youngs Moduli (GPa) = 10.22592 10.22543 96.45507
#
# Poissons Ratio (x) = 0.92459 0.18952
# Poissons Ratio (y) = 0.92464 0.18919
# Poissons Ratio (z) = 0.02009 0.02006
#
# Static dielectric constant tensor:
#      x y z
#    x 1.738140 0.000000 0.000000 
#    y 0.000000 1.738140 0.000000 
#    z 0.000000 0.000000 1.828840 
# 
# From -- ./inp_files/1205.got.cif
#   From: 2010.05.17/outbox.cif.g08.bks.cpg/sg119_1_cif.got.tgz:1205.got - 2010.05.20 11:21:29.
