data_PCOD9559675
_publ_section_title
;
Structure prediction by ZEFSAII (Michael W. Deem and Ramdas Pophale) SiO2 
 PCOD9559675
Probable space group: I -4 C 2
;
_chemical_formula_sum "Si O2"
_cell_formula_units_Z 104
_cell_length_a 20.530628
_cell_length_b 20.530628
_cell_length_c 14.672131
_cell_angle_alpha 90.000000
_cell_angle_beta 90.000000
_cell_angle_gamma 90.000000
_cell_volume 6184.401315
_symmetry_space_group_name_H-M "I -4 C 2"
_symmetry_group_IT_number 120
_symmetry_cell_setting 'tetragonal'
loop_
_space_group_symop_operation_xyz
x,y,z
y,-x,-z
-x,-y,z
-y,x,-z
y,x,1/2-z
-y,-x,1/2-z
-x,y,1/2+z
x,-y,1/2+z
1/2+x,1/2+y,1/2+z
1/2+y,1/2-x,1/2-z
1/2-x,1/2-y,1/2+z
1/2-y,1/2+x,1/2-z
1/2+y,1/2+x,-z
1/2-y,1/2-x,-z
1/2-x,1/2+y,z
1/2+x,1/2-y,z
loop_
_atom_site_type_symbol
_atom_site_label
_atom_site_fract_x
_atom_site_fract_y
_atom_site_fract_z
Si Si1 0.898536 0.101465 0.750000
Si Si2 0.826694 0.224914 0.481978
Si Si3 0.329374 0.776151 0.783705
Si Si4 0.634537 0.506993 0.114573
Si Si5 0.253197 0.398392 0.830750
Si Si6 0.463975 0.264306 0.227042
Si Si7 0.644908 0.422089 0.937011
O O1 0.900727 0.172353 0.703762
O O2 0.954266 0.095990 0.825221
O O3 0.755354 0.255354 0.500000
O O4 0.846250 0.259236 0.388173
O O5 0.875136 0.243625 0.564273
O O6 0.826722 0.147709 0.468692
O O7 0.283273 0.716728 0.750000
O O8 0.287719 0.842125 0.780268
O O9 0.398169 0.777474 0.733088
O O10 0.697133 0.524597 0.177498
O O11 0.593512 0.570906 0.091352
O O12 0.651526 0.472366 0.019651
O O13 0.228453 0.470533 0.806160
O O14 0.448730 0.318707 0.151179
#
# Coordination Sequence:
#
# PCOD9559675 Si02
#       7
#     8  16  16  16  16  16  16
#     4  10  20  36  53  74 110 146 186 237 266 328
#     4  10  20  34  57  82 107 147 189 233 289 334
#     4  11  19  36  62  83 111 146 192 238 289 337
#     4  11  24  37  52  76 111 155 198 231 273 326
#     4  10  21  37  55  82 113 143 186 235 291 333
#     4  11  23  38  59  82 112 147 192 243 280 342
#     4  12  22  40  53  77 115 154 194 233 278 336
#
# _framework density 16.816503000000001
#
# number of rings (size 3 to 8) (size 9 to 14) (size 15 to 20)
#    0.000    1.231    5.385    1.385    2.154    0.308 
#    2.769    0.000    0.000    0.462    0.000    0.000 
#    0.000    3.692    0.000    0.000    0.000    0.000 
#
# Total GULP energy -290200.984297 kJ/mol
# GULP energy per Si atom -5580.788160 kJ/mol
# Density = 1.677823 g / cm^3
# Si number density = 16.816503 Si / 1000 Ang^3
#
#
#
# Elastic Constant Matrix: (Units=GPa)
#
#
# Indices 1 2 3 4 5 6 
#
# 1 89.0923 46.6903 39.6939 0.0000 0.0000 0.0000
# 2 46.6903 89.0871 39.6988 0.0000 0.0000 0.0000
# 3 39.6939 39.6988 91.1717 0.0000 0.0000 0.0000
# 4 0.0000 0.0000 0.0000 22.5150 0.0000 0.0000
# 5 0.0000 0.0000 0.0000 0.0000 22.5143 0.0000
# 6 0.0000 0.0000 0.0000 0.0000 0.0000 17.4601
#
#
#
# Elastic Compliance Matrix: (Units=1/GPa)
#
#
# Indices 1 2 3 4 5 6 
#
# 1 0.016732 -0.006852 -0.004301 0.000000 0.000000 0.000000
# 2 -0.006852 0.016734 -0.004303 0.000000 0.000000 0.000000
# 3 -0.004301 -0.004303 0.014714 0.000000 0.000000 0.000000
# 4 0.000000 0.000000 0.000000 0.044415 0.000000 0.000000
# 5 0.000000 0.000000 0.000000 0.000000 0.044416 0.000000
# 6 0.000000 0.000000 0.000000 0.000000 0.000000 0.057273
#
#
# Mechanical properties :
#
#
# Convention : Reuss Voigt Hill
#
# Bulk Modulus (GPa) = 57.91271 57.94636 57.92953
# Shear Modulus (GPa) = 21.64947 22.04909 21.84928
#
# Velocity S-wave (km/s) = 3.59192 3.62492 3.60846
# Velocity P-wave (km/s) = 7.19134 7.21477 7.20306
#
# Compressibility (1/GPa) = 0.01726737
#
# Stress axis : x y z
#
# Youngs Moduli (GPa) = 59.76711 59.75917 67.96059
#
# Poissons Ratio (x) = 0.40950 0.29228
# Poissons Ratio (y) = 0.40955 0.29243
# Poissons Ratio (z) = 0.25704 0.25714
#
# Static dielectric constant tensor:
#      x y z
#    x 1.585580 0.000000 0.000000 
#    y 0.000000 1.585580 0.000000 
#    z 0.000000 0.000000 1.582660 
# 
# From -- ./inp_files/3672.got.cif
#   From: 2010.05.17/outbox.cif.g08.bks.cpg/sg120_2_cif.got.tgz:3672.got - 2010.05.20 11:28:13.
