data_PCOD9559000
_publ_section_title
;
Structure prediction by ZEFSAII (Michael W. Deem and Ramdas Pophale) SiO2 
 PCOD9559000
Probable space group: I -4 M 2
;
_chemical_formula_sum "Si O2"
_cell_formula_units_Z 112
_cell_length_a 22.489281
_cell_length_b 22.489281
_cell_length_c 13.322831
_cell_angle_alpha 90.000000
_cell_angle_beta 90.000000
_cell_angle_gamma 90.000000
_cell_volume 6738.258390
_symmetry_space_group_name_H-M "I -4 M 2"
_symmetry_group_IT_number 119
_symmetry_cell_setting 'tetragonal'
loop_
_space_group_symop_operation_xyz
x,y,z
y,-x,-z
-x,-y,z
-y,x,-z
y,x,-z
-y,-x,-z
-x,y,z
x,-y,z
1/2+x,1/2+y,1/2+z
1/2+y,1/2-x,1/2-z
1/2-x,1/2-y,1/2+z
1/2-y,1/2+x,1/2-z
1/2+y,1/2+x,1/2-z
1/2-y,1/2-x,1/2-z
1/2-x,1/2+y,1/2+z
1/2+x,1/2-y,1/2+z
loop_
_atom_site_type_symbol
_atom_site_label
_atom_site_fract_x
_atom_site_fract_y
_atom_site_fract_z
Si Si1 0.657037 0.646245 0.758781
Si Si2 0.765762 0.932376 0.625806
Si Si3 0.432547 0.161458 0.712342
Si Si4 0.145581 0.233592 0.561736
Si Si5 0.567706 0.617031 0.602360
Si Si6 0.253785 0.930947 0.970834
Si Si7 0.253337 0.682645 0.594333
O O1 0.609292 0.686748 0.817544
O O2 0.697917 0.618108 0.844925
O O3 0.618115 0.605242 0.685185
O O4 0.702396 0.684303 0.688981
O O5 0.709929 0.933803 0.699556
O O6 0.748023 0.902925 0.520058
O O7 0.787818 0.000000 0.613563
O O8 0.500000 0.140374 0.694950
O O9 0.389725 0.110276 0.750000
O O10 0.413037 0.197267 0.612415
O O11 0.188736 0.188736 0.500000
O O12 0.190275 0.284212 0.602593
O O13 0.582971 0.582971 0.500000
O O14 0.500000 0.604946 0.634408
O O15 0.572477 0.687800 0.578048
O O16 0.263186 0.000000 0.997319
O O17 0.255689 0.885723 0.062762
O O18 0.286963 0.713038 0.500000
#
# Coordination Sequence:
#
# PCOD9559000 Si02
#       7
#    16  16  16  16  16  16  16
#     4  11  18  32  49  75  96 125 161 208 256 298
#     4  10  19  34  50  69  99 135 175 205 241 300
#     4  10  19  30  48  72 100 135 170 204 246 297
#     4   9  21  30  46  71 101 132 167 206 252 296
#     4  11  20  34  52  73 101 128 160 204 251 307
#     4  10  18  30  48  72  98 128 167 203 250 307
#     4  11  17  30  47  72 104 130 157 207 261 310
#
# _framework density 16.621504999999999
#
# number of rings (size 3 to 8) (size 9 to 14) (size 15 to 20)
#    0.000    1.714    4.286    1.714    0.000    2.571 
#    0.000    1.429    0.000    0.000    0.000    0.000 
#    0.000   15.143    0.000    0.000    0.000   48.286 
#
# Total GULP energy -312147.076416 kJ/mol
# GULP energy per Si atom -5574.054936 kJ/mol
# Density = 1.658367 g / cm^3
# Si number density = 16.621505 Si / 1000 Ang^3
#
#
#
# Elastic Constant Matrix: (Units=GPa)
#
#
# Indices 1 2 3 4 5 6 
#
# 1 49.2182 28.5569 20.6520 0.0000 0.0000 0.0000
# 2 28.5569 49.2186 20.6507 0.0000 0.0000 0.0000
# 3 20.6520 20.6507 62.7328 0.0000 0.0000 0.0000
# 4 0.0000 0.0000 0.0000 21.0326 0.0000 0.0000
# 5 0.0000 0.0000 0.0000 0.0000 21.0332 0.0000
# 6 0.0000 0.0000 0.0000 0.0000 0.0000 16.8754
#
#
#
# Elastic Compliance Matrix: (Units=1/GPa)
#
#
# Indices 1 2 3 4 5 6 
#
# 1 0.031991 -0.016409 -0.005130 0.000000 0.000000 0.000000
# 2 -0.016409 0.031990 -0.005129 0.000000 0.000000 0.000000
# 3 -0.005130 -0.005129 0.019318 0.000000 0.000000 0.000000
# 4 0.000000 0.000000 0.000000 0.047545 0.000000 0.000000
# 5 0.000000 0.000000 0.000000 0.000000 0.047544 0.000000
# 6 0.000000 0.000000 0.000000 0.000000 0.000000 0.059258
#
#
# Mechanical properties :
#
#
# Convention : Reuss Voigt Hill
#
# Bulk Modulus (GPa) = 33.37413 33.43208 33.40310
# Shear Modulus (GPa) = 16.61303 17.87556 17.24430
#
# Velocity S-wave (km/s) = 3.16490 3.28296 3.22447
# Velocity P-wave (km/s) = 5.78601 5.87604 5.83120
#
# Compressibility (1/GPa) = 0.02996333
#
# Stress axis : x y z
#
# Youngs Moduli (GPa) = 31.25890 31.25984 51.76586
#
# Poissons Ratio (x) = 0.51294 0.26556
# Poissons Ratio (y) = 0.51292 0.26549
# Poissons Ratio (z) = 0.16036 0.16032
#
# Static dielectric constant tensor:
#      x y z
#    x 1.565410 0.000000 0.000000 
#    y 0.000000 1.565410 0.000000 
#    z 0.000000 0.000000 1.579620 
# 
# From -- ./inp_files/4420.got.cif
#   From: 2010.05.17/outbox.cif.g08.bks.cpg/sg119_3_cif.got.tgz:4420.got - 2010.05.20 11:21:29.
