data_PCOD9559836
_publ_section_title
;
Structure prediction by ZEFSAII (Michael W. Deem and Ramdas Pophale) SiO2 
 PCOD9559836
Probable space group: I -4 C 2
;
_chemical_formula_sum "Si O2"
_cell_formula_units_Z 72
_cell_length_a 14.193641
_cell_length_b 14.193641
_cell_length_c 14.642488
_cell_angle_alpha 90.000000
_cell_angle_beta 90.000000
_cell_angle_gamma 90.000000
_cell_volume 2949.867504
_symmetry_space_group_name_H-M "I -4 C 2"
_symmetry_group_IT_number 120
_symmetry_cell_setting 'tetragonal'
loop_
_space_group_symop_operation_xyz
x,y,z
y,-x,-z
-x,-y,z
-y,x,-z
y,x,1/2-z
-y,-x,1/2-z
-x,y,1/2+z
x,-y,1/2+z
1/2+x,1/2+y,1/2+z
1/2+y,1/2-x,1/2-z
1/2-x,1/2-y,1/2+z
1/2-y,1/2+x,1/2-z
1/2+y,1/2+x,-z
1/2-y,1/2-x,-z
1/2-x,1/2+y,z
1/2+x,1/2-y,z
loop_
_atom_site_type_symbol
_atom_site_label
_atom_site_fract_x
_atom_site_fract_y
_atom_site_fract_z
Si Si1 0.101898 0.285997 0.901222
Si Si2 0.978108 0.305706 0.642875
Si Si3 0.235122 0.235122 0.750000
Si Si4 0.133725 0.057102 0.474826
Si Si5 0.324476 0.902784 0.651868
O O1 0.146540 0.389216 0.907542
O O2 0.137296 0.248847 0.801898
O O3 0.989599 0.298267 0.911380
O O4 0.126725 0.201540 0.968953
O O5 0.977136 0.196417 0.611148
O O6 0.952308 0.325982 0.748288
O O7 0.076259 0.357330 0.624470
O O8 0.314992 0.244547 0.827885
O O9 0.033438 0.106656 0.462066
#
# Coordination Sequence:
#
# PCOD9559836 Si02
#       5
#    16  16   8  16  16
#     4  11  24  41  72 103 140 186 238 303 367 442
#     4  11  22  44  71 102 142 180 240 306 373 430
#     4  10  22  38  66 108 142 180 232 292 368 434
#     4  11  27  48  68  98 150 197 244 300 372 456
#     4  11  22  39  71 100 139 181 237 301 361 434
#
# _framework density 24.407876999999999
#
# number of rings (size 3 to 8) (size 9 to 14) (size 15 to 20)
#    0.000    1.111    4.444    2.667    6.222    0.889 
#    4.000    2.222    0.000    0.000    0.000    0.000 
#    0.000    0.000    0.000    0.000    0.000    0.000 
#
# Total GULP energy -200981.398754 kJ/mol
# GULP energy per Si atom -5582.816632 kJ/mol
# Density = 2.435232 g / cm^3
# Si number density = 24.407877 Si / 1000 Ang^3
#
#
#
# Elastic Constant Matrix: (Units=GPa)
#
#
# Indices 1 2 3 4 5 6 
#
# 1 139.9785 38.1035 5.6248 0.0000 0.0000 0.0000
# 2 38.1035 139.9785 5.6248 0.0000 0.0000 0.0000
# 3 5.6248 5.6248 43.8032 0.0000 0.0000 0.0000
# 4 0.0000 0.0000 0.0000 35.7100 0.0000 0.0000
# 5 0.0000 0.0000 0.0000 0.0000 35.7100 0.0000
# 6 0.0000 0.0000 0.0000 0.0000 0.0000 46.7403
#
#
#
# Elastic Compliance Matrix: (Units=1/GPa)
#
#
# Indices 1 2 3 4 5 6 
#
# 1 0.007739 -0.002077 -0.000727 0.000000 0.000000 0.000000
# 2 -0.002077 0.007739 -0.000727 0.000000 0.000000 0.000000
# 3 -0.000727 -0.000727 0.023016 0.000000 0.000000 0.000000
# 4 0.000000 0.000000 0.000000 0.028003 0.000000 0.000000
# 5 0.000000 0.000000 0.000000 0.000000 0.028003 0.000000
# 6 0.000000 0.000000 0.000000 0.000000 0.000000 0.021395
#
#
# Mechanical properties :
#
#
# Convention : Reuss Voigt Hill
#
# Bulk Modulus (GPa) = 31.81590 46.94071 39.37831
# Shear Modulus (GPa) = 37.47160 41.92586 39.69873
#
# Velocity S-wave (km/s) = 3.92245 4.14903 4.03733
# Velocity P-wave (km/s) = 5.79461 6.49817 6.15645
#
# Compressibility (1/GPa) = 0.03143082
#
# Stress axis : x y z
#
# Youngs Moduli (GPa) = 129.22178 129.22179 43.44785
#
# Poissons Ratio (x) = 0.26843 0.03159
# Poissons Ratio (y) = 0.26843 0.03159
# Poissons Ratio (z) = 0.09394 0.09394
#
# Static dielectric constant tensor:
#      x y z
#    x 1.944330 0.000000 0.000000 
#    y 0.000000 1.944330 0.000000 
#    z 0.000000 0.000000 2.058570 
# 
# From -- ./inp_files/4275.got.cif
#   From: 2010.05.17/outbox.cif.g08.bks.cpg/sg120_3_cif.got.tgz:4275.got - 2010.05.20 11:28:13.
