data_PCOD9559303
_publ_section_title
;
Structure prediction by ZEFSAII (Michael W. Deem and Ramdas Pophale) SiO2 
 PCOD9559303
Probable space group: I -4 M 2
;
_chemical_formula_sum "Si O2"
_cell_formula_units_Z 80
_cell_length_a 16.689252
_cell_length_b 16.689252
_cell_length_c 14.663518
_cell_angle_alpha 90.000000
_cell_angle_beta 90.000000
_cell_angle_gamma 90.000000
_cell_volume 4084.246272
_symmetry_space_group_name_H-M "I -4 M 2"
_symmetry_group_IT_number 119
_symmetry_cell_setting 'tetragonal'
loop_
_space_group_symop_operation_xyz
x,y,z
y,-x,-z
-x,-y,z
-y,x,-z
y,x,-z
-y,-x,-z
-x,y,z
x,-y,z
1/2+x,1/2+y,1/2+z
1/2+y,1/2-x,1/2-z
1/2-x,1/2-y,1/2+z
1/2-y,1/2+x,1/2-z
1/2+y,1/2+x,1/2-z
1/2-y,1/2-x,1/2-z
1/2-x,1/2+y,1/2+z
1/2+x,1/2-y,1/2+z
loop_
_atom_site_type_symbol
_atom_site_label
_atom_site_fract_x
_atom_site_fract_y
_atom_site_fract_z
Si Si1 0.658737 0.094229 0.978957
Si Si2 0.340541 0.592508 0.407936
Si Si3 0.303815 0.331587 0.768880
Si Si4 0.409593 0.842023 0.157608
Si Si5 0.193851 0.408623 0.177594
O O1 0.747419 0.103586 0.936652
O O2 0.600663 0.146931 0.916513
O O3 0.638885 0.000000 0.978131
O O4 0.651605 0.128448 0.080484
O O5 0.389165 0.610836 0.500000
O O6 0.352283 0.500000 0.380335
O O7 0.357911 0.652891 0.324637
O O8 0.234884 0.265117 0.750000
O O9 0.252267 0.398165 0.820447
O O10 0.369506 0.281770 0.825459
O O11 0.500000 0.859050 0.128049
O O12 0.389764 0.889764 0.250000
O O13 0.198968 0.500000 0.207704
O O14 0.141416 0.358585 0.250000
#
# Coordination Sequence:
#
# PCOD9559303 Si02
#       5
#    16  16  16  16  16
#     4  11  23  38  60  90 123 158 195 248 312 369
#     4  11  22  38  61  90 124 158 200 253 306 364
#     4  10  20  38  60  83 118 162 201 243 295 361
#     4  11  24  40  59  85 118 162 207 252 300 356
#     4  11  21  35  58  89 123 160 198 244 305 367
#
# _framework density 19.587458000000002
#
# number of rings (size 3 to 8) (size 9 to 14) (size 15 to 20)
#    0.000    1.200    4.000    4.800    0.000    6.200 
#    0.000    0.000    0.000    1.800    0.000    0.000 
#    0.000    6.400    0.000    0.000    0.000    0.000 
#
# Total GULP energy -223390.281359 kJ/mol
# GULP energy per Si atom -5584.757034 kJ/mol
# Density = 1.954288 g / cm^3
# Si number density = 19.587458 Si / 1000 Ang^3
#
#
#
# Elastic Constant Matrix: (Units=GPa)
#
#
# Indices 1 2 3 4 5 6 
#
# 1 38.5033 14.8105 -2.2494 0.0000 0.0000 0.0000
# 2 14.8105 38.5036 -2.2497 0.0000 0.0000 0.0000
# 3 -2.2494 -2.2497 83.0202 0.0000 0.0000 0.0000
# 4 0.0000 0.0000 0.0000 20.0117 0.0000 0.0000
# 5 0.0000 0.0000 0.0000 0.0000 20.0099 0.0000
# 6 0.0000 0.0000 0.0000 0.0000 0.0000 14.0061
#
#
#
# Elastic Compliance Matrix: (Units=1/GPa)
#
#
# Indices 1 2 3 4 5 6 
#
# 1 0.030503 -0.011703 0.000509 0.000000 0.000000 0.000000
# 2 -0.011703 0.030503 0.000509 0.000000 0.000000 0.000000
# 3 0.000509 0.000509 0.012073 0.000000 0.000000 0.000000
# 4 0.000000 0.000000 0.000000 0.049971 0.000000 0.000000
# 5 0.000000 0.000000 0.000000 0.000000 0.049975 0.000000
# 6 0.000000 0.000000 0.000000 0.000000 0.000000 0.071397
#
#
# Mechanical properties :
#
#
# Convention : Reuss Voigt Hill
#
# Bulk Modulus (GPa) = 19.33858 20.07221 19.70539
# Shear Modulus (GPa) = 17.66607 20.78660 19.22634
#
# Velocity S-wave (km/s) = 3.00643 3.26117 3.13639
# Velocity P-wave (km/s) = 4.68465 4.94470 4.81643
#
# Compressibility (1/GPa) = 0.05171011
#
# Stress axis : x y z
#
# Youngs Moduli (GPa) = 32.78333 32.78354 82.83039
#
# Poissons Ratio (x) = 0.38368 -0.04219
# Poissons Ratio (y) = 0.38368 -0.04220
# Poissons Ratio (z) = -0.01670 -0.01670
#
# Static dielectric constant tensor:
#      x y z
#    x 1.701770 0.000000 0.000000 
#    y 0.000000 1.701770 0.000000 
#    z 0.000000 0.000000 1.730020 
# 
# From -- ./inp_files/5251.got.cif
#   From: 2010.05.17/outbox.cif.g08.bks.cpg/sg119_3_cif.got.tgz:5251.got - 2010.05.20 11:21:29.
